
     RDKit          3D

 20 20  0  0  0  0  0  0  0  0999 V2000
   -2.3875    0.2089   -0.3840 C   0  0  0  0  0  0  0  0  0  0  0  0
   -1.0185   -0.3611   -0.1618 C   0  0  0  0  0  0  0  0  0  0  0  0
    0.0465    0.3025    0.2666 C   0  0  0  0  0  0  0  0  0  0  0  0
    0.0379    1.7658    0.6023 C   0  0  0  0  0  0  0  0  0  0  0  0
    1.1958   -0.6344    0.3453 C   0  0  0  0  0  0  0  0  0  0  0  0
    2.4629   -0.0085   -0.2159 C   0  0  0  0  0  0  0  0  0  0  0  0
    0.8039   -1.7522   -0.3785 O   0  0  0  0  0  0  0  0  0  0  0  0
   -0.5760   -1.7646   -0.3708 C   0  0  0  0  0  0  0  0  0  0  0  0
   -2.6698    0.9229    0.4225 H   0  0  0  0  0  0  0  0  0  0  0  0
   -3.1037   -0.6392   -0.2944 H   0  0  0  0  0  0  0  0  0  0  0  0
   -2.4624    0.7491   -1.3303 H   0  0  0  0  0  0  0  0  0  0  0  0
   -0.0169    2.3949   -0.3113 H   0  0  0  0  0  0  0  0  0  0  0  0
    0.9286    2.0082    1.1928 H   0  0  0  0  0  0  0  0  0  0  0  0
   -0.8486    1.9487    1.2631 H   0  0  0  0  0  0  0  0  0  0  0  0
    1.3165   -0.9464    1.4040 H   0  0  0  0  0  0  0  0  0  0  0  0
    3.2729   -0.1772    0.4953 H   0  0  0  0  0  0  0  0  0  0  0  0
    2.6390   -0.4960   -1.2018 H   0  0  0  0  0  0  0  0  0  0  0  0
    2.2749    1.0822   -0.3289 H   0  0  0  0  0  0  0  0  0  0  0  0
   -0.8918   -2.1375   -1.3880 H   0  0  0  0  0  0  0  0  0  0  0  0
   -1.0036   -2.4662    0.3738 H   0  0  0  0  0  0  0  0  0  0  0  0
  1  2  1  0
  2  3  2  0
  3  4  1  0
  3  5  1  0
  5  6  1  0
  5  7  1  0
  7  8  1  0
  8  2  1  0
  1  9  1  0
  1 10  1  0
  1 11  1  0
  4 12  1  0
  4 13  1  0
  4 14  1  0
  5 15  1  0
  6 16  1  0
  6 17  1  0
  6 18  1  0
  8 19  1  0
  8 20  1  0
M  END
