
     RDKit          3D

 19 19  0  0  0  0  0  0  0  0999 V2000
    2.5136   -0.0027    0.0854 C   0  0  0  0  0  0  0  0  0  0  0  0
    1.0159    0.1649   -0.0835 C   0  0  0  0  0  0  0  0  0  0  0  0
    0.5206    1.3187    0.3302 C   0  0  0  0  0  0  0  0  0  0  0  0
   -0.8835    1.7215    0.2772 C   0  0  0  0  0  0  0  0  0  0  0  0
   -1.0902    2.9810    0.3522 O   0  0  0  0  0  0  0  0  0  0  0  0
   -2.0771    0.8863    0.1510 C   0  0  0  0  0  0  0  0  0  0  0  0
   -2.0487   -0.4381    0.0503 C   0  0  0  0  0  0  0  0  0  0  0  0
   -0.9420   -1.4096    0.0325 C   0  0  0  0  0  0  0  0  0  0  0  0
    0.2831   -0.9489   -0.6797 C   0  0  0  0  0  0  0  0  0  0  0  0
    2.6431   -0.2404    1.1630 H   0  0  0  0  0  0  0  0  0  0  0  0
    2.8374   -0.8702   -0.4862 H   0  0  0  0  0  0  0  0  0  0  0  0
    3.0428    0.9274   -0.1154 H   0  0  0  0  0  0  0  0  0  0  0  0
    1.2315    2.0371    0.7512 H   0  0  0  0  0  0  0  0  0  0  0  0
   -3.0270    1.3852    0.1402 H   0  0  0  0  0  0  0  0  0  0  0  0
   -3.0221   -0.9019   -0.0333 H   0  0  0  0  0  0  0  0  0  0  0  0
   -0.6666   -1.7463    1.0619 H   0  0  0  0  0  0  0  0  0  0  0  0
   -1.2965   -2.3166   -0.4980 H   0  0  0  0  0  0  0  0  0  0  0  0
    0.9765   -1.8130   -0.7500 H   0  0  0  0  0  0  0  0  0  0  0  0
   -0.0108   -0.7343   -1.7489 H   0  0  0  0  0  0  0  0  0  0  0  0
  1  2  1  0
  2  3  2  0
  3  4  1  0
  4  5  2  0
  4  6  1  0
  6  7  2  0
  7  8  1  0
  8  9  1  0
  9  2  1  0
  1 10  1  0
  1 11  1  0
  1 12  1  0
  3 13  1  0
  6 14  1  0
  7 15  1  0
  8 16  1  0
  8 17  1  0
  9 18  1  0
  9 19  1  0
M  END
