
     RDKit          3D

 21 22  0  0  0  0  0  0  0  0999 V2000
   -1.7280    1.6798    0.4350 C   0  0  0  0  0  0  0  0  0  0  0  0
   -0.6105    0.7429    0.1107 C   0  0  0  0  0  0  0  0  0  0  0  0
   -0.6840   -0.5518   -0.1423 C   0  0  0  0  0  0  0  0  0  0  0  0
   -1.9411   -1.3827   -0.1587 C   0  0  0  0  0  0  0  0  0  0  0  0
    0.6477   -1.1345   -0.4208 C   0  0  0  0  0  0  0  0  0  0  0  0
    1.3968   -1.4971    0.6850 O   0  0  0  0  0  0  0  0  0  0  0  0
    2.4696   -0.6684    0.2949 C   0  0  0  0  0  0  0  0  0  0  0  0
    1.5395    0.0450   -0.6430 C   0  0  0  0  0  0  0  0  0  0  0  0
    0.8154    1.1672    0.0246 C   0  0  0  0  0  0  0  0  0  0  0  0
   -1.3829    2.5153    1.0976 H   0  0  0  0  0  0  0  0  0  0  0  0
   -2.0188    2.1706   -0.5213 H   0  0  0  0  0  0  0  0  0  0  0  0
   -2.5683    1.1915    0.9406 H   0  0  0  0  0  0  0  0  0  0  0  0
   -1.8077   -2.1225    0.6832 H   0  0  0  0  0  0  0  0  0  0  0  0
   -2.8359   -0.7617    0.0141 H   0  0  0  0  0  0  0  0  0  0  0  0
   -2.0237   -1.9833   -1.0784 H   0  0  0  0  0  0  0  0  0  0  0  0
    0.6691   -1.8771   -1.2633 H   0  0  0  0  0  0  0  0  0  0  0  0
    3.3067   -1.1789   -0.1814 H   0  0  0  0  0  0  0  0  0  0  0  0
    2.7546   -0.0020    1.1476 H   0  0  0  0  0  0  0  0  0  0  0  0
    1.8946    0.2051   -1.6663 H   0  0  0  0  0  0  0  0  0  0  0  0
    0.9479    2.1483   -0.4499 H   0  0  0  0  0  0  0  0  0  0  0  0
    1.1591    1.2943    1.0918 H   0  0  0  0  0  0  0  0  0  0  0  0
  1  2  1  0
  2  3  2  0
  3  4  1  0
  3  5  1  0
  5  6  1  0
  6  7  1  0
  7  8  1  0
  8  9  1  0
  9  2  1  0
  8  5  1  0
  1 10  1  0
  1 11  1  0
  1 12  1  0
  4 13  1  0
  4 14  1  0
  4 15  1  0
  5 16  1  0
  7 17  1  0
  7 18  1  0
  8 19  1  0
  9 20  1  0
  9 21  1  0
M  END
