
     RDKit          3D

 19 19  0  0  0  0  0  0  0  0999 V2000
    2.5975   -0.5238   -0.0512 C   0  0  0  0  0  0  0  0  0  0  0  0
    1.1753   -0.0917   -0.0732 C   0  0  0  0  0  0  0  0  0  0  0  0
    0.8994    1.1952    0.0287 C   0  0  0  0  0  0  0  0  0  0  0  0
   -0.4062    1.8393    0.0303 C   0  0  0  0  0  0  0  0  0  0  0  0
   -1.5911    1.2361    0.2004 C   0  0  0  0  0  0  0  0  0  0  0  0
   -1.9978   -0.1428    0.4252 C   0  0  0  0  0  0  0  0  0  0  0  0
   -1.2639   -1.1591   -0.4113 C   0  0  0  0  0  0  0  0  0  0  0  0
    0.1829   -1.1743   -0.2108 C   0  0  0  0  0  0  0  0  0  0  0  0
    0.7176   -2.3109   -0.1368 O   0  0  0  0  0  0  0  0  0  0  0  0
    2.7137   -1.5054    0.4086 H   0  0  0  0  0  0  0  0  0  0  0  0
    3.1533    0.1994    0.6094 H   0  0  0  0  0  0  0  0  0  0  0  0
    3.0598   -0.5122   -1.0585 H   0  0  0  0  0  0  0  0  0  0  0  0
    1.7841    1.8260    0.1217 H   0  0  0  0  0  0  0  0  0  0  0  0
   -0.4023    2.9074   -0.1217 H   0  0  0  0  0  0  0  0  0  0  0  0
   -2.3953    1.9538    0.1567 H   0  0  0  0  0  0  0  0  0  0  0  0
   -3.0739   -0.2491    0.1769 H   0  0  0  0  0  0  0  0  0  0  0  0
   -1.9169   -0.3564    1.5140 H   0  0  0  0  0  0  0  0  0  0  0  0
   -1.6702   -2.1521   -0.1379 H   0  0  0  0  0  0  0  0  0  0  0  0
   -1.5660   -0.9793   -1.4706 H   0  0  0  0  0  0  0  0  0  0  0  0
  1  2  1  0
  2  3  2  0
  3  4  1  0
  4  5  2  0
  5  6  1  0
  6  7  1  0
  7  8  1  0
  8  9  2  0
  8  2  1  0
  1 10  1  0
  1 11  1  0
  1 12  1  0
  3 13  1  0
  4 14  1  0
  5 15  1  0
  6 16  1  0
  6 17  1  0
  7 18  1  0
  7 19  1  0
M  END
