
     RDKit          3D

 21 22  0  0  0  0  0  0  0  0999 V2000
    2.8687    0.3781    0.6319 C   0  0  0  0  0  0  0  0  0  0  0  0
    1.4406    0.0919    0.2717 C   0  0  0  0  0  0  0  0  0  0  0  0
    0.4126    0.0450    1.1054 C   0  0  0  0  0  0  0  0  0  0  0  0
   -0.7961   -0.2618    0.3518 C   0  0  0  0  0  0  0  0  0  0  0  0
   -1.6727    0.9164   -0.0163 C   0  0  0  0  0  0  0  0  0  0  0  0
   -2.7231   -0.1536    0.1985 C   0  0  0  0  0  0  0  0  0  0  0  0
   -1.8483   -0.8316    1.0461 O   0  0  0  0  0  0  0  0  0  0  0  0
   -0.3155   -0.9951   -0.8531 C   0  0  0  0  0  0  0  0  0  0  0  0
    0.9700   -0.1965   -1.1364 C   0  0  0  0  0  0  0  0  0  0  0  0
    3.0075    1.4928    0.6248 H   0  0  0  0  0  0  0  0  0  0  0  0
    3.5048   -0.1301   -0.1026 H   0  0  0  0  0  0  0  0  0  0  0  0
    3.0306   -0.0381    1.6494 H   0  0  0  0  0  0  0  0  0  0  0  0
    0.5017    0.2160    2.1824 H   0  0  0  0  0  0  0  0  0  0  0  0
   -1.5633    1.2508   -1.0708 H   0  0  0  0  0  0  0  0  0  0  0  0
   -1.6385    1.7032    0.7495 H   0  0  0  0  0  0  0  0  0  0  0  0
   -3.6100    0.2850    0.6962 H   0  0  0  0  0  0  0  0  0  0  0  0
   -2.9221   -0.7311   -0.7141 H   0  0  0  0  0  0  0  0  0  0  0  0
   -1.0050   -0.9733   -1.6972 H   0  0  0  0  0  0  0  0  0  0  0  0
    0.0342   -2.0279   -0.5875 H   0  0  0  0  0  0  0  0  0  0  0  0
    0.6279    0.7355   -1.6250 H   0  0  0  0  0  0  0  0  0  0  0  0
    1.6958   -0.7757   -1.7045 H   0  0  0  0  0  0  0  0  0  0  0  0
  1  2  1  0
  2  3  2  0
  3  4  1  0
  4  5  1  0
  5  6  1  0
  6  7  1  0
  4  8  1  0
  8  9  1  0
  9  2  1  0
  7  4  1  0
  1 10  1  0
  1 11  1  0
  1 12  1  0
  3 13  1  0
  5 14  1  0
  5 15  1  0
  6 16  1  0
  6 17  1  0
  8 18  1  0
  8 19  1  0
  9 20  1  0
  9 21  1  0
M  END
