
     RDKit          3D

 23 23  0  0  0  0  0  0  0  0999 V2000
   -1.4823   -2.0356    0.3317 C   0  0  0  0  0  0  0  0  0  0  0  0
   -0.6159   -0.9334   -0.1619 C   0  0  0  0  0  0  0  0  0  0  0  0
    0.6784   -1.0612   -0.3975 C   0  0  0  0  0  0  0  0  0  0  0  0
    1.2219    0.2606   -0.8854 C   0  0  0  0  0  0  0  0  0  0  0  0
    2.4630    0.5241   -0.0519 C   0  0  0  0  0  0  0  0  0  0  0  0
    2.1281    0.5875    1.2985 O   0  0  0  0  0  0  0  0  0  0  0  0
    0.1459    1.2752   -0.6687 C   0  0  0  0  0  0  0  0  0  0  0  0
   -1.0906    0.4372   -0.4495 C   0  0  0  0  0  0  0  0  0  0  0  0
   -1.9490    1.0158    0.6356 C   0  0  0  0  0  0  0  0  0  0  0  0
   -0.8698   -2.8266    0.8265 H   0  0  0  0  0  0  0  0  0  0  0  0
   -2.2336   -1.7038    1.0528 H   0  0  0  0  0  0  0  0  0  0  0  0
   -2.0113   -2.5429   -0.5152 H   0  0  0  0  0  0  0  0  0  0  0  0
    1.3352   -1.9164   -0.2935 H   0  0  0  0  0  0  0  0  0  0  0  0
    1.4585    0.1089   -1.9465 H   0  0  0  0  0  0  0  0  0  0  0  0
    2.9630    1.4638   -0.3896 H   0  0  0  0  0  0  0  0  0  0  0  0
    3.1230   -0.3595   -0.1873 H   0  0  0  0  0  0  0  0  0  0  0  0
    2.5484   -0.1419    1.8186 H   0  0  0  0  0  0  0  0  0  0  0  0
    0.0232    1.8940   -1.5675 H   0  0  0  0  0  0  0  0  0  0  0  0
    0.3807    1.9077    0.2163 H   0  0  0  0  0  0  0  0  0  0  0  0
   -1.6887    0.4208   -1.3959 H   0  0  0  0  0  0  0  0  0  0  0  0
   -1.4418    1.9302    1.0514 H   0  0  0  0  0  0  0  0  0  0  0  0
   -2.9284    1.3909    0.2209 H   0  0  0  0  0  0  0  0  0  0  0  0
   -2.1579    0.3046    1.4580 H   0  0  0  0  0  0  0  0  0  0  0  0
  1  2  1  0
  2  3  2  0
  3  4  1  0
  4  5  1  0
  5  6  1  0
  4  7  1  0
  7  8  1  0
  8  9  1  0
  8  2  1  0
  1 10  1  0
  1 11  1  0
  1 12  1  0
  3 13  1  0
  4 14  1  0
  5 15  1  0
  5 16  1  0
  6 17  1  0
  7 18  1  0
  7 19  1  0
  8 20  1  0
  9 21  1  0
  9 22  1  0
  9 23  1  0
M  END
