
     RDKit          3D

 19 21  0  0  0  0  0  0  0  0999 V2000
    2.6462   -0.0053   -0.0713 C   0  0  0  0  0  0  0  0  0  0  0  0
    1.1488   -0.0023   -0.0468 C   0  0  0  0  0  0  0  0  0  0  0  0
    0.3326    0.9699   -0.4273 C   0  0  0  0  0  0  0  0  0  0  0  0
   -1.0812    0.6239   -0.2626 C   0  0  0  0  0  0  0  0  0  0  0  0
   -1.8249    1.1347    0.9786 C   0  0  0  0  0  0  0  0  0  0  0  0
   -1.5019   -0.1059    1.5711 O   0  0  0  0  0  0  0  0  0  0  0  0
   -1.0707   -0.7650    0.4413 C   0  0  0  0  0  0  0  0  0  0  0  0
    0.3722   -1.1733    0.4416 C   0  0  0  0  0  0  0  0  0  0  0  0
   -1.6945   -0.5700   -0.8846 C   0  0  0  0  0  0  0  0  0  0  0  0
    3.0006    0.6112   -0.9241 H   0  0  0  0  0  0  0  0  0  0  0  0
    3.0560   -1.0254   -0.1922 H   0  0  0  0  0  0  0  0  0  0  0  0
    3.0252    0.3991    0.9059 H   0  0  0  0  0  0  0  0  0  0  0  0
    0.6820    1.9134   -0.8160 H   0  0  0  0  0  0  0  0  0  0  0  0
   -2.9036    1.1544    0.7873 H   0  0  0  0  0  0  0  0  0  0  0  0
   -1.3697    2.0078    1.4466 H   0  0  0  0  0  0  0  0  0  0  0  0
    0.4896   -2.0369   -0.2353 H   0  0  0  0  0  0  0  0  0  0  0  0
    0.7099   -1.4953    1.4487 H   0  0  0  0  0  0  0  0  0  0  0  0
   -2.8055   -0.5806   -0.8914 H   0  0  0  0  0  0  0  0  0  0  0  0
   -1.2113   -1.0546   -1.7300 H   0  0  0  0  0  0  0  0  0  0  0  0
  1  2  1  0
  2  3  2  0
  3  4  1  0
  4  5  1  0
  5  6  1  0
  6  7  1  0
  7  8  1  0
  7  9  1  0
  8  2  1  0
  7  4  1  0
  9  4  1  0
  1 10  1  0
  1 11  1  0
  1 12  1  0
  3 13  1  0
  5 14  1  0
  5 15  1  0
  8 16  1  0
  8 17  1  0
  9 18  1  0
  9 19  1  0
M  END
