
     RDKit          3D

 23 24  0  0  0  0  0  0  0  0999 V2000
    2.7287    0.3107   -0.0611 C   0  0  0  0  0  0  0  0  0  0  0  0
    1.2550    0.1091   -0.1379 C   0  0  0  0  0  0  0  0  0  0  0  0
    0.5603    1.2349   -0.1296 C   0  0  0  0  0  0  0  0  0  0  0  0
   -0.9242    1.3866   -0.2320 C   0  0  0  0  0  0  0  0  0  0  0  0
   -1.6011    0.7245    0.9492 C   0  0  0  0  0  0  0  0  0  0  0  0
   -1.6257   -0.5642    0.1349 C   0  0  0  0  0  0  0  0  0  0  0  0
   -0.5408   -1.4792    0.5179 C   0  0  0  0  0  0  0  0  0  0  0  0
    0.7563   -1.3082   -0.2130 C   0  0  0  0  0  0  0  0  0  0  0  0
   -1.4223    0.2445   -1.0945 C   0  0  0  0  0  0  0  0  0  0  0  0
    2.9991    0.9293    0.8241 H   0  0  0  0  0  0  0  0  0  0  0  0
    3.1521    0.7554   -0.9778 H   0  0  0  0  0  0  0  0  0  0  0  0
    3.2125   -0.6925    0.0480 H   0  0  0  0  0  0  0  0  0  0  0  0
    1.0966    2.1815   -0.0391 H   0  0  0  0  0  0  0  0  0  0  0  0
   -1.2938    2.3792   -0.4690 H   0  0  0  0  0  0  0  0  0  0  0  0
   -0.9638    0.6385    1.8622 H   0  0  0  0  0  0  0  0  0  0  0  0
   -2.6135    1.1634    1.1329 H   0  0  0  0  0  0  0  0  0  0  0  0
   -2.6596   -1.0064    0.2443 H   0  0  0  0  0  0  0  0  0  0  0  0
   -0.8606   -2.5303    0.3782 H   0  0  0  0  0  0  0  0  0  0  0  0
   -0.3176   -1.3697    1.6076 H   0  0  0  0  0  0  0  0  0  0  0  0
    1.5140   -1.9204    0.3198 H   0  0  0  0  0  0  0  0  0  0  0  0
    0.6881   -1.5998   -1.2847 H   0  0  0  0  0  0  0  0  0  0  0  0
   -0.7232   -0.1326   -1.8428 H   0  0  0  0  0  0  0  0  0  0  0  0
   -2.4164    0.5457   -1.5374 H   0  0  0  0  0  0  0  0  0  0  0  0
  1  2  1  0
  2  3  2  0
  3  4  1  0
  4  5  1  0
  5  6  1  0
  6  7  1  0
  7  8  1  0
  6  9  1  0
  8  2  1  0
  9  4  1  0
  1 10  1  0
  1 11  1  0
  1 12  1  0
  3 13  1  0
  4 14  1  0
  5 15  1  0
  5 16  1  0
  6 17  1  0
  7 18  1  0
  7 19  1  0
  8 20  1  0
  8 21  1  0
  9 22  1  0
  9 23  1  0
M  END
