
     RDKit          3D

 21 22  0  0  0  0  0  0  0  0999 V2000
    2.5591    1.0726    0.2433 C   0  0  0  0  0  0  0  0  0  0  0  0
    1.1873    0.4701    0.1308 C   0  0  0  0  0  0  0  0  0  0  0  0
    0.0559    1.1041    0.2949 C   0  0  0  0  0  0  0  0  0  0  0  0
   -1.1127    0.2221    0.1153 C   0  0  0  0  0  0  0  0  0  0  0  0
   -2.3373    0.7995   -0.5567 C   0  0  0  0  0  0  0  0  0  0  0  0
   -1.3083   -1.0103    0.8923 C   0  0  0  0  0  0  0  0  0  0  0  0
   -0.5274   -1.0678   -0.3622 C   0  0  0  0  0  0  0  0  0  0  0  0
    0.9778   -0.9678   -0.1920 C   0  0  0  0  0  0  0  0  0  0  0  0
    1.4170   -1.7003    0.9071 O   0  0  0  0  0  0  0  0  0  0  0  0
    3.3461    0.3214    0.2894 H   0  0  0  0  0  0  0  0  0  0  0  0
    2.6672    1.7109   -0.6766 H   0  0  0  0  0  0  0  0  0  0  0  0
    2.5892    1.7294    1.1351 H   0  0  0  0  0  0  0  0  0  0  0  0
   -0.0273    2.1597    0.5361 H   0  0  0  0  0  0  0  0  0  0  0  0
   -2.3853    0.6058   -1.6272 H   0  0  0  0  0  0  0  0  0  0  0  0
   -2.2922    1.9118   -0.3934 H   0  0  0  0  0  0  0  0  0  0  0  0
   -3.2244    0.4479   -0.0087 H   0  0  0  0  0  0  0  0  0  0  0  0
   -0.7615   -1.0959    1.8538 H   0  0  0  0  0  0  0  0  0  0  0  0
   -2.2926   -1.4717    0.8816 H   0  0  0  0  0  0  0  0  0  0  0  0
   -0.9371   -1.4404   -1.3087 H   0  0  0  0  0  0  0  0  0  0  0  0
    1.4796   -1.2759   -1.1303 H   0  0  0  0  0  0  0  0  0  0  0  0
    0.9270   -2.5251    1.0607 H   0  0  0  0  0  0  0  0  0  0  0  0
  1  2  1  0
  2  3  2  0
  3  4  1  0
  4  5  1  0
  4  6  1  0
  6  7  1  0
  7  8  1  0
  8  9  1  0
  8  2  1  0
  7  4  1  0
  1 10  1  0
  1 11  1  0
  1 12  1  0
  3 13  1  0
  5 14  1  0
  5 15  1  0
  5 16  1  0
  6 17  1  0
  6 18  1  0
  7 19  1  0
  8 20  1  0
  9 21  1  0
M  END
