
     RDKit          3D

 21 22  0  0  0  0  0  0  0  0999 V2000
    2.4317   -1.4920    0.1126 C   0  0  0  0  0  0  0  0  0  0  0  0
    1.4366   -0.3837    0.1617 C   0  0  0  0  0  0  0  0  0  0  0  0
    1.7598    0.8822   -0.0656 C   0  0  0  0  0  0  0  0  0  0  0  0
    0.5650    1.7587    0.0523 C   0  0  0  0  0  0  0  0  0  0  0  0
   -0.5245    0.8186    0.5095 C   0  0  0  0  0  0  0  0  0  0  0  0
   -0.9888   -0.1471   -0.5484 C   0  0  0  0  0  0  0  0  0  0  0  0
   -2.4226   -0.5467   -0.4507 C   0  0  0  0  0  0  0  0  0  0  0  0
   -3.2368    0.6029   -0.5633 O   0  0  0  0  0  0  0  0  0  0  0  0
    0.0126   -0.5543    0.4603 C   0  0  0  0  0  0  0  0  0  0  0  0
    3.3152   -1.2577    0.7756 H   0  0  0  0  0  0  0  0  0  0  0  0
    2.8645   -1.6254   -0.8984 H   0  0  0  0  0  0  0  0  0  0  0  0
    2.0129   -2.4368    0.5323 H   0  0  0  0  0  0  0  0  0  0  0  0
    2.7428    1.2736   -0.3073 H   0  0  0  0  0  0  0  0  0  0  0  0
    0.2960    2.0969   -0.9674 H   0  0  0  0  0  0  0  0  0  0  0  0
    0.7344    2.6036    0.7228 H   0  0  0  0  0  0  0  0  0  0  0  0
   -1.1569    1.0779    1.3558 H   0  0  0  0  0  0  0  0  0  0  0  0
   -0.6208   -0.0133   -1.5897 H   0  0  0  0  0  0  0  0  0  0  0  0
   -2.7435   -1.2060   -1.2968 H   0  0  0  0  0  0  0  0  0  0  0  0
   -2.7049   -1.0515    0.4754 H   0  0  0  0  0  0  0  0  0  0  0  0
   -3.4611    0.9212    0.3428 H   0  0  0  0  0  0  0  0  0  0  0  0
   -0.3116   -1.3210    1.1865 H   0  0  0  0  0  0  0  0  0  0  0  0
  1  2  1  0
  2  3  2  0
  3  4  1  0
  4  5  1  0
  5  6  1  0
  6  7  1  0
  7  8  1  0
  6  9  1  0
  9  2  1  0
  9  5  1  0
  1 10  1  0
  1 11  1  0
  1 12  1  0
  3 13  1  0
  4 14  1  0
  4 15  1  0
  5 16  1  0
  6 17  1  0
  7 18  1  0
  7 19  1  0
  8 20  1  0
  9 21  1  0
M  END
