
     RDKit          3D

 23 24  0  0  0  0  0  0  0  0999 V2000
   -1.5991    1.8036   -1.0925 C   0  0  0  0  0  0  0  0  0  0  0  0
   -1.1696    0.6871   -0.2138 C   0  0  0  0  0  0  0  0  0  0  0  0
   -1.9732   -0.1588    0.4220 C   0  0  0  0  0  0  0  0  0  0  0  0
   -1.1534   -1.1378    1.2039 C   0  0  0  0  0  0  0  0  0  0  0  0
    0.0749   -0.2887    1.4683 C   0  0  0  0  0  0  0  0  0  0  0  0
    0.2133    0.3344    0.0983 C   0  0  0  0  0  0  0  0  0  0  0  0
    1.3917    1.0134   -0.3695 C   0  0  0  0  0  0  0  0  0  0  0  0
    1.0640   -0.4192   -0.8605 C   0  0  0  0  0  0  0  0  0  0  0  0
    2.0172   -1.4822   -0.3347 C   0  0  0  0  0  0  0  0  0  0  0  0
   -0.9454    2.7107   -0.9601 H   0  0  0  0  0  0  0  0  0  0  0  0
   -2.6244    2.1522   -0.8406 H   0  0  0  0  0  0  0  0  0  0  0  0
   -1.5846    1.5445   -2.1573 H   0  0  0  0  0  0  0  0  0  0  0  0
   -3.0551   -0.1759    0.4068 H   0  0  0  0  0  0  0  0  0  0  0  0
   -0.8393   -1.9456    0.5141 H   0  0  0  0  0  0  0  0  0  0  0  0
   -1.6422   -1.4845    2.1105 H   0  0  0  0  0  0  0  0  0  0  0  0
   -0.1918    0.5056    2.1970 H   0  0  0  0  0  0  0  0  0  0  0  0
    0.9210   -0.9009    1.7675 H   0  0  0  0  0  0  0  0  0  0  0  0
    1.2668    1.7892   -1.1629 H   0  0  0  0  0  0  0  0  0  0  0  0
    2.3065    1.1473    0.2204 H   0  0  0  0  0  0  0  0  0  0  0  0
    0.6686   -0.5273   -1.8744 H   0  0  0  0  0  0  0  0  0  0  0  0
    2.8042   -1.6914   -1.0918 H   0  0  0  0  0  0  0  0  0  0  0  0
    1.4949   -2.3942   -0.0078 H   0  0  0  0  0  0  0  0  0  0  0  0
    2.5552   -1.0814    0.5571 H   0  0  0  0  0  0  0  0  0  0  0  0
  1  2  1  0
  2  3  2  0
  3  4  1  0
  4  5  1  0
  5  6  1  0
  6  7  1  0
  7  8  1  0
  8  9  1  0
  6  2  1  0
  8  6  1  0
  1 10  1  0
  1 11  1  0
  1 12  1  0
  3 13  1  0
  4 14  1  0
  4 15  1  0
  5 16  1  0
  5 17  1  0
  7 18  1  0
  7 19  1  0
  8 20  1  0
  9 21  1  0
  9 22  1  0
  9 23  1  0
M  END
