
     RDKit          3D

 21 21  0  0  0  0  0  0  0  0999 V2000
   -1.4391    1.7316    0.1363 C   0  0  0  0  0  0  0  0  0  0  0  0
   -0.3820    0.6961    0.1805 C   0  0  0  0  0  0  0  0  0  0  0  0
   -0.6643   -0.5615   -0.1202 C   0  0  0  0  0  0  0  0  0  0  0  0
   -2.0394   -0.9602   -0.5063 C   0  0  0  0  0  0  0  0  0  0  0  0
    0.3642   -1.5934   -0.0819 C   0  0  0  0  0  0  0  0  0  0  0  0
    0.1120   -2.8113   -0.2768 O   0  0  0  0  0  0  0  0  0  0  0  0
    1.7971   -1.2373    0.1974 C   0  0  0  0  0  0  0  0  0  0  0  0
    1.9445    0.2129   -0.2773 C   0  0  0  0  0  0  0  0  0  0  0  0
    1.0337    1.0411    0.5658 C   0  0  0  0  0  0  0  0  0  0  0  0
   -1.0831    2.6166    0.7263 H   0  0  0  0  0  0  0  0  0  0  0  0
   -2.3838    1.4204    0.5955 H   0  0  0  0  0  0  0  0  0  0  0  0
   -1.6062    2.1228   -0.8992 H   0  0  0  0  0  0  0  0  0  0  0  0
   -2.6008   -0.1374   -0.9833 H   0  0  0  0  0  0  0  0  0  0  0  0
   -2.5615   -1.3621    0.4016 H   0  0  0  0  0  0  0  0  0  0  0  0
   -2.0102   -1.7953   -1.2329 H   0  0  0  0  0  0  0  0  0  0  0  0
    2.4944   -1.9023   -0.3310 H   0  0  0  0  0  0  0  0  0  0  0  0
    1.9836   -1.2712    1.2873 H   0  0  0  0  0  0  0  0  0  0  0  0
    1.6609    0.2703   -1.3368 H   0  0  0  0  0  0  0  0  0  0  0  0
    2.9808    0.5739   -0.1277 H   0  0  0  0  0  0  0  0  0  0  0  0
    1.2140    0.8160    1.6372 H   0  0  0  0  0  0  0  0  0  0  0  0
    1.1851    2.1303    0.4454 H   0  0  0  0  0  0  0  0  0  0  0  0
  1  2  1  0
  2  3  2  0
  3  4  1  0
  3  5  1  0
  5  6  2  0
  5  7  1  0
  7  8  1  0
  8  9  1  0
  9  2  1  0
  1 10  1  0
  1 11  1  0
  1 12  1  0
  4 13  1  0
  4 14  1  0
  4 15  1  0
  7 16  1  0
  7 17  1  0
  8 18  1  0
  8 19  1  0
  9 20  1  0
  9 21  1  0
M  END
