
     RDKit          3D

 21 23  0  0  0  0  0  0  0  0999 V2000
    2.6440   -0.1990    0.1270 C   0  0  0  0  0  0  0  0  0  0  0  0
    1.1588   -0.1256    0.0916 C   0  0  0  0  0  0  0  0  0  0  0  0
    0.4569   -1.0489    0.7427 C   0  0  0  0  0  0  0  0  0  0  0  0
   -1.0411   -0.9022    0.6022 C   0  0  0  0  0  0  0  0  0  0  0  0
   -1.3744    0.4898    1.0454 C   0  0  0  0  0  0  0  0  0  0  0  0
   -0.8189    1.3818   -0.0350 C   0  0  0  0  0  0  0  0  0  0  0  0
   -0.8175    0.5401   -1.2661 C   0  0  0  0  0  0  0  0  0  0  0  0
   -1.2987   -0.8285   -0.8921 C   0  0  0  0  0  0  0  0  0  0  0  0
    0.4466    0.9238   -0.6326 C   0  0  0  0  0  0  0  0  0  0  0  0
    3.1090    0.4645   -0.6234 H   0  0  0  0  0  0  0  0  0  0  0  0
    2.9698    0.1420    1.1525 H   0  0  0  0  0  0  0  0  0  0  0  0
    2.9944   -1.2471    0.0310 H   0  0  0  0  0  0  0  0  0  0  0  0
    0.9005   -1.8360    1.3218 H   0  0  0  0  0  0  0  0  0  0  0  0
   -1.5880   -1.6961    1.1056 H   0  0  0  0  0  0  0  0  0  0  0  0
   -0.9739    0.7358    2.0467 H   0  0  0  0  0  0  0  0  0  0  0  0
   -2.4812    0.5840    1.0607 H   0  0  0  0  0  0  0  0  0  0  0  0
   -1.0819    2.4463   -0.0738 H   0  0  0  0  0  0  0  0  0  0  0  0
   -1.1826    1.0235   -2.1893 H   0  0  0  0  0  0  0  0  0  0  0  0
   -0.6937   -1.5731   -1.4334 H   0  0  0  0  0  0  0  0  0  0  0  0
   -2.3853   -0.9574   -1.0310 H   0  0  0  0  0  0  0  0  0  0  0  0
    1.0572    1.6822   -1.1505 H   0  0  0  0  0  0  0  0  0  0  0  0
  1  2  1  0
  2  3  2  0
  3  4  1  0
  4  5  1  0
  5  6  1  0
  6  7  1  0
  7  8  1  0
  7  9  1  0
  9  2  1  0
  8  4  1  0
  9  6  1  0
  1 10  1  0
  1 11  1  0
  1 12  1  0
  3 13  1  0
  4 14  1  0
  5 15  1  0
  5 16  1  0
  6 17  1  0
  7 18  1  0
  8 19  1  0
  8 20  1  0
  9 21  1  0
M  END
