
     RDKit          3D

 23 23  0  0  0  0  0  0  0  0999 V2000
    2.7142   -0.6508    0.6360 C   0  0  0  0  0  0  0  0  0  0  0  0
    1.4647   -0.1705   -0.0122 C   0  0  0  0  0  0  0  0  0  0  0  0
    1.2986    1.0230   -0.5654 C   0  0  0  0  0  0  0  0  0  0  0  0
   -0.0844    1.1112   -1.1001 C   0  0  0  0  0  0  0  0  0  0  0  0
   -0.8080    0.1915   -0.1429 C   0  0  0  0  0  0  0  0  0  0  0  0
   -0.9048    0.7378    1.2418 C   0  0  0  0  0  0  0  0  0  0  0  0
   -2.1219   -0.2146   -0.7378 C   0  0  0  0  0  0  0  0  0  0  0  0
   -2.8464   -1.0542    0.0704 O   0  0  0  0  0  0  0  0  0  0  0  0
    0.1908   -0.9687   -0.1357 C   0  0  0  0  0  0  0  0  0  0  0  0
    2.9911   -1.6536    0.2571 H   0  0  0  0  0  0  0  0  0  0  0  0
    2.6015   -0.6473    1.7517 H   0  0  0  0  0  0  0  0  0  0  0  0
    3.5443    0.0311    0.4082 H   0  0  0  0  0  0  0  0  0  0  0  0
    2.0693    1.7875   -0.6039 H   0  0  0  0  0  0  0  0  0  0  0  0
   -0.1127    0.6451   -2.1034 H   0  0  0  0  0  0  0  0  0  0  0  0
   -0.4792    2.1420   -1.0902 H   0  0  0  0  0  0  0  0  0  0  0  0
   -0.1405    1.5325    1.4500 H   0  0  0  0  0  0  0  0  0  0  0  0
   -1.9381    1.1107    1.4560 H   0  0  0  0  0  0  0  0  0  0  0  0
   -0.6853   -0.0806    1.9751 H   0  0  0  0  0  0  0  0  0  0  0  0
   -2.7143    0.7099   -0.8900 H   0  0  0  0  0  0  0  0  0  0  0  0
   -1.9211   -0.6228   -1.7476 H   0  0  0  0  0  0  0  0  0  0  0  0
   -2.2961   -1.8601    0.2527 H   0  0  0  0  0  0  0  0  0  0  0  0
    0.0046   -1.5959    0.7362 H   0  0  0  0  0  0  0  0  0  0  0  0
    0.1739   -1.5035   -1.1059 H   0  0  0  0  0  0  0  0  0  0  0  0
  1  2  1  0
  2  3  2  0
  3  4  1  0
  4  5  1  0
  5  6  1  0
  5  7  1  0
  7  8  1  0
  5  9  1  0
  9  2  1  0
  1 10  1  0
  1 11  1  0
  1 12  1  0
  3 13  1  0
  4 14  1  0
  4 15  1  0
  6 16  1  0
  6 17  1  0
  6 18  1  0
  7 19  1  0
  7 20  1  0
  8 21  1  0
  9 22  1  0
  9 23  1  0
M  END
