
     RDKit          3D

 21 22  0  0  0  0  0  0  0  0999 V2000
    2.4569   -1.0540   -0.3648 C   0  0  0  0  0  0  0  0  0  0  0  0
    1.1192   -0.4506   -0.1840 C   0  0  0  0  0  0  0  0  0  0  0  0
   -0.0512   -0.9300   -0.5999 C   0  0  0  0  0  0  0  0  0  0  0  0
   -1.1445   -0.0188   -0.1300 C   0  0  0  0  0  0  0  0  0  0  0  0
   -2.4608   -0.6059   -0.0065 C   0  0  0  0  0  0  0  0  0  0  0  0
   -0.5024    0.4114    1.2055 C   0  0  0  0  0  0  0  0  0  0  0  0
    0.8073    0.8194    0.5017 C   0  0  0  0  0  0  0  0  0  0  0  0
    0.1998    1.7342   -0.5379 C   0  0  0  0  0  0  0  0  0  0  0  0
   -1.0360    1.1484   -0.8612 O   0  0  0  0  0  0  0  0  0  0  0  0
    2.8793   -0.8919   -1.3719 H   0  0  0  0  0  0  0  0  0  0  0  0
    3.1826   -0.6313    0.3651 H   0  0  0  0  0  0  0  0  0  0  0  0
    2.4511   -2.1593   -0.1547 H   0  0  0  0  0  0  0  0  0  0  0  0
   -0.2082   -1.8260   -1.1810 H   0  0  0  0  0  0  0  0  0  0  0  0
   -3.1913   -0.0700   -0.6766 H   0  0  0  0  0  0  0  0  0  0  0  0
   -2.8646   -0.4513    1.0290 H   0  0  0  0  0  0  0  0  0  0  0  0
   -2.5728   -1.6785   -0.2568 H   0  0  0  0  0  0  0  0  0  0  0  0
   -0.3574   -0.4392    1.8649 H   0  0  0  0  0  0  0  0  0  0  0  0
   -1.0181    1.2706    1.6328 H   0  0  0  0  0  0  0  0  0  0  0  0
    1.5407    1.2345    1.1404 H   0  0  0  0  0  0  0  0  0  0  0  0
    0.8368    1.8972   -1.4093 H   0  0  0  0  0  0  0  0  0  0  0  0
   -0.0666    2.6910   -0.0047 H   0  0  0  0  0  0  0  0  0  0  0  0
  1  2  1  0
  2  3  2  0
  3  4  1  0
  4  5  1  0
  4  6  1  0
  6  7  1  0
  7  8  1  0
  8  9  1  0
  7  2  1  0
  9  4  1  0
  1 10  1  0
  1 11  1  0
  1 12  1  0
  3 13  1  0
  5 14  1  0
  5 15  1  0
  5 16  1  0
  6 17  1  0
  6 18  1  0
  7 19  1  0
  8 20  1  0
  8 21  1  0
M  END
