
     RDKit          3D

 14 14  0  0  0  0  0  0  0  0999 V2000
   -1.9104    0.2209    0.0576 C   0  0  0  0  0  0  0  0  0  0  0  0
   -0.4405    0.0913    0.0204 C   0  0  0  0  0  0  0  0  0  0  0  0
    0.4596    1.0231   -0.2242 C   0  0  0  0  0  0  0  0  0  0  0  0
    1.7922    0.3575   -0.1378 C   0  0  0  0  0  0  0  0  0  0  0  0
    1.6049   -0.8064    0.5802 O   0  0  0  0  0  0  0  0  0  0  0  0
    0.2839   -1.1904    0.2698 C   0  0  0  0  0  0  0  0  0  0  0  0
   -2.2228    1.0943   -0.5462 H   0  0  0  0  0  0  0  0  0  0  0  0
   -2.3327   -0.6801   -0.4526 H   0  0  0  0  0  0  0  0  0  0  0  0
   -2.2405    0.2807    1.1083 H   0  0  0  0  0  0  0  0  0  0  0  0
    0.2130    2.0446   -0.4370 H   0  0  0  0  0  0  0  0  0  0  0  0
    2.5129    0.9830    0.4226 H   0  0  0  0  0  0  0  0  0  0  0  0
    2.1568    0.0840   -1.1451 H   0  0  0  0  0  0  0  0  0  0  0  0
    0.2387   -1.7767   -0.6639 H   0  0  0  0  0  0  0  0  0  0  0  0
   -0.1151   -1.7258    1.1478 H   0  0  0  0  0  0  0  0  0  0  0  0
  1  2  1  0
  2  3  2  0
  3  4  1  0
  4  5  1  0
  5  6  1  0
  6  2  1  0
  1  7  1  0
  1  8  1  0
  1  9  1  0
  3 10  1  0
  4 11  1  0
  4 12  1  0
  6 13  1  0
  6 14  1  0
M  END
