
     RDKit          3D

 19 19  0  0  0  0  0  0  0  0999 V2000
   -2.6953   -0.1529   -0.1999 C   0  0  0  0  0  0  0  0  0  0  0  0
   -1.2138   -0.0958   -0.0704 C   0  0  0  0  0  0  0  0  0  0  0  0
   -0.6644    0.8948    0.6244 C   0  0  0  0  0  0  0  0  0  0  0  0
    0.8043    0.9029    0.7204 C   0  0  0  0  0  0  0  0  0  0  0  0
    1.4757    0.3583   -0.4871 C   0  0  0  0  0  0  0  0  0  0  0  0
    2.7477   -0.3131   -0.0400 C   0  0  0  0  0  0  0  0  0  0  0  0
    3.0333   -1.4295   -0.3875 O   0  0  0  0  0  0  0  0  0  0  0  0
    0.7329   -0.4347   -1.2978 O   0  0  0  0  0  0  0  0  0  0  0  0
   -0.3060   -1.1131   -0.6935 C   0  0  0  0  0  0  0  0  0  0  0  0
   -2.9236   -0.9178   -0.9823 H   0  0  0  0  0  0  0  0  0  0  0  0
   -3.1001    0.8340   -0.4149 H   0  0  0  0  0  0  0  0  0  0  0  0
   -3.1553   -0.4997    0.7669 H   0  0  0  0  0  0  0  0  0  0  0  0
   -1.3271    1.6260    1.0715 H   0  0  0  0  0  0  0  0  0  0  0  0
    1.1394    1.9646    0.9148 H   0  0  0  0  0  0  0  0  0  0  0  0
    1.1552    0.3482    1.6408 H   0  0  0  0  0  0  0  0  0  0  0  0
    1.8282    1.2367   -1.1049 H   0  0  0  0  0  0  0  0  0  0  0  0
    3.3795    0.2817    0.6127 H   0  0  0  0  0  0  0  0  0  0  0  0
   -0.0103   -1.9005   -0.0061 H   0  0  0  0  0  0  0  0  0  0  0  0
   -0.9000   -1.5900   -1.5060 H   0  0  0  0  0  0  0  0  0  0  0  0
  1  2  1  0
  2  3  2  0
  3  4  1  0
  4  5  1  0
  5  6  1  0
  6  7  2  0
  5  8  1  0
  8  9  1  0
  9  2  1  0
  1 10  1  0
  1 11  1  0
  1 12  1  0
  3 13  1  0
  4 14  1  0
  4 15  1  0
  5 16  1  0
  6 17  1  0
  9 18  1  0
  9 19  1  0
M  END
