
     RDKit          3D

 21 23  0  0  0  0  0  0  0  0999 V2000
    2.5345    0.6865   -0.2820 C   0  0  0  0  0  0  0  0  0  0  0  0
    1.2573    0.0256    0.1131 C   0  0  0  0  0  0  0  0  0  0  0  0
    0.1349    0.6474   -0.0198 C   0  0  0  0  0  0  0  0  0  0  0  0
   -1.0190    1.5297   -0.2573 C   0  0  0  0  0  0  0  0  0  0  0  0
   -2.1308    0.4577   -0.5268 C   0  0  0  0  0  0  0  0  0  0  0  0
   -1.3817   -0.8388   -0.4634 C   0  0  0  0  0  0  0  0  0  0  0  0
   -0.4995   -1.5778    0.4036 C   0  0  0  0  0  0  0  0  0  0  0  0
    1.0424   -1.4240    0.5352 C   0  0  0  0  0  0  0  0  0  0  0  0
   -0.7609   -0.3258    0.8568 C   0  0  0  0  0  0  0  0  0  0  0  0
    3.2661   -0.1487   -0.4749 H   0  0  0  0  0  0  0  0  0  0  0  0
    2.3583    1.2209   -1.2384 H   0  0  0  0  0  0  0  0  0  0  0  0
    2.8758    1.3339    0.5359 H   0  0  0  0  0  0  0  0  0  0  0  0
   -1.2253    2.0834    0.6506 H   0  0  0  0  0  0  0  0  0  0  0  0
   -0.9219    2.1793   -1.1297 H   0  0  0  0  0  0  0  0  0  0  0  0
   -2.8915    0.5190    0.2706 H   0  0  0  0  0  0  0  0  0  0  0  0
   -2.6030    0.5846   -1.4804 H   0  0  0  0  0  0  0  0  0  0  0  0
   -0.8399   -0.8599   -1.4340 H   0  0  0  0  0  0  0  0  0  0  0  0
   -0.8164   -2.5059    0.9152 H   0  0  0  0  0  0  0  0  0  0  0  0
    1.3655   -1.5913    1.5627 H   0  0  0  0  0  0  0  0  0  0  0  0
    1.5609   -2.0535   -0.1882 H   0  0  0  0  0  0  0  0  0  0  0  0
   -1.3058    0.0577    1.6512 H   0  0  0  0  0  0  0  0  0  0  0  0
  1  2  1  0
  2  3  2  0
  3  4  1  0
  4  5  1  0
  5  6  1  0
  6  7  1  0
  7  8  1  0
  7  9  1  0
  8  2  1  0
  9  3  1  0
  9  6  1  0
  1 10  1  0
  1 11  1  0
  1 12  1  0
  4 13  1  0
  4 14  1  0
  5 15  1  0
  5 16  1  0
  6 17  1  0
  7 18  1  0
  8 19  1  0
  8 20  1  0
  9 21  1  0
M  END
