
     RDKit          3D

 19 20  0  0  0  0  0  0  0  0999 V2000
    2.6929    0.2124   -0.1264 C   0  0  0  0  0  0  0  0  0  0  0  0
    1.1882    0.0619   -0.0864 C   0  0  0  0  0  0  0  0  0  0  0  0
    0.2956    0.2918   -1.0323 C   0  0  0  0  0  0  0  0  0  0  0  0
   -1.0057    0.0231   -0.5169 C   0  0  0  0  0  0  0  0  0  0  0  0
   -1.4223    1.2478    0.3743 C   0  0  0  0  0  0  0  0  0  0  0  0
   -1.8879   -1.0394   -0.3145 C   0  0  0  0  0  0  0  0  0  0  0  0
   -0.6442   -1.2490    0.3008 C   0  0  0  0  0  0  0  0  0  0  0  0
    0.3645   -0.4750    1.0329 C   0  0  0  0  0  0  0  0  0  0  0  0
    0.5407   -0.2813    2.2374 O   0  0  0  0  0  0  0  0  0  0  0  0
    2.9597    1.2355   -0.4669 H   0  0  0  0  0  0  0  0  0  0  0  0
    3.1031   -0.5309   -0.8271 H   0  0  0  0  0  0  0  0  0  0  0  0
    3.0735    0.0525    0.8844 H   0  0  0  0  0  0  0  0  0  0  0  0
    0.5792    0.6310   -2.0270 H   0  0  0  0  0  0  0  0  0  0  0  0
   -1.2558    0.9674    1.4203 H   0  0  0  0  0  0  0  0  0  0  0  0
   -2.5254    1.3631    0.2140 H   0  0  0  0  0  0  0  0  0  0  0  0
   -0.9777    2.1733    0.0367 H   0  0  0  0  0  0  0  0  0  0  0  0
   -2.7831   -0.9764    0.3370 H   0  0  0  0  0  0  0  0  0  0  0  0
   -2.1963   -1.6039   -1.2483 H   0  0  0  0  0  0  0  0  0  0  0  0
   -0.0990   -2.1039   -0.1920 H   0  0  0  0  0  0  0  0  0  0  0  0
  1  2  1  0
  2  3  2  0
  3  4  1  0
  4  5  1  0
  4  6  1  0
  6  7  1  0
  7  8  1  0
  8  9  2  0
  8  2  1  0
  7  4  1  0
  1 10  1  0
  1 11  1  0
  1 12  1  0
  3 13  1  0
  5 14  1  0
  5 15  1  0
  5 16  1  0
  6 17  1  0
  6 18  1  0
  7 19  1  0
M  END
