
     RDKit          3D

 19 19  0  0  0  0  0  0  0  0999 V2000
   -2.6448    0.8603    0.4497 C   0  0  0  0  0  0  0  0  0  0  0  0
   -1.3038    0.2652    0.2088 C   0  0  0  0  0  0  0  0  0  0  0  0
   -0.1413    0.7150    0.6409 C   0  0  0  0  0  0  0  0  0  0  0  0
    0.9898   -0.1386    0.2045 C   0  0  0  0  0  0  0  0  0  0  0  0
    2.0392    0.5967   -0.3673 O   0  0  0  0  0  0  0  0  0  0  0  0
    3.3360    0.4579    0.1062 C   0  0  0  0  0  0  0  0  0  0  0  0
    3.5105   -0.3456    1.0541 O   0  0  0  0  0  0  0  0  0  0  0  0
    0.3959   -0.9967   -0.9002 C   0  0  0  0  0  0  0  0  0  0  0  0
   -1.0612   -0.9875   -0.5944 C   0  0  0  0  0  0  0  0  0  0  0  0
   -2.6583    1.9526    0.2126 H   0  0  0  0  0  0  0  0  0  0  0  0
   -3.3946    0.3961   -0.2152 H   0  0  0  0  0  0  0  0  0  0  0  0
   -3.0061    0.6872    1.4909 H   0  0  0  0  0  0  0  0  0  0  0  0
   -0.0207    1.6043    1.2448 H   0  0  0  0  0  0  0  0  0  0  0  0
    1.3252   -0.7986    1.0301 H   0  0  0  0  0  0  0  0  0  0  0  0
    4.1374    1.0332   -0.3460 H   0  0  0  0  0  0  0  0  0  0  0  0
    0.5882   -0.5168   -1.9044 H   0  0  0  0  0  0  0  0  0  0  0  0
    0.8740   -1.9939   -0.8278 H   0  0  0  0  0  0  0  0  0  0  0  0
   -1.6473   -0.9483   -1.5376 H   0  0  0  0  0  0  0  0  0  0  0  0
   -1.3179   -1.8425    0.0503 H   0  0  0  0  0  0  0  0  0  0  0  0
  1  2  1  0
  2  3  2  0
  3  4  1  0
  4  5  1  0
  5  6  1  0
  6  7  2  0
  4  8  1  0
  8  9  1  0
  9  2  1  0
  1 10  1  0
  1 11  1  0
  1 12  1  0
  3 13  1  0
  4 14  1  0
  6 15  1  0
  8 16  1  0
  8 17  1  0
  9 18  1  0
  9 19  1  0
M  END
