
     RDKit          3D

 23 24  0  0  0  0  0  0  0  0999 V2000
    2.8231    1.0502   -0.0413 C   0  0  0  0  0  0  0  0  0  0  0  0
    1.6028    0.2195    0.0558 C   0  0  0  0  0  0  0  0  0  0  0  0
    1.3669   -0.6447    1.0220 C   0  0  0  0  0  0  0  0  0  0  0  0
    0.0549   -1.3087    0.8179 C   0  0  0  0  0  0  0  0  0  0  0  0
   -0.3902   -0.9543   -0.5749 C   0  0  0  0  0  0  0  0  0  0  0  0
   -1.5839   -0.0542   -0.6755 C   0  0  0  0  0  0  0  0  0  0  0  0
   -2.6538   -0.2053    0.3345 C   0  0  0  0  0  0  0  0  0  0  0  0
   -0.6560    1.1221   -0.4272 C   0  0  0  0  0  0  0  0  0  0  0  0
    0.4807    0.2401   -0.9114 C   0  0  0  0  0  0  0  0  0  0  0  0
    2.7087    1.8982   -0.7477 H   0  0  0  0  0  0  0  0  0  0  0  0
    3.6460    0.4013   -0.4484 H   0  0  0  0  0  0  0  0  0  0  0  0
    3.1273    1.4879    0.9434 H   0  0  0  0  0  0  0  0  0  0  0  0
    2.0155   -0.8576    1.8516 H   0  0  0  0  0  0  0  0  0  0  0  0
    0.2343   -2.4036    0.8427 H   0  0  0  0  0  0  0  0  0  0  0  0
   -0.6794   -1.0669    1.5941 H   0  0  0  0  0  0  0  0  0  0  0  0
   -0.3738   -1.7760   -1.3172 H   0  0  0  0  0  0  0  0  0  0  0  0
   -1.9898   -0.0835   -1.7188 H   0  0  0  0  0  0  0  0  0  0  0  0
   -3.5552    0.3439   -0.0202 H   0  0  0  0  0  0  0  0  0  0  0  0
   -2.4045    0.2598    1.3254 H   0  0  0  0  0  0  0  0  0  0  0  0
   -2.9967   -1.2640    0.4722 H   0  0  0  0  0  0  0  0  0  0  0  0
   -0.9309    1.9542   -1.0709 H   0  0  0  0  0  0  0  0  0  0  0  0
   -0.5879    1.3028    0.6580 H   0  0  0  0  0  0  0  0  0  0  0  0
    0.7418    0.3389   -1.9643 H   0  0  0  0  0  0  0  0  0  0  0  0
  1  2  1  0
  2  3  2  0
  3  4  1  0
  4  5  1  0
  5  6  1  0
  6  7  1  0
  6  8  1  0
  8  9  1  0
  9  2  1  0
  9  5  1  0
  1 10  1  0
  1 11  1  0
  1 12  1  0
  3 13  1  0
  4 14  1  0
  4 15  1  0
  5 16  1  0
  6 17  1  0
  7 18  1  0
  7 19  1  0
  7 20  1  0
  8 21  1  0
  8 22  1  0
  9 23  1  0
M  END
