
     RDKit          3D

 23 24  0  0  0  0  0  0  0  0999 V2000
   -2.8279    1.2723   -0.6068 C   0  0  0  0  0  0  0  0  0  0  0  0
   -1.6436    0.4130   -0.3510 C   0  0  0  0  0  0  0  0  0  0  0  0
   -0.4110    0.5382   -0.8101 C   0  0  0  0  0  0  0  0  0  0  0  0
    0.4644   -0.5562   -0.2944 C   0  0  0  0  0  0  0  0  0  0  0  0
    1.5616   -0.0423    0.5870 C   0  0  0  0  0  0  0  0  0  0  0  0
    2.4945    0.9386   -0.1103 C   0  0  0  0  0  0  0  0  0  0  0  0
    2.9682   -0.3940    0.3994 C   0  0  0  0  0  0  0  0  0  0  0  0
   -0.4252   -1.5157    0.4233 C   0  0  0  0  0  0  0  0  0  0  0  0
   -1.7289   -0.7995    0.5370 C   0  0  0  0  0  0  0  0  0  0  0  0
   -2.6123    2.1284   -1.2483 H   0  0  0  0  0  0  0  0  0  0  0  0
   -3.6356    0.6680   -1.1027 H   0  0  0  0  0  0  0  0  0  0  0  0
   -3.2495    1.5482    0.3903 H   0  0  0  0  0  0  0  0  0  0  0  0
   -0.1017    1.3372   -1.4716 H   0  0  0  0  0  0  0  0  0  0  0  0
    0.8908   -1.0910   -1.1770 H   0  0  0  0  0  0  0  0  0  0  0  0
    1.2171    0.2322    1.6210 H   0  0  0  0  0  0  0  0  0  0  0  0
    2.4493    1.0190   -1.2071 H   0  0  0  0  0  0  0  0  0  0  0  0
    2.6867    1.8613    0.4404 H   0  0  0  0  0  0  0  0  0  0  0  0
    3.6309   -0.2987    1.3071 H   0  0  0  0  0  0  0  0  0  0  0  0
    3.3351   -1.1326   -0.3245 H   0  0  0  0  0  0  0  0  0  0  0  0
   -0.5190   -2.4993   -0.1120 H   0  0  0  0  0  0  0  0  0  0  0  0
   -0.0322   -1.7775    1.4416 H   0  0  0  0  0  0  0  0  0  0  0  0
   -1.9494   -0.4241    1.5488 H   0  0  0  0  0  0  0  0  0  0  0  0
   -2.5623   -1.4256    0.1200 H   0  0  0  0  0  0  0  0  0  0  0  0
  1  2  1  0
  2  3  2  0
  3  4  1  0
  4  5  1  0
  5  6  1  0
  6  7  1  0
  4  8  1  0
  8  9  1  0
  9  2  1  0
  7  5  1  0
  1 10  1  0
  1 11  1  0
  1 12  1  0
  3 13  1  0
  4 14  1  0
  5 15  1  0
  6 16  1  0
  6 17  1  0
  7 18  1  0
  7 19  1  0
  8 20  1  0
  8 21  1  0
  9 22  1  0
  9 23  1  0
M  END
