
     RDKit          3D

 21 22  0  0  0  0  0  0  0  0999 V2000
    2.1818    0.6064   -0.0237 C   0  0  0  0  0  0  0  0  0  0  0  0
    0.7036    0.5182    0.0949 C   0  0  0  0  0  0  0  0  0  0  0  0
    0.0675    1.6465    0.3799 C   0  0  0  0  0  0  0  0  0  0  0  0
   -1.4120    1.6836    0.5238 C   0  0  0  0  0  0  0  0  0  0  0  0
   -1.7967    0.4709    1.0595 O   0  0  0  0  0  0  0  0  0  0  0  0
   -1.4614   -0.6305    0.3203 C   0  0  0  0  0  0  0  0  0  0  0  0
   -1.1867   -0.5837   -1.1297 C   0  0  0  0  0  0  0  0  0  0  0  0
   -0.0564   -0.7174   -0.0831 C   0  0  0  0  0  0  0  0  0  0  0  0
    0.6048   -2.0626    0.0494 C   0  0  0  0  0  0  0  0  0  0  0  0
    2.4588    1.3405   -0.8381 H   0  0  0  0  0  0  0  0  0  0  0  0
    2.6681   -0.3593   -0.1545 H   0  0  0  0  0  0  0  0  0  0  0  0
    2.5354    1.1165    0.9181 H   0  0  0  0  0  0  0  0  0  0  0  0
    0.6098    2.5731    0.5156 H   0  0  0  0  0  0  0  0  0  0  0  0
   -1.7181    2.4712    1.2455 H   0  0  0  0  0  0  0  0  0  0  0  0
   -1.9415    1.8487   -0.4162 H   0  0  0  0  0  0  0  0  0  0  0  0
   -2.0132   -1.5558    0.6578 H   0  0  0  0  0  0  0  0  0  0  0  0
   -1.3326   -1.5026   -1.7293 H   0  0  0  0  0  0  0  0  0  0  0  0
   -1.2594    0.3353   -1.7079 H   0  0  0  0  0  0  0  0  0  0  0  0
    1.5645   -1.9141    0.5850 H   0  0  0  0  0  0  0  0  0  0  0  0
    0.8006   -2.5322   -0.9397 H   0  0  0  0  0  0  0  0  0  0  0  0
   -0.0168   -2.7525    0.6724 H   0  0  0  0  0  0  0  0  0  0  0  0
  1  2  1  0
  2  3  2  0
  3  4  1  0
  4  5  1  0
  5  6  1  0
  6  7  1  0
  7  8  1  0
  8  9  1  0
  8  2  1  0
  8  6  1  0
  1 10  1  0
  1 11  1  0
  1 12  1  0
  3 13  1  0
  4 14  1  0
  4 15  1  0
  6 16  1  0
  7 17  1  0
  7 18  1  0
  9 19  1  0
  9 20  1  0
  9 21  1  0
M  END
