
     RDKit          3D

 17 18  0  0  0  0  0  0  0  0999 V2000
    2.1341    0.1882   -0.1211 C   0  0  0  0  0  0  0  0  0  0  0  0
    0.6649    0.3685   -0.1831 C   0  0  0  0  0  0  0  0  0  0  0  0
    0.0629    1.5082   -0.4565 C   0  0  0  0  0  0  0  0  0  0  0  0
   -1.3990    1.3115   -0.4306 C   0  0  0  0  0  0  0  0  0  0  0  0
   -2.3042    2.1606   -0.3101 O   0  0  0  0  0  0  0  0  0  0  0  0
   -1.5763   -0.1691   -0.5842 C   0  0  0  0  0  0  0  0  0  0  0  0
   -0.3304   -0.6736    0.0461 C   0  0  0  0  0  0  0  0  0  0  0  0
   -0.4172   -1.4535    1.2647 C   0  0  0  0  0  0  0  0  0  0  0  0
    0.0286   -2.0063   -0.0271 O   0  0  0  0  0  0  0  0  0  0  0  0
    2.6585    1.1670    0.0612 H   0  0  0  0  0  0  0  0  0  0  0  0
    2.3812   -0.4922    0.7185 H   0  0  0  0  0  0  0  0  0  0  0  0
    2.5605   -0.1966   -1.0745 H   0  0  0  0  0  0  0  0  0  0  0  0
    0.5468    2.4357   -0.6657 H   0  0  0  0  0  0  0  0  0  0  0  0
   -2.5107   -0.4932   -0.1038 H   0  0  0  0  0  0  0  0  0  0  0  0
   -1.5537   -0.3619   -1.6742 H   0  0  0  0  0  0  0  0  0  0  0  0
   -1.3560   -1.9472    1.5443 H   0  0  0  0  0  0  0  0  0  0  0  0
    0.4101   -1.3460    1.9962 H   0  0  0  0  0  0  0  0  0  0  0  0
  1  2  1  0
  2  3  2  0
  3  4  1  0
  4  5  2  0
  4  6  1  0
  6  7  1  0
  7  8  1  0
  8  9  1  0
  7  2  1  0
  9  7  1  0
  1 10  1  0
  1 11  1  0
  1 12  1  0
  3 13  1  0
  6 14  1  0
  6 15  1  0
  8 16  1  0
  8 17  1  0
M  END
