
     RDKit          3D

 19 20  0  0  0  0  0  0  0  0999 V2000
   -2.1831    0.1209   -0.9386 C   0  0  0  0  0  0  0  0  0  0  0  0
   -0.8809    0.2307   -0.2193 C   0  0  0  0  0  0  0  0  0  0  0  0
   -0.2689    1.4084   -0.1899 C   0  0  0  0  0  0  0  0  0  0  0  0
    1.0477    1.6359    0.5055 C   0  0  0  0  0  0  0  0  0  0  0  0
    1.7592    0.3511    0.4817 C   0  0  0  0  0  0  0  0  0  0  0  0
    2.9242    0.3322    0.1413 O   0  0  0  0  0  0  0  0  0  0  0  0
    1.0682   -0.8844    0.8638 C   0  0  0  0  0  0  0  0  0  0  0  0
    0.7057   -1.8072   -0.2615 C   0  0  0  0  0  0  0  0  0  0  0  0
   -0.3411   -0.9876    0.4247 C   0  0  0  0  0  0  0  0  0  0  0  0
   -2.4358    1.0420   -1.4923 H   0  0  0  0  0  0  0  0  0  0  0  0
   -2.9679    0.0307   -0.1373 H   0  0  0  0  0  0  0  0  0  0  0  0
   -2.2616   -0.7663   -1.5626 H   0  0  0  0  0  0  0  0  0  0  0  0
   -0.7595    2.2357   -0.6990 H   0  0  0  0  0  0  0  0  0  0  0  0
    1.5609    2.4376   -0.0866 H   0  0  0  0  0  0  0  0  0  0  0  0
    0.9031    1.9748    1.5468 H   0  0  0  0  0  0  0  0  0  0  0  0
    1.3504   -1.3379    1.8588 H   0  0  0  0  0  0  0  0  0  0  0  0
    0.7611   -2.8908   -0.0323 H   0  0  0  0  0  0  0  0  0  0  0  0
    1.0424   -1.5606   -1.2852 H   0  0  0  0  0  0  0  0  0  0  0  0
   -1.0241   -1.5652    1.0816 H   0  0  0  0  0  0  0  0  0  0  0  0
  1  2  1  0
  2  3  2  0
  3  4  1  0
  4  5  1  0
  5  6  2  0
  5  7  1  0
  7  8  1  0
  8  9  1  0
  9  2  1  0
  9  7  1  0
  1 10  1  0
  1 11  1  0
  1 12  1  0
  3 13  1  0
  4 14  1  0
  4 15  1  0
  7 16  1  0
  8 17  1  0
  8 18  1  0
  9 19  1  0
M  END
