
     RDKit          3D

 19 19  0  0  0  0  0  0  0  0999 V2000
    2.5158   -0.3636    0.4509 C   0  0  0  0  0  0  0  0  0  0  0  0
    1.1034   -0.1507   -0.0276 C   0  0  0  0  0  0  0  0  0  0  0  0
    0.0408   -0.8830    0.2137 C   0  0  0  0  0  0  0  0  0  0  0  0
   -1.1794   -0.3171   -0.4583 C   0  0  0  0  0  0  0  0  0  0  0  0
   -1.9946    0.5062    0.5208 C   0  0  0  0  0  0  0  0  0  0  0  0
   -1.8780   -1.3761   -0.9891 O   0  0  0  0  0  0  0  0  0  0  0  0
   -0.5600    0.5592   -1.4706 C   0  0  0  0  0  0  0  0  0  0  0  0
   -0.9888    0.8627   -2.5444 O   0  0  0  0  0  0  0  0  0  0  0  0
    0.7149    0.9915   -0.8800 C   0  0  0  0  0  0  0  0  0  0  0  0
    3.2389   -0.2816   -0.4019 H   0  0  0  0  0  0  0  0  0  0  0  0
    2.8070    0.3809    1.2043 H   0  0  0  0  0  0  0  0  0  0  0  0
    2.6256   -1.3687    0.9115 H   0  0  0  0  0  0  0  0  0  0  0  0
    0.0855   -1.7891    0.8357 H   0  0  0  0  0  0  0  0  0  0  0  0
   -2.5050    1.3021   -0.0607 H   0  0  0  0  0  0  0  0  0  0  0  0
   -1.2969    0.9260    1.2786 H   0  0  0  0  0  0  0  0  0  0  0  0
   -2.7715   -0.0983    1.0118 H   0  0  0  0  0  0  0  0  0  0  0  0
   -1.9713   -2.0581   -0.2585 H   0  0  0  0  0  0  0  0  0  0  0  0
    1.4850    1.2372   -1.6393 H   0  0  0  0  0  0  0  0  0  0  0  0
    0.5286    1.9205   -0.2654 H   0  0  0  0  0  0  0  0  0  0  0  0
  1  2  1  0
  2  3  2  0
  3  4  1  0
  4  5  1  0
  4  6  1  0
  4  7  1  0
  7  8  2  0
  7  9  1  0
  9  2  1  0
  1 10  1  0
  1 11  1  0
  1 12  1  0
  3 13  1  0
  5 14  1  0
  5 15  1  0
  5 16  1  0
  6 17  1  0
  9 18  1  0
  9 19  1  0
M  END
