
     RDKit          3D

 20 21  0  0  0  0  0  0  0  0999 V2000
   -2.3975    1.0865    0.3725 C   0  0  0  0  0  0  0  0  0  0  0  0
   -1.0955    0.5223   -0.0402 C   0  0  0  0  0  0  0  0  0  0  0  0
    0.0594    1.1615    0.0383 C   0  0  0  0  0  0  0  0  0  0  0  0
    1.1526    0.2982   -0.4604 C   0  0  0  0  0  0  0  0  0  0  0  0
    2.3466    0.2778    0.4457 C   0  0  0  0  0  0  0  0  0  0  0  0
    0.5756   -1.0422   -0.7386 C   0  0  0  0  0  0  0  0  0  0  0  0
   -0.1952   -1.7951    0.2771 C   0  0  0  0  0  0  0  0  0  0  0  0
   -0.8982   -0.8375   -0.5993 C   0  0  0  0  0  0  0  0  0  0  0  0
   -2.8168    0.5002    1.2297 H   0  0  0  0  0  0  0  0  0  0  0  0
   -3.1554    1.0152   -0.4447 H   0  0  0  0  0  0  0  0  0  0  0  0
   -2.3073    2.1470    0.6856 H   0  0  0  0  0  0  0  0  0  0  0  0
    0.1960    2.1631    0.4088 H   0  0  0  0  0  0  0  0  0  0  0  0
    1.4896    0.7367   -1.4380 H   0  0  0  0  0  0  0  0  0  0  0  0
    2.7041    1.3350    0.5417 H   0  0  0  0  0  0  0  0  0  0  0  0
    2.1496   -0.1216    1.4406 H   0  0  0  0  0  0  0  0  0  0  0  0
    3.1657   -0.2534   -0.0958 H   0  0  0  0  0  0  0  0  0  0  0  0
    1.0108   -1.5859   -1.5786 H   0  0  0  0  0  0  0  0  0  0  0  0
   -0.3721   -2.8636    0.0613 H   0  0  0  0  0  0  0  0  0  0  0  0
   -0.1106   -1.5800    1.3617 H   0  0  0  0  0  0  0  0  0  0  0  0
   -1.5015   -1.1643   -1.4674 H   0  0  0  0  0  0  0  0  0  0  0  0
  1  2  1  0
  2  3  2  0
  3  4  1  0
  4  5  1  0
  4  6  1  0
  6  7  1  0
  7  8  1  0
  8  2  1  0
  8  6  1  0
  1  9  1  0
  1 10  1  0
  1 11  1  0
  3 12  1  0
  4 13  1  0
  5 14  1  0
  5 15  1  0
  5 16  1  0
  6 17  1  0
  7 18  1  0
  7 19  1  0
  8 20  1  0
M  END
