
     RDKit          3D

 21 21  0  0  0  0  0  0  0  0999 V2000
    1.1611    2.0034    0.3840 C   0  0  0  0  0  0  0  0  0  0  0  0
    0.2441    0.9524   -0.1413 C   0  0  0  0  0  0  0  0  0  0  0  0
    0.3096   -0.3650   -0.0342 C   0  0  0  0  0  0  0  0  0  0  0  0
    1.4227   -1.0354    0.7000 C   0  0  0  0  0  0  0  0  0  0  0  0
    2.1526   -1.8948   -0.1172 O   0  0  0  0  0  0  0  0  0  0  0  0
   -0.8466   -0.9822   -0.7230 C   0  0  0  0  0  0  0  0  0  0  0  0
   -1.9104   -1.2354    0.3571 C   0  0  0  0  0  0  0  0  0  0  0  0
   -1.2726    0.0092   -1.5757 O   0  0  0  0  0  0  0  0  0  0  0  0
   -0.9850    1.2225   -0.9382 C   0  0  0  0  0  0  0  0  0  0  0  0
    1.7300    2.4417   -0.4545 H   0  0  0  0  0  0  0  0  0  0  0  0
    1.7764    1.6732    1.2209 H   0  0  0  0  0  0  0  0  0  0  0  0
    0.5185    2.8446    0.7772 H   0  0  0  0  0  0  0  0  0  0  0  0
    0.9227   -1.6772    1.4799 H   0  0  0  0  0  0  0  0  0  0  0  0
    2.0664   -0.3460    1.2370 H   0  0  0  0  0  0  0  0  0  0  0  0
    2.3967   -1.4099   -0.9527 H   0  0  0  0  0  0  0  0  0  0  0  0
   -0.5912   -1.9276   -1.2345 H   0  0  0  0  0  0  0  0  0  0  0  0
   -1.8253   -2.2551    0.7507 H   0  0  0  0  0  0  0  0  0  0  0  0
   -2.9269   -1.0256   -0.0404 H   0  0  0  0  0  0  0  0  0  0  0  0
   -1.7571   -0.5149    1.2125 H   0  0  0  0  0  0  0  0  0  0  0  0
   -0.8024    2.0428   -1.6606 H   0  0  0  0  0  0  0  0  0  0  0  0
   -1.7832    1.4795   -0.2469 H   0  0  0  0  0  0  0  0  0  0  0  0
  1  2  1  0
  2  3  2  0
  3  4  1  0
  4  5  1  0
  3  6  1  0
  6  7  1  0
  6  8  1  0
  8  9  1  0
  9  2  1  0
  1 10  1  0
  1 11  1  0
  1 12  1  0
  4 13  1  0
  4 14  1  0
  5 15  1  0
  6 16  1  0
  7 17  1  0
  7 18  1  0
  7 19  1  0
  9 20  1  0
  9 21  1  0
M  END
