
     RDKit          3D

 23 23  0  0  0  0  0  0  0  0999 V2000
   -2.9246   -0.4748   -0.3131 C   0  0  0  0  0  0  0  0  0  0  0  0
   -1.4890   -0.1195   -0.2411 C   0  0  0  0  0  0  0  0  0  0  0  0
   -1.1618    1.0682   -0.7266 C   0  0  0  0  0  0  0  0  0  0  0  0
    0.1101    1.7685   -0.8378 C   0  0  0  0  0  0  0  0  0  0  0  0
    1.2441    1.4104   -0.2792 C   0  0  0  0  0  0  0  0  0  0  0  0
    1.5709    0.2839    0.5667 C   0  0  0  0  0  0  0  0  0  0  0  0
    2.4242   -0.6968   -0.2521 C   0  0  0  0  0  0  0  0  0  0  0  0
    0.4813   -0.4282    1.2348 C   0  0  0  0  0  0  0  0  0  0  0  0
   -0.5387   -1.0852    0.3527 C   0  0  0  0  0  0  0  0  0  0  0  0
   -3.0978   -1.5249   -0.6064 H   0  0  0  0  0  0  0  0  0  0  0  0
   -3.4333    0.1979   -1.0168 H   0  0  0  0  0  0  0  0  0  0  0  0
   -3.3511   -0.2653    0.7060 H   0  0  0  0  0  0  0  0  0  0  0  0
   -2.0045    1.6637   -1.1334 H   0  0  0  0  0  0  0  0  0  0  0  0
    0.1162    2.6890   -1.4523 H   0  0  0  0  0  0  0  0  0  0  0  0
    2.0752    2.1030   -0.5082 H   0  0  0  0  0  0  0  0  0  0  0  0
    2.2794    0.6461    1.3651 H   0  0  0  0  0  0  0  0  0  0  0  0
    3.3978   -0.1848   -0.4285 H   0  0  0  0  0  0  0  0  0  0  0  0
    2.6076   -1.6085    0.3725 H   0  0  0  0  0  0  0  0  0  0  0  0
    1.9795   -0.9225   -1.2214 H   0  0  0  0  0  0  0  0  0  0  0  0
    0.9305   -1.2498    1.8569 H   0  0  0  0  0  0  0  0  0  0  0  0
   -0.0683    0.2080    1.9591 H   0  0  0  0  0  0  0  0  0  0  0  0
   -0.0168   -1.7021   -0.3935 H   0  0  0  0  0  0  0  0  0  0  0  0
   -1.1308   -1.7764    0.9965 H   0  0  0  0  0  0  0  0  0  0  0  0
  1  2  1  0
  2  3  2  0
  3  4  1  0
  4  5  2  0
  5  6  1  0
  6  7  1  0
  6  8  1  0
  8  9  1  0
  9  2  1  0
  1 10  1  0
  1 11  1  0
  1 12  1  0
  3 13  1  0
  4 14  1  0
  5 15  1  0
  6 16  1  0
  7 17  1  0
  7 18  1  0
  7 19  1  0
  8 20  1  0
  8 21  1  0
  9 22  1  0
  9 23  1  0
M  END
