
     RDKit          3D

 22 22  0  0  0  0  0  0  0  0999 V2000
    2.7410   -0.4461   -0.4583 C   0  0  0  0  0  0  0  0  0  0  0  0
    1.3760   -0.2922    0.1132 C   0  0  0  0  0  0  0  0  0  0  0  0
    0.7596   -1.1050    0.9661 C   0  0  0  0  0  0  0  0  0  0  0  0
   -0.5824   -0.5653    1.2662 C   0  0  0  0  0  0  0  0  0  0  0  0
   -0.8703    0.2294    0.0081 C   0  0  0  0  0  0  0  0  0  0  0  0
   -1.3214   -0.6326   -1.1211 C   0  0  0  0  0  0  0  0  0  0  0  0
   -1.8623    1.3205    0.2558 C   0  0  0  0  0  0  0  0  0  0  0  0
    0.4884    0.8546   -0.2217 C   0  0  0  0  0  0  0  0  0  0  0  0
    3.4549    0.1761    0.1561 H   0  0  0  0  0  0  0  0  0  0  0  0
    3.1137   -1.4986   -0.3655 H   0  0  0  0  0  0  0  0  0  0  0  0
    2.7596   -0.1024   -1.5124 H   0  0  0  0  0  0  0  0  0  0  0  0
    1.2027   -2.0104    1.3573 H   0  0  0  0  0  0  0  0  0  0  0  0
   -0.5162    0.1839    2.0906 H   0  0  0  0  0  0  0  0  0  0  0  0
   -1.3387   -1.3435    1.4574 H   0  0  0  0  0  0  0  0  0  0  0  0
   -2.4046   -0.8451   -0.9748 H   0  0  0  0  0  0  0  0  0  0  0  0
   -1.2231   -0.1131   -2.0794 H   0  0  0  0  0  0  0  0  0  0  0  0
   -0.7339   -1.5846   -1.1889 H   0  0  0  0  0  0  0  0  0  0  0  0
   -2.8647    0.9702    0.5273 H   0  0  0  0  0  0  0  0  0  0  0  0
   -1.9219    1.9437   -0.6462 H   0  0  0  0  0  0  0  0  0  0  0  0
   -1.5056    1.9965    1.0772 H   0  0  0  0  0  0  0  0  0  0  0  0
    0.6293    1.2163   -1.2499 H   0  0  0  0  0  0  0  0  0  0  0  0
    0.6198    1.6474    0.5429 H   0  0  0  0  0  0  0  0  0  0  0  0
  1  2  1  0
  2  3  2  0
  3  4  1  0
  4  5  1  0
  5  6  1  0
  5  7  1  0
  5  8  1  0
  8  2  1  0
  1  9  1  0
  1 10  1  0
  1 11  1  0
  3 12  1  0
  4 13  1  0
  4 14  1  0
  6 15  1  0
  6 16  1  0
  6 17  1  0
  7 18  1  0
  7 19  1  0
  7 20  1  0
  8 21  1  0
  8 22  1  0
M  END
