
     RDKit          3D

 19 20  0  0  0  0  0  0  0  0999 V2000
    2.3774   -0.2120    0.7769 C   0  0  0  0  0  0  0  0  0  0  0  0
    1.0113    0.0962    0.2753 C   0  0  0  0  0  0  0  0  0  0  0  0
    0.2329    1.1189    0.6329 C   0  0  0  0  0  0  0  0  0  0  0  0
   -0.9729    1.1705   -0.2828 C   0  0  0  0  0  0  0  0  0  0  0  0
   -1.9404    0.0737    0.1180 C   0  0  0  0  0  0  0  0  0  0  0  0
   -1.0347   -1.1487   -0.0142 C   0  0  0  0  0  0  0  0  0  0  0  0
    0.2008   -0.6753   -0.7470 C   0  0  0  0  0  0  0  0  0  0  0  0
   -0.3706    0.4962   -1.4641 C   0  0  0  0  0  0  0  0  0  0  0  0
   -0.3102    0.7261   -2.6106 O   0  0  0  0  0  0  0  0  0  0  0  0
    3.1411    0.4995    0.4029 H   0  0  0  0  0  0  0  0  0  0  0  0
    2.4412   -0.2432    1.8735 H   0  0  0  0  0  0  0  0  0  0  0  0
    2.6710   -1.2140    0.4083 H   0  0  0  0  0  0  0  0  0  0  0  0
    0.4764    1.7734    1.4553 H   0  0  0  0  0  0  0  0  0  0  0  0
   -1.3806    2.1374   -0.4348 H   0  0  0  0  0  0  0  0  0  0  0  0
   -2.3571    0.1931    1.1122 H   0  0  0  0  0  0  0  0  0  0  0  0
   -2.6877   -0.0148   -0.6983 H   0  0  0  0  0  0  0  0  0  0  0  0
   -1.5257   -1.9813   -0.5145 H   0  0  0  0  0  0  0  0  0  0  0  0
   -0.7106   -1.4129    1.0246 H   0  0  0  0  0  0  0  0  0  0  0  0
    0.7386   -1.3829   -1.3135 H   0  0  0  0  0  0  0  0  0  0  0  0
  1  2  1  0
  2  3  2  0
  3  4  1  0
  4  5  1  0
  5  6  1  0
  6  7  1  0
  7  8  1  0
  8  9  2  0
  7  2  1  0
  8  4  1  0
  1 10  1  0
  1 11  1  0
  1 12  1  0
  3 13  1  0
  4 14  1  0
  5 15  1  0
  5 16  1  0
  6 17  1  0
  6 18  1  0
  7 19  1  0
M  END
