
     RDKit          3D

 21 22  0  0  0  0  0  0  0  0999 V2000
   -0.5284   -2.3973   -0.3637 C   0  0  0  0  0  0  0  0  0  0  0  0
   -0.5051   -0.8955   -0.1764 C   0  0  0  0  0  0  0  0  0  0  0  0
    0.5597   -0.1455    0.0174 C   0  0  0  0  0  0  0  0  0  0  0  0
    1.9621   -0.7472    0.0774 C   0  0  0  0  0  0  0  0  0  0  0  0
    0.2054    1.2592    0.1518 C   0  0  0  0  0  0  0  0  0  0  0  0
   -1.1749    1.3194   -0.4536 C   0  0  0  0  0  0  0  0  0  0  0  0
   -1.7233   -0.0629   -0.1849 C   0  0  0  0  0  0  0  0  0  0  0  0
    0.9371    2.3198    0.5501 C   0  0  0  0  0  0  0  0  0  0  0  0
    0.1393    1.6155    1.5965 O   0  0  0  0  0  0  0  0  0  0  0  0
    0.4421   -2.8436   -0.0946 H   0  0  0  0  0  0  0  0  0  0  0  0
   -1.2699   -2.7902    0.3648 H   0  0  0  0  0  0  0  0  0  0  0  0
   -0.8814   -2.6693   -1.3743 H   0  0  0  0  0  0  0  0  0  0  0  0
    2.7003    0.0648    0.2104 H   0  0  0  0  0  0  0  0  0  0  0  0
    2.1943   -1.2608   -0.8810 H   0  0  0  0  0  0  0  0  0  0  0  0
    2.0297   -1.4616    0.9223 H   0  0  0  0  0  0  0  0  0  0  0  0
   -1.1377    1.4913   -1.5466 H   0  0  0  0  0  0  0  0  0  0  0  0
   -1.8397    2.0382    0.0596 H   0  0  0  0  0  0  0  0  0  0  0  0
   -2.4058   -0.3458   -1.0369 H   0  0  0  0  0  0  0  0  0  0  0  0
   -2.2929   -0.1166    0.7627 H   0  0  0  0  0  0  0  0  0  0  0  0
    2.0006    2.2566    0.8875 H   0  0  0  0  0  0  0  0  0  0  0  0
    0.5885    3.3716    0.5114 H   0  0  0  0  0  0  0  0  0  0  0  0
  1  2  1  0
  2  3  2  0
  3  4  1  0
  3  5  1  0
  5  6  1  0
  6  7  1  0
  5  8  1  0
  8  9  1  0
  7  2  1  0
  9  5  1  0
  1 10  1  0
  1 11  1  0
  1 12  1  0
  4 13  1  0
  4 14  1  0
  4 15  1  0
  6 16  1  0
  6 17  1  0
  7 18  1  0
  7 19  1  0
  8 20  1  0
  8 21  1  0
M  END
