
     RDKit          3D

 17 18  0  0  0  0  0  0  0  0999 V2000
   -2.2232   -0.6600    0.2996 C   0  0  0  0  0  0  0  0  0  0  0  0
   -0.9666    0.1374    0.1160 C   0  0  0  0  0  0  0  0  0  0  0  0
   -0.9296    1.4471    0.0629 C   0  0  0  0  0  0  0  0  0  0  0  0
    0.4601    1.8814   -0.1235 C   0  0  0  0  0  0  0  0  0  0  0  0
    1.2079    0.5800   -0.1669 C   0  0  0  0  0  0  0  0  0  0  0  0
    2.4066    0.0609   -0.2945 O   0  0  0  0  0  0  0  0  0  0  0  0
    2.4098   -1.2406   -0.2466 C   0  0  0  0  0  0  0  0  0  0  0  0
    1.1130   -1.6233   -0.0735 C   0  0  0  0  0  0  0  0  0  0  0  0
    0.3374   -0.4772   -0.0210 C   0  0  0  0  0  0  0  0  0  0  0  0
   -2.0774   -1.2860    1.2188 H   0  0  0  0  0  0  0  0  0  0  0  0
   -3.1012   -0.0011    0.4218 H   0  0  0  0  0  0  0  0  0  0  0  0
   -2.3930   -1.3053   -0.5956 H   0  0  0  0  0  0  0  0  0  0  0  0
   -1.7793    2.1464    0.1411 H   0  0  0  0  0  0  0  0  0  0  0  0
    0.8589    2.4936    0.7052 H   0  0  0  0  0  0  0  0  0  0  0  0
    0.6263    2.3478   -1.1197 H   0  0  0  0  0  0  0  0  0  0  0  0
    3.3105   -1.8773   -0.3334 H   0  0  0  0  0  0  0  0  0  0  0  0
    0.7397   -2.6239    0.0094 H   0  0  0  0  0  0  0  0  0  0  0  0
  1  2  1  0
  2  3  2  0
  3  4  1  0
  4  5  1  0
  5  6  1  0
  6  7  1  0
  7  8  2  0
  8  9  1  0
  9  2  1  0
  9  5  2  0
  1 10  1  0
  1 11  1  0
  1 12  1  0
  3 13  1  0
  4 14  1  0
  4 15  1  0
  7 16  1  0
  8 17  1  0
M  END
