
     RDKit          3D

 21 22  0  0  0  0  0  0  0  0999 V2000
    3.1970    0.1724   -0.0756 C   0  0  0  0  0  0  0  0  0  0  0  0
    1.7145    0.2711   -0.0280 C   0  0  0  0  0  0  0  0  0  0  0  0
    1.0040    1.3521    0.1753 C   0  0  0  0  0  0  0  0  0  0  0  0
   -0.4579    1.0894    0.1594 C   0  0  0  0  0  0  0  0  0  0  0  0
   -0.5879   -0.3879    0.0032 C   0  0  0  0  0  0  0  0  0  0  0  0
    0.7960   -0.8928   -0.2125 C   0  0  0  0  0  0  0  0  0  0  0  0
   -1.3830   -1.1289    0.8576 O   0  0  0  0  0  0  0  0  0  0  0  0
   -1.7556   -1.0012   -0.5030 C   0  0  0  0  0  0  0  0  0  0  0  0
   -3.0445   -0.2315   -0.6794 C   0  0  0  0  0  0  0  0  0  0  0  0
    3.5854    0.4373    0.9387 H   0  0  0  0  0  0  0  0  0  0  0  0
    3.6339    0.8828   -0.8032 H   0  0  0  0  0  0  0  0  0  0  0  0
    3.5311   -0.8532   -0.2819 H   0  0  0  0  0  0  0  0  0  0  0  0
    1.4577    2.3419    0.3389 H   0  0  0  0  0  0  0  0  0  0  0  0
   -0.9369    1.4045    1.1082 H   0  0  0  0  0  0  0  0  0  0  0  0
   -0.9439    1.6135   -0.7042 H   0  0  0  0  0  0  0  0  0  0  0  0
    0.9849   -1.3141   -1.2009 H   0  0  0  0  0  0  0  0  0  0  0  0
    1.1069   -1.6389    0.5755 H   0  0  0  0  0  0  0  0  0  0  0  0
   -1.6864   -1.9062   -1.1377 H   0  0  0  0  0  0  0  0  0  0  0  0
   -3.3403    0.3136    0.2523 H   0  0  0  0  0  0  0  0  0  0  0  0
   -3.0237    0.4458   -1.5366 H   0  0  0  0  0  0  0  0  0  0  0  0
   -3.8514   -0.9700   -0.8622 H   0  0  0  0  0  0  0  0  0  0  0  0
  1  2  1  0
  2  3  2  0
  3  4  1  0
  4  5  1  0
  5  6  1  0
  5  7  1  0
  7  8  1  0
  8  9  1  0
  6  2  1  0
  8  5  1  0
  1 10  1  0
  1 11  1  0
  1 12  1  0
  3 13  1  0
  4 14  1  0
  4 15  1  0
  6 16  1  0
  6 17  1  0
  8 18  1  0
  9 19  1  0
  9 20  1  0
  9 21  1  0
M  END
