
     RDKit          3D

 23 24  0  0  0  0  0  0  0  0999 V2000
    2.5704   -1.0607   -0.0932 C   0  0  0  0  0  0  0  0  0  0  0  0
    1.3017   -0.2618   -0.1109 C   0  0  0  0  0  0  0  0  0  0  0  0
    0.1122   -0.8056    0.0010 C   0  0  0  0  0  0  0  0  0  0  0  0
   -1.1289   -1.6695    0.1465 C   0  0  0  0  0  0  0  0  0  0  0  0
   -1.7882   -0.5823   -0.7366 C   0  0  0  0  0  0  0  0  0  0  0  0
   -0.8767    0.3445   -0.0145 C   0  0  0  0  0  0  0  0  0  0  0  0
   -1.3184    0.7964    1.3362 C   0  0  0  0  0  0  0  0  0  0  0  0
   -0.1612    1.4186   -0.7944 C   0  0  0  0  0  0  0  0  0  0  0  0
    1.2881    1.2096   -0.2821 C   0  0  0  0  0  0  0  0  0  0  0  0
    2.8510   -1.2359   -1.1527 H   0  0  0  0  0  0  0  0  0  0  0  0
    3.3433   -0.4591    0.4208 H   0  0  0  0  0  0  0  0  0  0  0  0
    2.4256   -2.0212    0.4584 H   0  0  0  0  0  0  0  0  0  0  0  0
   -1.0484   -2.6453   -0.3276 H   0  0  0  0  0  0  0  0  0  0  0  0
   -1.4981   -1.7094    1.1648 H   0  0  0  0  0  0  0  0  0  0  0  0
   -2.8468   -0.4065   -0.4898 H   0  0  0  0  0  0  0  0  0  0  0  0
   -1.5612   -0.7220   -1.7923 H   0  0  0  0  0  0  0  0  0  0  0  0
   -1.4428    1.8975    1.3055 H   0  0  0  0  0  0  0  0  0  0  0  0
   -2.3226    0.3701    1.5873 H   0  0  0  0  0  0  0  0  0  0  0  0
   -0.5700    0.5724    2.1170 H   0  0  0  0  0  0  0  0  0  0  0  0
   -0.2128    1.2572   -1.8707 H   0  0  0  0  0  0  0  0  0  0  0  0
   -0.4816    2.4093   -0.4409 H   0  0  0  0  0  0  0  0  0  0  0  0
    1.4330    1.7380    0.6693 H   0  0  0  0  0  0  0  0  0  0  0  0
    1.9325    1.5657   -1.1013 H   0  0  0  0  0  0  0  0  0  0  0  0
  1  2  1  0
  2  3  2  0
  3  4  1  0
  4  5  1  0
  5  6  1  0
  6  7  1  0
  6  8  1  0
  8  9  1  0
  9  2  1  0
  6  3  1  0
  1 10  1  0
  1 11  1  0
  1 12  1  0
  4 13  1  0
  4 14  1  0
  5 15  1  0
  5 16  1  0
  7 17  1  0
  7 18  1  0
  7 19  1  0
  8 20  1  0
  8 21  1  0
  9 22  1  0
  9 23  1  0
M  END
