
     RDKit          3D

 21 22  0  0  0  0  0  0  0  0999 V2000
    2.6253   -0.0227   -0.1030 C   0  0  0  0  0  0  0  0  0  0  0  0
    1.1693   -0.1429    0.1946 C   0  0  0  0  0  0  0  0  0  0  0  0
    0.6796   -0.5063    1.3703 C   0  0  0  0  0  0  0  0  0  0  0  0
   -0.8141   -0.5247    1.3264 C   0  0  0  0  0  0  0  0  0  0  0  0
   -1.1880    0.1072    0.0106 C   0  0  0  0  0  0  0  0  0  0  0  0
   -1.7867    1.4738    0.0765 C   0  0  0  0  0  0  0  0  0  0  0  0
   -1.7816   -0.8013   -0.8352 O   0  0  0  0  0  0  0  0  0  0  0  0
   -0.5335   -1.0433   -1.4458 C   0  0  0  0  0  0  0  0  0  0  0  0
    0.0989    0.1266   -0.7785 C   0  0  0  0  0  0  0  0  0  0  0  0
    3.0757   -1.0221   -0.1046 H   0  0  0  0  0  0  0  0  0  0  0  0
    2.8186    0.4456   -1.0774 H   0  0  0  0  0  0  0  0  0  0  0  0
    3.1591    0.5751    0.6595 H   0  0  0  0  0  0  0  0  0  0  0  0
    1.2326   -0.7640    2.2678 H   0  0  0  0  0  0  0  0  0  0  0  0
   -1.2455    0.0743    2.1705 H   0  0  0  0  0  0  0  0  0  0  0  0
   -1.1791   -1.5782    1.3822 H   0  0  0  0  0  0  0  0  0  0  0  0
   -0.9545    2.2341    0.0525 H   0  0  0  0  0  0  0  0  0  0  0  0
   -2.3525    1.6399   -0.8684 H   0  0  0  0  0  0  0  0  0  0  0  0
   -2.4522    1.6318    0.9569 H   0  0  0  0  0  0  0  0  0  0  0  0
   -0.1187   -2.0334   -1.2744 H   0  0  0  0  0  0  0  0  0  0  0  0
   -0.6821   -0.8827   -2.5532 H   0  0  0  0  0  0  0  0  0  0  0  0
    0.2293    1.0132   -1.4273 H   0  0  0  0  0  0  0  0  0  0  0  0
  1  2  1  0
  2  3  2  0
  3  4  1  0
  4  5  1  0
  5  6  1  0
  5  7  1  0
  7  8  1  0
  8  9  1  0
  9  2  1  0
  9  5  1  0
  1 10  1  0
  1 11  1  0
  1 12  1  0
  3 13  1  0
  4 14  1  0
  4 15  1  0
  6 16  1  0
  6 17  1  0
  6 18  1  0
  8 19  1  0
  8 20  1  0
  9 21  1  0
M  END
