
     RDKit          3D

 18 19  0  0  0  0  0  0  0  0999 V2000
    2.2192    0.1427    0.7705 C   0  0  0  0  0  0  0  0  0  0  0  0
    0.8432   -0.1767    0.2971 C   0  0  0  0  0  0  0  0  0  0  0  0
    0.4026   -1.3399   -0.2471 C   0  0  0  0  0  0  0  0  0  0  0  0
   -1.0167   -1.0512   -0.5322 C   0  0  0  0  0  0  0  0  0  0  0  0
   -0.9189    0.3663   -1.1135 C   0  0  0  0  0  0  0  0  0  0  0  0
   -0.3740    0.6586    0.2921 C   0  0  0  0  0  0  0  0  0  0  0  0
   -0.3909    1.8848    0.7518 O   0  0  0  0  0  0  0  0  0  0  0  0
   -1.4513   -0.3379    0.7449 C   0  0  0  0  0  0  0  0  0  0  0  0
    2.9506    0.1763   -0.0757 H   0  0  0  0  0  0  0  0  0  0  0  0
    2.1868    1.1742    1.1738 H   0  0  0  0  0  0  0  0  0  0  0  0
    2.6090   -0.5923    1.4926 H   0  0  0  0  0  0  0  0  0  0  0  0
    0.9285   -2.2502   -0.4337 H   0  0  0  0  0  0  0  0  0  0  0  0
   -1.6531   -1.7453   -0.9856 H   0  0  0  0  0  0  0  0  0  0  0  0
   -0.1201    0.4170   -1.8554 H   0  0  0  0  0  0  0  0  0  0  0  0
   -1.8793    0.8309   -1.3395 H   0  0  0  0  0  0  0  0  0  0  0  0
   -0.6485    2.5869    0.1217 H   0  0  0  0  0  0  0  0  0  0  0  0
   -1.2250   -0.8662    1.6736 H   0  0  0  0  0  0  0  0  0  0  0  0
   -2.4621    0.1220    0.6757 H   0  0  0  0  0  0  0  0  0  0  0  0
  1  2  1  0
  2  3  2  0
  3  4  1  0
  4  5  1  0
  5  6  1  0
  6  7  1  0
  6  8  1  0
  6  2  1  0
  8  4  1  0
  1  9  1  0
  1 10  1  0
  1 11  1  0
  3 12  1  0
  4 13  1  0
  5 14  1  0
  5 15  1  0
  7 16  1  0
  8 17  1  0
  8 18  1  0
M  END
