
     RDKit          3D

 23 23  0  0  0  0  0  0  0  0999 V2000
    2.3080    0.2382    0.3346 C   0  0  0  0  0  0  0  0  0  0  0  0
    0.8984    0.3304   -0.0974 C   0  0  0  0  0  0  0  0  0  0  0  0
    0.2318   -0.7965   -0.3010 C   0  0  0  0  0  0  0  0  0  0  0  0
    0.9859   -2.0602   -0.0691 C   0  0  0  0  0  0  0  0  0  0  0  0
   -1.2046   -0.9133   -0.7402 C   0  0  0  0  0  0  0  0  0  0  0  0
   -2.0182   -0.3878    0.4250 C   0  0  0  0  0  0  0  0  0  0  0  0
   -2.0191    1.0947    0.3276 C   0  0  0  0  0  0  0  0  0  0  0  0
   -1.0266    1.8945    0.0550 C   0  0  0  0  0  0  0  0  0  0  0  0
    0.4077    1.7187   -0.2513 C   0  0  0  0  0  0  0  0  0  0  0  0
    2.5321   -0.6714    0.9201 H   0  0  0  0  0  0  0  0  0  0  0  0
    2.5195    1.1072    0.9959 H   0  0  0  0  0  0  0  0  0  0  0  0
    3.0178    0.3384   -0.5341 H   0  0  0  0  0  0  0  0  0  0  0  0
    1.8977   -2.1134   -0.6988 H   0  0  0  0  0  0  0  0  0  0  0  0
    0.3335   -2.9078   -0.4013 H   0  0  0  0  0  0  0  0  0  0  0  0
    1.1926   -2.2378    1.0086 H   0  0  0  0  0  0  0  0  0  0  0  0
   -1.4647   -1.9293   -1.0281 H   0  0  0  0  0  0  0  0  0  0  0  0
   -1.3443   -0.2080   -1.5855 H   0  0  0  0  0  0  0  0  0  0  0  0
   -3.0431   -0.8049    0.4355 H   0  0  0  0  0  0  0  0  0  0  0  0
   -1.5531   -0.6860    1.3938 H   0  0  0  0  0  0  0  0  0  0  0  0
   -2.9803    1.5543    0.5104 H   0  0  0  0  0  0  0  0  0  0  0  0
   -1.2980    2.9660    0.0449 H   0  0  0  0  0  0  0  0  0  0  0  0
    0.6674    2.1341   -1.2573 H   0  0  0  0  0  0  0  0  0  0  0  0
    0.9594    2.3399    0.5126 H   0  0  0  0  0  0  0  0  0  0  0  0
  1  2  1  0
  2  3  2  0
  3  4  1  0
  3  5  1  0
  5  6  1  0
  6  7  1  0
  7  8  2  0
  8  9  1  0
  9  2  1  0
  1 10  1  0
  1 11  1  0
  1 12  1  0
  4 13  1  0
  4 14  1  0
  4 15  1  0
  5 16  1  0
  5 17  1  0
  6 18  1  0
  6 19  1  0
  7 20  1  0
  8 21  1  0
  9 22  1  0
  9 23  1  0
M  END
