
     RDKit          3D

 19 21  0  0  0  0  0  0  0  0999 V2000
    2.7865   -0.2993    0.3129 C   0  0  0  0  0  0  0  0  0  0  0  0
    1.3790    0.0274    0.1469 C   0  0  0  0  0  0  0  0  0  0  0  0
    0.9340    0.9741   -0.7282 C   0  0  0  0  0  0  0  0  0  0  0  0
   -0.4960    0.9682   -0.5754 C   0  0  0  0  0  0  0  0  0  0  0  0
   -1.7725    1.1517   -0.5167 C   0  0  0  0  0  0  0  0  0  0  0  0
   -2.4275   -0.0815    0.0957 C   0  0  0  0  0  0  0  0  0  0  0  0
   -1.1867   -0.9013    0.5918 C   0  0  0  0  0  0  0  0  0  0  0  0
    0.1602   -0.5100    0.8613 C   0  0  0  0  0  0  0  0  0  0  0  0
   -0.4861   -0.6344   -0.5158 C   0  0  0  0  0  0  0  0  0  0  0  0
    3.3236    0.6031    0.6553 H   0  0  0  0  0  0  0  0  0  0  0  0
    2.8826   -1.0482    1.1228 H   0  0  0  0  0  0  0  0  0  0  0  0
    3.2503   -0.7255   -0.6167 H   0  0  0  0  0  0  0  0  0  0  0  0
    1.4206    1.6600   -1.3942 H   0  0  0  0  0  0  0  0  0  0  0  0
   -2.1955    2.0701   -0.8751 H   0  0  0  0  0  0  0  0  0  0  0  0
   -3.0660    0.1814    0.9354 H   0  0  0  0  0  0  0  0  0  0  0  0
   -2.9168   -0.6280   -0.7274 H   0  0  0  0  0  0  0  0  0  0  0  0
   -1.5111   -1.9213    0.9100 H   0  0  0  0  0  0  0  0  0  0  0  0
    0.0125    0.2972    1.6064 H   0  0  0  0  0  0  0  0  0  0  0  0
   -0.0911   -1.1837   -1.2890 H   0  0  0  0  0  0  0  0  0  0  0  0
  1  2  1  0
  2  3  2  0
  3  4  1  0
  4  5  2  0
  5  6  1  0
  6  7  1  0
  7  8  1  0
  8  9  1  0
  8  2  1  0
  9  4  1  0
  9  7  1  0
  1 10  1  0
  1 11  1  0
  1 12  1  0
  3 13  1  0
  5 14  1  0
  6 15  1  0
  6 16  1  0
  7 17  1  0
  8 18  1  0
  9 19  1  0
M  END
