
     RDKit          3D

 20 20  0  0  0  0  0  0  0  0999 V2000
    2.7399   -0.3798   -0.1320 C   0  0  0  0  0  0  0  0  0  0  0  0
    1.2971   -0.0234   -0.0076 C   0  0  0  0  0  0  0  0  0  0  0  0
    0.8058    1.1905    0.1749 C   0  0  0  0  0  0  0  0  0  0  0  0
   -0.6897    1.1567    0.2524 C   0  0  0  0  0  0  0  0  0  0  0  0
   -1.2915    1.5445   -0.9183 O   0  0  0  0  0  0  0  0  0  0  0  0
   -0.9657   -0.2883    0.5905 C   0  0  0  0  0  0  0  0  0  0  0  0
   -2.2224   -0.7992   -0.0937 C   0  0  0  0  0  0  0  0  0  0  0  0
    0.1966   -0.9778   -0.0725 C   0  0  0  0  0  0  0  0  0  0  0  0
    2.8678   -1.3824   -0.5916 H   0  0  0  0  0  0  0  0  0  0  0  0
    3.1663   -0.3651    0.8928 H   0  0  0  0  0  0  0  0  0  0  0  0
    3.2948    0.3574   -0.7353 H   0  0  0  0  0  0  0  0  0  0  0  0
    1.3957    2.0964    0.2588 H   0  0  0  0  0  0  0  0  0  0  0  0
   -1.0785    1.7948    1.0725 H   0  0  0  0  0  0  0  0  0  0  0  0
   -1.4113    2.5443   -0.8730 H   0  0  0  0  0  0  0  0  0  0  0  0
   -0.9527   -0.4819    1.6627 H   0  0  0  0  0  0  0  0  0  0  0  0
   -3.1101   -0.2097    0.1497 H   0  0  0  0  0  0  0  0  0  0  0  0
   -2.3278   -1.8630    0.1931 H   0  0  0  0  0  0  0  0  0  0  0  0
   -2.0149   -0.7507   -1.1959 H   0  0  0  0  0  0  0  0  0  0  0  0
    0.3768   -1.9180    0.4897 H   0  0  0  0  0  0  0  0  0  0  0  0
   -0.0761   -1.2452   -1.1172 H   0  0  0  0  0  0  0  0  0  0  0  0
  1  2  1  0
  2  3  2  0
  3  4  1  0
  4  5  1  0
  4  6  1  0
  6  7  1  0
  6  8  1  0
  8  2  1  0
  1  9  1  0
  1 10  1  0
  1 11  1  0
  3 12  1  0
  4 13  1  0
  5 14  1  0
  6 15  1  0
  7 16  1  0
  7 17  1  0
  7 18  1  0
  8 19  1  0
  8 20  1  0
M  END
