
     RDKit          3D

 21 21  0  0  0  0  0  0  0  0999 V2000
    2.4129   -0.8217   -0.3475 C   0  0  0  0  0  0  0  0  0  0  0  0
    0.9857   -0.4518   -0.2524 C   0  0  0  0  0  0  0  0  0  0  0  0
    0.1734   -1.4058    0.1627 C   0  0  0  0  0  0  0  0  0  0  0  0
   -1.3173   -1.4078    0.3824 C   0  0  0  0  0  0  0  0  0  0  0  0
   -1.8809   -0.1628   -0.1699 C   0  0  0  0  0  0  0  0  0  0  0  0
   -2.6498   -0.3230   -1.0996 O   0  0  0  0  0  0  0  0  0  0  0  0
   -1.6179    1.2151    0.2738 C   0  0  0  0  0  0  0  0  0  0  0  0
   -0.1745    1.5290    0.4845 C   0  0  0  0  0  0  0  0  0  0  0  0
    0.6702    0.9469   -0.6395 C   0  0  0  0  0  0  0  0  0  0  0  0
    2.7394   -0.8099   -1.3907 H   0  0  0  0  0  0  0  0  0  0  0  0
    2.9847   -0.0419    0.2194 H   0  0  0  0  0  0  0  0  0  0  0  0
    2.6422   -1.7795    0.1693 H   0  0  0  0  0  0  0  0  0  0  0  0
    0.6915   -2.3347    0.3745 H   0  0  0  0  0  0  0  0  0  0  0  0
   -1.6987   -2.3178   -0.1476 H   0  0  0  0  0  0  0  0  0  0  0  0
   -1.5411   -1.5344    1.4584 H   0  0  0  0  0  0  0  0  0  0  0  0
   -2.0302    1.9625   -0.4430 H   0  0  0  0  0  0  0  0  0  0  0  0
   -2.1442    1.4282    1.2492 H   0  0  0  0  0  0  0  0  0  0  0  0
    0.1419    1.1230    1.4703 H   0  0  0  0  0  0  0  0  0  0  0  0
   -0.0598    2.6314    0.5357 H   0  0  0  0  0  0  0  0  0  0  0  0
    0.0894    0.9822   -1.6002 H   0  0  0  0  0  0  0  0  0  0  0  0
    1.5833    1.5729   -0.6899 H   0  0  0  0  0  0  0  0  0  0  0  0
  1  2  1  0
  2  3  2  0
  3  4  1  0
  4  5  1  0
  5  6  2  0
  5  7  1  0
  7  8  1  0
  8  9  1  0
  9  2  1  0
  1 10  1  0
  1 11  1  0
  1 12  1  0
  3 13  1  0
  4 14  1  0
  4 15  1  0
  7 16  1  0
  7 17  1  0
  8 18  1  0
  8 19  1  0
  9 20  1  0
  9 21  1  0
M  END
