
     RDKit          3D

 19 20  0  0  0  0  0  0  0  0999 V2000
    2.0556    0.8361   -0.2359 C   0  0  0  0  0  0  0  0  0  0  0  0
    0.5886    0.7290   -0.1017 C   0  0  0  0  0  0  0  0  0  0  0  0
   -0.3750    1.6588   -0.1346 C   0  0  0  0  0  0  0  0  0  0  0  0
   -1.6066    0.8636    0.1763 C   0  0  0  0  0  0  0  0  0  0  0  0
   -1.4314   -0.3113   -0.7706 C   0  0  0  0  0  0  0  0  0  0  0  0
   -0.2030   -0.5206    0.1149 C   0  0  0  0  0  0  0  0  0  0  0  0
    0.4395   -1.7998    0.1533 C   0  0  0  0  0  0  0  0  0  0  0  0
   -1.0943   -0.0698    1.2116 C   0  0  0  0  0  0  0  0  0  0  0  0
   -1.3290   -0.3010    2.3642 O   0  0  0  0  0  0  0  0  0  0  0  0
    2.4651   -0.1569   -0.4635 H   0  0  0  0  0  0  0  0  0  0  0  0
    2.5506    1.1822    0.7067 H   0  0  0  0  0  0  0  0  0  0  0  0
    2.3729    1.5529   -1.0175 H   0  0  0  0  0  0  0  0  0  0  0  0
   -0.2992    2.7206   -0.3338 H   0  0  0  0  0  0  0  0  0  0  0  0
   -2.5337    1.3343    0.2750 H   0  0  0  0  0  0  0  0  0  0  0  0
   -1.2258   -0.0387   -1.7994 H   0  0  0  0  0  0  0  0  0  0  0  0
   -2.1377   -1.1474   -0.5859 H   0  0  0  0  0  0  0  0  0  0  0  0
    1.5039   -1.7370    0.3973 H   0  0  0  0  0  0  0  0  0  0  0  0
   -0.1001   -2.4764    0.8737 H   0  0  0  0  0  0  0  0  0  0  0  0
    0.3596   -2.3186   -0.8303 H   0  0  0  0  0  0  0  0  0  0  0  0
  1  2  1  0
  2  3  2  0
  3  4  1  0
  4  5  1  0
  5  6  1  0
  6  7  1  0
  6  8  1  0
  8  9  2  0
  6  2  1  0
  8  4  1  0
  1 10  1  0
  1 11  1  0
  1 12  1  0
  3 13  1  0
  4 14  1  0
  5 15  1  0
  5 16  1  0
  7 17  1  0
  7 18  1  0
  7 19  1  0
M  END
