
     RDKit          3D

 19 20  0  0  0  0  0  0  0  0999 V2000
    2.4679   -0.3496    0.1984 C   0  0  0  0  0  0  0  0  0  0  0  0
    0.9997   -0.4020    0.0090 C   0  0  0  0  0  0  0  0  0  0  0  0
    0.3618   -1.2227   -0.8110 C   0  0  0  0  0  0  0  0  0  0  0  0
   -1.0945   -1.0185   -0.7625 C   0  0  0  0  0  0  0  0  0  0  0  0
   -1.3026   -0.2634    0.5097 C   0  0  0  0  0  0  0  0  0  0  0  0
   -1.9119    1.0818    0.3597 C   0  0  0  0  0  0  0  0  0  0  0  0
   -3.0167    1.5433    0.5268 O   0  0  0  0  0  0  0  0  0  0  0  0
   -0.5846    1.5855   -0.0759 C   0  0  0  0  0  0  0  0  0  0  0  0
    0.0257    0.4439    0.7025 C   0  0  0  0  0  0  0  0  0  0  0  0
    2.8343    0.6461   -0.0968 H   0  0  0  0  0  0  0  0  0  0  0  0
    2.6924   -0.4523    1.2935 H   0  0  0  0  0  0  0  0  0  0  0  0
    3.0025   -1.1771   -0.2969 H   0  0  0  0  0  0  0  0  0  0  0  0
    0.8302   -1.9755   -1.4616 H   0  0  0  0  0  0  0  0  0  0  0  0
   -1.4529   -0.4352   -1.6368 H   0  0  0  0  0  0  0  0  0  0  0  0
   -1.6687   -1.9661   -0.7001 H   0  0  0  0  0  0  0  0  0  0  0  0
   -1.6412   -0.8474    1.3874 H   0  0  0  0  0  0  0  0  0  0  0  0
   -0.2869    2.5662    0.2964 H   0  0  0  0  0  0  0  0  0  0  0  0
   -0.5017    1.4990   -1.1762 H   0  0  0  0  0  0  0  0  0  0  0  0
    0.2471    0.7440    1.7345 H   0  0  0  0  0  0  0  0  0  0  0  0
  1  2  1  0
  2  3  2  0
  3  4  1  0
  4  5  1  0
  5  6  1  0
  6  7  2  0
  6  8  1  0
  8  9  1  0
  9  2  1  0
  9  5  1  0
  1 10  1  0
  1 11  1  0
  1 12  1  0
  3 13  1  0
  4 14  1  0
  4 15  1  0
  5 16  1  0
  8 17  1  0
  8 18  1  0
  9 19  1  0
M  END
