
     RDKit          3D

 17 18  0  0  0  0  0  0  0  0999 V2000
    2.1738   -0.5164    0.1264 C   0  0  0  0  0  0  0  0  0  0  0  0
    0.6810   -0.4008    0.0442 C   0  0  0  0  0  0  0  0  0  0  0  0
   -0.2050   -1.2425    0.5886 C   0  0  0  0  0  0  0  0  0  0  0  0
   -1.5910   -0.7985    0.2929 C   0  0  0  0  0  0  0  0  0  0  0  0
   -1.4694    0.3793   -0.6237 C   0  0  0  0  0  0  0  0  0  0  0  0
   -1.6132    1.5994    0.0858 O   0  0  0  0  0  0  0  0  0  0  0  0
   -0.2672    1.9186    0.1065 C   0  0  0  0  0  0  0  0  0  0  0  0
    0.3493    2.8784    0.6122 O   0  0  0  0  0  0  0  0  0  0  0  0
    0.0062    0.6969   -0.6740 C   0  0  0  0  0  0  0  0  0  0  0  0
    2.5778   -1.0752   -0.7536 H   0  0  0  0  0  0  0  0  0  0  0  0
    2.4983   -0.9934    1.0729 H   0  0  0  0  0  0  0  0  0  0  0  0
    2.6452    0.5012    0.0779 H   0  0  0  0  0  0  0  0  0  0  0  0
    0.0366   -2.1138    1.1574 H   0  0  0  0  0  0  0  0  0  0  0  0
   -2.2173   -1.5903   -0.1272 H   0  0  0  0  0  0  0  0  0  0  0  0
   -2.0402   -0.4998    1.2737 H   0  0  0  0  0  0  0  0  0  0  0  0
   -1.9759    0.3264   -1.5898 H   0  0  0  0  0  0  0  0  0  0  0  0
    0.4111    0.9305   -1.6703 H   0  0  0  0  0  0  0  0  0  0  0  0
  1  2  1  0
  2  3  2  0
  3  4  1  0
  4  5  1  0
  5  6  1  0
  6  7  1  0
  7  8  2  0
  7  9  1  0
  9  2  1  0
  9  5  1  0
  1 10  1  0
  1 11  1  0
  1 12  1  0
  3 13  1  0
  4 14  1  0
  4 15  1  0
  5 16  1  0
  9 17  1  0
M  END
