
     RDKit          3D

 21 22  0  0  0  0  0  0  0  0999 V2000
   -2.9071    0.4929    0.1179 C   0  0  0  0  0  0  0  0  0  0  0  0
   -1.5414   -0.1192   -0.0165 C   0  0  0  0  0  0  0  0  0  0  0  0
   -1.0032   -1.0727    0.7302 C   0  0  0  0  0  0  0  0  0  0  0  0
    0.3745   -1.4183    0.2894 C   0  0  0  0  0  0  0  0  0  0  0  0
    1.3111   -0.9651    1.2066 O   0  0  0  0  0  0  0  0  0  0  0  0
    1.3628    0.2473    0.5306 C   0  0  0  0  0  0  0  0  0  0  0  0
    2.7741    0.6882    0.1947 C   0  0  0  0  0  0  0  0  0  0  0  0
    0.6929   -0.3116   -0.6832 C   0  0  0  0  0  0  0  0  0  0  0  0
   -0.6019    0.3193   -1.0746 C   0  0  0  0  0  0  0  0  0  0  0  0
   -3.4563    0.2524   -0.8119 H   0  0  0  0  0  0  0  0  0  0  0  0
   -3.4214    0.1586    1.0345 H   0  0  0  0  0  0  0  0  0  0  0  0
   -2.7798    1.5860    0.1679 H   0  0  0  0  0  0  0  0  0  0  0  0
   -1.4779   -1.5659    1.5694 H   0  0  0  0  0  0  0  0  0  0  0  0
    0.5365   -2.4340   -0.0669 H   0  0  0  0  0  0  0  0  0  0  0  0
    0.7995    1.0082    1.0986 H   0  0  0  0  0  0  0  0  0  0  0  0
    3.3164   -0.1838   -0.2370 H   0  0  0  0  0  0  0  0  0  0  0  0
    3.3146    0.9950    1.1253 H   0  0  0  0  0  0  0  0  0  0  0  0
    2.7164    1.5271   -0.5119 H   0  0  0  0  0  0  0  0  0  0  0  0
    1.3453   -0.5964   -1.5201 H   0  0  0  0  0  0  0  0  0  0  0  0
   -0.4588    1.4223   -1.0608 H   0  0  0  0  0  0  0  0  0  0  0  0
   -0.8965   -0.0305   -2.0821 H   0  0  0  0  0  0  0  0  0  0  0  0
  1  2  1  0
  2  3  2  0
  3  4  1  0
  4  5  1  0
  5  6  1  0
  6  7  1  0
  6  8  1  0
  8  9  1  0
  9  2  1  0
  8  4  1  0
  1 10  1  0
  1 11  1  0
  1 12  1  0
  3 13  1  0
  4 14  1  0
  6 15  1  0
  7 16  1  0
  7 17  1  0
  7 18  1  0
  8 19  1  0
  9 20  1  0
  9 21  1  0
M  END
