
     RDKit          3D

 16 16  0  0  0  0  0  0  0  0999 V2000
    2.1888    0.4992    0.1212 C   0  0  0  0  0  0  0  0  0  0  0  0
    0.7421    0.0993    0.0723 C   0  0  0  0  0  0  0  0  0  0  0  0
   -0.2356    0.9799    0.1363 C   0  0  0  0  0  0  0  0  0  0  0  0
   -1.5409    0.2691    0.0627 C   0  0  0  0  0  0  0  0  0  0  0  0
   -2.0136    0.3954   -1.2447 O   0  0  0  0  0  0  0  0  0  0  0  0
   -1.1769   -1.1203    0.3817 C   0  0  0  0  0  0  0  0  0  0  0  0
   -1.8686   -1.9630    0.8913 O   0  0  0  0  0  0  0  0  0  0  0  0
    0.2258   -1.2889   -0.0501 C   0  0  0  0  0  0  0  0  0  0  0  0
    2.5238    0.6334    1.1629 H   0  0  0  0  0  0  0  0  0  0  0  0
    2.7822   -0.2854   -0.3899 H   0  0  0  0  0  0  0  0  0  0  0  0
    2.2994    1.4603   -0.4219 H   0  0  0  0  0  0  0  0  0  0  0  0
   -0.1621    2.0690    0.2288 H   0  0  0  0  0  0  0  0  0  0  0  0
   -2.2111    0.7382    0.7894 H   0  0  0  0  0  0  0  0  0  0  0  0
   -2.6404    1.1708   -1.2351 H   0  0  0  0  0  0  0  0  0  0  0  0
    0.2941   -1.6629   -1.1001 H   0  0  0  0  0  0  0  0  0  0  0  0
    0.7931   -1.9942    0.5952 H   0  0  0  0  0  0  0  0  0  0  0  0
  1  2  1  0
  2  3  2  0
  3  4  1  0
  4  5  1  0
  4  6  1  0
  6  7  2  0
  6  8  1  0
  8  2  1  0
  1  9  1  0
  1 10  1  0
  1 11  1  0
  3 12  1  0
  4 13  1  0
  5 14  1  0
  8 15  1  0
  8 16  1  0
M  END
