
     RDKit          3D

 25 25  0  0  0  0  0  0  0  0999 V2000
    2.7684    0.3537    0.9754 C   0  0  0  0  0  0  0  0  0  0  0  0
    1.4399   -0.0269    0.3957 C   0  0  0  0  0  0  0  0  0  0  0  0
    0.3253    0.6419    0.6530 C   0  0  0  0  0  0  0  0  0  0  0  0
   -1.0044    0.3292    0.1242 C   0  0  0  0  0  0  0  0  0  0  0  0
   -1.6294    1.5906   -0.4787 C   0  0  0  0  0  0  0  0  0  0  0  0
   -1.9714   -0.1121    1.2313 C   0  0  0  0  0  0  0  0  0  0  0  0
   -0.9481   -0.7879   -0.8735 C   0  0  0  0  0  0  0  0  0  0  0  0
    0.3912   -0.8541   -1.5983 C   0  0  0  0  0  0  0  0  0  0  0  0
    1.4031   -1.2028   -0.4975 C   0  0  0  0  0  0  0  0  0  0  0  0
    3.3588    0.7847    0.1344 H   0  0  0  0  0  0  0  0  0  0  0  0
    3.2650   -0.6059    1.2463 H   0  0  0  0  0  0  0  0  0  0  0  0
    2.6655    1.0286    1.8277 H   0  0  0  0  0  0  0  0  0  0  0  0
    0.4479    1.5061    1.3304 H   0  0  0  0  0  0  0  0  0  0  0  0
   -1.9640    2.2273    0.3449 H   0  0  0  0  0  0  0  0  0  0  0  0
   -2.4868    1.3349   -1.1131 H   0  0  0  0  0  0  0  0  0  0  0  0
   -0.8885    2.1609   -1.0691 H   0  0  0  0  0  0  0  0  0  0  0  0
   -2.0299   -1.2287    1.2551 H   0  0  0  0  0  0  0  0  0  0  0  0
   -1.6333    0.2084    2.2231 H   0  0  0  0  0  0  0  0  0  0  0  0
   -3.0078    0.2305    0.9837 H   0  0  0  0  0  0  0  0  0  0  0  0
   -0.9995   -1.7472   -0.2783 H   0  0  0  0  0  0  0  0  0  0  0  0
   -1.7882   -0.7926   -1.5783 H   0  0  0  0  0  0  0  0  0  0  0  0
    0.6432    0.1429   -2.0290 H   0  0  0  0  0  0  0  0  0  0  0  0
    0.3129   -1.6470   -2.3488 H   0  0  0  0  0  0  0  0  0  0  0  0
    0.9477   -2.0593    0.0598 H   0  0  0  0  0  0  0  0  0  0  0  0
    2.3821   -1.4753   -0.9204 H   0  0  0  0  0  0  0  0  0  0  0  0
  1  2  1  0
  2  3  2  0
  3  4  1  0
  4  5  1  0
  4  6  1  0
  4  7  1  0
  7  8  1  0
  8  9  1  0
  9  2  1  0
  1 10  1  0
  1 11  1  0
  1 12  1  0
  3 13  1  0
  5 14  1  0
  5 15  1  0
  5 16  1  0
  6 17  1  0
  6 18  1  0
  6 19  1  0
  7 20  1  0
  7 21  1  0
  8 22  1  0
  8 23  1  0
  9 24  1  0
  9 25  1  0
M  END
