
     RDKit          3D

 21 21  0  0  0  0  0  0  0  0999 V2000
   -2.7037    0.4543    0.5669 C   0  0  0  0  0  0  0  0  0  0  0  0
   -1.3210    0.1339    0.0801 C   0  0  0  0  0  0  0  0  0  0  0  0
   -0.2438    0.5508    0.7476 C   0  0  0  0  0  0  0  0  0  0  0  0
    0.9905    0.1000    0.0545 C   0  0  0  0  0  0  0  0  0  0  0  0
    1.6663   -1.0070    0.8403 C   0  0  0  0  0  0  0  0  0  0  0  0
    1.9209    1.2613   -0.0463 C   0  0  0  0  0  0  0  0  0  0  0  0
    3.0914    1.0485   -0.3293 O   0  0  0  0  0  0  0  0  0  0  0  0
    0.5383   -0.3290   -1.2973 C   0  0  0  0  0  0  0  0  0  0  0  0
   -0.9227   -0.6335   -1.1203 C   0  0  0  0  0  0  0  0  0  0  0  0
   -2.7299    1.5410    0.8463 H   0  0  0  0  0  0  0  0  0  0  0  0
   -3.4644    0.1972   -0.1943 H   0  0  0  0  0  0  0  0  0  0  0  0
   -2.8663   -0.0932    1.5197 H   0  0  0  0  0  0  0  0  0  0  0  0
   -0.1980    1.1393    1.6721 H   0  0  0  0  0  0  0  0  0  0  0  0
    0.9804   -1.2986    1.6861 H   0  0  0  0  0  0  0  0  0  0  0  0
    2.6114   -0.6725    1.2915 H   0  0  0  0  0  0  0  0  0  0  0  0
    1.8129   -1.9266    0.2384 H   0  0  0  0  0  0  0  0  0  0  0  0
    1.5917    2.2839    0.1231 H   0  0  0  0  0  0  0  0  0  0  0  0
    0.7402    0.4681   -2.0362 H   0  0  0  0  0  0  0  0  0  0  0  0
    1.0768   -1.2358   -1.6181 H   0  0  0  0  0  0  0  0  0  0  0  0
   -1.5004   -0.2567   -2.0090 H   0  0  0  0  0  0  0  0  0  0  0  0
   -1.0706   -1.7253   -1.0157 H   0  0  0  0  0  0  0  0  0  0  0  0
  1  2  1  0
  2  3  2  0
  3  4  1  0
  4  5  1  0
  4  6  1  0
  6  7  2  0
  4  8  1  0
  8  9  1  0
  9  2  1  0
  1 10  1  0
  1 11  1  0
  1 12  1  0
  3 13  1  0
  5 14  1  0
  5 15  1  0
  5 16  1  0
  6 17  1  0
  8 18  1  0
  8 19  1  0
  9 20  1  0
  9 21  1  0
M  END
