
     RDKit          3D

 23 24  0  0  0  0  0  0  0  0999 V2000
    2.6312    0.5772   -0.0815 C   0  0  0  0  0  0  0  0  0  0  0  0
    1.3342   -0.0987    0.1042 C   0  0  0  0  0  0  0  0  0  0  0  0
    1.1483   -1.2648    0.6900 C   0  0  0  0  0  0  0  0  0  0  0  0
   -0.2773   -1.6449    0.7045 C   0  0  0  0  0  0  0  0  0  0  0  0
   -0.9901   -0.6305   -0.1101 C   0  0  0  0  0  0  0  0  0  0  0  0
   -2.3963   -0.3157    0.3047 C   0  0  0  0  0  0  0  0  0  0  0  0
   -0.5902   -0.2587   -1.4800 C   0  0  0  0  0  0  0  0  0  0  0  0
    0.0204    0.4230   -0.3399 C   0  0  0  0  0  0  0  0  0  0  0  0
   -0.2804    1.8548    0.0127 C   0  0  0  0  0  0  0  0  0  0  0  0
    2.5536    1.5432   -0.6058 H   0  0  0  0  0  0  0  0  0  0  0  0
    3.3514   -0.0361   -0.6784 H   0  0  0  0  0  0  0  0  0  0  0  0
    3.1522    0.7847    0.8782 H   0  0  0  0  0  0  0  0  0  0  0  0
    1.9243   -1.9170    1.1314 H   0  0  0  0  0  0  0  0  0  0  0  0
   -0.4541   -2.6844    0.3674 H   0  0  0  0  0  0  0  0  0  0  0  0
   -0.6372   -1.5333    1.7697 H   0  0  0  0  0  0  0  0  0  0  0  0
   -2.5465    0.7758    0.3637 H   0  0  0  0  0  0  0  0  0  0  0  0
   -2.6470   -0.7595    1.2832 H   0  0  0  0  0  0  0  0  0  0  0  0
   -3.0724   -0.7459   -0.4728 H   0  0  0  0  0  0  0  0  0  0  0  0
   -1.3175    0.2978   -2.0801 H   0  0  0  0  0  0  0  0  0  0  0  0
    0.0336   -0.9535   -2.1064 H   0  0  0  0  0  0  0  0  0  0  0  0
    0.5189    2.4790   -0.4026 H   0  0  0  0  0  0  0  0  0  0  0  0
   -1.2456    2.1695   -0.3751 H   0  0  0  0  0  0  0  0  0  0  0  0
   -0.2133    1.9381    1.1232 H   0  0  0  0  0  0  0  0  0  0  0  0
  1  2  1  0
  2  3  2  0
  3  4  1  0
  4  5  1  0
  5  6  1  0
  5  7  1  0
  7  8  1  0
  8  9  1  0
  8  2  1  0
  8  5  1  0
  1 10  1  0
  1 11  1  0
  1 12  1  0
  3 13  1  0
  4 14  1  0
  4 15  1  0
  6 16  1  0
  6 17  1  0
  6 18  1  0
  7 19  1  0
  7 20  1  0
  9 21  1  0
  9 22  1  0
  9 23  1  0
M  END
