
     RDKit          3D

 23 23  0  0  0  0  0  0  0  0999 V2000
    2.5551    0.3687   -0.1168 C   0  0  0  0  0  0  0  0  0  0  0  0
    1.1750   -0.1443    0.0204 C   0  0  0  0  0  0  0  0  0  0  0  0
    0.0877    0.5762    0.1228 C   0  0  0  0  0  0  0  0  0  0  0  0
    0.0234    2.0588    0.1216 C   0  0  0  0  0  0  0  0  0  0  0  0
   -1.1287   -0.3030    0.2459 C   0  0  0  0  0  0  0  0  0  0  0  0
   -2.1653    0.1426   -0.7688 C   0  0  0  0  0  0  0  0  0  0  0  0
   -1.7086   -0.1797    1.4965 O   0  0  0  0  0  0  0  0  0  0  0  0
   -0.6684   -1.6837   -0.0769 C   0  0  0  0  0  0  0  0  0  0  0  0
    0.8273   -1.6105    0.0618 C   0  0  0  0  0  0  0  0  0  0  0  0
    2.6895    1.0231   -1.0041 H   0  0  0  0  0  0  0  0  0  0  0  0
    3.2933   -0.4564   -0.2364 H   0  0  0  0  0  0  0  0  0  0  0  0
    2.8663    0.9082    0.8252 H   0  0  0  0  0  0  0  0  0  0  0  0
    0.4983    2.4725   -0.7952 H   0  0  0  0  0  0  0  0  0  0  0  0
    0.5070    2.4439    1.0440 H   0  0  0  0  0  0  0  0  0  0  0  0
   -1.0138    2.4384    0.1309 H   0  0  0  0  0  0  0  0  0  0  0  0
   -2.9153   -0.6631   -0.8285 H   0  0  0  0  0  0  0  0  0  0  0  0
   -1.7102    0.4009   -1.7422 H   0  0  0  0  0  0  0  0  0  0  0  0
   -2.6440    1.0567   -0.3528 H   0  0  0  0  0  0  0  0  0  0  0  0
   -1.0846   -0.3163    2.2371 H   0  0  0  0  0  0  0  0  0  0  0  0
   -1.1343   -2.4512    0.5733 H   0  0  0  0  0  0  0  0  0  0  0  0
   -0.8939   -1.9584   -1.1447 H   0  0  0  0  0  0  0  0  0  0  0  0
    1.3476   -2.0673   -0.8156 H   0  0  0  0  0  0  0  0  0  0  0  0
    1.1964   -2.0560    1.0024 H   0  0  0  0  0  0  0  0  0  0  0  0
  1  2  1  0
  2  3  2  0
  3  4  1  0
  3  5  1  0
  5  6  1  0
  5  7  1  0
  5  8  1  0
  8  9  1  0
  9  2  1  0
  1 10  1  0
  1 11  1  0
  1 12  1  0
  4 13  1  0
  4 14  1  0
  4 15  1  0
  6 16  1  0
  6 17  1  0
  6 18  1  0
  7 19  1  0
  8 20  1  0
  8 21  1  0
  9 22  1  0
  9 23  1  0
M  END
