
     RDKit          3D

 21 21  0  0  0  0  0  0  0  0999 V2000
    2.8673   -0.2912   -0.3055 C   0  0  0  0  0  0  0  0  0  0  0  0
    1.4215   -0.2562   -0.0433 C   0  0  0  0  0  0  0  0  0  0  0  0
    0.8294    0.9166    0.1767 C   0  0  0  0  0  0  0  0  0  0  0  0
   -0.6397    0.8716    0.4354 C   0  0  0  0  0  0  0  0  0  0  0  0
   -1.1638    2.1451    0.1316 O   0  0  0  0  0  0  0  0  0  0  0  0
   -1.2612   -0.1060   -0.4924 C   0  0  0  0  0  0  0  0  0  0  0  0
   -2.7324   -0.2516   -0.0900 C   0  0  0  0  0  0  0  0  0  0  0  0
   -0.6537   -1.3175   -0.5980 O   0  0  0  0  0  0  0  0  0  0  0  0
    0.5621   -1.4594   -0.0062 C   0  0  0  0  0  0  0  0  0  0  0  0
    3.1320   -1.2788   -0.7736 H   0  0  0  0  0  0  0  0  0  0  0  0
    3.4552   -0.2704    0.6520 H   0  0  0  0  0  0  0  0  0  0  0  0
    3.2341    0.5550   -0.9021 H   0  0  0  0  0  0  0  0  0  0  0  0
    1.4167    1.8167    0.1590 H   0  0  0  0  0  0  0  0  0  0  0  0
   -0.7992    0.6373    1.5025 H   0  0  0  0  0  0  0  0  0  0  0  0
   -0.6395    2.8132    0.6385 H   0  0  0  0  0  0  0  0  0  0  0  0
   -1.2795    0.3640   -1.5186 H   0  0  0  0  0  0  0  0  0  0  0  0
   -3.0433   -1.3094   -0.1741 H   0  0  0  0  0  0  0  0  0  0  0  0
   -3.3969    0.3322   -0.7446 H   0  0  0  0  0  0  0  0  0  0  0  0
   -2.8893    0.1355    0.9528 H   0  0  0  0  0  0  0  0  0  0  0  0
    0.4575   -1.7752    1.0546 H   0  0  0  0  0  0  0  0  0  0  0  0
    1.1226   -2.2716   -0.5464 H   0  0  0  0  0  0  0  0  0  0  0  0
  1  2  1  0
  2  3  2  0
  3  4  1  0
  4  5  1  0
  4  6  1  0
  6  7  1  0
  6  8  1  0
  8  9  1  0
  9  2  1  0
  1 10  1  0
  1 11  1  0
  1 12  1  0
  3 13  1  0
  4 14  1  0
  5 15  1  0
  6 16  1  0
  7 17  1  0
  7 18  1  0
  7 19  1  0
  9 20  1  0
  9 21  1  0
M  END
