
     RDKit          3D

 23 23  0  0  0  0  0  0  0  0999 V2000
   -2.1761   -1.3810   -0.3476 C   0  0  0  0  0  0  0  0  0  0  0  0
   -0.9433   -0.5947   -0.0798 C   0  0  0  0  0  0  0  0  0  0  0  0
    0.2434   -0.8140   -0.6366 C   0  0  0  0  0  0  0  0  0  0  0  0
    1.2420    0.1814   -0.1207 C   0  0  0  0  0  0  0  0  0  0  0  0
    2.0860    0.5897   -1.3027 C   0  0  0  0  0  0  0  0  0  0  0  0
    2.0455   -0.5036    0.9457 C   0  0  0  0  0  0  0  0  0  0  0  0
    0.4376    1.1959    0.3432 O   0  0  0  0  0  0  0  0  0  0  0  0
   -0.7328    0.5710    0.8255 C   0  0  0  0  0  0  0  0  0  0  0  0
   -1.8507    1.5734    0.6185 C   0  0  0  0  0  0  0  0  0  0  0  0
   -2.8358   -0.8913   -1.0907 H   0  0  0  0  0  0  0  0  0  0  0  0
   -1.8859   -2.3739   -0.7677 H   0  0  0  0  0  0  0  0  0  0  0  0
   -2.7034   -1.6021    0.6020 H   0  0  0  0  0  0  0  0  0  0  0  0
    0.4578   -1.6017   -1.3612 H   0  0  0  0  0  0  0  0  0  0  0  0
    2.9055    1.2753   -1.0411 H   0  0  0  0  0  0  0  0  0  0  0  0
    1.4077    1.0199   -2.0594 H   0  0  0  0  0  0  0  0  0  0  0  0
    2.4976   -0.3447   -1.7368 H   0  0  0  0  0  0  0  0  0  0  0  0
    1.5406   -1.4438    1.3017 H   0  0  0  0  0  0  0  0  0  0  0  0
    3.0750   -0.7788    0.5972 H   0  0  0  0  0  0  0  0  0  0  0  0
    2.1233    0.1649    1.8099 H   0  0  0  0  0  0  0  0  0  0  0  0
   -0.6593    0.3034    1.8785 H   0  0  0  0  0  0  0  0  0  0  0  0
   -1.7864    1.8934   -0.4612 H   0  0  0  0  0  0  0  0  0  0  0  0
   -1.6347    2.4257    1.2965 H   0  0  0  0  0  0  0  0  0  0  0  0
   -2.8536    1.1356    0.7866 H   0  0  0  0  0  0  0  0  0  0  0  0
  1  2  1  0
  2  3  2  0
  3  4  1  0
  4  5  1  0
  4  6  1  0
  4  7  1  0
  7  8  1  0
  8  9  1  0
  8  2  1  0
  1 10  1  0
  1 11  1  0
  1 12  1  0
  3 13  1  0
  5 14  1  0
  5 15  1  0
  5 16  1  0
  6 17  1  0
  6 18  1  0
  6 19  1  0
  8 20  1  0
  9 21  1  0
  9 22  1  0
  9 23  1  0
M  END
