
     RDKit          3D

 19 19  0  0  0  0  0  0  0  0999 V2000
   -2.4174   -0.8470    0.2876 C   0  0  0  0  0  0  0  0  0  0  0  0
   -1.1012   -0.1535    0.2181 C   0  0  0  0  0  0  0  0  0  0  0  0
    0.0561   -0.7587    0.4686 C   0  0  0  0  0  0  0  0  0  0  0  0
    1.2826    0.0946    0.3507 C   0  0  0  0  0  0  0  0  0  0  0  0
    2.4375   -0.7967    0.2672 C   0  0  0  0  0  0  0  0  0  0  0  0
    2.3517   -1.8655   -0.2943 O   0  0  0  0  0  0  0  0  0  0  0  0
    1.1540    0.8615   -0.9409 C   0  0  0  0  0  0  0  0  0  0  0  0
   -0.0810    1.3882   -1.1735 O   0  0  0  0  0  0  0  0  0  0  0  0
   -0.9811    1.2881   -0.1419 C   0  0  0  0  0  0  0  0  0  0  0  0
   -3.1983   -0.1397   -0.0585 H   0  0  0  0  0  0  0  0  0  0  0  0
   -2.6195   -1.2500    1.3050 H   0  0  0  0  0  0  0  0  0  0  0  0
   -2.4668   -1.7236   -0.3966 H   0  0  0  0  0  0  0  0  0  0  0  0
    0.0701   -1.7988    0.7366 H   0  0  0  0  0  0  0  0  0  0  0  0
    1.3403    0.8382    1.1687 H   0  0  0  0  0  0  0  0  0  0  0  0
    3.3793   -0.5219    0.7002 H   0  0  0  0  0  0  0  0  0  0  0  0
    1.9060    1.6881   -0.9862 H   0  0  0  0  0  0  0  0  0  0  0  0
    1.4138    0.1391   -1.7634 H   0  0  0  0  0  0  0  0  0  0  0  0
   -0.5739    1.8768    0.7135 H   0  0  0  0  0  0  0  0  0  0  0  0
   -1.9521    1.6809   -0.4607 H   0  0  0  0  0  0  0  0  0  0  0  0
  1  2  1  0
  2  3  2  0
  3  4  1  0
  4  5  1  0
  5  6  2  0
  4  7  1  0
  7  8  1  0
  8  9  1  0
  9  2  1  0
  1 10  1  0
  1 11  1  0
  1 12  1  0
  3 13  1  0
  4 14  1  0
  5 15  1  0
  7 16  1  0
  7 17  1  0
  9 18  1  0
  9 19  1  0
M  END
