
     RDKit          3D

 19 20  0  0  0  0  0  0  0  0999 V2000
    2.5000    0.2841    0.3596 C   0  0  0  0  0  0  0  0  0  0  0  0
    1.0369    0.0547    0.2177 C   0  0  0  0  0  0  0  0  0  0  0  0
    0.1680    0.8726    0.7690 C   0  0  0  0  0  0  0  0  0  0  0  0
   -1.2917    0.7238    0.6808 C   0  0  0  0  0  0  0  0  0  0  0  0
   -1.8317    0.8848   -0.7424 C   0  0  0  0  0  0  0  0  0  0  0  0
   -1.8244   -0.4150   -0.0597 C   0  0  0  0  0  0  0  0  0  0  0  0
   -0.8260   -1.4660   -0.3784 C   0  0  0  0  0  0  0  0  0  0  0  0
   -1.1806   -2.6313   -0.4901 O   0  0  0  0  0  0  0  0  0  0  0  0
    0.5844   -1.1184   -0.5609 C   0  0  0  0  0  0  0  0  0  0  0  0
    2.8650    1.0673   -0.3508 H   0  0  0  0  0  0  0  0  0  0  0  0
    2.7593    0.6509    1.3876 H   0  0  0  0  0  0  0  0  0  0  0  0
    3.1050   -0.6096    0.1773 H   0  0  0  0  0  0  0  0  0  0  0  0
    0.5494    1.7177    1.3286 H   0  0  0  0  0  0  0  0  0  0  0  0
   -1.8903    1.1697    1.5018 H   0  0  0  0  0  0  0  0  0  0  0  0
   -1.1214    1.1417   -1.5549 H   0  0  0  0  0  0  0  0  0  0  0  0
   -2.8064    1.4218   -0.8668 H   0  0  0  0  0  0  0  0  0  0  0  0
   -2.8301   -0.7910    0.2753 H   0  0  0  0  0  0  0  0  0  0  0  0
    0.7804   -0.9860   -1.6626 H   0  0  0  0  0  0  0  0  0  0  0  0
    1.2544   -1.9717   -0.2591 H   0  0  0  0  0  0  0  0  0  0  0  0
  1  2  1  0
  2  3  2  0
  3  4  1  0
  4  5  1  0
  5  6  1  0
  6  7  1  0
  7  8  2  0
  7  9  1  0
  9  2  1  0
  6  4  1  0
  1 10  1  0
  1 11  1  0
  1 12  1  0
  3 13  1  0
  4 14  1  0
  5 15  1  0
  5 16  1  0
  6 17  1  0
  9 18  1  0
  9 19  1  0
M  END
