
     RDKit          3D

 20 20  0  0  0  0  0  0  0  0999 V2000
    2.2233    0.8736    0.0356 C   0  0  0  0  0  0  0  0  0  0  0  0
    1.0169    0.0046   -0.0225 C   0  0  0  0  0  0  0  0  0  0  0  0
    0.9768   -1.1884   -0.5948 C   0  0  0  0  0  0  0  0  0  0  0  0
   -0.3847   -1.7464   -0.4551 C   0  0  0  0  0  0  0  0  0  0  0  0
   -0.9302   -1.0500    0.7638 C   0  0  0  0  0  0  0  0  0  0  0  0
   -0.3018    0.3406    0.5585 C   0  0  0  0  0  0  0  0  0  0  0  0
   -1.1756    1.0713   -0.4158 C   0  0  0  0  0  0  0  0  0  0  0  0
   -2.4158    1.3951    0.1092 O   0  0  0  0  0  0  0  0  0  0  0  0
    2.0257    1.9076   -0.2632 H   0  0  0  0  0  0  0  0  0  0  0  0
    2.6319    0.7851    1.0785 H   0  0  0  0  0  0  0  0  0  0  0  0
    3.0245    0.4786   -0.6226 H   0  0  0  0  0  0  0  0  0  0  0  0
    1.8289   -1.6667   -1.0876 H   0  0  0  0  0  0  0  0  0  0  0  0
   -1.0223   -1.4869   -1.3242 H   0  0  0  0  0  0  0  0  0  0  0  0
   -0.2979   -2.8436   -0.3152 H   0  0  0  0  0  0  0  0  0  0  0  0
   -0.5698   -1.5023    1.7177 H   0  0  0  0  0  0  0  0  0  0  0  0
   -2.0378   -0.9742    0.7256 H   0  0  0  0  0  0  0  0  0  0  0  0
   -0.2656    0.8028    1.5405 H   0  0  0  0  0  0  0  0  0  0  0  0
   -0.6815    2.0269   -0.6988 H   0  0  0  0  0  0  0  0  0  0  0  0
   -1.3499    0.5185   -1.3522 H   0  0  0  0  0  0  0  0  0  0  0  0
   -2.2951    2.2537    0.6225 H   0  0  0  0  0  0  0  0  0  0  0  0
  1  2  1  0
  2  3  2  0
  3  4  1  0
  4  5  1  0
  5  6  1  0
  6  7  1  0
  7  8  1  0
  6  2  1  0
  1  9  1  0
  1 10  1  0
  1 11  1  0
  3 12  1  0
  4 13  1  0
  4 14  1  0
  5 15  1  0
  5 16  1  0
  6 17  1  0
  7 18  1  0
  7 19  1  0
  8 20  1  0
M  END
