
     RDKit          3D

 23 23  0  0  0  0  0  0  0  0999 V2000
    2.7765   -0.6692   -0.3763 C   0  0  0  0  0  0  0  0  0  0  0  0
    1.4126   -0.0788   -0.4276 C   0  0  0  0  0  0  0  0  0  0  0  0
    1.3200    1.2286   -0.6200 C   0  0  0  0  0  0  0  0  0  0  0  0
   -0.0082    1.8822   -0.6817 C   0  0  0  0  0  0  0  0  0  0  0  0
   -0.9961    1.0827    0.1500 C   0  0  0  0  0  0  0  0  0  0  0  0
   -1.0628   -0.2991   -0.4577 C   0  0  0  0  0  0  0  0  0  0  0  0
   -2.1180   -1.1512    0.2446 C   0  0  0  0  0  0  0  0  0  0  0  0
   -1.4139   -0.1504   -1.7910 O   0  0  0  0  0  0  0  0  0  0  0  0
    0.2547   -0.9694   -0.2637 C   0  0  0  0  0  0  0  0  0  0  0  0
    3.2623   -0.5476   -1.3510 H   0  0  0  0  0  0  0  0  0  0  0  0
    3.3180   -0.1762    0.4610 H   0  0  0  0  0  0  0  0  0  0  0  0
    2.7621   -1.7494   -0.1410 H   0  0  0  0  0  0  0  0  0  0  0  0
    2.1888    1.8757   -0.7398 H   0  0  0  0  0  0  0  0  0  0  0  0
   -0.3304    1.9287   -1.7434 H   0  0  0  0  0  0  0  0  0  0  0  0
   -0.0081    2.9020   -0.2891 H   0  0  0  0  0  0  0  0  0  0  0  0
   -1.9592    1.6243    0.0966 H   0  0  0  0  0  0  0  0  0  0  0  0
   -0.5869    1.0149    1.1805 H   0  0  0  0  0  0  0  0  0  0  0  0
   -1.6303   -1.8936    0.9400 H   0  0  0  0  0  0  0  0  0  0  0  0
   -2.6177   -1.7655   -0.5301 H   0  0  0  0  0  0  0  0  0  0  0  0
   -2.7999   -0.5596    0.8534 H   0  0  0  0  0  0  0  0  0  0  0  0
   -2.4022   -0.3119   -1.9158 H   0  0  0  0  0  0  0  0  0  0  0  0
    0.3527   -1.8652   -0.9086 H   0  0  0  0  0  0  0  0  0  0  0  0
    0.2860   -1.3518    0.7986 H   0  0  0  0  0  0  0  0  0  0  0  0
  1  2  1  0
  2  3  2  0
  3  4  1  0
  4  5  1  0
  5  6  1  0
  6  7  1  0
  6  8  1  0
  6  9  1  0
  9  2  1  0
  1 10  1  0
  1 11  1  0
  1 12  1  0
  3 13  1  0
  4 14  1  0
  4 15  1  0
  5 16  1  0
  5 17  1  0
  7 18  1  0
  7 19  1  0
  7 20  1  0
  8 21  1  0
  9 22  1  0
  9 23  1  0
M  END
