
     RDKit          3D

 19 20  0  0  0  0  0  0  0  0999 V2000
   -1.8726   -1.3393   -0.7014 C   0  0  0  0  0  0  0  0  0  0  0  0
   -0.9124   -0.3892   -0.0911 C   0  0  0  0  0  0  0  0  0  0  0  0
   -1.2219    0.9239    0.0314 C   0  0  0  0  0  0  0  0  0  0  0  0
   -0.3094    1.9145    0.6288 C   0  0  0  0  0  0  0  0  0  0  0  0
    1.0251    1.4912    0.7284 O   0  0  0  0  0  0  0  0  0  0  0  0
    1.2165    0.5213   -0.1824 C   0  0  0  0  0  0  0  0  0  0  0  0
    1.6890   -0.8090   -0.1293 C   0  0  0  0  0  0  0  0  0  0  0  0
    2.7752   -1.0800    0.7367 O   0  0  0  0  0  0  0  0  0  0  0  0
    0.4088   -0.6821    0.4318 C   0  0  0  0  0  0  0  0  0  0  0  0
   -2.5727   -1.6480    0.1157 H   0  0  0  0  0  0  0  0  0  0  0  0
   -1.3124   -2.2410   -1.0390 H   0  0  0  0  0  0  0  0  0  0  0  0
   -2.4218   -0.8969   -1.5468 H   0  0  0  0  0  0  0  0  0  0  0  0
   -2.1832    1.3183   -0.3149 H   0  0  0  0  0  0  0  0  0  0  0  0
   -0.2796    2.7810   -0.0965 H   0  0  0  0  0  0  0  0  0  0  0  0
   -0.6793    2.3526    1.5762 H   0  0  0  0  0  0  0  0  0  0  0  0
    0.8852    0.8788   -1.2040 H   0  0  0  0  0  0  0  0  0  0  0  0
    1.8247   -1.3866   -1.0748 H   0  0  0  0  0  0  0  0  0  0  0  0
    3.5909   -1.0067    0.2008 H   0  0  0  0  0  0  0  0  0  0  0  0
    0.3496   -0.7028    1.5650 H   0  0  0  0  0  0  0  0  0  0  0  0
  1  2  1  0
  2  3  2  0
  3  4  1  0
  4  5  1  0
  5  6  1  0
  6  7  1  0
  7  8  1  0
  7  9  1  0
  9  2  1  0
  9  6  1  0
  1 10  1  0
  1 11  1  0
  1 12  1  0
  3 13  1  0
  4 14  1  0
  4 15  1  0
  6 16  1  0
  7 17  1  0
  8 18  1  0
  9 19  1  0
M  END
