
     RDKit          3D

 23 24  0  0  0  0  0  0  0  0999 V2000
    0.4638   -2.0492    0.6051 C   0  0  0  0  0  0  0  0  0  0  0  0
    0.1238   -0.6489    0.2364 C   0  0  0  0  0  0  0  0  0  0  0  0
   -1.0550   -0.2515   -0.1945 C   0  0  0  0  0  0  0  0  0  0  0  0
   -2.2402   -1.1454   -0.3818 C   0  0  0  0  0  0  0  0  0  0  0  0
   -1.0718    1.2108   -0.4776 C   0  0  0  0  0  0  0  0  0  0  0  0
   -0.7345    2.1836    0.5918 C   0  0  0  0  0  0  0  0  0  0  0  0
    0.3301    1.6183   -0.2928 C   0  0  0  0  0  0  0  0  0  0  0  0
    1.0888    0.4706    0.3144 C   0  0  0  0  0  0  0  0  0  0  0  0
    2.3718    0.1805   -0.4242 C   0  0  0  0  0  0  0  0  0  0  0  0
    0.1325   -2.7456   -0.2199 H   0  0  0  0  0  0  0  0  0  0  0  0
   -0.0577   -2.3916    1.5167 H   0  0  0  0  0  0  0  0  0  0  0  0
    1.5457   -2.1974    0.7311 H   0  0  0  0  0  0  0  0  0  0  0  0
   -2.5059   -1.6526    0.5810 H   0  0  0  0  0  0  0  0  0  0  0  0
   -2.0715   -1.9321   -1.1209 H   0  0  0  0  0  0  0  0  0  0  0  0
   -3.1401   -0.5723   -0.6723 H   0  0  0  0  0  0  0  0  0  0  0  0
   -1.6756    1.5626   -1.3359 H   0  0  0  0  0  0  0  0  0  0  0  0
   -0.9964    3.2347    0.3755 H   0  0  0  0  0  0  0  0  0  0  0  0
   -0.7851    1.9231    1.6562 H   0  0  0  0  0  0  0  0  0  0  0  0
    0.7790    2.2226   -1.1003 H   0  0  0  0  0  0  0  0  0  0  0  0
    1.3010    0.6541    1.3794 H   0  0  0  0  0  0  0  0  0  0  0  0
    2.2675   -0.6380   -1.1577 H   0  0  0  0  0  0  0  0  0  0  0  0
    2.7749    1.0929   -0.9196 H   0  0  0  0  0  0  0  0  0  0  0  0
    3.1549   -0.1290    0.3098 H   0  0  0  0  0  0  0  0  0  0  0  0
  1  2  1  0
  2  3  2  0
  3  4  1  0
  3  5  1  0
  5  6  1  0
  6  7  1  0
  7  8  1  0
  8  9  1  0
  8  2  1  0
  7  5  1  0
  1 10  1  0
  1 11  1  0
  1 12  1  0
  4 13  1  0
  4 14  1  0
  4 15  1  0
  5 16  1  0
  6 17  1  0
  6 18  1  0
  7 19  1  0
  8 20  1  0
  9 21  1  0
  9 22  1  0
  9 23  1  0
M  END
