
     RDKit          3D

 19 21  0  0  0  0  0  0  0  0999 V2000
   -1.8480   -1.4837   -0.0300 C   0  0  0  0  0  0  0  0  0  0  0  0
   -0.6049   -0.6240    0.0366 C   0  0  0  0  0  0  0  0  0  0  0  0
   -0.6911    0.6750    0.0290 C   0  0  0  0  0  0  0  0  0  0  0  0
   -1.0726    2.1505    0.0075 C   0  0  0  0  0  0  0  0  0  0  0  0
    0.2557    2.3109    0.5648 O   0  0  0  0  0  0  0  0  0  0  0  0
    0.7163    1.2124   -0.1225 C   0  0  0  0  0  0  0  0  0  0  0  0
    1.5170    0.1434    0.4991 C   0  0  0  0  0  0  0  0  0  0  0  0
    1.9608   -0.8956   -0.4834 C   0  0  0  0  0  0  0  0  0  0  0  0
    0.7244   -1.1864    0.2101 C   0  0  0  0  0  0  0  0  0  0  0  0
   -1.6225   -2.5251   -0.2390 H   0  0  0  0  0  0  0  0  0  0  0  0
   -2.5498   -1.0318   -0.7909 H   0  0  0  0  0  0  0  0  0  0  0  0
   -2.3620   -1.3208    0.9462 H   0  0  0  0  0  0  0  0  0  0  0  0
   -1.8635    2.4353    0.7027 H   0  0  0  0  0  0  0  0  0  0  0  0
   -1.1684    2.4798   -1.0140 H   0  0  0  0  0  0  0  0  0  0  0  0
    0.9560    1.4478   -1.1941 H   0  0  0  0  0  0  0  0  0  0  0  0
    1.9503    0.2065    1.4952 H   0  0  0  0  0  0  0  0  0  0  0  0
    2.0428   -0.6018   -1.5338 H   0  0  0  0  0  0  0  0  0  0  0  0
    2.8742   -1.4473   -0.1373 H   0  0  0  0  0  0  0  0  0  0  0  0
    0.7853   -1.9450    1.0537 H   0  0  0  0  0  0  0  0  0  0  0  0
  1  2  1  0
  2  3  2  0
  3  4  1  0
  4  5  1  0
  5  6  1  0
  6  7  1  0
  7  8  1  0
  8  9  1  0
  9  2  1  0
  6  3  1  0
  9  7  1  0
  1 10  1  0
  1 11  1  0
  1 12  1  0
  4 13  1  0
  4 14  1  0
  6 15  1  0
  7 16  1  0
  8 17  1  0
  8 18  1  0
  9 19  1  0
M  END
