
     RDKit          3D

 21 22  0  0  0  0  0  0  0  0999 V2000
    2.5153    0.3824   -0.9218 C   0  0  0  0  0  0  0  0  0  0  0  0
    1.3760    0.1405    0.0046 C   0  0  0  0  0  0  0  0  0  0  0  0
    0.2504   -0.4745   -0.2980 C   0  0  0  0  0  0  0  0  0  0  0  0
   -0.8875   -1.2054   -0.9613 C   0  0  0  0  0  0  0  0  0  0  0  0
   -1.7524   -0.5992    0.1517 C   0  0  0  0  0  0  0  0  0  0  0  0
   -2.1809    0.7895   -0.2990 C   0  0  0  0  0  0  0  0  0  0  0  0
   -0.5357   -0.5022    1.0099 C   0  0  0  0  0  0  0  0  0  0  0  0
   -0.1668    0.6875    1.5695 O   0  0  0  0  0  0  0  0  0  0  0  0
    1.2548    0.5674    1.4540 C   0  0  0  0  0  0  0  0  0  0  0  0
    3.2239   -0.4717   -0.8537 H   0  0  0  0  0  0  0  0  0  0  0  0
    2.1744    0.5181   -1.9657 H   0  0  0  0  0  0  0  0  0  0  0  0
    2.9713    1.3453   -0.6164 H   0  0  0  0  0  0  0  0  0  0  0  0
   -1.1224   -0.8550   -1.9696 H   0  0  0  0  0  0  0  0  0  0  0  0
   -0.7484   -2.2809   -0.9090 H   0  0  0  0  0  0  0  0  0  0  0  0
   -2.5694   -1.2502    0.4972 H   0  0  0  0  0  0  0  0  0  0  0  0
   -2.9437    1.1680    0.4181 H   0  0  0  0  0  0  0  0  0  0  0  0
   -1.2845    1.4418   -0.3355 H   0  0  0  0  0  0  0  0  0  0  0  0
   -2.5872    0.6696   -1.3203 H   0  0  0  0  0  0  0  0  0  0  0  0
   -0.3104   -1.4057    1.6116 H   0  0  0  0  0  0  0  0  0  0  0  0
    1.6237   -0.2248    2.1182 H   0  0  0  0  0  0  0  0  0  0  0  0
    1.6993    1.5596    1.6155 H   0  0  0  0  0  0  0  0  0  0  0  0
  1  2  1  0
  2  3  2  0
  3  4  1  0
  4  5  1  0
  5  6  1  0
  5  7  1  0
  7  8  1  0
  8  9  1  0
  9  2  1  0
  7  3  1  0
  1 10  1  0
  1 11  1  0
  1 12  1  0
  4 13  1  0
  4 14  1  0
  5 15  1  0
  6 16  1  0
  6 17  1  0
  6 18  1  0
  7 19  1  0
  9 20  1  0
  9 21  1  0
M  END
