
     RDKit          3D

 21 22  0  0  0  0  0  0  0  0999 V2000
   -2.2243   -0.9872   -0.2653 C   0  0  0  0  0  0  0  0  0  0  0  0
   -0.8108   -0.4905   -0.2645 C   0  0  0  0  0  0  0  0  0  0  0  0
   -0.5178    0.7947   -0.1034 C   0  0  0  0  0  0  0  0  0  0  0  0
   -1.4126    1.9606    0.0977 C   0  0  0  0  0  0  0  0  0  0  0  0
    0.9816    0.9674   -0.1508 C   0  0  0  0  0  0  0  0  0  0  0  0
    1.4826   -0.4092    0.1292 C   0  0  0  0  0  0  0  0  0  0  0  0
    2.7398   -0.7606    0.6294 C   0  0  0  0  0  0  0  0  0  0  0  0
    1.6862   -0.7190    1.5651 O   0  0  0  0  0  0  0  0  0  0  0  0
    0.4308   -1.2969   -0.4330 C   0  0  0  0  0  0  0  0  0  0  0  0
   -2.6404   -0.9395    0.7586 H   0  0  0  0  0  0  0  0  0  0  0  0
   -2.2799   -2.0401   -0.6187 H   0  0  0  0  0  0  0  0  0  0  0  0
   -2.7950   -0.3098   -0.9078 H   0  0  0  0  0  0  0  0  0  0  0  0
   -2.4565    1.6897    0.2955 H   0  0  0  0  0  0  0  0  0  0  0  0
   -1.0558    2.5169    0.9982 H   0  0  0  0  0  0  0  0  0  0  0  0
   -1.3839    2.5787   -0.8224 H   0  0  0  0  0  0  0  0  0  0  0  0
    1.3044    1.2600   -1.1620 H   0  0  0  0  0  0  0  0  0  0  0  0
    1.3294    1.7023    0.5853 H   0  0  0  0  0  0  0  0  0  0  0  0
    3.5330    0.0098    0.7232 H   0  0  0  0  0  0  0  0  0  0  0  0
    3.1820   -1.7703    0.4073 H   0  0  0  0  0  0  0  0  0  0  0  0
    0.3604   -2.2838    0.0614 H   0  0  0  0  0  0  0  0  0  0  0  0
    0.5468   -1.4734   -1.5230 H   0  0  0  0  0  0  0  0  0  0  0  0
  1  2  1  0
  2  3  2  0
  3  4  1  0
  3  5  1  0
  5  6  1  0
  6  7  1  0
  7  8  1  0
  6  9  1  0
  9  2  1  0
  8  6  1  0
  1 10  1  0
  1 11  1  0
  1 12  1  0
  4 13  1  0
  4 14  1  0
  4 15  1  0
  5 16  1  0
  5 17  1  0
  7 18  1  0
  7 19  1  0
  9 20  1  0
  9 21  1  0
M  END
