
     RDKit          3D

 21 22  0  0  0  0  0  0  0  0999 V2000
    2.6635    0.7969    0.3873 C   0  0  0  0  0  0  0  0  0  0  0  0
    1.3556    0.1286    0.1468 C   0  0  0  0  0  0  0  0  0  0  0  0
    1.1984   -1.0690   -0.4065 C   0  0  0  0  0  0  0  0  0  0  0  0
   -0.2251   -1.4320   -0.4973 C   0  0  0  0  0  0  0  0  0  0  0  0
   -0.9932   -0.1925   -0.1334 C   0  0  0  0  0  0  0  0  0  0  0  0
   -2.2726   -0.3765    0.5983 C   0  0  0  0  0  0  0  0  0  0  0  0
   -1.0500    0.8438   -1.2160 C   0  0  0  0  0  0  0  0  0  0  0  0
   -0.2817    1.7271   -0.4270 O   0  0  0  0  0  0  0  0  0  0  0  0
    0.0309    0.7077    0.4926 C   0  0  0  0  0  0  0  0  0  0  0  0
    2.5705    1.8917    0.1283 H   0  0  0  0  0  0  0  0  0  0  0  0
    3.4605    0.4161   -0.2856 H   0  0  0  0  0  0  0  0  0  0  0  0
    2.9819    0.7303    1.4558 H   0  0  0  0  0  0  0  0  0  0  0  0
    2.0284   -1.6794   -0.7395 H   0  0  0  0  0  0  0  0  0  0  0  0
   -0.4321   -2.2163    0.2396 H   0  0  0  0  0  0  0  0  0  0  0  0
   -0.4419   -1.7383   -1.5390 H   0  0  0  0  0  0  0  0  0  0  0  0
   -2.5216    0.4776    1.2603 H   0  0  0  0  0  0  0  0  0  0  0  0
   -3.0879   -0.5345   -0.1670 H   0  0  0  0  0  0  0  0  0  0  0  0
   -2.2618   -1.3411    1.1796 H   0  0  0  0  0  0  0  0  0  0  0  0
   -0.5360    0.5591   -2.1372 H   0  0  0  0  0  0  0  0  0  0  0  0
   -2.0684    1.2955   -1.3367 H   0  0  0  0  0  0  0  0  0  0  0  0
   -0.1174    1.0051    1.5263 H   0  0  0  0  0  0  0  0  0  0  0  0
  1  2  1  0
  2  3  2  0
  3  4  1  0
  4  5  1  0
  5  6  1  0
  5  7  1  0
  7  8  1  0
  8  9  1  0
  9  2  1  0
  9  5  1  0
  1 10  1  0
  1 11  1  0
  1 12  1  0
  3 13  1  0
  4 14  1  0
  4 15  1  0
  6 16  1  0
  6 17  1  0
  6 18  1  0
  7 19  1  0
  7 20  1  0
  9 21  1  0
M  END
