
     RDKit          3D

 19 19  0  0  0  0  0  0  0  0999 V2000
   -2.5966   -0.3579    0.2265 C   0  0  0  0  0  0  0  0  0  0  0  0
   -1.1169   -0.1211    0.0552 C   0  0  0  0  0  0  0  0  0  0  0  0
   -0.2801   -1.1084    0.2575 C   0  0  0  0  0  0  0  0  0  0  0  0
    1.1880   -1.0754    0.1414 C   0  0  0  0  0  0  0  0  0  0  0  0
    1.7676    0.2937   -0.0110 C   0  0  0  0  0  0  0  0  0  0  0  0
    2.4291    0.4505   -1.2451 O   0  0  0  0  0  0  0  0  0  0  0  0
    0.7596    1.3482    0.2028 C   0  0  0  0  0  0  0  0  0  0  0  0
    1.0554    2.3302    0.8351 O   0  0  0  0  0  0  0  0  0  0  0  0
   -0.6061    1.2270   -0.3416 C   0  0  0  0  0  0  0  0  0  0  0  0
   -3.1129    0.5841    0.0117 H   0  0  0  0  0  0  0  0  0  0  0  0
   -2.8428   -0.6444    1.2618 H   0  0  0  0  0  0  0  0  0  0  0  0
   -2.9593   -1.1479   -0.4618 H   0  0  0  0  0  0  0  0  0  0  0  0
   -0.7104   -2.0820    0.5489 H   0  0  0  0  0  0  0  0  0  0  0  0
    1.5882   -1.5925    1.0552 H   0  0  0  0  0  0  0  0  0  0  0  0
    1.5492   -1.6820   -0.7351 H   0  0  0  0  0  0  0  0  0  0  0  0
    2.6010    0.3845    0.7485 H   0  0  0  0  0  0  0  0  0  0  0  0
    3.2211   -0.1739   -1.1965 H   0  0  0  0  0  0  0  0  0  0  0  0
   -1.2899    1.9944    0.0875 H   0  0  0  0  0  0  0  0  0  0  0  0
   -0.6443    1.3729   -1.4411 H   0  0  0  0  0  0  0  0  0  0  0  0
  1  2  1  0
  2  3  2  0
  3  4  1  0
  4  5  1  0
  5  6  1  0
  5  7  1  0
  7  8  2  0
  7  9  1  0
  9  2  1  0
  1 10  1  0
  1 11  1  0
  1 12  1  0
  3 13  1  0
  4 14  1  0
  4 15  1  0
  5 16  1  0
  6 17  1  0
  9 18  1  0
  9 19  1  0
M  END
