
     RDKit          3D

 21 21  0  0  0  0  0  0  0  0999 V2000
    2.5775   -1.0315    0.2767 C   0  0  0  0  0  0  0  0  0  0  0  0
    1.3238   -0.2690   -0.0053 C   0  0  0  0  0  0  0  0  0  0  0  0
    0.1784   -0.8983   -0.0617 C   0  0  0  0  0  0  0  0  0  0  0  0
   -1.1204   -0.2338   -0.3349 C   0  0  0  0  0  0  0  0  0  0  0  0
   -2.0507   -0.4659    0.8296 C   0  0  0  0  0  0  0  0  0  0  0  0
   -3.2829    0.1196    0.6570 O   0  0  0  0  0  0  0  0  0  0  0  0
   -0.8784    1.2008   -0.6308 C   0  0  0  0  0  0  0  0  0  0  0  0
    0.1732    1.7420    0.1008 O   0  0  0  0  0  0  0  0  0  0  0  0
    1.3888    1.1825   -0.2170 C   0  0  0  0  0  0  0  0  0  0  0  0
    2.8317   -0.8332    1.3321 H   0  0  0  0  0  0  0  0  0  0  0  0
    2.4492   -2.1170    0.1182 H   0  0  0  0  0  0  0  0  0  0  0  0
    3.3571   -0.6083   -0.4119 H   0  0  0  0  0  0  0  0  0  0  0  0
    0.1592   -1.9697    0.0983 H   0  0  0  0  0  0  0  0  0  0  0  0
   -1.5525   -0.7123   -1.2461 H   0  0  0  0  0  0  0  0  0  0  0  0
   -2.2147   -1.5512    0.9871 H   0  0  0  0  0  0  0  0  0  0  0  0
   -1.5420   -0.0975    1.7654 H   0  0  0  0  0  0  0  0  0  0  0  0
   -3.3612    0.3752   -0.2970 H   0  0  0  0  0  0  0  0  0  0  0  0
   -0.5799    1.2745   -1.7158 H   0  0  0  0  0  0  0  0  0  0  0  0
   -1.7445    1.8577   -0.5133 H   0  0  0  0  0  0  0  0  0  0  0  0
    1.7499    1.4412   -1.2314 H   0  0  0  0  0  0  0  0  0  0  0  0
    2.1384    1.5941    0.5002 H   0  0  0  0  0  0  0  0  0  0  0  0
  1  2  1  0
  2  3  2  0
  3  4  1  0
  4  5  1  0
  5  6  1  0
  4  7  1  0
  7  8  1  0
  8  9  1  0
  9  2  1  0
  1 10  1  0
  1 11  1  0
  1 12  1  0
  3 13  1  0
  4 14  1  0
  5 15  1  0
  5 16  1  0
  6 17  1  0
  7 18  1  0
  7 19  1  0
  9 20  1  0
  9 21  1  0
M  END
