
     RDKit          3D

 19 21  0  0  0  0  0  0  0  0999 V2000
    2.3831   -0.1367    1.2965 C   0  0  0  0  0  0  0  0  0  0  0  0
    1.3036   -0.2616    0.3245 C   0  0  0  0  0  0  0  0  0  0  0  0
    1.1782   -0.9103   -0.8645 C   0  0  0  0  0  0  0  0  0  0  0  0
   -0.2021   -0.6788   -1.4126 C   0  0  0  0  0  0  0  0  0  0  0  0
   -1.3495    0.1002   -1.2400 C   0  0  0  0  0  0  0  0  0  0  0  0
   -1.9993    1.0878   -0.2448 C   0  0  0  0  0  0  0  0  0  0  0  0
   -0.8473    1.3876    0.6767 C   0  0  0  0  0  0  0  0  0  0  0  0
    0.0983    0.5358    0.4099 C   0  0  0  0  0  0  0  0  0  0  0  0
   -0.8635   -0.6888   -0.1286 C   0  0  0  0  0  0  0  0  0  0  0  0
    2.1168    0.4607    2.1889 H   0  0  0  0  0  0  0  0  0  0  0  0
    3.3208    0.2923    0.8554 H   0  0  0  0  0  0  0  0  0  0  0  0
    2.6204   -1.1594    1.7173 H   0  0  0  0  0  0  0  0  0  0  0  0
    1.9794   -1.4754   -1.2847 H   0  0  0  0  0  0  0  0  0  0  0  0
   -0.4170   -1.6448   -2.0445 H   0  0  0  0  0  0  0  0  0  0  0  0
   -2.2351   -0.2046   -1.9055 H   0  0  0  0  0  0  0  0  0  0  0  0
   -2.4358    1.9500   -0.7195 H   0  0  0  0  0  0  0  0  0  0  0  0
   -2.7467    0.5596    0.3634 H   0  0  0  0  0  0  0  0  0  0  0  0
   -0.6947    2.1215    1.4462 H   0  0  0  0  0  0  0  0  0  0  0  0
   -1.2096   -1.3351    0.5662 H   0  0  0  0  0  0  0  0  0  0  0  0
  1  2  1  0
  2  3  2  0
  3  4  1  0
  4  5  1  0
  5  6  1  0
  6  7  1  0
  7  8  2  0
  8  9  1  0
  8  2  1  0
  9  4  1  0
  9  5  1  0
  1 10  1  0
  1 11  1  0
  1 12  1  0
  3 13  1  0
  4 14  1  0
  5 15  1  0
  6 16  1  0
  6 17  1  0
  7 18  1  0
  9 19  1  0
M  END
