
     RDKit          3D

 21 23  0  0  0  0  0  0  0  0999 V2000
    2.7423    0.2863   -0.2860 C   0  0  0  0  0  0  0  0  0  0  0  0
    1.3261   -0.1672   -0.2975 C   0  0  0  0  0  0  0  0  0  0  0  0
    0.8145   -1.3019   -0.7487 C   0  0  0  0  0  0  0  0  0  0  0  0
   -0.6618   -1.3022   -0.5438 C   0  0  0  0  0  0  0  0  0  0  0  0
   -1.0947   -0.8362    0.8161 C   0  0  0  0  0  0  0  0  0  0  0  0
   -0.2506    0.1233    1.5901 C   0  0  0  0  0  0  0  0  0  0  0  0
    0.2244    0.7011    0.2607 C   0  0  0  0  0  0  0  0  0  0  0  0
   -0.9723    0.1119   -0.3655 C   0  0  0  0  0  0  0  0  0  0  0  0
   -2.1608    0.8266   -0.8061 C   0  0  0  0  0  0  0  0  0  0  0  0
    2.7953    1.3645   -0.4221 H   0  0  0  0  0  0  0  0  0  0  0  0
    3.1342    0.0475    0.7387 H   0  0  0  0  0  0  0  0  0  0  0  0
    3.3465   -0.2025   -1.0759 H   0  0  0  0  0  0  0  0  0  0  0  0
    1.3749   -2.1107   -1.1987 H   0  0  0  0  0  0  0  0  0  0  0  0
   -1.2839   -2.0182   -1.0749 H   0  0  0  0  0  0  0  0  0  0  0  0
   -2.1371   -1.0244    1.1546 H   0  0  0  0  0  0  0  0  0  0  0  0
    0.6180   -0.2951    2.1265 H   0  0  0  0  0  0  0  0  0  0  0  0
   -0.8084    0.9155    2.1315 H   0  0  0  0  0  0  0  0  0  0  0  0
    0.3988    1.7662    0.2297 H   0  0  0  0  0  0  0  0  0  0  0  0
   -1.9161    1.5387   -1.6257 H   0  0  0  0  0  0  0  0  0  0  0  0
   -2.5632    1.4418    0.0511 H   0  0  0  0  0  0  0  0  0  0  0  0
   -2.9263    0.1350   -1.1709 H   0  0  0  0  0  0  0  0  0  0  0  0
  1  2  1  0
  2  3  2  0
  3  4  1  0
  4  5  1  0
  5  6  1  0
  6  7  1  0
  7  8  1  0
  8  9  1  0
  7  2  1  0
  8  4  1  0
  8  5  1  0
  1 10  1  0
  1 11  1  0
  1 12  1  0
  3 13  1  0
  4 14  1  0
  5 15  1  0
  6 16  1  0
  6 17  1  0
  7 18  1  0
  9 19  1  0
  9 20  1  0
  9 21  1  0
M  END
