
     RDKit          3D

 23 24  0  0  0  0  0  0  0  0999 V2000
   -2.1977   -1.2241   -0.7228 C   0  0  0  0  0  0  0  0  0  0  0  0
   -1.3047   -0.1831   -0.1391 C   0  0  0  0  0  0  0  0  0  0  0  0
   -0.0827   -0.3511    0.2571 C   0  0  0  0  0  0  0  0  0  0  0  0
    1.2917   -0.8502    0.6227 C   0  0  0  0  0  0  0  0  0  0  0  0
    1.9832   -1.6261   -0.4743 C   0  0  0  0  0  0  0  0  0  0  0  0
    1.7928    0.6242    0.5767 C   0  0  0  0  0  0  0  0  0  0  0  0
    0.3660    0.9740    0.8599 C   0  0  0  0  0  0  0  0  0  0  0  0
   -0.3452    1.9324   -0.0538 C   0  0  0  0  0  0  0  0  0  0  0  0
   -1.7492    1.2629    0.0124 C   0  0  0  0  0  0  0  0  0  0  0  0
   -1.6597   -2.1180   -1.0404 H   0  0  0  0  0  0  0  0  0  0  0  0
   -2.6833   -0.8056   -1.6511 H   0  0  0  0  0  0  0  0  0  0  0  0
   -3.0399   -1.4751   -0.0398 H   0  0  0  0  0  0  0  0  0  0  0  0
    1.2889   -1.2734    1.6223 H   0  0  0  0  0  0  0  0  0  0  0  0
    2.6615   -2.4017   -0.0398 H   0  0  0  0  0  0  0  0  0  0  0  0
    1.2521   -2.2005   -1.1053 H   0  0  0  0  0  0  0  0  0  0  0  0
    2.5858   -0.9747   -1.1419 H   0  0  0  0  0  0  0  0  0  0  0  0
    2.4465    0.8798    1.4306 H   0  0  0  0  0  0  0  0  0  0  0  0
    2.1706    0.9207   -0.4160 H   0  0  0  0  0  0  0  0  0  0  0  0
    0.0858    1.0733    1.9213 H   0  0  0  0  0  0  0  0  0  0  0  0
   -0.3760    2.9215    0.4153 H   0  0  0  0  0  0  0  0  0  0  0  0
    0.0551    1.9007   -1.0625 H   0  0  0  0  0  0  0  0  0  0  0  0
   -2.3690    1.5424   -0.8318 H   0  0  0  0  0  0  0  0  0  0  0  0
   -2.1726    1.4516    1.0001 H   0  0  0  0  0  0  0  0  0  0  0  0
  1  2  1  0
  2  3  2  0
  3  4  1  0
  4  5  1  0
  4  6  1  0
  6  7  1  0
  7  8  1  0
  8  9  1  0
  9  2  1  0
  7  3  1  0
  1 10  1  0
  1 11  1  0
  1 12  1  0
  4 13  1  0
  5 14  1  0
  5 15  1  0
  5 16  1  0
  6 17  1  0
  6 18  1  0
  7 19  1  0
  8 20  1  0
  8 21  1  0
  9 22  1  0
  9 23  1  0
M  END
