
     RDKit          3D

 23 24  0  0  0  0  0  0  0  0999 V2000
   -0.8235    2.2810    0.0121 C   0  0  0  0  0  0  0  0  0  0  0  0
   -0.0544    1.0200    0.0260 C   0  0  0  0  0  0  0  0  0  0  0  0
    1.2788    1.0907    0.1845 C   0  0  0  0  0  0  0  0  0  0  0  0
    2.0931   -0.1624    0.3078 C   0  0  0  0  0  0  0  0  0  0  0  0
    1.1951   -1.3583    0.1239 C   0  0  0  0  0  0  0  0  0  0  0  0
   -0.0312   -1.1883    0.9938 C   0  0  0  0  0  0  0  0  0  0  0  0
   -0.6053   -0.3276   -0.1182 C   0  0  0  0  0  0  0  0  0  0  0  0
   -2.0591   -0.4835   -0.3291 C   0  0  0  0  0  0  0  0  0  0  0  0
    0.2976   -1.1079   -1.0786 C   0  0  0  0  0  0  0  0  0  0  0  0
   -0.3957    2.9803    0.7873 H   0  0  0  0  0  0  0  0  0  0  0  0
   -1.8859    2.0625    0.2997 H   0  0  0  0  0  0  0  0  0  0  0  0
   -0.8227    2.7889   -0.9739 H   0  0  0  0  0  0  0  0  0  0  0  0
    1.8202    2.0198    0.2305 H   0  0  0  0  0  0  0  0  0  0  0  0
    2.8809   -0.1921   -0.4840 H   0  0  0  0  0  0  0  0  0  0  0  0
    2.5432   -0.2441    1.3232 H   0  0  0  0  0  0  0  0  0  0  0  0
    1.6934   -2.3209    0.1612 H   0  0  0  0  0  0  0  0  0  0  0  0
   -0.6429   -2.0837    1.1345 H   0  0  0  0  0  0  0  0  0  0  0  0
    0.2367   -0.6089    1.8948 H   0  0  0  0  0  0  0  0  0  0  0  0
   -2.5359    0.3609   -0.8342 H   0  0  0  0  0  0  0  0  0  0  0  0
   -2.5381   -0.7263    0.6424 H   0  0  0  0  0  0  0  0  0  0  0  0
   -2.2130   -1.3990   -0.9735 H   0  0  0  0  0  0  0  0  0  0  0  0
    0.7305   -0.4041   -1.8144 H   0  0  0  0  0  0  0  0  0  0  0  0
   -0.1617   -1.9971   -1.5159 H   0  0  0  0  0  0  0  0  0  0  0  0
  1  2  1  0
  2  3  2  0
  3  4  1  0
  4  5  1  0
  5  6  1  0
  6  7  1  0
  7  8  1  0
  7  9  1  0
  7  2  1  0
  9  5  1  0
  1 10  1  0
  1 11  1  0
  1 12  1  0
  3 13  1  0
  4 14  1  0
  4 15  1  0
  5 16  1  0
  6 17  1  0
  6 18  1  0
  8 19  1  0
  8 20  1  0
  8 21  1  0
  9 22  1  0
  9 23  1  0
M  END
