
     RDKit          3D

 19 20  0  0  0  0  0  0  0  0999 V2000
    2.5307    0.0140   -0.5073 C   0  0  0  0  0  0  0  0  0  0  0  0
    1.1088   -0.0217   -0.0181 C   0  0  0  0  0  0  0  0  0  0  0  0
    0.1739    0.6689   -0.6420 C   0  0  0  0  0  0  0  0  0  0  0  0
   -1.2176    0.6243   -0.1502 C   0  0  0  0  0  0  0  0  0  0  0  0
   -1.8111    1.8499    0.0435 O   0  0  0  0  0  0  0  0  0  0  0  0
   -2.0739   -0.4825   -0.6432 C   0  0  0  0  0  0  0  0  0  0  0  0
   -1.5321   -0.4510    0.7879 C   0  0  0  0  0  0  0  0  0  0  0  0
   -0.5387   -1.3793    1.0152 O   0  0  0  0  0  0  0  0  0  0  0  0
    0.7176   -0.8256    1.1681 C   0  0  0  0  0  0  0  0  0  0  0  0
    2.5737    0.2037   -1.5971 H   0  0  0  0  0  0  0  0  0  0  0  0
    3.0377    0.7865    0.0986 H   0  0  0  0  0  0  0  0  0  0  0  0
    2.9302   -1.0157   -0.3121 H   0  0  0  0  0  0  0  0  0  0  0  0
    0.3930    1.2767   -1.5151 H   0  0  0  0  0  0  0  0  0  0  0  0
   -1.4704    2.5250   -0.6015 H   0  0  0  0  0  0  0  0  0  0  0  0
   -3.1691   -0.4050   -0.7055 H   0  0  0  0  0  0  0  0  0  0  0  0
   -1.6263   -1.1759   -1.3658 H   0  0  0  0  0  0  0  0  0  0  0  0
   -2.2380   -0.2574    1.5961 H   0  0  0  0  0  0  0  0  0  0  0  0
    1.4391   -1.6747    1.2333 H   0  0  0  0  0  0  0  0  0  0  0  0
    0.7725   -0.2602    2.1151 H   0  0  0  0  0  0  0  0  0  0  0  0
  1  2  1  0
  2  3  2  0
  3  4  1  0
  4  5  1  0
  4  6  1  0
  6  7  1  0
  7  8  1  0
  8  9  1  0
  9  2  1  0
  7  4  1  0
  1 10  1  0
  1 11  1  0
  1 12  1  0
  3 13  1  0
  5 14  1  0
  6 15  1  0
  6 16  1  0
  7 17  1  0
  9 18  1  0
  9 19  1  0
M  END
