
     RDKit          3D

 21 22  0  0  0  0  0  0  0  0999 V2000
   -1.8801   -1.2599    0.1269 C   0  0  0  0  0  0  0  0  0  0  0  0
   -0.4996   -0.7357    0.3077 C   0  0  0  0  0  0  0  0  0  0  0  0
    0.5653   -1.5253    0.2342 C   0  0  0  0  0  0  0  0  0  0  0  0
    1.8730   -0.8496    0.0211 C   0  0  0  0  0  0  0  0  0  0  0  0
    1.6162    0.1918   -1.0769 C   0  0  0  0  0  0  0  0  0  0  0  0
    1.1737    0.9978    0.1164 C   0  0  0  0  0  0  0  0  0  0  0  0
    2.0512    0.2202    0.8915 O   0  0  0  0  0  0  0  0  0  0  0  0
   -0.2104    0.6983    0.5819 C   0  0  0  0  0  0  0  0  0  0  0  0
   -1.2574    1.6251    0.0600 C   0  0  0  0  0  0  0  0  0  0  0  0
   -1.7978   -2.3306   -0.1528 H   0  0  0  0  0  0  0  0  0  0  0  0
   -2.4479   -1.2253    1.0765 H   0  0  0  0  0  0  0  0  0  0  0  0
   -2.4107   -0.7597   -0.7102 H   0  0  0  0  0  0  0  0  0  0  0  0
    0.5287   -2.5953    0.3185 H   0  0  0  0  0  0  0  0  0  0  0  0
    2.7351   -1.4929   -0.1455 H   0  0  0  0  0  0  0  0  0  0  0  0
    0.8048   -0.0967   -1.7639 H   0  0  0  0  0  0  0  0  0  0  0  0
    2.5259    0.5771   -1.5294 H   0  0  0  0  0  0  0  0  0  0  0  0
    1.4547    2.0692    0.0619 H   0  0  0  0  0  0  0  0  0  0  0  0
   -0.2049    0.7941    1.7074 H   0  0  0  0  0  0  0  0  0  0  0  0
   -2.2619    1.1525    0.0943 H   0  0  0  0  0  0  0  0  0  0  0  0
   -1.0337    2.0285   -0.9534 H   0  0  0  0  0  0  0  0  0  0  0  0
   -1.3243    2.5164    0.7339 H   0  0  0  0  0  0  0  0  0  0  0  0
  1  2  1  0
  2  3  2  0
  3  4  1  0
  4  5  1  0
  5  6  1  0
  6  7  1  0
  6  8  1  0
  8  9  1  0
  8  2  1  0
  7  4  1  0
  1 10  1  0
  1 11  1  0
  1 12  1  0
  3 13  1  0
  4 14  1  0
  5 15  1  0
  5 16  1  0
  6 17  1  0
  8 18  1  0
  9 19  1  0
  9 20  1  0
  9 21  1  0
M  END
