
     RDKit          3D

 19 20  0  0  0  0  0  0  0  0999 V2000
   -2.2783    0.8018   -0.1504 C   0  0  0  0  0  0  0  0  0  0  0  0
   -0.9660    0.1887    0.2309 C   0  0  0  0  0  0  0  0  0  0  0  0
   -0.1961    0.5415    1.2463 C   0  0  0  0  0  0  0  0  0  0  0  0
    1.0263   -0.2663    1.3384 C   0  0  0  0  0  0  0  0  0  0  0  0
    2.0220   -0.0637    0.2568 C   0  0  0  0  0  0  0  0  0  0  0  0
    1.9375    1.1544   -0.4165 O   0  0  0  0  0  0  0  0  0  0  0  0
    1.0393   -1.1216    0.0560 C   0  0  0  0  0  0  0  0  0  0  0  0
   -0.3220   -0.9328   -0.4938 C   0  0  0  0  0  0  0  0  0  0  0  0
   -0.3535   -0.7571   -1.8744 O   0  0  0  0  0  0  0  0  0  0  0  0
   -2.8616    1.1304    0.7141 H   0  0  0  0  0  0  0  0  0  0  0  0
   -2.1059    1.6997   -0.7937 H   0  0  0  0  0  0  0  0  0  0  0  0
   -2.8826    0.0302   -0.6751 H   0  0  0  0  0  0  0  0  0  0  0  0
   -0.4775    1.3687    1.9366 H   0  0  0  0  0  0  0  0  0  0  0  0
    1.2835   -0.8055    2.2676 H   0  0  0  0  0  0  0  0  0  0  0  0
    3.0701   -0.3931    0.4576 H   0  0  0  0  0  0  0  0  0  0  0  0
    2.7989    1.6478   -0.3528 H   0  0  0  0  0  0  0  0  0  0  0  0
    1.3722   -2.1852    0.1995 H   0  0  0  0  0  0  0  0  0  0  0  0
   -0.9367   -1.8427   -0.2742 H   0  0  0  0  0  0  0  0  0  0  0  0
   -1.1696   -0.1953   -2.0617 H   0  0  0  0  0  0  0  0  0  0  0  0
  1  2  1  0
  2  3  2  0
  3  4  1  0
  4  5  1  0
  5  6  1  0
  5  7  1  0
  7  8  1  0
  8  9  1  0
  8  2  1  0
  7  4  1  0
  1 10  1  0
  1 11  1  0
  1 12  1  0
  3 13  1  0
  4 14  1  0
  5 15  1  0
  6 16  1  0
  7 17  1  0
  8 18  1  0
  9 19  1  0
M  END
