
     RDKit          3D

 23 24  0  0  0  0  0  0  0  0999 V2000
   -1.6377    1.6752   -1.0797 C   0  0  0  0  0  0  0  0  0  0  0  0
   -0.7318    0.6207   -0.5593 C   0  0  0  0  0  0  0  0  0  0  0  0
   -1.0062   -0.4966    0.1290 C   0  0  0  0  0  0  0  0  0  0  0  0
   -2.3069   -1.0661    0.5404 C   0  0  0  0  0  0  0  0  0  0  0  0
    0.3645   -1.0596    0.3971 C   0  0  0  0  0  0  0  0  0  0  0  0
    0.9820   -0.9200   -0.9744 C   0  0  0  0  0  0  0  0  0  0  0  0
    0.7416    0.5656   -0.6903 C   0  0  0  0  0  0  0  0  0  0  0  0
    1.0944    0.2057    0.7567 C   0  0  0  0  0  0  0  0  0  0  0  0
    2.5479    0.1018    1.0483 C   0  0  0  0  0  0  0  0  0  0  0  0
   -2.5653    1.2504   -1.5210 H   0  0  0  0  0  0  0  0  0  0  0  0
   -1.9910    2.3646   -0.2648 H   0  0  0  0  0  0  0  0  0  0  0  0
   -1.0789    2.2967   -1.7930 H   0  0  0  0  0  0  0  0  0  0  0  0
   -2.1057   -1.6604    1.4779 H   0  0  0  0  0  0  0  0  0  0  0  0
   -2.9614   -0.2025    0.8245 H   0  0  0  0  0  0  0  0  0  0  0  0
   -2.7399   -1.6961   -0.2489 H   0  0  0  0  0  0  0  0  0  0  0  0
    0.4685   -1.9368    0.9552 H   0  0  0  0  0  0  0  0  0  0  0  0
    0.3264   -1.2956   -1.7802 H   0  0  0  0  0  0  0  0  0  0  0  0
    2.0358   -1.2142   -1.0264 H   0  0  0  0  0  0  0  0  0  0  0  0
    1.2917    1.2892   -1.1944 H   0  0  0  0  0  0  0  0  0  0  0  0
    0.5139    0.8039    1.4802 H   0  0  0  0  0  0  0  0  0  0  0  0
    2.7115   -0.6705    1.8344 H   0  0  0  0  0  0  0  0  0  0  0  0
    3.1892   -0.0275    0.1707 H   0  0  0  0  0  0  0  0  0  0  0  0
    2.8574    1.0721    1.5179 H   0  0  0  0  0  0  0  0  0  0  0  0
  1  2  1  0
  2  3  2  0
  3  4  1  0
  3  5  1  0
  5  6  1  0
  6  7  1  0
  7  8  1  0
  8  9  1  0
  7  2  1  0
  8  5  1  0
  1 10  1  0
  1 11  1  0
  1 12  1  0
  4 13  1  0
  4 14  1  0
  4 15  1  0
  5 16  1  0
  6 17  1  0
  6 18  1  0
  7 19  1  0
  8 20  1  0
  9 21  1  0
  9 22  1  0
  9 23  1  0
M  END
