
     RDKit          3D

 21 21  0  0  0  0  0  0  0  0999 V2000
    2.1698   -1.1029   -0.0845 C   0  0  0  0  0  0  0  0  0  0  0  0
    0.7610   -0.6124   -0.0197 C   0  0  0  0  0  0  0  0  0  0  0  0
   -0.1470   -1.3316   -0.6502 C   0  0  0  0  0  0  0  0  0  0  0  0
   -1.6090   -1.0772   -0.7483 C   0  0  0  0  0  0  0  0  0  0  0  0
   -2.1502   -0.8041    0.5271 O   0  0  0  0  0  0  0  0  0  0  0  0
   -1.7897    0.4785    0.9199 C   0  0  0  0  0  0  0  0  0  0  0  0
   -0.5865    0.5509    1.5686 O   0  0  0  0  0  0  0  0  0  0  0  0
    0.5147    0.6526    0.7571 C   0  0  0  0  0  0  0  0  0  0  0  0
    0.4765    1.8494   -0.1691 C   0  0  0  0  0  0  0  0  0  0  0  0
    2.3405   -1.9409    0.6278 H   0  0  0  0  0  0  0  0  0  0  0  0
    2.4206   -1.4429   -1.0920 H   0  0  0  0  0  0  0  0  0  0  0  0
    2.8239   -0.2491    0.1926 H   0  0  0  0  0  0  0  0  0  0  0  0
    0.2132   -2.2034   -1.1512 H   0  0  0  0  0  0  0  0  0  0  0  0
   -1.7080   -0.1025   -1.3093 H   0  0  0  0  0  0  0  0  0  0  0  0
   -2.1365   -1.8838   -1.2610 H   0  0  0  0  0  0  0  0  0  0  0  0
   -2.5798    0.7998    1.6611 H   0  0  0  0  0  0  0  0  0  0  0  0
   -1.8978    1.1833    0.0682 H   0  0  0  0  0  0  0  0  0  0  0  0
    1.4048    0.7862    1.4084 H   0  0  0  0  0  0  0  0  0  0  0  0
    0.1212    1.5524   -1.1781 H   0  0  0  0  0  0  0  0  0  0  0  0
    1.5065    2.2608   -0.3267 H   0  0  0  0  0  0  0  0  0  0  0  0
   -0.1482    2.6370    0.2592 H   0  0  0  0  0  0  0  0  0  0  0  0
  1  2  1  0
  2  3  2  0
  3  4  1  0
  4  5  1  0
  5  6  1  0
  6  7  1  0
  7  8  1  0
  8  9  1  0
  8  2  1  0
  1 10  1  0
  1 11  1  0
  1 12  1  0
  3 13  1  0
  4 14  1  0
  4 15  1  0
  6 16  1  0
  6 17  1  0
  8 18  1  0
  9 19  1  0
  9 20  1  0
  9 21  1  0
M  END
