
     RDKit          3D

 19 20  0  0  0  0  0  0  0  0999 V2000
    2.5509    0.1448    0.4838 C   0  0  0  0  0  0  0  0  0  0  0  0
    1.1405    0.0317    0.0183 C   0  0  0  0  0  0  0  0  0  0  0  0
    0.5384   -1.1472    0.0581 C   0  0  0  0  0  0  0  0  0  0  0  0
   -0.8480   -1.4838   -0.3522 C   0  0  0  0  0  0  0  0  0  0  0  0
   -1.8984   -0.5861    0.1992 C   0  0  0  0  0  0  0  0  0  0  0  0
   -1.6768    0.1932    1.3244 O   0  0  0  0  0  0  0  0  0  0  0  0
   -1.9129    0.7820    0.0112 C   0  0  0  0  0  0  0  0  0  0  0  0
   -0.7627    1.5544   -0.4376 C   0  0  0  0  0  0  0  0  0  0  0  0
    0.5353    1.2860   -0.4560 C   0  0  0  0  0  0  0  0  0  0  0  0
    2.8194   -0.8573    0.9096 H   0  0  0  0  0  0  0  0  0  0  0  0
    3.2263    0.2954   -0.3979 H   0  0  0  0  0  0  0  0  0  0  0  0
    2.6836    0.9366    1.2283 H   0  0  0  0  0  0  0  0  0  0  0  0
    1.1474   -1.9534    0.4397 H   0  0  0  0  0  0  0  0  0  0  0  0
   -1.0531   -2.5560   -0.0896 H   0  0  0  0  0  0  0  0  0  0  0  0
   -0.9525   -1.4606   -1.4768 H   0  0  0  0  0  0  0  0  0  0  0  0
   -2.8967   -1.1189    0.2732 H   0  0  0  0  0  0  0  0  0  0  0  0
   -2.8965    1.3377   -0.0410 H   0  0  0  0  0  0  0  0  0  0  0  0
   -0.9588    2.5588   -0.8477 H   0  0  0  0  0  0  0  0  0  0  0  0
    1.2146    2.0429   -0.8468 H   0  0  0  0  0  0  0  0  0  0  0  0
  1  2  1  0
  2  3  2  0
  3  4  1  0
  4  5  1  0
  5  6  1  0
  6  7  1  0
  7  8  1  0
  8  9  2  0
  9  2  1  0
  7  5  1  0
  1 10  1  0
  1 11  1  0
  1 12  1  0
  3 13  1  0
  4 14  1  0
  4 15  1  0
  5 16  1  0
  7 17  1  0
  8 18  1  0
  9 19  1  0
M  END
