
     RDKit          3D

 18 18  0  0  0  0  0  0  0  0999 V2000
    2.5418   -0.2179    0.2170 C   0  0  0  0  0  0  0  0  0  0  0  0
    1.1003    0.0209   -0.0500 C   0  0  0  0  0  0  0  0  0  0  0  0
    0.5678    1.1904    0.3509 C   0  0  0  0  0  0  0  0  0  0  0  0
   -0.8352    1.6096    0.1773 C   0  0  0  0  0  0  0  0  0  0  0  0
   -1.9117    0.8470    0.1132 C   0  0  0  0  0  0  0  0  0  0  0  0
   -1.9649   -0.6223    0.2026 C   0  0  0  0  0  0  0  0  0  0  0  0
   -0.9254   -1.2879   -0.6077 C   0  0  0  0  0  0  0  0  0  0  0  0
    0.3649   -1.0531   -0.7428 C   0  0  0  0  0  0  0  0  0  0  0  0
    2.9937    0.7929    0.4228 H   0  0  0  0  0  0  0  0  0  0  0  0
    3.0235   -0.6390   -0.6964 H   0  0  0  0  0  0  0  0  0  0  0  0
    2.6436   -0.8816    1.0828 H   0  0  0  0  0  0  0  0  0  0  0  0
    1.2465    1.8732    0.8408 H   0  0  0  0  0  0  0  0  0  0  0  0
   -0.9788    2.6950    0.0983 H   0  0  0  0  0  0  0  0  0  0  0  0
   -2.8721    1.3852   -0.0230 H   0  0  0  0  0  0  0  0  0  0  0  0
   -1.7277   -0.8684    1.2797 H   0  0  0  0  0  0  0  0  0  0  0  0
   -2.9624   -1.0343   -0.0524 H   0  0  0  0  0  0  0  0  0  0  0  0
   -1.2779   -2.1377   -1.2156 H   0  0  0  0  0  0  0  0  0  0  0  0
    0.9740   -1.6720   -1.3977 H   0  0  0  0  0  0  0  0  0  0  0  0
  1  2  1  0
  2  3  2  0
  3  4  1  0
  4  5  2  0
  5  6  1  0
  6  7  1  0
  7  8  2  0
  8  2  1  0
  1  9  1  0
  1 10  1  0
  1 11  1  0
  3 12  1  0
  4 13  1  0
  5 14  1  0
  6 15  1  0
  6 16  1  0
  7 17  1  0
  8 18  1  0
M  END
