
     RDKit          3D

 21 22  0  0  0  0  0  0  0  0999 V2000
   -2.0580   -1.3911    0.3044 C   0  0  0  0  0  0  0  0  0  0  0  0
   -0.7932   -0.6329    0.1669 C   0  0  0  0  0  0  0  0  0  0  0  0
    0.3067   -0.8958    0.8506 C   0  0  0  0  0  0  0  0  0  0  0  0
    1.5343   -0.0923    0.6580 C   0  0  0  0  0  0  0  0  0  0  0  0
    2.4636   -0.6063   -0.4273 C   0  0  0  0  0  0  0  0  0  0  0  0
    1.6141    0.5975   -0.6396 C   0  0  0  0  0  0  0  0  0  0  0  0
    0.4931    0.5403   -1.4243 O   0  0  0  0  0  0  0  0  0  0  0  0
   -0.7131    0.5172   -0.8005 C   0  0  0  0  0  0  0  0  0  0  0  0
   -1.0439    1.7632   -0.0180 C   0  0  0  0  0  0  0  0  0  0  0  0
   -1.8480   -2.2999    0.8934 H   0  0  0  0  0  0  0  0  0  0  0  0
   -2.8573   -0.8319    0.8133 H   0  0  0  0  0  0  0  0  0  0  0  0
   -2.4397   -1.6375   -0.7191 H   0  0  0  0  0  0  0  0  0  0  0  0
    0.3064   -1.7052    1.5556 H   0  0  0  0  0  0  0  0  0  0  0  0
    1.9843    0.4357    1.5334 H   0  0  0  0  0  0  0  0  0  0  0  0
    3.5455   -0.4540   -0.1947 H   0  0  0  0  0  0  0  0  0  0  0  0
    2.2523   -1.5669   -0.9053 H   0  0  0  0  0  0  0  0  0  0  0  0
    2.1545    1.5656   -0.6821 H   0  0  0  0  0  0  0  0  0  0  0  0
   -1.4980    0.3621   -1.5651 H   0  0  0  0  0  0  0  0  0  0  0  0
   -1.9868    2.2328   -0.3726 H   0  0  0  0  0  0  0  0  0  0  0  0
   -0.2405    2.5301   -0.0934 H   0  0  0  0  0  0  0  0  0  0  0  0
   -1.1763    1.5693    1.0663 H   0  0  0  0  0  0  0  0  0  0  0  0
  1  2  1  0
  2  3  2  0
  3  4  1  0
  4  5  1  0
  5  6  1  0
  6  7  1  0
  7  8  1  0
  8  9  1  0
  8  2  1  0
  6  4  1  0
  1 10  1  0
  1 11  1  0
  1 12  1  0
  3 13  1  0
  4 14  1  0
  5 15  1  0
  5 16  1  0
  6 17  1  0
  8 18  1  0
  9 19  1  0
  9 20  1  0
  9 21  1  0
M  END
