
     RDKit          3D

 21 22  0  0  0  0  0  0  0  0999 V2000
    2.4567    0.4571   -0.0224 C   0  0  0  0  0  0  0  0  0  0  0  0
    0.9925    0.4039   -0.1757 C   0  0  0  0  0  0  0  0  0  0  0  0
    0.1926    1.4543   -0.3276 C   0  0  0  0  0  0  0  0  0  0  0  0
   -1.1885    0.9707   -0.4572 C   0  0  0  0  0  0  0  0  0  0  0  0
   -1.6658    0.3528    0.8519 C   0  0  0  0  0  0  0  0  0  0  0  0
   -0.6853   -0.8152    1.0589 C   0  0  0  0  0  0  0  0  0  0  0  0
    0.1182   -0.8281   -0.1915 C   0  0  0  0  0  0  0  0  0  0  0  0
    0.7462   -1.9577   -0.5249 O   0  0  0  0  0  0  0  0  0  0  0  0
   -0.9136   -0.3419   -1.2259 C   0  0  0  0  0  0  0  0  0  0  0  0
    2.8550   -0.5754   -0.1189 H   0  0  0  0  0  0  0  0  0  0  0  0
    2.9221    1.0511   -0.8522 H   0  0  0  0  0  0  0  0  0  0  0  0
    2.7433    0.8493    0.9728 H   0  0  0  0  0  0  0  0  0  0  0  0
    0.5116    2.4784   -0.3503 H   0  0  0  0  0  0  0  0  0  0  0  0
   -1.8948    1.6086   -0.9440 H   0  0  0  0  0  0  0  0  0  0  0  0
   -2.6742   -0.0322    0.6860 H   0  0  0  0  0  0  0  0  0  0  0  0
   -1.6205    1.0617    1.6849 H   0  0  0  0  0  0  0  0  0  0  0  0
   -0.0769   -0.6034    1.9740 H   0  0  0  0  0  0  0  0  0  0  0  0
   -1.2449   -1.7474    1.2509 H   0  0  0  0  0  0  0  0  0  0  0  0
    0.7055   -2.7049    0.1226 H   0  0  0  0  0  0  0  0  0  0  0  0
   -0.4581   -0.1512   -2.1967 H   0  0  0  0  0  0  0  0  0  0  0  0
   -1.8211   -0.9306   -1.2148 H   0  0  0  0  0  0  0  0  0  0  0  0
  1  2  1  0
  2  3  2  0
  3  4  1  0
  4  5  1  0
  5  6  1  0
  6  7  1  0
  7  8  1  0
  7  9  1  0
  7  2  1  0
  9  4  1  0
  1 10  1  0
  1 11  1  0
  1 12  1  0
  3 13  1  0
  4 14  1  0
  5 15  1  0
  5 16  1  0
  6 17  1  0
  6 18  1  0
  8 19  1  0
  9 20  1  0
  9 21  1  0
M  END
