
     RDKit          3D

 19 19  0  0  0  0  0  0  0  0999 V2000
   -0.1980    2.1415    0.0929 C   0  0  0  0  0  0  0  0  0  0  0  0
   -0.3051    0.6650   -0.0685 C   0  0  0  0  0  0  0  0  0  0  0  0
    0.7025   -0.2043   -0.0422 C   0  0  0  0  0  0  0  0  0  0  0  0
    2.1559    0.0648    0.1496 C   0  0  0  0  0  0  0  0  0  0  0  0
    0.1621   -1.5859   -0.2431 C   0  0  0  0  0  0  0  0  0  0  0  0
   -1.2608   -1.4314    0.2612 C   0  0  0  0  0  0  0  0  0  0  0  0
   -1.5948   -0.0467   -0.2866 C   0  0  0  0  0  0  0  0  0  0  0  0
    0.7338    2.5523   -0.3087 H   0  0  0  0  0  0  0  0  0  0  0  0
   -0.3761    2.3866    1.1565 H   0  0  0  0  0  0  0  0  0  0  0  0
   -1.0410    2.6404   -0.4697 H   0  0  0  0  0  0  0  0  0  0  0  0
    2.3982   -0.2195    1.2078 H   0  0  0  0  0  0  0  0  0  0  0  0
    2.7258   -0.6377   -0.5046 H   0  0  0  0  0  0  0  0  0  0  0  0
    2.4434    1.0955   -0.0823 H   0  0  0  0  0  0  0  0  0  0  0  0
    0.1056   -1.7760   -1.3319 H   0  0  0  0  0  0  0  0  0  0  0  0
    0.7067   -2.3420    0.3169 H   0  0  0  0  0  0  0  0  0  0  0  0
   -1.2403   -1.3443    1.3744 H   0  0  0  0  0  0  0  0  0  0  0  0
   -1.9134   -2.2119   -0.1169 H   0  0  0  0  0  0  0  0  0  0  0  0
   -1.7775   -0.1135   -1.3855 H   0  0  0  0  0  0  0  0  0  0  0  0
   -2.4271    0.3671    0.2808 H   0  0  0  0  0  0  0  0  0  0  0  0
  1  2  1  0
  2  3  2  0
  3  4  1  0
  3  5  1  0
  5  6  1  0
  6  7  1  0
  7  2  1  0
  1  8  1  0
  1  9  1  0
  1 10  1  0
  4 11  1  0
  4 12  1  0
  4 13  1  0
  5 14  1  0
  5 15  1  0
  6 16  1  0
  6 17  1  0
  7 18  1  0
  7 19  1  0
M  END
