
     RDKit          3D

 19 21  0  0  0  0  0  0  0  0999 V2000
    2.4027    0.4013    0.0312 C   0  0  0  0  0  0  0  0  0  0  0  0
    0.9716   -0.0049   -0.0512 C   0  0  0  0  0  0  0  0  0  0  0  0
    0.6677   -1.2414    0.2821 C   0  0  0  0  0  0  0  0  0  0  0  0
   -0.7062   -1.7343    0.2342 C   0  0  0  0  0  0  0  0  0  0  0  0
   -1.6805   -1.1975    1.0699 O   0  0  0  0  0  0  0  0  0  0  0  0
   -1.6569   -0.9089   -0.3536 C   0  0  0  0  0  0  0  0  0  0  0  0
   -1.3901    0.5212   -0.6129 C   0  0  0  0  0  0  0  0  0  0  0  0
   -1.0722    1.4650    0.5043 C   0  0  0  0  0  0  0  0  0  0  0  0
   -0.0121    0.9853   -0.4940 C   0  0  0  0  0  0  0  0  0  0  0  0
    2.9712   -0.3248   -0.6030 H   0  0  0  0  0  0  0  0  0  0  0  0
    2.7507    0.2977    1.0754 H   0  0  0  0  0  0  0  0  0  0  0  0
    2.5597    1.4436   -0.3228 H   0  0  0  0  0  0  0  0  0  0  0  0
    1.4581   -1.9519    0.6138 H   0  0  0  0  0  0  0  0  0  0  0  0
   -0.8094   -2.8468    0.1083 H   0  0  0  0  0  0  0  0  0  0  0  0
   -2.5353   -1.3509   -0.9055 H   0  0  0  0  0  0  0  0  0  0  0  0
   -1.9912    1.0125   -1.4331 H   0  0  0  0  0  0  0  0  0  0  0  0
   -0.8886    1.0960    1.5272 H   0  0  0  0  0  0  0  0  0  0  0  0
   -1.4063    2.5156    0.4592 H   0  0  0  0  0  0  0  0  0  0  0  0
    0.3671    1.8232   -1.1294 H   0  0  0  0  0  0  0  0  0  0  0  0
  1  2  1  0
  2  3  2  0
  3  4  1  0
  4  5  1  0
  5  6  1  0
  6  7  1  0
  7  8  1  0
  8  9  1  0
  9  2  1  0
  6  4  1  0
  9  7  1  0
  1 10  1  0
  1 11  1  0
  1 12  1  0
  3 13  1  0
  4 14  1  0
  6 15  1  0
  7 16  1  0
  8 17  1  0
  8 18  1  0
  9 19  1  0
M  END
