
     RDKit          3D

 21 23  0  0  0  0  0  0  0  0999 V2000
    2.8755    0.2707    0.0869 C   0  0  0  0  0  0  0  0  0  0  0  0
    1.4674    0.0424   -0.2590 C   0  0  0  0  0  0  0  0  0  0  0  0
    0.8939   -0.3090   -1.4282 C   0  0  0  0  0  0  0  0  0  0  0  0
   -0.5355   -0.3179   -1.1194 C   0  0  0  0  0  0  0  0  0  0  0  0
   -0.5413   -1.0383    0.2379 C   0  0  0  0  0  0  0  0  0  0  0  0
   -1.9188   -0.7586    0.7418 C   0  0  0  0  0  0  0  0  0  0  0  0
   -1.9862    0.7553    0.4560 C   0  0  0  0  0  0  0  0  0  0  0  0
   -0.6816    0.9146   -0.2586 C   0  0  0  0  0  0  0  0  0  0  0  0
    0.2903    0.1502    0.6409 C   0  0  0  0  0  0  0  0  0  0  0  0
    2.9152    1.1282    0.8001 H   0  0  0  0  0  0  0  0  0  0  0  0
    3.5114    0.4197   -0.8016 H   0  0  0  0  0  0  0  0  0  0  0  0
    3.2627   -0.6065    0.6831 H   0  0  0  0  0  0  0  0  0  0  0  0
    1.3515   -0.5354   -2.3799 H   0  0  0  0  0  0  0  0  0  0  0  0
   -1.2725   -0.5712   -1.8224 H   0  0  0  0  0  0  0  0  0  0  0  0
   -0.1279   -2.0139    0.2746 H   0  0  0  0  0  0  0  0  0  0  0  0
   -2.6704   -1.2432    0.1204 H   0  0  0  0  0  0  0  0  0  0  0  0
   -2.0397   -0.8984    1.8259 H   0  0  0  0  0  0  0  0  0  0  0  0
   -1.9630    1.3379    1.3899 H   0  0  0  0  0  0  0  0  0  0  0  0
   -2.8484    0.9831   -0.1978 H   0  0  0  0  0  0  0  0  0  0  0  0
   -0.3754    1.8575   -0.6357 H   0  0  0  0  0  0  0  0  0  0  0  0
    0.3927    0.4329    1.6452 H   0  0  0  0  0  0  0  0  0  0  0  0
  1  2  1  0
  2  3  2  0
  3  4  1  0
  4  5  1  0
  5  6  1  0
  6  7  1  0
  7  8  1  0
  8  9  1  0
  9  2  1  0
  8  4  1  0
  9  5  1  0
  1 10  1  0
  1 11  1  0
  1 12  1  0
  3 13  1  0
  4 14  1  0
  5 15  1  0
  6 16  1  0
  6 17  1  0
  7 18  1  0
  7 19  1  0
  8 20  1  0
  9 21  1  0
M  END
