
     RDKit          3D

 23 23  0  0  0  0  0  0  0  0999 V2000
    2.2138   -0.6500   -0.0741 C   0  0  0  0  0  0  0  0  0  0  0  0
    0.7840   -0.3574   -0.1667 C   0  0  0  0  0  0  0  0  0  0  0  0
    0.3757    0.9054   -0.0964 C   0  0  0  0  0  0  0  0  0  0  0  0
    1.4482    1.9137    0.0739 C   0  0  0  0  0  0  0  0  0  0  0  0
   -1.0381    1.3924   -0.1718 C   0  0  0  0  0  0  0  0  0  0  0  0
   -1.7602    0.4780   -0.9715 O   0  0  0  0  0  0  0  0  0  0  0  0
   -2.3233   -0.4615   -0.1451 C   0  0  0  0  0  0  0  0  0  0  0  0
   -1.3375   -1.3907    0.4978 C   0  0  0  0  0  0  0  0  0  0  0  0
   -0.0800   -1.5776   -0.3373 C   0  0  0  0  0  0  0  0  0  0  0  0
    2.8856    0.1840   -0.2623 H   0  0  0  0  0  0  0  0  0  0  0  0
    2.4414   -1.4458   -0.8415 H   0  0  0  0  0  0  0  0  0  0  0  0
    2.4101   -1.1670    0.9094 H   0  0  0  0  0  0  0  0  0  0  0  0
    0.9325    2.8679    0.3878 H   0  0  0  0  0  0  0  0  0  0  0  0
    2.1228    1.6648    0.9165 H   0  0  0  0  0  0  0  0  0  0  0  0
    1.9746    2.1595   -0.8623 H   0  0  0  0  0  0  0  0  0  0  0  0
   -1.0629    2.3950   -0.6336 H   0  0  0  0  0  0  0  0  0  0  0  0
   -1.4249    1.3885    0.8674 H   0  0  0  0  0  0  0  0  0  0  0  0
   -2.8639    0.0996    0.6723 H   0  0  0  0  0  0  0  0  0  0  0  0
   -3.1351   -1.0293   -0.6715 H   0  0  0  0  0  0  0  0  0  0  0  0
   -1.7534   -2.3533    0.7822 H   0  0  0  0  0  0  0  0  0  0  0  0
   -0.9869   -0.8827    1.4442 H   0  0  0  0  0  0  0  0  0  0  0  0
   -0.2790   -1.6745   -1.4030 H   0  0  0  0  0  0  0  0  0  0  0  0
    0.4565   -2.4588    0.0856 H   0  0  0  0  0  0  0  0  0  0  0  0
  1  2  1  0
  2  3  2  0
  3  4  1  0
  3  5  1  0
  5  6  1  0
  6  7  1  0
  7  8  1  0
  8  9  1  0
  9  2  1  0
  1 10  1  0
  1 11  1  0
  1 12  1  0
  4 13  1  0
  4 14  1  0
  4 15  1  0
  5 16  1  0
  5 17  1  0
  7 18  1  0
  7 19  1  0
  8 20  1  0
  8 21  1  0
  9 22  1  0
  9 23  1  0
M  END
