
     RDKit          3D

 23 23  0  0  0  0  0  0  0  0999 V2000
    2.6035   -0.7089   -0.2997 C   0  0  0  0  0  0  0  0  0  0  0  0
    1.2763   -0.0954   -0.0225 C   0  0  0  0  0  0  0  0  0  0  0  0
    1.1010    1.0880   -0.5873 C   0  0  0  0  0  0  0  0  0  0  0  0
   -0.0813    1.9694   -0.5230 C   0  0  0  0  0  0  0  0  0  0  0  0
   -1.1948    1.7044    0.1669 C   0  0  0  0  0  0  0  0  0  0  0  0
   -1.5988    0.5823    1.0067 C   0  0  0  0  0  0  0  0  0  0  0  0
   -1.0560   -0.7471    0.5614 C   0  0  0  0  0  0  0  0  0  0  0  0
   -1.4027   -1.0213   -0.8685 C   0  0  0  0  0  0  0  0  0  0  0  0
    0.4154   -0.9161    0.8225 C   0  0  0  0  0  0  0  0  0  0  0  0
    3.3314   -0.1867    0.3689 H   0  0  0  0  0  0  0  0  0  0  0  0
    2.6168   -1.7960   -0.0886 H   0  0  0  0  0  0  0  0  0  0  0  0
    2.9169   -0.4904   -1.3349 H   0  0  0  0  0  0  0  0  0  0  0  0
    1.9285    1.4598   -1.1717 H   0  0  0  0  0  0  0  0  0  0  0  0
   -0.0504    2.8994   -1.0723 H   0  0  0  0  0  0  0  0  0  0  0  0
   -1.9325    2.4878    0.0738 H   0  0  0  0  0  0  0  0  0  0  0  0
   -2.7049    0.5030    0.9807 H   0  0  0  0  0  0  0  0  0  0  0  0
   -1.3041    0.7646    2.0524 H   0  0  0  0  0  0  0  0  0  0  0  0
   -1.5755   -1.5181    1.1853 H   0  0  0  0  0  0  0  0  0  0  0  0
   -1.9716   -0.1419   -1.2739 H   0  0  0  0  0  0  0  0  0  0  0  0
   -2.0697   -1.9179   -0.9932 H   0  0  0  0  0  0  0  0  0  0  0  0
   -0.5192   -1.2055   -1.5035 H   0  0  0  0  0  0  0  0  0  0  0  0
    0.6526   -1.9824    0.6254 H   0  0  0  0  0  0  0  0  0  0  0  0
    0.6190   -0.7311    1.8952 H   0  0  0  0  0  0  0  0  0  0  0  0
  1  2  1  0
  2  3  2  0
  3  4  1  0
  4  5  2  0
  5  6  1  0
  6  7  1  0
  7  8  1  0
  7  9  1  0
  9  2  1  0
  1 10  1  0
  1 11  1  0
  1 12  1  0
  3 13  1  0
  4 14  1  0
  5 15  1  0
  6 16  1  0
  6 17  1  0
  7 18  1  0
  8 19  1  0
  8 20  1  0
  8 21  1  0
  9 22  1  0
  9 23  1  0
M  END
