
     RDKit          3D

 17 18  0  0  0  0  0  0  0  0999 V2000
    2.4118    0.0955    0.0977 C   0  0  0  0  0  0  0  0  0  0  0  0
    0.9355    0.0815   -0.1042 C   0  0  0  0  0  0  0  0  0  0  0  0
    0.2572    0.9077   -0.8623 C   0  0  0  0  0  0  0  0  0  0  0  0
   -1.1939    0.6269   -0.8475 C   0  0  0  0  0  0  0  0  0  0  0  0
   -1.8515    1.2975    0.1924 O   0  0  0  0  0  0  0  0  0  0  0  0
   -2.2289    0.1212    0.7960 C   0  0  0  0  0  0  0  0  0  0  0  0
   -3.0122   -0.2212    1.7166 O   0  0  0  0  0  0  0  0  0  0  0  0
   -1.3150   -0.6494   -0.0930 C   0  0  0  0  0  0  0  0  0  0  0  0
    0.0098   -0.9102    0.5545 C   0  0  0  0  0  0  0  0  0  0  0  0
    2.7138    1.1069    0.4988 H   0  0  0  0  0  0  0  0  0  0  0  0
    2.7320   -0.7136    0.7861 H   0  0  0  0  0  0  0  0  0  0  0  0
    2.9097   -0.0973   -0.8697 H   0  0  0  0  0  0  0  0  0  0  0  0
    0.6979    1.7128   -1.4420 H   0  0  0  0  0  0  0  0  0  0  0  0
   -1.7200    0.7074   -1.8061 H   0  0  0  0  0  0  0  0  0  0  0  0
   -1.7805   -1.5071   -0.6120 H   0  0  0  0  0  0  0  0  0  0  0  0
    0.4226   -1.9086    0.3688 H   0  0  0  0  0  0  0  0  0  0  0  0
    0.0117   -0.6502    1.6257 H   0  0  0  0  0  0  0  0  0  0  0  0
  1  2  1  0
  2  3  2  0
  3  4  1  0
  4  5  1  0
  5  6  1  0
  6  7  2  0
  6  8  1  0
  8  9  1  0
  9  2  1  0
  8  4  1  0
  1 10  1  0
  1 11  1  0
  1 12  1  0
  3 13  1  0
  4 14  1  0
  8 15  1  0
  9 16  1  0
  9 17  1  0
M  END
