
     RDKit          3D

 21 23  0  0  0  0  0  0  0  0999 V2000
    2.9177   -0.1426    0.4026 C   0  0  0  0  0  0  0  0  0  0  0  0
    1.4358   -0.0943    0.2665 C   0  0  0  0  0  0  0  0  0  0  0  0
    0.6080   -1.1300    0.0180 C   0  0  0  0  0  0  0  0  0  0  0  0
   -0.7131   -0.5031   -0.0294 C   0  0  0  0  0  0  0  0  0  0  0  0
   -1.9046   -1.2659   -0.3194 C   0  0  0  0  0  0  0  0  0  0  0  0
   -0.6776    0.4759    1.0974 C   0  0  0  0  0  0  0  0  0  0  0  0
   -1.5173    1.3724    0.2378 C   0  0  0  0  0  0  0  0  0  0  0  0
   -0.4876    0.8257   -0.7126 C   0  0  0  0  0  0  0  0  0  0  0  0
    0.5040    1.0548    0.3626 C   0  0  0  0  0  0  0  0  0  0  0  0
    3.2314   -1.1551    0.7567 H   0  0  0  0  0  0  0  0  0  0  0  0
    3.2808    0.5584    1.2053 H   0  0  0  0  0  0  0  0  0  0  0  0
    3.4211    0.0284   -0.5487 H   0  0  0  0  0  0  0  0  0  0  0  0
    0.8383   -2.1780   -0.1176 H   0  0  0  0  0  0  0  0  0  0  0  0
   -1.6724   -2.3677   -0.3184 H   0  0  0  0  0  0  0  0  0  0  0  0
   -2.6816   -1.1284    0.4565 H   0  0  0  0  0  0  0  0  0  0  0  0
   -2.3471   -1.0872   -1.3427 H   0  0  0  0  0  0  0  0  0  0  0  0
   -0.7557    0.3071    2.0793 H   0  0  0  0  0  0  0  0  0  0  0  0
   -1.4096    2.4501    0.3929 H   0  0  0  0  0  0  0  0  0  0  0  0
   -2.5127    0.9735    0.0354 H   0  0  0  0  0  0  0  0  0  0  0  0
   -0.4214    0.9865   -1.6961 H   0  0  0  0  0  0  0  0  0  0  0  0
    0.8636    2.0195    0.6102 H   0  0  0  0  0  0  0  0  0  0  0  0
  1  2  1  0
  2  3  2  0
  3  4  1  0
  4  5  1  0
  4  6  1  0
  6  7  1  0
  7  8  1  0
  8  9  1  0
  9  2  1  0
  8  4  1  0
  9  6  1  0
  1 10  1  0
  1 11  1  0
  1 12  1  0
  3 13  1  0
  5 14  1  0
  5 15  1  0
  5 16  1  0
  6 17  1  0
  7 18  1  0
  7 19  1  0
  8 20  1  0
  9 21  1  0
M  END
