
     RDKit          3D

 17 18  0  0  0  0  0  0  0  0999 V2000
    1.9995   -1.0546   -0.0187 C   0  0  0  0  0  0  0  0  0  0  0  0
    0.7811   -0.1979    0.0570 C   0  0  0  0  0  0  0  0  0  0  0  0
   -0.4835   -0.5774   -0.0409 C   0  0  0  0  0  0  0  0  0  0  0  0
   -1.8267   -1.1946   -0.1748 C   0  0  0  0  0  0  0  0  0  0  0  0
   -2.2520    0.0409   -0.7445 O   0  0  0  0  0  0  0  0  0  0  0  0
   -1.3773    0.6365    0.1127 C   0  0  0  0  0  0  0  0  0  0  0  0
   -0.4610    1.6805   -0.4197 C   0  0  0  0  0  0  0  0  0  0  0  0
   -0.6439    2.6085   -1.1736 O   0  0  0  0  0  0  0  0  0  0  0  0
    0.8304    1.2713    0.2535 C   0  0  0  0  0  0  0  0  0  0  0  0
    2.6912   -0.7078   -0.8239 H   0  0  0  0  0  0  0  0  0  0  0  0
    2.5315   -1.0436    0.9567 H   0  0  0  0  0  0  0  0  0  0  0  0
    1.7494   -2.1123   -0.2375 H   0  0  0  0  0  0  0  0  0  0  0  0
   -2.3094   -1.3483    0.8118 H   0  0  0  0  0  0  0  0  0  0  0  0
   -1.8841   -2.0430   -0.8619 H   0  0  0  0  0  0  0  0  0  0  0  0
   -1.7030    0.7956    1.1551 H   0  0  0  0  0  0  0  0  0  0  0  0
    1.6972    1.7586   -0.1787 H   0  0  0  0  0  0  0  0  0  0  0  0
    0.6606    1.4878    1.3275 H   0  0  0  0  0  0  0  0  0  0  0  0
  1  2  1  0
  2  3  2  0
  3  4  1  0
  4  5  1  0
  5  6  1  0
  6  7  1  0
  7  8  2  0
  7  9  1  0
  9  2  1  0
  6  3  1  0
  1 10  1  0
  1 11  1  0
  1 12  1  0
  4 13  1  0
  4 14  1  0
  6 15  1  0
  9 16  1  0
  9 17  1  0
M  END
