
     RDKit          3D

 21 22  0  0  0  0  0  0  0  0999 V2000
   -1.5913   -1.8715   -0.0044 C   0  0  0  0  0  0  0  0  0  0  0  0
   -0.5077   -0.8987   -0.1944 C   0  0  0  0  0  0  0  0  0  0  0  0
    0.7699   -1.3267   -0.0431 C   0  0  0  0  0  0  0  0  0  0  0  0
    2.0414   -0.5611   -0.1764 C   0  0  0  0  0  0  0  0  0  0  0  0
    2.0833    0.6366    0.4480 O   0  0  0  0  0  0  0  0  0  0  0  0
    1.1726    1.5943    0.1054 C   0  0  0  0  0  0  0  0  0  0  0  0
   -0.1563    1.2809    0.6331 C   0  0  0  0  0  0  0  0  0  0  0  0
   -1.4697    1.5306    0.1590 C   0  0  0  0  0  0  0  0  0  0  0  0
   -0.8356    0.4754   -0.5357 C   0  0  0  0  0  0  0  0  0  0  0  0
   -1.9360   -2.3590   -0.9227 H   0  0  0  0  0  0  0  0  0  0  0  0
   -2.4621   -1.3215    0.4334 H   0  0  0  0  0  0  0  0  0  0  0  0
   -1.2367   -2.6451    0.7177 H   0  0  0  0  0  0  0  0  0  0  0  0
    0.8334   -2.4008    0.2138 H   0  0  0  0  0  0  0  0  0  0  0  0
    2.8297   -1.2078    0.3125 H   0  0  0  0  0  0  0  0  0  0  0  0
    2.3500   -0.5385   -1.2525 H   0  0  0  0  0  0  0  0  0  0  0  0
    1.1679    1.8328   -0.9886 H   0  0  0  0  0  0  0  0  0  0  0  0
    1.5200    2.5564    0.5889 H   0  0  0  0  0  0  0  0  0  0  0  0
   -0.0882    0.7419    1.6270 H   0  0  0  0  0  0  0  0  0  0  0  0
   -1.6816    2.4811   -0.3706 H   0  0  0  0  0  0  0  0  0  0  0  0
   -2.3438    1.2812    0.8262 H   0  0  0  0  0  0  0  0  0  0  0  0
   -0.4592    0.7195   -1.5766 H   0  0  0  0  0  0  0  0  0  0  0  0
  1  2  1  0
  2  3  2  0
  3  4  1  0
  4  5  1  0
  5  6  1  0
  6  7  1  0
  7  8  1  0
  8  9  1  0
  9  2  1  0
  9  7  1  0
  1 10  1  0
  1 11  1  0
  1 12  1  0
  3 13  1  0
  4 14  1  0
  4 15  1  0
  6 16  1  0
  6 17  1  0
  7 18  1  0
  8 19  1  0
  8 20  1  0
  9 21  1  0
M  END
