
     RDKit          3D

 19 21  0  0  0  0  0  0  0  0999 V2000
    2.6074    0.1525   -0.2908 C   0  0  0  0  0  0  0  0  0  0  0  0
    1.1285    0.1613   -0.1469 C   0  0  0  0  0  0  0  0  0  0  0  0
    0.2261    0.6289   -1.0010 C   0  0  0  0  0  0  0  0  0  0  0  0
   -1.1486    0.4496   -0.4834 C   0  0  0  0  0  0  0  0  0  0  0  0
   -2.0829    1.3706   -0.8522 O   0  0  0  0  0  0  0  0  0  0  0  0
   -1.5489   -0.9969   -0.5219 C   0  0  0  0  0  0  0  0  0  0  0  0
   -0.8426   -1.1602    0.8163 C   0  0  0  0  0  0  0  0  0  0  0  0
    0.4094   -0.3892    1.0398 C   0  0  0  0  0  0  0  0  0  0  0  0
   -0.8842    0.2874    0.9854 C   0  0  0  0  0  0  0  0  0  0  0  0
    3.0166   -0.8850   -0.1584 H   0  0  0  0  0  0  0  0  0  0  0  0
    2.9416    0.5612   -1.2609 H   0  0  0  0  0  0  0  0  0  0  0  0
    3.0944    0.7547    0.5295 H   0  0  0  0  0  0  0  0  0  0  0  0
    0.4582    1.0817   -1.9501 H   0  0  0  0  0  0  0  0  0  0  0  0
   -1.9514    2.1880   -0.2949 H   0  0  0  0  0  0  0  0  0  0  0  0
   -2.6443   -1.1424   -0.4759 H   0  0  0  0  0  0  0  0  0  0  0  0
   -1.0905   -1.6247   -1.2841 H   0  0  0  0  0  0  0  0  0  0  0  0
   -1.2307   -1.7898    1.6022 H   0  0  0  0  0  0  0  0  0  0  0  0
    0.9080   -0.4967    1.9963 H   0  0  0  0  0  0  0  0  0  0  0  0
   -1.3660    0.8491    1.7510 H   0  0  0  0  0  0  0  0  0  0  0  0
  1  2  1  0
  2  3  2  0
  3  4  1  0
  4  5  1  0
  4  6  1  0
  6  7  1  0
  7  8  1  0
  8  9  1  0
  8  2  1  0
  9  4  1  0
  9  7  1  0
  1 10  1  0
  1 11  1  0
  1 12  1  0
  3 13  1  0
  5 14  1  0
  6 15  1  0
  6 16  1  0
  7 17  1  0
  8 18  1  0
  9 19  1  0
M  END
