
     RDKit          3D

 23 23  0  0  0  0  0  0  0  0999 V2000
    3.2260   -0.0216    0.0804 C   0  0  0  0  0  0  0  0  0  0  0  0
    1.8064   -0.4681    0.1804 C   0  0  0  0  0  0  0  0  0  0  0  0
    0.8602    0.0370    0.9556 C   0  0  0  0  0  0  0  0  0  0  0  0
   -0.3938   -0.7363    0.7108 C   0  0  0  0  0  0  0  0  0  0  0  0
   -1.2837   -0.1186   -0.3088 C   0  0  0  0  0  0  0  0  0  0  0  0
   -1.6977    1.2661    0.1310 C   0  0  0  0  0  0  0  0  0  0  0  0
   -2.5327   -0.9609   -0.4421 C   0  0  0  0  0  0  0  0  0  0  0  0
    0.1018   -1.9333    0.1901 O   0  0  0  0  0  0  0  0  0  0  0  0
    1.1899   -1.5721   -0.5901 C   0  0  0  0  0  0  0  0  0  0  0  0
    3.9193   -0.7212    0.5929 H   0  0  0  0  0  0  0  0  0  0  0  0
    3.4927   -0.0215   -0.9951 H   0  0  0  0  0  0  0  0  0  0  0  0
    3.3413    0.9865    0.5312 H   0  0  0  0  0  0  0  0  0  0  0  0
    1.0377    0.8712    1.6292 H   0  0  0  0  0  0  0  0  0  0  0  0
   -0.9258   -0.9161    1.6611 H   0  0  0  0  0  0  0  0  0  0  0  0
   -0.8169   -0.0070   -1.3061 H   0  0  0  0  0  0  0  0  0  0  0  0
   -2.1770    1.2092    1.1398 H   0  0  0  0  0  0  0  0  0  0  0  0
   -0.7812    1.8743    0.2193 H   0  0  0  0  0  0  0  0  0  0  0  0
   -2.3871    1.6903   -0.6321 H   0  0  0  0  0  0  0  0  0  0  0  0
   -2.7919   -1.4371    0.5345 H   0  0  0  0  0  0  0  0  0  0  0  0
   -3.4255   -0.3244   -0.7040 H   0  0  0  0  0  0  0  0  0  0  0  0
   -2.4377   -1.6966   -1.2605 H   0  0  0  0  0  0  0  0  0  0  0  0
    1.8870   -2.4211   -0.7478 H   0  0  0  0  0  0  0  0  0  0  0  0
    0.7889   -1.2231   -1.5700 H   0  0  0  0  0  0  0  0  0  0  0  0
  1  2  1  0
  2  3  2  0
  3  4  1  0
  4  5  1  0
  5  6  1  0
  5  7  1  0
  4  8  1  0
  8  9  1  0
  9  2  1  0
  1 10  1  0
  1 11  1  0
  1 12  1  0
  3 13  1  0
  4 14  1  0
  5 15  1  0
  6 16  1  0
  6 17  1  0
  6 18  1  0
  7 19  1  0
  7 20  1  0
  7 21  1  0
  9 22  1  0
  9 23  1  0
M  END
