
     RDKit          3D

 17 18  0  0  0  0  0  0  0  0999 V2000
    2.4991   -0.3993    0.0246 C   0  0  0  0  0  0  0  0  0  0  0  0
    1.0970    0.0600    0.1585 C   0  0  0  0  0  0  0  0  0  0  0  0
    0.6863    1.3061   -0.0560 C   0  0  0  0  0  0  0  0  0  0  0  0
   -0.7462    1.3950    0.1677 C   0  0  0  0  0  0  0  0  0  0  0  0
   -1.4101    2.4475    0.0762 O   0  0  0  0  0  0  0  0  0  0  0  0
   -1.2570    0.0702    0.5092 C   0  0  0  0  0  0  0  0  0  0  0  0
   -2.5220   -0.4504    0.2231 C   0  0  0  0  0  0  0  0  0  0  0  0
   -2.1269   -0.0619    1.5896 O   0  0  0  0  0  0  0  0  0  0  0  0
   -0.0389   -0.7836    0.5448 C   0  0  0  0  0  0  0  0  0  0  0  0
    2.7109   -1.3177    0.5938 H   0  0  0  0  0  0  0  0  0  0  0  0
    3.1439    0.4006    0.4739 H   0  0  0  0  0  0  0  0  0  0  0  0
    2.7573   -0.5832   -1.0351 H   0  0  0  0  0  0  0  0  0  0  0  0
    1.3155    2.1298   -0.3511 H   0  0  0  0  0  0  0  0  0  0  0  0
   -2.6700   -1.5629    0.1324 H   0  0  0  0  0  0  0  0  0  0  0  0
   -3.3878    0.1778   -0.0671 H   0  0  0  0  0  0  0  0  0  0  0  0
    0.0806   -1.2417    1.5497 H   0  0  0  0  0  0  0  0  0  0  0  0
   -0.1317   -1.5863   -0.2297 H   0  0  0  0  0  0  0  0  0  0  0  0
  1  2  1  0
  2  3  2  0
  3  4  1  0
  4  5  2  0
  4  6  1  0
  6  7  1  0
  7  8  1  0
  6  9  1  0
  9  2  1  0
  8  6  1  0
  1 10  1  0
  1 11  1  0
  1 12  1  0
  3 13  1  0
  7 14  1  0
  7 15  1  0
  9 16  1  0
  9 17  1  0
M  END
