
     RDKit          3D

 23 24  0  0  0  0  0  0  0  0999 V2000
    2.6985   -0.8639    0.5157 C   0  0  0  0  0  0  0  0  0  0  0  0
    1.3710   -0.2963    0.1536 C   0  0  0  0  0  0  0  0  0  0  0  0
    0.2655   -1.0009    0.3386 C   0  0  0  0  0  0  0  0  0  0  0  0
   -1.0862   -0.4826   -0.0054 C   0  0  0  0  0  0  0  0  0  0  0  0
   -2.0683   -1.4948   -0.5860 C   0  0  0  0  0  0  0  0  0  0  0  0
   -1.7547    0.5097    0.9103 C   0  0  0  0  0  0  0  0  0  0  0  0
   -1.1549    0.8871   -0.4640 C   0  0  0  0  0  0  0  0  0  0  0  0
    0.0412    1.7403   -0.3720 C   0  0  0  0  0  0  0  0  0  0  0  0
    1.3548    1.0715   -0.4128 C   0  0  0  0  0  0  0  0  0  0  0  0
    3.3766   -0.0429    0.8427 H   0  0  0  0  0  0  0  0  0  0  0  0
    2.6374   -1.6450    1.2795 H   0  0  0  0  0  0  0  0  0  0  0  0
    3.1371   -1.2496   -0.4488 H   0  0  0  0  0  0  0  0  0  0  0  0
    0.3269   -1.9941    0.7548 H   0  0  0  0  0  0  0  0  0  0  0  0
   -1.6114   -2.4951   -0.6899 H   0  0  0  0  0  0  0  0  0  0  0  0
   -2.9456   -1.6137    0.0951 H   0  0  0  0  0  0  0  0  0  0  0  0
   -2.4782   -1.0993   -1.5397 H   0  0  0  0  0  0  0  0  0  0  0  0
   -2.8501    0.5389    0.9888 H   0  0  0  0  0  0  0  0  0  0  0  0
   -1.2251    0.8127    1.8099 H   0  0  0  0  0  0  0  0  0  0  0  0
   -1.9262    1.1140   -1.2556 H   0  0  0  0  0  0  0  0  0  0  0  0
   -0.0072    2.3867    0.5527 H   0  0  0  0  0  0  0  0  0  0  0  0
    0.0059    2.4881   -1.2171 H   0  0  0  0  0  0  0  0  0  0  0  0
    1.7937    1.0629   -1.4441 H   0  0  0  0  0  0  0  0  0  0  0  0
    2.0992    1.6664    0.1940 H   0  0  0  0  0  0  0  0  0  0  0  0
  1  2  1  0
  2  3  2  0
  3  4  1  0
  4  5  1  0
  4  6  1  0
  6  7  1  0
  7  8  1  0
  8  9  1  0
  9  2  1  0
  7  4  1  0
  1 10  1  0
  1 11  1  0
  1 12  1  0
  3 13  1  0
  5 14  1  0
  5 15  1  0
  5 16  1  0
  6 17  1  0
  6 18  1  0
  7 19  1  0
  8 20  1  0
  8 21  1  0
  9 22  1  0
  9 23  1  0
M  END
