
     RDKit          3D

 21 21  0  0  0  0  0  0  0  0999 V2000
   -2.4302    0.0230   -0.2726 C   0  0  0  0  0  0  0  0  0  0  0  0
   -1.0489    0.0053    0.3026 C   0  0  0  0  0  0  0  0  0  0  0  0
   -0.5180   -1.1921    0.1853 C   0  0  0  0  0  0  0  0  0  0  0  0
    0.7803   -1.7789    0.5638 C   0  0  0  0  0  0  0  0  0  0  0  0
    1.8386   -1.1132   -0.2735 C   0  0  0  0  0  0  0  0  0  0  0  0
    1.9836    0.1536   -0.6541 C   0  0  0  0  0  0  0  0  0  0  0  0
    1.2486    1.4490   -0.4704 C   0  0  0  0  0  0  0  0  0  0  0  0
    0.7062    1.5609    0.7870 O   0  0  0  0  0  0  0  0  0  0  0  0
   -0.6428    1.3251    0.8483 C   0  0  0  0  0  0  0  0  0  0  0  0
   -2.3154   -0.0533   -1.3872 H   0  0  0  0  0  0  0  0  0  0  0  0
   -3.0307   -0.8276    0.0548 H   0  0  0  0  0  0  0  0  0  0  0  0
   -2.9566    0.9554   -0.0668 H   0  0  0  0  0  0  0  0  0  0  0  0
   -1.1632   -1.9042   -0.2882 H   0  0  0  0  0  0  0  0  0  0  0  0
    0.9755   -1.4835    1.6264 H   0  0  0  0  0  0  0  0  0  0  0  0
    0.8218   -2.8684    0.4791 H   0  0  0  0  0  0  0  0  0  0  0  0
    2.5894   -1.7864   -0.6084 H   0  0  0  0  0  0  0  0  0  0  0  0
    2.8814    0.2426   -1.2569 H   0  0  0  0  0  0  0  0  0  0  0  0
    1.9791    2.2718   -0.6320 H   0  0  0  0  0  0  0  0  0  0  0  0
    0.4662    1.5685   -1.2753 H   0  0  0  0  0  0  0  0  0  0  0  0
   -1.2460    2.1513    0.3962 H   0  0  0  0  0  0  0  0  0  0  0  0
   -0.9190    1.3011    1.9420 H   0  0  0  0  0  0  0  0  0  0  0  0
  1  2  1  0
  2  3  2  3
  3  4  1  0
  4  5  1  0
  5  6  2  3
  6  7  1  0
  7  8  1  0
  8  9  1  0
  9  2  1  0
  1 10  1  0
  1 11  1  0
  1 12  1  0
  3 13  1  0
  4 14  1  0
  4 15  1  0
  5 16  1  0
  6 17  1  0
  7 18  1  0
  7 19  1  0
  9 20  1  0
  9 21  1  0
M  END
