
     RDKit          3D

 17 17  0  0  0  0  0  0  0  0999 V2000
   -2.2404   -0.6528    0.0613 C   0  0  0  0  0  0  0  0  0  0  0  0
   -0.8188   -0.2347   -0.0929 C   0  0  0  0  0  0  0  0  0  0  0  0
    0.1392   -0.9086   -0.6775 C   0  0  0  0  0  0  0  0  0  0  0  0
    1.4290   -0.1762   -0.6399 C   0  0  0  0  0  0  0  0  0  0  0  0
    2.4349   -0.9990   -0.1014 O   0  0  0  0  0  0  0  0  0  0  0  0
    1.1660    1.0354    0.1894 C   0  0  0  0  0  0  0  0  0  0  0  0
   -0.3110    1.0669    0.4315 C   0  0  0  0  0  0  0  0  0  0  0  0
   -2.5399   -0.6141    1.1479 H   0  0  0  0  0  0  0  0  0  0  0  0
   -2.9154    0.0597   -0.4476 H   0  0  0  0  0  0  0  0  0  0  0  0
   -2.3786   -1.6981   -0.2787 H   0  0  0  0  0  0  0  0  0  0  0  0
    0.0459   -1.8813   -1.1427 H   0  0  0  0  0  0  0  0  0  0  0  0
    1.7265    0.0280   -1.6785 H   0  0  0  0  0  0  0  0  0  0  0  0
    2.4801   -0.9479    0.8699 H   0  0  0  0  0  0  0  0  0  0  0  0
    1.5311    1.9761   -0.2244 H   0  0  0  0  0  0  0  0  0  0  0  0
    1.6573    0.8941    1.1871 H   0  0  0  0  0  0  0  0  0  0  0  0
   -0.8356    1.8584   -0.1193 H   0  0  0  0  0  0  0  0  0  0  0  0
   -0.5703    1.1942    1.5161 H   0  0  0  0  0  0  0  0  0  0  0  0
  1  2  1  0
  2  3  2  0
  3  4  1  0
  4  5  1  0
  4  6  1  0
  6  7  1  0
  7  2  1  0
  1  8  1  0
  1  9  1  0
  1 10  1  0
  3 11  1  0
  4 12  1  0
  5 13  1  0
  6 14  1  0
  6 15  1  0
  7 16  1  0
  7 17  1  0
M  END
