
     RDKit          3D

 21 22  0  0  0  0  0  0  0  0999 V2000
   -1.6529    1.5432   -0.3926 C   0  0  0  0  0  0  0  0  0  0  0  0
   -0.4046    0.7280   -0.2929 C   0  0  0  0  0  0  0  0  0  0  0  0
    0.8052    0.9637   -0.7800 C   0  0  0  0  0  0  0  0  0  0  0  0
    1.6806   -0.1023   -0.4220 C   0  0  0  0  0  0  0  0  0  0  0  0
    2.2232    0.0517    0.9968 C   0  0  0  0  0  0  0  0  0  0  0  0
    1.9112   -1.3273   -0.8363 O   0  0  0  0  0  0  0  0  0  0  0  0
    0.6331   -1.2395   -0.6349 C   0  0  0  0  0  0  0  0  0  0  0  0
   -0.2777   -0.6329    0.3824 C   0  0  0  0  0  0  0  0  0  0  0  0
   -1.6337   -1.2887    0.2832 C   0  0  0  0  0  0  0  0  0  0  0  0
   -1.7829    2.2273    0.4642 H   0  0  0  0  0  0  0  0  0  0  0  0
   -2.5540    0.9375   -0.4750 H   0  0  0  0  0  0  0  0  0  0  0  0
   -1.5625    2.1383   -1.3383 H   0  0  0  0  0  0  0  0  0  0  0  0
    1.0288    1.8578   -1.3589 H   0  0  0  0  0  0  0  0  0  0  0  0
    3.3451    0.1162    0.8572 H   0  0  0  0  0  0  0  0  0  0  0  0
    1.9454    1.0050    1.4750 H   0  0  0  0  0  0  0  0  0  0  0  0
    2.0617   -0.8388    1.6135 H   0  0  0  0  0  0  0  0  0  0  0  0
    0.0876   -1.1921   -1.6366 H   0  0  0  0  0  0  0  0  0  0  0  0
    0.0508   -0.5871    1.4004 H   0  0  0  0  0  0  0  0  0  0  0  0
   -1.8599   -1.3600   -0.8181 H   0  0  0  0  0  0  0  0  0  0  0  0
   -2.4355   -0.7149    0.7509 H   0  0  0  0  0  0  0  0  0  0  0  0
   -1.6091   -2.2849    0.7620 H   0  0  0  0  0  0  0  0  0  0  0  0
  1  2  1  0
  2  3  2  0
  3  4  1  0
  4  5  1  0
  4  6  1  0
  6  7  1  0
  7  8  1  0
  8  9  1  0
  8  2  1  0
  7  4  1  0
  1 10  1  0
  1 11  1  0
  1 12  1  0
  3 13  1  0
  5 14  1  0
  5 15  1  0
  5 16  1  0
  7 17  1  0
  8 18  1  0
  9 19  1  0
  9 20  1  0
  9 21  1  0
M  END
