
     RDKit          3D

 25 25  0  0  0  0  0  0  0  0999 V2000
   -2.0831   -1.0572    0.9820 C   0  0  0  0  0  0  0  0  0  0  0  0
   -0.7914   -0.6426    0.3948 C   0  0  0  0  0  0  0  0  0  0  0  0
    0.2696   -1.3205    0.8176 C   0  0  0  0  0  0  0  0  0  0  0  0
    1.6939   -1.2950    0.5538 C   0  0  0  0  0  0  0  0  0  0  0  0
    2.2927   -0.0868   -0.0052 C   0  0  0  0  0  0  0  0  0  0  0  0
    1.5733    0.5722   -1.1289 C   0  0  0  0  0  0  0  0  0  0  0  0
    0.4163    1.3441   -0.5141 C   0  0  0  0  0  0  0  0  0  0  0  0
   -0.7844    0.4491   -0.5783 C   0  0  0  0  0  0  0  0  0  0  0  0
   -2.0020    1.3549   -0.4485 C   0  0  0  0  0  0  0  0  0  0  0  0
   -2.5071   -1.9288    0.4329 H   0  0  0  0  0  0  0  0  0  0  0  0
   -2.8040   -0.2288    1.0987 H   0  0  0  0  0  0  0  0  0  0  0  0
   -1.8779   -1.4314    2.0204 H   0  0  0  0  0  0  0  0  0  0  0  0
    0.0044   -2.1052    1.5576 H   0  0  0  0  0  0  0  0  0  0  0  0
    1.9397   -2.1695   -0.1184 H   0  0  0  0  0  0  0  0  0  0  0  0
    2.2430   -1.5395    1.5097 H   0  0  0  0  0  0  0  0  0  0  0  0
    2.4659    0.7036    0.7833 H   0  0  0  0  0  0  0  0  0  0  0  0
    3.3293   -0.3248   -0.3721 H   0  0  0  0  0  0  0  0  0  0  0  0
    2.2122    1.2066   -1.7491 H   0  0  0  0  0  0  0  0  0  0  0  0
    1.1846   -0.2390   -1.8084 H   0  0  0  0  0  0  0  0  0  0  0  0
    0.2381    2.3077   -0.9843 H   0  0  0  0  0  0  0  0  0  0  0  0
    0.6045    1.5476    0.5789 H   0  0  0  0  0  0  0  0  0  0  0  0
   -0.8300    0.0629   -1.6400 H   0  0  0  0  0  0  0  0  0  0  0  0
   -2.9355    0.8341   -0.7001 H   0  0  0  0  0  0  0  0  0  0  0  0
   -1.8732    2.1583   -1.2121 H   0  0  0  0  0  0  0  0  0  0  0  0
   -1.9789    1.8282    0.5299 H   0  0  0  0  0  0  0  0  0  0  0  0
  1  2  1  0
  2  3  2  0
  3  4  1  0
  4  5  1  0
  5  6  1  0
  6  7  1  0
  7  8  1  0
  8  9  1  0
  8  2  1  0
  1 10  1  0
  1 11  1  0
  1 12  1  0
  3 13  1  0
  4 14  1  0
  4 15  1  0
  5 16  1  0
  5 17  1  0
  6 18  1  0
  6 19  1  0
  7 20  1  0
  7 21  1  0
  8 22  1  0
  9 23  1  0
  9 24  1  0
  9 25  1  0
M  END
