
     RDKit          2D

 19 21  0  0  0  0  0  0  0  0999 V2000
   -3.7008   -2.8452    0.0000 C   0  0  0  0  0  0  0  0  0  0  0  0
   -2.4872   -1.9635    0.0000 C   0  0  0  0  0  0  0  0  0  0  0  0
   -2.4872   -0.4635    0.0000 C   0  0  0  0  0  0  0  0  0  0  0  0
   -1.0607    0.0000    0.0000 C   0  0  0  0  0  0  0  0  0  0  0  0
   -2.1213   -1.0607    0.0000 C   0  0  0  0  0  0  0  0  0  0  0  0
   -1.0607   -2.1213    0.0000 C   0  0  0  0  0  0  0  0  0  0  0  0
   -0.0000   -1.0607    0.0000 C   0  0  0  0  0  0  0  0  0  0  0  0
    1.0607    0.0000    0.0000 C   0  0  0  0  0  0  0  0  0  0  0  0
    0.0000    1.0607    0.0000 O   0  0  0  0  0  0  0  0  0  0  0  0
   -4.9143   -3.7269    0.0000 H   0  0  0  0  0  0  0  0  0  0  0  0
   -2.8191   -4.0587    0.0000 H   0  0  0  0  0  0  0  0  0  0  0  0
   -4.5824   -1.6317    0.0000 H   0  0  0  0  0  0  0  0  0  0  0  0
   -3.4745    0.4572    0.0000 H   0  0  0  0  0  0  0  0  0  0  0  0
   -3.4071   -1.8331    0.0000 H   0  0  0  0  0  0  0  0  0  0  0  0
   -2.7495   -0.5699    0.0000 H   0  0  0  0  0  0  0  0  0  0  0  0
   -1.0607   -3.6213    0.0000 H   0  0  0  0  0  0  0  0  0  0  0  0
    1.0607   -2.1213    0.0000 H   0  0  0  0  0  0  0  0  0  0  0  0
    2.1213    1.0607    0.0000 H   0  0  0  0  0  0  0  0  0  0  0  0
    2.1213   -1.0607    0.0000 H   0  0  0  0  0  0  0  0  0  0  0  0
  1  2  1  0
  2  3  2  0
  3  4  1  0
  4  5  1  0
  5  6  1  0
  6  7  1  0
  7  8  1  0
  8  9  1  0
  6  2  1  0
  7  4  1  0
  9  4  1  0
  1 10  1  0
  1 11  1  0
  1 12  1  0
  3 13  1  0
  5 14  1  0
  5 15  1  0
  6 16  1  0
  7 17  1  0
  8 18  1  0
  8 19  1  0
M  END
