
     RDKit          3D

 19 20  0  0  0  0  0  0  0  0999 V2000
    2.2994   -0.7749    0.2016 C   0  0  0  0  0  0  0  0  0  0  0  0
    0.9965   -0.1088    0.0081 C   0  0  0  0  0  0  0  0  0  0  0  0
    0.9351    1.2074    0.0541 C   0  0  0  0  0  0  0  0  0  0  0  0
   -0.3291    1.9616   -0.1289 C   0  0  0  0  0  0  0  0  0  0  0  0
   -1.3952    1.1533    0.1806 O   0  0  0  0  0  0  0  0  0  0  0  0
   -1.3692   -0.0114   -0.5499 C   0  0  0  0  0  0  0  0  0  0  0  0
   -2.1065   -1.1078    0.1911 C   0  0  0  0  0  0  0  0  0  0  0  0
   -0.9033   -1.3444    0.8901 O   0  0  0  0  0  0  0  0  0  0  0  0
   -0.2153   -0.9033   -0.2332 C   0  0  0  0  0  0  0  0  0  0  0  0
    2.9110   -0.1654    0.9034 H   0  0  0  0  0  0  0  0  0  0  0  0
    2.2115   -1.8264    0.5076 H   0  0  0  0  0  0  0  0  0  0  0  0
    2.8372   -0.7123   -0.7881 H   0  0  0  0  0  0  0  0  0  0  0  0
    1.8364    1.8243    0.2330 H   0  0  0  0  0  0  0  0  0  0  0  0
   -0.3984    2.2664   -1.2054 H   0  0  0  0  0  0  0  0  0  0  0  0
   -0.2964    2.8558    0.5182 H   0  0  0  0  0  0  0  0  0  0  0  0
   -1.5659    0.0496   -1.6230 H   0  0  0  0  0  0  0  0  0  0  0  0
   -2.3914   -1.9137   -0.5023 H   0  0  0  0  0  0  0  0  0  0  0  0
   -2.9298   -0.7299    0.8352 H   0  0  0  0  0  0  0  0  0  0  0  0
   -0.1265   -1.7202   -0.9780 H   0  0  0  0  0  0  0  0  0  0  0  0
  1  2  1  0
  2  3  2  0
  3  4  1  0
  4  5  1  0
  5  6  1  0
  6  7  1  0
  7  8  1  0
  8  9  1  0
  9  2  1  0
  9  6  1  0
  1 10  1  0
  1 11  1  0
  1 12  1  0
  3 13  1  0
  4 14  1  0
  4 15  1  0
  6 16  1  0
  7 17  1  0
  7 18  1  0
  9 19  1  0
M  END
