
     RDKit          3D

 17 17  0  0  0  0  0  0  0  0999 V2000
    2.3124   -0.1792    0.2784 C   0  0  0  0  0  0  0  0  0  0  0  0
    0.8749   -0.0021    0.0387 C   0  0  0  0  0  0  0  0  0  0  0  0
    0.3988    1.2362   -0.0087 C   0  0  0  0  0  0  0  0  0  0  0  0
   -0.9801    1.7020   -0.2307 C   0  0  0  0  0  0  0  0  0  0  0  0
   -1.1516    2.9016   -0.5663 O   0  0  0  0  0  0  0  0  0  0  0  0
   -2.0919    0.8786   -0.0861 O   0  0  0  0  0  0  0  0  0  0  0  0
   -2.1781   -0.5365    0.0831 C   0  0  0  0  0  0  0  0  0  0  0  0
   -1.0720   -1.0808    0.6691 O   0  0  0  0  0  0  0  0  0  0  0  0
    0.0208   -1.2295   -0.1399 C   0  0  0  0  0  0  0  0  0  0  0  0
    2.6454   -1.1017   -0.1967 H   0  0  0  0  0  0  0  0  0  0  0  0
    2.8396    0.7229   -0.1079 H   0  0  0  0  0  0  0  0  0  0  0  0
    2.4877   -0.2386    1.3882 H   0  0  0  0  0  0  0  0  0  0  0  0
    1.1233    2.0225    0.1358 H   0  0  0  0  0  0  0  0  0  0  0  0
   -3.0369   -0.6816    0.8038 H   0  0  0  0  0  0  0  0  0  0  0  0
   -2.5013   -1.0429   -0.8467 H   0  0  0  0  0  0  0  0  0  0  0  0
   -0.2885   -1.2191   -1.2222 H   0  0  0  0  0  0  0  0  0  0  0  0
    0.5974   -2.1519    0.0080 H   0  0  0  0  0  0  0  0  0  0  0  0
  1  2  1  0
  2  3  2  0
  3  4  1  0
  4  5  2  0
  4  6  1  0
  6  7  1  0
  7  8  1  0
  8  9  1  0
  9  2  1  0
  1 10  1  0
  1 11  1  0
  1 12  1  0
  3 13  1  0
  7 14  1  0
  7 15  1  0
  9 16  1  0
  9 17  1  0
M  END
