
     RDKit          3D

 19 19  0  0  0  0  0  0  0  0999 V2000
    0.3090   -2.0314   -0.1010 C   0  0  0  0  0  0  0  0  0  0  0  0
   -0.2647   -0.6722    0.1013 C   0  0  0  0  0  0  0  0  0  0  0  0
    0.3302    0.4595   -0.1824 C   0  0  0  0  0  0  0  0  0  0  0  0
    1.6922    0.6045   -0.7594 C   0  0  0  0  0  0  0  0  0  0  0  0
    2.5431    1.3254    0.0685 O   0  0  0  0  0  0  0  0  0  0  0  0
   -0.5297    1.5912    0.1347 C   0  0  0  0  0  0  0  0  0  0  0  0
   -0.1801    2.7687    0.3223 O   0  0  0  0  0  0  0  0  0  0  0  0
   -1.8966    1.0164    0.1801 C   0  0  0  0  0  0  0  0  0  0  0  0
   -1.5942   -0.3790    0.6659 C   0  0  0  0  0  0  0  0  0  0  0  0
   -0.1336   -2.7019    0.6827 H   0  0  0  0  0  0  0  0  0  0  0  0
    0.0328   -2.4705   -1.0752 H   0  0  0  0  0  0  0  0  0  0  0  0
    1.3900   -2.0337    0.0218 H   0  0  0  0  0  0  0  0  0  0  0  0
    2.1361   -0.3836   -0.9175 H   0  0  0  0  0  0  0  0  0  0  0  0
    1.6772    1.1174   -1.7387 H   0  0  0  0  0  0  0  0  0  0  0  0
    3.2811    0.7766    0.4402 H   0  0  0  0  0  0  0  0  0  0  0  0
   -2.5482    1.5766    0.8748 H   0  0  0  0  0  0  0  0  0  0  0  0
   -2.3419    0.9553   -0.8444 H   0  0  0  0  0  0  0  0  0  0  0  0
   -2.3573   -1.1134    0.3442 H   0  0  0  0  0  0  0  0  0  0  0  0
   -1.5454   -0.4058    1.7821 H   0  0  0  0  0  0  0  0  0  0  0  0
  1  2  1  0
  2  3  2  0
  3  4  1  0
  4  5  1  0
  3  6  1  0
  6  7  2  0
  6  8  1  0
  8  9  1  0
  9  2  1  0
  1 10  1  0
  1 11  1  0
  1 12  1  0
  4 13  1  0
  4 14  1  0
  5 15  1  0
  8 16  1  0
  8 17  1  0
  9 18  1  0
  9 19  1  0
M  END
