
     RDKit          3D

 19 20  0  0  0  0  0  0  0  0999 V2000
    2.4038    0.1171    0.1352 C   0  0  0  0  0  0  0  0  0  0  0  0
    0.9436    0.1895   -0.0156 C   0  0  0  0  0  0  0  0  0  0  0  0
    0.2497    1.1658    0.5445 C   0  0  0  0  0  0  0  0  0  0  0  0
   -1.1246    1.4088    0.0270 C   0  0  0  0  0  0  0  0  0  0  0  0
   -1.6857    0.1067   -0.4879 C   0  0  0  0  0  0  0  0  0  0  0  0
   -1.5987   -0.9920    0.5061 C   0  0  0  0  0  0  0  0  0  0  0  0
   -0.5234   -1.6914    0.1910 C   0  0  0  0  0  0  0  0  0  0  0  0
    0.2284   -0.8368   -0.8016 C   0  0  0  0  0  0  0  0  0  0  0  0
   -0.8326   -0.3040   -1.5319 O   0  0  0  0  0  0  0  0  0  0  0  0
    2.7060   -0.9439    0.3810 H   0  0  0  0  0  0  0  0  0  0  0  0
    2.7809    0.7178    0.9978 H   0  0  0  0  0  0  0  0  0  0  0  0
    2.8795    0.4516   -0.8091 H   0  0  0  0  0  0  0  0  0  0  0  0
    0.6716    1.7754    1.3616 H   0  0  0  0  0  0  0  0  0  0  0  0
   -1.7801    1.8868    0.7786 H   0  0  0  0  0  0  0  0  0  0  0  0
   -1.0392    2.0867   -0.8605 H   0  0  0  0  0  0  0  0  0  0  0  0
   -2.7250    0.1877   -0.8267 H   0  0  0  0  0  0  0  0  0  0  0  0
   -2.2516   -1.2231    1.3383 H   0  0  0  0  0  0  0  0  0  0  0  0
   -0.1668   -2.6522    0.5056 H   0  0  0  0  0  0  0  0  0  0  0  0
    0.8642   -1.4508   -1.4335 H   0  0  0  0  0  0  0  0  0  0  0  0
  1  2  1  0
  2  3  2  0
  3  4  1  0
  4  5  1  0
  5  6  1  0
  6  7  2  0
  7  8  1  0
  8  9  1  0
  8  2  1  0
  9  5  1  0
  1 10  1  0
  1 11  1  0
  1 12  1  0
  3 13  1  0
  4 14  1  0
  4 15  1  0
  5 16  1  0
  6 17  1  0
  7 18  1  0
  8 19  1  0
M  END
