
     RDKit          3D

 13 13  0  0  0  0  0  0  0  0999 V2000
    1.8832   -0.0775   -0.0459 C   0  0  0  0  0  0  0  0  0  0  0  0
    0.4136    0.0997    0.0246 C   0  0  0  0  0  0  0  0  0  0  0  0
   -0.4618   -0.8546   -0.2164 C   0  0  0  0  0  0  0  0  0  0  0  0
   -1.8250   -0.3271   -0.0540 C   0  0  0  0  0  0  0  0  0  0  0  0
   -1.6443    1.0218    0.3032 O   0  0  0  0  0  0  0  0  0  0  0  0
   -0.3066    1.3090    0.3588 C   0  0  0  0  0  0  0  0  0  0  0  0
    0.1700    2.4578    0.6580 O   0  0  0  0  0  0  0  0  0  0  0  0
    2.1513   -1.1568   -0.0826 H   0  0  0  0  0  0  0  0  0  0  0  0
    2.3887    0.3294    0.8515 H   0  0  0  0  0  0  0  0  0  0  0  0
    2.2145    0.4327   -0.9842 H   0  0  0  0  0  0  0  0  0  0  0  0
   -0.2643   -1.8947   -0.4972 H   0  0  0  0  0  0  0  0  0  0  0  0
   -2.3507   -0.9181    0.7208 H   0  0  0  0  0  0  0  0  0  0  0  0
   -2.3684   -0.4217   -1.0366 H   0  0  0  0  0  0  0  0  0  0  0  0
  1  2  1  0
  2  3  2  0
  3  4  1  0
  4  5  1  0
  5  6  1  0
  6  7  2  0
  6  2  1  0
  1  8  1  0
  1  9  1  0
  1 10  1  0
  3 11  1  0
  4 12  1  0
  4 13  1  0
M  END
