
     RDKit          3D

 21 22  0  0  0  0  0  0  0  0999 V2000
   -2.1099   -0.8337    0.4738 C   0  0  0  0  0  0  0  0  0  0  0  0
   -0.6746   -0.6197    0.0804 C   0  0  0  0  0  0  0  0  0  0  0  0
   -0.1072    0.5359   -0.2509 C   0  0  0  0  0  0  0  0  0  0  0  0
   -0.8373    1.8353   -0.2818 C   0  0  0  0  0  0  0  0  0  0  0  0
   -0.2789    2.7510    0.5922 O   0  0  0  0  0  0  0  0  0  0  0  0
    1.3161    0.3745   -0.5800 C   0  0  0  0  0  0  0  0  0  0  0  0
    2.2974   -0.2093    0.3397 C   0  0  0  0  0  0  0  0  0  0  0  0
    1.5131   -1.1004   -0.5978 C   0  0  0  0  0  0  0  0  0  0  0  0
    0.3053   -1.7330    0.0187 C   0  0  0  0  0  0  0  0  0  0  0  0
   -2.7864   -0.1408   -0.0781 H   0  0  0  0  0  0  0  0  0  0  0  0
   -2.2264   -0.6926    1.5664 H   0  0  0  0  0  0  0  0  0  0  0  0
   -2.4297   -1.8610    0.1572 H   0  0  0  0  0  0  0  0  0  0  0  0
   -0.7024    2.2319   -1.3254 H   0  0  0  0  0  0  0  0  0  0  0  0
   -1.9239    1.7153   -0.1468 H   0  0  0  0  0  0  0  0  0  0  0  0
   -1.0205    3.3598    0.8986 H   0  0  0  0  0  0  0  0  0  0  0  0
    1.7062    0.9528   -1.4624 H   0  0  0  0  0  0  0  0  0  0  0  0
    3.3549   -0.1065    0.0711 H   0  0  0  0  0  0  0  0  0  0  0  0
    2.1251   -0.3374    1.4222 H   0  0  0  0  0  0  0  0  0  0  0  0
    1.9837   -1.5182   -1.4938 H   0  0  0  0  0  0  0  0  0  0  0  0
    0.5588   -1.9829    1.0900 H   0  0  0  0  0  0  0  0  0  0  0  0
   -0.0634   -2.6210   -0.4931 H   0  0  0  0  0  0  0  0  0  0  0  0
  1  2  1  0
  2  3  2  0
  3  4  1  0
  4  5  1  0
  3  6  1  0
  6  7  1  0
  7  8  1  0
  8  9  1  0
  9  2  1  0
  8  6  1  0
  1 10  1  0
  1 11  1  0
  1 12  1  0
  4 13  1  0
  4 14  1  0
  5 15  1  0
  6 16  1  0
  7 17  1  0
  7 18  1  0
  8 19  1  0
  9 20  1  0
  9 21  1  0
M  END
