
     RDKit          3D

 19 20  0  0  0  0  0  0  0  0999 V2000
   -0.9382    1.9590   -0.4171 C   0  0  0  0  0  0  0  0  0  0  0  0
   -0.8863    0.5232   -0.0311 C   0  0  0  0  0  0  0  0  0  0  0  0
   -1.7589   -0.0715    0.7778 C   0  0  0  0  0  0  0  0  0  0  0  0
   -1.3165   -1.5108    0.8814 C   0  0  0  0  0  0  0  0  0  0  0  0
    0.0796   -1.3341    0.7292 O   0  0  0  0  0  0  0  0  0  0  0  0
    0.0798   -0.5328   -0.4208 C   0  0  0  0  0  0  0  0  0  0  0  0
    1.4505    0.0179   -0.7294 C   0  0  0  0  0  0  0  0  0  0  0  0
    2.5944   -0.5365    0.0292 C   0  0  0  0  0  0  0  0  0  0  0  0
    2.0500    0.8130    0.2156 O   0  0  0  0  0  0  0  0  0  0  0  0
   -0.5811    2.6183    0.4117 H   0  0  0  0  0  0  0  0  0  0  0  0
   -0.3234    2.1849   -1.2942 H   0  0  0  0  0  0  0  0  0  0  0  0
   -1.9950    2.2254   -0.7081 H   0  0  0  0  0  0  0  0  0  0  0  0
   -2.6245    0.3239    1.2894 H   0  0  0  0  0  0  0  0  0  0  0  0
   -1.6333   -2.0768   -0.0170 H   0  0  0  0  0  0  0  0  0  0  0  0
   -1.5816   -1.9642    1.8311 H   0  0  0  0  0  0  0  0  0  0  0  0
   -0.3254   -1.1410   -1.2311 H   0  0  0  0  0  0  0  0  0  0  0  0
    1.6325    0.1751   -1.8117 H   0  0  0  0  0  0  0  0  0  0  0  0
    3.6096   -0.4868   -0.4167 H   0  0  0  0  0  0  0  0  0  0  0  0
    2.4677   -1.1861    0.9116 H   0  0  0  0  0  0  0  0  0  0  0  0
  1  2  1  0
  2  3  2  0
  3  4  1  0
  4  5  1  0
  5  6  1  0
  6  7  1  0
  7  8  1  0
  8  9  1  0
  6  2  1  0
  9  7  1  0
  1 10  1  0
  1 11  1  0
  1 12  1  0
  3 13  1  0
  4 14  1  0
  4 15  1  0
  6 16  1  0
  7 17  1  0
  8 18  1  0
  8 19  1  0
M  END
