
     RDKit          3D

 21 21  0  0  0  0  0  0  0  0999 V2000
   -0.0669    2.0949    0.0930 C   0  0  0  0  0  0  0  0  0  0  0  0
   -0.3350    0.6497    0.2351 C   0  0  0  0  0  0  0  0  0  0  0  0
    0.4763   -0.3147   -0.1524 C   0  0  0  0  0  0  0  0  0  0  0  0
    1.7710    0.0592   -0.7861 C   0  0  0  0  0  0  0  0  0  0  0  0
    2.8644   -0.4313   -0.0625 O   0  0  0  0  0  0  0  0  0  0  0  0
    0.1856   -1.7606    0.0007 C   0  0  0  0  0  0  0  0  0  0  0  0
   -1.0302   -2.0131    0.6093 O   0  0  0  0  0  0  0  0  0  0  0  0
   -1.9785   -1.0859    0.1802 C   0  0  0  0  0  0  0  0  0  0  0  0
   -1.6129    0.2326    0.8602 C   0  0  0  0  0  0  0  0  0  0  0  0
    0.9650    2.3825    0.3569 H   0  0  0  0  0  0  0  0  0  0  0  0
   -0.3134    2.3624   -0.9678 H   0  0  0  0  0  0  0  0  0  0  0  0
   -0.7396    2.6845    0.7444 H   0  0  0  0  0  0  0  0  0  0  0  0
    1.8562   -0.4309   -1.8006 H   0  0  0  0  0  0  0  0  0  0  0  0
    1.8537    1.1453   -0.9952 H   0  0  0  0  0  0  0  0  0  0  0  0
    3.5992    0.2409   -0.0188 H   0  0  0  0  0  0  0  0  0  0  0  0
    0.1569   -2.2038   -1.0148 H   0  0  0  0  0  0  0  0  0  0  0  0
    1.0311   -2.2366    0.5369 H   0  0  0  0  0  0  0  0  0  0  0  0
   -1.8212   -0.9777   -0.9220 H   0  0  0  0  0  0  0  0  0  0  0  0
   -3.0114   -1.3883    0.4027 H   0  0  0  0  0  0  0  0  0  0  0  0
   -2.4176    0.9775    0.7629 H   0  0  0  0  0  0  0  0  0  0  0  0
   -1.4328    0.0133    1.9377 H   0  0  0  0  0  0  0  0  0  0  0  0
  1  2  1  0
  2  3  2  0
  3  4  1  0
  4  5  1  0
  3  6  1  0
  6  7  1  0
  7  8  1  0
  8  9  1  0
  9  2  1  0
  1 10  1  0
  1 11  1  0
  1 12  1  0
  4 13  1  0
  4 14  1  0
  5 15  1  0
  6 16  1  0
  6 17  1  0
  8 18  1  0
  8 19  1  0
  9 20  1  0
  9 21  1  0
M  END
