
     RDKit          3D

 23 24  0  0  0  0  0  0  0  0999 V2000
   -2.5489   -0.5084   -0.9553 C   0  0  0  0  0  0  0  0  0  0  0  0
   -1.3135    0.0292   -0.3510 C   0  0  0  0  0  0  0  0  0  0  0  0
   -0.3992    0.7753   -0.9652 C   0  0  0  0  0  0  0  0  0  0  0  0
    0.6568    1.1825    0.0339 C   0  0  0  0  0  0  0  0  0  0  0  0
   -0.2570    1.2557    1.2742 C   0  0  0  0  0  0  0  0  0  0  0  0
   -0.8485   -0.1480    1.0332 C   0  0  0  0  0  0  0  0  0  0  0  0
    0.4320   -0.9510    0.9917 C   0  0  0  0  0  0  0  0  0  0  0  0
    1.4828    0.0038    0.4160 C   0  0  0  0  0  0  0  0  0  0  0  0
    2.2475   -0.6137   -0.7076 C   0  0  0  0  0  0  0  0  0  0  0  0
   -2.7216   -1.5202   -0.4991 H   0  0  0  0  0  0  0  0  0  0  0  0
   -2.3874   -0.5818   -2.0470 H   0  0  0  0  0  0  0  0  0  0  0  0
   -3.4300    0.1545   -0.8149 H   0  0  0  0  0  0  0  0  0  0  0  0
   -0.4550    1.0191   -2.0152 H   0  0  0  0  0  0  0  0  0  0  0  0
    1.1535    2.0943   -0.1912 H   0  0  0  0  0  0  0  0  0  0  0  0
    0.3687    1.2819    2.1639 H   0  0  0  0  0  0  0  0  0  0  0  0
   -1.0063    2.0350    1.1789 H   0  0  0  0  0  0  0  0  0  0  0  0
   -1.5676   -0.4437    1.7627 H   0  0  0  0  0  0  0  0  0  0  0  0
    0.7233   -1.3510    1.9657 H   0  0  0  0  0  0  0  0  0  0  0  0
    0.2779   -1.8105    0.3081 H   0  0  0  0  0  0  0  0  0  0  0  0
    2.1514    0.2562    1.2465 H   0  0  0  0  0  0  0  0  0  0  0  0
    3.2389   -0.9825   -0.3239 H   0  0  0  0  0  0  0  0  0  0  0  0
    1.6951   -1.3772   -1.2652 H   0  0  0  0  0  0  0  0  0  0  0  0
    2.5073    0.2006   -1.4303 H   0  0  0  0  0  0  0  0  0  0  0  0
  1  2  1  0
  2  3  2  0
  3  4  1  0
  4  5  1  0
  5  6  1  0
  6  7  1  0
  7  8  1  0
  8  9  1  0
  6  2  1  0
  8  4  1  0
  1 10  1  0
  1 11  1  0
  1 12  1  0
  3 13  1  0
  4 14  1  0
  5 15  1  0
  5 16  1  0
  6 17  1  0
  7 18  1  0
  7 19  1  0
  8 20  1  0
  9 21  1  0
  9 22  1  0
  9 23  1  0
M  END
