
     RDKit          3D

 19 20  0  0  0  0  0  0  0  0999 V2000
    2.3703   -0.5802   -0.0386 C   0  0  0  0  0  0  0  0  0  0  0  0
    0.8897   -0.3663    0.1412 C   0  0  0  0  0  0  0  0  0  0  0  0
    0.0492   -1.3361   -0.2355 C   0  0  0  0  0  0  0  0  0  0  0  0
   -1.3947   -1.2262   -0.1024 C   0  0  0  0  0  0  0  0  0  0  0  0
   -2.3688   -1.0561   -0.9597 O   0  0  0  0  0  0  0  0  0  0  0  0
   -1.7007    0.0796   -0.8810 C   0  0  0  0  0  0  0  0  0  0  0  0
   -1.6533    1.1328    0.1334 C   0  0  0  0  0  0  0  0  0  0  0  0
   -0.7235    0.9341    1.1713 O   0  0  0  0  0  0  0  0  0  0  0  0
    0.5887    0.9878    0.7483 C   0  0  0  0  0  0  0  0  0  0  0  0
    2.9122   -0.5021    0.8992 H   0  0  0  0  0  0  0  0  0  0  0  0
    2.5482   -1.5127   -0.6095 H   0  0  0  0  0  0  0  0  0  0  0  0
    2.6936    0.2708   -0.6985 H   0  0  0  0  0  0  0  0  0  0  0  0
    0.5301   -2.2092   -0.6472 H   0  0  0  0  0  0  0  0  0  0  0  0
   -1.7184   -1.2419    0.9772 H   0  0  0  0  0  0  0  0  0  0  0  0
   -1.0629    0.2713   -1.7974 H   0  0  0  0  0  0  0  0  0  0  0  0
   -2.6572    1.3600    0.5410 H   0  0  0  0  0  0  0  0  0  0  0  0
   -1.3203    2.1068   -0.3365 H   0  0  0  0  0  0  0  0  0  0  0  0
    1.2195    1.0867    1.6540 H   0  0  0  0  0  0  0  0  0  0  0  0
    0.7984    1.8009    0.0405 H   0  0  0  0  0  0  0  0  0  0  0  0
  1  2  1  0
  2  3  2  0
  3  4  1  0
  4  5  1  0
  5  6  1  0
  6  7  1  0
  7  8  1  0
  8  9  1  0
  9  2  1  0
  6  4  1  0
  1 10  1  0
  1 11  1  0
  1 12  1  0
  3 13  1  0
  4 14  1  0
  6 15  1  0
  7 16  1  0
  7 17  1  0
  9 18  1  0
  9 19  1  0
M  END
