
     RDKit          3D

 18 19  0  0  0  0  0  0  0  0999 V2000
    2.3730   -0.5915   -0.3908 C   0  0  0  0  0  0  0  0  0  0  0  0
    0.8913   -0.3839   -0.1454 C   0  0  0  0  0  0  0  0  0  0  0  0
    0.0655   -1.2891    0.3443 C   0  0  0  0  0  0  0  0  0  0  0  0
   -1.3223   -0.7955    0.4708 C   0  0  0  0  0  0  0  0  0  0  0  0
   -1.2694    0.5914   -0.0397 C   0  0  0  0  0  0  0  0  0  0  0  0
   -2.3040    0.9787   -0.8767 O   0  0  0  0  0  0  0  0  0  0  0  0
   -0.4738    1.5879    0.7239 C   0  0  0  0  0  0  0  0  0  0  0  0
    0.1525    0.8719   -0.4215 C   0  0  0  0  0  0  0  0  0  0  0  0
    2.5182   -0.8657   -1.4449 H   0  0  0  0  0  0  0  0  0  0  0  0
    2.7772   -1.3899    0.2277 H   0  0  0  0  0  0  0  0  0  0  0  0
    2.8717    0.3513   -0.1046 H   0  0  0  0  0  0  0  0  0  0  0  0
    0.4248   -2.3130    0.6212 H   0  0  0  0  0  0  0  0  0  0  0  0
   -2.0456   -1.4520   -0.0525 H   0  0  0  0  0  0  0  0  0  0  0  0
   -1.5471   -0.8178    1.5791 H   0  0  0  0  0  0  0  0  0  0  0  0
   -2.5805    0.1579   -1.3876 H   0  0  0  0  0  0  0  0  0  0  0  0
   -0.1194    1.3023    1.7245 H   0  0  0  0  0  0  0  0  0  0  0  0
   -0.7700    2.6461    0.5503 H   0  0  0  0  0  0  0  0  0  0  0  0
    0.3581    1.4110   -1.3781 H   0  0  0  0  0  0  0  0  0  0  0  0
  1  2  1  0
  2  3  2  0
  3  4  1  0
  4  5  1  0
  5  6  1  0
  5  7  1  0
  7  8  1  0
  8  2  1  0
  8  5  1  0
  1  9  1  0
  1 10  1  0
  1 11  1  0
  3 12  1  0
  4 13  1  0
  4 14  1  0
  6 15  1  0
  7 16  1  0
  7 17  1  0
  8 18  1  0
M  END
