
     RDKit          3D

 18 18  0  0  0  0  0  0  0  0999 V2000
    2.3665   -0.1633    0.3652 C   0  0  0  0  0  0  0  0  0  0  0  0
    0.9410    0.0672   -0.0247 C   0  0  0  0  0  0  0  0  0  0  0  0
    0.1826   -1.0168   -0.1696 C   0  0  0  0  0  0  0  0  0  0  0  0
   -1.2318   -0.7206   -0.5599 C   0  0  0  0  0  0  0  0  0  0  0  0
   -2.0101   -1.7857   -0.0794 O   0  0  0  0  0  0  0  0  0  0  0  0
   -1.6921    0.5225    0.0989 C   0  0  0  0  0  0  0  0  0  0  0  0
   -0.8994    1.6014    0.0307 O   0  0  0  0  0  0  0  0  0  0  0  0
    0.4294    1.4287   -0.2307 C   0  0  0  0  0  0  0  0  0  0  0  0
    2.4166    0.0604    1.4591 H   0  0  0  0  0  0  0  0  0  0  0  0
    2.6740   -1.2160    0.1960 H   0  0  0  0  0  0  0  0  0  0  0  0
    3.0321    0.5103   -0.1807 H   0  0  0  0  0  0  0  0  0  0  0  0
    0.5527   -2.0258   -0.0193 H   0  0  0  0  0  0  0  0  0  0  0  0
   -1.3410   -0.7053   -1.6724 H   0  0  0  0  0  0  0  0  0  0  0  0
   -2.4353   -1.5431    0.7617 H   0  0  0  0  0  0  0  0  0  0  0  0
   -1.9182    0.2860    1.1689 H   0  0  0  0  0  0  0  0  0  0  0  0
   -2.6998    0.7866   -0.3407 H   0  0  0  0  0  0  0  0  0  0  0  0
    0.9996    2.1047    0.4536 H   0  0  0  0  0  0  0  0  0  0  0  0
    0.6329    1.8086   -1.2566 H   0  0  0  0  0  0  0  0  0  0  0  0
  1  2  1  0
  2  3  2  0
  3  4  1  0
  4  5  1  0
  4  6  1  0
  6  7  1  0
  7  8  1  0
  8  2  1  0
  1  9  1  0
  1 10  1  0
  1 11  1  0
  3 12  1  0
  4 13  1  0
  5 14  1  0
  6 15  1  0
  6 16  1  0
  8 17  1  0
  8 18  1  0
M  END
