
     RDKit          3D

 19 20  0  0  0  0  0  0  0  0999 V2000
   -2.3163    0.3875    0.1224 C   0  0  0  0  0  0  0  0  0  0  0  0
   -0.9049   -0.0499    0.1876 C   0  0  0  0  0  0  0  0  0  0  0  0
   -0.5519   -1.2651   -0.2188 C   0  0  0  0  0  0  0  0  0  0  0  0
    0.8832   -1.6572   -0.3382 C   0  0  0  0  0  0  0  0  0  0  0  0
    1.7292   -0.4880    0.1127 C   0  0  0  0  0  0  0  0  0  0  0  0
    1.7097    0.5085   -0.8602 O   0  0  0  0  0  0  0  0  0  0  0  0
    0.9212    1.5361   -0.3922 C   0  0  0  0  0  0  0  0  0  0  0  0
    0.1450    0.8501    0.7046 C   0  0  0  0  0  0  0  0  0  0  0  0
    1.1622    0.0331    1.2501 O   0  0  0  0  0  0  0  0  0  0  0  0
   -2.9907   -0.4691   -0.1081 H   0  0  0  0  0  0  0  0  0  0  0  0
   -2.5844    0.7927    1.1380 H   0  0  0  0  0  0  0  0  0  0  0  0
   -2.5073    1.1773   -0.6132 H   0  0  0  0  0  0  0  0  0  0  0  0
   -1.3180   -2.0050   -0.4750 H   0  0  0  0  0  0  0  0  0  0  0  0
    1.1168   -2.5946    0.1889 H   0  0  0  0  0  0  0  0  0  0  0  0
    1.0789   -1.7734   -1.4351 H   0  0  0  0  0  0  0  0  0  0  0  0
    2.7449   -0.8591    0.3354 H   0  0  0  0  0  0  0  0  0  0  0  0
    0.2910    2.0156   -1.1475 H   0  0  0  0  0  0  0  0  0  0  0  0
    1.6060    2.2657    0.1257 H   0  0  0  0  0  0  0  0  0  0  0  0
   -0.2146    1.5949    1.4229 H   0  0  0  0  0  0  0  0  0  0  0  0
  1  2  1  0
  2  3  2  0
  3  4  1  0
  4  5  1  0
  5  6  1  0
  6  7  1  0
  7  8  1  0
  8  9  1  0
  8  2  1  0
  9  5  1  0
  1 10  1  0
  1 11  1  0
  1 12  1  0
  3 13  1  0
  4 14  1  0
  4 15  1  0
  5 16  1  0
  7 17  1  0
  7 18  1  0
  8 19  1  0
M  END
