
     RDKit          3D

 17 18  0  0  0  0  0  0  0  0999 V2000
   -2.5161   -0.1860    0.1227 C   0  0  0  0  0  0  0  0  0  0  0  0
   -1.0094   -0.0437    0.0868 C   0  0  0  0  0  0  0  0  0  0  0  0
   -0.2700    0.8121   -0.5908 C   0  0  0  0  0  0  0  0  0  0  0  0
    1.1031    0.5815   -0.2988 C   0  0  0  0  0  0  0  0  0  0  0  0
    1.3211    1.1815    1.0097 O   0  0  0  0  0  0  0  0  0  0  0  0
    2.1786   -0.2333   -0.6368 C   0  0  0  0  0  0  0  0  0  0  0  0
    1.0474   -0.9715   -0.2640 C   0  0  0  0  0  0  0  0  0  0  0  0
   -0.0033   -0.9098    0.7630 C   0  0  0  0  0  0  0  0  0  0  0  0
   -0.1218   -1.4010    1.9009 O   0  0  0  0  0  0  0  0  0  0  0  0
   -2.8390   -0.2555   -0.9350 H   0  0  0  0  0  0  0  0  0  0  0  0
   -2.8147   -1.0140    0.7545 H   0  0  0  0  0  0  0  0  0  0  0  0
   -2.9165    0.7881    0.4845 H   0  0  0  0  0  0  0  0  0  0  0  0
   -0.7090    1.5555   -1.2552 H   0  0  0  0  0  0  0  0  0  0  0  0
    1.3125    2.1526    0.7964 H   0  0  0  0  0  0  0  0  0  0  0  0
    2.5248   -0.1900   -1.7143 H   0  0  0  0  0  0  0  0  0  0  0  0
    3.0911   -0.3309   -0.0029 H   0  0  0  0  0  0  0  0  0  0  0  0
    0.6211   -1.5357   -1.1384 H   0  0  0  0  0  0  0  0  0  0  0  0
  1  2  1  0
  2  3  2  0
  3  4  1  0
  4  5  1  0
  4  6  1  0
  6  7  1  0
  7  8  1  0
  8  9  2  0
  8  2  1  0
  7  4  1  0
  1 10  1  0
  1 11  1  0
  1 12  1  0
  3 13  1  0
  5 14  1  0
  6 15  1  0
  6 16  1  0
  7 17  1  0
M  END
