
     RDKit          3D

 17 18  0  0  0  0  0  0  0  0999 V2000
    2.0108   -0.6169    0.0178 C   0  0  0  0  0  0  0  0  0  0  0  0
    0.5350   -0.4583   -0.0570 C   0  0  0  0  0  0  0  0  0  0  0  0
   -0.3137   -1.4559    0.1249 C   0  0  0  0  0  0  0  0  0  0  0  0
   -1.7006   -0.9827   -0.0126 C   0  0  0  0  0  0  0  0  0  0  0  0
   -1.5814    0.4907   -0.1182 C   0  0  0  0  0  0  0  0  0  0  0  0
   -1.0770    0.9453   -1.3333 O   0  0  0  0  0  0  0  0  0  0  0  0
   -0.1376    0.8148   -0.3372 C   0  0  0  0  0  0  0  0  0  0  0  0
    0.4317    2.0765    0.1740 C   0  0  0  0  0  0  0  0  0  0  0  0
    0.0786    3.1535   -0.2712 O   0  0  0  0  0  0  0  0  0  0  0  0
    2.5228   -0.2651   -0.9087 H   0  0  0  0  0  0  0  0  0  0  0  0
    2.3853   -0.0199    0.8982 H   0  0  0  0  0  0  0  0  0  0  0  0
    2.3230   -1.6669    0.1572 H   0  0  0  0  0  0  0  0  0  0  0  0
   -0.0754   -2.5118    0.3499 H   0  0  0  0  0  0  0  0  0  0  0  0
   -2.0879   -1.4241   -0.9791 H   0  0  0  0  0  0  0  0  0  0  0  0
   -2.3738   -1.3308    0.7892 H   0  0  0  0  0  0  0  0  0  0  0  0
   -2.1158    1.1804    0.5498 H   0  0  0  0  0  0  0  0  0  0  0  0
    1.1760    2.0712    0.9563 H   0  0  0  0  0  0  0  0  0  0  0  0
  1  2  1  0
  2  3  2  0
  3  4  1  0
  4  5  1  0
  5  6  1  0
  6  7  1  0
  7  8  1  0
  8  9  2  0
  7  2  1  0
  7  5  1  0
  1 10  1  0
  1 11  1  0
  1 12  1  0
  3 13  1  0
  4 14  1  0
  4 15  1  0
  5 16  1  0
  8 17  1  0
M  END
