
     RDKit          3D

 21 22  0  0  0  0  0  0  0  0999 V2000
    2.6847   -0.6568   -0.3207 C   0  0  0  0  0  0  0  0  0  0  0  0
    1.3032   -0.1810   -0.1723 C   0  0  0  0  0  0  0  0  0  0  0  0
    0.2331   -0.9910   -0.1282 C   0  0  0  0  0  0  0  0  0  0  0  0
   -1.0692   -0.3104   -0.3641 C   0  0  0  0  0  0  0  0  0  0  0  0
   -2.2452   -1.2208   -0.5800 C   0  0  0  0  0  0  0  0  0  0  0  0
   -1.3549    0.7659    0.6359 C   0  0  0  0  0  0  0  0  0  0  0  0
   -0.4642    1.5293   -0.3113 C   0  0  0  0  0  0  0  0  0  0  0  0
    0.9971    1.2807   -0.0581 C   0  0  0  0  0  0  0  0  0  0  0  0
   -0.9190    0.6966   -1.3327 O   0  0  0  0  0  0  0  0  0  0  0  0
    3.2766   -0.2032    0.5273 H   0  0  0  0  0  0  0  0  0  0  0  0
    2.7417   -1.7430   -0.2254 H   0  0  0  0  0  0  0  0  0  0  0  0
    3.1758   -0.2851   -1.2642 H   0  0  0  0  0  0  0  0  0  0  0  0
    0.3372   -2.0486    0.0650 H   0  0  0  0  0  0  0  0  0  0  0  0
   -3.1149   -0.5960   -0.8218 H   0  0  0  0  0  0  0  0  0  0  0  0
   -2.3860   -1.7907    0.3758 H   0  0  0  0  0  0  0  0  0  0  0  0
   -1.9662   -1.9352   -1.3801 H   0  0  0  0  0  0  0  0  0  0  0  0
   -0.9842    0.6201    1.6496 H   0  0  0  0  0  0  0  0  0  0  0  0
   -2.4027    1.1104    0.5364 H   0  0  0  0  0  0  0  0  0  0  0  0
   -0.7178    2.5752   -0.4931 H   0  0  0  0  0  0  0  0  0  0  0  0
    1.3103    1.5918    0.9586 H   0  0  0  0  0  0  0  0  0  0  0  0
    1.5648    1.7919   -0.8616 H   0  0  0  0  0  0  0  0  0  0  0  0
  1  2  1  0
  2  3  2  0
  3  4  1  0
  4  5  1  0
  4  6  1  0
  6  7  1  0
  7  8  1  0
  7  9  1  0
  8  2  1  0
  9  4  1  0
  1 10  1  0
  1 11  1  0
  1 12  1  0
  3 13  1  0
  5 14  1  0
  5 15  1  0
  5 16  1  0
  6 17  1  0
  6 18  1  0
  7 19  1  0
  8 20  1  0
  8 21  1  0
M  END
