
     RDKit          3D

 15 15  0  0  0  0  0  0  0  0999 V2000
   -1.5569   -1.0688   -0.1695 C   0  0  0  0  0  0  0  0  0  0  0  0
   -0.6454    0.0956   -0.0643 C   0  0  0  0  0  0  0  0  0  0  0  0
    0.6654   -0.0122    0.0547 C   0  0  0  0  0  0  0  0  0  0  0  0
    1.4093   -1.2586    0.1006 C   0  0  0  0  0  0  0  0  0  0  0  0
    2.6555   -1.2833    0.2151 O   0  0  0  0  0  0  0  0  0  0  0  0
    1.2687    1.3334    0.1347 C   0  0  0  0  0  0  0  0  0  0  0  0
    0.1804    2.1997    0.0502 O   0  0  0  0  0  0  0  0  0  0  0  0
   -1.0143    1.5082   -0.0726 C   0  0  0  0  0  0  0  0  0  0  0  0
   -2.1908    1.9466   -0.1731 O   0  0  0  0  0  0  0  0  0  0  0  0
   -2.4737   -0.8427   -0.7584 H   0  0  0  0  0  0  0  0  0  0  0  0
   -1.9452   -1.3818    0.8445 H   0  0  0  0  0  0  0  0  0  0  0  0
   -1.0442   -1.9078   -0.6552 H   0  0  0  0  0  0  0  0  0  0  0  0
    0.9116   -2.2238    0.0371 H   0  0  0  0  0  0  0  0  0  0  0  0
    1.7575    1.4220    1.1195 H   0  0  0  0  0  0  0  0  0  0  0  0
    2.0220    1.4736   -0.6634 H   0  0  0  0  0  0  0  0  0  0  0  0
  1  2  1  0
  2  3  2  0
  3  4  1  0
  4  5  2  0
  3  6  1  0
  6  7  1  0
  7  8  1  0
  8  9  2  0
  8  2  1  0
  1 10  1  0
  1 11  1  0
  1 12  1  0
  4 13  1  0
  6 14  1  0
  6 15  1  0
M  END
