
     RDKit          3D

 19 20  0  0  0  0  0  0  0  0999 V2000
    2.5640    0.5052   -0.5459 C   0  0  0  0  0  0  0  0  0  0  0  0
    1.1097    0.4469   -0.1783 C   0  0  0  0  0  0  0  0  0  0  0  0
    0.4244    1.3855    0.4595 C   0  0  0  0  0  0  0  0  0  0  0  0
   -0.9940    1.0104    0.6653 C   0  0  0  0  0  0  0  0  0  0  0  0
   -1.1804   -0.2046   -0.1542 C   0  0  0  0  0  0  0  0  0  0  0  0
   -2.0947   -0.1685   -1.1756 O   0  0  0  0  0  0  0  0  0  0  0  0
   -1.2179   -1.5223    0.5863 C   0  0  0  0  0  0  0  0  0  0  0  0
    0.1744   -1.6010    0.5749 O   0  0  0  0  0  0  0  0  0  0  0  0
    0.1907   -0.6808   -0.4738 C   0  0  0  0  0  0  0  0  0  0  0  0
    3.1753    0.9150    0.3085 H   0  0  0  0  0  0  0  0  0  0  0  0
    2.9209   -0.5211   -0.7000 H   0  0  0  0  0  0  0  0  0  0  0  0
    2.7516    1.1881   -1.3932 H   0  0  0  0  0  0  0  0  0  0  0  0
    0.8947    2.3331    0.7870 H   0  0  0  0  0  0  0  0  0  0  0  0
   -1.0835    0.7211    1.7487 H   0  0  0  0  0  0  0  0  0  0  0  0
   -1.6635    1.8539    0.4152 H   0  0  0  0  0  0  0  0  0  0  0  0
   -2.8584   -0.8130   -1.0266 H   0  0  0  0  0  0  0  0  0  0  0  0
   -1.6869   -2.3397    0.0086 H   0  0  0  0  0  0  0  0  0  0  0  0
   -1.6806   -1.4016    1.5803 H   0  0  0  0  0  0  0  0  0  0  0  0
    0.2543   -1.1064   -1.4866 H   0  0  0  0  0  0  0  0  0  0  0  0
  1  2  1  0
  2  3  2  0
  3  4  1  0
  4  5  1  0
  5  6  1  0
  5  7  1  0
  7  8  1  0
  8  9  1  0
  9  2  1  0
  9  5  1  0
  1 10  1  0
  1 11  1  0
  1 12  1  0
  3 13  1  0
  4 14  1  0
  4 15  1  0
  6 16  1  0
  7 17  1  0
  7 18  1  0
  9 19  1  0
M  END
