
     RDKit          3D

 23 23  0  0  0  0  0  0  0  0999 V2000
    2.5844    0.6139   -0.3901 C   0  0  0  0  0  0  0  0  0  0  0  0
    1.1775    0.1848   -0.3924 C   0  0  0  0  0  0  0  0  0  0  0  0
    0.2723    1.1376   -0.5105 C   0  0  0  0  0  0  0  0  0  0  0  0
   -1.1957    1.1469   -0.5563 C   0  0  0  0  0  0  0  0  0  0  0  0
   -1.6727    2.4213   -0.2525 O   0  0  0  0  0  0  0  0  0  0  0  0
   -1.8386    0.1949    0.4240 C   0  0  0  0  0  0  0  0  0  0  0  0
   -1.4229   -1.2223    0.2543 C   0  0  0  0  0  0  0  0  0  0  0  0
   -0.0518   -1.5043    0.8356 C   0  0  0  0  0  0  0  0  0  0  0  0
    0.9531   -1.2708   -0.2615 C   0  0  0  0  0  0  0  0  0  0  0  0
    3.1909    0.0321    0.3633 H   0  0  0  0  0  0  0  0  0  0  0  0
    2.7084    1.6824   -0.0675 H   0  0  0  0  0  0  0  0  0  0  0  0
    3.0893    0.5129   -1.3607 H   0  0  0  0  0  0  0  0  0  0  0  0
    0.7237    2.1287   -0.5913 H   0  0  0  0  0  0  0  0  0  0  0  0
   -1.5062    0.8583   -1.5816 H   0  0  0  0  0  0  0  0  0  0  0  0
   -1.4601    2.5809    0.7033 H   0  0  0  0  0  0  0  0  0  0  0  0
   -2.9404    0.2514    0.2402 H   0  0  0  0  0  0  0  0  0  0  0  0
   -1.6822    0.5379    1.4685 H   0  0  0  0  0  0  0  0  0  0  0  0
   -2.1437   -1.8658    0.8024 H   0  0  0  0  0  0  0  0  0  0  0  0
   -1.4617   -1.5150   -0.8099 H   0  0  0  0  0  0  0  0  0  0  0  0
    0.1839   -0.8159    1.6825 H   0  0  0  0  0  0  0  0  0  0  0  0
    0.0053   -2.5529    1.2174 H   0  0  0  0  0  0  0  0  0  0  0  0
    0.5901   -1.7323   -1.2062 H   0  0  0  0  0  0  0  0  0  0  0  0
    1.8971   -1.8048   -0.0113 H   0  0  0  0  0  0  0  0  0  0  0  0
  1  2  1  0
  2  3  2  0
  3  4  1  0
  4  5  1  0
  4  6  1  0
  6  7  1  0
  7  8  1  0
  8  9  1  0
  9  2  1  0
  1 10  1  0
  1 11  1  0
  1 12  1  0
  3 13  1  0
  4 14  1  0
  5 15  1  0
  6 16  1  0
  6 17  1  0
  7 18  1  0
  7 19  1  0
  8 20  1  0
  8 21  1  0
  9 22  1  0
  9 23  1  0
M  END
