
     RDKit          3D

 23 24  0  0  0  0  0  0  0  0999 V2000
   -2.4820   -1.1439    0.5923 C   0  0  0  0  0  0  0  0  0  0  0  0
   -1.2460   -0.4572    0.0988 C   0  0  0  0  0  0  0  0  0  0  0  0
   -0.4792   -1.1494   -0.7320 C   0  0  0  0  0  0  0  0  0  0  0  0
    0.7527   -0.5036   -1.2420 C   0  0  0  0  0  0  0  0  0  0  0  0
    1.4387    0.3823   -0.2394 C   0  0  0  0  0  0  0  0  0  0  0  0
    2.2559   -0.5130    0.6712 C   0  0  0  0  0  0  0  0  0  0  0  0
    0.5027    1.2812    0.5040 C   0  0  0  0  0  0  0  0  0  0  0  0
   -0.5070    1.9764   -0.4023 C   0  0  0  0  0  0  0  0  0  0  0  0
   -0.9087    0.8997    0.5132 C   0  0  0  0  0  0  0  0  0  0  0  0
   -3.2302   -1.0569   -0.2445 H   0  0  0  0  0  0  0  0  0  0  0  0
   -2.2949   -2.2225    0.7484 H   0  0  0  0  0  0  0  0  0  0  0  0
   -2.8966   -0.6751    1.4835 H   0  0  0  0  0  0  0  0  0  0  0  0
   -0.7567   -2.1826   -1.0335 H   0  0  0  0  0  0  0  0  0  0  0  0
    1.4234   -1.3202   -1.5794 H   0  0  0  0  0  0  0  0  0  0  0  0
    0.5376    0.0943   -2.1759 H   0  0  0  0  0  0  0  0  0  0  0  0
    2.1601    1.0237   -0.7872 H   0  0  0  0  0  0  0  0  0  0  0  0
    2.4387   -1.5148    0.1914 H   0  0  0  0  0  0  0  0  0  0  0  0
    3.2690   -0.0966    0.8563 H   0  0  0  0  0  0  0  0  0  0  0  0
    1.7216   -0.7155    1.6107 H   0  0  0  0  0  0  0  0  0  0  0  0
    0.9200    1.7937    1.3668 H   0  0  0  0  0  0  0  0  0  0  0  0
   -0.4483    1.8206   -1.4965 H   0  0  0  0  0  0  0  0  0  0  0  0
   -0.6730    3.0252   -0.1214 H   0  0  0  0  0  0  0  0  0  0  0  0
   -1.4977    1.2542    1.4110 H   0  0  0  0  0  0  0  0  0  0  0  0
  1  2  1  0
  2  3  2  0
  3  4  1  0
  4  5  1  0
  5  6  1  0
  5  7  1  0
  7  8  1  0
  8  9  1  0
  9  2  1  0
  9  7  1  0
  1 10  1  0
  1 11  1  0
  1 12  1  0
  3 13  1  0
  4 14  1  0
  4 15  1  0
  5 16  1  0
  6 17  1  0
  6 18  1  0
  6 19  1  0
  7 20  1  0
  8 21  1  0
  8 22  1  0
  9 23  1  0
M  END
