
     RDKit          3D

 19 20  0  0  0  0  0  0  0  0999 V2000
    2.6514   -0.3326    0.1142 C   0  0  0  0  0  0  0  0  0  0  0  0
    1.2106   -0.0492   -0.1300 C   0  0  0  0  0  0  0  0  0  0  0  0
    0.7365    0.9245   -0.8848 C   0  0  0  0  0  0  0  0  0  0  0  0
   -0.7536    0.8470   -0.8533 C   0  0  0  0  0  0  0  0  0  0  0  0
   -1.3351    1.2971    0.4614 C   0  0  0  0  0  0  0  0  0  0  0  0
   -1.1319   -0.1309    0.1698 C   0  0  0  0  0  0  0  0  0  0  0  0
   -2.3512   -0.9640    0.0660 C   0  0  0  0  0  0  0  0  0  0  0  0
   -2.4834   -1.8610    0.8818 O   0  0  0  0  0  0  0  0  0  0  0  0
    0.1182   -0.8633    0.4729 C   0  0  0  0  0  0  0  0  0  0  0  0
    2.8445   -1.4317    0.2159 H   0  0  0  0  0  0  0  0  0  0  0  0
    3.0071    0.1424    1.0601 H   0  0  0  0  0  0  0  0  0  0  0  0
    3.2968    0.0357   -0.6879 H   0  0  0  0  0  0  0  0  0  0  0  0
    1.2627    1.6835   -1.4564 H   0  0  0  0  0  0  0  0  0  0  0  0
   -1.3313    0.8875   -1.7722 H   0  0  0  0  0  0  0  0  0  0  0  0
   -2.3550    1.6897    0.3888 H   0  0  0  0  0  0  0  0  0  0  0  0
   -0.6899    1.8475    1.1835 H   0  0  0  0  0  0  0  0  0  0  0  0
   -3.1283   -0.8428   -0.6690 H   0  0  0  0  0  0  0  0  0  0  0  0
    0.3137   -1.0448    1.5427 H   0  0  0  0  0  0  0  0  0  0  0  0
    0.1182   -1.8346   -0.1037 H   0  0  0  0  0  0  0  0  0  0  0  0
  1  2  1  0
  2  3  2  0
  3  4  1  0
  4  5  1  0
  5  6  1  0
  6  7  1  0
  7  8  2  0
  6  9  1  0
  9  2  1  0
  6  4  1  0
  1 10  1  0
  1 11  1  0
  1 12  1  0
  3 13  1  0
  4 14  1  0
  5 15  1  0
  5 16  1  0
  7 17  1  0
  9 18  1  0
  9 19  1  0
M  END
