
     RDKit          3D

 19 20  0  0  0  0  0  0  0  0999 V2000
   -2.2445   -1.0409   -0.4374 C   0  0  0  0  0  0  0  0  0  0  0  0
   -1.2210   -0.0807    0.0584 C   0  0  0  0  0  0  0  0  0  0  0  0
   -1.2066    1.2432   -0.0855 C   0  0  0  0  0  0  0  0  0  0  0  0
   -0.0238    1.7125    0.6801 C   0  0  0  0  0  0  0  0  0  0  0  0
    1.2231    1.3145   -0.0378 C   0  0  0  0  0  0  0  0  0  0  0  0
    1.2397   -0.0234    0.0621 C   0  0  0  0  0  0  0  0  0  0  0  0
    2.2293   -0.9935   -0.4749 C   0  0  0  0  0  0  0  0  0  0  0  0
    0.0399   -0.3704    0.8386 C   0  0  0  0  0  0  0  0  0  0  0  0
   -0.0092    0.7452    1.7194 O   0  0  0  0  0  0  0  0  0  0  0  0
   -2.2470   -1.1050   -1.5609 H   0  0  0  0  0  0  0  0  0  0  0  0
   -3.2693   -0.7494   -0.1227 H   0  0  0  0  0  0  0  0  0  0  0  0
   -2.0055   -2.0549   -0.0756 H   0  0  0  0  0  0  0  0  0  0  0  0
   -1.8970    1.8587   -0.6357 H   0  0  0  0  0  0  0  0  0  0  0  0
   -0.0555    2.7229    1.0264 H   0  0  0  0  0  0  0  0  0  0  0  0
    1.9601    1.9293   -0.5320 H   0  0  0  0  0  0  0  0  0  0  0  0
    2.9099   -1.3684    0.3424 H   0  0  0  0  0  0  0  0  0  0  0  0
    1.6621   -1.8746   -0.8505 H   0  0  0  0  0  0  0  0  0  0  0  0
    2.8789   -0.5496   -1.2613 H   0  0  0  0  0  0  0  0  0  0  0  0
    0.0365   -1.3152    1.3399 H   0  0  0  0  0  0  0  0  0  0  0  0
  1  2  1  0
  2  3  2  0
  3  4  1  0
  4  5  1  0
  5  6  2  0
  6  7  1  0
  6  8  1  0
  8  9  1  0
  8  2  1  0
  9  4  1  0
  1 10  1  0
  1 11  1  0
  1 12  1  0
  3 13  1  0
  4 14  1  0
  5 15  1  0
  7 16  1  0
  7 17  1  0
  7 18  1  0
  8 19  1  0
M  END
