
     RDKit          3D

 19 19  0  0  0  0  0  0  0  0999 V2000
    1.9621   -0.9663   -0.3109 C   0  0  0  0  0  0  0  0  0  0  0  0
    0.5260   -0.7921    0.0096 C   0  0  0  0  0  0  0  0  0  0  0  0
   -0.4053   -1.7396   -0.0829 C   0  0  0  0  0  0  0  0  0  0  0  0
   -1.7364   -1.1794    0.3271 C   0  0  0  0  0  0  0  0  0  0  0  0
   -1.5141    0.2743    0.1022 C   0  0  0  0  0  0  0  0  0  0  0  0
   -2.2969    1.1117   -0.3032 O   0  0  0  0  0  0  0  0  0  0  0  0
   -0.0949    0.4871    0.4892 C   0  0  0  0  0  0  0  0  0  0  0  0
    0.5059    1.6862   -0.2054 C   0  0  0  0  0  0  0  0  0  0  0  0
   -0.1346    2.8142    0.3076 O   0  0  0  0  0  0  0  0  0  0  0  0
    2.0805   -0.6624   -1.3875 H   0  0  0  0  0  0  0  0  0  0  0  0
    2.2545   -2.0210   -0.1530 H   0  0  0  0  0  0  0  0  0  0  0  0
    2.5626   -0.2771    0.3347 H   0  0  0  0  0  0  0  0  0  0  0  0
   -0.2491   -2.7759   -0.4060 H   0  0  0  0  0  0  0  0  0  0  0  0
   -2.5616   -1.5935   -0.2577 H   0  0  0  0  0  0  0  0  0  0  0  0
   -1.8625   -1.3074    1.4288 H   0  0  0  0  0  0  0  0  0  0  0  0
    0.0119    0.5345    1.5708 H   0  0  0  0  0  0  0  0  0  0  0  0
    1.5674    1.7743    0.0032 H   0  0  0  0  0  0  0  0  0  0  0  0
    0.3576    1.5986   -1.2976 H   0  0  0  0  0  0  0  0  0  0  0  0
   -0.9730    3.0335   -0.1692 H   0  0  0  0  0  0  0  0  0  0  0  0
  1  2  1  0
  2  3  2  0
  3  4  1  0
  4  5  1  0
  5  6  2  0
  5  7  1  0
  7  8  1  0
  8  9  1  0
  7  2  1  0
  1 10  1  0
  1 11  1  0
  1 12  1  0
  3 13  1  0
  4 14  1  0
  4 15  1  0
  7 16  1  0
  8 17  1  0
  8 18  1  0
  9 19  1  0
M  END
