
     RDKit          3D

 21 22  0  0  0  0  0  0  0  0999 V2000
    2.6145   -0.7977    0.0514 C   0  0  0  0  0  0  0  0  0  0  0  0
    1.1880   -0.3615   -0.0586 C   0  0  0  0  0  0  0  0  0  0  0  0
    0.2197   -1.2599    0.0712 C   0  0  0  0  0  0  0  0  0  0  0  0
   -1.1220   -0.7337   -0.0519 C   0  0  0  0  0  0  0  0  0  0  0  0
   -2.1333   -0.3553    0.8505 C   0  0  0  0  0  0  0  0  0  0  0  0
   -3.3672    0.0911    0.3220 O   0  0  0  0  0  0  0  0  0  0  0  0
   -1.0355    0.5244    0.8948 C   0  0  0  0  0  0  0  0  0  0  0  0
   -0.4698    1.5396    0.0052 C   0  0  0  0  0  0  0  0  0  0  0  0
    0.9616    1.0877   -0.3140 C   0  0  0  0  0  0  0  0  0  0  0  0
    2.9256   -1.3084   -0.9082 H   0  0  0  0  0  0  0  0  0  0  0  0
    3.3020    0.0358    0.1906 H   0  0  0  0  0  0  0  0  0  0  0  0
    2.7484   -1.5515    0.8561 H   0  0  0  0  0  0  0  0  0  0  0  0
    0.4787   -2.2742    0.2511 H   0  0  0  0  0  0  0  0  0  0  0  0
   -1.3281   -0.5040   -1.1454 H   0  0  0  0  0  0  0  0  0  0  0  0
   -2.3451   -1.0155    1.7336 H   0  0  0  0  0  0  0  0  0  0  0  0
   -3.6841   -0.6746   -0.2373 H   0  0  0  0  0  0  0  0  0  0  0  0
   -0.3597    0.4125    1.8000 H   0  0  0  0  0  0  0  0  0  0  0  0
   -0.4408    2.5492    0.4714 H   0  0  0  0  0  0  0  0  0  0  0  0
   -1.0063    1.6616   -0.9570 H   0  0  0  0  0  0  0  0  0  0  0  0
    1.6242    1.6252    0.4204 H   0  0  0  0  0  0  0  0  0  0  0  0
    1.2293    1.3093   -1.3587 H   0  0  0  0  0  0  0  0  0  0  0  0
  1  2  1  0
  2  3  2  0
  3  4  1  0
  4  5  1  0
  5  6  1  0
  5  7  1  0
  7  8  1  0
  8  9  1  0
  9  2  1  0
  7  4  1  0
  1 10  1  0
  1 11  1  0
  1 12  1  0
  3 13  1  0
  4 14  1  0
  5 15  1  0
  6 16  1  0
  7 17  1  0
  8 18  1  0
  8 19  1  0
  9 20  1  0
  9 21  1  0
M  END
