
     RDKit          3D

 15 15  0  0  0  0  0  0  0  0999 V2000
    2.2692   -0.2376    0.5097 C   0  0  0  0  0  0  0  0  0  0  0  0
    0.8117   -0.1880    0.1920 C   0  0  0  0  0  0  0  0  0  0  0  0
    0.2599   -0.9334   -0.7492 C   0  0  0  0  0  0  0  0  0  0  0  0
   -1.1745   -0.6654   -0.8266 C   0  0  0  0  0  0  0  0  0  0  0  0
   -2.0907   -1.3533   -1.3428 O   0  0  0  0  0  0  0  0  0  0  0  0
   -1.3559    0.6417   -0.1444 C   0  0  0  0  0  0  0  0  0  0  0  0
   -2.5917    0.7616    0.4689 O   0  0  0  0  0  0  0  0  0  0  0  0
   -0.2277    0.6241    0.8011 C   0  0  0  0  0  0  0  0  0  0  0  0
   -0.0943    1.1662    1.9246 O   0  0  0  0  0  0  0  0  0  0  0  0
    2.5490    0.4970    1.2676 H   0  0  0  0  0  0  0  0  0  0  0  0
    2.5599   -1.2726    0.8310 H   0  0  0  0  0  0  0  0  0  0  0  0
    2.8108    0.0529   -0.4286 H   0  0  0  0  0  0  0  0  0  0  0  0
    0.7318   -1.6672   -1.4171 H   0  0  0  0  0  0  0  0  0  0  0  0
   -1.2282    1.4945   -0.8639 H   0  0  0  0  0  0  0  0  0  0  0  0
   -3.2293    1.0797   -0.2222 H   0  0  0  0  0  0  0  0  0  0  0  0
  1  2  1  0
  2  3  2  0
  3  4  1  0
  4  5  2  0
  4  6  1  0
  6  7  1  0
  6  8  1  0
  8  9  2  0
  8  2  1  0
  1 10  1  0
  1 11  1  0
  1 12  1  0
  3 13  1  0
  6 14  1  0
  7 15  1  0
M  END
