
     RDKit          3D

 21 22  0  0  0  0  0  0  0  0999 V2000
    2.6241   -0.2898    0.6990 C   0  0  0  0  0  0  0  0  0  0  0  0
    1.3020    0.0439    0.1149 C   0  0  0  0  0  0  0  0  0  0  0  0
    0.9973    0.2670   -1.1670 C   0  0  0  0  0  0  0  0  0  0  0  0
   -0.4365    0.5904   -1.1232 C   0  0  0  0  0  0  0  0  0  0  0  0
   -0.4912    1.4978    0.0873 C   0  0  0  0  0  0  0  0  0  0  0  0
   -0.0219    0.2174    0.7910 C   0  0  0  0  0  0  0  0  0  0  0  0
   -0.9317   -0.5041   -0.1667 C   0  0  0  0  0  0  0  0  0  0  0  0
   -2.3831   -0.4814    0.1123 C   0  0  0  0  0  0  0  0  0  0  0  0
   -0.4606   -1.7630   -0.4518 O   0  0  0  0  0  0  0  0  0  0  0  0
    3.0006    0.5276    1.3545 H   0  0  0  0  0  0  0  0  0  0  0  0
    2.5420   -1.2573    1.2701 H   0  0  0  0  0  0  0  0  0  0  0  0
    3.3402   -0.4507   -0.1148 H   0  0  0  0  0  0  0  0  0  0  0  0
    1.5960    0.2370   -2.0639 H   0  0  0  0  0  0  0  0  0  0  0  0
   -0.9968    0.8048   -1.9802 H   0  0  0  0  0  0  0  0  0  0  0  0
    0.2828    2.2759    0.1320 H   0  0  0  0  0  0  0  0  0  0  0  0
   -1.4644    1.8648    0.3860 H   0  0  0  0  0  0  0  0  0  0  0  0
   -0.1175    0.1318    1.8250 H   0  0  0  0  0  0  0  0  0  0  0  0
   -2.6810   -1.4459    0.5586 H   0  0  0  0  0  0  0  0  0  0  0  0
   -2.7383    0.3189    0.7701 H   0  0  0  0  0  0  0  0  0  0  0  0
   -2.9189   -0.3522   -0.8741 H   0  0  0  0  0  0  0  0  0  0  0  0
   -0.0431   -2.2329    0.2936 H   0  0  0  0  0  0  0  0  0  0  0  0
  1  2  1  0
  2  3  2  0
  3  4  1  0
  4  5  1  0
  5  6  1  0
  6  7  1  0
  7  8  1  0
  7  9  1  0
  6  2  1  0
  7  4  1  0
  1 10  1  0
  1 11  1  0
  1 12  1  0
  3 13  1  0
  4 14  1  0
  5 15  1  0
  5 16  1  0
  6 17  1  0
  8 18  1  0
  8 19  1  0
  8 20  1  0
  9 21  1  0
M  END
