
     RDKit          3D

 21 22  0  0  0  0  0  0  0  0999 V2000
    2.5871   -0.5237   -0.3252 C   0  0  0  0  0  0  0  0  0  0  0  0
    1.2416    0.0807   -0.2381 C   0  0  0  0  0  0  0  0  0  0  0  0
    1.0507    1.3619   -0.4769 C   0  0  0  0  0  0  0  0  0  0  0  0
   -0.3296    1.9566   -0.3823 C   0  0  0  0  0  0  0  0  0  0  0  0
   -1.3226    1.0426   -0.5365 O   0  0  0  0  0  0  0  0  0  0  0  0
   -1.2121   -0.1537    0.0971 C   0  0  0  0  0  0  0  0  0  0  0  0
   -2.3700   -1.1109   -0.2239 C   0  0  0  0  0  0  0  0  0  0  0  0
   -0.5886   -0.3715    1.4027 C   0  0  0  0  0  0  0  0  0  0  0  0
    0.1100   -0.7956    0.1270 C   0  0  0  0  0  0  0  0  0  0  0  0
    3.3861    0.2230   -0.5221 H   0  0  0  0  0  0  0  0  0  0  0  0
    2.8420   -1.0698    0.6287 H   0  0  0  0  0  0  0  0  0  0  0  0
    2.5547   -1.3085   -1.1093 H   0  0  0  0  0  0  0  0  0  0  0  0
    1.8411    2.0492   -0.7460 H   0  0  0  0  0  0  0  0  0  0  0  0
   -0.4180    2.5831    0.5362 H   0  0  0  0  0  0  0  0  0  0  0  0
   -0.4091    2.6822   -1.2383 H   0  0  0  0  0  0  0  0  0  0  0  0
   -3.0630   -1.1762    0.6492 H   0  0  0  0  0  0  0  0  0  0  0  0
   -2.0121   -2.1213   -0.4462 H   0  0  0  0  0  0  0  0  0  0  0  0
   -2.9591   -0.7681   -1.0871 H   0  0  0  0  0  0  0  0  0  0  0  0
   -0.9048   -1.2147    2.0324 H   0  0  0  0  0  0  0  0  0  0  0  0
   -0.2367    0.5010    1.9599 H   0  0  0  0  0  0  0  0  0  0  0  0
    0.2124   -1.8664   -0.1012 H   0  0  0  0  0  0  0  0  0  0  0  0
  1  2  1  0
  2  3  2  0
  3  4  1  0
  4  5  1  0
  5  6  1  0
  6  7  1  0
  6  8  1  0
  8  9  1  0
  9  2  1  0
  9  6  1  0
  1 10  1  0
  1 11  1  0
  1 12  1  0
  3 13  1  0
  4 14  1  0
  4 15  1  0
  7 16  1  0
  7 17  1  0
  7 18  1  0
  8 19  1  0
  8 20  1  0
  9 21  1  0
M  END
