
     RDKit          3D

 23 24  0  0  0  0  0  0  0  0999 V2000
    1.3184    2.0531    0.3139 C   0  0  0  0  0  0  0  0  0  0  0  0
    1.0021    0.5837    0.2335 C   0  0  0  0  0  0  0  0  0  0  0  0
    1.8589   -0.3708    0.5827 C   0  0  0  0  0  0  0  0  0  0  0  0
    1.2532   -1.7161    0.3895 C   0  0  0  0  0  0  0  0  0  0  0  0
    0.2310   -1.3880   -0.7118 C   0  0  0  0  0  0  0  0  0  0  0  0
   -0.2217   -0.0597   -0.2111 C   0  0  0  0  0  0  0  0  0  0  0  0
   -1.3262   -0.1811    0.8389 C   0  0  0  0  0  0  0  0  0  0  0  0
   -2.2999   -0.0519   -0.3314 C   0  0  0  0  0  0  0  0  0  0  0  0
   -1.1800    0.7115   -1.0475 C   0  0  0  0  0  0  0  0  0  0  0  0
    2.3567    2.2343   -0.0815 H   0  0  0  0  0  0  0  0  0  0  0  0
    0.6429    2.6465   -0.3120 H   0  0  0  0  0  0  0  0  0  0  0  0
    1.3465    2.3611    1.3724 H   0  0  0  0  0  0  0  0  0  0  0  0
    2.8635   -0.2206    0.9584 H   0  0  0  0  0  0  0  0  0  0  0  0
    1.9598   -2.4780    0.0687 H   0  0  0  0  0  0  0  0  0  0  0  0
    0.6929   -2.0517    1.3032 H   0  0  0  0  0  0  0  0  0  0  0  0
   -0.5565   -2.1412   -0.7750 H   0  0  0  0  0  0  0  0  0  0  0  0
    0.7946   -1.2441   -1.6616 H   0  0  0  0  0  0  0  0  0  0  0  0
   -1.3696    0.7136    1.4603 H   0  0  0  0  0  0  0  0  0  0  0  0
   -1.3324   -1.1542    1.3425 H   0  0  0  0  0  0  0  0  0  0  0  0
   -3.1899    0.5413   -0.1144 H   0  0  0  0  0  0  0  0  0  0  0  0
   -2.4892   -1.0622   -0.7476 H   0  0  0  0  0  0  0  0  0  0  0  0
   -1.2161    1.7702   -0.7413 H   0  0  0  0  0  0  0  0  0  0  0  0
   -1.1389    0.5045   -2.1287 H   0  0  0  0  0  0  0  0  0  0  0  0
  1  2  1  0
  2  3  2  0
  3  4  1  0
  4  5  1  0
  5  6  1  0
  6  7  1  0
  7  8  1  0
  8  9  1  0
  6  2  1  0
  9  6  1  0
  1 10  1  0
  1 11  1  0
  1 12  1  0
  3 13  1  0
  4 14  1  0
  4 15  1  0
  5 16  1  0
  5 17  1  0
  7 18  1  0
  7 19  1  0
  8 20  1  0
  8 21  1  0
  9 22  1  0
  9 23  1  0
M  END
