
     RDKit          3D

 18 18  0  0  0  0  0  0  0  0999 V2000
    2.2821   -0.4393    0.2630 C   0  0  0  0  0  0  0  0  0  0  0  0
    0.8183   -0.4226    0.0168 C   0  0  0  0  0  0  0  0  0  0  0  0
   -0.0234   -1.4244    0.1089 C   0  0  0  0  0  0  0  0  0  0  0  0
   -1.4159   -1.0142   -0.2164 C   0  0  0  0  0  0  0  0  0  0  0  0
   -1.3588    0.4513   -0.4836 C   0  0  0  0  0  0  0  0  0  0  0  0
   -2.1425    1.1658    0.4342 O   0  0  0  0  0  0  0  0  0  0  0  0
    0.0821    0.8104   -0.3900 C   0  0  0  0  0  0  0  0  0  0  0  0
    0.3565    1.7743    0.5765 O   0  0  0  0  0  0  0  0  0  0  0  0
    2.7144   -1.3846   -0.1697 H   0  0  0  0  0  0  0  0  0  0  0  0
    2.4901   -0.3766    1.3623 H   0  0  0  0  0  0  0  0  0  0  0  0
    2.7992    0.4174   -0.2236 H   0  0  0  0  0  0  0  0  0  0  0  0
    0.2758   -2.4293    0.3908 H   0  0  0  0  0  0  0  0  0  0  0  0
   -2.0849   -1.1970    0.6669 H   0  0  0  0  0  0  0  0  0  0  0  0
   -1.8202   -1.6006   -1.0743 H   0  0  0  0  0  0  0  0  0  0  0  0
   -1.7759    0.7202   -1.4967 H   0  0  0  0  0  0  0  0  0  0  0  0
   -1.7422    1.1475    1.3282 H   0  0  0  0  0  0  0  0  0  0  0  0
    0.4745    1.1494   -1.3710 H   0  0  0  0  0  0  0  0  0  0  0  0
    0.0706    2.6524    0.2776 H   0  0  0  0  0  0  0  0  0  0  0  0
  1  2  1  0
  2  3  2  0
  3  4  1  0
  4  5  1  0
  5  6  1  0
  5  7  1  0
  7  8  1  0
  7  2  1  0
  1  9  1  0
  1 10  1  0
  1 11  1  0
  3 12  1  0
  4 13  1  0
  4 14  1  0
  5 15  1  0
  6 16  1  0
  7 17  1  0
  8 18  1  0
M  END
