
     RDKit          3D

 17 18  0  0  0  0  0  0  0  0999 V2000
    2.3262   -0.9633   -0.1557 C   0  0  0  0  0  0  0  0  0  0  0  0
    1.1205   -0.1132    0.0065 C   0  0  0  0  0  0  0  0  0  0  0  0
    1.1293    1.1686    0.3053 C   0  0  0  0  0  0  0  0  0  0  0  0
   -0.2611    1.6456    0.3751 C   0  0  0  0  0  0  0  0  0  0  0  0
   -1.0806    0.4655    0.0758 C   0  0  0  0  0  0  0  0  0  0  0  0
   -2.4020    0.0044   -0.0708 C   0  0  0  0  0  0  0  0  0  0  0  0
   -2.2684   -1.3299   -0.3776 C   0  0  0  0  0  0  0  0  0  0  0  0
   -0.9977   -1.6449   -0.4132 O   0  0  0  0  0  0  0  0  0  0  0  0
   -0.2422   -0.5944   -0.1461 C   0  0  0  0  0  0  0  0  0  0  0  0
    2.7903   -1.1892    0.8215 H   0  0  0  0  0  0  0  0  0  0  0  0
    3.0594   -0.4230   -0.7855 H   0  0  0  0  0  0  0  0  0  0  0  0
    2.0700   -1.9450   -0.6111 H   0  0  0  0  0  0  0  0  0  0  0  0
    2.0377    1.7865    0.4761 H   0  0  0  0  0  0  0  0  0  0  0  0
   -0.3815    2.4557   -0.3847 H   0  0  0  0  0  0  0  0  0  0  0  0
   -0.5225    2.0371    1.3918 H   0  0  0  0  0  0  0  0  0  0  0  0
   -3.2690    0.6361    0.0505 H   0  0  0  0  0  0  0  0  0  0  0  0
   -3.1082   -1.9965   -0.5578 H   0  0  0  0  0  0  0  0  0  0  0  0
  1  2  1  0
  2  3  2  0
  3  4  1  0
  4  5  1  0
  5  6  1  0
  6  7  2  0
  7  8  1  0
  8  9  1  0
  9  2  1  0
  9  5  2  0
  1 10  1  0
  1 11  1  0
  1 12  1  0
  3 13  1  0
  4 14  1  0
  4 15  1  0
  6 16  1  0
  7 17  1  0
M  END
