
     RDKit          2D

 19 21  0  0  0  0  0  0  0  0999 V2000
    0.0000    3.7337    0.0000 C   0  0  0  0  0  0  0  0  0  0  0  0
   -0.6810    2.3972    0.0000 C   0  0  0  0  0  0  0  0  0  0  0  0
   -2.1625    2.1625    0.0000 C   0  0  0  0  0  0  0  0  0  0  0  0
   -2.3972    0.6810    0.0000 C   0  0  0  0  0  0  0  0  0  0  0  0
   -1.4815   -1.2953    0.0000 C   0  0  0  0  0  0  0  0  0  0  0  0
   -0.0000   -1.0607    0.0000 C   0  0  0  0  0  0  0  0  0  0  0  0
    1.0607    0.0000    0.0000 O   0  0  0  0  0  0  0  0  0  0  0  0
    0.0000    1.0607    0.0000 C   0  0  0  0  0  0  0  0  0  0  0  0
   -1.0607    0.0000    0.0000 C   0  0  0  0  0  0  0  0  0  0  0  0
    0.6810    5.0702    0.0000 H   0  0  0  0  0  0  0  0  0  0  0  0
    1.3365    3.0527    0.0000 H   0  0  0  0  0  0  0  0  0  0  0  0
   -1.3365    4.4147    0.0000 H   0  0  0  0  0  0  0  0  0  0  0  0
   -3.2232    3.2232    0.0000 H   0  0  0  0  0  0  0  0  0  0  0  0
   -3.7337    0.0000    0.0000 H   0  0  0  0  0  0  0  0  0  0  0  0
   -1.2469   -2.7768    0.0000 H   0  0  0  0  0  0  0  0  0  0  0  0
   -2.9631   -1.5300    0.0000 H   0  0  0  0  0  0  0  0  0  0  0  0
   -0.0000   -2.5607    0.0000 H   0  0  0  0  0  0  0  0  0  0  0  0
    1.2135    1.9423    0.0000 H   0  0  0  0  0  0  0  0  0  0  0  0
   -1.3592   -0.7391    0.0000 H   0  0  0  0  0  0  0  0  0  0  0  0
  1  2  1  0
  2  3  2  0
  3  4  1  0
  4  5  1  0
  5  6  1  0
  6  7  1  0
  7  8  1  0
  8  9  1  0
  8  2  1  0
  9  4  1  0
  9  6  1  0
  1 10  1  0
  1 11  1  0
  1 12  1  0
  3 13  1  0
  4 14  1  0
  5 15  1  0
  5 16  1  0
  6 17  1  0
  8 18  1  0
  9 19  1  0
M  END
