
     RDKit          3D

 25 25  0  0  0  0  0  0  0  0999 V2000
    2.2631    1.4952   -0.0214 C   0  0  0  0  0  0  0  0  0  0  0  0
    1.0498    0.6218   -0.0738 C   0  0  0  0  0  0  0  0  0  0  0  0
    1.0236   -0.6807   -0.1617 C   0  0  0  0  0  0  0  0  0  0  0  0
    2.1864   -1.6129   -0.2313 C   0  0  0  0  0  0  0  0  0  0  0  0
   -0.3921   -1.1843   -0.1880 C   0  0  0  0  0  0  0  0  0  0  0  0
   -1.2531    0.0094    0.0736 C   0  0  0  0  0  0  0  0  0  0  0  0
   -2.2966    0.1472   -1.0286 C   0  0  0  0  0  0  0  0  0  0  0  0
   -1.8737   -0.0592    1.4367 C   0  0  0  0  0  0  0  0  0  0  0  0
   -0.3410    1.1918   -0.0274 C   0  0  0  0  0  0  0  0  0  0  0  0
    2.6747    1.4979    1.0306 H   0  0  0  0  0  0  0  0  0  0  0  0
    3.0251    1.1746   -0.7494 H   0  0  0  0  0  0  0  0  0  0  0  0
    2.0267    2.5526   -0.2397 H   0  0  0  0  0  0  0  0  0  0  0  0
    1.9109   -2.6522    0.0246 H   0  0  0  0  0  0  0  0  0  0  0  0
    2.5721   -1.5690   -1.2848 H   0  0  0  0  0  0  0  0  0  0  0  0
    3.0054   -1.2294    0.4096 H   0  0  0  0  0  0  0  0  0  0  0  0
   -0.4599   -1.9138    0.6548 H   0  0  0  0  0  0  0  0  0  0  0  0
   -0.6270   -1.7297   -1.1084 H   0  0  0  0  0  0  0  0  0  0  0  0
   -1.7322    0.1832   -1.9803 H   0  0  0  0  0  0  0  0  0  0  0  0
   -2.8537    1.0653   -0.8340 H   0  0  0  0  0  0  0  0  0  0  0  0
   -2.9250   -0.7749   -0.9591 H   0  0  0  0  0  0  0  0  0  0  0  0
   -2.9726    0.1614    1.3473 H   0  0  0  0  0  0  0  0  0  0  0  0
   -1.7281   -1.0425    1.9077 H   0  0  0  0  0  0  0  0  0  0  0  0
   -1.3948    0.7047    2.0967 H   0  0  0  0  0  0  0  0  0  0  0  0
   -0.3755    1.8547    0.8634 H   0  0  0  0  0  0  0  0  0  0  0  0
   -0.5123    1.7889   -0.9573 H   0  0  0  0  0  0  0  0  0  0  0  0
  1  2  1  0
  2  3  2  0
  3  4  1  0
  3  5  1  0
  5  6  1  0
  6  7  1  0
  6  8  1  0
  6  9  1  0
  9  2  1  0
  1 10  1  0
  1 11  1  0
  1 12  1  0
  4 13  1  0
  4 14  1  0
  4 15  1  0
  5 16  1  0
  5 17  1  0
  7 18  1  0
  7 19  1  0
  7 20  1  0
  8 21  1  0
  8 22  1  0
  8 23  1  0
  9 24  1  0
  9 25  1  0
M  END
