
     RDKit          3D

 17 17  0  0  0  0  0  0  0  0999 V2000
    2.3928    0.2844    0.0349 C   0  0  0  0  0  0  0  0  0  0  0  0
    0.9423   -0.1231    0.0993 C   0  0  0  0  0  0  0  0  0  0  0  0
    0.0023    0.7568    0.3677 C   0  0  0  0  0  0  0  0  0  0  0  0
   -1.4159    0.3699    0.4350 C   0  0  0  0  0  0  0  0  0  0  0  0
   -2.2616    1.4539    0.1961 O   0  0  0  0  0  0  0  0  0  0  0  0
   -1.6871   -0.7727   -0.5166 C   0  0  0  0  0  0  0  0  0  0  0  0
   -0.8092   -1.8315   -0.1010 O   0  0  0  0  0  0  0  0  0  0  0  0
    0.5433   -1.5040   -0.1525 C   0  0  0  0  0  0  0  0  0  0  0  0
    1.4578   -2.3520   -0.4090 O   0  0  0  0  0  0  0  0  0  0  0  0
    2.8391   -0.0505   -0.9430 H   0  0  0  0  0  0  0  0  0  0  0  0
    2.4118    1.3908   -0.0025 H   0  0  0  0  0  0  0  0  0  0  0  0
    2.9676   -0.1430    0.8741 H   0  0  0  0  0  0  0  0  0  0  0  0
    0.2657    1.8022    0.5467 H   0  0  0  0  0  0  0  0  0  0  0  0
   -1.6988   -0.0182    1.4423 H   0  0  0  0  0  0  0  0  0  0  0  0
   -1.7906    2.3083    0.1270 H   0  0  0  0  0  0  0  0  0  0  0  0
   -1.4125   -0.4675   -1.5424 H   0  0  0  0  0  0  0  0  0  0  0  0
   -2.7469   -1.1037   -0.4560 H   0  0  0  0  0  0  0  0  0  0  0  0
  1  2  1  0
  2  3  2  0
  3  4  1  0
  4  5  1  0
  4  6  1  0
  6  7  1  0
  7  8  1  0
  8  9  2  0
  8  2  1  0
  1 10  1  0
  1 11  1  0
  1 12  1  0
  3 13  1  0
  4 14  1  0
  5 15  1  0
  6 16  1  0
  6 17  1  0
M  END
