
     RDKit          3D

 23 23  0  0  0  0  0  0  0  0999 V2000
    2.3438    0.8132    0.0941 C   0  0  0  0  0  0  0  0  0  0  0  0
    0.8808    0.5425   -0.0717 C   0  0  0  0  0  0  0  0  0  0  0  0
    0.5718   -0.7342   -0.1429 C   0  0  0  0  0  0  0  0  0  0  0  0
    1.6980   -1.7283   -0.0509 C   0  0  0  0  0  0  0  0  0  0  0  0
   -0.7993   -1.2869   -0.3073 C   0  0  0  0  0  0  0  0  0  0  0  0
   -1.8061   -0.5313    0.5264 C   0  0  0  0  0  0  0  0  0  0  0  0
   -2.3009    0.7151   -0.1310 C   0  0  0  0  0  0  0  0  0  0  0  0
   -1.3271    1.8125   -0.1595 C   0  0  0  0  0  0  0  0  0  0  0  0
   -0.0073    1.6966   -0.1332 C   0  0  0  0  0  0  0  0  0  0  0  0
    2.5459    0.6859    1.1878 H   0  0  0  0  0  0  0  0  0  0  0  0
    2.4913    1.8874   -0.1196 H   0  0  0  0  0  0  0  0  0  0  0  0
    2.9468    0.1621   -0.5292 H   0  0  0  0  0  0  0  0  0  0  0  0
    2.2364   -1.8328   -0.9948 H   0  0  0  0  0  0  0  0  0  0  0  0
    2.4365   -1.4276    0.7189 H   0  0  0  0  0  0  0  0  0  0  0  0
    1.2288   -2.6904    0.2993 H   0  0  0  0  0  0  0  0  0  0  0  0
   -1.1359   -1.2444   -1.3598 H   0  0  0  0  0  0  0  0  0  0  0  0
   -0.7833   -2.3406    0.0401 H   0  0  0  0  0  0  0  0  0  0  0  0
   -2.6798   -1.2081    0.6637 H   0  0  0  0  0  0  0  0  0  0  0  0
   -1.4111   -0.3269    1.5327 H   0  0  0  0  0  0  0  0  0  0  0  0
   -2.7022    0.4570   -1.1464 H   0  0  0  0  0  0  0  0  0  0  0  0
   -3.1878    1.0678    0.4554 H   0  0  0  0  0  0  0  0  0  0  0  0
   -1.7342    2.8364   -0.2074 H   0  0  0  0  0  0  0  0  0  0  0  0
    0.4949    2.6750   -0.1647 H   0  0  0  0  0  0  0  0  0  0  0  0
  1  2  1  0
  2  3  2  0
  3  4  1  0
  3  5  1  0
  5  6  1  0
  6  7  1  0
  7  8  1  0
  8  9  2  0
  9  2  1  0
  1 10  1  0
  1 11  1  0
  1 12  1  0
  4 13  1  0
  4 14  1  0
  4 15  1  0
  5 16  1  0
  5 17  1  0
  6 18  1  0
  6 19  1  0
  7 20  1  0
  7 21  1  0
  8 22  1  0
  9 23  1  0
M  END
