
     RDKit          3D

 20 21  0  0  0  0  0  0  0  0999 V2000
    0.6403    2.0609   -0.6452 C   0  0  0  0  0  0  0  0  0  0  0  0
    0.1096    0.7607   -0.2336 C   0  0  0  0  0  0  0  0  0  0  0  0
    0.6966   -0.3790    0.1613 C   0  0  0  0  0  0  0  0  0  0  0  0
    2.1060   -0.7400    0.3643 C   0  0  0  0  0  0  0  0  0  0  0  0
   -0.4504   -1.2876    0.3733 C   0  0  0  0  0  0  0  0  0  0  0  0
   -1.3116   -0.9569   -0.8481 C   0  0  0  0  0  0  0  0  0  0  0  0
   -1.3347    0.4211   -0.1685 C   0  0  0  0  0  0  0  0  0  0  0  0
   -1.4101   -0.3552    1.1241 C   0  0  0  0  0  0  0  0  0  0  0  0
    0.1636    2.3476   -1.6253 H   0  0  0  0  0  0  0  0  0  0  0  0
    1.7263    2.1073   -0.7487 H   0  0  0  0  0  0  0  0  0  0  0  0
    0.2529    2.8342    0.0762 H   0  0  0  0  0  0  0  0  0  0  0  0
    2.2262   -1.2196    1.3615 H   0  0  0  0  0  0  0  0  0  0  0  0
    2.3839   -1.5316   -0.3898 H   0  0  0  0  0  0  0  0  0  0  0  0
    2.7996    0.1149    0.3162 H   0  0  0  0  0  0  0  0  0  0  0  0
   -0.3420   -2.2766    0.6838 H   0  0  0  0  0  0  0  0  0  0  0  0
   -2.2705   -1.4648   -0.8930 H   0  0  0  0  0  0  0  0  0  0  0  0
   -0.6976   -0.9235   -1.7664 H   0  0  0  0  0  0  0  0  0  0  0  0
   -2.0762    1.1079   -0.4384 H   0  0  0  0  0  0  0  0  0  0  0  0
   -2.3657   -0.7958    1.3844 H   0  0  0  0  0  0  0  0  0  0  0  0
   -0.8462    0.1759    1.9121 H   0  0  0  0  0  0  0  0  0  0  0  0
  1  2  1  0
  2  3  2  0
  3  4  1  0
  3  5  1  0
  5  6  1  0
  6  7  1  0
  7  8  1  0
  7  2  1  0
  8  5  1  0
  1  9  1  0
  1 10  1  0
  1 11  1  0
  4 12  1  0
  4 13  1  0
  4 14  1  0
  5 15  1  0
  6 16  1  0
  6 17  1  0
  7 18  1  0
  8 19  1  0
  8 20  1  0
M  END
