
     RDKit          3D

 19 21  0  0  0  0  0  0  0  0999 V2000
   -2.3729   -0.3987    0.7178 C   0  0  0  0  0  0  0  0  0  0  0  0
   -1.0792   -0.1398    0.0563 C   0  0  0  0  0  0  0  0  0  0  0  0
   -0.5836   -0.6392   -1.0904 C   0  0  0  0  0  0  0  0  0  0  0  0
    0.7282    0.0165   -1.2092 C   0  0  0  0  0  0  0  0  0  0  0  0
    0.3327    1.4592   -0.8446 C   0  0  0  0  0  0  0  0  0  0  0  0
    0.0461    0.7700    0.5024 C   0  0  0  0  0  0  0  0  0  0  0  0
    1.2139   -0.0486    0.2172 C   0  0  0  0  0  0  0  0  0  0  0  0
    2.2652   -0.6083    0.7843 C   0  0  0  0  0  0  0  0  0  0  0  0
    1.0280   -1.3866    0.8487 O   0  0  0  0  0  0  0  0  0  0  0  0
   -2.9521    0.5670    0.6692 H   0  0  0  0  0  0  0  0  0  0  0  0
   -2.8803   -1.1985    0.1676 H   0  0  0  0  0  0  0  0  0  0  0  0
   -2.2675   -0.6099    1.8036 H   0  0  0  0  0  0  0  0  0  0  0  0
   -1.0062   -1.3482   -1.7861 H   0  0  0  0  0  0  0  0  0  0  0  0
    1.3739   -0.1392   -2.0164 H   0  0  0  0  0  0  0  0  0  0  0  0
   -0.5843    1.8083   -1.3543 H   0  0  0  0  0  0  0  0  0  0  0  0
    1.1794    2.1597   -0.8130 H   0  0  0  0  0  0  0  0  0  0  0  0
   -0.0976    1.3709    1.3476 H   0  0  0  0  0  0  0  0  0  0  0  0
    2.6494   -0.3983    1.7961 H   0  0  0  0  0  0  0  0  0  0  0  0
    3.0070   -1.2364    0.2032 H   0  0  0  0  0  0  0  0  0  0  0  0
  1  2  1  0
  2  3  2  0
  3  4  1  0
  4  5  1  0
  5  6  1  0
  6  7  1  0
  7  8  1  0
  8  9  1  0
  6  2  1  0
  9  7  1  0
  7  4  1  0
  1 10  1  0
  1 11  1  0
  1 12  1  0
  3 13  1  0
  4 14  1  0
  5 15  1  0
  5 16  1  0
  6 17  1  0
  8 18  1  0
  8 19  1  0
M  END
