
     RDKit          3D

 21 21  0  0  0  0  0  0  0  0999 V2000
   -1.4698    1.7517   -0.4109 C   0  0  0  0  0  0  0  0  0  0  0  0
   -1.2545    0.2636   -0.2352 C   0  0  0  0  0  0  0  0  0  0  0  0
   -2.1286   -0.6410    0.1356 C   0  0  0  0  0  0  0  0  0  0  0  0
   -1.4562   -1.9613    0.1651 C   0  0  0  0  0  0  0  0  0  0  0  0
   -0.1013   -1.6755    0.1015 O   0  0  0  0  0  0  0  0  0  0  0  0
    0.0348   -0.4362   -0.4653 C   0  0  0  0  0  0  0  0  0  0  0  0
    1.1138    0.3822    0.2082 C   0  0  0  0  0  0  0  0  0  0  0  0
    2.4802   -0.2398    0.0382 C   0  0  0  0  0  0  0  0  0  0  0  0
    3.3989    0.5824    0.6889 O   0  0  0  0  0  0  0  0  0  0  0  0
   -1.3779    2.0318   -1.4851 H   0  0  0  0  0  0  0  0  0  0  0  0
   -2.4317    2.0636   -0.0044 H   0  0  0  0  0  0  0  0  0  0  0  0
   -0.6805    2.3085    0.1457 H   0  0  0  0  0  0  0  0  0  0  0  0
   -3.1601   -0.3920    0.3677 H   0  0  0  0  0  0  0  0  0  0  0  0
   -1.6370   -2.3745    1.2009 H   0  0  0  0  0  0  0  0  0  0  0  0
   -1.8106   -2.6649   -0.5851 H   0  0  0  0  0  0  0  0  0  0  0  0
    0.1788   -0.4786   -1.5708 H   0  0  0  0  0  0  0  0  0  0  0  0
    1.1403    1.3978   -0.1843 H   0  0  0  0  0  0  0  0  0  0  0  0
    0.8967    0.3790    1.2921 H   0  0  0  0  0  0  0  0  0  0  0  0
    2.7927   -0.2536   -1.0439 H   0  0  0  0  0  0  0  0  0  0  0  0
    2.5193   -1.2904    0.3893 H   0  0  0  0  0  0  0  0  0  0  0  0
    2.9527    1.2471    1.2518 H   0  0  0  0  0  0  0  0  0  0  0  0
  1  2  1  0
  2  3  2  0
  3  4  1  0
  4  5  1  0
  5  6  1  0
  6  7  1  0
  7  8  1  0
  8  9  1  0
  6  2  1  0
  1 10  1  0
  1 11  1  0
  1 12  1  0
  3 13  1  0
  4 14  1  0
  4 15  1  0
  6 16  1  0
  7 17  1  0
  7 18  1  0
  8 19  1  0
  8 20  1  0
  9 21  1  0
M  END
