
     RDKit          3D

 25 25  0  0  0  0  0  0  0  0999 V2000
   -1.3028    2.0764   -0.0766 C   0  0  0  0  0  0  0  0  0  0  0  0
   -1.2392    0.5780   -0.0635 C   0  0  0  0  0  0  0  0  0  0  0  0
   -2.1550   -0.2075   -0.6179 C   0  0  0  0  0  0  0  0  0  0  0  0
   -1.7928   -1.6389   -0.4276 C   0  0  0  0  0  0  0  0  0  0  0  0
   -0.2633   -1.4952   -0.3541 C   0  0  0  0  0  0  0  0  0  0  0  0
   -0.1931   -0.2779    0.5450 C   0  0  0  0  0  0  0  0  0  0  0  0
    1.1676    0.3663    0.5272 C   0  0  0  0  0  0  0  0  0  0  0  0
    1.6290    0.6716   -0.8591 C   0  0  0  0  0  0  0  0  0  0  0  0
    2.1139   -0.5309    1.2743 C   0  0  0  0  0  0  0  0  0  0  0  0
   -0.4558    2.5023    0.4927 H   0  0  0  0  0  0  0  0  0  0  0  0
   -2.2476    2.3609    0.4043 H   0  0  0  0  0  0  0  0  0  0  0  0
   -1.2288    2.4025   -1.1404 H   0  0  0  0  0  0  0  0  0  0  0  0
   -3.0354    0.1426   -1.1325 H   0  0  0  0  0  0  0  0  0  0  0  0
   -2.1328   -1.9764    0.5607 H   0  0  0  0  0  0  0  0  0  0  0  0
   -2.1038   -2.2770   -1.2600 H   0  0  0  0  0  0  0  0  0  0  0  0
    0.2070   -2.3839    0.0748 H   0  0  0  0  0  0  0  0  0  0  0  0
    0.1057   -1.1987   -1.3433 H   0  0  0  0  0  0  0  0  0  0  0  0
   -0.5326   -0.5530    1.5463 H   0  0  0  0  0  0  0  0  0  0  0  0
    1.0900    1.3133    1.0913 H   0  0  0  0  0  0  0  0  0  0  0  0
    2.1076   -0.2041   -1.3550 H   0  0  0  0  0  0  0  0  0  0  0  0
    2.3324    1.5535   -0.8168 H   0  0  0  0  0  0  0  0  0  0  0  0
    0.7954    0.9793   -1.5204 H   0  0  0  0  0  0  0  0  0  0  0  0
    3.0468    0.0350    1.5263 H   0  0  0  0  0  0  0  0  0  0  0  0
    1.6568   -0.8236    2.2318 H   0  0  0  0  0  0  0  0  0  0  0  0
    2.4309   -1.4143    0.6925 H   0  0  0  0  0  0  0  0  0  0  0  0
  1  2  1  0
  2  3  2  0
  3  4  1  0
  4  5  1  0
  5  6  1  0
  6  7  1  0
  7  8  1  0
  7  9  1  0
  6  2  1  0
  1 10  1  0
  1 11  1  0
  1 12  1  0
  3 13  1  0
  4 14  1  0
  4 15  1  0
  5 16  1  0
  5 17  1  0
  6 18  1  0
  7 19  1  0
  8 20  1  0
  8 21  1  0
  8 22  1  0
  9 23  1  0
  9 24  1  0
  9 25  1  0
M  END
