
     RDKit          3D

 18 19  0  0  0  0  0  0  0  0999 V2000
    2.2074    0.6201    0.2147 C   0  0  0  0  0  0  0  0  0  0  0  0
    0.8387    0.0523    0.2046 C   0  0  0  0  0  0  0  0  0  0  0  0
    0.2973   -0.8876    0.9725 C   0  0  0  0  0  0  0  0  0  0  0  0
   -1.0860   -1.1516    0.5025 C   0  0  0  0  0  0  0  0  0  0  0  0
   -0.8630   -0.9083   -1.0033 C   0  0  0  0  0  0  0  0  0  0  0  0
   -0.2306    0.4749   -0.7378 C   0  0  0  0  0  0  0  0  0  0  0  0
   -1.3289    1.0511    0.1107 C   0  0  0  0  0  0  0  0  0  0  0  0
   -1.8481   -0.0379    0.8221 O   0  0  0  0  0  0  0  0  0  0  0  0
    2.6977    0.5260    1.2056 H   0  0  0  0  0  0  0  0  0  0  0  0
    2.1171    1.7017   -0.0408 H   0  0  0  0  0  0  0  0  0  0  0  0
    2.8170    0.1615   -0.5948 H   0  0  0  0  0  0  0  0  0  0  0  0
    0.7498   -1.3994    1.8066 H   0  0  0  0  0  0  0  0  0  0  0  0
   -1.5110   -2.0917    0.7353 H   0  0  0  0  0  0  0  0  0  0  0  0
   -0.0915   -1.5612   -1.3882 H   0  0  0  0  0  0  0  0  0  0  0  0
   -1.7890   -0.8386   -1.5532 H   0  0  0  0  0  0  0  0  0  0  0  0
    0.0608    1.0019   -1.6040 H   0  0  0  0  0  0  0  0  0  0  0  0
   -2.1599    1.4848   -0.4610 H   0  0  0  0  0  0  0  0  0  0  0  0
   -0.8780    1.8019    0.8085 H   0  0  0  0  0  0  0  0  0  0  0  0
  1  2  1  0
  2  3  2  0
  3  4  1  0
  4  5  1  0
  5  6  1  0
  6  7  1  0
  7  8  1  0
  6  2  1  0
  8  4  1  0
  1  9  1  0
  1 10  1  0
  1 11  1  0
  3 12  1  0
  4 13  1  0
  5 14  1  0
  5 15  1  0
  6 16  1  0
  7 17  1  0
  7 18  1  0
M  END
