
     RDKit          3D

 22 22  0  0  0  0  0  0  0  0999 V2000
    2.1860   -0.8810    0.2244 C   0  0  0  0  0  0  0  0  0  0  0  0
    0.7377   -0.5338    0.1943 C   0  0  0  0  0  0  0  0  0  0  0  0
   -0.1191   -1.5498    0.1637 C   0  0  0  0  0  0  0  0  0  0  0  0
   -1.5901   -1.4023    0.1309 C   0  0  0  0  0  0  0  0  0  0  0  0
   -2.0615    0.0056    0.1859 C   0  0  0  0  0  0  0  0  0  0  0  0
   -1.0690    0.8416   -0.6318 C   0  0  0  0  0  0  0  0  0  0  0  0
    0.2188    0.8336    0.1965 C   0  0  0  0  0  0  0  0  0  0  0  0
    1.1611    1.8769   -0.2779 C   0  0  0  0  0  0  0  0  0  0  0  0
    2.8496   -0.0254    0.1771 H   0  0  0  0  0  0  0  0  0  0  0  0
    2.3603   -1.3763    1.2205 H   0  0  0  0  0  0  0  0  0  0  0  0
    2.4078   -1.6038   -0.5818 H   0  0  0  0  0  0  0  0  0  0  0  0
    0.2535   -2.5850    0.1616 H   0  0  0  0  0  0  0  0  0  0  0  0
   -2.0228   -2.0086    0.9608 H   0  0  0  0  0  0  0  0  0  0  0  0
   -1.9437   -1.8435   -0.8400 H   0  0  0  0  0  0  0  0  0  0  0  0
   -1.9995    0.3517    1.2428 H   0  0  0  0  0  0  0  0  0  0  0  0
   -3.0808    0.0703   -0.2138 H   0  0  0  0  0  0  0  0  0  0  0  0
   -1.4437    1.8443   -0.8177 H   0  0  0  0  0  0  0  0  0  0  0  0
   -0.8408    0.2572   -1.5491 H   0  0  0  0  0  0  0  0  0  0  0  0
   -0.1028    1.0750    1.2503 H   0  0  0  0  0  0  0  0  0  0  0  0
    0.5797    2.5912   -0.9326 H   0  0  0  0  0  0  0  0  0  0  0  0
    2.0201    1.5328   -0.8452 H   0  0  0  0  0  0  0  0  0  0  0  0
    1.4991    2.5292    0.5809 H   0  0  0  0  0  0  0  0  0  0  0  0
  1  2  1  0
  2  3  2  0
  3  4  1  0
  4  5  1  0
  5  6  1  0
  6  7  1  0
  7  8  1  0
  7  2  1  0
  1  9  1  0
  1 10  1  0
  1 11  1  0
  3 12  1  0
  4 13  1  0
  4 14  1  0
  5 15  1  0
  5 16  1  0
  6 17  1  0
  6 18  1  0
  7 19  1  0
  8 20  1  0
  8 21  1  0
  8 22  1  0
M  END
