
     RDKit          3D

 19 20  0  0  0  0  0  0  0  0999 V2000
    2.4661    0.1085    0.4193 C   0  0  0  0  0  0  0  0  0  0  0  0
    1.0452    0.1503    0.0218 C   0  0  0  0  0  0  0  0  0  0  0  0
    0.4608    1.3111    0.3059 C   0  0  0  0  0  0  0  0  0  0  0  0
   -0.9464    1.6818    0.0417 C   0  0  0  0  0  0  0  0  0  0  0  0
   -1.9454    0.8238   -0.0134 C   0  0  0  0  0  0  0  0  0  0  0  0
   -1.9625   -0.6148    0.1544 C   0  0  0  0  0  0  0  0  0  0  0  0
   -2.0172   -1.3480   -1.0755 O   0  0  0  0  0  0  0  0  0  0  0  0
   -0.8934   -1.4421   -0.0925 C   0  0  0  0  0  0  0  0  0  0  0  0
    0.4157   -1.0212   -0.6251 C   0  0  0  0  0  0  0  0  0  0  0  0
    2.9485    1.1167    0.3542 H   0  0  0  0  0  0  0  0  0  0  0  0
    2.5274   -0.2375    1.4508 H   0  0  0  0  0  0  0  0  0  0  0  0
    3.0113   -0.5330   -0.3029 H   0  0  0  0  0  0  0  0  0  0  0  0
    1.0560    2.0881    0.7793 H   0  0  0  0  0  0  0  0  0  0  0  0
   -1.1482    2.7532   -0.1144 H   0  0  0  0  0  0  0  0  0  0  0  0
   -2.9189    1.2794   -0.2202 H   0  0  0  0  0  0  0  0  0  0  0  0
   -2.7439   -0.9402    0.9107 H   0  0  0  0  0  0  0  0  0  0  0  0
   -0.9282   -2.5020    0.2827 H   0  0  0  0  0  0  0  0  0  0  0  0
    1.1831   -1.8484   -0.5397 H   0  0  0  0  0  0  0  0  0  0  0  0
    0.3900   -0.8255   -1.7372 H   0  0  0  0  0  0  0  0  0  0  0  0
  1  2  1  0
  2  3  2  0
  3  4  1  0
  4  5  2  0
  5  6  1  0
  6  7  1  0
  7  8  1  0
  8  9  1  0
  9  2  1  0
  8  6  1  0
  1 10  1  0
  1 11  1  0
  1 12  1  0
  3 13  1  0
  4 14  1  0
  5 15  1  0
  6 16  1  0
  8 17  1  0
  9 18  1  0
  9 19  1  0
M  END
