
     RDKit          3D

 19 20  0  0  0  0  0  0  0  0999 V2000
   -2.4376    0.4893    0.2063 C   0  0  0  0  0  0  0  0  0  0  0  0
   -1.0553    0.0938   -0.1755 C   0  0  0  0  0  0  0  0  0  0  0  0
   -0.3032    0.9645   -0.8243 C   0  0  0  0  0  0  0  0  0  0  0  0
    1.0898    0.5987   -1.2223 C   0  0  0  0  0  0  0  0  0  0  0  0
    1.6910   -0.1750   -0.0724 C   0  0  0  0  0  0  0  0  0  0  0  0
    1.6812    0.6553    1.0531 O   0  0  0  0  0  0  0  0  0  0  0  0
    0.8407   -1.3696    0.2040 C   0  0  0  0  0  0  0  0  0  0  0  0
    0.0776   -1.8899   -0.9340 O   0  0  0  0  0  0  0  0  0  0  0  0
   -0.5556   -1.2521    0.1751 C   0  0  0  0  0  0  0  0  0  0  0  0
   -2.6953    0.1875    1.2380 H   0  0  0  0  0  0  0  0  0  0  0  0
   -2.6072    1.5738    0.0820 H   0  0  0  0  0  0  0  0  0  0  0  0
   -3.1396   -0.0118   -0.5203 H   0  0  0  0  0  0  0  0  0  0  0  0
   -0.7328    1.9328   -1.0491 H   0  0  0  0  0  0  0  0  0  0  0  0
    1.0887   -0.0595   -2.1270 H   0  0  0  0  0  0  0  0  0  0  0  0
    1.6689    1.5057   -1.4663 H   0  0  0  0  0  0  0  0  0  0  0  0
    2.7540   -0.4274   -0.2641 H   0  0  0  0  0  0  0  0  0  0  0  0
    2.4724    1.2724    1.0424 H   0  0  0  0  0  0  0  0  0  0  0  0
    1.3681   -2.2099    0.6936 H   0  0  0  0  0  0  0  0  0  0  0  0
   -1.2058   -1.8784    0.8122 H   0  0  0  0  0  0  0  0  0  0  0  0
  1  2  1  0
  2  3  2  0
  3  4  1  0
  4  5  1  0
  5  6  1  0
  5  7  1  0
  7  8  1  0
  8  9  1  0
  9  2  1  0
  9  7  1  0
  1 10  1  0
  1 11  1  0
  1 12  1  0
  3 13  1  0
  4 14  1  0
  4 15  1  0
  5 16  1  0
  6 17  1  0
  7 18  1  0
  9 19  1  0
M  END
