
     RDKit          3D

 19 20  0  0  0  0  0  0  0  0999 V2000
   -2.2745   -1.1434    0.0181 C   0  0  0  0  0  0  0  0  0  0  0  0
   -1.1973   -0.1180   -0.0913 C   0  0  0  0  0  0  0  0  0  0  0  0
   -1.3401    1.1865   -0.2468 C   0  0  0  0  0  0  0  0  0  0  0  0
    0.0074    1.8564   -0.3112 C   0  0  0  0  0  0  0  0  0  0  0  0
    0.9159    0.8344    0.3163 C   0  0  0  0  0  0  0  0  0  0  0  0
    2.1167    0.6458   -0.3119 O   0  0  0  0  0  0  0  0  0  0  0  0
    2.4281   -0.6661    0.1156 C   0  0  0  0  0  0  0  0  0  0  0  0
    1.1590   -1.3699   -0.1590 C   0  0  0  0  0  0  0  0  0  0  0  0
    0.2117   -0.4531   -0.0384 C   0  0  0  0  0  0  0  0  0  0  0  0
   -2.1918   -1.7283    0.9599 H   0  0  0  0  0  0  0  0  0  0  0  0
   -2.3274   -1.7989   -0.8722 H   0  0  0  0  0  0  0  0  0  0  0  0
   -3.2454   -0.6076    0.0720 H   0  0  0  0  0  0  0  0  0  0  0  0
   -2.2761    1.7306   -0.3213 H   0  0  0  0  0  0  0  0  0  0  0  0
   -0.0225    2.7232    0.3828 H   0  0  0  0  0  0  0  0  0  0  0  0
    0.2980    2.1068   -1.3342 H   0  0  0  0  0  0  0  0  0  0  0  0
    0.9461    0.8699    1.4062 H   0  0  0  0  0  0  0  0  0  0  0  0
    2.5329   -0.5929    1.2209 H   0  0  0  0  0  0  0  0  0  0  0  0
    3.2933   -1.0726   -0.3956 H   0  0  0  0  0  0  0  0  0  0  0  0
    0.9660   -2.4028   -0.4098 H   0  0  0  0  0  0  0  0  0  0  0  0
  1  2  1  0
  2  3  2  0
  3  4  1  0
  4  5  1  0
  5  6  1  0
  6  7  1  0
  7  8  1  0
  8  9  2  0
  9  2  1  0
  9  5  1  0
  1 10  1  0
  1 11  1  0
  1 12  1  0
  3 13  1  0
  4 14  1  0
  4 15  1  0
  5 16  1  0
  7 17  1  0
  7 18  1  0
  8 19  1  0
M  END
