
     RDKit          3D

 19 20  0  0  0  0  0  0  0  0999 V2000
    2.8036    0.2921   -0.0758 C   0  0  0  0  0  0  0  0  0  0  0  0
    1.3348   -0.0079   -0.1958 C   0  0  0  0  0  0  0  0  0  0  0  0
    0.7270   -0.7344   -1.1069 C   0  0  0  0  0  0  0  0  0  0  0  0
   -0.7275   -0.7567   -0.8331 C   0  0  0  0  0  0  0  0  0  0  0  0
   -1.4383    0.5252   -1.0740 C   0  0  0  0  0  0  0  0  0  0  0  0
   -0.9682    0.2167    0.2816 C   0  0  0  0  0  0  0  0  0  0  0  0
   -1.9988   -0.2146    1.3288 C   0  0  0  0  0  0  0  0  0  0  0  0
    0.3749    0.5212    0.7645 C   0  0  0  0  0  0  0  0  0  0  0  0
    0.6361    1.1469    1.8485 O   0  0  0  0  0  0  0  0  0  0  0  0
    3.0147    1.3572   -0.2333 H   0  0  0  0  0  0  0  0  0  0  0  0
    3.3607   -0.3035   -0.8181 H   0  0  0  0  0  0  0  0  0  0  0  0
    3.0890    0.0174    0.9595 H   0  0  0  0  0  0  0  0  0  0  0  0
    1.1993   -1.2351   -1.9222 H   0  0  0  0  0  0  0  0  0  0  0  0
   -1.2448   -1.7156   -0.7712 H   0  0  0  0  0  0  0  0  0  0  0  0
   -2.5290    0.4341   -1.2455 H   0  0  0  0  0  0  0  0  0  0  0  0
   -0.9525    1.2638   -1.7333 H   0  0  0  0  0  0  0  0  0  0  0  0
   -1.6555   -1.1085    1.8889 H   0  0  0  0  0  0  0  0  0  0  0  0
   -2.9882   -0.3378    0.8774 H   0  0  0  0  0  0  0  0  0  0  0  0
   -2.0375    0.6394    2.0600 H   0  0  0  0  0  0  0  0  0  0  0  0
  1  2  1  0
  2  3  2  0
  3  4  1  0
  4  5  1  0
  5  6  1  0
  6  7  1  0
  6  8  1  0
  8  9  2  0
  8  2  1  0
  6  4  1  0
  1 10  1  0
  1 11  1  0
  1 12  1  0
  3 13  1  0
  4 14  1  0
  5 15  1  0
  5 16  1  0
  7 17  1  0
  7 18  1  0
  7 19  1  0
M  END
