
     RDKit          3D

 20 20  0  0  0  0  0  0  0  0999 V2000
    2.6442    0.1619    0.1078 C   0  0  0  0  0  0  0  0  0  0  0  0
    1.2045   -0.2031    0.1244 C   0  0  0  0  0  0  0  0  0  0  0  0
    0.6973   -1.3956    0.2609 C   0  0  0  0  0  0  0  0  0  0  0  0
   -0.7951   -1.3603    0.2273 C   0  0  0  0  0  0  0  0  0  0  0  0
   -1.1071   -0.0212   -0.3346 C   0  0  0  0  0  0  0  0  0  0  0  0
   -2.3372    0.6223    0.2461 C   0  0  0  0  0  0  0  0  0  0  0  0
    0.1156    0.7929   -0.0192 C   0  0  0  0  0  0  0  0  0  0  0  0
    0.3938    1.7455   -0.9945 O   0  0  0  0  0  0  0  0  0  0  0  0
    3.2621   -0.5929   -0.4364 H   0  0  0  0  0  0  0  0  0  0  0  0
    3.0512    0.2389    1.1432 H   0  0  0  0  0  0  0  0  0  0  0  0
    2.8078    1.1660   -0.3640 H   0  0  0  0  0  0  0  0  0  0  0  0
    1.2483   -2.3143    0.3845 H   0  0  0  0  0  0  0  0  0  0  0  0
   -1.1755   -1.5570    1.2315 H   0  0  0  0  0  0  0  0  0  0  0  0
   -1.2069   -2.1636   -0.4374 H   0  0  0  0  0  0  0  0  0  0  0  0
   -1.1863   -0.1094   -1.4344 H   0  0  0  0  0  0  0  0  0  0  0  0
   -3.1151    0.7641   -0.5322 H   0  0  0  0  0  0  0  0  0  0  0  0
   -2.1008    1.6541    0.6190 H   0  0  0  0  0  0  0  0  0  0  0  0
   -2.7754    0.0359    1.0906 H   0  0  0  0  0  0  0  0  0  0  0  0
   -0.0386    1.2504    0.9757 H   0  0  0  0  0  0  0  0  0  0  0  0
    0.4131    1.2855   -1.8583 H   0  0  0  0  0  0  0  0  0  0  0  0
  1  2  1  0
  2  3  2  0
  3  4  1  0
  4  5  1  0
  5  6  1  0
  5  7  1  0
  7  8  1  0
  7  2  1  0
  1  9  1  0
  1 10  1  0
  1 11  1  0
  3 12  1  0
  4 13  1  0
  4 14  1  0
  5 15  1  0
  6 16  1  0
  6 17  1  0
  6 18  1  0
  7 19  1  0
  8 20  1  0
M  END
