
     RDKit          3D

 20 20  0  0  0  0  0  0  0  0999 V2000
    2.6576   -0.3230    0.1452 C   0  0  0  0  0  0  0  0  0  0  0  0
    1.2033   -0.1251   -0.1195 C   0  0  0  0  0  0  0  0  0  0  0  0
    0.4883   -1.2338   -0.2382 C   0  0  0  0  0  0  0  0  0  0  0  0
   -0.9887   -1.3073   -0.5044 C   0  0  0  0  0  0  0  0  0  0  0  0
   -1.6619   -0.4501    0.5167 C   0  0  0  0  0  0  0  0  0  0  0  0
   -1.8064    0.9829    0.0880 C   0  0  0  0  0  0  0  0  0  0  0  0
   -0.5102    1.6512   -0.1252 C   0  0  0  0  0  0  0  0  0  0  0  0
    0.7301    1.2639   -0.2183 C   0  0  0  0  0  0  0  0  0  0  0  0
    3.1572    0.6596    0.1372 H   0  0  0  0  0  0  0  0  0  0  0  0
    2.7256   -0.7358    1.1881 H   0  0  0  0  0  0  0  0  0  0  0  0
    3.0921   -1.0699   -0.5219 H   0  0  0  0  0  0  0  0  0  0  0  0
    1.0202   -2.1698   -0.1332 H   0  0  0  0  0  0  0  0  0  0  0  0
   -1.1365   -0.8319   -1.5133 H   0  0  0  0  0  0  0  0  0  0  0  0
   -1.3248   -2.3488   -0.5254 H   0  0  0  0  0  0  0  0  0  0  0  0
   -2.6814   -0.8231    0.7736 H   0  0  0  0  0  0  0  0  0  0  0  0
   -1.0695   -0.4494    1.4722 H   0  0  0  0  0  0  0  0  0  0  0  0
   -2.5016    1.0672   -0.7608 H   0  0  0  0  0  0  0  0  0  0  0  0
   -2.2968    1.5199    0.9525 H   0  0  0  0  0  0  0  0  0  0  0  0
   -0.6196    2.7401   -0.2311 H   0  0  0  0  0  0  0  0  0  0  0  0
    1.5228    1.9833   -0.3822 H   0  0  0  0  0  0  0  0  0  0  0  0
  1  2  1  0
  2  3  2  0
  3  4  1  0
  4  5  1  0
  5  6  1  0
  6  7  1  0
  7  8  2  0
  8  2  1  0
  1  9  1  0
  1 10  1  0
  1 11  1  0
  3 12  1  0
  4 13  1  0
  4 14  1  0
  5 15  1  0
  5 16  1  0
  6 17  1  0
  6 18  1  0
  7 19  1  0
  8 20  1  0
M  END
