
     RDKit          3D

 18 19  0  0  0  0  0  0  0  0999 V2000
    2.5809    0.5032    0.3264 C   0  0  0  0  0  0  0  0  0  0  0  0
    1.2053   -0.0117    0.1328 C   0  0  0  0  0  0  0  0  0  0  0  0
    0.1294    0.5416    0.6733 C   0  0  0  0  0  0  0  0  0  0  0  0
   -1.0241   -0.2453    0.2533 C   0  0  0  0  0  0  0  0  0  0  0  0
   -2.4057    0.0128    0.6372 C   0  0  0  0  0  0  0  0  0  0  0  0
   -1.9906    0.3310   -0.7697 C   0  0  0  0  0  0  0  0  0  0  0  0
   -0.5188   -1.4648   -0.0890 O   0  0  0  0  0  0  0  0  0  0  0  0
    0.7467   -1.1983   -0.6606 C   0  0  0  0  0  0  0  0  0  0  0  0
    3.2546    0.1448   -0.5039 H   0  0  0  0  0  0  0  0  0  0  0  0
    2.9833    0.2025    1.2939 H   0  0  0  0  0  0  0  0  0  0  0  0
    2.6333    1.6144    0.2686 H   0  0  0  0  0  0  0  0  0  0  0  0
    0.1025    1.4345    1.3235 H   0  0  0  0  0  0  0  0  0  0  0  0
   -2.6275    0.9024    1.2515 H   0  0  0  0  0  0  0  0  0  0  0  0
   -3.0950   -0.8568    0.7169 H   0  0  0  0  0  0  0  0  0  0  0  0
   -2.3133   -0.3010   -1.6115 H   0  0  0  0  0  0  0  0  0  0  0  0
   -1.7563    1.3829   -1.0370 H   0  0  0  0  0  0  0  0  0  0  0  0
    1.4365   -2.0257   -0.4758 H   0  0  0  0  0  0  0  0  0  0  0  0
    0.6589   -0.9667   -1.7300 H   0  0  0  0  0  0  0  0  0  0  0  0
  1  2  1  0
  2  3  2  0
  3  4  1  0
  4  5  1  0
  5  6  1  0
  4  7  1  0
  7  8  1  0
  8  2  1  0
  6  4  1  0
  1  9  1  0
  1 10  1  0
  1 11  1  0
  3 12  1  0
  5 13  1  0
  5 14  1  0
  6 15  1  0
  6 16  1  0
  8 17  1  0
  8 18  1  0
M  END
