
     RDKit          3D

 19 21  0  0  0  0  0  0  0  0999 V2000
    2.4143    0.4012   -0.0395 C   0  0  0  0  0  0  0  0  0  0  0  0
    1.0085    0.1340    0.1183 C   0  0  0  0  0  0  0  0  0  0  0  0
    0.2594    0.1091    1.2040 C   0  0  0  0  0  0  0  0  0  0  0  0
   -1.1799    0.2486    0.8241 C   0  0  0  0  0  0  0  0  0  0  0  0
   -0.9166    0.9914   -0.5290 C   0  0  0  0  0  0  0  0  0  0  0  0
   -0.0030   -0.1962   -0.9366 C   0  0  0  0  0  0  0  0  0  0  0  0
   -0.6654   -1.4281   -0.4674 C   0  0  0  0  0  0  0  0  0  0  0  0
   -1.8066   -1.9877   -0.4483 O   0  0  0  0  0  0  0  0  0  0  0  0
   -1.8850   -0.8811    0.2760 C   0  0  0  0  0  0  0  0  0  0  0  0
    2.8994   -0.0954   -0.9112 H   0  0  0  0  0  0  0  0  0  0  0  0
    2.6351    1.4880   -0.1472 H   0  0  0  0  0  0  0  0  0  0  0  0
    3.0546    0.0861    0.8320 H   0  0  0  0  0  0  0  0  0  0  0  0
    0.5863    0.0077    2.2292 H   0  0  0  0  0  0  0  0  0  0  0  0
   -1.7740    0.8343    1.4899 H   0  0  0  0  0  0  0  0  0  0  0  0
   -1.8167    1.0322   -1.1266 H   0  0  0  0  0  0  0  0  0  0  0  0
   -0.3567    1.8994   -0.3722 H   0  0  0  0  0  0  0  0  0  0  0  0
    0.3415   -0.1360   -1.9371 H   0  0  0  0  0  0  0  0  0  0  0  0
   -0.0090   -2.0702    0.2158 H   0  0  0  0  0  0  0  0  0  0  0  0
   -2.7862   -0.4374   -0.2742 H   0  0  0  0  0  0  0  0  0  0  0  0
  1  2  1  0
  2  3  2  0
  3  4  1  0
  4  5  1  0
  5  6  1  0
  6  7  1  0
  7  8  1  0
  8  9  1  0
  6  2  1  0
  9  7  1  0
  9  4  1  0
  1 10  1  0
  1 11  1  0
  1 12  1  0
  3 13  1  0
  4 14  1  0
  5 15  1  0
  5 16  1  0
  6 17  1  0
  7 18  1  0
  9 19  1  0
M  END
