
     RDKit          3D

 23 24  0  0  0  0  0  0  0  0999 V2000
    2.9387   -0.5509    0.0197 C   0  0  0  0  0  0  0  0  0  0  0  0
    1.5092   -0.2674    0.3137 C   0  0  0  0  0  0  0  0  0  0  0  0
    0.9086   -0.0461    1.4929 C   0  0  0  0  0  0  0  0  0  0  0  0
   -0.5181    0.1861    1.0664 C   0  0  0  0  0  0  0  0  0  0  0  0
   -0.6515   -0.9801    0.1183 C   0  0  0  0  0  0  0  0  0  0  0  0
   -1.9331   -1.3281   -0.4374 C   0  0  0  0  0  0  0  0  0  0  0  0
    0.3512   -0.1529   -0.6392 C   0  0  0  0  0  0  0  0  0  0  0  0
   -0.2411    1.1104   -0.0894 C   0  0  0  0  0  0  0  0  0  0  0  0
   -1.3113    1.8143   -0.7462 C   0  0  0  0  0  0  0  0  0  0  0  0
    3.4354   -0.7440    0.9924 H   0  0  0  0  0  0  0  0  0  0  0  0
    3.4558    0.3392   -0.4156 H   0  0  0  0  0  0  0  0  0  0  0  0
    2.9992   -1.4319   -0.6689 H   0  0  0  0  0  0  0  0  0  0  0  0
    1.3014   -0.0294    2.4980 H   0  0  0  0  0  0  0  0  0  0  0  0
   -1.2457    0.3976    1.7806 H   0  0  0  0  0  0  0  0  0  0  0  0
   -0.1402   -1.8795    0.5304 H   0  0  0  0  0  0  0  0  0  0  0  0
   -2.0681   -1.3727   -1.5224 H   0  0  0  0  0  0  0  0  0  0  0  0
   -2.2872   -2.3063   -0.0473 H   0  0  0  0  0  0  0  0  0  0  0  0
   -2.7184   -0.6007   -0.0703 H   0  0  0  0  0  0  0  0  0  0  0  0
    0.5107   -0.2895   -1.6644 H   0  0  0  0  0  0  0  0  0  0  0  0
    0.5500    1.8502    0.2099 H   0  0  0  0  0  0  0  0  0  0  0  0
   -0.8906    2.6312   -1.3806 H   0  0  0  0  0  0  0  0  0  0  0  0
   -1.9243    2.3628    0.0309 H   0  0  0  0  0  0  0  0  0  0  0  0
   -2.0306    1.2878   -1.3716 H   0  0  0  0  0  0  0  0  0  0  0  0
  1  2  1  0
  2  3  2  0
  3  4  1  0
  4  5  1  0
  5  6  1  0
  5  7  1  0
  7  8  1  0
  8  9  1  0
  7  2  1  0
  8  4  1  0
  1 10  1  0
  1 11  1  0
  1 12  1  0
  3 13  1  0
  4 14  1  0
  5 15  1  0
  6 16  1  0
  6 17  1  0
  6 18  1  0
  7 19  1  0
  8 20  1  0
  9 21  1  0
  9 22  1  0
  9 23  1  0
M  END
