
     RDKit          3D

 23 24  0  0  0  0  0  0  0  0999 V2000
    0.9033    2.3595    0.0784 C   0  0  0  0  0  0  0  0  0  0  0  0
    0.4074    0.9363   -0.0237 C   0  0  0  0  0  0  0  0  0  0  0  0
   -0.7451    0.4569    0.4020 C   0  0  0  0  0  0  0  0  0  0  0  0
   -2.0918    0.2473    0.9814 C   0  0  0  0  0  0  0  0  0  0  0  0
   -2.2671   -0.8015   -0.1369 C   0  0  0  0  0  0  0  0  0  0  0  0
   -0.8011   -1.0291    0.0841 C   0  0  0  0  0  0  0  0  0  0  0  0
    0.0873   -1.0828   -1.1352 C   0  0  0  0  0  0  0  0  0  0  0  0
    1.1986   -0.1513   -0.6541 C   0  0  0  0  0  0  0  0  0  0  0  0
    2.1063   -0.8414    0.3335 C   0  0  0  0  0  0  0  0  0  0  0  0
    0.8729    2.8563   -0.9245 H   0  0  0  0  0  0  0  0  0  0  0  0
    0.2854    2.8617    0.8279 H   0  0  0  0  0  0  0  0  0  0  0  0
    1.9896    2.3423    0.3584 H   0  0  0  0  0  0  0  0  0  0  0  0
   -2.0415   -0.2366    1.9658 H   0  0  0  0  0  0  0  0  0  0  0  0
   -2.7957    1.0830    0.9147 H   0  0  0  0  0  0  0  0  0  0  0  0
   -2.9299   -1.6228    0.1861 H   0  0  0  0  0  0  0  0  0  0  0  0
   -2.5188   -0.2789   -1.0597 H   0  0  0  0  0  0  0  0  0  0  0  0
   -0.5429   -1.6822    0.9104 H   0  0  0  0  0  0  0  0  0  0  0  0
    0.4470   -2.0802   -1.3842 H   0  0  0  0  0  0  0  0  0  0  0  0
   -0.4049   -0.5733   -1.9852 H   0  0  0  0  0  0  0  0  0  0  0  0
    1.7866    0.1740   -1.5114 H   0  0  0  0  0  0  0  0  0  0  0  0
    3.0441   -1.1781   -0.1556 H   0  0  0  0  0  0  0  0  0  0  0  0
    2.4135   -0.0786    1.0846 H   0  0  0  0  0  0  0  0  0  0  0  0
    1.5969   -1.6806    0.8431 H   0  0  0  0  0  0  0  0  0  0  0  0
  1  2  1  0
  2  3  2  0
  3  4  1  0
  4  5  1  0
  5  6  1  0
  6  7  1  0
  7  8  1  0
  8  9  1  0
  8  2  1  0
  6  3  1  0
  1 10  1  0
  1 11  1  0
  1 12  1  0
  4 13  1  0
  4 14  1  0
  5 15  1  0
  5 16  1  0
  6 17  1  0
  7 18  1  0
  7 19  1  0
  8 20  1  0
  9 21  1  0
  9 22  1  0
  9 23  1  0
M  END
