
     RDKit          3D

 21 21  0  0  0  0  0  0  0  0999 V2000
   -1.8086    1.3763    0.3176 C   0  0  0  0  0  0  0  0  0  0  0  0
   -0.4577    0.7597    0.2477 C   0  0  0  0  0  0  0  0  0  0  0  0
    0.5287    1.0448    1.0903 C   0  0  0  0  0  0  0  0  0  0  0  0
    1.7599    0.2684    0.7659 C   0  0  0  0  0  0  0  0  0  0  0  0
    2.6876    1.0366    0.0744 O   0  0  0  0  0  0  0  0  0  0  0  0
    1.2222   -0.8491   -0.0950 C   0  0  0  0  0  0  0  0  0  0  0  0
   -0.0001   -0.2507   -0.7493 C   0  0  0  0  0  0  0  0  0  0  0  0
   -1.0447   -1.2847   -1.0400 C   0  0  0  0  0  0  0  0  0  0  0  0
   -1.4343   -2.0058    0.0584 O   0  0  0  0  0  0  0  0  0  0  0  0
   -2.1295    1.5719   -0.7483 H   0  0  0  0  0  0  0  0  0  0  0  0
   -2.5161    0.6385    0.7353 H   0  0  0  0  0  0  0  0  0  0  0  0
   -1.8197    2.3505    0.8148 H   0  0  0  0  0  0  0  0  0  0  0  0
    0.4555    1.7502    1.9106 H   0  0  0  0  0  0  0  0  0  0  0  0
    2.2349   -0.1237    1.6934 H   0  0  0  0  0  0  0  0  0  0  0  0
    2.8946    0.6085   -0.7925 H   0  0  0  0  0  0  0  0  0  0  0  0
    0.9114   -1.6631    0.5949 H   0  0  0  0  0  0  0  0  0  0  0  0
    1.9610   -1.2293   -0.8217 H   0  0  0  0  0  0  0  0  0  0  0  0
    0.2969    0.2653   -1.6591 H   0  0  0  0  0  0  0  0  0  0  0  0
   -0.6851   -1.8986   -1.8868 H   0  0  0  0  0  0  0  0  0  0  0  0
   -1.9445   -0.7381   -1.4332 H   0  0  0  0  0  0  0  0  0  0  0  0
   -1.1123   -1.6277    0.9225 H   0  0  0  0  0  0  0  0  0  0  0  0
  1  2  1  0
  2  3  2  0
  3  4  1  0
  4  5  1  0
  4  6  1  0
  6  7  1  0
  7  8  1  0
  8  9  1  0
  7  2  1  0
  1 10  1  0
  1 11  1  0
  1 12  1  0
  3 13  1  0
  4 14  1  0
  5 15  1  0
  6 16  1  0
  6 17  1  0
  7 18  1  0
  8 19  1  0
  8 20  1  0
  9 21  1  0
M  END
