
     RDKit          3D

 19 20  0  0  0  0  0  0  0  0999 V2000
    0.0689   -2.6519   -0.8029 C   0  0  0  0  0  0  0  0  0  0  0  0
   -0.0348   -1.2568   -0.2008 C   0  0  0  0  0  0  0  0  0  0  0  0
   -0.2745   -0.1478   -0.8548 C   0  0  0  0  0  0  0  0  0  0  0  0
   -0.3012    0.9889    0.0561 C   0  0  0  0  0  0  0  0  0  0  0  0
   -1.0642    2.1820   -0.3525 C   0  0  0  0  0  0  0  0  0  0  0  0
    0.4288    2.2355   -0.1377 C   0  0  0  0  0  0  0  0  0  0  0  0
   -0.4900    0.3663    1.3964 C   0  0  0  0  0  0  0  0  0  0  0  0
   -1.0022    0.7755    2.4027 O   0  0  0  0  0  0  0  0  0  0  0  0
    0.1316   -0.9750    1.2341 C   0  0  0  0  0  0  0  0  0  0  0  0
   -0.3043   -3.3578   -0.0538 H   0  0  0  0  0  0  0  0  0  0  0  0
    1.1342   -2.7824   -1.0514 H   0  0  0  0  0  0  0  0  0  0  0  0
   -0.5846   -2.6714   -1.7084 H   0  0  0  0  0  0  0  0  0  0  0  0
   -0.4346   -0.0843   -1.9488 H   0  0  0  0  0  0  0  0  0  0  0  0
   -1.7152    2.6763    0.3933 H   0  0  0  0  0  0  0  0  0  0  0  0
   -1.3543    2.3054   -1.4198 H   0  0  0  0  0  0  0  0  0  0  0  0
    0.7422    2.7826    0.7781 H   0  0  0  0  0  0  0  0  0  0  0  0
    1.1103    2.2896   -1.0082 H   0  0  0  0  0  0  0  0  0  0  0  0
    1.2178   -0.9282    1.4383 H   0  0  0  0  0  0  0  0  0  0  0  0
   -0.3833   -1.7465    1.8399 H   0  0  0  0  0  0  0  0  0  0  0  0
  1  2  1  0
  2  3  2  0
  3  4  1  0
  4  5  1  0
  5  6  1  0
  4  7  1  0
  7  8  2  0
  7  9  1  0
  9  2  1  0
  6  4  1  0
  1 10  1  0
  1 11  1  0
  1 12  1  0
  3 13  1  0
  5 14  1  0
  5 15  1  0
  6 16  1  0
  6 17  1  0
  9 18  1  0
  9 19  1  0
M  END
