
     RDKit          3D

 20 20  0  0  0  0  0  0  0  0999 V2000
   -2.4855    0.2641   -0.6774 C   0  0  0  0  0  0  0  0  0  0  0  0
   -1.1170   -0.0082   -0.2037 C   0  0  0  0  0  0  0  0  0  0  0  0
   -0.2689    1.0187   -0.1331 C   0  0  0  0  0  0  0  0  0  0  0  0
    1.1125    0.6641    0.3600 C   0  0  0  0  0  0  0  0  0  0  0  0
    1.9557    0.2130   -0.7910 C   0  0  0  0  0  0  0  0  0  0  0  0
    1.0386   -0.3139    1.4856 C   0  0  0  0  0  0  0  0  0  0  0  0
    0.1608   -1.3364    1.3252 O   0  0  0  0  0  0  0  0  0  0  0  0
   -0.6024   -1.3303    0.2019 C   0  0  0  0  0  0  0  0  0  0  0  0
   -3.2064   -0.4755   -0.2827 H   0  0  0  0  0  0  0  0  0  0  0  0
   -2.8622    1.2698   -0.3323 H   0  0  0  0  0  0  0  0  0  0  0  0
   -2.5127    0.2610   -1.7770 H   0  0  0  0  0  0  0  0  0  0  0  0
   -0.5545    2.0141   -0.4071 H   0  0  0  0  0  0  0  0  0  0  0  0
    1.5218    1.6188    0.7722 H   0  0  0  0  0  0  0  0  0  0  0  0
    1.3211   -0.1237   -1.6470 H   0  0  0  0  0  0  0  0  0  0  0  0
    2.6378   -0.6119   -0.5404 H   0  0  0  0  0  0  0  0  0  0  0  0
    2.5267    1.0991   -1.1794 H   0  0  0  0  0  0  0  0  0  0  0  0
    0.7827    0.2659    2.4208 H   0  0  0  0  0  0  0  0  0  0  0  0
    2.0847   -0.6769    1.6724 H   0  0  0  0  0  0  0  0  0  0  0  0
   -1.5006   -1.9865    0.3608 H   0  0  0  0  0  0  0  0  0  0  0  0
   -0.0320   -1.8252   -0.6279 H   0  0  0  0  0  0  0  0  0  0  0  0
  1  2  1  0
  2  3  2  0
  3  4  1  0
  4  5  1  0
  4  6  1  0
  6  7  1  0
  7  8  1  0
  8  2  1  0
  1  9  1  0
  1 10  1  0
  1 11  1  0
  3 12  1  0
  4 13  1  0
  5 14  1  0
  5 15  1  0
  5 16  1  0
  6 17  1  0
  6 18  1  0
  8 19  1  0
  8 20  1  0
M  END
