
     RDKit          3D

 19 21  0  0  0  0  0  0  0  0999 V2000
    2.5169   -0.5408    0.6362 C   0  0  0  0  0  0  0  0  0  0  0  0
    1.1747   -0.0589    0.1361 C   0  0  0  0  0  0  0  0  0  0  0  0
    0.4996    0.9783    0.5883 C   0  0  0  0  0  0  0  0  0  0  0  0
   -0.7717    1.1527   -0.1352 C   0  0  0  0  0  0  0  0  0  0  0  0
   -0.9245   -0.1100   -0.9147 C   0  0  0  0  0  0  0  0  0  0  0  0
    0.4338   -0.7190   -0.9597 C   0  0  0  0  0  0  0  0  0  0  0  0
   -1.8952   -0.6582    0.0734 C   0  0  0  0  0  0  0  0  0  0  0  0
   -1.8228   -0.3846    1.4142 O   0  0  0  0  0  0  0  0  0  0  0  0
   -1.9942    0.7572    0.6592 C   0  0  0  0  0  0  0  0  0  0  0  0
    2.4205   -1.3035    1.4060 H   0  0  0  0  0  0  0  0  0  0  0  0
    3.1058    0.2928    1.0561 H   0  0  0  0  0  0  0  0  0  0  0  0
    3.0722   -0.9137   -0.2487 H   0  0  0  0  0  0  0  0  0  0  0  0
    0.8736    1.6280    1.4219 H   0  0  0  0  0  0  0  0  0  0  0  0
   -0.8825    2.0993   -0.6990 H   0  0  0  0  0  0  0  0  0  0  0  0
   -1.3531    0.1131   -1.9227 H   0  0  0  0  0  0  0  0  0  0  0  0
    0.9426   -0.5860   -1.9337 H   0  0  0  0  0  0  0  0  0  0  0  0
    0.3949   -1.8361   -0.8088 H   0  0  0  0  0  0  0  0  0  0  0  0
   -2.8359   -1.1396   -0.2748 H   0  0  0  0  0  0  0  0  0  0  0  0
   -2.9549    1.2289    0.5061 H   0  0  0  0  0  0  0  0  0  0  0  0
  1  2  1  0
  2  3  2  0
  3  4  1  0
  4  5  1  0
  5  6  1  0
  5  7  1  0
  7  8  1  0
  8  9  1  0
  6  2  1  0
  9  7  1  0
  9  4  1  0
  1 10  1  0
  1 11  1  0
  1 12  1  0
  3 13  1  0
  4 14  1  0
  5 15  1  0
  6 16  1  0
  6 17  1  0
  7 18  1  0
  9 19  1  0
M  END
