
     RDKit          3D

 25 25  0  0  0  0  0  0  0  0999 V2000
   -0.3239    2.6220    0.9619 C   0  0  0  0  0  0  0  0  0  0  0  0
   -0.0513    1.3530    0.2070 C   0  0  0  0  0  0  0  0  0  0  0  0
   -0.9649    0.4005    0.2962 C   0  0  0  0  0  0  0  0  0  0  0  0
   -0.9137   -0.9324   -0.3588 C   0  0  0  0  0  0  0  0  0  0  0  0
   -2.2410   -1.5765   -0.2389 C   0  0  0  0  0  0  0  0  0  0  0  0
    0.2033   -1.7062    0.3014 C   0  0  0  0  0  0  0  0  0  0  0  0
    1.5313   -1.0736    0.1636 C   0  0  0  0  0  0  0  0  0  0  0  0
    1.6865   -0.0506   -0.8925 C   0  0  0  0  0  0  0  0  0  0  0  0
    1.2066    1.3221   -0.5451 C   0  0  0  0  0  0  0  0  0  0  0  0
   -0.7238    2.2884    1.9545 H   0  0  0  0  0  0  0  0  0  0  0  0
   -1.1553    3.1764    0.4757 H   0  0  0  0  0  0  0  0  0  0  0  0
    0.6044    3.1916    1.0494 H   0  0  0  0  0  0  0  0  0  0  0  0
   -1.8164    0.6510    0.9130 H   0  0  0  0  0  0  0  0  0  0  0  0
   -0.6535   -0.8571   -1.4358 H   0  0  0  0  0  0  0  0  0  0  0  0
   -3.0024   -0.8853   -0.6584 H   0  0  0  0  0  0  0  0  0  0  0  0
   -2.5200   -1.8651    0.7921 H   0  0  0  0  0  0  0  0  0  0  0  0
   -2.2790   -2.4792   -0.9182 H   0  0  0  0  0  0  0  0  0  0  0  0
   -0.0440   -1.7232    1.4032 H   0  0  0  0  0  0  0  0  0  0  0  0
    0.1489   -2.7585   -0.0270 H   0  0  0  0  0  0  0  0  0  0  0  0
    2.2780   -1.8917   -0.0636 H   0  0  0  0  0  0  0  0  0  0  0  0
    1.9184   -0.6310    1.1280 H   0  0  0  0  0  0  0  0  0  0  0  0
    2.7992    0.0570   -1.0709 H   0  0  0  0  0  0  0  0  0  0  0  0
    1.2928   -0.4265   -1.8687 H   0  0  0  0  0  0  0  0  0  0  0  0
    2.0020    1.9425   -0.0469 H   0  0  0  0  0  0  0  0  0  0  0  0
    1.0178    1.8525   -1.5211 H   0  0  0  0  0  0  0  0  0  0  0  0
  1  2  1  0
  2  3  2  0
  3  4  1  0
  4  5  1  0
  4  6  1  0
  6  7  1  0
  7  8  1  0
  8  9  1  0
  9  2  1  0
  1 10  1  0
  1 11  1  0
  1 12  1  0
  3 13  1  0
  4 14  1  0
  5 15  1  0
  5 16  1  0
  5 17  1  0
  6 18  1  0
  6 19  1  0
  7 20  1  0
  7 21  1  0
  8 22  1  0
  8 23  1  0
  9 24  1  0
  9 25  1  0
M  END
