
     RDKit          3D

 23 23  0  0  0  0  0  0  0  0999 V2000
    2.5064   -0.3280    0.9253 C   0  0  0  0  0  0  0  0  0  0  0  0
    1.2972    0.0605    0.1150 C   0  0  0  0  0  0  0  0  0  0  0  0
    0.7188    1.1719    0.5218 C   0  0  0  0  0  0  0  0  0  0  0  0
   -0.4996    1.8376   -0.0593 C   0  0  0  0  0  0  0  0  0  0  0  0
   -1.0178    1.0923   -1.0938 O   0  0  0  0  0  0  0  0  0  0  0  0
   -1.5087   -0.1348   -0.7300 C   0  0  0  0  0  0  0  0  0  0  0  0
   -2.1113   -0.1524    0.6555 C   0  0  0  0  0  0  0  0  0  0  0  0
   -0.5284   -1.2592   -0.8859 C   0  0  0  0  0  0  0  0  0  0  0  0
    0.8975   -0.8052   -1.0057 C   0  0  0  0  0  0  0  0  0  0  0  0
    2.9243    0.5529    1.4383 H   0  0  0  0  0  0  0  0  0  0  0  0
    2.2873   -1.1725    1.5981 H   0  0  0  0  0  0  0  0  0  0  0  0
    3.2791   -0.6540    0.1760 H   0  0  0  0  0  0  0  0  0  0  0  0
    1.1251    1.6998    1.3591 H   0  0  0  0  0  0  0  0  0  0  0  0
   -0.1244    2.7934   -0.5026 H   0  0  0  0  0  0  0  0  0  0  0  0
   -1.2399    2.0865    0.7323 H   0  0  0  0  0  0  0  0  0  0  0  0
   -2.3647   -0.3612   -1.4335 H   0  0  0  0  0  0  0  0  0  0  0  0
   -1.3954    0.0374    1.4514 H   0  0  0  0  0  0  0  0  0  0  0  0
   -2.9275    0.5822    0.7363 H   0  0  0  0  0  0  0  0  0  0  0  0
   -2.5235   -1.1766    0.8066 H   0  0  0  0  0  0  0  0  0  0  0  0
   -0.6243   -2.0003   -0.0418 H   0  0  0  0  0  0  0  0  0  0  0  0
   -0.7401   -1.8793   -1.8058 H   0  0  0  0  0  0  0  0  0  0  0  0
    1.0313   -0.2819   -1.9780 H   0  0  0  0  0  0  0  0  0  0  0  0
    1.5387   -1.7090   -0.9791 H   0  0  0  0  0  0  0  0  0  0  0  0
  1  2  1  0
  2  3  2  0
  3  4  1  0
  4  5  1  0
  5  6  1  0
  6  7  1  0
  6  8  1  0
  8  9  1  0
  9  2  1  0
  1 10  1  0
  1 11  1  0
  1 12  1  0
  3 13  1  0
  4 14  1  0
  4 15  1  0
  6 16  1  0
  7 17  1  0
  7 18  1  0
  7 19  1  0
  8 20  1  0
  8 21  1  0
  9 22  1  0
  9 23  1  0
M  END
