
     RDKit          3D

 21 22  0  0  0  0  0  0  0  0999 V2000
    2.3047   -0.7880    0.1233 C   0  0  0  0  0  0  0  0  0  0  0  0
    1.1325    0.1521   -0.0399 C   0  0  0  0  0  0  0  0  0  0  0  0
    1.0046    1.3119    0.5581 C   0  0  0  0  0  0  0  0  0  0  0  0
   -0.2995    1.8910    0.1048 C   0  0  0  0  0  0  0  0  0  0  0  0
   -1.0948    0.7331   -0.4341 C   0  0  0  0  0  0  0  0  0  0  0  0
   -1.7492   -0.0894    0.6404 C   0  0  0  0  0  0  0  0  0  0  0  0
   -1.4928   -1.4945    0.2274 C   0  0  0  0  0  0  0  0  0  0  0  0
   -0.5115   -1.5516   -0.6490 C   0  0  0  0  0  0  0  0  0  0  0  0
    0.0028   -0.1871   -0.9239 C   0  0  0  0  0  0  0  0  0  0  0  0
    3.1637   -0.2719    0.5856 H   0  0  0  0  0  0  0  0  0  0  0  0
    1.9351   -1.6305    0.7378 H   0  0  0  0  0  0  0  0  0  0  0  0
    2.5782   -1.1339   -0.8904 H   0  0  0  0  0  0  0  0  0  0  0  0
    1.7239    1.7404    1.2440 H   0  0  0  0  0  0  0  0  0  0  0  0
   -0.7788    2.4318    0.9138 H   0  0  0  0  0  0  0  0  0  0  0  0
   -0.0519    2.5460   -0.7617 H   0  0  0  0  0  0  0  0  0  0  0  0
   -1.7976    1.0070   -1.2199 H   0  0  0  0  0  0  0  0  0  0  0  0
   -2.8478    0.0865    0.6673 H   0  0  0  0  0  0  0  0  0  0  0  0
   -1.2626    0.0526    1.6211 H   0  0  0  0  0  0  0  0  0  0  0  0
   -2.0350   -2.3535    0.5938 H   0  0  0  0  0  0  0  0  0  0  0  0
   -0.1222   -2.4467   -1.1122 H   0  0  0  0  0  0  0  0  0  0  0  0
    0.1981   -0.0055   -1.9865 H   0  0  0  0  0  0  0  0  0  0  0  0
  1  2  1  0
  2  3  2  0
  3  4  1  0
  4  5  1  0
  5  6  1  0
  6  7  1  0
  7  8  2  0
  8  9  1  0
  9  2  1  0
  9  5  1  0
  1 10  1  0
  1 11  1  0
  1 12  1  0
  3 13  1  0
  4 14  1  0
  4 15  1  0
  5 16  1  0
  6 17  1  0
  6 18  1  0
  7 19  1  0
  8 20  1  0
  9 21  1  0
M  END
