
     RDKit          3D

 23 23  0  0  0  0  0  0  0  0999 V2000
    2.9544    0.1443   -0.0707 C   0  0  0  0  0  0  0  0  0  0  0  0
    1.4731    0.2437   -0.0826 C   0  0  0  0  0  0  0  0  0  0  0  0
    0.7599    1.0406    0.7007 C   0  0  0  0  0  0  0  0  0  0  0  0
   -0.7267    1.0554    0.5992 C   0  0  0  0  0  0  0  0  0  0  0  0
   -1.1734    1.6721   -0.5594 O   0  0  0  0  0  0  0  0  0  0  0  0
   -1.1871   -0.3815    0.6169 C   0  0  0  0  0  0  0  0  0  0  0  0
   -2.6209   -0.4680    0.1006 C   0  0  0  0  0  0  0  0  0  0  0  0
   -0.3572   -1.3017   -0.2102 C   0  0  0  0  0  0  0  0  0  0  0  0
    0.7023   -0.6018   -1.0340 C   0  0  0  0  0  0  0  0  0  0  0  0
    3.3304   -0.5085    0.7424 H   0  0  0  0  0  0  0  0  0  0  0  0
    3.2986   -0.2878   -1.0202 H   0  0  0  0  0  0  0  0  0  0  0  0
    3.4222    1.1570    0.0461 H   0  0  0  0  0  0  0  0  0  0  0  0
    1.2877    1.6721    1.4076 H   0  0  0  0  0  0  0  0  0  0  0  0
   -1.1718    1.5614    1.4827 H   0  0  0  0  0  0  0  0  0  0  0  0
   -0.7512    2.5715   -0.6229 H   0  0  0  0  0  0  0  0  0  0  0  0
   -1.2114   -0.6819    1.7040 H   0  0  0  0  0  0  0  0  0  0  0  0
   -3.1838    0.4459    0.3200 H   0  0  0  0  0  0  0  0  0  0  0  0
   -2.6273   -0.6820   -1.0000 H   0  0  0  0  0  0  0  0  0  0  0  0
   -3.0749   -1.3387    0.6168 H   0  0  0  0  0  0  0  0  0  0  0  0
    0.2097   -1.9697    0.5029 H   0  0  0  0  0  0  0  0  0  0  0  0
   -0.9560   -1.9252   -0.9167 H   0  0  0  0  0  0  0  0  0  0  0  0
    1.3407   -1.4157   -1.4667 H   0  0  0  0  0  0  0  0  0  0  0  0
    0.2626   -0.0015   -1.8564 H   0  0  0  0  0  0  0  0  0  0  0  0
  1  2  1  0
  2  3  2  0
  3  4  1  0
  4  5  1  0
  4  6  1  0
  6  7  1  0
  6  8  1  0
  8  9  1  0
  9  2  1  0
  1 10  1  0
  1 11  1  0
  1 12  1  0
  3 13  1  0
  4 14  1  0
  5 15  1  0
  6 16  1  0
  7 17  1  0
  7 18  1  0
  7 19  1  0
  8 20  1  0
  8 21  1  0
  9 22  1  0
  9 23  1  0
M  END
