
     RDKit          3D

 23 24  0  0  0  0  0  0  0  0999 V2000
    2.3754   -1.0430    0.3556 C   0  0  0  0  0  0  0  0  0  0  0  0
    1.1307   -0.2999    0.1210 C   0  0  0  0  0  0  0  0  0  0  0  0
    0.9603    0.3436   -1.0276 C   0  0  0  0  0  0  0  0  0  0  0  0
   -0.2175    1.2256   -1.2106 C   0  0  0  0  0  0  0  0  0  0  0  0
   -1.1345    1.1225   -0.0221 C   0  0  0  0  0  0  0  0  0  0  0  0
   -0.2913    1.2919    1.2431 C   0  0  0  0  0  0  0  0  0  0  0  0
    0.0095   -0.2092    1.1022 C   0  0  0  0  0  0  0  0  0  0  0  0
   -1.3364   -0.3139    0.4311 C   0  0  0  0  0  0  0  0  0  0  0  0
   -1.4925   -1.3238   -0.6352 C   0  0  0  0  0  0  0  0  0  0  0  0
    2.2937   -1.8009    1.1512 H   0  0  0  0  0  0  0  0  0  0  0  0
    2.6945   -1.5065   -0.6055 H   0  0  0  0  0  0  0  0  0  0  0  0
    3.1989   -0.3201    0.6168 H   0  0  0  0  0  0  0  0  0  0  0  0
    1.6523    0.2563   -1.8573 H   0  0  0  0  0  0  0  0  0  0  0  0
    0.1653    2.2772   -1.2281 H   0  0  0  0  0  0  0  0  0  0  0  0
   -0.7883    0.9836   -2.1331 H   0  0  0  0  0  0  0  0  0  0  0  0
   -2.0233    1.7421   -0.0763 H   0  0  0  0  0  0  0  0  0  0  0  0
   -0.9325    1.5201    2.1247 H   0  0  0  0  0  0  0  0  0  0  0  0
    0.5758    1.9375    1.1261 H   0  0  0  0  0  0  0  0  0  0  0  0
    0.1411   -0.7415    2.0424 H   0  0  0  0  0  0  0  0  0  0  0  0
   -2.1329   -0.3453    1.1889 H   0  0  0  0  0  0  0  0  0  0  0  0
   -2.2399   -0.9244   -1.3813 H   0  0  0  0  0  0  0  0  0  0  0  0
   -0.5885   -1.6551   -1.1370 H   0  0  0  0  0  0  0  0  0  0  0  0
   -2.0198   -2.2167   -0.1890 H   0  0  0  0  0  0  0  0  0  0  0  0
  1  2  1  0
  2  3  2  0
  3  4  1  0
  4  5  1  0
  5  6  1  0
  6  7  1  0
  7  8  1  0
  8  9  1  0
  7  2  1  0
  8  5  1  0
  1 10  1  0
  1 11  1  0
  1 12  1  0
  3 13  1  0
  4 14  1  0
  4 15  1  0
  5 16  1  0
  6 17  1  0
  6 18  1  0
  7 19  1  0
  8 20  1  0
  9 21  1  0
  9 22  1  0
  9 23  1  0
M  END
