
     RDKit          3D

 19 20  0  0  0  0  0  0  0  0999 V2000
    1.9778   -0.7861   -0.3501 C   0  0  0  0  0  0  0  0  0  0  0  0
    0.8517    0.1234   -0.0426 C   0  0  0  0  0  0  0  0  0  0  0  0
    0.9502    1.4713   -0.0032 C   0  0  0  0  0  0  0  0  0  0  0  0
   -0.4632    1.9221    0.2539 C   0  0  0  0  0  0  0  0  0  0  0  0
   -1.2743    1.6578   -0.8353 O   0  0  0  0  0  0  0  0  0  0  0  0
   -1.4746    0.2712   -0.8723 C   0  0  0  0  0  0  0  0  0  0  0  0
   -0.5548   -0.1672    0.2751 C   0  0  0  0  0  0  0  0  0  0  0  0
   -0.8508   -1.4944    0.8129 C   0  0  0  0  0  0  0  0  0  0  0  0
   -0.8469    0.9010    1.1621 O   0  0  0  0  0  0  0  0  0  0  0  0
    2.8152   -0.2121   -0.8145 H   0  0  0  0  0  0  0  0  0  0  0  0
    2.3881   -1.2918    0.5383 H   0  0  0  0  0  0  0  0  0  0  0  0
    1.6976   -1.5643   -1.1174 H   0  0  0  0  0  0  0  0  0  0  0  0
    1.8374    2.0556   -0.1286 H   0  0  0  0  0  0  0  0  0  0  0  0
   -0.5404    2.9107    0.6658 H   0  0  0  0  0  0  0  0  0  0  0  0
   -2.4967    0.0127   -0.5687 H   0  0  0  0  0  0  0  0  0  0  0  0
   -1.1594   -0.1727   -1.8334 H   0  0  0  0  0  0  0  0  0  0  0  0
   -1.8988   -1.8039    0.5720 H   0  0  0  0  0  0  0  0  0  0  0  0
   -0.7801   -1.5842    1.9331 H   0  0  0  0  0  0  0  0  0  0  0  0
   -0.1780   -2.2492    0.3531 H   0  0  0  0  0  0  0  0  0  0  0  0
  1  2  1  0
  2  3  2  0
  3  4  1  0
  4  5  1  0
  5  6  1  0
  6  7  1  0
  7  8  1  0
  7  9  1  0
  7  2  1  0
  9  4  1  0
  1 10  1  0
  1 11  1  0
  1 12  1  0
  3 13  1  0
  4 14  1  0
  6 15  1  0
  6 16  1  0
  8 17  1  0
  8 18  1  0
  8 19  1  0
M  END
