
     RDKit          3D

 19 19  0  0  0  0  0  0  0  0999 V2000
   -0.3667    2.1796    0.0617 C   0  0  0  0  0  0  0  0  0  0  0  0
   -0.2946    0.6876   -0.0613 C   0  0  0  0  0  0  0  0  0  0  0  0
    0.8327   -0.0137   -0.1932 C   0  0  0  0  0  0  0  0  0  0  0  0
    2.2351    0.5253   -0.2457 C   0  0  0  0  0  0  0  0  0  0  0  0
    0.5166   -1.4357   -0.2844 C   0  0  0  0  0  0  0  0  0  0  0  0
    1.2319   -2.3436   -0.7837 O   0  0  0  0  0  0  0  0  0  0  0  0
   -0.8396   -1.5594    0.3468 C   0  0  0  0  0  0  0  0  0  0  0  0
   -1.5275   -2.6604   -0.1085 O   0  0  0  0  0  0  0  0  0  0  0  0
   -1.4558   -0.2466   -0.0567 C   0  0  0  0  0  0  0  0  0  0  0  0
   -1.3868    2.5144   -0.2257 H   0  0  0  0  0  0  0  0  0  0  0  0
   -0.1574    2.4061    1.1426 H   0  0  0  0  0  0  0  0  0  0  0  0
    0.3917    2.6465   -0.6033 H   0  0  0  0  0  0  0  0  0  0  0  0
    2.2086    1.6270   -0.2871 H   0  0  0  0  0  0  0  0  0  0  0  0
    2.7741    0.2635    0.7041 H   0  0  0  0  0  0  0  0  0  0  0  0
    2.7996    0.1146   -1.1029 H   0  0  0  0  0  0  0  0  0  0  0  0
   -0.7528   -1.5373    1.4650 H   0  0  0  0  0  0  0  0  0  0  0  0
   -2.1301   -2.9912    0.6293 H   0  0  0  0  0  0  0  0  0  0  0  0
   -1.9079   -0.3149   -1.0753 H   0  0  0  0  0  0  0  0  0  0  0  0
   -2.1711    0.1383    0.6782 H   0  0  0  0  0  0  0  0  0  0  0  0
  1  2  1  0
  2  3  2  0
  3  4  1  0
  3  5  1  0
  5  6  2  0
  5  7  1  0
  7  8  1  0
  7  9  1  0
  9  2  1  0
  1 10  1  0
  1 11  1  0
  1 12  1  0
  4 13  1  0
  4 14  1  0
  4 15  1  0
  7 16  1  0
  8 17  1  0
  9 18  1  0
  9 19  1  0
M  END
