
     RDKit          3D

 19 19  0  0  0  0  0  0  0  0999 V2000
   -1.1411    1.6413    0.2489 C   0  0  0  0  0  0  0  0  0  0  0  0
   -0.0297    0.6874   -0.0057 C   0  0  0  0  0  0  0  0  0  0  0  0
    1.1976    1.0692    0.2796 C   0  0  0  0  0  0  0  0  0  0  0  0
    2.3198    0.1546    0.0417 C   0  0  0  0  0  0  0  0  0  0  0  0
    1.9400   -1.2181    0.0399 O   0  0  0  0  0  0  0  0  0  0  0  0
    0.6823   -1.6547   -0.2554 C   0  0  0  0  0  0  0  0  0  0  0  0
    0.4494   -2.8903   -0.2469 O   0  0  0  0  0  0  0  0  0  0  0  0
   -0.3631   -0.6629   -0.5750 C   0  0  0  0  0  0  0  0  0  0  0  0
   -1.6835   -1.1545    0.0222 C   0  0  0  0  0  0  0  0  0  0  0  0
   -0.7747    2.7015    0.2488 H   0  0  0  0  0  0  0  0  0  0  0  0
   -1.8632    1.5742   -0.5794 H   0  0  0  0  0  0  0  0  0  0  0  0
   -1.6338    1.4750    1.2220 H   0  0  0  0  0  0  0  0  0  0  0  0
    1.4080    2.0552    0.6919 H   0  0  0  0  0  0  0  0  0  0  0  0
    2.8763    0.3503   -0.8953 H   0  0  0  0  0  0  0  0  0  0  0  0
    3.0827    0.2457    0.8648 H   0  0  0  0  0  0  0  0  0  0  0  0
   -0.4877   -0.5187   -1.6701 H   0  0  0  0  0  0  0  0  0  0  0  0
   -1.8586   -0.6154    0.9925 H   0  0  0  0  0  0  0  0  0  0  0  0
   -2.5178   -1.0005   -0.6806 H   0  0  0  0  0  0  0  0  0  0  0  0
   -1.6029   -2.2392    0.2561 H   0  0  0  0  0  0  0  0  0  0  0  0
  1  2  1  0
  2  3  2  0
  3  4  1  0
  4  5  1  0
  5  6  1  0
  6  7  2  0
  6  8  1  0
  8  9  1  0
  8  2  1  0
  1 10  1  0
  1 11  1  0
  1 12  1  0
  3 13  1  0
  4 14  1  0
  4 15  1  0
  8 16  1  0
  9 17  1  0
  9 18  1  0
  9 19  1  0
M  END
