
     RDKit          3D

 23 24  0  0  0  0  0  0  0  0999 V2000
   -2.1116    1.4839   -0.0498 C   0  0  0  0  0  0  0  0  0  0  0  0
   -0.8645    0.7219    0.2387 C   0  0  0  0  0  0  0  0  0  0  0  0
   -0.6773   -0.5848    0.0950 C   0  0  0  0  0  0  0  0  0  0  0  0
   -1.6979   -1.5601   -0.3921 C   0  0  0  0  0  0  0  0  0  0  0  0
    0.7053   -0.9644    0.4879 C   0  0  0  0  0  0  0  0  0  0  0  0
    1.6540   -1.2010   -0.6557 C   0  0  0  0  0  0  0  0  0  0  0  0
    2.1511    0.2223   -0.5132 C   0  0  0  0  0  0  0  0  0  0  0  0
    1.4090    0.3171    0.8025 C   0  0  0  0  0  0  0  0  0  0  0  0
    0.3654    1.3920    0.7464 C   0  0  0  0  0  0  0  0  0  0  0  0
   -1.8162    2.4188   -0.5532 H   0  0  0  0  0  0  0  0  0  0  0  0
   -2.8457    0.8930   -0.6286 H   0  0  0  0  0  0  0  0  0  0  0  0
   -2.6130    1.7424    0.9283 H   0  0  0  0  0  0  0  0  0  0  0  0
   -1.5181   -1.7910   -1.4582 H   0  0  0  0  0  0  0  0  0  0  0  0
   -2.7318   -1.1250   -0.3485 H   0  0  0  0  0  0  0  0  0  0  0  0
   -1.7400   -2.4692    0.2427 H   0  0  0  0  0  0  0  0  0  0  0  0
    0.7703   -1.7437    1.2810 H   0  0  0  0  0  0  0  0  0  0  0  0
    1.1820   -1.4353   -1.6274 H   0  0  0  0  0  0  0  0  0  0  0  0
    2.4557   -1.9036   -0.3472 H   0  0  0  0  0  0  0  0  0  0  0  0
    1.7851    0.9092   -1.3049 H   0  0  0  0  0  0  0  0  0  0  0  0
    3.2386    0.3137   -0.3311 H   0  0  0  0  0  0  0  0  0  0  0  0
    2.0605    0.3155    1.6970 H   0  0  0  0  0  0  0  0  0  0  0  0
    0.6579    2.1588   -0.0274 H   0  0  0  0  0  0  0  0  0  0  0  0
    0.1812    1.8897    1.7179 H   0  0  0  0  0  0  0  0  0  0  0  0
  1  2  1  0
  2  3  2  0
  3  4  1  0
  3  5  1  0
  5  6  1  0
  6  7  1  0
  7  8  1  0
  8  9  1  0
  9  2  1  0
  8  5  1  0
  1 10  1  0
  1 11  1  0
  1 12  1  0
  4 13  1  0
  4 14  1  0
  4 15  1  0
  5 16  1  0
  6 17  1  0
  6 18  1  0
  7 19  1  0
  7 20  1  0
  8 21  1  0
  9 22  1  0
  9 23  1  0
M  END
