
     RDKit          3D

 21 22  0  0  0  0  0  0  0  0999 V2000
   -2.8705   -0.8224   -0.1001 C   0  0  0  0  0  0  0  0  0  0  0  0
   -1.5331   -0.1809   -0.1046 C   0  0  0  0  0  0  0  0  0  0  0  0
   -0.3369   -0.6788   -0.3459 C   0  0  0  0  0  0  0  0  0  0  0  0
    0.6349    0.4008   -0.2129 C   0  0  0  0  0  0  0  0  0  0  0  0
    1.8960    0.2940   -1.0200 C   0  0  0  0  0  0  0  0  0  0  0  0
    2.4657   -0.5458    0.1323 C   0  0  0  0  0  0  0  0  0  0  0  0
    1.5002    0.2354    1.0354 C   0  0  0  0  0  0  0  0  0  0  0  0
   -0.0581    1.5703   -0.2897 O   0  0  0  0  0  0  0  0  0  0  0  0
   -1.3384    1.2653    0.1896 C   0  0  0  0  0  0  0  0  0  0  0  0
   -3.4343   -0.4032    0.7593 H   0  0  0  0  0  0  0  0  0  0  0  0
   -2.8103   -1.9176    0.0830 H   0  0  0  0  0  0  0  0  0  0  0  0
   -3.4320   -0.5981   -1.0099 H   0  0  0  0  0  0  0  0  0  0  0  0
   -0.1671   -1.7288   -0.5972 H   0  0  0  0  0  0  0  0  0  0  0  0
    1.8453   -0.2084   -1.9795 H   0  0  0  0  0  0  0  0  0  0  0  0
    2.4336    1.2579   -1.0479 H   0  0  0  0  0  0  0  0  0  0  0  0
    3.5272   -0.3381    0.3220 H   0  0  0  0  0  0  0  0  0  0  0  0
    2.1818   -1.6223    0.0626 H   0  0  0  0  0  0  0  0  0  0  0  0
    1.0313   -0.4235    1.7639 H   0  0  0  0  0  0  0  0  0  0  0  0
    1.9335    1.1804    1.4090 H   0  0  0  0  0  0  0  0  0  0  0  0
   -2.1292    1.8121   -0.3398 H   0  0  0  0  0  0  0  0  0  0  0  0
   -1.3396    1.4517    1.2903 H   0  0  0  0  0  0  0  0  0  0  0  0
  1  2  1  0
  2  3  2  0
  3  4  1  0
  4  5  1  0
  5  6  1  0
  6  7  1  0
  4  8  1  0
  8  9  1  0
  9  2  1  0
  7  4  1  0
  1 10  1  0
  1 11  1  0
  1 12  1  0
  3 13  1  0
  5 14  1  0
  5 15  1  0
  6 16  1  0
  6 17  1  0
  7 18  1  0
  7 19  1  0
  9 20  1  0
  9 21  1  0
M  END
