
     RDKit          3D

 23 24  0  0  0  0  0  0  0  0999 V2000
    2.8012   -0.4754    0.1704 C   0  0  0  0  0  0  0  0  0  0  0  0
    1.4117   -0.0842   -0.1241 C   0  0  0  0  0  0  0  0  0  0  0  0
    0.9534    0.7880   -1.0507 C   0  0  0  0  0  0  0  0  0  0  0  0
   -0.5570    0.7666   -1.0195 C   0  0  0  0  0  0  0  0  0  0  0  0
   -0.9749    1.4418    0.2339 C   0  0  0  0  0  0  0  0  0  0  0  0
   -0.3844    0.5483    1.3326 C   0  0  0  0  0  0  0  0  0  0  0  0
    0.2038   -0.6052    0.5808 C   0  0  0  0  0  0  0  0  0  0  0  0
   -0.7264   -0.7127   -0.6374 C   0  0  0  0  0  0  0  0  0  0  0  0
   -2.1059   -1.0785   -0.2942 C   0  0  0  0  0  0  0  0  0  0  0  0
    3.1980    0.2278    0.9439 H   0  0  0  0  0  0  0  0  0  0  0  0
    2.7994   -1.4846    0.6388 H   0  0  0  0  0  0  0  0  0  0  0  0
    3.4507   -0.5449   -0.7150 H   0  0  0  0  0  0  0  0  0  0  0  0
    1.5900    1.3761   -1.6806 H   0  0  0  0  0  0  0  0  0  0  0  0
   -1.0243    1.0425   -1.9317 H   0  0  0  0  0  0  0  0  0  0  0  0
   -2.0475    1.5071    0.4120 H   0  0  0  0  0  0  0  0  0  0  0  0
   -0.5658    2.4714    0.2898 H   0  0  0  0  0  0  0  0  0  0  0  0
    0.4644    1.1271    1.7779 H   0  0  0  0  0  0  0  0  0  0  0  0
   -1.1142    0.2845    2.0931 H   0  0  0  0  0  0  0  0  0  0  0  0
    0.3353   -1.5175    1.1109 H   0  0  0  0  0  0  0  0  0  0  0  0
   -0.2799   -1.3191   -1.4321 H   0  0  0  0  0  0  0  0  0  0  0  0
   -2.5002   -1.7693   -1.0975 H   0  0  0  0  0  0  0  0  0  0  0  0
   -2.8354   -0.2624   -0.2276 H   0  0  0  0  0  0  0  0  0  0  0  0
   -2.0923   -1.7274    0.6264 H   0  0  0  0  0  0  0  0  0  0  0  0
  1  2  1  0
  2  3  2  0
  3  4  1  0
  4  5  1  0
  5  6  1  0
  6  7  1  0
  7  8  1  0
  8  9  1  0
  7  2  1  0
  8  4  1  0
  1 10  1  0
  1 11  1  0
  1 12  1  0
  3 13  1  0
  4 14  1  0
  5 15  1  0
  5 16  1  0
  6 17  1  0
  6 18  1  0
  7 19  1  0
  8 20  1  0
  9 21  1  0
  9 22  1  0
  9 23  1  0
M  END
