
     RDKit          3D

 19 19  0  0  0  0  0  0  0  0999 V2000
   -2.1907   -0.3982    1.0243 C   0  0  0  0  0  0  0  0  0  0  0  0
   -0.8741   -0.3330    0.3384 C   0  0  0  0  0  0  0  0  0  0  0  0
    0.2786   -0.6489    0.8860 C   0  0  0  0  0  0  0  0  0  0  0  0
    1.3409   -0.4492   -0.1231 C   0  0  0  0  0  0  0  0  0  0  0  0
    2.5848    0.0806    0.4935 C   0  0  0  0  0  0  0  0  0  0  0  0
    2.6822    0.3669    1.6736 O   0  0  0  0  0  0  0  0  0  0  0  0
    0.7610    0.5032   -1.1372 C   0  0  0  0  0  0  0  0  0  0  0  0
   -0.7003    0.1157   -1.0866 C   0  0  0  0  0  0  0  0  0  0  0  0
   -1.4833    1.2049   -1.3788 O   0  0  0  0  0  0  0  0  0  0  0  0
   -3.0260   -0.2449    0.3118 H   0  0  0  0  0  0  0  0  0  0  0  0
   -2.3621   -1.4277    1.4576 H   0  0  0  0  0  0  0  0  0  0  0  0
   -2.2836    0.3229    1.8434 H   0  0  0  0  0  0  0  0  0  0  0  0
    0.4106   -1.0024    1.9283 H   0  0  0  0  0  0  0  0  0  0  0  0
    1.5238   -1.4099   -0.6608 H   0  0  0  0  0  0  0  0  0  0  0  0
    3.4417    0.2198   -0.1255 H   0  0  0  0  0  0  0  0  0  0  0  0
    1.1832    0.3507   -2.1561 H   0  0  0  0  0  0  0  0  0  0  0  0
    0.9555    1.5279   -0.8057 H   0  0  0  0  0  0  0  0  0  0  0  0
   -0.9138   -0.7225   -1.7475 H   0  0  0  0  0  0  0  0  0  0  0  0
   -1.3282    1.9442   -0.7356 H   0  0  0  0  0  0  0  0  0  0  0  0
  1  2  1  0
  2  3  2  0
  3  4  1  0
  4  5  1  0
  5  6  2  0
  4  7  1  0
  7  8  1  0
  8  9  1  0
  8  2  1  0
  1 10  1  0
  1 11  1  0
  1 12  1  0
  3 13  1  0
  4 14  1  0
  5 15  1  0
  7 16  1  0
  7 17  1  0
  8 18  1  0
  9 19  1  0
M  END
