
     RDKit          3D

 19 19  0  0  0  0  0  0  0  0999 V2000
   -2.4979   -0.8232   -0.0480 C   0  0  0  0  0  0  0  0  0  0  0  0
   -1.1363   -0.2019   -0.1095 C   0  0  0  0  0  0  0  0  0  0  0  0
   -0.0455   -0.8129   -0.5218 C   0  0  0  0  0  0  0  0  0  0  0  0
    1.0868    0.1297   -0.4345 C   0  0  0  0  0  0  0  0  0  0  0  0
    2.4023   -0.5485   -0.1495 C   0  0  0  0  0  0  0  0  0  0  0  0
    0.6661    1.0412    0.6944 C   0  0  0  0  0  0  0  0  0  0  0  0
   -0.8121    1.2153    0.2998 C   0  0  0  0  0  0  0  0  0  0  0  0
   -2.6797   -1.1845    0.9764 H   0  0  0  0  0  0  0  0  0  0  0  0
   -2.6129   -1.6327   -0.7855 H   0  0  0  0  0  0  0  0  0  0  0  0
   -3.2590   -0.0359   -0.3188 H   0  0  0  0  0  0  0  0  0  0  0  0
    0.0060   -1.8590   -0.8737 H   0  0  0  0  0  0  0  0  0  0  0  0
    1.1067    0.7087   -1.3808 H   0  0  0  0  0  0  0  0  0  0  0  0
    2.2818   -1.3008    0.6285 H   0  0  0  0  0  0  0  0  0  0  0  0
    2.8322   -0.9392   -1.0832 H   0  0  0  0  0  0  0  0  0  0  0  0
    3.1034    0.2597    0.1985 H   0  0  0  0  0  0  0  0  0  0  0  0
    0.6916    0.5130    1.6527 H   0  0  0  0  0  0  0  0  0  0  0  0
    1.1940    2.0051    0.6817 H   0  0  0  0  0  0  0  0  0  0  0  0
   -0.9062    1.9078   -0.5601 H   0  0  0  0  0  0  0  0  0  0  0  0
   -1.4212    1.5580    1.1334 H   0  0  0  0  0  0  0  0  0  0  0  0
  1  2  1  0
  2  3  2  0
  3  4  1  0
  4  5  1  0
  4  6  1  0
  6  7  1  0
  7  2  1  0
  1  8  1  0
  1  9  1  0
  1 10  1  0
  3 11  1  0
  4 12  1  0
  5 13  1  0
  5 14  1  0
  5 15  1  0
  6 16  1  0
  6 17  1  0
  7 18  1  0
  7 19  1  0
M  END
