
     RDKit          3D

 17 18  0  0  0  0  0  0  0  0999 V2000
   -2.2503    0.2556   -0.4504 C   0  0  0  0  0  0  0  0  0  0  0  0
   -0.8199   -0.0540   -0.1822 C   0  0  0  0  0  0  0  0  0  0  0  0
   -0.0322   -0.6886   -1.0339 C   0  0  0  0  0  0  0  0  0  0  0  0
    1.3942   -0.8001   -0.6420 C   0  0  0  0  0  0  0  0  0  0  0  0
    1.5046   -1.2092    0.7027 O   0  0  0  0  0  0  0  0  0  0  0  0
    1.2831    0.1439    1.0460 C   0  0  0  0  0  0  0  0  0  0  0  0
   -0.1931    0.3543    1.1069 C   0  0  0  0  0  0  0  0  0  0  0  0
    1.9250    0.5083   -0.2201 C   0  0  0  0  0  0  0  0  0  0  0  0
    2.5727    1.3980   -0.7362 O   0  0  0  0  0  0  0  0  0  0  0  0
   -2.8874    0.0380    0.4268 H   0  0  0  0  0  0  0  0  0  0  0  0
   -2.6105   -0.2517   -1.3472 H   0  0  0  0  0  0  0  0  0  0  0  0
   -2.3030    1.3505   -0.6524 H   0  0  0  0  0  0  0  0  0  0  0  0
   -0.3901   -1.1018   -1.9545 H   0  0  0  0  0  0  0  0  0  0  0  0
    2.0337   -1.4165   -1.2738 H   0  0  0  0  0  0  0  0  0  0  0  0
    1.8617    0.4724    1.9235 H   0  0  0  0  0  0  0  0  0  0  0  0
   -0.4910    1.3643    1.4093 H   0  0  0  0  0  0  0  0  0  0  0  0
   -0.5974   -0.3634    1.8775 H   0  0  0  0  0  0  0  0  0  0  0  0
  1  2  1  0
  2  3  2  0
  3  4  1  0
  4  5  1  0
  5  6  1  0
  6  7  1  0
  6  8  1  0
  8  9  2  0
  7  2  1  0
  8  4  1  0
  1 10  1  0
  1 11  1  0
  1 12  1  0
  3 13  1  0
  4 14  1  0
  6 15  1  0
  7 16  1  0
  7 17  1  0
M  END
