
     RDKit          3D

 19 20  0  0  0  0  0  0  0  0999 V2000
    2.5267    0.2441    0.4202 C   0  0  0  0  0  0  0  0  0  0  0  0
    1.0856    0.1144    0.0893 C   0  0  0  0  0  0  0  0  0  0  0  0
    0.1732   -0.5755    0.7767 C   0  0  0  0  0  0  0  0  0  0  0  0
   -1.1039   -0.4665   -0.0221 C   0  0  0  0  0  0  0  0  0  0  0  0
   -2.0127   -1.6080    0.1590 C   0  0  0  0  0  0  0  0  0  0  0  0
   -1.6627    0.7810    0.0770 O   0  0  0  0  0  0  0  0  0  0  0  0
   -0.6882    1.6513   -0.4544 C   0  0  0  0  0  0  0  0  0  0  0  0
    0.3120    0.6923   -1.0438 C   0  0  0  0  0  0  0  0  0  0  0  0
   -0.5409   -0.4058   -1.3231 O   0  0  0  0  0  0  0  0  0  0  0  0
    2.8889    1.2907    0.3124 H   0  0  0  0  0  0  0  0  0  0  0  0
    2.6572   -0.0125    1.4920 H   0  0  0  0  0  0  0  0  0  0  0  0
    3.1624   -0.4546   -0.1595 H   0  0  0  0  0  0  0  0  0  0  0  0
    0.3356   -1.0950    1.7066 H   0  0  0  0  0  0  0  0  0  0  0  0
   -2.5918   -1.7628   -0.7732 H   0  0  0  0  0  0  0  0  0  0  0  0
   -1.4103   -2.5234    0.3753 H   0  0  0  0  0  0  0  0  0  0  0  0
   -2.6709   -1.4063    1.0341 H   0  0  0  0  0  0  0  0  0  0  0  0
   -1.1051    2.3302   -1.2031 H   0  0  0  0  0  0  0  0  0  0  0  0
   -0.2329    2.1702    0.4124 H   0  0  0  0  0  0  0  0  0  0  0  0
    0.8777    1.0365   -1.8759 H   0  0  0  0  0  0  0  0  0  0  0  0
  1  2  1  0
  2  3  2  0
  3  4  1  0
  4  5  1  0
  4  6  1  0
  6  7  1  0
  7  8  1  0
  8  9  1  0
  8  2  1  0
  9  4  1  0
  1 10  1  0
  1 11  1  0
  1 12  1  0
  3 13  1  0
  5 14  1  0
  5 15  1  0
  5 16  1  0
  7 17  1  0
  7 18  1  0
  8 19  1  0
M  END
