
     RDKit          3D

 21 22  0  0  0  0  0  0  0  0999 V2000
    2.7150    0.7586    0.1670 C   0  0  0  0  0  0  0  0  0  0  0  0
    1.4032    0.1125    0.0201 C   0  0  0  0  0  0  0  0  0  0  0  0
    0.9844   -0.9359   -0.6945 C   0  0  0  0  0  0  0  0  0  0  0  0
   -0.4730   -1.0092   -0.3422 C   0  0  0  0  0  0  0  0  0  0  0  0
   -1.2501   -1.9356   -0.8298 O   0  0  0  0  0  0  0  0  0  0  0  0
   -0.3846   -0.7804    1.1729 C   0  0  0  0  0  0  0  0  0  0  0  0
    0.1598    0.5545    0.7167 C   0  0  0  0  0  0  0  0  0  0  0  0
   -0.8278    0.4633   -0.4231 C   0  0  0  0  0  0  0  0  0  0  0  0
   -2.2276    0.8300   -0.1247 C   0  0  0  0  0  0  0  0  0  0  0  0
    2.8648    1.6219   -0.5120 H   0  0  0  0  0  0  0  0  0  0  0  0
    2.7887    1.1623    1.2036 H   0  0  0  0  0  0  0  0  0  0  0  0
    3.5658    0.0586    0.0556 H   0  0  0  0  0  0  0  0  0  0  0  0
    1.5348   -1.5853   -1.3651 H   0  0  0  0  0  0  0  0  0  0  0  0
   -1.8849   -2.3807   -0.2146 H   0  0  0  0  0  0  0  0  0  0  0  0
   -1.3342   -0.7734    1.6979 H   0  0  0  0  0  0  0  0  0  0  0  0
    0.3744   -1.4753    1.5955 H   0  0  0  0  0  0  0  0  0  0  0  0
    0.1694    1.3801    1.3584 H   0  0  0  0  0  0  0  0  0  0  0  0
   -0.4339    0.9588   -1.3153 H   0  0  0  0  0  0  0  0  0  0  0  0
   -2.2190    1.8579    0.3452 H   0  0  0  0  0  0  0  0  0  0  0  0
   -2.7691    0.9727   -1.0880 H   0  0  0  0  0  0  0  0  0  0  0  0
   -2.7559    0.1446    0.5589 H   0  0  0  0  0  0  0  0  0  0  0  0
  1  2  1  0
  2  3  2  0
  3  4  1  0
  4  5  1  0
  4  6  1  0
  6  7  1  0
  7  8  1  0
  8  9  1  0
  7  2  1  0
  8  4  1  0
  1 10  1  0
  1 11  1  0
  1 12  1  0
  3 13  1  0
  5 14  1  0
  6 15  1  0
  6 16  1  0
  7 17  1  0
  8 18  1  0
  9 19  1  0
  9 20  1  0
  9 21  1  0
M  END
