
     RDKit          3D

 23 23  0  0  0  0  0  0  0  0999 V2000
    1.4289   -1.7192   -0.1388 C   0  0  0  0  0  0  0  0  0  0  0  0
    1.2640   -0.2666   -0.0888 C   0  0  0  0  0  0  0  0  0  0  0  0
    0.1700    0.4264    0.1415 C   0  0  0  0  0  0  0  0  0  0  0  0
   -1.2067    0.0161    0.4172 C   0  0  0  0  0  0  0  0  0  0  0  0
   -2.2180    0.7896   -0.4459 C   0  0  0  0  0  0  0  0  0  0  0  0
   -1.5046   -1.4307    0.4597 C   0  0  0  0  0  0  0  0  0  0  0  0
    0.6027    1.8812    0.0648 C   0  0  0  0  0  0  0  0  0  0  0  0
    1.9090    1.7867    0.5375 O   0  0  0  0  0  0  0  0  0  0  0  0
    2.3710    0.7428   -0.2995 C   0  0  0  0  0  0  0  0  0  0  0  0
    1.0092   -2.1703    0.7697 H   0  0  0  0  0  0  0  0  0  0  0  0
    2.5379   -1.9539   -0.0672 H   0  0  0  0  0  0  0  0  0  0  0  0
    1.1307   -2.1973   -1.0894 H   0  0  0  0  0  0  0  0  0  0  0  0
   -1.4307    0.4077    1.4602 H   0  0  0  0  0  0  0  0  0  0  0  0
   -2.1878    0.4860   -1.4894 H   0  0  0  0  0  0  0  0  0  0  0  0
   -1.9940    1.8588   -0.2636 H   0  0  0  0  0  0  0  0  0  0  0  0
   -3.2127    0.6038    0.0344 H   0  0  0  0  0  0  0  0  0  0  0  0
   -1.1072   -2.0642   -0.3228 H   0  0  0  0  0  0  0  0  0  0  0  0
   -2.6292   -1.5412    0.4108 H   0  0  0  0  0  0  0  0  0  0  0  0
   -1.2399   -1.8844    1.4605 H   0  0  0  0  0  0  0  0  0  0  0  0
    0.6540    2.2223   -0.9825 H   0  0  0  0  0  0  0  0  0  0  0  0
   -0.0425    2.5083    0.7030 H   0  0  0  0  0  0  0  0  0  0  0  0
    2.3640    1.1232   -1.3290 H   0  0  0  0  0  0  0  0  0  0  0  0
    3.3317    0.3747    0.0576 H   0  0  0  0  0  0  0  0  0  0  0  0
  1  2  1  0
  2  3  2  0
  3  4  1  0
  4  5  1  0
  4  6  1  0
  3  7  1  0
  7  8  1  0
  8  9  1  0
  9  2  1  0
  1 10  1  0
  1 11  1  0
  1 12  1  0
  4 13  1  0
  5 14  1  0
  5 15  1  0
  5 16  1  0
  6 17  1  0
  6 18  1  0
  6 19  1  0
  7 20  1  0
  7 21  1  0
  9 22  1  0
  9 23  1  0
M  END
