
     RDKit          3D

 21 22  0  0  0  0  0  0  0  0999 V2000
   -0.4938    1.9411   -0.1448 C   0  0  0  0  0  0  0  0  0  0  0  0
   -0.6097    0.4569   -0.1191 C   0  0  0  0  0  0  0  0  0  0  0  0
    0.3707   -0.4330   -0.0304 C   0  0  0  0  0  0  0  0  0  0  0  0
    1.8294   -0.2167    0.0673 C   0  0  0  0  0  0  0  0  0  0  0  0
    2.5406    0.9999    0.1226 C   0  0  0  0  0  0  0  0  0  0  0  0
    2.3193    0.4685   -1.1379 O   0  0  0  0  0  0  0  0  0  0  0  0
   -0.2585   -1.8075   -0.0551 C   0  0  0  0  0  0  0  0  0  0  0  0
   -1.5898   -1.5082    0.6063 C   0  0  0  0  0  0  0  0  0  0  0  0
   -1.9443   -0.2517   -0.1938 C   0  0  0  0  0  0  0  0  0  0  0  0
   -0.1847    2.3800    0.8048 H   0  0  0  0  0  0  0  0  0  0  0  0
   -1.5050    2.3969   -0.3674 H   0  0  0  0  0  0  0  0  0  0  0  0
    0.1482    2.2563   -1.0114 H   0  0  0  0  0  0  0  0  0  0  0  0
    2.4278   -1.1838    0.1269 H   0  0  0  0  0  0  0  0  0  0  0  0
    3.5907    0.9689    0.5310 H   0  0  0  0  0  0  0  0  0  0  0  0
    2.0847    1.9739    0.3010 H   0  0  0  0  0  0  0  0  0  0  0  0
    0.3348   -2.5399    0.4803 H   0  0  0  0  0  0  0  0  0  0  0  0
   -0.4691   -2.0513   -1.1145 H   0  0  0  0  0  0  0  0  0  0  0  0
   -1.4238   -1.2780    1.6704 H   0  0  0  0  0  0  0  0  0  0  0  0
   -2.3151   -2.3111    0.4327 H   0  0  0  0  0  0  0  0  0  0  0  0
   -2.1067   -0.5846   -1.2255 H   0  0  0  0  0  0  0  0  0  0  0  0
   -2.7459    0.3236    0.2565 H   0  0  0  0  0  0  0  0  0  0  0  0
  1  2  1  0
  2  3  2  0
  3  4  1  0
  4  5  1  0
  5  6  1  0
  3  7  1  0
  7  8  1  0
  8  9  1  0
  9  2  1  0
  6  4  1  0
  1 10  1  0
  1 11  1  0
  1 12  1  0
  4 13  1  0
  5 14  1  0
  5 15  1  0
  7 16  1  0
  7 17  1  0
  8 18  1  0
  8 19  1  0
  9 20  1  0
  9 21  1  0
M  END
