
     RDKit          3D

 19 20  0  0  0  0  0  0  0  0999 V2000
   -2.3167    1.1261    0.3292 C   0  0  0  0  0  0  0  0  0  0  0  0
   -1.2332    0.1469    0.0714 C   0  0  0  0  0  0  0  0  0  0  0  0
    0.0504    0.4445    0.0100 C   0  0  0  0  0  0  0  0  0  0  0  0
    1.4313    1.0594   -0.0065 C   0  0  0  0  0  0  0  0  0  0  0  0
    1.9100   -0.3165    0.4847 C   0  0  0  0  0  0  0  0  0  0  0  0
    3.1448   -0.5983   -0.0864 O   0  0  0  0  0  0  0  0  0  0  0  0
    0.7603   -0.8497   -0.3008 C   0  0  0  0  0  0  0  0  0  0  0  0
   -0.0614   -1.7855    0.2578 O   0  0  0  0  0  0  0  0  0  0  0  0
   -1.3383   -1.3113   -0.1498 C   0  0  0  0  0  0  0  0  0  0  0  0
   -2.7574    0.8537    1.3207 H   0  0  0  0  0  0  0  0  0  0  0  0
   -3.1291    1.0105   -0.4285 H   0  0  0  0  0  0  0  0  0  0  0  0
   -1.9525    2.1491    0.4171 H   0  0  0  0  0  0  0  0  0  0  0  0
    1.7143    1.3005   -1.0314 H   0  0  0  0  0  0  0  0  0  0  0  0
    1.5617    1.8618    0.7260 H   0  0  0  0  0  0  0  0  0  0  0  0
    1.8371   -0.3753    1.5684 H   0  0  0  0  0  0  0  0  0  0  0  0
    3.0261   -0.4280   -1.0748 H   0  0  0  0  0  0  0  0  0  0  0  0
    0.9862   -0.9711   -1.3782 H   0  0  0  0  0  0  0  0  0  0  0  0
   -1.5067   -1.5554   -1.2213 H   0  0  0  0  0  0  0  0  0  0  0  0
   -2.1268   -1.7615    0.4924 H   0  0  0  0  0  0  0  0  0  0  0  0
  1  2  1  0
  2  3  2  0
  3  4  1  0
  4  5  1  0
  5  6  1  0
  5  7  1  0
  7  8  1  0
  8  9  1  0
  9  2  1  0
  7  3  1  0
  1 10  1  0
  1 11  1  0
  1 12  1  0
  4 13  1  0
  4 14  1  0
  5 15  1  0
  6 16  1  0
  7 17  1  0
  9 18  1  0
  9 19  1  0
M  END
