
     RDKit          3D

 21 22  0  0  0  0  0  0  0  0999 V2000
    2.6798    0.6162    0.0552 C   0  0  0  0  0  0  0  0  0  0  0  0
    1.2841    0.1084    0.1938 C   0  0  0  0  0  0  0  0  0  0  0  0
    0.7644   -0.2546    1.3595 C   0  0  0  0  0  0  0  0  0  0  0  0
   -0.6325   -0.7165    1.2012 C   0  0  0  0  0  0  0  0  0  0  0  0
   -0.9451   -0.4007   -0.2207 C   0  0  0  0  0  0  0  0  0  0  0  0
   -2.0673    0.5479   -0.5529 C   0  0  0  0  0  0  0  0  0  0  0  0
   -1.7322    1.7786    0.0592 O   0  0  0  0  0  0  0  0  0  0  0  0
   -0.3567   -1.3060   -1.2147 C   0  0  0  0  0  0  0  0  0  0  0  0
    0.3480   -0.0451   -0.9120 C   0  0  0  0  0  0  0  0  0  0  0  0
    2.6472    1.5819   -0.5088 H   0  0  0  0  0  0  0  0  0  0  0  0
    3.3010   -0.1309   -0.4967 H   0  0  0  0  0  0  0  0  0  0  0  0
    3.1439    0.8487    1.0289 H   0  0  0  0  0  0  0  0  0  0  0  0
    1.2497   -0.2387    2.3406 H   0  0  0  0  0  0  0  0  0  0  0  0
   -0.6032   -1.8380    1.3314 H   0  0  0  0  0  0  0  0  0  0  0  0
   -1.3197   -0.2938    1.9383 H   0  0  0  0  0  0  0  0  0  0  0  0
   -3.0426    0.2306   -0.1841 H   0  0  0  0  0  0  0  0  0  0  0  0
   -2.1173    0.7797   -1.6370 H   0  0  0  0  0  0  0  0  0  0  0  0
   -2.1292    1.7206    0.9775 H   0  0  0  0  0  0  0  0  0  0  0  0
    0.0588   -2.2938   -0.8590 H   0  0  0  0  0  0  0  0  0  0  0  0
   -0.8752   -1.4056   -2.1694 H   0  0  0  0  0  0  0  0  0  0  0  0
    0.3440    0.7112   -1.7301 H   0  0  0  0  0  0  0  0  0  0  0  0
  1  2  1  0
  2  3  2  0
  3  4  1  0
  4  5  1  0
  5  6  1  0
  6  7  1  0
  5  8  1  0
  8  9  1  0
  9  2  1  0
  9  5  1  0
  1 10  1  0
  1 11  1  0
  1 12  1  0
  3 13  1  0
  4 14  1  0
  4 15  1  0
  6 16  1  0
  6 17  1  0
  7 18  1  0
  8 19  1  0
  8 20  1  0
  9 21  1  0
M  END
