
     RDKit          3D

 21 22  0  0  0  0  0  0  0  0999 V2000
   -2.3020    0.9831   -0.0909 C   0  0  0  0  0  0  0  0  0  0  0  0
   -0.8584    0.7237    0.1006 C   0  0  0  0  0  0  0  0  0  0  0  0
    0.1304    1.5998   -0.0170 C   0  0  0  0  0  0  0  0  0  0  0  0
    1.3565    0.9053    0.2627 C   0  0  0  0  0  0  0  0  0  0  0  0
    2.2657    0.0906   -0.4160 C   0  0  0  0  0  0  0  0  0  0  0  0
    3.2255   -0.6592    0.2902 O   0  0  0  0  0  0  0  0  0  0  0  0
    0.9671   -0.4142   -0.4938 C   0  0  0  0  0  0  0  0  0  0  0  0
   -0.1937   -0.6168    0.4340 C   0  0  0  0  0  0  0  0  0  0  0  0
   -1.0851   -1.7109   -0.0567 C   0  0  0  0  0  0  0  0  0  0  0  0
   -2.7058    1.5216    0.8077 H   0  0  0  0  0  0  0  0  0  0  0  0
   -2.8970    0.0922   -0.2627 H   0  0  0  0  0  0  0  0  0  0  0  0
   -2.4715    1.6669   -0.9540 H   0  0  0  0  0  0  0  0  0  0  0  0
    0.0072    2.6331   -0.2753 H   0  0  0  0  0  0  0  0  0  0  0  0
    1.4436    0.8120    1.3997 H   0  0  0  0  0  0  0  0  0  0  0  0
    2.7755    0.5536   -1.3143 H   0  0  0  0  0  0  0  0  0  0  0  0
    3.7227   -1.2157   -0.3688 H   0  0  0  0  0  0  0  0  0  0  0  0
    0.5017   -0.2794   -1.5236 H   0  0  0  0  0  0  0  0  0  0  0  0
    0.0452   -0.6408    1.4930 H   0  0  0  0  0  0  0  0  0  0  0  0
   -0.4930   -2.6004   -0.3971 H   0  0  0  0  0  0  0  0  0  0  0  0
   -1.6932   -1.4110   -0.9324 H   0  0  0  0  0  0  0  0  0  0  0  0
   -1.7412   -2.0335    0.7790 H   0  0  0  0  0  0  0  0  0  0  0  0
  1  2  1  0
  2  3  2  0
  3  4  1  0
  4  5  1  0
  5  6  1  0
  5  7  1  0
  7  8  1  0
  8  9  1  0
  8  2  1  0
  7  4  1  0
  1 10  1  0
  1 11  1  0
  1 12  1  0
  3 13  1  0
  4 14  1  0
  5 15  1  0
  6 16  1  0
  7 17  1  0
  8 18  1  0
  9 19  1  0
  9 20  1  0
  9 21  1  0
M  END
