
     RDKit          3D

 17 18  0  0  0  0  0  0  0  0999 V2000
    2.0959   -0.0725   -0.2452 C   0  0  0  0  0  0  0  0  0  0  0  0
    0.6545   -0.1673    0.0322 C   0  0  0  0  0  0  0  0  0  0  0  0
   -0.2635    0.7053    0.4024 C   0  0  0  0  0  0  0  0  0  0  0  0
   -0.2640    2.1270    0.6450 C   0  0  0  0  0  0  0  0  0  0  0  0
    0.7961    2.7920    0.5028 O   0  0  0  0  0  0  0  0  0  0  0  0
   -1.4499   -0.1812    0.5372 C   0  0  0  0  0  0  0  0  0  0  0  0
   -1.3891   -0.8946   -0.7922 C   0  0  0  0  0  0  0  0  0  0  0  0
   -0.1633   -1.4353   -0.0626 C   0  0  0  0  0  0  0  0  0  0  0  0
   -0.9204   -1.3729    1.0801 O   0  0  0  0  0  0  0  0  0  0  0  0
    2.6578   -0.5046    0.6179 H   0  0  0  0  0  0  0  0  0  0  0  0
    2.4014    0.9639   -0.4812 H   0  0  0  0  0  0  0  0  0  0  0  0
    2.3474   -0.7573   -1.1088 H   0  0  0  0  0  0  0  0  0  0  0  0
   -1.1300    2.6964    0.9509 H   0  0  0  0  0  0  0  0  0  0  0  0
   -2.3608    0.1922    0.9064 H   0  0  0  0  0  0  0  0  0  0  0  0
   -1.1384   -0.1648   -1.5875 H   0  0  0  0  0  0  0  0  0  0  0  0
   -2.1725   -1.6148   -0.9964 H   0  0  0  0  0  0  0  0  0  0  0  0
    0.2988   -2.3115   -0.4011 H   0  0  0  0  0  0  0  0  0  0  0  0
  1  2  1  0
  2  3  2  0
  3  4  1  0
  4  5  2  0
  3  6  1  0
  6  7  1  0
  7  8  1  0
  8  9  1  0
  8  2  1  0
  9  6  1  0
  1 10  1  0
  1 11  1  0
  1 12  1  0
  4 13  1  0
  6 14  1  0
  7 15  1  0
  7 16  1  0
  8 17  1  0
M  END
