
     RDKit          3D

 16 17  0  0  0  0  0  0  0  0999 V2000
   -2.3236   -0.2319   -0.3334 C   0  0  0  0  0  0  0  0  0  0  0  0
   -0.8678   -0.0846   -0.0693 C   0  0  0  0  0  0  0  0  0  0  0  0
    0.0429   -1.0435   -0.1256 C   0  0  0  0  0  0  0  0  0  0  0  0
    1.3868   -0.5239    0.1991 C   0  0  0  0  0  0  0  0  0  0  0  0
    2.1291   -0.4749   -0.9875 O   0  0  0  0  0  0  0  0  0  0  0  0
    1.2052    0.8699    0.6803 C   0  0  0  0  0  0  0  0  0  0  0  0
    0.2613    1.2231    1.6027 O   0  0  0  0  0  0  0  0  0  0  0  0
   -0.2208    1.1902    0.3030 C   0  0  0  0  0  0  0  0  0  0  0  0
   -2.4483   -0.1516   -1.4488 H   0  0  0  0  0  0  0  0  0  0  0  0
   -2.9343    0.5367    0.1870 H   0  0  0  0  0  0  0  0  0  0  0  0
   -2.7004   -1.2471   -0.0563 H   0  0  0  0  0  0  0  0  0  0  0  0
   -0.1775   -2.0600   -0.3751 H   0  0  0  0  0  0  0  0  0  0  0  0
    1.9034   -1.1808    0.9366 H   0  0  0  0  0  0  0  0  0  0  0  0
    3.0911   -0.5544   -0.6901 H   0  0  0  0  0  0  0  0  0  0  0  0
    1.9915    1.6394    0.4669 H   0  0  0  0  0  0  0  0  0  0  0  0
   -0.3386    2.0934   -0.2895 H   0  0  0  0  0  0  0  0  0  0  0  0
  1  2  1  0
  2  3  2  0
  3  4  1  0
  4  5  1  0
  4  6  1  0
  6  7  1  0
  7  8  1  0
  8  2  1  0
  8  6  1  0
  1  9  1  0
  1 10  1  0
  1 11  1  0
  3 12  1  0
  4 13  1  0
  5 14  1  0
  6 15  1  0
  8 16  1  0
M  END
