
     RDKit          3D

 25 25  0  0  0  0  0  0  0  0999 V2000
   -2.3121   -1.2558    0.6395 C   0  0  0  0  0  0  0  0  0  0  0  0
   -0.9869   -0.7092    0.2154 C   0  0  0  0  0  0  0  0  0  0  0  0
   -0.8659    0.5534   -0.0797 C   0  0  0  0  0  0  0  0  0  0  0  0
   -2.0556    1.4813    0.0010 C   0  0  0  0  0  0  0  0  0  0  0  0
    0.3858    1.2114   -0.5101 C   0  0  0  0  0  0  0  0  0  0  0  0
    1.5591    0.3301   -0.6281 C   0  0  0  0  0  0  0  0  0  0  0  0
    2.6194    0.7532    0.4006 C   0  0  0  0  0  0  0  0  0  0  0  0
    1.3382   -1.1236   -0.5819 C   0  0  0  0  0  0  0  0  0  0  0  0
    0.1520   -1.6222    0.1433 C   0  0  0  0  0  0  0  0  0  0  0  0
   -2.2638   -2.3266    0.8829 H   0  0  0  0  0  0  0  0  0  0  0  0
   -3.0580   -1.1414   -0.1819 H   0  0  0  0  0  0  0  0  0  0  0  0
   -2.6401   -0.7298    1.5673 H   0  0  0  0  0  0  0  0  0  0  0  0
   -2.4360    1.7225   -1.0105 H   0  0  0  0  0  0  0  0  0  0  0  0
   -2.8335    1.0859    0.6528 H   0  0  0  0  0  0  0  0  0  0  0  0
   -1.7260    2.4614    0.4359 H   0  0  0  0  0  0  0  0  0  0  0  0
    0.1296    1.7371   -1.4773 H   0  0  0  0  0  0  0  0  0  0  0  0
    0.5833    2.0468    0.2074 H   0  0  0  0  0  0  0  0  0  0  0  0
    2.0594    0.5708   -1.6155 H   0  0  0  0  0  0  0  0  0  0  0  0
    2.2009    0.6901    1.3999 H   0  0  0  0  0  0  0  0  0  0  0  0
    2.8810    1.8184    0.1642 H   0  0  0  0  0  0  0  0  0  0  0  0
    3.5330    0.1321    0.2407 H   0  0  0  0  0  0  0  0  0  0  0  0
    1.3342   -1.5663   -1.6218 H   0  0  0  0  0  0  0  0  0  0  0  0
    2.2462   -1.5992   -0.1030 H   0  0  0  0  0  0  0  0  0  0  0  0
   -0.2260   -2.5719   -0.3422 H   0  0  0  0  0  0  0  0  0  0  0  0
    0.3816   -1.9487    1.2010 H   0  0  0  0  0  0  0  0  0  0  0  0
  1  2  1  0
  2  3  2  0
  3  4  1  0
  3  5  1  0
  5  6  1  0
  6  7  1  0
  6  8  1  0
  8  9  1  0
  9  2  1  0
  1 10  1  0
  1 11  1  0
  1 12  1  0
  4 13  1  0
  4 14  1  0
  4 15  1  0
  5 16  1  0
  5 17  1  0
  6 18  1  0
  7 19  1  0
  7 20  1  0
  7 21  1  0
  8 22  1  0
  8 23  1  0
  9 24  1  0
  9 25  1  0
M  END
