
     RDKit          3D

 23 23  0  0  0  0  0  0  0  0999 V2000
    3.0297   -0.1323   -0.3605 C   0  0  0  0  0  0  0  0  0  0  0  0
    1.5473   -0.0609   -0.2362 C   0  0  0  0  0  0  0  0  0  0  0  0
    0.9604    1.0767    0.0486 C   0  0  0  0  0  0  0  0  0  0  0  0
   -0.4838    1.2812    0.1984 C   0  0  0  0  0  0  0  0  0  0  0  0
   -1.2883    0.0513    0.3867 C   0  0  0  0  0  0  0  0  0  0  0  0
   -2.2944   -0.0732   -0.7659 C   0  0  0  0  0  0  0  0  0  0  0  0
   -3.1010    1.0644   -0.7176 O   0  0  0  0  0  0  0  0  0  0  0  0
   -0.4794   -1.2092    0.5220 C   0  0  0  0  0  0  0  0  0  0  0  0
    0.6916   -1.2652   -0.4288 C   0  0  0  0  0  0  0  0  0  0  0  0
    3.4332    0.7385   -0.9149 H   0  0  0  0  0  0  0  0  0  0  0  0
    3.5040   -0.1486    0.6609 H   0  0  0  0  0  0  0  0  0  0  0  0
    3.3639   -1.0394   -0.8966 H   0  0  0  0  0  0  0  0  0  0  0  0
    1.6038    1.9530    0.1871 H   0  0  0  0  0  0  0  0  0  0  0  0
   -0.8455    1.8816   -0.6863 H   0  0  0  0  0  0  0  0  0  0  0  0
   -0.6299    1.9841    1.0692 H   0  0  0  0  0  0  0  0  0  0  0  0
   -1.9082    0.1429    1.3029 H   0  0  0  0  0  0  0  0  0  0  0  0
   -2.9778   -0.9458   -0.5921 H   0  0  0  0  0  0  0  0  0  0  0  0
   -1.7935   -0.1074   -1.7427 H   0  0  0  0  0  0  0  0  0  0  0  0
   -2.8236    1.7094   -0.0313 H   0  0  0  0  0  0  0  0  0  0  0  0
   -1.0996   -2.1069    0.3188 H   0  0  0  0  0  0  0  0  0  0  0  0
   -0.0823   -1.3191    1.5521 H   0  0  0  0  0  0  0  0  0  0  0  0
    0.3714   -1.3302   -1.4877 H   0  0  0  0  0  0  0  0  0  0  0  0
    1.3021   -2.1447   -0.1346 H   0  0  0  0  0  0  0  0  0  0  0  0
  1  2  1  0
  2  3  2  0
  3  4  1  0
  4  5  1  0
  5  6  1  0
  6  7  1  0
  5  8  1  0
  8  9  1  0
  9  2  1  0
  1 10  1  0
  1 11  1  0
  1 12  1  0
  3 13  1  0
  4 14  1  0
  4 15  1  0
  5 16  1  0
  6 17  1  0
  6 18  1  0
  7 19  1  0
  8 20  1  0
  8 21  1  0
  9 22  1  0
  9 23  1  0
M  END
