
     RDKit          3D

 21 22  0  0  0  0  0  0  0  0999 V2000
    0.7033    1.8620    0.0332 C   0  0  0  0  0  0  0  0  0  0  0  0
    0.2249    0.4753   -0.1596 C   0  0  0  0  0  0  0  0  0  0  0  0
    0.9576   -0.6160   -0.0480 C   0  0  0  0  0  0  0  0  0  0  0  0
    2.4051   -0.5937    0.2967 C   0  0  0  0  0  0  0  0  0  0  0  0
    0.1750   -1.8349   -0.3034 C   0  0  0  0  0  0  0  0  0  0  0  0
   -0.5130   -2.0026   -1.4939 O   0  0  0  0  0  0  0  0  0  0  0  0
   -1.1968   -1.3857   -0.4704 C   0  0  0  0  0  0  0  0  0  0  0  0
   -1.1642    0.1142   -0.5098 C   0  0  0  0  0  0  0  0  0  0  0  0
   -2.1658    0.6975    0.4594 C   0  0  0  0  0  0  0  0  0  0  0  0
    0.2482    2.4923   -0.7641 H   0  0  0  0  0  0  0  0  0  0  0  0
    0.4305    2.2557    1.0390 H   0  0  0  0  0  0  0  0  0  0  0  0
    1.7964    1.9734   -0.0680 H   0  0  0  0  0  0  0  0  0  0  0  0
    2.9187    0.2717   -0.1461 H   0  0  0  0  0  0  0  0  0  0  0  0
    2.5589   -0.5161    1.4099 H   0  0  0  0  0  0  0  0  0  0  0  0
    2.9196   -1.4993   -0.0933 H   0  0  0  0  0  0  0  0  0  0  0  0
    0.4238   -2.7753    0.2103 H   0  0  0  0  0  0  0  0  0  0  0  0
   -1.9840   -1.9097    0.0967 H   0  0  0  0  0  0  0  0  0  0  0  0
   -1.3670    0.5347   -1.5182 H   0  0  0  0  0  0  0  0  0  0  0  0
   -2.2974    0.0376    1.3627 H   0  0  0  0  0  0  0  0  0  0  0  0
   -1.9193    1.7285    0.7347 H   0  0  0  0  0  0  0  0  0  0  0  0
   -3.1545    0.6906   -0.0679 H   0  0  0  0  0  0  0  0  0  0  0  0
  1  2  1  0
  2  3  2  0
  3  4  1  0
  3  5  1  0
  5  6  1  0
  6  7  1  0
  7  8  1  0
  8  9  1  0
  8  2  1  0
  7  5  1  0
  1 10  1  0
  1 11  1  0
  1 12  1  0
  4 13  1  0
  4 14  1  0
  4 15  1  0
  5 16  1  0
  7 17  1  0
  8 18  1  0
  9 19  1  0
  9 20  1  0
  9 21  1  0
M  END
