
     RDKit          3D

 23 23  0  0  0  0  0  0  0  0999 V2000
    2.9195   -0.0016    0.5018 C   0  0  0  0  0  0  0  0  0  0  0  0
    1.5756   -0.0906   -0.1027 C   0  0  0  0  0  0  0  0  0  0  0  0
    1.0276   -1.2928   -0.1595 C   0  0  0  0  0  0  0  0  0  0  0  0
   -0.3304   -1.6351   -0.7290 C   0  0  0  0  0  0  0  0  0  0  0  0
   -1.3094   -1.0403    0.2307 C   0  0  0  0  0  0  0  0  0  0  0  0
   -1.3954    0.4221    0.1279 C   0  0  0  0  0  0  0  0  0  0  0  0
   -2.7597    0.9842    0.4552 C   0  0  0  0  0  0  0  0  0  0  0  0
   -0.4556    1.3010   -0.2070 C   0  0  0  0  0  0  0  0  0  0  0  0
    0.9714    1.1749   -0.5895 C   0  0  0  0  0  0  0  0  0  0  0  0
    3.2854    1.0438    0.4891 H   0  0  0  0  0  0  0  0  0  0  0  0
    2.9198   -0.3367    1.5641 H   0  0  0  0  0  0  0  0  0  0  0  0
    3.6258   -0.6708   -0.0618 H   0  0  0  0  0  0  0  0  0  0  0  0
    1.5839   -2.1345    0.2334 H   0  0  0  0  0  0  0  0  0  0  0  0
   -0.4001   -1.0479   -1.6795 H   0  0  0  0  0  0  0  0  0  0  0  0
   -0.4276   -2.7057   -0.8793 H   0  0  0  0  0  0  0  0  0  0  0  0
   -0.9849   -1.3494    1.2621 H   0  0  0  0  0  0  0  0  0  0  0  0
   -2.3217   -1.5068    0.0547 H   0  0  0  0  0  0  0  0  0  0  0  0
   -2.6938    2.0730    0.5007 H   0  0  0  0  0  0  0  0  0  0  0  0
   -3.1353    0.5377    1.4114 H   0  0  0  0  0  0  0  0  0  0  0  0
   -3.4528    0.6389   -0.3553 H   0  0  0  0  0  0  0  0  0  0  0  0
   -0.8724    2.3262   -0.1799 H   0  0  0  0  0  0  0  0  0  0  0  0
    1.5248    2.0672   -0.1831 H   0  0  0  0  0  0  0  0  0  0  0  0
    1.1055    1.2433   -1.7043 H   0  0  0  0  0  0  0  0  0  0  0  0
  1  2  1  0
  2  3  2  0
  3  4  1  0
  4  5  1  0
  5  6  1  0
  6  7  1  0
  6  8  2  0
  8  9  1  0
  9  2  1  0
  1 10  1  0
  1 11  1  0
  1 12  1  0
  3 13  1  0
  4 14  1  0
  4 15  1  0
  5 16  1  0
  5 17  1  0
  7 18  1  0
  7 19  1  0
  7 20  1  0
  8 21  1  0
  9 22  1  0
  9 23  1  0
M  END
