
     RDKit          3D

 23 24  0  0  0  0  0  0  0  0999 V2000
    2.4276    1.3458   -0.4147 C   0  0  0  0  0  0  0  0  0  0  0  0
    1.4235    0.2860   -0.0875 C   0  0  0  0  0  0  0  0  0  0  0  0
    1.6147   -0.9988   -0.2128 C   0  0  0  0  0  0  0  0  0  0  0  0
    0.4207   -1.7889    0.1962 C   0  0  0  0  0  0  0  0  0  0  0  0
   -0.4587   -0.7624    0.8681 C   0  0  0  0  0  0  0  0  0  0  0  0
   -1.8415   -0.8982    0.2825 C   0  0  0  0  0  0  0  0  0  0  0  0
   -2.2061    0.4963   -0.1224 C   0  0  0  0  0  0  0  0  0  0  0  0
   -0.8796    1.0647   -0.6313 C   0  0  0  0  0  0  0  0  0  0  0  0
    0.0732    0.5852    0.4256 C   0  0  0  0  0  0  0  0  0  0  0  0
    3.3001    0.9398   -0.9614 H   0  0  0  0  0  0  0  0  0  0  0  0
    2.8505    1.7911    0.5269 H   0  0  0  0  0  0  0  0  0  0  0  0
    1.9158    2.1603   -0.9721 H   0  0  0  0  0  0  0  0  0  0  0  0
    2.5380   -1.4474   -0.5741 H   0  0  0  0  0  0  0  0  0  0  0  0
   -0.0311   -2.2613   -0.6698 H   0  0  0  0  0  0  0  0  0  0  0  0
    0.6859   -2.5831    0.9287 H   0  0  0  0  0  0  0  0  0  0  0  0
   -0.4429   -0.8123    1.9617 H   0  0  0  0  0  0  0  0  0  0  0  0
   -1.8620   -1.5928   -0.5838 H   0  0  0  0  0  0  0  0  0  0  0  0
   -2.5164   -1.2734    1.0892 H   0  0  0  0  0  0  0  0  0  0  0  0
   -2.9822    0.5138   -0.8904 H   0  0  0  0  0  0  0  0  0  0  0  0
   -2.4695    1.0742    0.7974 H   0  0  0  0  0  0  0  0  0  0  0  0
   -0.6543    0.6966   -1.6403 H   0  0  0  0  0  0  0  0  0  0  0  0
   -0.9810    2.1604   -0.5925 H   0  0  0  0  0  0  0  0  0  0  0  0
    0.0753    1.3045    1.2769 H   0  0  0  0  0  0  0  0  0  0  0  0
  1  2  1  0
  2  3  2  0
  3  4  1  0
  4  5  1  0
  5  6  1  0
  6  7  1  0
  7  8  1  0
  8  9  1  0
  9  2  1  0
  9  5  1  0
  1 10  1  0
  1 11  1  0
  1 12  1  0
  3 13  1  0
  4 14  1  0
  4 15  1  0
  5 16  1  0
  6 17  1  0
  6 18  1  0
  7 19  1  0
  7 20  1  0
  8 21  1  0
  8 22  1  0
  9 23  1  0
M  END
