
     RDKit          3D

 21 23  0  0  0  0  0  0  0  0999 V2000
    3.0820   -0.3200    0.2643 C   0  0  0  0  0  0  0  0  0  0  0  0
    1.6654    0.0571    0.1090 C   0  0  0  0  0  0  0  0  0  0  0  0
    1.1313    1.2812   -0.1236 C   0  0  0  0  0  0  0  0  0  0  0  0
   -0.3175    1.0063   -0.1799 C   0  0  0  0  0  0  0  0  0  0  0  0
   -0.5494    0.0039    0.9028 C   0  0  0  0  0  0  0  0  0  0  0  0
   -1.5551   -0.6296   -0.0103 C   0  0  0  0  0  0  0  0  0  0  0  0
   -2.8274    0.1133   -0.2290 C   0  0  0  0  0  0  0  0  0  0  0  0
   -0.4071   -0.2979   -0.9206 C   0  0  0  0  0  0  0  0  0  0  0  0
    0.4783   -0.8111    0.1695 C   0  0  0  0  0  0  0  0  0  0  0  0
    3.2399   -0.5326    1.3595 H   0  0  0  0  0  0  0  0  0  0  0  0
    3.3097   -1.2663   -0.2542 H   0  0  0  0  0  0  0  0  0  0  0  0
    3.7623    0.4834   -0.0766 H   0  0  0  0  0  0  0  0  0  0  0  0
    1.6487    2.2232   -0.2384 H   0  0  0  0  0  0  0  0  0  0  0  0
   -1.0131    1.7811   -0.3703 H   0  0  0  0  0  0  0  0  0  0  0  0
   -0.6178    0.1538    1.8887 H   0  0  0  0  0  0  0  0  0  0  0  0
   -1.6343   -1.7295    0.1199 H   0  0  0  0  0  0  0  0  0  0  0  0
   -2.8722    0.6195   -1.2112 H   0  0  0  0  0  0  0  0  0  0  0  0
   -3.6619   -0.6466   -0.2400 H   0  0  0  0  0  0  0  0  0  0  0  0
   -3.0916    0.8115    0.5899 H   0  0  0  0  0  0  0  0  0  0  0  0
   -0.3383   -0.4498   -1.9044 H   0  0  0  0  0  0  0  0  0  0  0  0
    0.5682   -1.8508    0.3549 H   0  0  0  0  0  0  0  0  0  0  0  0
  1  2  1  0
  2  3  2  0
  3  4  1  0
  4  5  1  0
  5  6  1  0
  6  7  1  0
  6  8  1  0
  8  9  1  0
  9  2  1  0
  8  4  1  0
  9  5  1  0
  1 10  1  0
  1 11  1  0
  1 12  1  0
  3 13  1  0
  4 14  1  0
  5 15  1  0
  6 16  1  0
  7 17  1  0
  7 18  1  0
  7 19  1  0
  8 20  1  0
  9 21  1  0
M  END
