
     RDKit          3D

 19 21  0  0  0  0  0  0  0  0999 V2000
    2.3710    0.5393   -0.6435 C   0  0  0  0  0  0  0  0  0  0  0  0
    0.9562    0.2835   -0.2574 C   0  0  0  0  0  0  0  0  0  0  0  0
    0.2069    1.3443    0.0116 C   0  0  0  0  0  0  0  0  0  0  0  0
   -1.2232    1.2639    0.4114 C   0  0  0  0  0  0  0  0  0  0  0  0
   -1.7211   -0.1296    0.6084 C   0  0  0  0  0  0  0  0  0  0  0  0
   -1.9864   -0.7030   -0.6510 O   0  0  0  0  0  0  0  0  0  0  0  0
   -0.8675   -1.4908   -0.7047 C   0  0  0  0  0  0  0  0  0  0  0  0
    0.4445   -1.0913   -0.1863 C   0  0  0  0  0  0  0  0  0  0  0  0
   -0.6650   -1.1573    0.8048 C   0  0  0  0  0  0  0  0  0  0  0  0
    2.4222    1.3592   -1.3775 H   0  0  0  0  0  0  0  0  0  0  0  0
    2.8789   -0.3726   -1.0114 H   0  0  0  0  0  0  0  0  0  0  0  0
    2.8922    0.8496    0.3083 H   0  0  0  0  0  0  0  0  0  0  0  0
    0.6338    2.3379   -0.0555 H   0  0  0  0  0  0  0  0  0  0  0  0
   -1.7944    1.7956   -0.4050 H   0  0  0  0  0  0  0  0  0  0  0  0
   -1.3831    1.8769    1.3209 H   0  0  0  0  0  0  0  0  0  0  0  0
   -2.5356   -0.2576    1.3495 H   0  0  0  0  0  0  0  0  0  0  0  0
   -1.0429   -2.5487   -0.9560 H   0  0  0  0  0  0  0  0  0  0  0  0
    1.1902   -1.9144   -0.0708 H   0  0  0  0  0  0  0  0  0  0  0  0
   -0.7768   -1.9852    1.5041 H   0  0  0  0  0  0  0  0  0  0  0  0
  1  2  1  0
  2  3  2  0
  3  4  1  0
  4  5  1  0
  5  6  1  0
  6  7  1  0
  7  8  1  0
  8  9  1  0
  8  2  1  0
  9  5  1  0
  9  7  1  0
  1 10  1  0
  1 11  1  0
  1 12  1  0
  3 13  1  0
  4 14  1  0
  4 15  1  0
  5 16  1  0
  7 17  1  0
  8 18  1  0
  9 19  1  0
M  END
