
     RDKit          3D

 21 21  0  0  0  0  0  0  0  0999 V2000
   -2.1726   -1.5087    0.1239 C   0  0  0  0  0  0  0  0  0  0  0  0
   -1.1475   -0.4415    0.0081 C   0  0  0  0  0  0  0  0  0  0  0  0
    0.1279   -0.7482   -0.1157 C   0  0  0  0  0  0  0  0  0  0  0  0
    1.1858    0.3041   -0.2346 C   0  0  0  0  0  0  0  0  0  0  0  0
    2.3827   -0.2104   -1.0071 C   0  0  0  0  0  0  0  0  0  0  0  0
    2.9090   -1.2726   -0.2702 O   0  0  0  0  0  0  0  0  0  0  0  0
    0.5773    1.3839   -0.8947 O   0  0  0  0  0  0  0  0  0  0  0  0
   -0.3808    1.8835   -0.0140 C   0  0  0  0  0  0  0  0  0  0  0  0
   -1.5991    0.9737    0.0357 C   0  0  0  0  0  0  0  0  0  0  0  0
   -1.8686   -2.2869    0.8673 H   0  0  0  0  0  0  0  0  0  0  0  0
   -2.2319   -2.0610   -0.8523 H   0  0  0  0  0  0  0  0  0  0  0  0
   -3.1725   -1.1331    0.3285 H   0  0  0  0  0  0  0  0  0  0  0  0
    0.4441   -1.7851   -0.1344 H   0  0  0  0  0  0  0  0  0  0  0  0
    1.5239    0.6764    0.7487 H   0  0  0  0  0  0  0  0  0  0  0  0
    3.1139    0.5792   -1.1772 H   0  0  0  0  0  0  0  0  0  0  0  0
    2.0959   -0.6183   -1.9941 H   0  0  0  0  0  0  0  0  0  0  0  0
    3.2110   -0.9700    0.6366 H   0  0  0  0  0  0  0  0  0  0  0  0
   -0.6849    2.9162   -0.2692 H   0  0  0  0  0  0  0  0  0  0  0  0
    0.0733    1.9174    0.9947 H   0  0  0  0  0  0  0  0  0  0  0  0
   -2.2428    1.1786   -0.8392 H   0  0  0  0  0  0  0  0  0  0  0  0
   -2.1442    1.2229    0.9751 H   0  0  0  0  0  0  0  0  0  0  0  0
  1  2  1  0
  2  3  2  0
  3  4  1  0
  4  5  1  0
  5  6  1  0
  4  7  1  0
  7  8  1  0
  8  9  1  0
  9  2  1  0
  1 10  1  0
  1 11  1  0
  1 12  1  0
  3 13  1  0
  4 14  1  0
  5 15  1  0
  5 16  1  0
  6 17  1  0
  8 18  1  0
  8 19  1  0
  9 20  1  0
  9 21  1  0
M  END
