
     RDKit          3D

 21 22  0  0  0  0  0  0  0  0999 V2000
    2.2422    0.9400    0.3853 C   0  0  0  0  0  0  0  0  0  0  0  0
    0.8298    0.5305    0.2053 C   0  0  0  0  0  0  0  0  0  0  0  0
   -0.0714    1.4374   -0.1432 C   0  0  0  0  0  0  0  0  0  0  0  0
   -1.5326    1.2963   -0.4712 C   0  0  0  0  0  0  0  0  0  0  0  0
   -1.8608    0.0774   -0.9544 O   0  0  0  0  0  0  0  0  0  0  0  0
   -1.3556   -1.0447   -0.4296 C   0  0  0  0  0  0  0  0  0  0  0  0
    0.0255   -1.4436   -0.8995 C   0  0  0  0  0  0  0  0  0  0  0  0
    0.5467   -0.9065    0.4404 C   0  0  0  0  0  0  0  0  0  0  0  0
   -0.8806   -1.0631    0.9623 C   0  0  0  0  0  0  0  0  0  0  0  0
    2.5224    1.7830   -0.2992 H   0  0  0  0  0  0  0  0  0  0  0  0
    2.4347    1.3377    1.4152 H   0  0  0  0  0  0  0  0  0  0  0  0
    2.9529    0.1178    0.1394 H   0  0  0  0  0  0  0  0  0  0  0  0
    0.3348    2.4409   -0.1940 H   0  0  0  0  0  0  0  0  0  0  0  0
   -1.7371    2.0571   -1.2580 H   0  0  0  0  0  0  0  0  0  0  0  0
   -2.0817    1.5864    0.4453 H   0  0  0  0  0  0  0  0  0  0  0  0
   -2.0466   -1.9198   -0.6169 H   0  0  0  0  0  0  0  0  0  0  0  0
    0.3456   -0.8385   -1.7753 H   0  0  0  0  0  0  0  0  0  0  0  0
    0.1884   -2.5235   -0.9791 H   0  0  0  0  0  0  0  0  0  0  0  0
    1.3049   -1.5021    0.9250 H   0  0  0  0  0  0  0  0  0  0  0  0
   -0.9496   -2.0701    1.4505 H   0  0  0  0  0  0  0  0  0  0  0  0
   -1.2120   -0.2927    1.6518 H   0  0  0  0  0  0  0  0  0  0  0  0
  1  2  1  0
  2  3  2  0
  3  4  1  0
  4  5  1  0
  5  6  1  0
  6  7  1  0
  7  8  1  0
  8  9  1  0
  8  2  1  0
  9  6  1  0
  1 10  1  0
  1 11  1  0
  1 12  1  0
  3 13  1  0
  4 14  1  0
  4 15  1  0
  6 16  1  0
  7 17  1  0
  7 18  1  0
  8 19  1  0
  9 20  1  0
  9 21  1  0
M  END
