
     RDKit          3D

 21 21  0  0  0  0  0  0  0  0999 V2000
    1.6633   -1.4493    0.4526 C   0  0  0  0  0  0  0  0  0  0  0  0
    0.8995   -0.1576    0.4354 C   0  0  0  0  0  0  0  0  0  0  0  0
    1.2452    0.9887    0.9940 C   0  0  0  0  0  0  0  0  0  0  0  0
    0.2537    2.0296    0.7694 C   0  0  0  0  0  0  0  0  0  0  0  0
    0.1542    3.1669    1.3102 O   0  0  0  0  0  0  0  0  0  0  0  0
   -0.6766    1.4894   -0.2687 C   0  0  0  0  0  0  0  0  0  0  0  0
   -0.3925    0.0268   -0.2302 C   0  0  0  0  0  0  0  0  0  0  0  0
   -1.5286   -0.6870    0.4793 C   0  0  0  0  0  0  0  0  0  0  0  0
   -0.3882   -0.5055   -1.6578 C   0  0  0  0  0  0  0  0  0  0  0  0
    2.6846   -1.2981    0.8888 H   0  0  0  0  0  0  0  0  0  0  0  0
    1.1702   -2.1946    1.0995 H   0  0  0  0  0  0  0  0  0  0  0  0
    1.8044   -1.7669   -0.5859 H   0  0  0  0  0  0  0  0  0  0  0  0
    2.1680    1.1236    1.5541 H   0  0  0  0  0  0  0  0  0  0  0  0
   -0.5629    1.9681   -1.2407 H   0  0  0  0  0  0  0  0  0  0  0  0
   -1.7079    1.7315    0.1107 H   0  0  0  0  0  0  0  0  0  0  0  0
   -2.4242   -0.5587   -0.1974 H   0  0  0  0  0  0  0  0  0  0  0  0
   -1.3324   -1.7809    0.5548 H   0  0  0  0  0  0  0  0  0  0  0  0
   -1.7666   -0.2462    1.4593 H   0  0  0  0  0  0  0  0  0  0  0  0
    0.4725   -0.1246   -2.2331 H   0  0  0  0  0  0  0  0  0  0  0  0
   -0.4039   -1.6163   -1.5782 H   0  0  0  0  0  0  0  0  0  0  0  0
   -1.3319   -0.1390   -2.1162 H   0  0  0  0  0  0  0  0  0  0  0  0
  1  2  1  0
  2  3  2  0
  3  4  1  0
  4  5  2  0
  4  6  1  0
  6  7  1  0
  7  8  1  0
  7  9  1  0
  7  2  1  0
  1 10  1  0
  1 11  1  0
  1 12  1  0
  3 13  1  0
  6 14  1  0
  6 15  1  0
  8 16  1  0
  8 17  1  0
  8 18  1  0
  9 19  1  0
  9 20  1  0
  9 21  1  0
M  END
