
     RDKit          3D

 20 20  0  0  0  0  0  0  0  0999 V2000
    2.4668    0.6459   -0.1409 C   0  0  0  0  0  0  0  0  0  0  0  0
    1.0284    0.2156    0.0079 C   0  0  0  0  0  0  0  0  0  0  0  0
    0.2185    1.2159    0.2922 C   0  0  0  0  0  0  0  0  0  0  0  0
   -1.2272    1.1914    0.5076 C   0  0  0  0  0  0  0  0  0  0  0  0
   -1.9687    0.2287   -0.3893 C   0  0  0  0  0  0  0  0  0  0  0  0
   -1.7107   -1.1957   -0.0284 C   0  0  0  0  0  0  0  0  0  0  0  0
   -0.4943   -1.7340    0.0332 C   0  0  0  0  0  0  0  0  0  0  0  0
    0.8444   -1.2142   -0.1944 C   0  0  0  0  0  0  0  0  0  0  0  0
    2.6972    0.8596   -1.2032 H   0  0  0  0  0  0  0  0  0  0  0  0
    2.6374    1.5413    0.5088 H   0  0  0  0  0  0  0  0  0  0  0  0
    3.1517   -0.1362    0.2544 H   0  0  0  0  0  0  0  0  0  0  0  0
    0.6770    2.1943    0.3814 H   0  0  0  0  0  0  0  0  0  0  0  0
   -1.6342    2.1997    0.2781 H   0  0  0  0  0  0  0  0  0  0  0  0
   -1.5155    0.9866    1.5635 H   0  0  0  0  0  0  0  0  0  0  0  0
   -3.0580    0.4082   -0.2070 H   0  0  0  0  0  0  0  0  0  0  0  0
   -1.7793    0.4388   -1.4485 H   0  0  0  0  0  0  0  0  0  0  0  0
   -2.5586   -1.8350    0.1982 H   0  0  0  0  0  0  0  0  0  0  0  0
   -0.5335   -2.7815    0.3134 H   0  0  0  0  0  0  0  0  0  0  0  0
    1.2183   -1.4786   -1.2239 H   0  0  0  0  0  0  0  0  0  0  0  0
    1.5403   -1.7508    0.4969 H   0  0  0  0  0  0  0  0  0  0  0  0
  1  2  1  0
  2  3  2  0
  3  4  1  0
  4  5  1  0
  5  6  1  0
  6  7  2  0
  7  8  1  0
  8  2  1  0
  1  9  1  0
  1 10  1  0
  1 11  1  0
  3 12  1  0
  4 13  1  0
  4 14  1  0
  5 15  1  0
  5 16  1  0
  6 17  1  0
  7 18  1  0
  8 19  1  0
  8 20  1  0
M  END
