
     RDKit          3D

 21 22  0  0  0  0  0  0  0  0999 V2000
    2.7660   -0.4976    0.3167 C   0  0  0  0  0  0  0  0  0  0  0  0
    1.3248   -0.2758   -0.0325 C   0  0  0  0  0  0  0  0  0  0  0  0
    0.7847    0.9355   -0.0276 C   0  0  0  0  0  0  0  0  0  0  0  0
   -0.6380    0.8520   -0.4087 C   0  0  0  0  0  0  0  0  0  0  0  0
   -0.9395    1.6564   -1.4891 O   0  0  0  0  0  0  0  0  0  0  0  0
   -1.5449    0.8920    0.7604 C   0  0  0  0  0  0  0  0  0  0  0  0
   -1.9489   -0.5523    0.4502 C   0  0  0  0  0  0  0  0  0  0  0  0
   -0.9465   -0.5788   -0.6735 C   0  0  0  0  0  0  0  0  0  0  0  0
    0.3254   -1.3073   -0.4173 C   0  0  0  0  0  0  0  0  0  0  0  0
    2.8327   -0.8314    1.3675 H   0  0  0  0  0  0  0  0  0  0  0  0
    3.3640    0.4088    0.2039 H   0  0  0  0  0  0  0  0  0  0  0  0
    3.2281   -1.2903   -0.2997 H   0  0  0  0  0  0  0  0  0  0  0  0
    1.2999    1.8571    0.2177 H   0  0  0  0  0  0  0  0  0  0  0  0
   -1.0713    2.5880   -1.1955 H   0  0  0  0  0  0  0  0  0  0  0  0
   -1.0539    0.9702    1.7583 H   0  0  0  0  0  0  0  0  0  0  0  0
   -2.3835    1.6150    0.6565 H   0  0  0  0  0  0  0  0  0  0  0  0
   -3.0110   -0.5840    0.1343 H   0  0  0  0  0  0  0  0  0  0  0  0
   -1.7409   -1.2239    1.2954 H   0  0  0  0  0  0  0  0  0  0  0  0
   -1.4654   -0.7791   -1.6309 H   0  0  0  0  0  0  0  0  0  0  0  0
    0.6505   -1.7893   -1.3603 H   0  0  0  0  0  0  0  0  0  0  0  0
    0.1675   -2.0652    0.3742 H   0  0  0  0  0  0  0  0  0  0  0  0
  1  2  1  0
  2  3  2  0
  3  4  1  0
  4  5  1  0
  4  6  1  0
  6  7  1  0
  7  8  1  0
  8  9  1  0
  9  2  1  0
  8  4  1  0
  1 10  1  0
  1 11  1  0
  1 12  1  0
  3 13  1  0
  5 14  1  0
  6 15  1  0
  6 16  1  0
  7 17  1  0
  7 18  1  0
  8 19  1  0
  9 20  1  0
  9 21  1  0
M  END
