
     RDKit          3D

 19 19  0  0  0  0  0  0  0  0999 V2000
   -2.6759   -0.0679    0.2142 C   0  0  0  0  0  0  0  0  0  0  0  0
   -1.2252    0.1416   -0.0035 C   0  0  0  0  0  0  0  0  0  0  0  0
   -0.6479    1.3426    0.1388 C   0  0  0  0  0  0  0  0  0  0  0  0
    0.8173    1.2169   -0.1502 C   0  0  0  0  0  0  0  0  0  0  0  0
    1.0462   -0.2459    0.1752 C   0  0  0  0  0  0  0  0  0  0  0  0
    2.3016   -0.7682   -0.4734 C   0  0  0  0  0  0  0  0  0  0  0  0
   -0.2012   -0.8675   -0.3940 C   0  0  0  0  0  0  0  0  0  0  0  0
   -3.2448    0.3667   -0.6365 H   0  0  0  0  0  0  0  0  0  0  0  0
   -2.8802   -1.1606    0.1841 H   0  0  0  0  0  0  0  0  0  0  0  0
   -3.0324    0.3645    1.1719 H   0  0  0  0  0  0  0  0  0  0  0  0
   -1.1124    2.2667    0.4114 H   0  0  0  0  0  0  0  0  0  0  0  0
    1.4342    1.8817    0.4531 H   0  0  0  0  0  0  0  0  0  0  0  0
    1.0103    1.3169   -1.2488 H   0  0  0  0  0  0  0  0  0  0  0  0
    1.0455   -0.3353    1.2738 H   0  0  0  0  0  0  0  0  0  0  0  0
    2.1231   -1.6888   -1.0715 H   0  0  0  0  0  0  0  0  0  0  0  0
    3.0369   -1.0209    0.3196 H   0  0  0  0  0  0  0  0  0  0  0  0
    2.7605   -0.0241   -1.1776 H   0  0  0  0  0  0  0  0  0  0  0  0
   -0.1391   -0.8451   -1.5082 H   0  0  0  0  0  0  0  0  0  0  0  0
   -0.4165   -1.8734   -0.0014 H   0  0  0  0  0  0  0  0  0  0  0  0
  1  2  1  0
  2  3  2  0
  3  4  1  0
  4  5  1  0
  5  6  1  0
  5  7  1  0
  7  2  1  0
  1  8  1  0
  1  9  1  0
  1 10  1  0
  3 11  1  0
  4 12  1  0
  4 13  1  0
  5 14  1  0
  6 15  1  0
  6 16  1  0
  6 17  1  0
  7 18  1  0
  7 19  1  0
M  END
