
     RDKit          3D

 23 24  0  0  0  0  0  0  0  0999 V2000
    3.0734    0.3500   -0.1828 C   0  0  0  0  0  0  0  0  0  0  0  0
    1.6099    0.2629   -0.1610 C   0  0  0  0  0  0  0  0  0  0  0  0
    0.7319    0.8663   -0.9511 C   0  0  0  0  0  0  0  0  0  0  0  0
   -0.5900    0.4634   -0.5267 C   0  0  0  0  0  0  0  0  0  0  0  0
   -1.0040    1.2281    0.7499 C   0  0  0  0  0  0  0  0  0  0  0  0
   -1.4293   -0.6316   -0.7790 C   0  0  0  0  0  0  0  0  0  0  0  0
   -2.6602   -0.9302    0.0785 C   0  0  0  0  0  0  0  0  0  0  0  0
   -0.1915   -1.0497   -0.2738 C   0  0  0  0  0  0  0  0  0  0  0  0
    0.7812   -0.5903    0.7675 C   0  0  0  0  0  0  0  0  0  0  0  0
    3.4951    1.1514    0.4530 H   0  0  0  0  0  0  0  0  0  0  0  0
    3.4857    0.5338   -1.2133 H   0  0  0  0  0  0  0  0  0  0  0  0
    3.5756   -0.5934    0.1510 H   0  0  0  0  0  0  0  0  0  0  0  0
    1.0529    1.5375   -1.7598 H   0  0  0  0  0  0  0  0  0  0  0  0
   -1.7805    1.9582    0.3670 H   0  0  0  0  0  0  0  0  0  0  0  0
   -0.2118    1.8379    1.1668 H   0  0  0  0  0  0  0  0  0  0  0  0
   -1.5409    0.5955    1.4632 H   0  0  0  0  0  0  0  0  0  0  0  0
   -1.7141   -0.7788   -1.8647 H   0  0  0  0  0  0  0  0  0  0  0  0
   -3.3341   -0.0758    0.0888 H   0  0  0  0  0  0  0  0  0  0  0  0
   -3.1672   -1.8483   -0.3381 H   0  0  0  0  0  0  0  0  0  0  0  0
   -2.3544   -1.2375    1.1074 H   0  0  0  0  0  0  0  0  0  0  0  0
    0.4514   -1.5284   -1.0812 H   0  0  0  0  0  0  0  0  0  0  0  0
    1.3404   -1.4642    1.1243 H   0  0  0  0  0  0  0  0  0  0  0  0
    0.3805   -0.0566    1.6143 H   0  0  0  0  0  0  0  0  0  0  0  0
  1  2  1  0
  2  3  2  0
  3  4  1  0
  4  5  1  0
  4  6  1  0
  6  7  1  0
  6  8  1  0
  8  9  1  0
  9  2  1  0
  8  4  1  0
  1 10  1  0
  1 11  1  0
  1 12  1  0
  3 13  1  0
  5 14  1  0
  5 15  1  0
  5 16  1  0
  6 17  1  0
  7 18  1  0
  7 19  1  0
  7 20  1  0
  8 21  1  0
  9 22  1  0
  9 23  1  0
M  END
