
     RDKit          3D

 21 21  0  0  0  0  0  0  0  0999 V2000
    2.5696   -0.1139   -0.0323 C   0  0  0  0  0  0  0  0  0  0  0  0
    1.0629   -0.1646   -0.0346 C   0  0  0  0  0  0  0  0  0  0  0  0
    0.6046   -1.3807   -0.2295 C   0  0  0  0  0  0  0  0  0  0  0  0
   -0.7974   -1.8333   -0.2973 C   0  0  0  0  0  0  0  0  0  0  0  0
   -1.6677   -1.0354    0.5991 C   0  0  0  0  0  0  0  0  0  0  0  0
   -1.7519    0.2859    0.6616 C   0  0  0  0  0  0  0  0  0  0  0  0
   -0.9763    1.2685   -0.1704 C   0  0  0  0  0  0  0  0  0  0  0  0
   -1.4520    2.5429   -0.0688 O   0  0  0  0  0  0  0  0  0  0  0  0
    0.4556    1.1563    0.1816 C   0  0  0  0  0  0  0  0  0  0  0  0
    2.9805   -1.1118    0.2981 H   0  0  0  0  0  0  0  0  0  0  0  0
    2.9358    0.0222   -1.0720 H   0  0  0  0  0  0  0  0  0  0  0  0
    2.8880    0.6853    0.6563 H   0  0  0  0  0  0  0  0  0  0  0  0
    1.3403   -2.1495   -0.3566 H   0  0  0  0  0  0  0  0  0  0  0  0
   -0.9160   -2.9203   -0.1342 H   0  0  0  0  0  0  0  0  0  0  0  0
   -1.1482   -1.5933   -1.3458 H   0  0  0  0  0  0  0  0  0  0  0  0
   -2.3147   -1.5697    1.2876 H   0  0  0  0  0  0  0  0  0  0  0  0
   -2.4541    0.7208    1.3888 H   0  0  0  0  0  0  0  0  0  0  0  0
   -1.0934    0.9508   -1.2472 H   0  0  0  0  0  0  0  0  0  0  0  0
   -1.9154    2.8821   -0.8854 H   0  0  0  0  0  0  0  0  0  0  0  0
    0.6197    1.4634    1.2510 H   0  0  0  0  0  0  0  0  0  0  0  0
    1.0300    1.8943   -0.4501 H   0  0  0  0  0  0  0  0  0  0  0  0
  1  2  1  0
  2  3  2  0
  3  4  1  0
  4  5  1  0
  5  6  2  0
  6  7  1  0
  7  8  1  0
  7  9  1  0
  9  2  1  0
  1 10  1  0
  1 11  1  0
  1 12  1  0
  3 13  1  0
  4 14  1  0
  4 15  1  0
  5 16  1  0
  6 17  1  0
  7 18  1  0
  8 19  1  0
  9 20  1  0
  9 21  1  0
M  END
