
     RDKit          3D

 23 23  0  0  0  0  0  0  0  0999 V2000
    2.9008    0.0285    0.2912 C   0  0  0  0  0  0  0  0  0  0  0  0
    1.4726    0.0258   -0.0588 C   0  0  0  0  0  0  0  0  0  0  0  0
    0.4838    0.4092    0.7191 C   0  0  0  0  0  0  0  0  0  0  0  0
   -0.8274    0.2648    0.0217 C   0  0  0  0  0  0  0  0  0  0  0  0
   -1.6330    1.4901    0.3118 C   0  0  0  0  0  0  0  0  0  0  0  0
   -1.4936   -1.0000    0.5059 C   0  0  0  0  0  0  0  0  0  0  0  0
   -1.7135   -0.9630    1.8803 O   0  0  0  0  0  0  0  0  0  0  0  0
   -0.4959    0.0772   -1.4293 C   0  0  0  0  0  0  0  0  0  0  0  0
    0.9295   -0.4157   -1.3572 C   0  0  0  0  0  0  0  0  0  0  0  0
    3.0955    0.5198    1.2842 H   0  0  0  0  0  0  0  0  0  0  0  0
    3.2792   -1.0147    0.4183 H   0  0  0  0  0  0  0  0  0  0  0  0
    3.4913    0.6035   -0.4424 H   0  0  0  0  0  0  0  0  0  0  0  0
    0.5273    0.7922    1.7446 H   0  0  0  0  0  0  0  0  0  0  0  0
   -1.3937    1.9216    1.3079 H   0  0  0  0  0  0  0  0  0  0  0  0
   -1.4833    2.2894   -0.4319 H   0  0  0  0  0  0  0  0  0  0  0  0
   -2.7077    1.2260    0.2919 H   0  0  0  0  0  0  0  0  0  0  0  0
   -2.4593   -1.1456   -0.0371 H   0  0  0  0  0  0  0  0  0  0  0  0
   -0.8864   -1.8993    0.2822 H   0  0  0  0  0  0  0  0  0  0  0  0
   -1.7996   -1.9088    2.1733 H   0  0  0  0  0  0  0  0  0  0  0  0
   -0.5838    1.0118   -2.0174 H   0  0  0  0  0  0  0  0  0  0  0  0
   -1.1096   -0.7030   -1.9280 H   0  0  0  0  0  0  0  0  0  0  0  0
    0.8862   -1.5402   -1.3084 H   0  0  0  0  0  0  0  0  0  0  0  0
    1.5206   -0.0697   -2.2219 H   0  0  0  0  0  0  0  0  0  0  0  0
  1  2  1  0
  2  3  2  0
  3  4  1  0
  4  5  1  0
  4  6  1  0
  6  7  1  0
  4  8  1  0
  8  9  1  0
  9  2  1  0
  1 10  1  0
  1 11  1  0
  1 12  1  0
  3 13  1  0
  5 14  1  0
  5 15  1  0
  5 16  1  0
  6 17  1  0
  6 18  1  0
  7 19  1  0
  8 20  1  0
  8 21  1  0
  9 22  1  0
  9 23  1  0
M  END
