
     RDKit          3D

 21 21  0  0  0  0  0  0  0  0999 V2000
    2.5425   -0.4645    0.3131 C   0  0  0  0  0  0  0  0  0  0  0  0
    1.1893   -0.1632   -0.1778 C   0  0  0  0  0  0  0  0  0  0  0  0
    0.3225   -1.1688   -0.2389 C   0  0  0  0  0  0  0  0  0  0  0  0
   -1.1010   -1.1749   -0.6871 C   0  0  0  0  0  0  0  0  0  0  0  0
   -2.0083   -0.4078    0.2104 C   0  0  0  0  0  0  0  0  0  0  0  0
   -1.3698    0.7677    0.8855 C   0  0  0  0  0  0  0  0  0  0  0  0
   -0.4827    1.5470   -0.0036 C   0  0  0  0  0  0  0  0  0  0  0  0
   -0.8927    2.6445   -0.3562 O   0  0  0  0  0  0  0  0  0  0  0  0
    0.8644    1.2528   -0.5796 C   0  0  0  0  0  0  0  0  0  0  0  0
    2.5979   -0.4496    1.4197 H   0  0  0  0  0  0  0  0  0  0  0  0
    2.9084   -1.4614   -0.0033 H   0  0  0  0  0  0  0  0  0  0  0  0
    3.2745    0.2766   -0.0952 H   0  0  0  0  0  0  0  0  0  0  0  0
    0.7296   -2.1399    0.0949 H   0  0  0  0  0  0  0  0  0  0  0  0
   -1.1676   -0.6997   -1.7103 H   0  0  0  0  0  0  0  0  0  0  0  0
   -1.4528   -2.2075   -0.8223 H   0  0  0  0  0  0  0  0  0  0  0  0
   -2.9205   -0.0959   -0.3453 H   0  0  0  0  0  0  0  0  0  0  0  0
   -2.3665   -1.1111    1.0162 H   0  0  0  0  0  0  0  0  0  0  0  0
   -2.1857    1.4298    1.2436 H   0  0  0  0  0  0  0  0  0  0  0  0
   -0.8274    0.4393    1.8047 H   0  0  0  0  0  0  0  0  0  0  0  0
    1.6336    1.9593   -0.2697 H   0  0  0  0  0  0  0  0  0  0  0  0
    0.7123    1.2274   -1.6989 H   0  0  0  0  0  0  0  0  0  0  0  0
  1  2  1  0
  2  3  2  0
  3  4  1  0
  4  5  1  0
  5  6  1  0
  6  7  1  0
  7  8  2  0
  7  9  1  0
  9  2  1  0
  1 10  1  0
  1 11  1  0
  1 12  1  0
  3 13  1  0
  4 14  1  0
  4 15  1  0
  5 16  1  0
  5 17  1  0
  6 18  1  0
  6 19  1  0
  9 20  1  0
  9 21  1  0
M  END
