
     RDKit          3D

 19 19  0  0  0  0  0  0  0  0999 V2000
   -2.3574    0.3871   -0.3698 C   0  0  0  0  0  0  0  0  0  0  0  0
   -0.8849    0.2118   -0.1053 C   0  0  0  0  0  0  0  0  0  0  0  0
   -0.2701    1.3355    0.1674 C   0  0  0  0  0  0  0  0  0  0  0  0
    1.1364    1.5472    0.4715 C   0  0  0  0  0  0  0  0  0  0  0  0
    2.1541    0.7159    0.2836 C   0  0  0  0  0  0  0  0  0  0  0  0
    2.0802   -0.6062   -0.2756 C   0  0  0  0  0  0  0  0  0  0  0  0
    0.9990   -1.3488   -0.4593 C   0  0  0  0  0  0  0  0  0  0  0  0
   -0.4209   -1.1610   -0.2006 C   0  0  0  0  0  0  0  0  0  0  0  0
   -0.7596   -1.9435    0.9256 O   0  0  0  0  0  0  0  0  0  0  0  0
   -2.8538    0.8725    0.5028 H   0  0  0  0  0  0  0  0  0  0  0  0
   -2.4204    1.1294   -1.1960 H   0  0  0  0  0  0  0  0  0  0  0  0
   -2.8363   -0.5474   -0.6651 H   0  0  0  0  0  0  0  0  0  0  0  0
   -0.8460    2.2665    0.1809 H   0  0  0  0  0  0  0  0  0  0  0  0
    1.4415    2.4919    0.9098 H   0  0  0  0  0  0  0  0  0  0  0  0
    3.1506    1.0786    0.5871 H   0  0  0  0  0  0  0  0  0  0  0  0
    3.0316   -1.0287   -0.5766 H   0  0  0  0  0  0  0  0  0  0  0  0
    1.2413   -2.3068   -0.9015 H   0  0  0  0  0  0  0  0  0  0  0  0
   -0.9834   -1.6490   -1.0507 H   0  0  0  0  0  0  0  0  0  0  0  0
   -0.6020   -1.4450    1.7720 H   0  0  0  0  0  0  0  0  0  0  0  0
  1  2  1  0
  2  3  2  0
  3  4  1  0
  4  5  2  0
  5  6  1  0
  6  7  2  0
  7  8  1  0
  8  9  1  0
  8  2  1  0
  1 10  1  0
  1 11  1  0
  1 12  1  0
  3 13  1  0
  4 14  1  0
  5 15  1  0
  6 16  1  0
  7 17  1  0
  8 18  1  0
  9 19  1  0
M  END
