
     RDKit          3D

 21 22  0  0  0  0  0  0  0  0999 V2000
    2.7770   -0.0816   -0.3798 C   0  0  0  0  0  0  0  0  0  0  0  0
    1.3494    0.1947   -0.1222 C   0  0  0  0  0  0  0  0  0  0  0  0
    0.7683    1.1749    0.5568 C   0  0  0  0  0  0  0  0  0  0  0  0
   -0.7022    0.9308    0.6217 C   0  0  0  0  0  0  0  0  0  0  0  0
   -1.2064    1.0883   -0.7868 C   0  0  0  0  0  0  0  0  0  0  0  0
   -0.5558    0.0895   -1.5098 O   0  0  0  0  0  0  0  0  0  0  0  0
    0.2241   -0.6447   -0.6187 C   0  0  0  0  0  0  0  0  0  0  0  0
   -0.6347   -0.6098    0.6644 C   0  0  0  0  0  0  0  0  0  0  0  0
   -1.9517   -1.2460    0.4855 C   0  0  0  0  0  0  0  0  0  0  0  0
    3.4587    0.4354    0.3333 H   0  0  0  0  0  0  0  0  0  0  0  0
    3.1066    0.2241   -1.3929 H   0  0  0  0  0  0  0  0  0  0  0  0
    3.0201   -1.1766   -0.2676 H   0  0  0  0  0  0  0  0  0  0  0  0
    1.2580    2.0219    1.0000 H   0  0  0  0  0  0  0  0  0  0  0  0
   -1.2378    1.3800    1.4027 H   0  0  0  0  0  0  0  0  0  0  0  0
   -0.8788    2.0787   -1.1781 H   0  0  0  0  0  0  0  0  0  0  0  0
   -2.3120    0.9665   -0.8474 H   0  0  0  0  0  0  0  0  0  0  0  0
    0.4755   -1.6335   -0.9339 H   0  0  0  0  0  0  0  0  0  0  0  0
   -0.0389   -0.9572    1.5243 H   0  0  0  0  0  0  0  0  0  0  0  0
   -2.1734   -1.5383   -0.5685 H   0  0  0  0  0  0  0  0  0  0  0  0
   -2.7409   -0.5494    0.8840 H   0  0  0  0  0  0  0  0  0  0  0  0
   -2.0050   -2.1478    1.1328 H   0  0  0  0  0  0  0  0  0  0  0  0
  1  2  1  0
  2  3  2  0
  3  4  1  0
  4  5  1  0
  5  6  1  0
  6  7  1  0
  7  8  1  0
  8  9  1  0
  7  2  1  0
  8  4  1  0
  1 10  1  0
  1 11  1  0
  1 12  1  0
  3 13  1  0
  4 14  1  0
  5 15  1  0
  5 16  1  0
  7 17  1  0
  8 18  1  0
  9 19  1  0
  9 20  1  0
  9 21  1  0
M  END
