
     RDKit          3D

 20 21  0  0  0  0  0  0  0  0999 V2000
    2.6210    0.3022    0.3480 C   0  0  0  0  0  0  0  0  0  0  0  0
    1.2113    0.1168   -0.1331 C   0  0  0  0  0  0  0  0  0  0  0  0
    0.3561    1.0305   -0.5394 C   0  0  0  0  0  0  0  0  0  0  0  0
   -0.9350    0.4023   -0.9274 C   0  0  0  0  0  0  0  0  0  0  0  0
   -2.0498    0.7733    0.0296 C   0  0  0  0  0  0  0  0  0  0  0  0
   -1.4824   -0.2827    0.9676 C   0  0  0  0  0  0  0  0  0  0  0  0
   -0.8806   -0.9497   -0.2191 C   0  0  0  0  0  0  0  0  0  0  0  0
    0.5799   -1.2149   -0.2226 C   0  0  0  0  0  0  0  0  0  0  0  0
    3.0933    1.1284   -0.2258 H   0  0  0  0  0  0  0  0  0  0  0  0
    3.2155   -0.6140    0.2190 H   0  0  0  0  0  0  0  0  0  0  0  0
    2.6565    0.5859    1.4169 H   0  0  0  0  0  0  0  0  0  0  0  0
    0.5427    2.0881   -0.5919 H   0  0  0  0  0  0  0  0  0  0  0  0
   -1.1865    0.3790   -1.9819 H   0  0  0  0  0  0  0  0  0  0  0  0
   -3.0530    0.5360   -0.3338 H   0  0  0  0  0  0  0  0  0  0  0  0
   -1.9201    1.8130    0.3759 H   0  0  0  0  0  0  0  0  0  0  0  0
   -0.8061    0.1127    1.7260 H   0  0  0  0  0  0  0  0  0  0  0  0
   -2.2524   -0.9296    1.4321 H   0  0  0  0  0  0  0  0  0  0  0  0
   -1.4839   -1.7443   -0.6989 H   0  0  0  0  0  0  0  0  0  0  0  0
    0.9097   -1.9024    0.5840 H   0  0  0  0  0  0  0  0  0  0  0  0
    0.8637   -1.6306   -1.2252 H   0  0  0  0  0  0  0  0  0  0  0  0
  1  2  1  0
  2  3  2  0
  3  4  1  0
  4  5  1  0
  5  6  1  0
  6  7  1  0
  7  8  1  0
  8  2  1  0
  7  4  1  0
  1  9  1  0
  1 10  1  0
  1 11  1  0
  3 12  1  0
  4 13  1  0
  5 14  1  0
  5 15  1  0
  6 16  1  0
  6 17  1  0
  7 18  1  0
  8 19  1  0
  8 20  1  0
M  END
