
     RDKit          3D

 21 22  0  0  0  0  0  0  0  0999 V2000
    2.5396   -0.7622    0.4798 C   0  0  0  0  0  0  0  0  0  0  0  0
    1.2925   -0.0876    0.0436 C   0  0  0  0  0  0  0  0  0  0  0  0
    1.1792    1.2244    0.1888 C   0  0  0  0  0  0  0  0  0  0  0  0
   -0.0025    1.9688   -0.2102 C   0  0  0  0  0  0  0  0  0  0  0  0
   -1.0662    2.1577    0.6620 O   0  0  0  0  0  0  0  0  0  0  0  0
   -1.2369    1.1546   -0.3018 C   0  0  0  0  0  0  0  0  0  0  0  0
   -1.0777   -0.2447    0.1583 C   0  0  0  0  0  0  0  0  0  0  0  0
   -2.2934   -1.0901   -0.0104 C   0  0  0  0  0  0  0  0  0  0  0  0
    0.1390   -0.8205   -0.5501 C   0  0  0  0  0  0  0  0  0  0  0  0
    3.3149   -0.6555   -0.3074 H   0  0  0  0  0  0  0  0  0  0  0  0
    2.9546   -0.2826    1.3877 H   0  0  0  0  0  0  0  0  0  0  0  0
    2.3581   -1.8226    0.7206 H   0  0  0  0  0  0  0  0  0  0  0  0
    2.0294    1.7949    0.6393 H   0  0  0  0  0  0  0  0  0  0  0  0
    0.1859    2.7753   -0.9531 H   0  0  0  0  0  0  0  0  0  0  0  0
   -1.9165    1.3749   -1.1541 H   0  0  0  0  0  0  0  0  0  0  0  0
   -0.8133   -0.2621    1.2530 H   0  0  0  0  0  0  0  0  0  0  0  0
   -2.4790   -1.4353   -1.0366 H   0  0  0  0  0  0  0  0  0  0  0  0
   -3.1746   -0.4762    0.3048 H   0  0  0  0  0  0  0  0  0  0  0  0
   -2.2798   -1.9639    0.6712 H   0  0  0  0  0  0  0  0  0  0  0  0
    0.2799   -1.8821   -0.3435 H   0  0  0  0  0  0  0  0  0  0  0  0
    0.0667   -0.6653   -1.6418 H   0  0  0  0  0  0  0  0  0  0  0  0
  1  2  1  0
  2  3  2  0
  3  4  1  0
  4  5  1  0
  5  6  1  0
  6  7  1  0
  7  8  1  0
  7  9  1  0
  9  2  1  0
  6  4  1  0
  1 10  1  0
  1 11  1  0
  1 12  1  0
  3 13  1  0
  4 14  1  0
  6 15  1  0
  7 16  1  0
  8 17  1  0
  8 18  1  0
  8 19  1  0
  9 20  1  0
  9 21  1  0
M  END
