
     RDKit          3D

 25 25  0  0  0  0  0  0  0  0999 V2000
    2.7644    0.6597    0.4043 C   0  0  0  0  0  0  0  0  0  0  0  0
    1.3456    0.2964    0.0516 C   0  0  0  0  0  0  0  0  0  0  0  0
    0.6282    1.4098   -0.0947 C   0  0  0  0  0  0  0  0  0  0  0  0
   -0.7794    1.6857   -0.4289 C   0  0  0  0  0  0  0  0  0  0  0  0
   -1.6561    0.9625    0.5467 C   0  0  0  0  0  0  0  0  0  0  0  0
   -2.1337   -0.3141   -0.1040 C   0  0  0  0  0  0  0  0  0  0  0  0
   -1.2724   -1.4962    0.1991 C   0  0  0  0  0  0  0  0  0  0  0  0
   -0.0691   -1.6084   -0.6898 C   0  0  0  0  0  0  0  0  0  0  0  0
    1.2025   -1.1627   -0.0192 C   0  0  0  0  0  0  0  0  0  0  0  0
    2.9322    0.5952    1.5063 H   0  0  0  0  0  0  0  0  0  0  0  0
    3.4879    0.0068   -0.0937 H   0  0  0  0  0  0  0  0  0  0  0  0
    2.9977    1.7049    0.1259 H   0  0  0  0  0  0  0  0  0  0  0  0
    1.2295    2.3178    0.0734 H   0  0  0  0  0  0  0  0  0  0  0  0
   -1.0035    1.3428   -1.4606 H   0  0  0  0  0  0  0  0  0  0  0  0
   -0.9546    2.7719   -0.3771 H   0  0  0  0  0  0  0  0  0  0  0  0
   -1.1704    0.8068    1.5174 H   0  0  0  0  0  0  0  0  0  0  0  0
   -2.5427    1.6321    0.7468 H   0  0  0  0  0  0  0  0  0  0  0  0
   -3.1784   -0.4792    0.2304 H   0  0  0  0  0  0  0  0  0  0  0  0
   -2.1882   -0.1611   -1.2069 H   0  0  0  0  0  0  0  0  0  0  0  0
   -1.9328   -2.4074    0.1028 H   0  0  0  0  0  0  0  0  0  0  0  0
   -0.9356   -1.4980    1.2624 H   0  0  0  0  0  0  0  0  0  0  0  0
   -0.1991   -1.1267   -1.6720 H   0  0  0  0  0  0  0  0  0  0  0  0
    0.0699   -2.7078   -0.9125 H   0  0  0  0  0  0  0  0  0  0  0  0
    2.0528   -1.5473   -0.6544 H   0  0  0  0  0  0  0  0  0  0  0  0
    1.3056   -1.6836    0.9467 H   0  0  0  0  0  0  0  0  0  0  0  0
  1  2  1  0
  2  3  2  3
  3  4  1  0
  4  5  1  0
  5  6  1  0
  6  7  1  0
  7  8  1  0
  8  9  1  0
  9  2  1  0
  1 10  1  0
  1 11  1  0
  1 12  1  0
  3 13  1  0
  4 14  1  0
  4 15  1  0
  5 16  1  0
  5 17  1  0
  6 18  1  0
  6 19  1  0
  7 20  1  0
  7 21  1  0
  8 22  1  0
  8 23  1  0
  9 24  1  0
  9 25  1  0
M  END
