
     RDKit          3D

 17 18  0  0  0  0  0  0  0  0999 V2000
    2.2798   -0.0538   -0.0314 C   0  0  0  0  0  0  0  0  0  0  0  0
    0.8128   -0.1341   -0.1254 C   0  0  0  0  0  0  0  0  0  0  0  0
    0.0206   -0.8798   -0.9059 C   0  0  0  0  0  0  0  0  0  0  0  0
   -1.3310   -0.4754   -0.5029 C   0  0  0  0  0  0  0  0  0  0  0  0
   -1.1677    1.0415   -0.4053 C   0  0  0  0  0  0  0  0  0  0  0  0
   -0.1761    0.6483    0.6804 C   0  0  0  0  0  0  0  0  0  0  0  0
   -1.1715   -0.4365    1.0200 C   0  0  0  0  0  0  0  0  0  0  0  0
    2.7280   -1.0261   -0.2768 H   0  0  0  0  0  0  0  0  0  0  0  0
    2.5389    0.2860    0.9999 H   0  0  0  0  0  0  0  0  0  0  0  0
    2.6805    0.6735   -0.7775 H   0  0  0  0  0  0  0  0  0  0  0  0
    0.2466   -1.6150   -1.6639 H   0  0  0  0  0  0  0  0  0  0  0  0
   -2.2009   -0.8779   -0.9185 H   0  0  0  0  0  0  0  0  0  0  0  0
   -2.0447    1.5901   -0.0749 H   0  0  0  0  0  0  0  0  0  0  0  0
   -0.6585    1.3997   -1.3294 H   0  0  0  0  0  0  0  0  0  0  0  0
    0.1378    1.3452    1.3912 H   0  0  0  0  0  0  0  0  0  0  0  0
   -2.0576   -0.1386    1.5727 H   0  0  0  0  0  0  0  0  0  0  0  0
   -0.6370   -1.3469    1.3477 H   0  0  0  0  0  0  0  0  0  0  0  0
  1  2  1  0
  2  3  2  0
  3  4  1  0
  4  5  1  0
  5  6  1  0
  6  7  1  0
  6  2  1  0
  7  4  1  0
  1  8  1  0
  1  9  1  0
  1 10  1  0
  3 11  1  0
  4 12  1  0
  5 13  1  0
  5 14  1  0
  6 15  1  0
  7 16  1  0
  7 17  1  0
M  END
