
     RDKit          3D

 21 21  0  0  0  0  0  0  0  0999 V2000
    2.9079    0.0533   -0.2966 C   0  0  0  0  0  0  0  0  0  0  0  0
    1.4232    0.2055   -0.1561 C   0  0  0  0  0  0  0  0  0  0  0  0
    0.5339   -0.7670    0.0205 C   0  0  0  0  0  0  0  0  0  0  0  0
   -0.8339   -0.2300    0.1154 C   0  0  0  0  0  0  0  0  0  0  0  0
   -1.3328   -0.3132    1.5213 C   0  0  0  0  0  0  0  0  0  0  0  0
   -1.8031   -0.9732   -0.7951 C   0  0  0  0  0  0  0  0  0  0  0  0
   -0.7000    1.1701   -0.4030 C   0  0  0  0  0  0  0  0  0  0  0  0
    0.7287    1.4688   -0.1941 C   0  0  0  0  0  0  0  0  0  0  0  0
    1.2157    2.5997   -0.0764 O   0  0  0  0  0  0  0  0  0  0  0  0
    3.1585   -0.0795   -1.3525 H   0  0  0  0  0  0  0  0  0  0  0  0
    3.2113   -0.8422    0.2843 H   0  0  0  0  0  0  0  0  0  0  0  0
    3.3932    0.9773    0.1169 H   0  0  0  0  0  0  0  0  0  0  0  0
    0.7917   -1.8165    0.0852 H   0  0  0  0  0  0  0  0  0  0  0  0
   -1.6132   -1.3840    1.7094 H   0  0  0  0  0  0  0  0  0  0  0  0
   -2.2501    0.2707    1.7003 H   0  0  0  0  0  0  0  0  0  0  0  0
   -0.5189   -0.0723    2.2029 H   0  0  0  0  0  0  0  0  0  0  0  0
   -2.7873   -0.4814   -0.6564 H   0  0  0  0  0  0  0  0  0  0  0  0
   -1.4446   -0.7800   -1.8348 H   0  0  0  0  0  0  0  0  0  0  0  0
   -1.8522   -2.0405   -0.5417 H   0  0  0  0  0  0  0  0  0  0  0  0
   -1.3683    1.8982    0.0675 H   0  0  0  0  0  0  0  0  0  0  0  0
   -0.8597    1.1362   -1.5169 H   0  0  0  0  0  0  0  0  0  0  0  0
  1  2  1  0
  2  3  2  0
  3  4  1  0
  4  5  1  0
  4  6  1  0
  4  7  1  0
  7  8  1  0
  8  9  2  0
  8  2  1  0
  1 10  1  0
  1 11  1  0
  1 12  1  0
  3 13  1  0
  5 14  1  0
  5 15  1  0
  5 16  1  0
  6 17  1  0
  6 18  1  0
  6 19  1  0
  7 20  1  0
  7 21  1  0
M  END
