
     RDKit          3D

 19 21  0  0  0  0  0  0  0  0999 V2000
    1.1178    1.9241    0.0914 C   0  0  0  0  0  0  0  0  0  0  0  0
    0.1959    0.7565    0.0942 C   0  0  0  0  0  0  0  0  0  0  0  0
    0.5318   -0.5041   -0.1554 C   0  0  0  0  0  0  0  0  0  0  0  0
    1.8847   -1.0103   -0.4868 C   0  0  0  0  0  0  0  0  0  0  0  0
   -0.6975   -1.3612   -0.0494 C   0  0  0  0  0  0  0  0  0  0  0  0
   -1.9951   -0.7800   -0.5355 C   0  0  0  0  0  0  0  0  0  0  0  0
   -2.0585    0.5939   -0.7293 O   0  0  0  0  0  0  0  0  0  0  0  0
   -1.2783    0.8437    0.3878 C   0  0  0  0  0  0  0  0  0  0  0  0
   -1.5511   -0.5696    0.8227 C   0  0  0  0  0  0  0  0  0  0  0  0
    0.9946    2.4387   -0.8788 H   0  0  0  0  0  0  0  0  0  0  0  0
    2.1792    1.5778    0.1993 H   0  0  0  0  0  0  0  0  0  0  0  0
    0.9129    2.5989    0.9645 H   0  0  0  0  0  0  0  0  0  0  0  0
    2.2368   -0.5408   -1.4219 H   0  0  0  0  0  0  0  0  0  0  0  0
    1.8820   -2.0922   -0.6388 H   0  0  0  0  0  0  0  0  0  0  0  0
    2.6308   -0.8034    0.3203 H   0  0  0  0  0  0  0  0  0  0  0  0
   -0.6162   -2.4273    0.0998 H   0  0  0  0  0  0  0  0  0  0  0  0
   -2.7795   -1.4464   -0.8796 H   0  0  0  0  0  0  0  0  0  0  0  0
   -1.5823    1.6411    1.0551 H   0  0  0  0  0  0  0  0  0  0  0  0
   -2.0080   -0.8391    1.7404 H   0  0  0  0  0  0  0  0  0  0  0  0
  1  2  1  0
  2  3  2  0
  3  4  1  0
  3  5  1  0
  5  6  1  0
  6  7  1  0
  7  8  1  0
  8  9  1  0
  8  2  1  0
  9  5  1  0
  9  6  1  0
  1 10  1  0
  1 11  1  0
  1 12  1  0
  4 13  1  0
  4 14  1  0
  4 15  1  0
  5 16  1  0
  6 17  1  0
  8 18  1  0
  9 19  1  0
M  END
