
     RDKit          3D

 17 17  0  0  0  0  0  0  0  0999 V2000
    2.4801    0.1274   -0.3070 C   0  0  0  0  0  0  0  0  0  0  0  0
    1.0459   -0.0421    0.0448 C   0  0  0  0  0  0  0  0  0  0  0  0
    0.1381    0.9078   -0.0746 C   0  0  0  0  0  0  0  0  0  0  0  0
   -1.1637    0.3877    0.3654 C   0  0  0  0  0  0  0  0  0  0  0  0
   -2.2986    0.9218   -0.4296 C   0  0  0  0  0  0  0  0  0  0  0  0
   -2.8699    1.9085   -0.0017 O   0  0  0  0  0  0  0  0  0  0  0  0
   -1.0047   -1.1018    0.1987 C   0  0  0  0  0  0  0  0  0  0  0  0
    0.4244   -1.2591    0.5526 C   0  0  0  0  0  0  0  0  0  0  0  0
    0.9628   -2.2065    1.1431 O   0  0  0  0  0  0  0  0  0  0  0  0
    3.0587   -0.6849    0.1920 H   0  0  0  0  0  0  0  0  0  0  0  0
    2.8870    1.0858    0.0812 H   0  0  0  0  0  0  0  0  0  0  0  0
    2.6811    0.0527   -1.3797 H   0  0  0  0  0  0  0  0  0  0  0  0
    0.3507    1.9230   -0.4486 H   0  0  0  0  0  0  0  0  0  0  0  0
   -1.3008    0.5673    1.4528 H   0  0  0  0  0  0  0  0  0  0  0  0
   -2.5614    0.4155   -1.3402 H   0  0  0  0  0  0  0  0  0  0  0  0
   -1.1459   -1.3108   -0.8857 H   0  0  0  0  0  0  0  0  0  0  0  0
   -1.6837   -1.6922    0.8364 H   0  0  0  0  0  0  0  0  0  0  0  0
  1  2  1  0
  2  3  2  0
  3  4  1  0
  4  5  1  0
  5  6  2  0
  4  7  1  0
  7  8  1  0
  8  9  2  0
  8  2  1  0
  1 10  1  0
  1 11  1  0
  1 12  1  0
  3 13  1  0
  4 14  1  0
  5 15  1  0
  7 16  1  0
  7 17  1  0
M  END
