
     RDKit          3D

 19 20  0  0  0  0  0  0  0  0999 V2000
    2.5867    0.0209    0.4784 C   0  0  0  0  0  0  0  0  0  0  0  0
    1.1924    0.0781   -0.0405 C   0  0  0  0  0  0  0  0  0  0  0  0
    0.9119   -0.0042   -1.3289 C   0  0  0  0  0  0  0  0  0  0  0  0
   -0.5422    0.0819   -1.5363 C   0  0  0  0  0  0  0  0  0  0  0  0
   -1.1771    0.1522   -2.5976 O   0  0  0  0  0  0  0  0  0  0  0  0
   -1.1333    0.0685   -0.1877 C   0  0  0  0  0  0  0  0  0  0  0  0
   -2.0583   -1.0462    0.1421 C   0  0  0  0  0  0  0  0  0  0  0  0
   -0.9880    1.2934    0.6034 C   0  0  0  0  0  0  0  0  0  0  0  0
    0.0021    0.2273    0.7846 C   0  0  0  0  0  0  0  0  0  0  0  0
    2.9205    1.0360    0.7241 H   0  0  0  0  0  0  0  0  0  0  0  0
    3.2720   -0.5238   -0.2013 H   0  0  0  0  0  0  0  0  0  0  0  0
    2.6101   -0.5583    1.4478 H   0  0  0  0  0  0  0  0  0  0  0  0
    1.5811   -0.1186   -2.1773 H   0  0  0  0  0  0  0  0  0  0  0  0
   -1.4211   -1.9545    0.3577 H   0  0  0  0  0  0  0  0  0  0  0  0
   -2.6305   -0.8405    1.0503 H   0  0  0  0  0  0  0  0  0  0  0  0
   -2.7032   -1.2988   -0.7357 H   0  0  0  0  0  0  0  0  0  0  0  0
   -0.6625    2.2159    0.0693 H   0  0  0  0  0  0  0  0  0  0  0  0
   -1.7229    1.4788    1.3821 H   0  0  0  0  0  0  0  0  0  0  0  0
   -0.0377   -0.3081    1.7656 H   0  0  0  0  0  0  0  0  0  0  0  0
  1  2  1  0
  2  3  2  0
  3  4  1  0
  4  5  2  0
  4  6  1  0
  6  7  1  0
  6  8  1  0
  8  9  1  0
  9  2  1  0
  9  6  1  0
  1 10  1  0
  1 11  1  0
  1 12  1  0
  3 13  1  0
  7 14  1  0
  7 15  1  0
  7 16  1  0
  8 17  1  0
  8 18  1  0
  9 19  1  0
M  END
