
     RDKit          3D

 19 20  0  0  0  0  0  0  0  0999 V2000
   -2.4224   -0.0020   -0.3233 C   0  0  0  0  0  0  0  0  0  0  0  0
   -0.9497   -0.0858   -0.1486 C   0  0  0  0  0  0  0  0  0  0  0  0
   -0.3165   -1.2223   -0.4148 C   0  0  0  0  0  0  0  0  0  0  0  0
    1.1695   -1.1778   -0.5107 C   0  0  0  0  0  0  0  0  0  0  0  0
    1.6720    0.0599    0.1522 C   0  0  0  0  0  0  0  0  0  0  0  0
    0.8358    0.4667    1.3617 C   0  0  0  0  0  0  0  0  0  0  0  0
   -0.1259    1.0448    0.3142 C   0  0  0  0  0  0  0  0  0  0  0  0
    1.0765    1.2343   -0.5391 C   0  0  0  0  0  0  0  0  0  0  0  0
    1.4305    1.9948   -1.4092 O   0  0  0  0  0  0  0  0  0  0  0  0
   -2.9171   -0.8994    0.1400 H   0  0  0  0  0  0  0  0  0  0  0  0
   -2.8405    0.8674    0.2618 H   0  0  0  0  0  0  0  0  0  0  0  0
   -2.6853    0.1132   -1.3897 H   0  0  0  0  0  0  0  0  0  0  0  0
   -0.8399   -2.1753   -0.5637 H   0  0  0  0  0  0  0  0  0  0  0  0
    1.4145   -1.0850   -1.6059 H   0  0  0  0  0  0  0  0  0  0  0  0
    1.6334   -2.1028   -0.0984 H   0  0  0  0  0  0  0  0  0  0  0  0
    2.7626    0.1082    0.3116 H   0  0  0  0  0  0  0  0  0  0  0  0
    0.4306   -0.3692    1.9335 H   0  0  0  0  0  0  0  0  0  0  0  0
    1.3197    1.2842    1.9000 H   0  0  0  0  0  0  0  0  0  0  0  0
   -0.6476    1.9459    0.6286 H   0  0  0  0  0  0  0  0  0  0  0  0
  1  2  1  0
  2  3  2  0
  3  4  1  0
  4  5  1  0
  5  6  1  0
  6  7  1  0
  7  8  1  0
  8  9  2  0
  7  2  1  0
  8  5  1  0
  1 10  1  0
  1 11  1  0
  1 12  1  0
  3 13  1  0
  4 14  1  0
  4 15  1  0
  5 16  1  0
  6 17  1  0
  6 18  1  0
  7 19  1  0
M  END
