
     RDKit          3D

 20 20  0  0  0  0  0  0  0  0999 V2000
    2.1160   -0.8399    0.0893 C   0  0  0  0  0  0  0  0  0  0  0  0
    0.6403   -0.5550    0.0122 C   0  0  0  0  0  0  0  0  0  0  0  0
   -0.2038   -1.4366   -0.5020 C   0  0  0  0  0  0  0  0  0  0  0  0
   -1.6026   -0.8838   -0.4485 C   0  0  0  0  0  0  0  0  0  0  0  0
   -2.2902   -1.3445    0.6549 O   0  0  0  0  0  0  0  0  0  0  0  0
   -1.3501    0.6102   -0.3508 C   0  0  0  0  0  0  0  0  0  0  0  0
   -0.0770    0.6353    0.4529 C   0  0  0  0  0  0  0  0  0  0  0  0
    0.6340    1.9258    0.1494 C   0  0  0  0  0  0  0  0  0  0  0  0
    2.6310   -0.1182    0.7240 H   0  0  0  0  0  0  0  0  0  0  0  0
    2.5663   -0.7702   -0.9304 H   0  0  0  0  0  0  0  0  0  0  0  0
    2.2929   -1.8709    0.4715 H   0  0  0  0  0  0  0  0  0  0  0  0
    0.0281   -2.4282   -0.9155 H   0  0  0  0  0  0  0  0  0  0  0  0
   -2.1089   -1.0753   -1.3916 H   0  0  0  0  0  0  0  0  0  0  0  0
   -1.7416   -1.3544    1.4527 H   0  0  0  0  0  0  0  0  0  0  0  0
   -2.1668    1.0762    0.2335 H   0  0  0  0  0  0  0  0  0  0  0  0
   -1.2816    1.1021   -1.3220 H   0  0  0  0  0  0  0  0  0  0  0  0
   -0.3587    0.5396    1.5195 H   0  0  0  0  0  0  0  0  0  0  0  0
    0.4755    2.1463   -0.9362 H   0  0  0  0  0  0  0  0  0  0  0  0
    1.7064    1.9094    0.3302 H   0  0  0  0  0  0  0  0  0  0  0  0
    0.0909    2.7324    0.7067 H   0  0  0  0  0  0  0  0  0  0  0  0
  1  2  1  0
  2  3  2  0
  3  4  1  0
  4  5  1  0
  4  6  1  0
  6  7  1  0
  7  8  1  0
  7  2  1  0
  1  9  1  0
  1 10  1  0
  1 11  1  0
  3 12  1  0
  4 13  1  0
  5 14  1  0
  6 15  1  0
  6 16  1  0
  7 17  1  0
  8 18  1  0
  8 19  1  0
  8 20  1  0
M  END
