
     RDKit          3D

 21 22  0  0  0  0  0  0  0  0999 V2000
    2.7168   -0.4912   -0.1046 C   0  0  0  0  0  0  0  0  0  0  0  0
    1.3810    0.1436   -0.0027 C   0  0  0  0  0  0  0  0  0  0  0  0
    0.5273    0.2293   -1.0135 C   0  0  0  0  0  0  0  0  0  0  0  0
   -0.7857    0.8512   -0.9224 C   0  0  0  0  0  0  0  0  0  0  0  0
   -1.9952    0.1724   -0.4618 C   0  0  0  0  0  0  0  0  0  0  0  0
   -2.0577   -1.3031   -0.2014 C   0  0  0  0  0  0  0  0  0  0  0  0
   -1.1936    0.9972    0.5298 C   0  0  0  0  0  0  0  0  0  0  0  0
   -0.4026    0.3338    1.4283 O   0  0  0  0  0  0  0  0  0  0  0  0
    0.9568    0.7210    1.3158 C   0  0  0  0  0  0  0  0  0  0  0  0
    3.4586    0.1894    0.4070 H   0  0  0  0  0  0  0  0  0  0  0  0
    3.0730   -0.5961   -1.1340 H   0  0  0  0  0  0  0  0  0  0  0  0
    2.7939   -1.4582    0.3893 H   0  0  0  0  0  0  0  0  0  0  0  0
    0.9124   -0.2257   -1.9544 H   0  0  0  0  0  0  0  0  0  0  0  0
   -0.9170    1.7750   -1.5528 H   0  0  0  0  0  0  0  0  0  0  0  0
   -2.9665    0.6149   -0.7628 H   0  0  0  0  0  0  0  0  0  0  0  0
   -1.2559   -1.6723    0.4698 H   0  0  0  0  0  0  0  0  0  0  0  0
   -2.1498   -1.9101   -1.1337 H   0  0  0  0  0  0  0  0  0  0  0  0
   -3.0225   -1.4860    0.3574 H   0  0  0  0  0  0  0  0  0  0  0  0
   -1.6257    1.9768    0.8442 H   0  0  0  0  0  0  0  0  0  0  0  0
    1.4762    0.1939    2.1423 H   0  0  0  0  0  0  0  0  0  0  0  0
    1.0763    1.8073    1.3603 H   0  0  0  0  0  0  0  0  0  0  0  0
  1  2  1  0
  2  3  2  0
  3  4  1  0
  4  5  1  0
  5  6  1  0
  5  7  1  0
  7  8  1  0
  8  9  1  0
  9  2  1  0
  7  4  1  0
  1 10  1  0
  1 11  1  0
  1 12  1  0
  3 13  1  0
  4 14  1  0
  5 15  1  0
  6 16  1  0
  6 17  1  0
  6 18  1  0
  7 19  1  0
  9 20  1  0
  9 21  1  0
M  END
