
     RDKit          3D

 23 23  0  0  0  0  0  0  0  0999 V2000
    2.5709   -0.2605    0.7479 C   0  0  0  0  0  0  0  0  0  0  0  0
    1.2175   -0.4377    0.1272 C   0  0  0  0  0  0  0  0  0  0  0  0
    0.4502   -1.4815    0.4335 C   0  0  0  0  0  0  0  0  0  0  0  0
   -0.8604   -1.5727   -0.2237 C   0  0  0  0  0  0  0  0  0  0  0  0
   -1.6535   -2.4777    0.4849 O   0  0  0  0  0  0  0  0  0  0  0  0
   -1.5569   -0.2468   -0.3073 C   0  0  0  0  0  0  0  0  0  0  0  0
   -0.7054    0.8705   -0.7715 C   0  0  0  0  0  0  0  0  0  0  0  0
   -0.9128    2.0618    0.1697 C   0  0  0  0  0  0  0  0  0  0  0  0
    0.7611    0.5740   -0.8302 C   0  0  0  0  0  0  0  0  0  0  0  0
    2.9613   -1.1881    1.1704 H   0  0  0  0  0  0  0  0  0  0  0  0
    2.4908    0.5658    1.4596 H   0  0  0  0  0  0  0  0  0  0  0  0
    3.2801    0.0452   -0.0730 H   0  0  0  0  0  0  0  0  0  0  0  0
    0.8439   -2.1942    1.1475 H   0  0  0  0  0  0  0  0  0  0  0  0
   -0.7296   -1.9336   -1.2815 H   0  0  0  0  0  0  0  0  0  0  0  0
   -2.1714   -1.9686    1.1792 H   0  0  0  0  0  0  0  0  0  0  0  0
   -2.4301   -0.3937   -1.0097 H   0  0  0  0  0  0  0  0  0  0  0  0
   -2.0548   -0.0098    0.6789 H   0  0  0  0  0  0  0  0  0  0  0  0
   -1.0195    1.2039   -1.7830 H   0  0  0  0  0  0  0  0  0  0  0  0
   -1.8542    1.9222    0.7537 H   0  0  0  0  0  0  0  0  0  0  0  0
   -0.0607    2.1251    0.8715 H   0  0  0  0  0  0  0  0  0  0  0  0
   -0.9229    3.0050   -0.4145 H   0  0  0  0  0  0  0  0  0  0  0  0
    1.0579    0.2627   -1.8739 H   0  0  0  0  0  0  0  0  0  0  0  0
    1.2983    1.5286   -0.6559 H   0  0  0  0  0  0  0  0  0  0  0  0
  1  2  1  0
  2  3  2  0
  3  4  1  0
  4  5  1  0
  4  6  1  0
  6  7  1  0
  7  8  1  0
  7  9  1  0
  9  2  1  0
  1 10  1  0
  1 11  1  0
  1 12  1  0
  3 13  1  0
  4 14  1  0
  5 15  1  0
  6 16  1  0
  6 17  1  0
  7 18  1  0
  8 19  1  0
  8 20  1  0
  8 21  1  0
  9 22  1  0
  9 23  1  0
M  END
