
     RDKit          3D

 17 18  0  0  0  0  0  0  0  0999 V2000
   -2.3486    0.4517    0.1582 C   0  0  0  0  0  0  0  0  0  0  0  0
   -0.8885    0.2462   -0.0333 C   0  0  0  0  0  0  0  0  0  0  0  0
   -0.0486    1.2700    0.0874 C   0  0  0  0  0  0  0  0  0  0  0  0
    1.3813    1.0574   -0.1022 C   0  0  0  0  0  0  0  0  0  0  0  0
    2.0591    1.9786   -0.6246 O   0  0  0  0  0  0  0  0  0  0  0  0
    1.9461   -0.2386    0.3362 C   0  0  0  0  0  0  0  0  0  0  0  0
    1.0287   -1.3386   -0.0778 C   0  0  0  0  0  0  0  0  0  0  0  0
    0.5347   -1.1657   -1.4703 O   0  0  0  0  0  0  0  0  0  0  0  0
   -0.3083   -1.0790   -0.3632 C   0  0  0  0  0  0  0  0  0  0  0  0
   -2.8130    1.0427   -0.6414 H   0  0  0  0  0  0  0  0  0  0  0  0
   -2.5725    0.9480    1.1292 H   0  0  0  0  0  0  0  0  0  0  0  0
   -2.8492   -0.5290    0.1821 H   0  0  0  0  0  0  0  0  0  0  0  0
   -0.4510    2.2569    0.3274 H   0  0  0  0  0  0  0  0  0  0  0  0
    2.9783   -0.3773   -0.0970 H   0  0  0  0  0  0  0  0  0  0  0  0
    2.0481   -0.2330    1.4335 H   0  0  0  0  0  0  0  0  0  0  0  0
    1.3655   -2.3943    0.0999 H   0  0  0  0  0  0  0  0  0  0  0  0
   -1.0624   -1.8962   -0.3439 H   0  0  0  0  0  0  0  0  0  0  0  0
  1  2  1  0
  2  3  2  0
  3  4  1  0
  4  5  2  0
  4  6  1  0
  6  7  1  0
  7  8  1  0
  8  9  1  0
  9  2  1  0
  9  7  1  0
  1 10  1  0
  1 11  1  0
  1 12  1  0
  3 13  1  0
  6 14  1  0
  6 15  1  0
  7 16  1  0
  9 17  1  0
M  END
