
     RDKit          3D

 21 22  0  0  0  0  0  0  0  0999 V2000
    2.5463   -0.9011    0.2410 C   0  0  0  0  0  0  0  0  0  0  0  0
    1.2682   -0.1016    0.1894 C   0  0  0  0  0  0  0  0  0  0  0  0
    1.0251    0.9679    0.9307 C   0  0  0  0  0  0  0  0  0  0  0  0
   -0.3277    1.5432    0.6532 C   0  0  0  0  0  0  0  0  0  0  0  0
   -0.6577    0.9382   -0.6957 C   0  0  0  0  0  0  0  0  0  0  0  0
   -2.0787    0.5747   -0.7197 C   0  0  0  0  0  0  0  0  0  0  0  0
   -2.2359   -0.6675   -0.3377 C   0  0  0  0  0  0  0  0  0  0  0  0
   -0.9189   -1.2614   -0.0178 C   0  0  0  0  0  0  0  0  0  0  0  0
    0.1008   -0.3511   -0.6527 C   0  0  0  0  0  0  0  0  0  0  0  0
    2.8890   -0.9556    1.2953 H   0  0  0  0  0  0  0  0  0  0  0  0
    3.3553   -0.4114   -0.3298 H   0  0  0  0  0  0  0  0  0  0  0  0
    2.3919   -1.8973   -0.1923 H   0  0  0  0  0  0  0  0  0  0  0  0
    1.6932    1.4221    1.6726 H   0  0  0  0  0  0  0  0  0  0  0  0
   -0.2901    2.6381    0.5251 H   0  0  0  0  0  0  0  0  0  0  0  0
   -1.0574    1.2654    1.4378 H   0  0  0  0  0  0  0  0  0  0  0  0
   -0.3528    1.5969   -1.5332 H   0  0  0  0  0  0  0  0  0  0  0  0
   -2.9339    1.2204   -1.0111 H   0  0  0  0  0  0  0  0  0  0  0  0
   -3.1885   -1.2343   -0.2505 H   0  0  0  0  0  0  0  0  0  0  0  0
   -0.7557   -1.4458    1.0439 H   0  0  0  0  0  0  0  0  0  0  0  0
   -0.8653   -2.2394   -0.5794 H   0  0  0  0  0  0  0  0  0  0  0  0
    0.3929   -0.7005   -1.6692 H   0  0  0  0  0  0  0  0  0  0  0  0
  1  2  1  0
  2  3  2  0
  3  4  1  0
  4  5  1  0
  5  6  1  0
  6  7  2  0
  7  8  1  0
  8  9  1  0
  9  2  1  0
  9  5  1  0
  1 10  1  0
  1 11  1  0
  1 12  1  0
  3 13  1  0
  4 14  1  0
  4 15  1  0
  5 16  1  0
  6 17  1  0
  7 18  1  0
  8 19  1  0
  8 20  1  0
  9 21  1  0
M  END
