
     RDKit          3D

 14 15  0  0  0  0  0  0  0  0999 V2000
   -1.9369    0.2578    0.2245 C   0  0  0  0  0  0  0  0  0  0  0  0
   -0.4766    0.0946   -0.0302 C   0  0  0  0  0  0  0  0  0  0  0  0
    0.4037    1.0791   -0.0076 C   0  0  0  0  0  0  0  0  0  0  0  0
    1.7016    0.4128   -0.3084 C   0  0  0  0  0  0  0  0  0  0  0  0
    2.6520    0.8739   -0.9649 O   0  0  0  0  0  0  0  0  0  0  0  0
    1.4854   -0.8717    0.3838 C   0  0  0  0  0  0  0  0  0  0  0  0
    0.9722   -2.0256    0.0876 O   0  0  0  0  0  0  0  0  0  0  0  0
    0.1886   -1.1175   -0.4087 C   0  0  0  0  0  0  0  0  0  0  0  0
   -2.3406    1.1793   -0.2618 H   0  0  0  0  0  0  0  0  0  0  0  0
   -2.1232    0.3659    1.3122 H   0  0  0  0  0  0  0  0  0  0  0  0
   -2.4861   -0.6181   -0.1414 H   0  0  0  0  0  0  0  0  0  0  0  0
    0.2563    2.1615    0.1708 H   0  0  0  0  0  0  0  0  0  0  0  0
    1.3840   -0.6851    1.4985 H   0  0  0  0  0  0  0  0  0  0  0  0
    0.3197   -1.1070   -1.5543 H   0  0  0  0  0  0  0  0  0  0  0  0
  1  2  1  0
  2  3  2  0
  3  4  1  0
  4  5  2  0
  4  6  1  0
  6  7  1  0
  7  8  1  0
  8  2  1  0
  8  6  1  0
  1  9  1  0
  1 10  1  0
  1 11  1  0
  3 12  1  0
  6 13  1  0
  8 14  1  0
M  END
