
     RDKit          3D

 19 20  0  0  0  0  0  0  0  0999 V2000
    2.6705    0.4562    0.1256 C   0  0  0  0  0  0  0  0  0  0  0  0
    1.1652    0.4794    0.0778 C   0  0  0  0  0  0  0  0  0  0  0  0
    0.3875    1.5355    0.2385 C   0  0  0  0  0  0  0  0  0  0  0  0
   -1.0394    1.1406    0.1188 C   0  0  0  0  0  0  0  0  0  0  0  0
   -1.2488    0.8196   -1.3422 O   0  0  0  0  0  0  0  0  0  0  0  0
   -1.0595   -0.1741   -0.2760 C   0  0  0  0  0  0  0  0  0  0  0  0
   -2.2382   -1.1259   -0.3090 C   0  0  0  0  0  0  0  0  0  0  0  0
    0.3247   -0.7128   -0.1588 C   0  0  0  0  0  0  0  0  0  0  0  0
    0.3279   -1.5440    0.9830 O   0  0  0  0  0  0  0  0  0  0  0  0
    3.0593    0.3609    1.1372 H   0  0  0  0  0  0  0  0  0  0  0  0
    3.0169   -0.3664   -0.5291 H   0  0  0  0  0  0  0  0  0  0  0  0
    3.0918    1.3964   -0.3248 H   0  0  0  0  0  0  0  0  0  0  0  0
    0.7938    2.5459    0.4321 H   0  0  0  0  0  0  0  0  0  0  0  0
   -1.8268    1.8579    0.3803 H   0  0  0  0  0  0  0  0  0  0  0  0
   -3.1555   -0.4858   -0.2627 H   0  0  0  0  0  0  0  0  0  0  0  0
   -2.2025   -1.8484    0.5172 H   0  0  0  0  0  0  0  0  0  0  0  0
   -2.2472   -1.6102   -1.2876 H   0  0  0  0  0  0  0  0  0  0  0  0
    0.6455   -1.2900   -1.0527 H   0  0  0  0  0  0  0  0  0  0  0  0
   -0.4651   -1.4349    1.5325 H   0  0  0  0  0  0  0  0  0  0  0  0
  1  2  1  0
  2  3  2  0
  3  4  1  0
  4  5  1  0
  5  6  1  0
  6  7  1  0
  6  8  1  0
  8  9  1  0
  8  2  1  0
  6  4  1  0
  1 10  1  0
  1 11  1  0
  1 12  1  0
  3 13  1  0
  4 14  1  0
  7 15  1  0
  7 16  1  0
  7 17  1  0
  8 18  1  0
  9 19  1  0
M  END
