
     RDKit          3D

 19 19  0  0  0  0  0  0  0  0999 V2000
   -2.4168    0.5540    0.1154 C   0  0  0  0  0  0  0  0  0  0  0  0
   -0.9685    0.2368    0.0966 C   0  0  0  0  0  0  0  0  0  0  0  0
   -0.1471    1.2592   -0.0638 C   0  0  0  0  0  0  0  0  0  0  0  0
    1.3102    1.2051   -0.1157 C   0  0  0  0  0  0  0  0  0  0  0  0
    1.8468    2.2642   -0.5314 O   0  0  0  0  0  0  0  0  0  0  0  0
    2.2546    0.1428    0.2282 C   0  0  0  0  0  0  0  0  0  0  0  0
    1.7064   -1.0899    0.4267 O   0  0  0  0  0  0  0  0  0  0  0  0
    0.6962   -1.4411   -0.4260 C   0  0  0  0  0  0  0  0  0  0  0  0
   -0.6317   -1.1989    0.2619 C   0  0  0  0  0  0  0  0  0  0  0  0
   -2.6078    1.4955    0.6845 H   0  0  0  0  0  0  0  0  0  0  0  0
   -2.8332    0.6461   -0.9275 H   0  0  0  0  0  0  0  0  0  0  0  0
   -3.0157   -0.2377    0.6070 H   0  0  0  0  0  0  0  0  0  0  0  0
   -0.6014    2.2568   -0.1698 H   0  0  0  0  0  0  0  0  0  0  0  0
    2.7578    0.4492    1.1898 H   0  0  0  0  0  0  0  0  0  0  0  0
    3.0300    0.0987   -0.5895 H   0  0  0  0  0  0  0  0  0  0  0  0
    0.7745   -2.5516   -0.6187 H   0  0  0  0  0  0  0  0  0  0  0  0
    0.7650   -0.8947   -1.3970 H   0  0  0  0  0  0  0  0  0  0  0  0
   -0.4798   -1.3504    1.3663 H   0  0  0  0  0  0  0  0  0  0  0  0
   -1.4394   -1.8441   -0.1368 H   0  0  0  0  0  0  0  0  0  0  0  0
  1  2  1  0
  2  3  2  0
  3  4  1  0
  4  5  2  0
  4  6  1  0
  6  7  1  0
  7  8  1  0
  8  9  1  0
  9  2  1  0
  1 10  1  0
  1 11  1  0
  1 12  1  0
  3 13  1  0
  6 14  1  0
  6 15  1  0
  8 16  1  0
  8 17  1  0
  9 18  1  0
  9 19  1  0
M  END
