
     RDKit          3D

 21 22  0  0  0  0  0  0  0  0999 V2000
   -2.6324    0.1059   -0.6164 C   0  0  0  0  0  0  0  0  0  0  0  0
   -1.1958    0.1028   -0.2197 C   0  0  0  0  0  0  0  0  0  0  0  0
   -0.6974    1.2320    0.2710 C   0  0  0  0  0  0  0  0  0  0  0  0
    0.6972    1.3768    0.7023 C   0  0  0  0  0  0  0  0  0  0  0  0
    1.6458    0.3919    0.1371 C   0  0  0  0  0  0  0  0  0  0  0  0
    2.3574    1.0041   -0.9138 O   0  0  0  0  0  0  0  0  0  0  0  0
    1.0840   -0.8941   -0.3171 C   0  0  0  0  0  0  0  0  0  0  0  0
    0.3644   -1.6884    0.7941 C   0  0  0  0  0  0  0  0  0  0  0  0
   -0.3458   -1.0793   -0.3538 C   0  0  0  0  0  0  0  0  0  0  0  0
   -2.7948    0.9024   -1.3923 H   0  0  0  0  0  0  0  0  0  0  0  0
   -2.9451   -0.8375   -1.0922 H   0  0  0  0  0  0  0  0  0  0  0  0
   -3.2186    0.3528    0.2997 H   0  0  0  0  0  0  0  0  0  0  0  0
   -1.3497    2.1177    0.3672 H   0  0  0  0  0  0  0  0  0  0  0  0
    1.0316    2.4322    0.4737 H   0  0  0  0  0  0  0  0  0  0  0  0
    0.6950    1.3430    1.8300 H   0  0  0  0  0  0  0  0  0  0  0  0
    2.4339    0.1582    0.9129 H   0  0  0  0  0  0  0  0  0  0  0  0
    2.9609    0.3577   -1.3497 H   0  0  0  0  0  0  0  0  0  0  0  0
    1.7256   -1.4828   -1.0079 H   0  0  0  0  0  0  0  0  0  0  0  0
    0.3511   -1.2756    1.8026 H   0  0  0  0  0  0  0  0  0  0  0  0
    0.5720   -2.7915    0.7763 H   0  0  0  0  0  0  0  0  0  0  0  0
   -0.7396   -1.8282   -1.1040 H   0  0  0  0  0  0  0  0  0  0  0  0
  1  2  1  0
  2  3  2  0
  3  4  1  0
  4  5  1  0
  5  6  1  0
  5  7  1  0
  7  8  1  0
  8  9  1  0
  9  2  1  0
  9  7  1  0
  1 10  1  0
  1 11  1  0
  1 12  1  0
  3 13  1  0
  4 14  1  0
  4 15  1  0
  5 16  1  0
  6 17  1  0
  7 18  1  0
  8 19  1  0
  8 20  1  0
  9 21  1  0
M  END
