
     RDKit          3D

 23 24  0  0  0  0  0  0  0  0999 V2000
    2.4344   -0.6319   -0.2830 C   0  0  0  0  0  0  0  0  0  0  0  0
    1.1674   -0.0025    0.0921 C   0  0  0  0  0  0  0  0  0  0  0  0
    0.7933    1.1290   -0.4788 C   0  0  0  0  0  0  0  0  0  0  0  0
   -0.4798    1.8369   -0.1562 C   0  0  0  0  0  0  0  0  0  0  0  0
   -1.4642    0.9474    0.6176 C   0  0  0  0  0  0  0  0  0  0  0  0
   -1.0824   -0.4400    0.2954 C   0  0  0  0  0  0  0  0  0  0  0  0
   -1.0368   -0.6564   -1.2100 C   0  0  0  0  0  0  0  0  0  0  0  0
   -0.7148   -1.5566    1.0807 C   0  0  0  0  0  0  0  0  0  0  0  0
    0.2839   -0.5609    1.0717 C   0  0  0  0  0  0  0  0  0  0  0  0
    3.0353   -0.0414   -1.0083 H   0  0  0  0  0  0  0  0  0  0  0  0
    3.0861   -0.7020    0.6352 H   0  0  0  0  0  0  0  0  0  0  0  0
    2.3242   -1.6833   -0.6300 H   0  0  0  0  0  0  0  0  0  0  0  0
    1.3998    1.6299   -1.2370 H   0  0  0  0  0  0  0  0  0  0  0  0
   -0.9675    2.1910   -1.0916 H   0  0  0  0  0  0  0  0  0  0  0  0
   -0.2521    2.7308    0.4392 H   0  0  0  0  0  0  0  0  0  0  0  0
   -2.4724    1.2039    0.2729 H   0  0  0  0  0  0  0  0  0  0  0  0
   -1.3280    1.1995    1.6889 H   0  0  0  0  0  0  0  0  0  0  0  0
   -0.2202   -1.3589   -1.4989 H   0  0  0  0  0  0  0  0  0  0  0  0
   -1.9871   -1.2272   -1.4295 H   0  0  0  0  0  0  0  0  0  0  0  0
   -1.0854    0.2494   -1.8057 H   0  0  0  0  0  0  0  0  0  0  0  0
   -1.2910   -1.7587    2.0170 H   0  0  0  0  0  0  0  0  0  0  0  0
   -0.4997   -2.5351    0.5820 H   0  0  0  0  0  0  0  0  0  0  0  0
    0.3570    0.0373    2.0366 H   0  0  0  0  0  0  0  0  0  0  0  0
  1  2  1  0
  2  3  2  0
  3  4  1  0
  4  5  1  0
  5  6  1  0
  6  7  1  0
  6  8  1  0
  8  9  1  0
  9  2  1  0
  9  6  1  0
  1 10  1  0
  1 11  1  0
  1 12  1  0
  3 13  1  0
  4 14  1  0
  4 15  1  0
  5 16  1  0
  5 17  1  0
  7 18  1  0
  7 19  1  0
  7 20  1  0
  8 21  1  0
  8 22  1  0
  9 23  1  0
M  END
