
     RDKit          3D

 21 22  0  0  0  0  0  0  0  0999 V2000
    2.4872   -0.3467   -0.4703 C   0  0  0  0  0  0  0  0  0  0  0  0
    1.0993   -0.1860    0.0463 C   0  0  0  0  0  0  0  0  0  0  0  0
    0.3757   -1.2948    0.1444 C   0  0  0  0  0  0  0  0  0  0  0  0
   -1.0794   -1.4154    0.2265 C   0  0  0  0  0  0  0  0  0  0  0  0
   -1.7707   -0.3412    0.9822 C   0  0  0  0  0  0  0  0  0  0  0  0
   -1.1547    0.9971    0.9562 C   0  0  0  0  0  0  0  0  0  0  0  0
   -0.6169    1.4642   -0.3388 C   0  0  0  0  0  0  0  0  0  0  0  0
    0.6929    1.2025    0.3902 C   0  0  0  0  0  0  0  0  0  0  0  0
    0.0341    1.1327    1.6280 O   0  0  0  0  0  0  0  0  0  0  0  0
    3.1634    0.0765    0.3167 H   0  0  0  0  0  0  0  0  0  0  0  0
    2.7462   -1.4296   -0.5185 H   0  0  0  0  0  0  0  0  0  0  0  0
    2.6476    0.1347   -1.4445 H   0  0  0  0  0  0  0  0  0  0  0  0
    0.9275   -2.2529    0.1677 H   0  0  0  0  0  0  0  0  0  0  0  0
   -1.4775   -1.4832   -0.8254 H   0  0  0  0  0  0  0  0  0  0  0  0
   -1.3244   -2.3854    0.7086 H   0  0  0  0  0  0  0  0  0  0  0  0
   -2.8088   -0.2506    0.5738 H   0  0  0  0  0  0  0  0  0  0  0  0
   -1.9136   -0.6437    2.0506 H   0  0  0  0  0  0  0  0  0  0  0  0
   -1.8883    1.7561    1.3611 H   0  0  0  0  0  0  0  0  0  0  0  0
   -0.8403    0.7639   -1.1533 H   0  0  0  0  0  0  0  0  0  0  0  0
   -0.7598    2.5373   -0.5598 H   0  0  0  0  0  0  0  0  0  0  0  0
    1.4605    1.9645    0.2939 H   0  0  0  0  0  0  0  0  0  0  0  0
  1  2  1  0
  2  3  2  0
  3  4  1  0
  4  5  1  0
  5  6  1  0
  6  7  1  0
  7  8  1  0
  8  9  1  0
  8  2  1  0
  9  6  1  0
  1 10  1  0
  1 11  1  0
  1 12  1  0
  3 13  1  0
  4 14  1  0
  4 15  1  0
  5 16  1  0
  5 17  1  0
  6 18  1  0
  7 19  1  0
  7 20  1  0
  8 21  1  0
M  END
