
     RDKit          3D

 21 22  0  0  0  0  0  0  0  0999 V2000
   -1.8154    1.6512    0.5214 C   0  0  0  0  0  0  0  0  0  0  0  0
   -1.2140    0.3654    0.0963 C   0  0  0  0  0  0  0  0  0  0  0  0
   -1.7571   -0.8229    0.2881 C   0  0  0  0  0  0  0  0  0  0  0  0
   -0.8792   -1.8808   -0.2660 C   0  0  0  0  0  0  0  0  0  0  0  0
    0.4425   -1.2079   -0.4081 C   0  0  0  0  0  0  0  0  0  0  0  0
    0.9690   -0.8786    0.8381 O   0  0  0  0  0  0  0  0  0  0  0  0
    1.2131    0.4146    0.3801 C   0  0  0  0  0  0  0  0  0  0  0  0
    2.5932    0.4899   -0.2175 C   0  0  0  0  0  0  0  0  0  0  0  0
    0.0813    0.2362   -0.5980 C   0  0  0  0  0  0  0  0  0  0  0  0
   -2.0012    1.6383    1.6261 H   0  0  0  0  0  0  0  0  0  0  0  0
   -1.1981    2.5202    0.3078 H   0  0  0  0  0  0  0  0  0  0  0  0
   -2.8098    1.8257    0.0607 H   0  0  0  0  0  0  0  0  0  0  0  0
   -2.7201   -1.0401    0.7832 H   0  0  0  0  0  0  0  0  0  0  0  0
   -1.2858   -2.2163   -1.2484 H   0  0  0  0  0  0  0  0  0  0  0  0
   -0.7530   -2.7349    0.4368 H   0  0  0  0  0  0  0  0  0  0  0  0
    1.1486   -1.6439   -1.1332 H   0  0  0  0  0  0  0  0  0  0  0  0
    1.0058    1.1746    1.1542 H   0  0  0  0  0  0  0  0  0  0  0  0
    2.7564   -0.4362   -0.8010 H   0  0  0  0  0  0  0  0  0  0  0  0
    3.3105    0.4985    0.6349 H   0  0  0  0  0  0  0  0  0  0  0  0
    2.7262    1.3781   -0.8741 H   0  0  0  0  0  0  0  0  0  0  0  0
    0.1870    0.6688   -1.5816 H   0  0  0  0  0  0  0  0  0  0  0  0
  1  2  1  0
  2  3  2  0
  3  4  1  0
  4  5  1  0
  5  6  1  0
  6  7  1  0
  7  8  1  0
  7  9  1  0
  9  2  1  0
  9  5  1  0
  1 10  1  0
  1 11  1  0
  1 12  1  0
  3 13  1  0
  4 14  1  0
  4 15  1  0
  5 16  1  0
  7 17  1  0
  8 18  1  0
  8 19  1  0
  8 20  1  0
  9 21  1  0
M  END
