
     RDKit          3D

 18 19  0  0  0  0  0  0  0  0999 V2000
    2.3395    0.3064   -0.3131 C   0  0  0  0  0  0  0  0  0  0  0  0
    0.9186    0.1277    0.0312 C   0  0  0  0  0  0  0  0  0  0  0  0
    0.1135    0.7548    0.8786 C   0  0  0  0  0  0  0  0  0  0  0  0
   -1.1901    0.1747    0.8149 C   0  0  0  0  0  0  0  0  0  0  0  0
   -1.9977    0.6975   -0.3902 C   0  0  0  0  0  0  0  0  0  0  0  0
   -1.7761   -0.9081    1.2616 O   0  0  0  0  0  0  0  0  0  0  0  0
   -0.6892   -1.2975    0.6752 C   0  0  0  0  0  0  0  0  0  0  0  0
    0.0557   -0.9701   -0.5790 C   0  0  0  0  0  0  0  0  0  0  0  0
    2.7388    1.2056    0.1991 H   0  0  0  0  0  0  0  0  0  0  0  0
    2.5100    0.3865   -1.4142 H   0  0  0  0  0  0  0  0  0  0  0  0
    2.9762   -0.5565    0.0413 H   0  0  0  0  0  0  0  0  0  0  0  0
    0.5289    1.5875    1.4819 H   0  0  0  0  0  0  0  0  0  0  0  0
   -2.8939    1.1875    0.1006 H   0  0  0  0  0  0  0  0  0  0  0  0
   -2.4162   -0.0996   -1.0051 H   0  0  0  0  0  0  0  0  0  0  0  0
   -1.4913    1.4891   -0.9357 H   0  0  0  0  0  0  0  0  0  0  0  0
    0.0853   -1.6063    1.4534 H   0  0  0  0  0  0  0  0  0  0  0  0
   -0.5055   -0.6493   -1.4351 H   0  0  0  0  0  0  0  0  0  0  0  0
    0.6935   -1.8297   -0.8654 H   0  0  0  0  0  0  0  0  0  0  0  0
  1  2  1  0
  2  3  2  0
  3  4  1  0
  4  5  1  0
  4  6  1  0
  6  7  1  0
  7  8  1  0
  8  2  1  0
  7  4  1  0
  1  9  1  0
  1 10  1  0
  1 11  1  0
  3 12  1  0
  5 13  1  0
  5 14  1  0
  5 15  1  0
  7 16  1  0
  8 17  1  0
  8 18  1  0
M  END
