
     RDKit          3D

 17 18  0  0  0  0  0  0  0  0999 V2000
   -2.3038    0.8263   -0.3828 C   0  0  0  0  0  0  0  0  0  0  0  0
   -0.9357    0.2255   -0.3057 C   0  0  0  0  0  0  0  0  0  0  0  0
    0.2155    0.8246   -0.5783 C   0  0  0  0  0  0  0  0  0  0  0  0
    1.3691   -0.0463   -0.4020 C   0  0  0  0  0  0  0  0  0  0  0  0
    2.6485    0.4792    0.1268 C   0  0  0  0  0  0  0  0  0  0  0  0
    2.6505    1.5970    0.5924 O   0  0  0  0  0  0  0  0  0  0  0  0
    1.4424   -1.3208   -0.9135 O   0  0  0  0  0  0  0  0  0  0  0  0
    0.7510   -1.2608    0.2755 C   0  0  0  0  0  0  0  0  0  0  0  0
   -0.7224   -1.1789    0.1067 C   0  0  0  0  0  0  0  0  0  0  0  0
   -3.0412    0.0563   -0.6666 H   0  0  0  0  0  0  0  0  0  0  0  0
   -2.3149    1.7017   -1.0624 H   0  0  0  0  0  0  0  0  0  0  0  0
   -2.5574    1.1489    0.6576 H   0  0  0  0  0  0  0  0  0  0  0  0
    0.2807    1.8569   -0.8989 H   0  0  0  0  0  0  0  0  0  0  0  0
    3.5583   -0.0899    0.1105 H   0  0  0  0  0  0  0  0  0  0  0  0
    1.2233   -1.4928    1.2352 H   0  0  0  0  0  0  0  0  0  0  0  0
   -1.2230   -1.4399    1.0599 H   0  0  0  0  0  0  0  0  0  0  0  0
   -1.0410   -1.8870   -0.7097 H   0  0  0  0  0  0  0  0  0  0  0  0
  1  2  1  0
  2  3  2  0
  3  4  1  0
  4  5  1  0
  5  6  2  0
  4  7  1  0
  7  8  1  0
  8  9  1  0
  9  2  1  0
  8  4  1  0
  1 10  1  0
  1 11  1  0
  1 12  1  0
  3 13  1  0
  5 14  1  0
  8 15  1  0
  9 16  1  0
  9 17  1  0
M  END
