
     RDKit          3D

 18 18  0  0  0  0  0  0  0  0999 V2000
    2.4418   -0.1435   -0.4395 C   0  0  0  0  0  0  0  0  0  0  0  0
    0.9791   -0.0213   -0.2015 C   0  0  0  0  0  0  0  0  0  0  0  0
    0.3813    1.1334    0.0126 C   0  0  0  0  0  0  0  0  0  0  0  0
   -1.0477    1.3266    0.2529 C   0  0  0  0  0  0  0  0  0  0  0  0
   -1.6591    0.0130    0.7588 C   0  0  0  0  0  0  0  0  0  0  0  0
   -1.3112   -1.0289   -0.2923 C   0  0  0  0  0  0  0  0  0  0  0  0
    0.1599   -1.2288   -0.2031 C   0  0  0  0  0  0  0  0  0  0  0  0
    0.6684   -2.3778   -0.1329 O   0  0  0  0  0  0  0  0  0  0  0  0
    2.7003   -0.8740   -1.2128 H   0  0  0  0  0  0  0  0  0  0  0  0
    2.8667   -0.5527    0.5234 H   0  0  0  0  0  0  0  0  0  0  0  0
    2.8783    0.8361   -0.6595 H   0  0  0  0  0  0  0  0  0  0  0  0
    1.0393    2.0137    0.0045 H   0  0  0  0  0  0  0  0  0  0  0  0
   -1.2156    2.0617    1.0568 H   0  0  0  0  0  0  0  0  0  0  0  0
   -1.5934    1.5863   -0.6865 H   0  0  0  0  0  0  0  0  0  0  0  0
   -1.1057   -0.2578    1.6840 H   0  0  0  0  0  0  0  0  0  0  0  0
   -2.7233    0.0987    0.9540 H   0  0  0  0  0  0  0  0  0  0  0  0
   -1.8744   -1.9659   -0.1519 H   0  0  0  0  0  0  0  0  0  0  0  0
   -1.5847   -0.6187   -1.2672 H   0  0  0  0  0  0  0  0  0  0  0  0
  1  2  1  0
  2  3  2  0
  3  4  1  0
  4  5  1  0
  5  6  1  0
  6  7  1  0
  7  8  2  0
  7  2  1  0
  1  9  1  0
  1 10  1  0
  1 11  1  0
  3 12  1  0
  4 13  1  0
  4 14  1  0
  5 15  1  0
  5 16  1  0
  6 17  1  0
  6 18  1  0
M  END
