
     RDKit          3D

 19 19  0  0  0  0  0  0  0  0999 V2000
   -1.8906   -1.2679    0.3353 C   0  0  0  0  0  0  0  0  0  0  0  0
   -0.6961   -0.4544    0.0095 C   0  0  0  0  0  0  0  0  0  0  0  0
    0.3295   -0.8969   -0.7010 C   0  0  0  0  0  0  0  0  0  0  0  0
    1.3344    0.2003   -0.8193 C   0  0  0  0  0  0  0  0  0  0  0  0
    2.4917   -0.1356    0.0829 C   0  0  0  0  0  0  0  0  0  0  0  0
    0.6510    1.3346   -0.4354 O   0  0  0  0  0  0  0  0  0  0  0  0
   -0.3941    0.9473    0.3787 C   0  0  0  0  0  0  0  0  0  0  0  0
   -1.5675    1.8419    0.2361 C   0  0  0  0  0  0  0  0  0  0  0  0
   -2.5617    1.6052    0.9058 O   0  0  0  0  0  0  0  0  0  0  0  0
   -2.8078   -0.6476    0.3179 H   0  0  0  0  0  0  0  0  0  0  0  0
   -1.7646   -1.7868    1.3052 H   0  0  0  0  0  0  0  0  0  0  0  0
   -2.0335   -2.0511   -0.4633 H   0  0  0  0  0  0  0  0  0  0  0  0
    0.4909   -1.8705   -1.1542 H   0  0  0  0  0  0  0  0  0  0  0  0
    1.6230    0.3187   -1.8761 H   0  0  0  0  0  0  0  0  0  0  0  0
    2.5556    0.4996    0.9799 H   0  0  0  0  0  0  0  0  0  0  0  0
    3.4159   -0.0665   -0.5556 H   0  0  0  0  0  0  0  0  0  0  0  0
    2.4204   -1.1896    0.4580 H   0  0  0  0  0  0  0  0  0  0  0  0
   -0.0192    0.9252    1.4316 H   0  0  0  0  0  0  0  0  0  0  0  0
   -1.5775    2.6938   -0.4360 H   0  0  0  0  0  0  0  0  0  0  0  0
  1  2  1  0
  2  3  2  0
  3  4  1  0
  4  5  1  0
  4  6  1  0
  6  7  1  0
  7  8  1  0
  8  9  2  0
  7  2  1  0
  1 10  1  0
  1 11  1  0
  1 12  1  0
  3 13  1  0
  4 14  1  0
  5 15  1  0
  5 16  1  0
  5 17  1  0
  7 18  1  0
  8 19  1  0
M  END
