
     RDKit          3D

 19 19  0  0  0  0  0  0  0  0999 V2000
    2.1760   -1.0239    0.2437 C   0  0  0  0  0  0  0  0  0  0  0  0
    0.8922   -0.3798   -0.1199 C   0  0  0  0  0  0  0  0  0  0  0  0
   -0.1919   -1.1212   -0.2661 C   0  0  0  0  0  0  0  0  0  0  0  0
   -1.5778   -0.6624   -0.6292 C   0  0  0  0  0  0  0  0  0  0  0  0
   -2.1263    0.2579    0.4033 C   0  0  0  0  0  0  0  0  0  0  0  0
   -1.2441    1.1743    0.9589 O   0  0  0  0  0  0  0  0  0  0  0  0
   -0.0940    1.7396    0.4821 C   0  0  0  0  0  0  0  0  0  0  0  0
    0.1260    2.9707    0.6970 O   0  0  0  0  0  0  0  0  0  0  0  0
    0.9789    1.0902   -0.2836 C   0  0  0  0  0  0  0  0  0  0  0  0
    2.4128   -0.6678    1.2899 H   0  0  0  0  0  0  0  0  0  0  0  0
    2.0895   -2.1315    0.2533 H   0  0  0  0  0  0  0  0  0  0  0  0
    3.0000   -0.6607   -0.3851 H   0  0  0  0  0  0  0  0  0  0  0  0
   -0.0451   -2.1936   -0.0995 H   0  0  0  0  0  0  0  0  0  0  0  0
   -2.2269   -1.5134   -0.8119 H   0  0  0  0  0  0  0  0  0  0  0  0
   -1.4327   -0.0531   -1.5695 H   0  0  0  0  0  0  0  0  0  0  0  0
   -2.5458   -0.3632    1.2485 H   0  0  0  0  0  0  0  0  0  0  0  0
   -3.0335    0.7715   -0.0217 H   0  0  0  0  0  0  0  0  0  0  0  0
    1.9819    1.4808   -0.0021 H   0  0  0  0  0  0  0  0  0  0  0  0
    0.8610    1.2853   -1.3881 H   0  0  0  0  0  0  0  0  0  0  0  0
  1  2  1  0
  2  3  2  0
  3  4  1  0
  4  5  1  0
  5  6  1  0
  6  7  1  0
  7  8  2  0
  7  9  1  0
  9  2  1  0
  1 10  1  0
  1 11  1  0
  1 12  1  0
  3 13  1  0
  4 14  1  0
  4 15  1  0
  5 16  1  0
  5 17  1  0
  9 18  1  0
  9 19  1  0
M  END
