
     RDKit          3D

 19 21  0  0  0  0  0  0  0  0999 V2000
    2.4463   -0.3691    0.4429 C   0  0  0  0  0  0  0  0  0  0  0  0
    1.0443   -0.0670    0.0689 C   0  0  0  0  0  0  0  0  0  0  0  0
    0.6287    1.2091   -0.0878 C   0  0  0  0  0  0  0  0  0  0  0  0
   -0.8170    1.3361   -0.4587 C   0  0  0  0  0  0  0  0  0  0  0  0
   -1.6012    0.6113    0.6306 C   0  0  0  0  0  0  0  0  0  0  0  0
   -1.3104   -0.8270    0.3243 C   0  0  0  0  0  0  0  0  0  0  0  0
   -0.9821   -0.7806   -1.1525 C   0  0  0  0  0  0  0  0  0  0  0  0
   -1.0303    0.5278   -1.5503 O   0  0  0  0  0  0  0  0  0  0  0  0
    0.0497   -1.1180   -0.1476 C   0  0  0  0  0  0  0  0  0  0  0  0
    3.0725    0.5447    0.4402 H   0  0  0  0  0  0  0  0  0  0  0  0
    2.9242   -1.0650   -0.2861 H   0  0  0  0  0  0  0  0  0  0  0  0
    2.5180   -0.8938    1.4301 H   0  0  0  0  0  0  0  0  0  0  0  0
    1.2630    2.0562    0.0384 H   0  0  0  0  0  0  0  0  0  0  0  0
   -1.1392    2.3598   -0.6146 H   0  0  0  0  0  0  0  0  0  0  0  0
   -1.3242    0.9279    1.6376 H   0  0  0  0  0  0  0  0  0  0  0  0
   -2.6817    0.8309    0.4004 H   0  0  0  0  0  0  0  0  0  0  0  0
   -1.9761   -1.6034    0.7153 H   0  0  0  0  0  0  0  0  0  0  0  0
   -1.4887   -1.5329   -1.7621 H   0  0  0  0  0  0  0  0  0  0  0  0
    0.4041   -2.1473   -0.0689 H   0  0  0  0  0  0  0  0  0  0  0  0
  1  2  1  0
  2  3  2  0
  3  4  1  0
  4  5  1  0
  5  6  1  0
  6  7  1  0
  7  8  1  0
  7  9  1  0
  9  2  1  0
  8  4  1  0
  9  6  1  0
  1 10  1  0
  1 11  1  0
  1 12  1  0
  3 13  1  0
  4 14  1  0
  5 15  1  0
  5 16  1  0
  6 17  1  0
  7 18  1  0
  9 19  1  0
M  END
