
     RDKit          3D

 19 20  0  0  0  0  0  0  0  0999 V2000
    1.8515   -0.5693    0.9668 C   0  0  0  0  0  0  0  0  0  0  0  0
    0.8336    0.2883    0.3074 C   0  0  0  0  0  0  0  0  0  0  0  0
    0.7075    1.6335    0.3357 C   0  0  0  0  0  0  0  0  0  0  0  0
   -0.4973    1.8008   -0.5449 C   0  0  0  0  0  0  0  0  0  0  0  0
   -1.4469    0.7720   -0.0191 C   0  0  0  0  0  0  0  0  0  0  0  0
   -0.3115   -0.0817   -0.5546 C   0  0  0  0  0  0  0  0  0  0  0  0
   -0.5679   -1.4625   -0.8977 C   0  0  0  0  0  0  0  0  0  0  0  0
   -0.6477   -2.2362    0.2587 O   0  0  0  0  0  0  0  0  0  0  0  0
   -0.1972    0.8705   -1.5672 O   0  0  0  0  0  0  0  0  0  0  0  0
    2.7770   -0.6504    0.3325 H   0  0  0  0  0  0  0  0  0  0  0  0
    1.4491   -1.5878    1.0384 H   0  0  0  0  0  0  0  0  0  0  0  0
    2.1487   -0.1516    1.9540 H   0  0  0  0  0  0  0  0  0  0  0  0
    1.3081    2.3721    0.8492 H   0  0  0  0  0  0  0  0  0  0  0  0
   -0.8135    2.7665   -0.8133 H   0  0  0  0  0  0  0  0  0  0  0  0
   -1.5260    0.8053    1.0812 H   0  0  0  0  0  0  0  0  0  0  0  0
   -2.3829    0.6553   -0.5704 H   0  0  0  0  0  0  0  0  0  0  0  0
   -1.5483   -1.5524   -1.3999 H   0  0  0  0  0  0  0  0  0  0  0  0
    0.2026   -1.8390   -1.5986 H   0  0  0  0  0  0  0  0  0  0  0  0
   -1.3389   -1.8334    0.8418 H   0  0  0  0  0  0  0  0  0  0  0  0
  1  2  1  0
  2  3  2  0
  3  4  1  0
  4  5  1  0
  5  6  1  0
  6  7  1  0
  7  8  1  0
  6  9  1  0
  6  2  1  0
  9  4  1  0
  1 10  1  0
  1 11  1  0
  1 12  1  0
  3 13  1  0
  4 14  1  0
  5 15  1  0
  5 16  1  0
  7 17  1  0
  7 18  1  0
  8 19  1  0
M  END
