
     RDKit          3D

 23 24  0  0  0  0  0  0  0  0999 V2000
    1.9341    1.1771    1.1453 C   0  0  0  0  0  0  0  0  0  0  0  0
    1.0611    0.1658    0.4936 C   0  0  0  0  0  0  0  0  0  0  0  0
    0.6624   -1.0057    1.0169 C   0  0  0  0  0  0  0  0  0  0  0  0
   -0.1669   -1.7259   -0.0182 C   0  0  0  0  0  0  0  0  0  0  0  0
   -1.4608   -1.0074   -0.1679 C   0  0  0  0  0  0  0  0  0  0  0  0
   -1.0472    0.3530   -0.7505 C   0  0  0  0  0  0  0  0  0  0  0  0
   -1.4793    1.4770    0.1544 C   0  0  0  0  0  0  0  0  0  0  0  0
    0.4562    0.2512   -0.8675 C   0  0  0  0  0  0  0  0  0  0  0  0
    0.5805   -1.2311   -1.2711 C   0  0  0  0  0  0  0  0  0  0  0  0
    2.4676    1.7930    0.3972 H   0  0  0  0  0  0  0  0  0  0  0  0
    1.3752    1.8584    1.8163 H   0  0  0  0  0  0  0  0  0  0  0  0
    2.7409    0.6876    1.7549 H   0  0  0  0  0  0  0  0  0  0  0  0
    0.9235   -1.3188    2.0109 H   0  0  0  0  0  0  0  0  0  0  0  0
   -0.1856   -2.7851    0.0861 H   0  0  0  0  0  0  0  0  0  0  0  0
   -2.0015   -0.8793    0.7934 H   0  0  0  0  0  0  0  0  0  0  0  0
   -2.0870   -1.5110   -0.9393 H   0  0  0  0  0  0  0  0  0  0  0  0
   -1.4851    0.5204   -1.7375 H   0  0  0  0  0  0  0  0  0  0  0  0
   -1.1617    2.4164   -0.3026 H   0  0  0  0  0  0  0  0  0  0  0  0
   -2.5869    1.4676    0.1764 H   0  0  0  0  0  0  0  0  0  0  0  0
   -1.1109    1.3658    1.1952 H   0  0  0  0  0  0  0  0  0  0  0  0
    0.9256    0.9256   -1.5465 H   0  0  0  0  0  0  0  0  0  0  0  0
    1.6204   -1.5482   -1.2547 H   0  0  0  0  0  0  0  0  0  0  0  0
    0.0256   -1.4464   -2.1846 H   0  0  0  0  0  0  0  0  0  0  0  0
  1  2  1  0
  2  3  2  0
  3  4  1  0
  4  5  1  0
  5  6  1  0
  6  7  1  0
  6  8  1  0
  8  9  1  0
  8  2  1  0
  9  4  1  0
  1 10  1  0
  1 11  1  0
  1 12  1  0
  3 13  1  0
  4 14  1  0
  5 15  1  0
  5 16  1  0
  6 17  1  0
  7 18  1  0
  7 19  1  0
  7 20  1  0
  8 21  1  0
  9 22  1  0
  9 23  1  0
M  END
