
     RDKit          3D

 21 22  0  0  0  0  0  0  0  0999 V2000
    2.7412   -0.3841   -0.1164 C   0  0  0  0  0  0  0  0  0  0  0  0
    1.3969    0.2427   -0.0683 C   0  0  0  0  0  0  0  0  0  0  0  0
    0.7989    1.1036   -0.8983 C   0  0  0  0  0  0  0  0  0  0  0  0
   -0.4971    1.3292   -0.1726 C   0  0  0  0  0  0  0  0  0  0  0  0
   -0.0268    1.4178    1.1604 O   0  0  0  0  0  0  0  0  0  0  0  0
    0.3328    0.0603    0.9630 C   0  0  0  0  0  0  0  0  0  0  0  0
   -0.9422   -0.0468    0.1866 C   0  0  0  0  0  0  0  0  0  0  0  0
   -2.1612   -0.1320    1.0246 C   0  0  0  0  0  0  0  0  0  0  0  0
   -0.9368   -0.9679   -0.9957 C   0  0  0  0  0  0  0  0  0  0  0  0
    2.7205   -1.4002   -0.5522 H   0  0  0  0  0  0  0  0  0  0  0  0
    3.1773   -0.4977    0.9174 H   0  0  0  0  0  0  0  0  0  0  0  0
    3.4527    0.2125   -0.7272 H   0  0  0  0  0  0  0  0  0  0  0  0
    1.1505    1.5230   -1.8348 H   0  0  0  0  0  0  0  0  0  0  0  0
   -1.1638    2.0651   -0.5222 H   0  0  0  0  0  0  0  0  0  0  0  0
    0.5168   -0.5371    1.8122 H   0  0  0  0  0  0  0  0  0  0  0  0
   -2.7576    0.8189    0.9905 H   0  0  0  0  0  0  0  0  0  0  0  0
   -2.8644   -0.9232    0.6603 H   0  0  0  0  0  0  0  0  0  0  0  0
   -1.9567   -0.3667    2.0770 H   0  0  0  0  0  0  0  0  0  0  0  0
   -1.2616   -1.9750   -0.6497 H   0  0  0  0  0  0  0  0  0  0  0  0
   -1.7191   -0.5685   -1.7052 H   0  0  0  0  0  0  0  0  0  0  0  0
   -0.0002   -0.9738   -1.5494 H   0  0  0  0  0  0  0  0  0  0  0  0
  1  2  1  0
  2  3  2  0
  3  4  1  0
  4  5  1  0
  5  6  1  0
  6  7  1  0
  7  8  1  0
  7  9  1  0
  6  2  1  0
  7  4  1  0
  1 10  1  0
  1 11  1  0
  1 12  1  0
  3 13  1  0
  4 14  1  0
  6 15  1  0
  8 16  1  0
  8 17  1  0
  8 18  1  0
  9 19  1  0
  9 20  1  0
  9 21  1  0
M  END
