
     RDKit          3D

 19 22  0  0  0  0  0  0  0  0999 V2000
    2.5848    0.0745   -0.0907 C   0  0  0  0  0  0  0  0  0  0  0  0
    1.1323   -0.1816   -0.0023 C   0  0  0  0  0  0  0  0  0  0  0  0
    0.5090   -1.2413   -0.4984 C   0  0  0  0  0  0  0  0  0  0  0  0
   -0.9383   -1.1716   -0.2273 C   0  0  0  0  0  0  0  0  0  0  0  0
   -0.9400   -0.3011    1.0018 C   0  0  0  0  0  0  0  0  0  0  0  0
    0.1474    0.7083    0.6527 C   0  0  0  0  0  0  0  0  0  0  0  0
   -0.8775    1.2424   -0.3694 C   0  0  0  0  0  0  0  0  0  0  0  0
   -1.5371    0.0486   -0.9432 C   0  0  0  0  0  0  0  0  0  0  0  0
   -1.9115    0.5777    0.3831 C   0  0  0  0  0  0  0  0  0  0  0  0
    2.7113    1.0399   -0.6611 H   0  0  0  0  0  0  0  0  0  0  0  0
    2.9815    0.2967    0.9376 H   0  0  0  0  0  0  0  0  0  0  0  0
    3.1479   -0.7552   -0.5344 H   0  0  0  0  0  0  0  0  0  0  0  0
    0.9867   -2.0479   -1.0286 H   0  0  0  0  0  0  0  0  0  0  0  0
   -1.5202   -2.0641   -0.2315 H   0  0  0  0  0  0  0  0  0  0  0  0
   -0.9856   -0.7098    1.9637 H   0  0  0  0  0  0  0  0  0  0  0  0
    0.4638    1.3858    1.4117 H   0  0  0  0  0  0  0  0  0  0  0  0
   -0.8230    2.2179   -0.7715 H   0  0  0  0  0  0  0  0  0  0  0  0
   -2.2698   -0.0151   -1.6963 H   0  0  0  0  0  0  0  0  0  0  0  0
   -2.8619    0.8957    0.7041 H   0  0  0  0  0  0  0  0  0  0  0  0
  1  2  1  0
  2  3  2  0
  3  4  1  0
  4  5  1  0
  5  6  1  0
  6  7  1  0
  7  8  1  0
  8  9  1  0
  6  2  1  0
  9  7  1  0
  8  4  1  0
  9  5  1  0
  1 10  1  0
  1 11  1  0
  1 12  1  0
  3 13  1  0
  4 14  1  0
  5 15  1  0
  6 16  1  0
  7 17  1  0
  8 18  1  0
  9 19  1  0
M  END
