
     RDKit          3D

 21 22  0  0  0  0  0  0  0  0999 V2000
    2.7562   -0.5545    0.0937 C   0  0  0  0  0  0  0  0  0  0  0  0
    1.3974    0.0536    0.1157 C   0  0  0  0  0  0  0  0  0  0  0  0
    1.0730    1.1590    0.7726 C   0  0  0  0  0  0  0  0  0  0  0  0
   -0.3773    1.4680    0.5653 C   0  0  0  0  0  0  0  0  0  0  0  0
   -0.7499    0.6453   -0.6377 C   0  0  0  0  0  0  0  0  0  0  0  0
   -2.0773   -0.0555   -0.4854 C   0  0  0  0  0  0  0  0  0  0  0  0
   -1.6935   -1.3198    0.2254 C   0  0  0  0  0  0  0  0  0  0  0  0
   -0.3676   -1.5628    0.0139 O   0  0  0  0  0  0  0  0  0  0  0  0
    0.2214   -0.5049   -0.6016 C   0  0  0  0  0  0  0  0  0  0  0  0
    3.5300    0.1136    0.4941 H   0  0  0  0  0  0  0  0  0  0  0  0
    2.7027   -1.5049    0.6766 H   0  0  0  0  0  0  0  0  0  0  0  0
    2.9919   -0.8369   -0.9727 H   0  0  0  0  0  0  0  0  0  0  0  0
    1.7384    1.7763    1.3829 H   0  0  0  0  0  0  0  0  0  0  0  0
   -0.9685    1.0916    1.4199 H   0  0  0  0  0  0  0  0  0  0  0  0
   -0.4853    2.5565    0.3985 H   0  0  0  0  0  0  0  0  0  0  0  0
   -0.6733    1.2496   -1.5551 H   0  0  0  0  0  0  0  0  0  0  0  0
   -2.4954   -0.2757   -1.4929 H   0  0  0  0  0  0  0  0  0  0  0  0
   -2.7865    0.5535    0.0682 H   0  0  0  0  0  0  0  0  0  0  0  0
   -2.3663   -2.1323   -0.1344 H   0  0  0  0  0  0  0  0  0  0  0  0
   -1.8445   -1.1699    1.3247 H   0  0  0  0  0  0  0  0  0  0  0  0
    0.4743   -0.7497   -1.6718 H   0  0  0  0  0  0  0  0  0  0  0  0
  1  2  1  0
  2  3  2  0
  3  4  1  0
  4  5  1  0
  5  6  1  0
  6  7  1  0
  7  8  1  0
  8  9  1  0
  9  2  1  0
  9  5  1  0
  1 10  1  0
  1 11  1  0
  1 12  1  0
  3 13  1  0
  4 14  1  0
  4 15  1  0
  5 16  1  0
  6 17  1  0
  6 18  1  0
  7 19  1  0
  7 20  1  0
  9 21  1  0
M  END
