
     RDKit          3D

 16 16  0  0  0  0  0  0  0  0999 V2000
    2.2680   -0.2254    0.2307 C   0  0  0  0  0  0  0  0  0  0  0  0
    0.8061   -0.0293    0.0079 C   0  0  0  0  0  0  0  0  0  0  0  0
   -0.0017   -0.9723   -0.3828 C   0  0  0  0  0  0  0  0  0  0  0  0
   -1.3846   -0.4572   -0.5096 C   0  0  0  0  0  0  0  0  0  0  0  0
   -2.2064   -1.1755    0.3679 O   0  0  0  0  0  0  0  0  0  0  0  0
   -1.3080    0.9981   -0.1824 C   0  0  0  0  0  0  0  0  0  0  0  0
    0.1101    1.2268    0.1980 C   0  0  0  0  0  0  0  0  0  0  0  0
    0.6298    2.2972    0.6090 O   0  0  0  0  0  0  0  0  0  0  0  0
    2.7000    0.6173    0.8235 H   0  0  0  0  0  0  0  0  0  0  0  0
    2.7371   -0.2772   -0.7803 H   0  0  0  0  0  0  0  0  0  0  0  0
    2.4516   -1.1569    0.7842 H   0  0  0  0  0  0  0  0  0  0  0  0
    0.2700   -1.9929   -0.5920 H   0  0  0  0  0  0  0  0  0  0  0  0
   -1.7208   -0.6588   -1.5462 H   0  0  0  0  0  0  0  0  0  0  0  0
   -1.8617   -1.0834    1.2842 H   0  0  0  0  0  0  0  0  0  0  0  0
   -1.5682    1.6665   -1.0302 H   0  0  0  0  0  0  0  0  0  0  0  0
   -1.9214    1.2231    0.7180 H   0  0  0  0  0  0  0  0  0  0  0  0
  1  2  1  0
  2  3  2  0
  3  4  1  0
  4  5  1  0
  4  6  1  0
  6  7  1  0
  7  8  2  0
  7  2  1  0
  1  9  1  0
  1 10  1  0
  1 11  1  0
  3 12  1  0
  4 13  1  0
  5 14  1  0
  6 15  1  0
  6 16  1  0
M  END
