
     RDKit          3D

 19 20  0  0  0  0  0  0  0  0999 V2000
    1.8448   -1.2692    0.5809 C   0  0  0  0  0  0  0  0  0  0  0  0
    0.7719   -0.2450    0.6434 C   0  0  0  0  0  0  0  0  0  0  0  0
    0.6804    0.8868    1.3431 C   0  0  0  0  0  0  0  0  0  0  0  0
   -0.6629    1.3822    0.9057 C   0  0  0  0  0  0  0  0  0  0  0  0
   -1.4009    0.2018    0.9330 O   0  0  0  0  0  0  0  0  0  0  0  0
   -0.5374   -0.2229   -0.0965 C   0  0  0  0  0  0  0  0  0  0  0  0
   -0.9034   -1.3172   -0.9413 C   0  0  0  0  0  0  0  0  0  0  0  0
   -0.5770    1.1988   -0.5866 C   0  0  0  0  0  0  0  0  0  0  0  0
   -1.7215    1.5262   -1.2986 O   0  0  0  0  0  0  0  0  0  0  0  0
    2.4881   -1.1559    1.4804 H   0  0  0  0  0  0  0  0  0  0  0  0
    1.3372   -2.2603    0.5764 H   0  0  0  0  0  0  0  0  0  0  0  0
    2.5055   -1.1525   -0.3024 H   0  0  0  0  0  0  0  0  0  0  0  0
    1.3521    1.3618    2.0420 H   0  0  0  0  0  0  0  0  0  0  0  0
   -1.0521    2.2690    1.3190 H   0  0  0  0  0  0  0  0  0  0  0  0
   -0.4178   -2.2633   -0.6392 H   0  0  0  0  0  0  0  0  0  0  0  0
   -0.6272   -1.1187   -2.0106 H   0  0  0  0  0  0  0  0  0  0  0  0
   -2.0107   -1.4958   -0.9301 H   0  0  0  0  0  0  0  0  0  0  0  0
    0.3750    1.5656   -0.9761 H   0  0  0  0  0  0  0  0  0  0  0  0
   -1.4440    2.1086   -2.0426 H   0  0  0  0  0  0  0  0  0  0  0  0
  1  2  1  0
  2  3  2  0
  3  4  1  0
  4  5  1  0
  5  6  1  0
  6  7  1  0
  6  8  1  0
  8  9  1  0
  6  2  1  0
  8  4  1  0
  1 10  1  0
  1 11  1  0
  1 12  1  0
  3 13  1  0
  4 14  1  0
  7 15  1  0
  7 16  1  0
  7 17  1  0
  8 18  1  0
  9 19  1  0
M  END
