
     RDKit          3D

 20 21  0  0  0  0  0  0  0  0999 V2000
   -2.5382   -1.0076   -0.5403 C   0  0  0  0  0  0  0  0  0  0  0  0
   -1.2106   -0.4111   -0.1194 C   0  0  0  0  0  0  0  0  0  0  0  0
   -0.0963   -0.5834   -0.8088 C   0  0  0  0  0  0  0  0  0  0  0  0
    1.0371    0.1154   -0.1555 C   0  0  0  0  0  0  0  0  0  0  0  0
    2.3949   -0.5083   -0.3101 C   0  0  0  0  0  0  0  0  0  0  0  0
    0.9481    1.6100   -0.0500 C   0  0  0  0  0  0  0  0  0  0  0  0
    0.5140    0.6490    1.0796 C   0  0  0  0  0  0  0  0  0  0  0  0
   -0.9770    0.4237    1.0845 C   0  0  0  0  0  0  0  0  0  0  0  0
   -3.3355   -0.3793   -0.0720 H   0  0  0  0  0  0  0  0  0  0  0  0
   -2.6004   -2.0579   -0.2515 H   0  0  0  0  0  0  0  0  0  0  0  0
   -2.6826   -0.9138   -1.6300 H   0  0  0  0  0  0  0  0  0  0  0  0
   -0.0410   -1.1768   -1.7494 H   0  0  0  0  0  0  0  0  0  0  0  0
    2.5611   -1.3414    0.4209 H   0  0  0  0  0  0  0  0  0  0  0  0
    3.2046    0.2213   -0.2848 H   0  0  0  0  0  0  0  0  0  0  0  0
    2.4148   -0.9985   -1.3114 H   0  0  0  0  0  0  0  0  0  0  0  0
    1.8733    2.1707    0.1941 H   0  0  0  0  0  0  0  0  0  0  0  0
    0.1886    2.1849   -0.5740 H   0  0  0  0  0  0  0  0  0  0  0  0
    1.0578    0.7112    2.0350 H   0  0  0  0  0  0  0  0  0  0  0  0
   -1.2495   -0.1226    2.0205 H   0  0  0  0  0  0  0  0  0  0  0  0
   -1.4632    1.4145    1.0223 H   0  0  0  0  0  0  0  0  0  0  0  0
  1  2  1  0
  2  3  2  0
  3  4  1  0
  4  5  1  0
  4  6  1  0
  6  7  1  0
  7  8  1  0
  8  2  1  0
  7  4  1  0
  1  9  1  0
  1 10  1  0
  1 11  1  0
  3 12  1  0
  5 13  1  0
  5 14  1  0
  5 15  1  0
  6 16  1  0
  6 17  1  0
  7 18  1  0
  8 19  1  0
  8 20  1  0
M  END
