
     RDKit          3D

 21 23  0  0  0  0  0  0  0  0999 V2000
    2.5718   -0.2522   -0.0385 C   0  0  0  0  0  0  0  0  0  0  0  0
    1.1289    0.1107   -0.1554 C   0  0  0  0  0  0  0  0  0  0  0  0
    0.6809    1.1911    0.4457 C   0  0  0  0  0  0  0  0  0  0  0  0
   -0.7256    1.6324    0.3895 C   0  0  0  0  0  0  0  0  0  0  0  0
   -1.6090    0.4530    0.1353 C   0  0  0  0  0  0  0  0  0  0  0  0
   -1.3263   -0.7735    0.9848 C   0  0  0  0  0  0  0  0  0  0  0  0
   -0.8726   -1.4703   -0.2847 C   0  0  0  0  0  0  0  0  0  0  0  0
    0.2522   -0.7912   -0.9654 C   0  0  0  0  0  0  0  0  0  0  0  0
   -1.1004   -0.2688   -1.0637 C   0  0  0  0  0  0  0  0  0  0  0  0
    3.1064   -0.0062   -0.9810 H   0  0  0  0  0  0  0  0  0  0  0  0
    2.6927   -1.3397    0.1117 H   0  0  0  0  0  0  0  0  0  0  0  0
    3.0575    0.3497    0.7502 H   0  0  0  0  0  0  0  0  0  0  0  0
    1.3760    1.7986    1.0171 H   0  0  0  0  0  0  0  0  0  0  0  0
   -0.8151    2.3072   -0.5027 H   0  0  0  0  0  0  0  0  0  0  0  0
   -1.0105    2.2307    1.2605 H   0  0  0  0  0  0  0  0  0  0  0  0
   -2.6952    0.6459    0.1376 H   0  0  0  0  0  0  0  0  0  0  0  0
   -2.1735   -1.2089    1.5036 H   0  0  0  0  0  0  0  0  0  0  0  0
   -0.4281   -0.6509    1.6489 H   0  0  0  0  0  0  0  0  0  0  0  0
   -1.2108   -2.4745   -0.5203 H   0  0  0  0  0  0  0  0  0  0  0  0
    0.6931   -1.2707   -1.8363 H   0  0  0  0  0  0  0  0  0  0  0  0
   -1.5924   -0.2122   -2.0369 H   0  0  0  0  0  0  0  0  0  0  0  0
  1  2  1  0
  2  3  2  0
  3  4  1  0
  4  5  1  0
  5  6  1  0
  6  7  1  0
  7  8  1  0
  8  9  1  0
  8  2  1  0
  9  5  1  0
  9  7  1  0
  1 10  1  0
  1 11  1  0
  1 12  1  0
  3 13  1  0
  4 14  1  0
  4 15  1  0
  5 16  1  0
  6 17  1  0
  6 18  1  0
  7 19  1  0
  8 20  1  0
  9 21  1  0
M  END
