
     RDKit          3D

 19 19  0  0  0  0  0  0  0  0999 V2000
    2.2769   -0.5542   -0.0048 C   0  0  0  0  0  0  0  0  0  0  0  0
    0.8379   -0.2680    0.1256 C   0  0  0  0  0  0  0  0  0  0  0  0
   -0.0856   -1.1672    0.4451 C   0  0  0  0  0  0  0  0  0  0  0  0
   -1.5244   -0.7182    0.5399 C   0  0  0  0  0  0  0  0  0  0  0  0
   -1.8070   -0.0202   -0.7739 C   0  0  0  0  0  0  0  0  0  0  0  0
   -0.8801    1.1296   -0.9062 C   0  0  0  0  0  0  0  0  0  0  0  0
   -1.1585    2.0536   -1.6547 O   0  0  0  0  0  0  0  0  0  0  0  0
    0.3773    1.1266   -0.1151 C   0  0  0  0  0  0  0  0  0  0  0  0
    0.2071    1.7384    1.1290 O   0  0  0  0  0  0  0  0  0  0  0  0
    2.8638   -0.2952    0.9095 H   0  0  0  0  0  0  0  0  0  0  0  0
    2.7103    0.0146   -0.8654 H   0  0  0  0  0  0  0  0  0  0  0  0
    2.4985   -1.6242   -0.2058 H   0  0  0  0  0  0  0  0  0  0  0  0
    0.2294   -2.1716    0.6216 H   0  0  0  0  0  0  0  0  0  0  0  0
   -2.1791   -1.6117    0.6631 H   0  0  0  0  0  0  0  0  0  0  0  0
   -1.6739   -0.0255    1.3823 H   0  0  0  0  0  0  0  0  0  0  0  0
   -2.8658    0.2739   -0.8695 H   0  0  0  0  0  0  0  0  0  0  0  0
   -1.5009   -0.7510   -1.5751 H   0  0  0  0  0  0  0  0  0  0  0  0
    1.1253    1.7010   -0.7129 H   0  0  0  0  0  0  0  0  0  0  0  0
    0.5490    1.1695    1.8673 H   0  0  0  0  0  0  0  0  0  0  0  0
  1  2  1  0
  2  3  2  0
  3  4  1  0
  4  5  1  0
  5  6  1  0
  6  7  2  0
  6  8  1  0
  8  9  1  0
  8  2  1  0
  1 10  1  0
  1 11  1  0
  1 12  1  0
  3 13  1  0
  4 14  1  0
  4 15  1  0
  5 16  1  0
  5 17  1  0
  8 18  1  0
  9 19  1  0
M  END
