
     RDKit          3D

 23 23  0  0  0  0  0  0  0  0999 V2000
    2.8309   -0.2281    0.3396 C   0  0  0  0  0  0  0  0  0  0  0  0
    1.3845   -0.3417   -0.0155 C   0  0  0  0  0  0  0  0  0  0  0  0
    0.8319   -1.5309    0.0649 C   0  0  0  0  0  0  0  0  0  0  0  0
   -0.6110   -1.7479   -0.2697 C   0  0  0  0  0  0  0  0  0  0  0  0
   -1.3414   -0.4842    0.1031 C   0  0  0  0  0  0  0  0  0  0  0  0
   -2.6772   -0.6107   -0.2622 O   0  0  0  0  0  0  0  0  0  0  0  0
   -0.7938    0.7379   -0.5610 C   0  0  0  0  0  0  0  0  0  0  0  0
   -1.4307    1.9467    0.1377 C   0  0  0  0  0  0  0  0  0  0  0  0
    0.6890    0.8968   -0.4299 C   0  0  0  0  0  0  0  0  0  0  0  0
    3.1081    0.8023    0.6504 H   0  0  0  0  0  0  0  0  0  0  0  0
    3.4295   -0.5103   -0.5616 H   0  0  0  0  0  0  0  0  0  0  0  0
    3.0893   -0.8931    1.2061 H   0  0  0  0  0  0  0  0  0  0  0  0
    1.4133   -2.3978    0.3796 H   0  0  0  0  0  0  0  0  0  0  0  0
   -0.7721   -2.0231   -1.3113 H   0  0  0  0  0  0  0  0  0  0  0  0
   -1.0465   -2.5604    0.3793 H   0  0  0  0  0  0  0  0  0  0  0  0
   -1.2965   -0.3297    1.2011 H   0  0  0  0  0  0  0  0  0  0  0  0
   -3.1996   -1.0298    0.4858 H   0  0  0  0  0  0  0  0  0  0  0  0
   -1.1348    0.7909   -1.6286 H   0  0  0  0  0  0  0  0  0  0  0  0
   -0.9056    2.8594   -0.1529 H   0  0  0  0  0  0  0  0  0  0  0  0
   -1.1942    1.7893    1.2308 H   0  0  0  0  0  0  0  0  0  0  0  0
   -2.5200    1.9639   -0.0203 H   0  0  0  0  0  0  0  0  0  0  0  0
    0.9849    1.6942    0.2887 H   0  0  0  0  0  0  0  0  0  0  0  0
    1.1622    1.2063   -1.4068 H   0  0  0  0  0  0  0  0  0  0  0  0
  1  2  1  0
  2  3  2  0
  3  4  1  0
  4  5  1  0
  5  6  1  0
  5  7  1  0
  7  8  1  0
  7  9  1  0
  9  2  1  0
  1 10  1  0
  1 11  1  0
  1 12  1  0
  3 13  1  0
  4 14  1  0
  4 15  1  0
  5 16  1  0
  6 17  1  0
  7 18  1  0
  8 19  1  0
  8 20  1  0
  8 21  1  0
  9 22  1  0
  9 23  1  0
M  END
