
     RDKit          3D

 19 19  0  0  0  0  0  0  0  0999 V2000
   -2.4244   -0.0424    0.3677 C   0  0  0  0  0  0  0  0  0  0  0  0
   -0.9571    0.1381    0.1115 C   0  0  0  0  0  0  0  0  0  0  0  0
   -0.5184    1.3593    0.3791 C   0  0  0  0  0  0  0  0  0  0  0  0
    0.8447    1.8442    0.2346 C   0  0  0  0  0  0  0  0  0  0  0  0
    0.9901    3.0266    0.6276 O   0  0  0  0  0  0  0  0  0  0  0  0
    1.9305    1.1690   -0.2639 O   0  0  0  0  0  0  0  0  0  0  0  0
    2.0557   -0.1544   -0.6753 C   0  0  0  0  0  0  0  0  0  0  0  0
    1.1809   -1.1112    0.0838 C   0  0  0  0  0  0  0  0  0  0  0  0
   -0.2694   -1.0622   -0.3876 C   0  0  0  0  0  0  0  0  0  0  0  0
   -2.4734   -0.7773    1.2232 H   0  0  0  0  0  0  0  0  0  0  0  0
   -2.9525   -0.4518   -0.5036 H   0  0  0  0  0  0  0  0  0  0  0  0
   -2.8775    0.8905    0.7628 H   0  0  0  0  0  0  0  0  0  0  0  0
   -1.2589    2.0517    0.7395 H   0  0  0  0  0  0  0  0  0  0  0  0
    3.1141   -0.4649   -0.4866 H   0  0  0  0  0  0  0  0  0  0  0  0
    1.7972   -0.2308   -1.7573 H   0  0  0  0  0  0  0  0  0  0  0  0
    1.5386   -2.1396   -0.1414 H   0  0  0  0  0  0  0  0  0  0  0  0
    1.2667   -0.9843    1.1767 H   0  0  0  0  0  0  0  0  0  0  0  0
   -0.2262   -1.1053   -1.4994 H   0  0  0  0  0  0  0  0  0  0  0  0
   -0.7608   -1.9552    0.0086 H   0  0  0  0  0  0  0  0  0  0  0  0
  1  2  1  0
  2  3  2  0
  3  4  1  0
  4  5  2  0
  4  6  1  0
  6  7  1  0
  7  8  1  0
  8  9  1  0
  9  2  1  0
  1 10  1  0
  1 11  1  0
  1 12  1  0
  3 13  1  0
  7 14  1  0
  7 15  1  0
  8 16  1  0
  8 17  1  0
  9 18  1  0
  9 19  1  0
M  END
