
     RDKit          3D

 23 23  0  0  0  0  0  0  0  0999 V2000
    1.2344    2.2305   -0.2653 C   0  0  0  0  0  0  0  0  0  0  0  0
    0.5070    0.9066   -0.2820 C   0  0  0  0  0  0  0  0  0  0  0  0
   -0.7956    0.8632   -0.1739 C   0  0  0  0  0  0  0  0  0  0  0  0
   -1.3226   -0.5212   -0.2107 C   0  0  0  0  0  0  0  0  0  0  0  0
   -2.3910   -0.6527    0.8204 C   0  0  0  0  0  0  0  0  0  0  0  0
   -1.8336   -0.8429   -1.4605 O   0  0  0  0  0  0  0  0  0  0  0  0
   -0.0736   -1.3099    0.1151 C   0  0  0  0  0  0  0  0  0  0  0  0
    1.0477   -0.4386   -0.4118 C   0  0  0  0  0  0  0  0  0  0  0  0
    2.3067   -0.6890    0.3711 C   0  0  0  0  0  0  0  0  0  0  0  0
    1.1150    2.6859   -1.2507 H   0  0  0  0  0  0  0  0  0  0  0  0
    0.7540    2.8964    0.4859 H   0  0  0  0  0  0  0  0  0  0  0  0
    2.2913    2.0905    0.0225 H   0  0  0  0  0  0  0  0  0  0  0  0
   -1.4858    1.7252   -0.0645 H   0  0  0  0  0  0  0  0  0  0  0  0
   -2.1353    0.0067    1.6911 H   0  0  0  0  0  0  0  0  0  0  0  0
   -3.3512   -0.3014    0.3661 H   0  0  0  0  0  0  0  0  0  0  0  0
   -2.5466   -1.6885    1.1798 H   0  0  0  0  0  0  0  0  0  0  0  0
   -2.4000   -0.1029   -1.7876 H   0  0  0  0  0  0  0  0  0  0  0  0
    0.0230   -1.5137    1.1910 H   0  0  0  0  0  0  0  0  0  0  0  0
   -0.0821   -2.2322   -0.5097 H   0  0  0  0  0  0  0  0  0  0  0  0
    1.2490   -0.6300   -1.4840 H   0  0  0  0  0  0  0  0  0  0  0  0
    2.4293   -1.8076    0.4370 H   0  0  0  0  0  0  0  0  0  0  0  0
    2.2562   -0.3345    1.4055 H   0  0  0  0  0  0  0  0  0  0  0  0
    3.2037   -0.3400   -0.1848 H   0  0  0  0  0  0  0  0  0  0  0  0
  1  2  1  0
  2  3  2  0
  3  4  1  0
  4  5  1  0
  4  6  1  0
  4  7  1  0
  7  8  1  0
  8  9  1  0
  8  2  1  0
  1 10  1  0
  1 11  1  0
  1 12  1  0
  3 13  1  0
  5 14  1  0
  5 15  1  0
  5 16  1  0
  6 17  1  0
  7 18  1  0
  7 19  1  0
  8 20  1  0
  9 21  1  0
  9 22  1  0
  9 23  1  0
M  END
