
     RDKit          3D

 17 18  0  0  0  0  0  0  0  0999 V2000
    2.6285   -0.0784    0.1323 C   0  0  0  0  0  0  0  0  0  0  0  0
    1.1567    0.1732   -0.0353 C   0  0  0  0  0  0  0  0  0  0  0  0
    0.2422   -0.5270    0.6135 C   0  0  0  0  0  0  0  0  0  0  0  0
   -1.0890   -0.0283    0.2236 C   0  0  0  0  0  0  0  0  0  0  0  0
   -2.2896   -0.9327    0.3632 C   0  0  0  0  0  0  0  0  0  0  0  0
   -1.4031    1.3217    0.5185 O   0  0  0  0  0  0  0  0  0  0  0  0
   -0.9100    0.9635   -0.7733 C   0  0  0  0  0  0  0  0  0  0  0  0
    0.5468    1.1675   -0.8885 C   0  0  0  0  0  0  0  0  0  0  0  0
    1.1164    2.0182   -1.5772 O   0  0  0  0  0  0  0  0  0  0  0  0
    2.9444    0.3391    1.1199 H   0  0  0  0  0  0  0  0  0  0  0  0
    2.8431   -1.1489    0.0495 H   0  0  0  0  0  0  0  0  0  0  0  0
    3.1954    0.4494   -0.6624 H   0  0  0  0  0  0  0  0  0  0  0  0
    0.4029   -1.3425    1.3246 H   0  0  0  0  0  0  0  0  0  0  0  0
   -2.9557   -0.6031    1.2097 H   0  0  0  0  0  0  0  0  0  0  0  0
   -1.9359   -1.9745    0.5612 H   0  0  0  0  0  0  0  0  0  0  0  0
   -2.9270   -0.9506   -0.5441 H   0  0  0  0  0  0  0  0  0  0  0  0
   -1.5659    1.1534   -1.6353 H   0  0  0  0  0  0  0  0  0  0  0  0
  1  2  1  0
  2  3  2  0
  3  4  1  0
  4  5  1  0
  4  6  1  0
  6  7  1  0
  7  8  1  0
  8  9  2  0
  8  2  1  0
  7  4  1  0
  1 10  1  0
  1 11  1  0
  1 12  1  0
  3 13  1  0
  5 14  1  0
  5 15  1  0
  5 16  1  0
  7 17  1  0
M  END
