
     RDKit          3D

 23 24  0  0  0  0  0  0  0  0999 V2000
    2.5042   -0.8356    0.0933 C   0  0  0  0  0  0  0  0  0  0  0  0
    1.1640   -0.1964    0.2698 C   0  0  0  0  0  0  0  0  0  0  0  0
    0.2406   -0.7638    1.0479 C   0  0  0  0  0  0  0  0  0  0  0  0
   -1.1876   -0.4393    0.6788 C   0  0  0  0  0  0  0  0  0  0  0  0
   -1.6196   -1.5133   -0.2948 C   0  0  0  0  0  0  0  0  0  0  0  0
   -1.2467    0.9081    0.0402 C   0  0  0  0  0  0  0  0  0  0  0  0
   -0.4586    0.8843   -1.2625 C   0  0  0  0  0  0  0  0  0  0  0  0
    0.7846    1.0768   -0.3916 C   0  0  0  0  0  0  0  0  0  0  0  0
   -0.1467    1.8443    0.5542 C   0  0  0  0  0  0  0  0  0  0  0  0
    2.3865   -1.7486   -0.5536 H   0  0  0  0  0  0  0  0  0  0  0  0
    2.8539   -1.2120    1.0744 H   0  0  0  0  0  0  0  0  0  0  0  0
    3.1907   -0.1591   -0.4095 H   0  0  0  0  0  0  0  0  0  0  0  0
    0.4811   -1.4096    1.8832 H   0  0  0  0  0  0  0  0  0  0  0  0
   -1.7945   -0.5136    1.5816 H   0  0  0  0  0  0  0  0  0  0  0  0
   -0.7340   -1.8371   -0.8749 H   0  0  0  0  0  0  0  0  0  0  0  0
   -2.3973   -1.1048   -0.9590 H   0  0  0  0  0  0  0  0  0  0  0  0
   -2.0053   -2.3843    0.2768 H   0  0  0  0  0  0  0  0  0  0  0  0
   -2.2412    1.3519   -0.0138 H   0  0  0  0  0  0  0  0  0  0  0  0
   -0.4922   -0.0463   -1.8236 H   0  0  0  0  0  0  0  0  0  0  0  0
   -0.6154    1.8249   -1.8350 H   0  0  0  0  0  0  0  0  0  0  0  0
    1.5816    1.6636   -0.8378 H   0  0  0  0  0  0  0  0  0  0  0  0
   -0.3343    2.8556    0.1461 H   0  0  0  0  0  0  0  0  0  0  0  0
    0.0862    1.7546    1.6099 H   0  0  0  0  0  0  0  0  0  0  0  0
  1  2  1  0
  2  3  2  0
  3  4  1  0
  4  5  1  0
  4  6  1  0
  6  7  1  0
  7  8  1  0
  8  9  1  0
  8  2  1  0
  9  6  1  0
  1 10  1  0
  1 11  1  0
  1 12  1  0
  3 13  1  0
  4 14  1  0
  5 15  1  0
  5 16  1  0
  5 17  1  0
  6 18  1  0
  7 19  1  0
  7 20  1  0
  8 21  1  0
  9 22  1  0
  9 23  1  0
M  END
