
     RDKit          3D

 21 22  0  0  0  0  0  0  0  0999 V2000
   -2.4758   -0.8663    0.1541 C   0  0  0  0  0  0  0  0  0  0  0  0
   -1.0232   -0.6325    0.0466 C   0  0  0  0  0  0  0  0  0  0  0  0
   -0.2425    0.3890    0.3801 C   0  0  0  0  0  0  0  0  0  0  0  0
   -0.5021    1.7023    1.0060 C   0  0  0  0  0  0  0  0  0  0  0  0
    1.0945   -0.1062   -0.0493 C   0  0  0  0  0  0  0  0  0  0  0  0
    2.2755    0.6792    0.1824 C   0  0  0  0  0  0  0  0  0  0  0  0
    0.7795   -0.6328   -1.4287 C   0  0  0  0  0  0  0  0  0  0  0  0
    0.0062   -1.5838   -0.5174 C   0  0  0  0  0  0  0  0  0  0  0  0
    1.0709   -1.4602    0.3633 O   0  0  0  0  0  0  0  0  0  0  0  0
   -2.7713   -1.4003    1.0809 H   0  0  0  0  0  0  0  0  0  0  0  0
   -3.0591    0.0623    0.1179 H   0  0  0  0  0  0  0  0  0  0  0  0
   -2.7507   -1.5541   -0.6949 H   0  0  0  0  0  0  0  0  0  0  0  0
   -1.5634    2.0244    0.8543 H   0  0  0  0  0  0  0  0  0  0  0  0
   -0.2075    1.7332    2.0788 H   0  0  0  0  0  0  0  0  0  0  0  0
    0.1088    2.5201    0.5213 H   0  0  0  0  0  0  0  0  0  0  0  0
    3.1670    0.0493    0.3665 H   0  0  0  0  0  0  0  0  0  0  0  0
    2.5071    1.3421   -0.6767 H   0  0  0  0  0  0  0  0  0  0  0  0
    2.1606    1.3430    1.0610 H   0  0  0  0  0  0  0  0  0  0  0  0
    0.0895   -0.0216   -2.0311 H   0  0  0  0  0  0  0  0  0  0  0  0
    1.6406   -1.0719   -1.9295 H   0  0  0  0  0  0  0  0  0  0  0  0
   -0.3044   -2.5150   -0.8856 H   0  0  0  0  0  0  0  0  0  0  0  0
  1  2  1  0
  2  3  2  0
  3  4  1  0
  3  5  1  0
  5  6  1  0
  5  7  1  0
  7  8  1  0
  8  9  1  0
  8  2  1  0
  9  5  1  0
  1 10  1  0
  1 11  1  0
  1 12  1  0
  4 13  1  0
  4 14  1  0
  4 15  1  0
  6 16  1  0
  6 17  1  0
  6 18  1  0
  7 19  1  0
  7 20  1  0
  8 21  1  0
M  END
