
     RDKit          3D

 17 18  0  0  0  0  0  0  0  0999 V2000
    2.1202   -0.6596    0.2680 C   0  0  0  0  0  0  0  0  0  0  0  0
    0.6900   -0.4197   -0.0353 C   0  0  0  0  0  0  0  0  0  0  0  0
   -0.2576   -1.3405   -0.0247 C   0  0  0  0  0  0  0  0  0  0  0  0
   -1.5487   -0.6431   -0.3875 C   0  0  0  0  0  0  0  0  0  0  0  0
   -1.2351    0.5890    0.4052 C   0  0  0  0  0  0  0  0  0  0  0  0
   -0.6866    1.8455    0.1424 C   0  0  0  0  0  0  0  0  0  0  0  0
    0.0885    0.8331   -0.4276 C   0  0  0  0  0  0  0  0  0  0  0  0
    2.2362   -1.1029    1.2776 H   0  0  0  0  0  0  0  0  0  0  0  0
    2.5844   -1.3907   -0.4357 H   0  0  0  0  0  0  0  0  0  0  0  0
    2.7311    0.2601    0.1910 H   0  0  0  0  0  0  0  0  0  0  0  0
   -0.1641   -2.3720    0.1911 H   0  0  0  0  0  0  0  0  0  0  0  0
   -1.4874   -0.4548   -1.4790 H   0  0  0  0  0  0  0  0  0  0  0  0
   -2.4254   -1.1904   -0.0685 H   0  0  0  0  0  0  0  0  0  0  0  0
   -1.0729    0.2461    1.4775 H   0  0  0  0  0  0  0  0  0  0  0  0
   -0.2261    2.4651    0.9612 H   0  0  0  0  0  0  0  0  0  0  0  0
   -1.2982    2.5523   -0.4917 H   0  0  0  0  0  0  0  0  0  0  0  0
   -0.0482    0.7825   -1.5642 H   0  0  0  0  0  0  0  0  0  0  0  0
  1  2  1  0
  2  3  2  0
  3  4  1  0
  4  5  1  0
  5  6  1  0
  6  7  1  0
  7  2  1  0
  7  5  1  0
  1  8  1  0
  1  9  1  0
  1 10  1  0
  3 11  1  0
  4 12  1  0
  4 13  1  0
  5 14  1  0
  6 15  1  0
  6 16  1  0
  7 17  1  0
M  END
