
     RDKit          3D

 21 21  0  0  0  0  0  0  0  0999 V2000
    2.9139   -0.3065    0.1253 C   0  0  0  0  0  0  0  0  0  0  0  0
    1.4554   -0.1005    0.1000 C   0  0  0  0  0  0  0  0  0  0  0  0
    1.0972    1.1702   -0.1067 C   0  0  0  0  0  0  0  0  0  0  0  0
   -0.2162    1.8489   -0.2105 C   0  0  0  0  0  0  0  0  0  0  0  0
   -1.4801    1.4925   -0.0616 C   0  0  0  0  0  0  0  0  0  0  0  0
   -2.2432    0.2802    0.2742 C   0  0  0  0  0  0  0  0  0  0  0  0
   -1.8118   -0.9382   -0.4897 C   0  0  0  0  0  0  0  0  0  0  0  0
   -0.6298   -1.6131    0.0619 C   0  0  0  0  0  0  0  0  0  0  0  0
    0.6575   -1.3093    0.3034 C   0  0  0  0  0  0  0  0  0  0  0  0
    3.2346   -0.3207    1.1875 H   0  0  0  0  0  0  0  0  0  0  0  0
    3.3886    0.6016   -0.3230 H   0  0  0  0  0  0  0  0  0  0  0  0
    3.2314   -1.2093   -0.4365 H   0  0  0  0  0  0  0  0  0  0  0  0
    1.9467    1.7999   -0.2153 H   0  0  0  0  0  0  0  0  0  0  0  0
   -0.0409    2.8850   -0.4744 H   0  0  0  0  0  0  0  0  0  0  0  0
   -2.1262    2.3348   -0.2379 H   0  0  0  0  0  0  0  0  0  0  0  0
   -3.3241    0.4328    0.0588 H   0  0  0  0  0  0  0  0  0  0  0  0
   -2.1554    0.0373    1.3719 H   0  0  0  0  0  0  0  0  0  0  0  0
   -2.6619   -1.6592   -0.4599 H   0  0  0  0  0  0  0  0  0  0  0  0
   -1.6882   -0.6855   -1.5758 H   0  0  0  0  0  0  0  0  0  0  0  0
   -0.7899   -2.6372    0.3731 H   0  0  0  0  0  0  0  0  0  0  0  0
    1.2424   -2.1036    0.7352 H   0  0  0  0  0  0  0  0  0  0  0  0
  1  2  1  0
  2  3  2  3
  3  4  1  0
  4  5  2  3
  5  6  1  0
  6  7  1  0
  7  8  1  0
  8  9  2  3
  9  2  1  0
  1 10  1  0
  1 11  1  0
  1 12  1  0
  3 13  1  0
  4 14  1  0
  5 15  1  0
  6 16  1  0
  6 17  1  0
  7 18  1  0
  7 19  1  0
  8 20  1  0
  9 21  1  0
M  END
