
     RDKit          3D

 23 23  0  0  0  0  0  0  0  0999 V2000
    3.0623    0.2566    0.3959 C   0  0  0  0  0  0  0  0  0  0  0  0
    1.5868    0.1219    0.1944 C   0  0  0  0  0  0  0  0  0  0  0  0
    0.8170    1.0837    0.6785 C   0  0  0  0  0  0  0  0  0  0  0  0
   -0.6416    1.2150    0.6303 C   0  0  0  0  0  0  0  0  0  0  0  0
   -1.5538    0.5034   -0.0090 C   0  0  0  0  0  0  0  0  0  0  0  0
   -2.9876    0.8645    0.1217 C   0  0  0  0  0  0  0  0  0  0  0  0
   -1.2558   -0.6654   -0.8756 C   0  0  0  0  0  0  0  0  0  0  0  0
   -0.2083   -1.5413   -0.2196 C   0  0  0  0  0  0  0  0  0  0  0  0
    1.1881   -1.1067   -0.5405 C   0  0  0  0  0  0  0  0  0  0  0  0
    3.5593   -0.0975   -0.5496 H   0  0  0  0  0  0  0  0  0  0  0  0
    3.3659    1.3199    0.5010 H   0  0  0  0  0  0  0  0  0  0  0  0
    3.4172   -0.3258    1.2530 H   0  0  0  0  0  0  0  0  0  0  0  0
    1.3749    1.8705    1.1747 H   0  0  0  0  0  0  0  0  0  0  0  0
   -1.0744    2.0199    1.2037 H   0  0  0  0  0  0  0  0  0  0  0  0
   -3.5917    0.0153   -0.2139 H   0  0  0  0  0  0  0  0  0  0  0  0
   -3.2643    1.1522    1.1520 H   0  0  0  0  0  0  0  0  0  0  0  0
   -3.2586    1.7279   -0.5239 H   0  0  0  0  0  0  0  0  0  0  0  0
   -0.7872   -0.2313   -1.8061 H   0  0  0  0  0  0  0  0  0  0  0  0
   -2.1852   -1.1977   -1.0709 H   0  0  0  0  0  0  0  0  0  0  0  0
   -0.3801   -1.4897    0.8733 H   0  0  0  0  0  0  0  0  0  0  0  0
   -0.3157   -2.6039   -0.5139 H   0  0  0  0  0  0  0  0  0  0  0  0
    1.2607   -0.9679   -1.6516 H   0  0  0  0  0  0  0  0  0  0  0  0
    1.8722   -1.9237   -0.2039 H   0  0  0  0  0  0  0  0  0  0  0  0
  1  2  1  0
  2  3  2  0
  3  4  1  0
  4  5  2  0
  5  6  1  0
  5  7  1  0
  7  8  1  0
  8  9  1  0
  9  2  1  0
  1 10  1  0
  1 11  1  0
  1 12  1  0
  3 13  1  0
  4 14  1  0
  6 15  1  0
  6 16  1  0
  6 17  1  0
  7 18  1  0
  7 19  1  0
  8 20  1  0
  8 21  1  0
  9 22  1  0
  9 23  1  0
M  END
