
     RDKit          3D

 21 21  0  0  0  0  0  0  0  0999 V2000
    2.2574    0.5897    0.4000 C   0  0  0  0  0  0  0  0  0  0  0  0
    0.8575    0.3161   -0.0610 C   0  0  0  0  0  0  0  0  0  0  0  0
    0.0597    1.3384   -0.2889 C   0  0  0  0  0  0  0  0  0  0  0  0
   -1.3602    1.3298   -0.7485 C   0  0  0  0  0  0  0  0  0  0  0  0
   -2.1037    0.3706    0.1782 C   0  0  0  0  0  0  0  0  0  0  0  0
   -1.2783   -0.1999    1.1195 O   0  0  0  0  0  0  0  0  0  0  0  0
   -0.6858   -1.3776    0.7172 C   0  0  0  0  0  0  0  0  0  0  0  0
    0.5007   -1.1249   -0.2190 C   0  0  0  0  0  0  0  0  0  0  0  0
    1.5446   -1.9761    0.0080 O   0  0  0  0  0  0  0  0  0  0  0  0
    2.9230   -0.1648   -0.1023 H   0  0  0  0  0  0  0  0  0  0  0  0
    2.3510    0.5659    1.4968 H   0  0  0  0  0  0  0  0  0  0  0  0
    2.5525    1.5909    0.0253 H   0  0  0  0  0  0  0  0  0  0  0  0
    0.5265    2.3001   -0.1094 H   0  0  0  0  0  0  0  0  0  0  0  0
   -1.3587    0.8151   -1.7510 H   0  0  0  0  0  0  0  0  0  0  0  0
   -1.7939    2.3215   -0.7786 H   0  0  0  0  0  0  0  0  0  0  0  0
   -2.7114   -0.3610   -0.3829 H   0  0  0  0  0  0  0  0  0  0  0  0
   -2.8324    1.0197    0.7423 H   0  0  0  0  0  0  0  0  0  0  0  0
   -1.3966   -2.1026    0.2625 H   0  0  0  0  0  0  0  0  0  0  0  0
   -0.2379   -1.8569    1.6253 H   0  0  0  0  0  0  0  0  0  0  0  0
    0.1701   -1.2305   -1.2928 H   0  0  0  0  0  0  0  0  0  0  0  0
    2.0160   -2.1634   -0.8407 H   0  0  0  0  0  0  0  0  0  0  0  0
  1  2  1  0
  2  3  2  0
  3  4  1  0
  4  5  1  0
  5  6  1  0
  6  7  1  0
  7  8  1  0
  8  9  1  0
  8  2  1  0
  1 10  1  0
  1 11  1  0
  1 12  1  0
  3 13  1  0
  4 14  1  0
  4 15  1  0
  5 16  1  0
  5 17  1  0
  7 18  1  0
  7 19  1  0
  8 20  1  0
  9 21  1  0
M  END
