
     RDKit          3D

 19 20  0  0  0  0  0  0  0  0999 V2000
    2.3646   -0.2638    0.4278 C   0  0  0  0  0  0  0  0  0  0  0  0
    0.9551    0.0984    0.2309 C   0  0  0  0  0  0  0  0  0  0  0  0
    0.5286    1.3433    0.3092 C   0  0  0  0  0  0  0  0  0  0  0  0
   -0.9245    1.5624    0.0775 C   0  0  0  0  0  0  0  0  0  0  0  0
   -1.4733    2.6639    0.2050 O   0  0  0  0  0  0  0  0  0  0  0  0
   -1.6629    0.3282   -0.3243 C   0  0  0  0  0  0  0  0  0  0  0  0
   -1.3371   -0.7385    0.6948 C   0  0  0  0  0  0  0  0  0  0  0  0
   -0.0298   -0.9543   -0.0653 C   0  0  0  0  0  0  0  0  0  0  0  0
   -0.8024   -0.4554   -1.2961 C   0  0  0  0  0  0  0  0  0  0  0  0
    2.7789   -0.7935   -0.4801 H   0  0  0  0  0  0  0  0  0  0  0  0
    2.4948   -1.0191    1.2549 H   0  0  0  0  0  0  0  0  0  0  0  0
    2.9867    0.6372    0.6104 H   0  0  0  0  0  0  0  0  0  0  0  0
    1.1679    2.1890    0.5280 H   0  0  0  0  0  0  0  0  0  0  0  0
   -2.7022    0.4578   -0.5910 H   0  0  0  0  0  0  0  0  0  0  0  0
   -1.2032   -0.3882    1.7287 H   0  0  0  0  0  0  0  0  0  0  0  0
   -1.9568   -1.6541    0.5733 H   0  0  0  0  0  0  0  0  0  0  0  0
    0.3186   -1.9777   -0.1214 H   0  0  0  0  0  0  0  0  0  0  0  0
   -1.2991   -1.2641   -1.8310 H   0  0  0  0  0  0  0  0  0  0  0  0
   -0.2037    0.2285   -1.9311 H   0  0  0  0  0  0  0  0  0  0  0  0
  1  2  1  0
  2  3  2  0
  3  4  1  0
  4  5  2  0
  4  6  1  0
  6  7  1  0
  7  8  1  0
  8  9  1  0
  8  2  1  0
  9  6  1  0
  1 10  1  0
  1 11  1  0
  1 12  1  0
  3 13  1  0
  6 14  1  0
  7 15  1  0
  7 16  1  0
  8 17  1  0
  9 18  1  0
  9 19  1  0
M  END
