
     RDKit          3D

 19 20  0  0  0  0  0  0  0  0999 V2000
    2.4954   -0.1867    0.4699 C   0  0  0  0  0  0  0  0  0  0  0  0
    1.0418   -0.0995    0.2384 C   0  0  0  0  0  0  0  0  0  0  0  0
    0.1407    0.3091    1.1250 C   0  0  0  0  0  0  0  0  0  0  0  0
   -1.2517    0.3351    0.5791 C   0  0  0  0  0  0  0  0  0  0  0  0
   -1.5797   -1.0465   -0.0016 C   0  0  0  0  0  0  0  0  0  0  0  0
   -0.5243   -1.4697   -0.7669 O   0  0  0  0  0  0  0  0  0  0  0  0
    0.3922   -0.4777   -1.0770 C   0  0  0  0  0  0  0  0  0  0  0  0
   -0.2207    0.6813   -1.5395 O   0  0  0  0  0  0  0  0  0  0  0  0
   -1.1413    1.2273   -0.6710 C   0  0  0  0  0  0  0  0  0  0  0  0
    2.9897   -0.3361   -0.5095 H   0  0  0  0  0  0  0  0  0  0  0  0
    2.8946    0.7758    0.8672 H   0  0  0  0  0  0  0  0  0  0  0  0
    2.7785   -1.0497    1.1052 H   0  0  0  0  0  0  0  0  0  0  0  0
    0.3301    0.6028    2.1400 H   0  0  0  0  0  0  0  0  0  0  0  0
   -1.9935    0.6890    1.2804 H   0  0  0  0  0  0  0  0  0  0  0  0
   -1.9198   -1.7477    0.7647 H   0  0  0  0  0  0  0  0  0  0  0  0
   -2.4688   -0.8650   -0.6747 H   0  0  0  0  0  0  0  0  0  0  0  0
    1.1215   -0.8070   -1.8091 H   0  0  0  0  0  0  0  0  0  0  0  0
   -0.9231    2.2731   -0.3833 H   0  0  0  0  0  0  0  0  0  0  0  0
   -2.1614    1.1922   -1.1372 H   0  0  0  0  0  0  0  0  0  0  0  0
  1  2  1  0
  2  3  2  0
  3  4  1  0
  4  5  1  0
  5  6  1  0
  6  7  1  0
  7  8  1  0
  8  9  1  0
  7  2  1  0
  9  4  1  0
  1 10  1  0
  1 11  1  0
  1 12  1  0
  3 13  1  0
  4 14  1  0
  5 15  1  0
  5 16  1  0
  7 17  1  0
  9 18  1  0
  9 19  1  0
M  END
