
     RDKit          3D

 21 21  0  0  0  0  0  0  0  0999 V2000
   -1.7919    1.4165   -0.8433 C   0  0  0  0  0  0  0  0  0  0  0  0
   -0.6063    0.6519   -0.2707 C   0  0  0  0  0  0  0  0  0  0  0  0
    0.5015    1.2518    0.1197 C   0  0  0  0  0  0  0  0  0  0  0  0
    1.4742    0.2519    0.6314 C   0  0  0  0  0  0  0  0  0  0  0  0
    2.6158    0.0182   -0.3262 C   0  0  0  0  0  0  0  0  0  0  0  0
    0.6477   -0.9579    0.8296 C   0  0  0  0  0  0  0  0  0  0  0  0
    0.8784   -1.8724    1.5757 O   0  0  0  0  0  0  0  0  0  0  0  0
   -0.5027   -0.7959   -0.0756 C   0  0  0  0  0  0  0  0  0  0  0  0
   -1.7539   -1.4395    0.4523 C   0  0  0  0  0  0  0  0  0  0  0  0
   -1.4911    1.9626   -1.7609 H   0  0  0  0  0  0  0  0  0  0  0  0
   -2.5897    0.7091   -1.1129 H   0  0  0  0  0  0  0  0  0  0  0  0
   -2.2014    2.1140   -0.0898 H   0  0  0  0  0  0  0  0  0  0  0  0
    0.6808    2.3555    0.0715 H   0  0  0  0  0  0  0  0  0  0  0  0
    1.8782    0.6569    1.5939 H   0  0  0  0  0  0  0  0  0  0  0  0
    3.4054    0.7739   -0.1068 H   0  0  0  0  0  0  0  0  0  0  0  0
    2.2535    0.0636   -1.3618 H   0  0  0  0  0  0  0  0  0  0  0  0
    3.0717   -0.9693   -0.0974 H   0  0  0  0  0  0  0  0  0  0  0  0
   -0.2530   -1.2921   -1.0383 H   0  0  0  0  0  0  0  0  0  0  0  0
   -2.5928   -0.7484    0.5925 H   0  0  0  0  0  0  0  0  0  0  0  0
   -2.1230   -2.2544   -0.2140 H   0  0  0  0  0  0  0  0  0  0  0  0
   -1.5018   -1.8961    1.4311 H   0  0  0  0  0  0  0  0  0  0  0  0
  1  2  1  0
  2  3  2  0
  3  4  1  0
  4  5  1  0
  4  6  1  0
  6  7  2  0
  6  8  1  0
  8  9  1  0
  8  2  1  0
  1 10  1  0
  1 11  1  0
  1 12  1  0
  3 13  1  0
  4 14  1  0
  5 15  1  0
  5 16  1  0
  5 17  1  0
  8 18  1  0
  9 19  1  0
  9 20  1  0
  9 21  1  0
M  END
