
     RDKit          3D

 21 22  0  0  0  0  0  0  0  0999 V2000
    2.6433   -0.3634    0.2214 C   0  0  0  0  0  0  0  0  0  0  0  0
    1.2546    0.1118    0.2605 C   0  0  0  0  0  0  0  0  0  0  0  0
    0.9526    1.2531   -0.3669 C   0  0  0  0  0  0  0  0  0  0  0  0
   -0.4286    1.7841   -0.3637 C   0  0  0  0  0  0  0  0  0  0  0  0
   -1.4811    0.7225   -0.4451 C   0  0  0  0  0  0  0  0  0  0  0  0
   -1.0185   -0.6380   -0.0477 C   0  0  0  0  0  0  0  0  0  0  0  0
   -1.9232   -1.7611   -0.0691 C   0  0  0  0  0  0  0  0  0  0  0  0
   -0.8888   -1.6542   -0.9780 O   0  0  0  0  0  0  0  0  0  0  0  0
    0.1409   -0.5863    0.9530 C   0  0  0  0  0  0  0  0  0  0  0  0
    2.9973   -0.2477   -0.8429 H   0  0  0  0  0  0  0  0  0  0  0  0
    3.2993    0.2818    0.8380 H   0  0  0  0  0  0  0  0  0  0  0  0
    2.7462   -1.4443    0.4593 H   0  0  0  0  0  0  0  0  0  0  0  0
    1.7190    1.8151   -0.8936 H   0  0  0  0  0  0  0  0  0  0  0  0
   -0.5718    2.4467   -1.2666 H   0  0  0  0  0  0  0  0  0  0  0  0
   -0.5737    2.4549    0.5086 H   0  0  0  0  0  0  0  0  0  0  0  0
   -2.3529    0.9872    0.2117 H   0  0  0  0  0  0  0  0  0  0  0  0
   -1.9148    0.6473   -1.4760 H   0  0  0  0  0  0  0  0  0  0  0  0
   -2.9273   -1.6209   -0.5207 H   0  0  0  0  0  0  0  0  0  0  0  0
   -1.9024   -2.5125    0.7353 H   0  0  0  0  0  0  0  0  0  0  0  0
   -0.1384   -0.0464    1.8740 H   0  0  0  0  0  0  0  0  0  0  0  0
    0.3685   -1.6296    1.2085 H   0  0  0  0  0  0  0  0  0  0  0  0
  1  2  1  0
  2  3  2  0
  3  4  1  0
  4  5  1  0
  5  6  1  0
  6  7  1  0
  7  8  1  0
  6  9  1  0
  9  2  1  0
  8  6  1  0
  1 10  1  0
  1 11  1  0
  1 12  1  0
  3 13  1  0
  4 14  1  0
  4 15  1  0
  5 16  1  0
  5 17  1  0
  7 18  1  0
  7 19  1  0
  9 20  1  0
  9 21  1  0
M  END
