
     RDKit          3D

 21 21  0  0  0  0  0  0  0  0999 V2000
    2.4560    1.3114    0.3842 C   0  0  0  0  0  0  0  0  0  0  0  0
    1.3181    0.3718    0.2126 C   0  0  0  0  0  0  0  0  0  0  0  0
    0.0620    0.5842    0.5759 C   0  0  0  0  0  0  0  0  0  0  0  0
   -0.7837   -0.5830    0.2405 C   0  0  0  0  0  0  0  0  0  0  0  0
   -2.0054   -0.1486   -0.5130 C   0  0  0  0  0  0  0  0  0  0  0  0
   -2.7850    0.7903    0.3289 C   0  0  0  0  0  0  0  0  0  0  0  0
   -2.5251    1.9704    0.4529 O   0  0  0  0  0  0  0  0  0  0  0  0
    0.0772   -1.5439   -0.5238 C   0  0  0  0  0  0  0  0  0  0  0  0
    1.4699   -0.9645   -0.4145 C   0  0  0  0  0  0  0  0  0  0  0  0
    2.7220    1.6815   -0.6269 H   0  0  0  0  0  0  0  0  0  0  0  0
    2.1621    2.1629    1.0592 H   0  0  0  0  0  0  0  0  0  0  0  0
    3.3196    0.7710    0.8251 H   0  0  0  0  0  0  0  0  0  0  0  0
   -0.3242    1.4805    1.0542 H   0  0  0  0  0  0  0  0  0  0  0  0
   -1.1356   -1.0280    1.2076 H   0  0  0  0  0  0  0  0  0  0  0  0
   -2.6414   -0.9848   -0.8310 H   0  0  0  0  0  0  0  0  0  0  0  0
   -1.7029    0.4323   -1.4279 H   0  0  0  0  0  0  0  0  0  0  0  0
   -3.6355    0.3951    0.8621 H   0  0  0  0  0  0  0  0  0  0  0  0
   -0.2316   -1.6767   -1.5635 H   0  0  0  0  0  0  0  0  0  0  0  0
    0.1193   -2.5362    0.0074 H   0  0  0  0  0  0  0  0  0  0  0  0
    1.8906   -0.8768   -1.4494 H   0  0  0  0  0  0  0  0  0  0  0  0
    2.1735   -1.6088    0.1394 H   0  0  0  0  0  0  0  0  0  0  0  0
  1  2  1  0
  2  3  2  0
  3  4  1  0
  4  5  1  0
  5  6  1  0
  6  7  2  0
  4  8  1  0
  8  9  1  0
  9  2  1  0
  1 10  1  0
  1 11  1  0
  1 12  1  0
  3 13  1  0
  4 14  1  0
  5 15  1  0
  5 16  1  0
  6 17  1  0
  8 18  1  0
  8 19  1  0
  9 20  1  0
  9 21  1  0
M  END
