
     RDKit          3D

 20 20  0  0  0  0  0  0  0  0999 V2000
    2.3544    0.0426    0.6076 C   0  0  0  0  0  0  0  0  0  0  0  0
    0.9269    0.0699    0.1645 C   0  0  0  0  0  0  0  0  0  0  0  0
    0.2624    1.2038    0.3282 C   0  0  0  0  0  0  0  0  0  0  0  0
   -1.0840    1.6698    0.0556 C   0  0  0  0  0  0  0  0  0  0  0  0
   -2.0633    0.7783   -0.1361 O   0  0  0  0  0  0  0  0  0  0  0  0
   -1.8304   -0.5277    0.1370 C   0  0  0  0  0  0  0  0  0  0  0  0
   -0.9405   -1.0824   -0.9786 C   0  0  0  0  0  0  0  0  0  0  0  0
    0.4362   -1.1776   -0.4029 C   0  0  0  0  0  0  0  0  0  0  0  0
    2.5070    0.7214    1.4622 H   0  0  0  0  0  0  0  0  0  0  0  0
    2.6247   -0.9871    0.9643 H   0  0  0  0  0  0  0  0  0  0  0  0
    3.0398    0.2836   -0.2252 H   0  0  0  0  0  0  0  0  0  0  0  0
    0.8976    1.9754    0.7833 H   0  0  0  0  0  0  0  0  0  0  0  0
   -1.3911    2.3583    0.8988 H   0  0  0  0  0  0  0  0  0  0  0  0
   -1.0468    2.3622   -0.8378 H   0  0  0  0  0  0  0  0  0  0  0  0
   -2.8045   -1.0742    0.1137 H   0  0  0  0  0  0  0  0  0  0  0  0
   -1.3618   -0.6487    1.1278 H   0  0  0  0  0  0  0  0  0  0  0  0
   -0.9029   -0.3863   -1.8425 H   0  0  0  0  0  0  0  0  0  0  0  0
   -1.2829   -2.0896   -1.2954 H   0  0  0  0  0  0  0  0  0  0  0  0
    1.1264   -1.4624   -1.2475 H   0  0  0  0  0  0  0  0  0  0  0  0
    0.5327   -2.0293    0.3229 H   0  0  0  0  0  0  0  0  0  0  0  0
  1  2  1  0
  2  3  2  0
  3  4  1  0
  4  5  1  0
  5  6  1  0
  6  7  1  0
  7  8  1  0
  8  2  1  0
  1  9  1  0
  1 10  1  0
  1 11  1  0
  3 12  1  0
  4 13  1  0
  4 14  1  0
  6 15  1  0
  6 16  1  0
  7 17  1  0
  7 18  1  0
  8 19  1  0
  8 20  1  0
M  END
