
     RDKit          3D

 21 22  0  0  0  0  0  0  0  0999 V2000
    2.7602   -0.0625   -0.1419 C   0  0  0  0  0  0  0  0  0  0  0  0
    1.2878    0.1753   -0.1269 C   0  0  0  0  0  0  0  0  0  0  0  0
    0.7740    1.3752    0.0803 C   0  0  0  0  0  0  0  0  0  0  0  0
   -0.6769    1.6857    0.1087 C   0  0  0  0  0  0  0  0  0  0  0  0
   -1.5431    0.5038    0.2631 C   0  0  0  0  0  0  0  0  0  0  0  0
   -2.0293   -0.0761   -0.9277 O   0  0  0  0  0  0  0  0  0  0  0  0
   -2.0800   -1.2665   -0.2003 C   0  0  0  0  0  0  0  0  0  0  0  0
   -0.8400   -0.7888    0.5244 C   0  0  0  0  0  0  0  0  0  0  0  0
    0.3736   -0.9825   -0.3524 C   0  0  0  0  0  0  0  0  0  0  0  0
    2.9701   -0.9373    0.5040 H   0  0  0  0  0  0  0  0  0  0  0  0
    3.1060   -0.3344   -1.1734 H   0  0  0  0  0  0  0  0  0  0  0  0
    3.3251    0.8030    0.2496 H   0  0  0  0  0  0  0  0  0  0  0  0
    1.5231    2.1728    0.2393 H   0  0  0  0  0  0  0  0  0  0  0  0
   -0.9784    2.2619   -0.7996 H   0  0  0  0  0  0  0  0  0  0  0  0
   -0.9041    2.3760    0.9744 H   0  0  0  0  0  0  0  0  0  0  0  0
   -2.3961    0.6258    0.9529 H   0  0  0  0  0  0  0  0  0  0  0  0
   -1.9711   -2.1898   -0.7841 H   0  0  0  0  0  0  0  0  0  0  0  0
   -2.9622   -1.2309    0.4798 H   0  0  0  0  0  0  0  0  0  0  0  0
   -0.7327   -1.1084    1.5567 H   0  0  0  0  0  0  0  0  0  0  0  0
    0.8781   -1.9057   -0.0044 H   0  0  0  0  0  0  0  0  0  0  0  0
    0.1156   -1.0968   -1.4227 H   0  0  0  0  0  0  0  0  0  0  0  0
  1  2  1  0
  2  3  2  0
  3  4  1  0
  4  5  1  0
  5  6  1  0
  6  7  1  0
  7  8  1  0
  8  9  1  0
  9  2  1  0
  8  5  1  0
  1 10  1  0
  1 11  1  0
  1 12  1  0
  3 13  1  0
  4 14  1  0
  4 15  1  0
  5 16  1  0
  7 17  1  0
  7 18  1  0
  8 19  1  0
  9 20  1  0
  9 21  1  0
M  END
