
     RDKit          3D

 21 22  0  0  0  0  0  0  0  0999 V2000
    2.7391   -0.3872   -0.4351 C   0  0  0  0  0  0  0  0  0  0  0  0
    1.2873   -0.1344   -0.3634 C   0  0  0  0  0  0  0  0  0  0  0  0
    0.5381   -1.1688    0.0257 C   0  0  0  0  0  0  0  0  0  0  0  0
   -0.9553   -1.1374    0.2544 C   0  0  0  0  0  0  0  0  0  0  0  0
   -1.6633   -0.5095   -0.9172 C   0  0  0  0  0  0  0  0  0  0  0  0
   -1.6466    0.8610   -0.2249 C   0  0  0  0  0  0  0  0  0  0  0  0
   -0.4547    1.6409   -0.6455 C   0  0  0  0  0  0  0  0  0  0  0  0
    0.7985    1.2218   -0.7234 C   0  0  0  0  0  0  0  0  0  0  0  0
   -1.3480    0.1025    1.0577 C   0  0  0  0  0  0  0  0  0  0  0  0
    2.9085   -1.3565   -0.9485 H   0  0  0  0  0  0  0  0  0  0  0  0
    3.1158   -0.4422    0.6097 H   0  0  0  0  0  0  0  0  0  0  0  0
    3.2262    0.4633   -0.9528 H   0  0  0  0  0  0  0  0  0  0  0  0
    0.9941   -2.1116    0.2000 H   0  0  0  0  0  0  0  0  0  0  0  0
   -1.3567   -2.0557    0.6573 H   0  0  0  0  0  0  0  0  0  0  0  0
   -1.1232   -0.5402   -1.8737 H   0  0  0  0  0  0  0  0  0  0  0  0
   -2.7012   -0.8634   -1.0672 H   0  0  0  0  0  0  0  0  0  0  0  0
   -2.5966    1.3728   -0.2856 H   0  0  0  0  0  0  0  0  0  0  0  0
   -0.6514    2.6619   -0.9141 H   0  0  0  0  0  0  0  0  0  0  0  0
    1.5522    1.9175   -1.0805 H   0  0  0  0  0  0  0  0  0  0  0  0
   -2.2201   -0.0465    1.7264 H   0  0  0  0  0  0  0  0  0  0  0  0
   -0.4428    0.5116    1.5821 H   0  0  0  0  0  0  0  0  0  0  0  0
  1  2  1  0
  2  3  2  0
  3  4  1  0
  4  5  1  0
  5  6  1  0
  6  7  1  0
  7  8  2  0
  6  9  1  0
  8  2  1  0
  9  4  1  0
  1 10  1  0
  1 11  1  0
  1 12  1  0
  3 13  1  0
  4 14  1  0
  5 15  1  0
  5 16  1  0
  6 17  1  0
  7 18  1  0
  8 19  1  0
  9 20  1  0
  9 21  1  0
M  END
