
     RDKit          3D

 19 19  0  0  0  0  0  0  0  0999 V2000
    2.5769   -0.1538    0.4229 C   0  0  0  0  0  0  0  0  0  0  0  0
    1.1254   -0.0829    0.1659 C   0  0  0  0  0  0  0  0  0  0  0  0
    0.6280    1.1305   -0.0178 C   0  0  0  0  0  0  0  0  0  0  0  0
   -0.7507    1.5196   -0.2877 C   0  0  0  0  0  0  0  0  0  0  0  0
   -0.9617    2.7632   -0.4350 O   0  0  0  0  0  0  0  0  0  0  0  0
   -1.9865    0.7195   -0.4268 C   0  0  0  0  0  0  0  0  0  0  0  0
   -1.8145   -0.7243   -0.1109 C   0  0  0  0  0  0  0  0  0  0  0  0
   -0.6858   -1.2375   -0.7781 O   0  0  0  0  0  0  0  0  0  0  0  0
    0.3507   -1.3494    0.1337 C   0  0  0  0  0  0  0  0  0  0  0  0
    3.0727    0.7081   -0.0964 H   0  0  0  0  0  0  0  0  0  0  0  0
    2.7268   -0.0955    1.5309 H   0  0  0  0  0  0  0  0  0  0  0  0
    3.0026   -1.1167    0.0325 H   0  0  0  0  0  0  0  0  0  0  0  0
    1.3161    1.9750    0.0334 H   0  0  0  0  0  0  0  0  0  0  0  0
   -2.2882    0.7937   -1.5057 H   0  0  0  0  0  0  0  0  0  0  0  0
   -2.7612    1.1523    0.2286 H   0  0  0  0  0  0  0  0  0  0  0  0
   -1.7658   -0.9369    0.9697 H   0  0  0  0  0  0  0  0  0  0  0  0
   -2.6933   -1.2753   -0.5254 H   0  0  0  0  0  0  0  0  0  0  0  0
   -0.1106   -1.5799    1.1242 H   0  0  0  0  0  0  0  0  0  0  0  0
    1.0191   -2.2097   -0.1005 H   0  0  0  0  0  0  0  0  0  0  0  0
  1  2  1  0
  2  3  2  0
  3  4  1  0
  4  5  2  0
  4  6  1  0
  6  7  1  0
  7  8  1  0
  8  9  1  0
  9  2  1  0
  1 10  1  0
  1 11  1  0
  1 12  1  0
  3 13  1  0
  6 14  1  0
  6 15  1  0
  7 16  1  0
  7 17  1  0
  9 18  1  0
  9 19  1  0
M  END
