
     RDKit          3D

 19 20  0  0  0  0  0  0  0  0999 V2000
   -0.1528    2.0521    0.0942 C   0  0  0  0  0  0  0  0  0  0  0  0
   -0.1878    0.5443    0.0726 C   0  0  0  0  0  0  0  0  0  0  0  0
    0.8513   -0.2557   -0.0290 C   0  0  0  0  0  0  0  0  0  0  0  0
    2.2975    0.1464   -0.1456 C   0  0  0  0  0  0  0  0  0  0  0  0
    0.3525   -1.6504   -0.0096 C   0  0  0  0  0  0  0  0  0  0  0  0
   -0.3017   -2.0613    1.2116 O   0  0  0  0  0  0  0  0  0  0  0  0
   -1.0119   -1.6435   -0.0263 C   0  0  0  0  0  0  0  0  0  0  0  0
   -1.4567   -0.2114    0.1687 C   0  0  0  0  0  0  0  0  0  0  0  0
   -2.2912    0.2236   -0.8371 O   0  0  0  0  0  0  0  0  0  0  0  0
    0.8083    2.4336   -0.3055 H   0  0  0  0  0  0  0  0  0  0  0  0
   -0.2739    2.3282    1.1811 H   0  0  0  0  0  0  0  0  0  0  0  0
   -0.9537    2.4886   -0.5245 H   0  0  0  0  0  0  0  0  0  0  0  0
    2.9250   -0.6485    0.3302 H   0  0  0  0  0  0  0  0  0  0  0  0
    2.5990    0.3190   -1.1860 H   0  0  0  0  0  0  0  0  0  0  0  0
    2.4752    1.0876    0.4107 H   0  0  0  0  0  0  0  0  0  0  0  0
    1.0824   -2.4314   -0.3368 H   0  0  0  0  0  0  0  0  0  0  0  0
   -1.7810   -2.3768   -0.3223 H   0  0  0  0  0  0  0  0  0  0  0  0
   -1.8620   -0.0349    1.1832 H   0  0  0  0  0  0  0  0  0  0  0  0
   -3.1187   -0.3096   -0.9295 H   0  0  0  0  0  0  0  0  0  0  0  0
  1  2  1  0
  2  3  2  0
  3  4  1  0
  3  5  1  0
  5  6  1  0
  6  7  1  0
  7  8  1  0
  8  9  1  0
  8  2  1  0
  7  5  1  0
  1 10  1  0
  1 11  1  0
  1 12  1  0
  4 13  1  0
  4 14  1  0
  4 15  1  0
  5 16  1  0
  7 17  1  0
  8 18  1  0
  9 19  1  0
M  END
