
     RDKit          3D

 21 21  0  0  0  0  0  0  0  0999 V2000
    2.0803   -1.0586    0.2789 C   0  0  0  0  0  0  0  0  0  0  0  0
    0.6667   -0.5707    0.1381 C   0  0  0  0  0  0  0  0  0  0  0  0
   -0.2481   -1.4671   -0.1773 C   0  0  0  0  0  0  0  0  0  0  0  0
   -1.6826   -1.1649   -0.3559 C   0  0  0  0  0  0  0  0  0  0  0  0
   -2.0611    0.0369    0.4844 C   0  0  0  0  0  0  0  0  0  0  0  0
   -1.1112    1.0868    0.0938 C   0  0  0  0  0  0  0  0  0  0  0  0
   -1.4956    2.0977   -0.4106 O   0  0  0  0  0  0  0  0  0  0  0  0
    0.3123    0.8506    0.3434 C   0  0  0  0  0  0  0  0  0  0  0  0
    1.1285    1.7763   -0.5384 C   0  0  0  0  0  0  0  0  0  0  0  0
    2.7524   -0.1669    0.1917 H   0  0  0  0  0  0  0  0  0  0  0  0
    2.3411   -1.7677   -0.5376 H   0  0  0  0  0  0  0  0  0  0  0  0
    2.1844   -1.5319    1.2678 H   0  0  0  0  0  0  0  0  0  0  0  0
    0.0615   -2.5312   -0.3235 H   0  0  0  0  0  0  0  0  0  0  0  0
   -1.8755   -0.8765   -1.4140 H   0  0  0  0  0  0  0  0  0  0  0  0
   -2.2937   -2.0191   -0.0188 H   0  0  0  0  0  0  0  0  0  0  0  0
   -1.9340   -0.2408    1.5654 H   0  0  0  0  0  0  0  0  0  0  0  0
   -3.1215    0.3182    0.3252 H   0  0  0  0  0  0  0  0  0  0  0  0
    0.4905    1.1567    1.4086 H   0  0  0  0  0  0  0  0  0  0  0  0
    1.1164    1.3740   -1.5839 H   0  0  0  0  0  0  0  0  0  0  0  0
    2.1330    1.9607   -0.1515 H   0  0  0  0  0  0  0  0  0  0  0  0
    0.5562    2.7375   -0.5856 H   0  0  0  0  0  0  0  0  0  0  0  0
  1  2  1  0
  2  3  2  0
  3  4  1  0
  4  5  1  0
  5  6  1  0
  6  7  2  0
  6  8  1  0
  8  9  1  0
  8  2  1  0
  1 10  1  0
  1 11  1  0
  1 12  1  0
  3 13  1  0
  4 14  1  0
  4 15  1  0
  5 16  1  0
  5 17  1  0
  8 18  1  0
  9 19  1  0
  9 20  1  0
  9 21  1  0
M  END
