
     RDKit          3D

 15 15  0  0  0  0  0  0  0  0999 V2000
   -1.8009   -0.6394   -0.3357 C   0  0  0  0  0  0  0  0  0  0  0  0
   -0.3332   -0.3557   -0.1440 C   0  0  0  0  0  0  0  0  0  0  0  0
    0.6811   -1.0178   -0.6725 C   0  0  0  0  0  0  0  0  0  0  0  0
    1.9423   -0.4028   -0.2220 C   0  0  0  0  0  0  0  0  0  0  0  0
    3.0950   -0.7980   -0.5475 O   0  0  0  0  0  0  0  0  0  0  0  0
    1.6096    0.7153    0.6452 C   0  0  0  0  0  0  0  0  0  0  0  0
    2.4387    1.4615    1.2048 O   0  0  0  0  0  0  0  0  0  0  0  0
    0.1430    0.7614    0.7074 C   0  0  0  0  0  0  0  0  0  0  0  0
   -0.3896    1.9403    0.2079 O   0  0  0  0  0  0  0  0  0  0  0  0
   -1.9215   -1.7250   -0.6048 H   0  0  0  0  0  0  0  0  0  0  0  0
   -2.2689   -0.5267    0.6629 H   0  0  0  0  0  0  0  0  0  0  0  0
   -2.2676    0.0415   -1.0411 H   0  0  0  0  0  0  0  0  0  0  0  0
    0.5596   -1.8787   -1.3333 H   0  0  0  0  0  0  0  0  0  0  0  0
   -0.2405    0.6659    1.7563 H   0  0  0  0  0  0  0  0  0  0  0  0
   -1.2470    1.7582   -0.2836 H   0  0  0  0  0  0  0  0  0  0  0  0
  1  2  1  0
  2  3  2  0
  3  4  1  0
  4  5  2  0
  4  6  1  0
  6  7  2  0
  6  8  1  0
  8  9  1  0
  8  2  1  0
  1 10  1  0
  1 11  1  0
  1 12  1  0
  3 13  1  0
  8 14  1  0
  9 15  1  0
M  END
