
     RDKit          3D

 23 23  0  0  0  0  0  0  0  0999 V2000
    1.4327   -1.7820   -0.4284 C   0  0  0  0  0  0  0  0  0  0  0  0
    0.9235   -0.3977   -0.1267 C   0  0  0  0  0  0  0  0  0  0  0  0
    1.7111    0.6700   -0.1094 C   0  0  0  0  0  0  0  0  0  0  0  0
    0.9282    1.8979    0.2184 C   0  0  0  0  0  0  0  0  0  0  0  0
   -0.4503    1.4683   -0.2604 C   0  0  0  0  0  0  0  0  0  0  0  0
   -0.4404    0.0336    0.1898 C   0  0  0  0  0  0  0  0  0  0  0  0
   -0.7015   -0.1231    1.6619 C   0  0  0  0  0  0  0  0  0  0  0  0
   -1.5072   -0.7232   -0.5557 C   0  0  0  0  0  0  0  0  0  0  0  0
   -1.4141   -0.6139   -1.9229 O   0  0  0  0  0  0  0  0  0  0  0  0
    1.2783   -2.0378   -1.4955 H   0  0  0  0  0  0  0  0  0  0  0  0
    2.5324   -1.8360   -0.2599 H   0  0  0  0  0  0  0  0  0  0  0  0
    0.9871   -2.5317    0.2593 H   0  0  0  0  0  0  0  0  0  0  0  0
    2.7752    0.6727   -0.3031 H   0  0  0  0  0  0  0  0  0  0  0  0
    1.2966    2.7972   -0.2712 H   0  0  0  0  0  0  0  0  0  0  0  0
    0.9132    2.1005    1.3121 H   0  0  0  0  0  0  0  0  0  0  0  0
   -1.2583    2.0677    0.1440 H   0  0  0  0  0  0  0  0  0  0  0  0
   -0.4194    1.4612   -1.3740 H   0  0  0  0  0  0  0  0  0  0  0  0
   -0.1791   -1.0563    1.9873 H   0  0  0  0  0  0  0  0  0  0  0  0
   -0.2862    0.6968    2.2707 H   0  0  0  0  0  0  0  0  0  0  0  0
   -1.7826   -0.2081    1.8802 H   0  0  0  0  0  0  0  0  0  0  0  0
   -1.5444   -1.7882   -0.2235 H   0  0  0  0  0  0  0  0  0  0  0  0
   -2.4873   -0.2542   -0.2582 H   0  0  0  0  0  0  0  0  0  0  0  0
   -2.3076   -0.5138   -2.3347 H   0  0  0  0  0  0  0  0  0  0  0  0
  1  2  1  0
  2  3  2  0
  3  4  1  0
  4  5  1  0
  5  6  1  0
  6  7  1  0
  6  8  1  0
  8  9  1  0
  6  2  1  0
  1 10  1  0
  1 11  1  0
  1 12  1  0
  3 13  1  0
  4 14  1  0
  4 15  1  0
  5 16  1  0
  5 17  1  0
  7 18  1  0
  7 19  1  0
  7 20  1  0
  8 21  1  0
  8 22  1  0
  9 23  1  0
M  END
