
     RDKit          3D

 20 20  0  0  0  0  0  0  0  0999 V2000
   -1.5406   -1.5373   -0.2440 C   0  0  0  0  0  0  0  0  0  0  0  0
   -0.3196   -0.7247   -0.1066 C   0  0  0  0  0  0  0  0  0  0  0  0
    0.7996   -1.2934    0.2998 C   0  0  0  0  0  0  0  0  0  0  0  0
    2.0882   -0.5495    0.4690 C   0  0  0  0  0  0  0  0  0  0  0  0
    1.7390    0.7742    0.7716 O   0  0  0  0  0  0  0  0  0  0  0  0
    1.0452    1.2574   -0.3413 C   0  0  0  0  0  0  0  0  0  0  0  0
   -0.3548    0.7195   -0.4239 C   0  0  0  0  0  0  0  0  0  0  0  0
   -1.3258    1.4889    0.4316 C   0  0  0  0  0  0  0  0  0  0  0  0
   -2.1763   -1.2312   -1.1148 H   0  0  0  0  0  0  0  0  0  0  0  0
   -2.1242   -1.5019    0.7037 H   0  0  0  0  0  0  0  0  0  0  0  0
   -1.3244   -2.6205   -0.4191 H   0  0  0  0  0  0  0  0  0  0  0  0
    0.8600   -2.3693    0.5449 H   0  0  0  0  0  0  0  0  0  0  0  0
    2.7158   -0.9796    1.2759 H   0  0  0  0  0  0  0  0  0  0  0  0
    2.6694   -0.5702   -0.4685 H   0  0  0  0  0  0  0  0  0  0  0  0
    1.0847    2.3589   -0.4048 H   0  0  0  0  0  0  0  0  0  0  0  0
    1.5910    0.8768   -1.2398 H   0  0  0  0  0  0  0  0  0  0  0  0
   -0.6937    0.8106   -1.4826 H   0  0  0  0  0  0  0  0  0  0  0  0
   -2.3235    1.0367    0.2907 H   0  0  0  0  0  0  0  0  0  0  0  0
   -1.3959    2.5168   -0.0261 H   0  0  0  0  0  0  0  0  0  0  0  0
   -1.0141    1.5376    1.4843 H   0  0  0  0  0  0  0  0  0  0  0  0
  1  2  1  0
  2  3  2  0
  3  4  1  0
  4  5  1  0
  5  6  1  0
  6  7  1  0
  7  8  1  0
  7  2  1  0
  1  9  1  0
  1 10  1  0
  1 11  1  0
  3 12  1  0
  4 13  1  0
  4 14  1  0
  6 15  1  0
  6 16  1  0
  7 17  1  0
  8 18  1  0
  8 19  1  0
  8 20  1  0
M  END
