
     RDKit          3D

 23 23  0  0  0  0  0  0  0  0999 V2000
    2.6765    0.2659   -0.3053 C   0  0  0  0  0  0  0  0  0  0  0  0
    1.3086   -0.1065    0.1889 C   0  0  0  0  0  0  0  0  0  0  0  0
    0.4096    0.8476    0.0561 C   0  0  0  0  0  0  0  0  0  0  0  0
   -1.0161    0.8205    0.4335 C   0  0  0  0  0  0  0  0  0  0  0  0
   -1.7780    1.7813   -0.4341 C   0  0  0  0  0  0  0  0  0  0  0  0
   -1.5897   -0.5787    0.3833 C   0  0  0  0  0  0  0  0  0  0  0  0
   -0.7976   -1.4853   -0.5327 C   0  0  0  0  0  0  0  0  0  0  0  0
    0.1694   -2.2128    0.1156 O   0  0  0  0  0  0  0  0  0  0  0  0
    1.1202   -1.4579    0.7533 C   0  0  0  0  0  0  0  0  0  0  0  0
    3.2201    0.9031    0.4116 H   0  0  0  0  0  0  0  0  0  0  0  0
    2.5213    0.8375   -1.2345 H   0  0  0  0  0  0  0  0  0  0  0  0
    3.2399   -0.6682   -0.5684 H   0  0  0  0  0  0  0  0  0  0  0  0
    0.7287    1.7850   -0.3838 H   0  0  0  0  0  0  0  0  0  0  0  0
   -1.0869    1.1467    1.5007 H   0  0  0  0  0  0  0  0  0  0  0  0
   -2.1425    1.2766   -1.3565 H   0  0  0  0  0  0  0  0  0  0  0  0
   -1.0702    2.5794   -0.7670 H   0  0  0  0  0  0  0  0  0  0  0  0
   -2.5861    2.2872    0.1116 H   0  0  0  0  0  0  0  0  0  0  0  0
   -1.6307   -1.0632    1.3750 H   0  0  0  0  0  0  0  0  0  0  0  0
   -2.6472   -0.4822    0.0131 H   0  0  0  0  0  0  0  0  0  0  0  0
   -1.5425   -2.2294   -0.9375 H   0  0  0  0  0  0  0  0  0  0  0  0
   -0.4601   -0.8985   -1.3839 H   0  0  0  0  0  0  0  0  0  0  0  0
    2.1116   -1.9723    0.7236 H   0  0  0  0  0  0  0  0  0  0  0  0
    0.8416   -1.3758    1.8374 H   0  0  0  0  0  0  0  0  0  0  0  0
  1  2  1  0
  2  3  2  0
  3  4  1  0
  4  5  1  0
  4  6  1  0
  6  7  1  0
  7  8  1  0
  8  9  1  0
  9  2  1  0
  1 10  1  0
  1 11  1  0
  1 12  1  0
  3 13  1  0
  4 14  1  0
  5 15  1  0
  5 16  1  0
  5 17  1  0
  6 18  1  0
  6 19  1  0
  7 20  1  0
  7 21  1  0
  9 22  1  0
  9 23  1  0
M  END
