
     RDKit          3D

 21 21  0  0  0  0  0  0  0  0999 V2000
    2.9161   -0.6424    0.4818 C   0  0  0  0  0  0  0  0  0  0  0  0
    1.5874   -0.1576    0.0465 C   0  0  0  0  0  0  0  0  0  0  0  0
    0.6775   -1.0942   -0.1704 C   0  0  0  0  0  0  0  0  0  0  0  0
   -0.7148   -1.0586   -0.5965 C   0  0  0  0  0  0  0  0  0  0  0  0
   -1.5170    0.0854   -0.1569 C   0  0  0  0  0  0  0  0  0  0  0  0
   -2.9877   -0.1563    0.0938 C   0  0  0  0  0  0  0  0  0  0  0  0
   -1.1014    1.3263    0.0506 C   0  0  0  0  0  0  0  0  0  0  0  0
    0.2422    1.9053   -0.0932 C   0  0  0  0  0  0  0  0  0  0  0  0
    1.4156    1.2764   -0.0970 C   0  0  0  0  0  0  0  0  0  0  0  0
    2.8050   -1.2032    1.4524 H   0  0  0  0  0  0  0  0  0  0  0  0
    3.6242    0.1958    0.5880 H   0  0  0  0  0  0  0  0  0  0  0  0
    3.2664   -1.3836   -0.2914 H   0  0  0  0  0  0  0  0  0  0  0  0
    1.0636   -2.0939    0.0105 H   0  0  0  0  0  0  0  0  0  0  0  0
   -0.7766   -1.1898   -1.7114 H   0  0  0  0  0  0  0  0  0  0  0  0
   -1.2398   -1.9762   -0.1910 H   0  0  0  0  0  0  0  0  0  0  0  0
   -3.1746   -1.2349   -0.0330 H   0  0  0  0  0  0  0  0  0  0  0  0
   -3.6190    0.4958   -0.5058 H   0  0  0  0  0  0  0  0  0  0  0  0
   -3.2110    0.0729    1.1670 H   0  0  0  0  0  0  0  0  0  0  0  0
   -1.8927    2.0195    0.3799 H   0  0  0  0  0  0  0  0  0  0  0  0
    0.3147    2.9582   -0.2098 H   0  0  0  0  0  0  0  0  0  0  0  0
    2.3218    1.8551   -0.2141 H   0  0  0  0  0  0  0  0  0  0  0  0
  1  2  1  0
  2  3  2  0
  3  4  1  0
  4  5  1  0
  5  6  1  0
  5  7  2  0
  7  8  1  0
  8  9  2  0
  9  2  1  0
  1 10  1  0
  1 11  1  0
  1 12  1  0
  3 13  1  0
  4 14  1  0
  4 15  1  0
  6 16  1  0
  6 17  1  0
  6 18  1  0
  7 19  1  0
  8 20  1  0
  9 21  1  0
M  END
