
     RDKit          3D

 23 23  0  0  0  0  0  0  0  0999 V2000
    0.5685    2.0258    0.1689 C   0  0  0  0  0  0  0  0  0  0  0  0
    0.0460    0.6418   -0.0661 C   0  0  0  0  0  0  0  0  0  0  0  0
    0.7593   -0.4757   -0.0097 C   0  0  0  0  0  0  0  0  0  0  0  0
    2.2140   -0.5864    0.2959 C   0  0  0  0  0  0  0  0  0  0  0  0
    2.7866    0.6411    0.5280 O   0  0  0  0  0  0  0  0  0  0  0  0
   -0.1072   -1.6605   -0.3027 C   0  0  0  0  0  0  0  0  0  0  0  0
   -1.2503   -1.0069   -1.0740 C   0  0  0  0  0  0  0  0  0  0  0  0
   -1.3476    0.3211   -0.3954 C   0  0  0  0  0  0  0  0  0  0  0  0
   -2.2325    0.1741    0.8130 C   0  0  0  0  0  0  0  0  0  0  0  0
    0.9558    2.1576    1.1982 H   0  0  0  0  0  0  0  0  0  0  0  0
   -0.1929    2.7892   -0.0847 H   0  0  0  0  0  0  0  0  0  0  0  0
    1.4386    2.2450   -0.5070 H   0  0  0  0  0  0  0  0  0  0  0  0
    2.7187   -1.1336   -0.5478 H   0  0  0  0  0  0  0  0  0  0  0  0
    2.2944   -1.2838    1.1714 H   0  0  0  0  0  0  0  0  0  0  0  0
    3.7255    0.6011    0.1683 H   0  0  0  0  0  0  0  0  0  0  0  0
   -0.4495   -2.1671    0.5991 H   0  0  0  0  0  0  0  0  0  0  0  0
    0.4426   -2.3121   -1.0126 H   0  0  0  0  0  0  0  0  0  0  0  0
   -2.1648   -1.5964   -1.0646 H   0  0  0  0  0  0  0  0  0  0  0  0
   -0.9185   -0.8191   -2.1240 H   0  0  0  0  0  0  0  0  0  0  0  0
   -1.8171    1.1016   -1.0420 H   0  0  0  0  0  0  0  0  0  0  0  0
   -1.7253   -0.3721    1.6493 H   0  0  0  0  0  0  0  0  0  0  0  0
   -2.6264    1.1550    1.1503 H   0  0  0  0  0  0  0  0  0  0  0  0
   -3.1178   -0.4397    0.4883 H   0  0  0  0  0  0  0  0  0  0  0  0
  1  2  1  0
  2  3  2  0
  3  4  1  0
  4  5  1  0
  3  6  1  0
  6  7  1  0
  7  8  1  0
  8  9  1  0
  8  2  1  0
  1 10  1  0
  1 11  1  0
  1 12  1  0
  4 13  1  0
  4 14  1  0
  5 15  1  0
  6 16  1  0
  6 17  1  0
  7 18  1  0
  7 19  1  0
  8 20  1  0
  9 21  1  0
  9 22  1  0
  9 23  1  0
M  END
