
     RDKit          3D

 19 20  0  0  0  0  0  0  0  0999 V2000
    2.4637   -0.3674   -0.3564 C   0  0  0  0  0  0  0  0  0  0  0  0
    1.0715    0.1116   -0.1347 C   0  0  0  0  0  0  0  0  0  0  0  0
    0.6121    1.2609   -0.6052 C   0  0  0  0  0  0  0  0  0  0  0  0
   -0.8095    1.4593   -0.2194 C   0  0  0  0  0  0  0  0  0  0  0  0
   -1.0659    0.3881    0.8056 C   0  0  0  0  0  0  0  0  0  0  0  0
   -2.0061   -0.6636    0.3450 C   0  0  0  0  0  0  0  0  0  0  0  0
   -0.8602   -1.4785   -0.1852 C   0  0  0  0  0  0  0  0  0  0  0  0
   -0.6647   -2.4126   -0.9240 O   0  0  0  0  0  0  0  0  0  0  0  0
    0.0487   -0.6189    0.6221 C   0  0  0  0  0  0  0  0  0  0  0  0
    2.5973   -1.4143    0.0039 H   0  0  0  0  0  0  0  0  0  0  0  0
    2.6810   -0.4001   -1.4611 H   0  0  0  0  0  0  0  0  0  0  0  0
    3.2092    0.2911    0.1594 H   0  0  0  0  0  0  0  0  0  0  0  0
    1.1806    1.9677   -1.1908 H   0  0  0  0  0  0  0  0  0  0  0  0
   -1.5014    1.3556   -1.0824 H   0  0  0  0  0  0  0  0  0  0  0  0
   -0.9858    2.4700    0.2147 H   0  0  0  0  0  0  0  0  0  0  0  0
   -1.1234    0.7167    1.8501 H   0  0  0  0  0  0  0  0  0  0  0  0
   -2.6626   -0.4010   -0.5229 H   0  0  0  0  0  0  0  0  0  0  0  0
   -2.5645   -1.1184    1.1622 H   0  0  0  0  0  0  0  0  0  0  0  0
    0.3799   -1.1461    1.5191 H   0  0  0  0  0  0  0  0  0  0  0  0
  1  2  1  0
  2  3  2  0
  3  4  1  0
  4  5  1  0
  5  6  1  0
  6  7  1  0
  7  8  2  0
  7  9  1  0
  9  2  1  0
  9  5  1  0
  1 10  1  0
  1 11  1  0
  1 12  1  0
  3 13  1  0
  4 14  1  0
  4 15  1  0
  5 16  1  0
  6 17  1  0
  6 18  1  0
  9 19  1  0
M  END
