
     RDKit          3D

 19 20  0  0  0  0  0  0  0  0999 V2000
   -2.7740    0.1295   -0.1234 C   0  0  0  0  0  0  0  0  0  0  0  0
   -1.3466    0.1499    0.3054 C   0  0  0  0  0  0  0  0  0  0  0  0
   -0.8942   -0.1329    1.5007 C   0  0  0  0  0  0  0  0  0  0  0  0
    0.5703   -0.0157    1.5882 C   0  0  0  0  0  0  0  0  0  0  0  0
    1.2333    1.1161    1.1954 O   0  0  0  0  0  0  0  0  0  0  0  0
    0.9965    0.2309    0.1770 C   0  0  0  0  0  0  0  0  0  0  0  0
    2.0434   -0.6558   -0.3805 C   0  0  0  0  0  0  0  0  0  0  0  0
    3.1105    0.0655   -0.9100 O   0  0  0  0  0  0  0  0  0  0  0  0
   -0.2469    0.5106   -0.6269 C   0  0  0  0  0  0  0  0  0  0  0  0
   -3.3909    0.6455    0.6506 H   0  0  0  0  0  0  0  0  0  0  0  0
   -2.9431    0.5752   -1.1016 H   0  0  0  0  0  0  0  0  0  0  0  0
   -3.0565   -0.9543   -0.1849 H   0  0  0  0  0  0  0  0  0  0  0  0
   -1.5193   -0.4233    2.3431 H   0  0  0  0  0  0  0  0  0  0  0  0
    1.1530   -0.7250    2.2167 H   0  0  0  0  0  0  0  0  0  0  0  0
    1.6118   -1.3283   -1.1453 H   0  0  0  0  0  0  0  0  0  0  0  0
    2.4511   -1.2866    0.4188 H   0  0  0  0  0  0  0  0  0  0  0  0
    3.5155    0.5961   -0.2029 H   0  0  0  0  0  0  0  0  0  0  0  0
   -0.2451    1.5924   -0.8605 H   0  0  0  0  0  0  0  0  0  0  0  0
   -0.2688   -0.0899   -1.5359 H   0  0  0  0  0  0  0  0  0  0  0  0
  1  2  1  0
  2  3  2  0
  3  4  1  0
  4  5  1  0
  5  6  1  0
  6  7  1  0
  7  8  1  0
  6  9  1  0
  9  2  1  0
  6  4  1  0
  1 10  1  0
  1 11  1  0
  1 12  1  0
  3 13  1  0
  4 14  1  0
  7 15  1  0
  7 16  1  0
  8 17  1  0
  9 18  1  0
  9 19  1  0
M  END
