
     RDKit          3D

 21 22  0  0  0  0  0  0  0  0999 V2000
   -2.1127    0.6023   -0.6339 C   0  0  0  0  0  0  0  0  0  0  0  0
   -0.8885   -0.1528   -0.2805 C   0  0  0  0  0  0  0  0  0  0  0  0
   -0.7309   -1.4568   -0.4596 C   0  0  0  0  0  0  0  0  0  0  0  0
    0.5821   -2.0782   -0.0480 C   0  0  0  0  0  0  0  0  0  0  0  0
    1.3983   -1.0051    0.6352 C   0  0  0  0  0  0  0  0  0  0  0  0
    1.5590    0.1582   -0.3291 C   0  0  0  0  0  0  0  0  0  0  0  0
    0.2541    0.5802    0.3170 C   0  0  0  0  0  0  0  0  0  0  0  0
    0.0944    2.0497    0.4973 C   0  0  0  0  0  0  0  0  0  0  0  0
    0.6473   -0.1541    1.4323 O   0  0  0  0  0  0  0  0  0  0  0  0
   -2.7770   -0.0398   -1.2705 H   0  0  0  0  0  0  0  0  0  0  0  0
   -2.6847    0.9051    0.2914 H   0  0  0  0  0  0  0  0  0  0  0  0
   -1.8457    1.4855   -1.2500 H   0  0  0  0  0  0  0  0  0  0  0  0
   -1.5015   -2.0839   -0.8855 H   0  0  0  0  0  0  0  0  0  0  0  0
    0.4249   -2.9507    0.6075 H   0  0  0  0  0  0  0  0  0  0  0  0
    1.0869   -2.3991   -0.9859 H   0  0  0  0  0  0  0  0  0  0  0  0
    2.3327   -1.3707    1.0765 H   0  0  0  0  0  0  0  0  0  0  0  0
    2.3895    0.7968   -0.0371 H   0  0  0  0  0  0  0  0  0  0  0  0
    1.4753   -0.1190   -1.3988 H   0  0  0  0  0  0  0  0  0  0  0  0
    0.0693    2.5107   -0.5246 H   0  0  0  0  0  0  0  0  0  0  0  0
    1.0078    2.4287    0.9986 H   0  0  0  0  0  0  0  0  0  0  0  0
   -0.7806    2.2931    1.0983 H   0  0  0  0  0  0  0  0  0  0  0  0
  1  2  1  0
  2  3  2  0
  3  4  1  0
  4  5  1  0
  5  6  1  0
  6  7  1  0
  7  8  1  0
  7  9  1  0
  7  2  1  0
  9  5  1  0
  1 10  1  0
  1 11  1  0
  1 12  1  0
  3 13  1  0
  4 14  1  0
  4 15  1  0
  5 16  1  0
  6 17  1  0
  6 18  1  0
  8 19  1  0
  8 20  1  0
  8 21  1  0
M  END
