
     RDKit          3D

 23 23  0  0  0  0  0  0  0  0999 V2000
    1.2148    2.0398    0.4860 C   0  0  0  0  0  0  0  0  0  0  0  0
    0.2974    0.9837    0.0111 C   0  0  0  0  0  0  0  0  0  0  0  0
   -1.0199    1.0563    0.0913 C   0  0  0  0  0  0  0  0  0  0  0  0
   -1.6449   -0.1774   -0.4790 C   0  0  0  0  0  0  0  0  0  0  0  0
   -2.6716   -0.6414    0.5437 C   0  0  0  0  0  0  0  0  0  0  0  0
   -0.5302   -1.1627   -0.6484 C   0  0  0  0  0  0  0  0  0  0  0  0
    0.6907   -0.2785   -0.6080 C   0  0  0  0  0  0  0  0  0  0  0  0
    1.7990   -0.9976    0.1028 C   0  0  0  0  0  0  0  0  0  0  0  0
    2.9657   -0.2831    0.1870 O   0  0  0  0  0  0  0  0  0  0  0  0
    1.9302    1.6329    1.2163 H   0  0  0  0  0  0  0  0  0  0  0  0
    0.6703    2.8773    0.9967 H   0  0  0  0  0  0  0  0  0  0  0  0
    1.7097    2.4850   -0.4078 H   0  0  0  0  0  0  0  0  0  0  0  0
   -1.6465    1.8605    0.4987 H   0  0  0  0  0  0  0  0  0  0  0  0
   -2.1095    0.0943   -1.4377 H   0  0  0  0  0  0  0  0  0  0  0  0
   -3.5871   -0.0415    0.3496 H   0  0  0  0  0  0  0  0  0  0  0  0
   -2.8280   -1.7207    0.5303 H   0  0  0  0  0  0  0  0  0  0  0  0
   -2.3118   -0.3856    1.5799 H   0  0  0  0  0  0  0  0  0  0  0  0
   -0.5380   -1.6637   -1.6501 H   0  0  0  0  0  0  0  0  0  0  0  0
   -0.4812   -1.9071    0.1755 H   0  0  0  0  0  0  0  0  0  0  0  0
    1.0503   -0.0555   -1.6508 H   0  0  0  0  0  0  0  0  0  0  0  0
    2.0024   -1.9452   -0.4372 H   0  0  0  0  0  0  0  0  0  0  0  0
    1.4594   -1.3085    1.1279 H   0  0  0  0  0  0  0  0  0  0  0  0
    3.5786   -0.4613   -0.5779 H   0  0  0  0  0  0  0  0  0  0  0  0
  1  2  1  0
  2  3  2  0
  3  4  1  0
  4  5  1  0
  4  6  1  0
  6  7  1  0
  7  8  1  0
  8  9  1  0
  7  2  1  0
  1 10  1  0
  1 11  1  0
  1 12  1  0
  3 13  1  0
  4 14  1  0
  5 15  1  0
  5 16  1  0
  5 17  1  0
  6 18  1  0
  6 19  1  0
  7 20  1  0
  8 21  1  0
  8 22  1  0
  9 23  1  0
M  END
