
     RDKit          3D

 19 20  0  0  0  0  0  0  0  0999 V2000
    2.2493   -0.3115   -0.5730 C   0  0  0  0  0  0  0  0  0  0  0  0
    0.9020    0.0962   -0.1933 C   0  0  0  0  0  0  0  0  0  0  0  0
    0.5119    1.3364    0.0879 C   0  0  0  0  0  0  0  0  0  0  0  0
   -0.9621    1.4407    0.2894 C   0  0  0  0  0  0  0  0  0  0  0  0
   -1.5296    0.9691   -0.9146 O   0  0  0  0  0  0  0  0  0  0  0  0
   -1.4057   -0.4172   -0.9491 C   0  0  0  0  0  0  0  0  0  0  0  0
   -0.2609   -0.8686   -0.0666 C   0  0  0  0  0  0  0  0  0  0  0  0
   -0.7739   -0.6199    1.3611 C   0  0  0  0  0  0  0  0  0  0  0  0
   -1.3452    0.6270    1.3537 O   0  0  0  0  0  0  0  0  0  0  0  0
    2.3854   -1.3792   -0.2805 H   0  0  0  0  0  0  0  0  0  0  0  0
    2.3857   -0.1376   -1.6524 H   0  0  0  0  0  0  0  0  0  0  0  0
    2.9831    0.2689    0.0239 H   0  0  0  0  0  0  0  0  0  0  0  0
    1.1601    2.1897    0.1681 H   0  0  0  0  0  0  0  0  0  0  0  0
   -1.2652    2.4672    0.5054 H   0  0  0  0  0  0  0  0  0  0  0  0
   -1.2004   -0.7707   -1.9790 H   0  0  0  0  0  0  0  0  0  0  0  0
   -2.3570   -0.8425   -0.5580 H   0  0  0  0  0  0  0  0  0  0  0  0
    0.0577   -1.8863   -0.2340 H   0  0  0  0  0  0  0  0  0  0  0  0
    0.0358   -0.7627    2.0777 H   0  0  0  0  0  0  0  0  0  0  0  0
   -1.5710   -1.3990    1.5332 H   0  0  0  0  0  0  0  0  0  0  0  0
  1  2  1  0
  2  3  2  0
  3  4  1  0
  4  5  1  0
  5  6  1  0
  6  7  1  0
  7  8  1  0
  8  9  1  0
  7  2  1  0
  9  4  1  0
  1 10  1  0
  1 11  1  0
  1 12  1  0
  3 13  1  0
  4 14  1  0
  6 15  1  0
  6 16  1  0
  7 17  1  0
  8 18  1  0
  8 19  1  0
M  END
