
     RDKit          3D

 19 19  0  0  0  0  0  0  0  0999 V2000
   -1.7309   -1.5952    0.0631 C   0  0  0  0  0  0  0  0  0  0  0  0
   -0.5658   -0.7424   -0.2573 C   0  0  0  0  0  0  0  0  0  0  0  0
    0.6973   -1.1572   -0.2526 C   0  0  0  0  0  0  0  0  0  0  0  0
    1.5925   -0.0326   -0.6222 C   0  0  0  0  0  0  0  0  0  0  0  0
    2.3815    0.4479    0.5528 C   0  0  0  0  0  0  0  0  0  0  0  0
    2.2838    1.5608    1.0175 O   0  0  0  0  0  0  0  0  0  0  0  0
    0.7423    0.9519   -1.1065 O   0  0  0  0  0  0  0  0  0  0  0  0
   -0.5174    0.6880   -0.6369 C   0  0  0  0  0  0  0  0  0  0  0  0
   -0.8673    1.6156    0.4794 C   0  0  0  0  0  0  0  0  0  0  0  0
   -2.6738   -1.1262   -0.2695 H   0  0  0  0  0  0  0  0  0  0  0  0
   -1.8241   -1.8078    1.1566 H   0  0  0  0  0  0  0  0  0  0  0  0
   -1.6878   -2.5905   -0.4386 H   0  0  0  0  0  0  0  0  0  0  0  0
    1.0706   -2.1543   -0.0213 H   0  0  0  0  0  0  0  0  0  0  0  0
    2.2365   -0.3604   -1.4578 H   0  0  0  0  0  0  0  0  0  0  0  0
    3.0757   -0.2502    1.0035 H   0  0  0  0  0  0  0  0  0  0  0  0
   -1.2973    0.8270   -1.4353 H   0  0  0  0  0  0  0  0  0  0  0  0
   -0.4237    1.3554    1.4522 H   0  0  0  0  0  0  0  0  0  0  0  0
   -0.5063    2.6339    0.1937 H   0  0  0  0  0  0  0  0  0  0  0  0
   -1.9857    1.7363    0.5792 H   0  0  0  0  0  0  0  0  0  0  0  0
  1  2  1  0
  2  3  2  0
  3  4  1  0
  4  5  1  0
  5  6  2  0
  4  7  1  0
  7  8  1  0
  8  9  1  0
  8  2  1  0
  1 10  1  0
  1 11  1  0
  1 12  1  0
  3 13  1  0
  4 14  1  0
  5 15  1  0
  8 16  1  0
  9 17  1  0
  9 18  1  0
  9 19  1  0
M  END
