
     RDKit          3D

 19 20  0  0  0  0  0  0  0  0999 V2000
    2.5753   -0.0004   -0.0778 C   0  0  0  0  0  0  0  0  0  0  0  0
    1.0857    0.1067    0.0882 C   0  0  0  0  0  0  0  0  0  0  0  0
    0.3123    1.1040   -0.3162 C   0  0  0  0  0  0  0  0  0  0  0  0
   -1.1115    0.8694    0.0181 C   0  0  0  0  0  0  0  0  0  0  0  0
   -1.8923    1.9109    0.4852 O   0  0  0  0  0  0  0  0  0  0  0  0
   -1.8172   -0.3217   -0.4807 C   0  0  0  0  0  0  0  0  0  0  0  0
   -1.3069   -1.0730   -1.5513 O   0  0  0  0  0  0  0  0  0  0  0  0
   -1.0875   -0.4195    0.7967 C   0  0  0  0  0  0  0  0  0  0  0  0
    0.3001   -0.9583    0.7597 C   0  0  0  0  0  0  0  0  0  0  0  0
    2.9533    1.0023   -0.2935 H   0  0  0  0  0  0  0  0  0  0  0  0
    2.8473   -0.7714   -0.8004 H   0  0  0  0  0  0  0  0  0  0  0  0
    2.9820   -0.3133    0.9169 H   0  0  0  0  0  0  0  0  0  0  0  0
    0.6863    1.9767   -0.8265 H   0  0  0  0  0  0  0  0  0  0  0  0
   -1.3947    2.6965    0.7803 H   0  0  0  0  0  0  0  0  0  0  0  0
   -2.9066   -0.3307   -0.4321 H   0  0  0  0  0  0  0  0  0  0  0  0
   -1.7191   -1.9867   -1.4523 H   0  0  0  0  0  0  0  0  0  0  0  0
   -1.5862   -0.3662    1.7801 H   0  0  0  0  0  0  0  0  0  0  0  0
    0.6993   -1.2225    1.7582 H   0  0  0  0  0  0  0  0  0  0  0  0
    0.3805   -1.9027    0.1482 H   0  0  0  0  0  0  0  0  0  0  0  0
  1  2  1  0
  2  3  2  0
  3  4  1  0
  4  5  1  0
  4  6  1  0
  6  7  1  0
  6  8  1  0
  8  9  1  0
  9  2  1  0
  8  4  1  0
  1 10  1  0
  1 11  1  0
  1 12  1  0
  3 13  1  0
  5 14  1  0
  6 15  1  0
  7 16  1  0
  8 17  1  0
  9 18  1  0
  9 19  1  0
M  END
