
     RDKit          3D

 23 24  0  0  0  0  0  0  0  0999 V2000
    1.8973    1.5073    0.1358 C   0  0  0  0  0  0  0  0  0  0  0  0
    0.6821    0.6730   -0.0708 C   0  0  0  0  0  0  0  0  0  0  0  0
    0.7277   -0.6487   -0.0474 C   0  0  0  0  0  0  0  0  0  0  0  0
    2.0363   -1.3402    0.1934 C   0  0  0  0  0  0  0  0  0  0  0  0
   -0.4627   -1.4929   -0.2496 C   0  0  0  0  0  0  0  0  0  0  0  0
   -1.7305   -0.7929   -0.4461 C   0  0  0  0  0  0  0  0  0  0  0  0
   -2.3463   -0.0680    0.7355 C   0  0  0  0  0  0  0  0  0  0  0  0
   -1.7790    0.6403   -0.4717 C   0  0  0  0  0  0  0  0  0  0  0  0
   -0.5644    1.4324   -0.3013 C   0  0  0  0  0  0  0  0  0  0  0  0
    2.0409    2.2077   -0.7383 H   0  0  0  0  0  0  0  0  0  0  0  0
    2.8149    0.9529    0.2444 H   0  0  0  0  0  0  0  0  0  0  0  0
    1.7066    2.1398    1.0260 H   0  0  0  0  0  0  0  0  0  0  0  0
    2.6643   -1.3497   -0.7316 H   0  0  0  0  0  0  0  0  0  0  0  0
    2.5784   -0.9047    1.0526 H   0  0  0  0  0  0  0  0  0  0  0  0
    1.8823   -2.4096    0.4512 H   0  0  0  0  0  0  0  0  0  0  0  0
   -0.5028   -2.2056    0.6240 H   0  0  0  0  0  0  0  0  0  0  0  0
   -0.2533   -2.1549   -1.1331 H   0  0  0  0  0  0  0  0  0  0  0  0
   -2.5033   -1.3583   -1.0454 H   0  0  0  0  0  0  0  0  0  0  0  0
   -3.4417   -0.1094    0.8888 H   0  0  0  0  0  0  0  0  0  0  0  0
   -1.7603   -0.0930    1.6757 H   0  0  0  0  0  0  0  0  0  0  0  0
   -2.5880    1.1261   -1.0930 H   0  0  0  0  0  0  0  0  0  0  0  0
   -0.7074    2.1920    0.5220 H   0  0  0  0  0  0  0  0  0  0  0  0
   -0.3911    2.0566   -1.2210 H   0  0  0  0  0  0  0  0  0  0  0  0
  1  2  1  0
  2  3  2  0
  3  4  1  0
  3  5  1  0
  5  6  1  0
  6  7  1  0
  7  8  1  0
  8  9  1  0
  9  2  1  0
  8  6  1  0
  1 10  1  0
  1 11  1  0
  1 12  1  0
  4 13  1  0
  4 14  1  0
  4 15  1  0
  5 16  1  0
  5 17  1  0
  6 18  1  0
  7 19  1  0
  7 20  1  0
  8 21  1  0
  9 22  1  0
  9 23  1  0
M  END
