
     RDKit          3D

 21 22  0  0  0  0  0  0  0  0999 V2000
    2.7327   -0.1332    0.3796 C   0  0  0  0  0  0  0  0  0  0  0  0
    1.2548   -0.0172    0.2010 C   0  0  0  0  0  0  0  0  0  0  0  0
    0.7410    1.1542   -0.1552 C   0  0  0  0  0  0  0  0  0  0  0  0
   -0.5897    1.1086   -0.8674 C   0  0  0  0  0  0  0  0  0  0  0  0
   -1.6716    0.9897    0.1637 C   0  0  0  0  0  0  0  0  0  0  0  0
   -2.0508   -0.4652    0.0915 C   0  0  0  0  0  0  0  0  0  0  0  0
   -0.8117   -1.0656   -0.5563 C   0  0  0  0  0  0  0  0  0  0  0  0
    0.3302   -1.1698    0.4078 C   0  0  0  0  0  0  0  0  0  0  0  0
   -0.5776   -0.1196   -1.5686 O   0  0  0  0  0  0  0  0  0  0  0  0
    3.0346   -1.0024    0.9656 H   0  0  0  0  0  0  0  0  0  0  0  0
    3.2358   -0.2342   -0.6222 H   0  0  0  0  0  0  0  0  0  0  0  0
    3.0920    0.8318    0.7904 H   0  0  0  0  0  0  0  0  0  0  0  0
    1.2518    2.0690    0.0568 H   0  0  0  0  0  0  0  0  0  0  0  0
   -0.7126    1.9532   -1.5473 H   0  0  0  0  0  0  0  0  0  0  0  0
   -1.2999    1.1812    1.2068 H   0  0  0  0  0  0  0  0  0  0  0  0
   -2.5272    1.6401   -0.0787 H   0  0  0  0  0  0  0  0  0  0  0  0
   -2.3014   -0.9186    1.0464 H   0  0  0  0  0  0  0  0  0  0  0  0
   -2.8669   -0.5644   -0.6528 H   0  0  0  0  0  0  0  0  0  0  0  0
   -1.1063   -2.0270   -0.9914 H   0  0  0  0  0  0  0  0  0  0  0  0
   -0.0140   -1.0884    1.4758 H   0  0  0  0  0  0  0  0  0  0  0  0
    0.8568   -2.1222    0.2545 H   0  0  0  0  0  0  0  0  0  0  0  0
  1  2  1  0
  2  3  2  0
  3  4  1  0
  4  5  1  0
  5  6  1  0
  6  7  1  0
  7  8  1  0
  7  9  1  0
  8  2  1  0
  9  4  1  0
  1 10  1  0
  1 11  1  0
  1 12  1  0
  3 13  1  0
  4 14  1  0
  5 15  1  0
  5 16  1  0
  6 17  1  0
  6 18  1  0
  7 19  1  0
  8 20  1  0
  8 21  1  0
M  END
