
     RDKit          3D

 17 18  0  0  0  0  0  0  0  0999 V2000
    2.2414   -0.4114   -0.2906 C   0  0  0  0  0  0  0  0  0  0  0  0
    0.9028    0.2057   -0.1046 C   0  0  0  0  0  0  0  0  0  0  0  0
    0.6089    1.4765   -0.3205 C   0  0  0  0  0  0  0  0  0  0  0  0
   -0.8451    1.5860   -0.0046 C   0  0  0  0  0  0  0  0  0  0  0  0
   -1.3827    2.5591    0.5224 O   0  0  0  0  0  0  0  0  0  0  0  0
   -1.2977    0.2728   -0.4997 C   0  0  0  0  0  0  0  0  0  0  0  0
   -1.4669   -1.0121    0.0177 C   0  0  0  0  0  0  0  0  0  0  0  0
   -2.5259   -1.2217    0.9188 O   0  0  0  0  0  0  0  0  0  0  0  0
   -0.2619   -0.4409    0.4212 C   0  0  0  0  0  0  0  0  0  0  0  0
    2.8873    0.0028    0.5381 H   0  0  0  0  0  0  0  0  0  0  0  0
    2.2136   -1.4927   -0.1558 H   0  0  0  0  0  0  0  0  0  0  0  0
    2.6698   -0.1646   -1.2783 H   0  0  0  0  0  0  0  0  0  0  0  0
    1.2787    2.3025   -0.6435 H   0  0  0  0  0  0  0  0  0  0  0  0
   -1.1180    0.2712   -1.6099 H   0  0  0  0  0  0  0  0  0  0  0  0
   -1.4008   -1.9237   -0.6482 H   0  0  0  0  0  0  0  0  0  0  0  0
   -2.2014   -1.8684    1.6004 H   0  0  0  0  0  0  0  0  0  0  0  0
   -0.3021   -0.1409    1.5370 H   0  0  0  0  0  0  0  0  0  0  0  0
  1  2  1  0
  2  3  2  0
  3  4  1  0
  4  5  2  0
  4  6  1  0
  6  7  1  0
  7  8  1  0
  7  9  1  0
  9  2  1  0
  9  6  1  0
  1 10  1  0
  1 11  1  0
  1 12  1  0
  3 13  1  0
  6 14  1  0
  7 15  1  0
  8 16  1  0
  9 17  1  0
M  END
