
     RDKit          3D

 20 20  0  0  0  0  0  0  0  0999 V2000
    2.0478    0.7536    0.5022 C   0  0  0  0  0  0  0  0  0  0  0  0
    0.7929    0.0577    0.0910 C   0  0  0  0  0  0  0  0  0  0  0  0
   -0.3042    0.6400   -0.2817 C   0  0  0  0  0  0  0  0  0  0  0  0
   -0.6212    2.1092   -0.4038 C   0  0  0  0  0  0  0  0  0  0  0  0
   -1.3225   -0.3814   -0.6103 C   0  0  0  0  0  0  0  0  0  0  0  0
   -0.8118   -1.6980   -0.1258 C   0  0  0  0  0  0  0  0  0  0  0  0
   -1.4570   -2.0610    1.0434 O   0  0  0  0  0  0  0  0  0  0  0  0
    0.6507   -1.4126    0.0598 C   0  0  0  0  0  0  0  0  0  0  0  0
    2.1731    1.7332    0.0449 H   0  0  0  0  0  0  0  0  0  0  0  0
    2.1125    0.7811    1.6212 H   0  0  0  0  0  0  0  0  0  0  0  0
    2.9192    0.1288    0.1790 H   0  0  0  0  0  0  0  0  0  0  0  0
   -1.5633    2.2550    0.1695 H   0  0  0  0  0  0  0  0  0  0  0  0
    0.1962    2.7392   -0.0518 H   0  0  0  0  0  0  0  0  0  0  0  0
   -0.8978    2.3363   -1.4713 H   0  0  0  0  0  0  0  0  0  0  0  0
   -1.4897   -0.3596   -1.7204 H   0  0  0  0  0  0  0  0  0  0  0  0
   -2.2635   -0.0969   -0.0773 H   0  0  0  0  0  0  0  0  0  0  0  0
   -1.0062   -2.4605   -0.9153 H   0  0  0  0  0  0  0  0  0  0  0  0
   -1.4441   -1.3549    1.7097 H   0  0  0  0  0  0  0  0  0  0  0  0
    1.2615   -1.8622   -0.7755 H   0  0  0  0  0  0  0  0  0  0  0  0
    1.0271   -1.8469    1.0125 H   0  0  0  0  0  0  0  0  0  0  0  0
  1  2  1  0
  2  3  2  0
  3  4  1  0
  3  5  1  0
  5  6  1  0
  6  7  1  0
  6  8  1  0
  8  2  1  0
  1  9  1  0
  1 10  1  0
  1 11  1  0
  4 12  1  0
  4 13  1  0
  4 14  1  0
  5 15  1  0
  5 16  1  0
  6 17  1  0
  7 18  1  0
  8 19  1  0
  8 20  1  0
M  END
