
     RDKit          3D

 23 23  0  0  0  0  0  0  0  0999 V2000
   -2.6002   -0.1873    0.3792 C   0  0  0  0  0  0  0  0  0  0  0  0
   -1.1980   -0.2398   -0.1748 C   0  0  0  0  0  0  0  0  0  0  0  0
   -0.2531    0.6487    0.0782 C   0  0  0  0  0  0  0  0  0  0  0  0
   -0.4189    1.8300    0.9402 C   0  0  0  0  0  0  0  0  0  0  0  0
    0.9768    0.2548   -0.6431 C   0  0  0  0  0  0  0  0  0  0  0  0
    2.2166    0.3770    0.2051 C   0  0  0  0  0  0  0  0  0  0  0  0
    2.0617   -0.4601    1.3147 O   0  0  0  0  0  0  0  0  0  0  0  0
    0.7846   -1.2174   -0.9650 C   0  0  0  0  0  0  0  0  0  0  0  0
   -0.7092   -1.3136   -1.0837 C   0  0  0  0  0  0  0  0  0  0  0  0
   -2.6212   -0.6031    1.4079 H   0  0  0  0  0  0  0  0  0  0  0  0
   -2.9669    0.8628    0.3856 H   0  0  0  0  0  0  0  0  0  0  0  0
   -3.2821   -0.7955   -0.2349 H   0  0  0  0  0  0  0  0  0  0  0  0
   -0.8392    1.5876    1.9480 H   0  0  0  0  0  0  0  0  0  0  0  0
    0.5353    2.3801    1.0953 H   0  0  0  0  0  0  0  0  0  0  0  0
   -1.1273    2.5902    0.5133 H   0  0  0  0  0  0  0  0  0  0  0  0
    1.0859    0.8495   -1.5530 H   0  0  0  0  0  0  0  0  0  0  0  0
    2.4523    1.4105    0.4820 H   0  0  0  0  0  0  0  0  0  0  0  0
    3.0619   -0.0329   -0.3853 H   0  0  0  0  0  0  0  0  0  0  0  0
    2.5753   -1.2910    1.2324 H   0  0  0  0  0  0  0  0  0  0  0  0
    1.1332   -1.8145   -0.1198 H   0  0  0  0  0  0  0  0  0  0  0  0
    1.3067   -1.4901   -1.9123 H   0  0  0  0  0  0  0  0  0  0  0  0
   -1.0722   -1.0368   -2.1108 H   0  0  0  0  0  0  0  0  0  0  0  0
   -1.1020   -2.3091   -0.7993 H   0  0  0  0  0  0  0  0  0  0  0  0
  1  2  1  0
  2  3  2  0
  3  4  1  0
  3  5  1  0
  5  6  1  0
  6  7  1  0
  5  8  1  0
  8  9  1  0
  9  2  1  0
  1 10  1  0
  1 11  1  0
  1 12  1  0
  4 13  1  0
  4 14  1  0
  4 15  1  0
  5 16  1  0
  6 17  1  0
  6 18  1  0
  7 19  1  0
  8 20  1  0
  8 21  1  0
  9 22  1  0
  9 23  1  0
M  END
