
     RDKit          3D

 25 25  0  0  0  0  0  0  0  0999 V2000
    2.5241    1.5391   -0.0423 C   0  0  0  0  0  0  0  0  0  0  0  0
    1.1791    0.8533   -0.1211 C   0  0  0  0  0  0  0  0  0  0  0  0
    0.0864    1.3030   -0.7201 C   0  0  0  0  0  0  0  0  0  0  0  0
   -1.0388    0.3321   -0.5739 C   0  0  0  0  0  0  0  0  0  0  0  0
   -2.3587    0.9886   -0.3500 C   0  0  0  0  0  0  0  0  0  0  0  0
   -0.6028   -0.3348    0.7423 C   0  0  0  0  0  0  0  0  0  0  0  0
   -1.3211   -1.6128    0.9915 C   0  0  0  0  0  0  0  0  0  0  0  0
    0.8544   -0.4701    0.4660 C   0  0  0  0  0  0  0  0  0  0  0  0
    1.1713   -1.5144   -0.5775 C   0  0  0  0  0  0  0  0  0  0  0  0
    3.0947    1.0750    0.7726 H   0  0  0  0  0  0  0  0  0  0  0  0
    3.0869    1.4340   -0.9818 H   0  0  0  0  0  0  0  0  0  0  0  0
    2.4070    2.6097    0.2129 H   0  0  0  0  0  0  0  0  0  0  0  0
    0.0576    2.2544   -1.2360 H   0  0  0  0  0  0  0  0  0  0  0  0
   -1.1178   -0.3776   -1.3917 H   0  0  0  0  0  0  0  0  0  0  0  0
   -3.0690    0.2161    0.0070 H   0  0  0  0  0  0  0  0  0  0  0  0
   -2.7709    1.3834   -1.2958 H   0  0  0  0  0  0  0  0  0  0  0  0
   -2.2349    1.7653    0.4284 H   0  0  0  0  0  0  0  0  0  0  0  0
   -0.7451    0.4229    1.5218 H   0  0  0  0  0  0  0  0  0  0  0  0
   -2.2732   -1.7081    0.4119 H   0  0  0  0  0  0  0  0  0  0  0  0
   -0.7299   -2.5191    0.8444 H   0  0  0  0  0  0  0  0  0  0  0  0
   -1.6363   -1.6154    2.0709 H   0  0  0  0  0  0  0  0  0  0  0  0
    1.4651   -0.7079    1.3539 H   0  0  0  0  0  0  0  0  0  0  0  0
    1.0033   -2.5432   -0.2311 H   0  0  0  0  0  0  0  0  0  0  0  0
    0.6875   -1.3412   -1.5362 H   0  0  0  0  0  0  0  0  0  0  0  0
    2.2812   -1.4320   -0.7657 H   0  0  0  0  0  0  0  0  0  0  0  0
  1  2  1  0
  2  3  2  0
  3  4  1  0
  4  5  1  0
  4  6  1  0
  6  7  1  0
  6  8  1  0
  8  9  1  0
  8  2  1  0
  1 10  1  0
  1 11  1  0
  1 12  1  0
  3 13  1  0
  4 14  1  0
  5 15  1  0
  5 16  1  0
  5 17  1  0
  6 18  1  0
  7 19  1  0
  7 20  1  0
  7 21  1  0
  8 22  1  0
  9 23  1  0
  9 24  1  0
  9 25  1  0
M  END
