
     RDKit          3D

 21 22  0  0  0  0  0  0  0  0999 V2000
    2.7307   -0.4567   -0.5435 C   0  0  0  0  0  0  0  0  0  0  0  0
    1.3632   -0.0354   -0.1892 C   0  0  0  0  0  0  0  0  0  0  0  0
    0.8655    1.1909   -0.2980 C   0  0  0  0  0  0  0  0  0  0  0  0
   -0.5528    1.2401    0.1554 C   0  0  0  0  0  0  0  0  0  0  0  0
   -0.5420    1.8417    1.4214 O   0  0  0  0  0  0  0  0  0  0  0  0
   -0.9362   -0.1927    0.2067 C   0  0  0  0  0  0  0  0  0  0  0  0
   -2.2436   -0.6702    0.6760 C   0  0  0  0  0  0  0  0  0  0  0  0
   -1.9878   -0.6552   -0.7800 C   0  0  0  0  0  0  0  0  0  0  0  0
    0.3233   -0.9694    0.3579 C   0  0  0  0  0  0  0  0  0  0  0  0
    2.8558   -1.5389   -0.5312 H   0  0  0  0  0  0  0  0  0  0  0  0
    2.9951   -0.0633   -1.5539 H   0  0  0  0  0  0  0  0  0  0  0  0
    3.4968   -0.0411    0.1691 H   0  0  0  0  0  0  0  0  0  0  0  0
    1.4426    2.0297   -0.6726 H   0  0  0  0  0  0  0  0  0  0  0  0
   -1.1374    1.8358   -0.5759 H   0  0  0  0  0  0  0  0  0  0  0  0
    0.0797    2.6294    1.3282 H   0  0  0  0  0  0  0  0  0  0  0  0
   -2.9615    0.0611    1.1158 H   0  0  0  0  0  0  0  0  0  0  0  0
   -2.2331   -1.6299    1.2587 H   0  0  0  0  0  0  0  0  0  0  0  0
   -1.7941   -1.5820   -1.3385 H   0  0  0  0  0  0  0  0  0  0  0  0
   -2.5543    0.1227   -1.3499 H   0  0  0  0  0  0  0  0  0  0  0  0
    0.5196   -1.2143    1.4108 H   0  0  0  0  0  0  0  0  0  0  0  0
    0.2706   -1.9023   -0.2672 H   0  0  0  0  0  0  0  0  0  0  0  0
  1  2  1  0
  2  3  2  0
  3  4  1  0
  4  5  1  0
  4  6  1  0
  6  7  1  0
  7  8  1  0
  6  9  1  0
  9  2  1  0
  8  6  1  0
  1 10  1  0
  1 11  1  0
  1 12  1  0
  3 13  1  0
  4 14  1  0
  5 15  1  0
  7 16  1  0
  7 17  1  0
  8 18  1  0
  8 19  1  0
  9 20  1  0
  9 21  1  0
M  END
