
     RDKit          3D

 21 21  0  0  0  0  0  0  0  0999 V2000
    1.9896    1.0957    0.1324 C   0  0  0  0  0  0  0  0  0  0  0  0
    0.8303    0.1801   -0.0635 C   0  0  0  0  0  0  0  0  0  0  0  0
   -0.4321    0.5792    0.0388 C   0  0  0  0  0  0  0  0  0  0  0  0
   -0.9741    1.9364    0.3508 C   0  0  0  0  0  0  0  0  0  0  0  0
   -1.3505   -0.5875   -0.2161 C   0  0  0  0  0  0  0  0  0  0  0  0
   -1.7777   -1.0703    0.9954 O   0  0  0  0  0  0  0  0  0  0  0  0
   -0.4711   -1.5338   -0.9829 C   0  0  0  0  0  0  0  0  0  0  0  0
    0.8825   -1.2845   -0.3950 C   0  0  0  0  0  0  0  0  0  0  0  0
    1.1245   -2.0476    0.7424 O   0  0  0  0  0  0  0  0  0  0  0  0
    1.8077    2.1028   -0.3201 H   0  0  0  0  0  0  0  0  0  0  0  0
    2.1345    1.2091    1.2250 H   0  0  0  0  0  0  0  0  0  0  0  0
    2.8657    0.6400   -0.3781 H   0  0  0  0  0  0  0  0  0  0  0  0
   -0.1340    2.5826    0.6181 H   0  0  0  0  0  0  0  0  0  0  0  0
   -1.6849    1.7918    1.1985 H   0  0  0  0  0  0  0  0  0  0  0  0
   -1.5517    2.2623   -0.5286 H   0  0  0  0  0  0  0  0  0  0  0  0
   -2.1908   -0.2640   -0.8891 H   0  0  0  0  0  0  0  0  0  0  0  0
   -2.7606   -0.8462    1.0639 H   0  0  0  0  0  0  0  0  0  0  0  0
   -0.7988   -2.5762   -0.9630 H   0  0  0  0  0  0  0  0  0  0  0  0
   -0.4459   -1.1651   -2.0477 H   0  0  0  0  0  0  0  0  0  0  0  0
    1.6565   -1.5186   -1.1285 H   0  0  0  0  0  0  0  0  0  0  0  0
    1.2807   -1.4863    1.5472 H   0  0  0  0  0  0  0  0  0  0  0  0
  1  2  1  0
  2  3  2  0
  3  4  1  0
  3  5  1  0
  5  6  1  0
  5  7  1  0
  7  8  1  0
  8  9  1  0
  8  2  1  0
  1 10  1  0
  1 11  1  0
  1 12  1  0
  4 13  1  0
  4 14  1  0
  4 15  1  0
  5 16  1  0
  6 17  1  0
  7 18  1  0
  7 19  1  0
  8 20  1  0
  9 21  1  0
M  END
