
     RDKit          3D

 25 25  0  0  0  0  0  0  0  0999 V2000
   -1.2471    2.0918    0.1463 C   0  0  0  0  0  0  0  0  0  0  0  0
   -1.1677    0.6112    0.0056 C   0  0  0  0  0  0  0  0  0  0  0  0
   -0.0419   -0.0644   -0.0799 C   0  0  0  0  0  0  0  0  0  0  0  0
    1.3681    0.4631   -0.0568 C   0  0  0  0  0  0  0  0  0  0  0  0
    2.0270    0.1434   -1.3717 C   0  0  0  0  0  0  0  0  0  0  0  0
    2.1495   -0.1044    1.0827 C   0  0  0  0  0  0  0  0  0  0  0  0
   -0.3796   -1.4967   -0.2189 C   0  0  0  0  0  0  0  0  0  0  0  0
   -1.7278   -1.5998    0.4423 C   0  0  0  0  0  0  0  0  0  0  0  0
   -2.3600   -0.2899   -0.0465 C   0  0  0  0  0  0  0  0  0  0  0  0
   -2.1126    2.3435    0.7930 H   0  0  0  0  0  0  0  0  0  0  0  0
   -1.3613    2.5721   -0.8511 H   0  0  0  0  0  0  0  0  0  0  0  0
   -0.3420    2.4956    0.6464 H   0  0  0  0  0  0  0  0  0  0  0  0
    1.3740    1.5691    0.0476 H   0  0  0  0  0  0  0  0  0  0  0  0
    3.0561    0.5938   -1.3276 H   0  0  0  0  0  0  0  0  0  0  0  0
    1.5198    0.6772   -2.2071 H   0  0  0  0  0  0  0  0  0  0  0  0
    2.1563   -0.9266   -1.5612 H   0  0  0  0  0  0  0  0  0  0  0  0
    1.5609   -0.9388    1.5622 H   0  0  0  0  0  0  0  0  0  0  0  0
    3.1317   -0.5279    0.7836 H   0  0  0  0  0  0  0  0  0  0  0  0
    2.3367    0.6182    1.9048 H   0  0  0  0  0  0  0  0  0  0  0  0
   -0.5167   -1.8040   -1.2767 H   0  0  0  0  0  0  0  0  0  0  0  0
    0.3726   -2.1668    0.2362 H   0  0  0  0  0  0  0  0  0  0  0  0
   -2.3264   -2.4472    0.1199 H   0  0  0  0  0  0  0  0  0  0  0  0
   -1.6147   -1.4991    1.5428 H   0  0  0  0  0  0  0  0  0  0  0  0
   -3.0677    0.0680    0.7290 H   0  0  0  0  0  0  0  0  0  0  0  0
   -2.7872   -0.3814   -1.0450 H   0  0  0  0  0  0  0  0  0  0  0  0
  1  2  1  0
  2  3  2  0
  3  4  1  0
  4  5  1  0
  4  6  1  0
  3  7  1  0
  7  8  1  0
  8  9  1  0
  9  2  1  0
  1 10  1  0
  1 11  1  0
  1 12  1  0
  4 13  1  0
  5 14  1  0
  5 15  1  0
  5 16  1  0
  6 17  1  0
  6 18  1  0
  6 19  1  0
  7 20  1  0
  7 21  1  0
  8 22  1  0
  8 23  1  0
  9 24  1  0
  9 25  1  0
M  END
