
     RDKit          3D

 23 24  0  0  0  0  0  0  0  0999 V2000
    2.5324   -0.5675   -0.9077 C   0  0  0  0  0  0  0  0  0  0  0  0
    1.0559   -0.4391   -0.6388 C   0  0  0  0  0  0  0  0  0  0  0  0
    0.2377   -1.4440   -0.8809 C   0  0  0  0  0  0  0  0  0  0  0  0
   -1.1681   -1.1535   -0.5629 C   0  0  0  0  0  0  0  0  0  0  0  0
   -1.9137    0.0034   -1.0936 C   0  0  0  0  0  0  0  0  0  0  0  0
   -1.0773    0.2161    0.1087 C   0  0  0  0  0  0  0  0  0  0  0  0
   -1.6980    0.2826    1.4846 C   0  0  0  0  0  0  0  0  0  0  0  0
    0.3156    0.6970   -0.1195 C   0  0  0  0  0  0  0  0  0  0  0  0
    0.9265    1.3426    1.0961 C   0  0  0  0  0  0  0  0  0  0  0  0
    2.7683   -0.4664   -1.9720 H   0  0  0  0  0  0  0  0  0  0  0  0
    2.9201   -1.5495   -0.5662 H   0  0  0  0  0  0  0  0  0  0  0  0
    3.0806    0.2072   -0.3611 H   0  0  0  0  0  0  0  0  0  0  0  0
    0.5211   -2.4483   -1.2899 H   0  0  0  0  0  0  0  0  0  0  0  0
   -1.6846   -1.9640   -0.0031 H   0  0  0  0  0  0  0  0  0  0  0  0
   -3.0133   -0.0498   -0.9881 H   0  0  0  0  0  0  0  0  0  0  0  0
   -1.5928    0.4411   -2.0628 H   0  0  0  0  0  0  0  0  0  0  0  0
   -1.0960   -0.3347    2.2032 H   0  0  0  0  0  0  0  0  0  0  0  0
   -1.8511    1.3132    1.8264 H   0  0  0  0  0  0  0  0  0  0  0  0
   -2.7023   -0.1843    1.4122 H   0  0  0  0  0  0  0  0  0  0  0  0
    0.2770    1.4624   -0.9577 H   0  0  0  0  0  0  0  0  0  0  0  0
    1.9964    1.1802    1.2072 H   0  0  0  0  0  0  0  0  0  0  0  0
    0.4234    1.0209    2.0434 H   0  0  0  0  0  0  0  0  0  0  0  0
    0.7423    2.4343    1.0227 H   0  0  0  0  0  0  0  0  0  0  0  0
  1  2  1  0
  2  3  2  0
  3  4  1  0
  4  5  1  0
  5  6  1  0
  6  7  1  0
  6  8  1  0
  8  9  1  0
  8  2  1  0
  6  4  1  0
  1 10  1  0
  1 11  1  0
  1 12  1  0
  3 13  1  0
  4 14  1  0
  5 15  1  0
  5 16  1  0
  7 17  1  0
  7 18  1  0
  7 19  1  0
  8 20  1  0
  9 21  1  0
  9 22  1  0
  9 23  1  0
M  END
