
     RDKit          3D

 23 23  0  0  0  0  0  0  0  0999 V2000
    2.1026   -1.2754    0.0370 C   0  0  0  0  0  0  0  0  0  0  0  0
    0.7699   -0.6513    0.1962 C   0  0  0  0  0  0  0  0  0  0  0  0
   -0.1829   -1.4418    0.6777 C   0  0  0  0  0  0  0  0  0  0  0  0
   -1.5873   -1.0146    0.9141 C   0  0  0  0  0  0  0  0  0  0  0  0
   -2.2000   -0.3015   -0.2267 C   0  0  0  0  0  0  0  0  0  0  0  0
   -1.8191    1.1149   -0.4165 C   0  0  0  0  0  0  0  0  0  0  0  0
   -0.3982    1.4236   -0.4447 C   0  0  0  0  0  0  0  0  0  0  0  0
    0.7122    0.7473   -0.2051 C   0  0  0  0  0  0  0  0  0  0  0  0
    2.0352    1.4083   -0.3384 C   0  0  0  0  0  0  0  0  0  0  0  0
    2.0647   -2.3416    0.3593 H   0  0  0  0  0  0  0  0  0  0  0  0
    2.3312   -1.2905   -1.0548 H   0  0  0  0  0  0  0  0  0  0  0  0
    2.8764   -0.7550    0.6297 H   0  0  0  0  0  0  0  0  0  0  0  0
    0.0914   -2.4644    0.9107 H   0  0  0  0  0  0  0  0  0  0  0  0
   -1.6097   -0.3846    1.8181 H   0  0  0  0  0  0  0  0  0  0  0  0
   -2.2058   -1.9267    1.1277 H   0  0  0  0  0  0  0  0  0  0  0  0
   -3.3041   -0.3523   -0.1166 H   0  0  0  0  0  0  0  0  0  0  0  0
   -1.9739   -0.8889   -1.1646 H   0  0  0  0  0  0  0  0  0  0  0  0
   -2.2800    1.4787   -1.3587 H   0  0  0  0  0  0  0  0  0  0  0  0
   -2.2929    1.7430    0.3941 H   0  0  0  0  0  0  0  0  0  0  0  0
   -0.1941    2.4483   -0.7284 H   0  0  0  0  0  0  0  0  0  0  0  0
    1.9700    2.3549   -0.9116 H   0  0  0  0  0  0  0  0  0  0  0  0
    2.7409    0.6933   -0.8082 H   0  0  0  0  0  0  0  0  0  0  0  0
    2.3534    1.6760    0.7098 H   0  0  0  0  0  0  0  0  0  0  0  0
  1  2  1  0
  2  3  2  0
  3  4  1  0
  4  5  1  0
  5  6  1  0
  6  7  1  0
  7  8  2  0
  8  9  1  0
  8  2  1  0
  1 10  1  0
  1 11  1  0
  1 12  1  0
  3 13  1  0
  4 14  1  0
  4 15  1  0
  5 16  1  0
  5 17  1  0
  6 18  1  0
  6 19  1  0
  7 20  1  0
  9 21  1  0
  9 22  1  0
  9 23  1  0
M  END
