
     RDKit          3D

 21 21  0  0  0  0  0  0  0  0999 V2000
    3.0478    0.7026    0.1590 C   0  0  0  0  0  0  0  0  0  0  0  0
    1.6105    0.3761   -0.0392 C   0  0  0  0  0  0  0  0  0  0  0  0
    0.7022    1.2691    0.2878 C   0  0  0  0  0  0  0  0  0  0  0  0
   -0.7713    1.1471    0.1722 C   0  0  0  0  0  0  0  0  0  0  0  0
   -1.5093    0.0703    0.1006 C   0  0  0  0  0  0  0  0  0  0  0  0
   -2.9687    0.3125   -0.0094 C   0  0  0  0  0  0  0  0  0  0  0  0
   -1.1214   -1.3524    0.1158 C   0  0  0  0  0  0  0  0  0  0  0  0
    0.1891   -1.6319   -0.5145 C   0  0  0  0  0  0  0  0  0  0  0  0
    1.3262   -0.9545   -0.5999 C   0  0  0  0  0  0  0  0  0  0  0  0
    3.2333    0.6196    1.2616 H   0  0  0  0  0  0  0  0  0  0  0  0
    3.2987    1.7154   -0.2003 H   0  0  0  0  0  0  0  0  0  0  0  0
    3.6561   -0.0887   -0.3106 H   0  0  0  0  0  0  0  0  0  0  0  0
    1.0795    2.1955    0.6857 H   0  0  0  0  0  0  0  0  0  0  0  0
   -1.2765    2.1188    0.1476 H   0  0  0  0  0  0  0  0  0  0  0  0
   -3.3451    0.4086    1.0427 H   0  0  0  0  0  0  0  0  0  0  0  0
   -3.1947    1.2647   -0.5481 H   0  0  0  0  0  0  0  0  0  0  0  0
   -3.5110   -0.5531   -0.4391 H   0  0  0  0  0  0  0  0  0  0  0  0
   -1.8825   -2.0060   -0.3583 H   0  0  0  0  0  0  0  0  0  0  0  0
   -0.9905   -1.6206    1.2056 H   0  0  0  0  0  0  0  0  0  0  0  0
    0.2589   -2.6029   -1.0274 H   0  0  0  0  0  0  0  0  0  0  0  0
    2.1687   -1.3904   -1.1317 H   0  0  0  0  0  0  0  0  0  0  0  0
  1  2  1  0
  2  3  2  0
  3  4  1  0
  4  5  2  0
  5  6  1  0
  5  7  1  0
  7  8  1  0
  8  9  2  0
  9  2  1  0
  1 10  1  0
  1 11  1  0
  1 12  1  0
  3 13  1  0
  4 14  1  0
  6 15  1  0
  6 16  1  0
  6 17  1  0
  7 18  1  0
  7 19  1  0
  8 20  1  0
  9 21  1  0
M  END
