
     RDKit          3D

 23 23  0  0  0  0  0  0  0  0999 V2000
    2.0241   -1.3544    0.1713 C   0  0  0  0  0  0  0  0  0  0  0  0
    1.0602   -0.2306    0.0436 C   0  0  0  0  0  0  0  0  0  0  0  0
   -0.2359   -0.4685    0.1621 C   0  0  0  0  0  0  0  0  0  0  0  0
   -0.6740   -1.8606    0.4199 C   0  0  0  0  0  0  0  0  0  0  0  0
   -1.1641    0.6744    0.0290 C   0  0  0  0  0  0  0  0  0  0  0  0
   -2.5817    0.2509   -0.2583 C   0  0  0  0  0  0  0  0  0  0  0  0
   -0.6479    1.4959   -0.9856 O   0  0  0  0  0  0  0  0  0  0  0  0
    0.4999    2.0845   -0.4722 C   0  0  0  0  0  0  0  0  0  0  0  0
    1.6141    1.1309   -0.2162 C   0  0  0  0  0  0  0  0  0  0  0  0
    2.3567   -1.7634   -0.7861 H   0  0  0  0  0  0  0  0  0  0  0  0
    2.9262   -0.9418    0.6953 H   0  0  0  0  0  0  0  0  0  0  0  0
    1.6501   -2.1661    0.8319 H   0  0  0  0  0  0  0  0  0  0  0  0
   -0.2931   -2.5691   -0.3730 H   0  0  0  0  0  0  0  0  0  0  0  0
   -0.3412   -2.2158    1.4300 H   0  0  0  0  0  0  0  0  0  0  0  0
   -1.7707   -1.9723    0.4109 H   0  0  0  0  0  0  0  0  0  0  0  0
   -1.1929    1.3013    0.9442 H   0  0  0  0  0  0  0  0  0  0  0  0
   -3.1834    1.1867   -0.3340 H   0  0  0  0  0  0  0  0  0  0  0  0
   -2.9514   -0.2845    0.6296 H   0  0  0  0  0  0  0  0  0  0  0  0
   -2.6304   -0.3394   -1.1936 H   0  0  0  0  0  0  0  0  0  0  0  0
    0.2650    2.6100    0.4779 H   0  0  0  0  0  0  0  0  0  0  0  0
    0.8131    2.8823   -1.2034 H   0  0  0  0  0  0  0  0  0  0  0  0
    2.2808    1.1341   -1.1254 H   0  0  0  0  0  0  0  0  0  0  0  0
    2.1768    1.4157    0.7021 H   0  0  0  0  0  0  0  0  0  0  0  0
  1  2  1  0
  2  3  2  0
  3  4  1  0
  3  5  1  0
  5  6  1  0
  5  7  1  0
  7  8  1  0
  8  9  1  0
  9  2  1  0
  1 10  1  0
  1 11  1  0
  1 12  1  0
  4 13  1  0
  4 14  1  0
  4 15  1  0
  5 16  1  0
  6 17  1  0
  6 18  1  0
  6 19  1  0
  8 20  1  0
  8 21  1  0
  9 22  1  0
  9 23  1  0
M  END
