
     RDKit          3D

 23 23  0  0  0  0  0  0  0  0999 V2000
   -1.0804    2.1013    0.0294 C   0  0  0  0  0  0  0  0  0  0  0  0
   -1.0362    0.5991    0.0771 C   0  0  0  0  0  0  0  0  0  0  0  0
    0.0512   -0.1275   -0.1460 C   0  0  0  0  0  0  0  0  0  0  0  0
    1.3906    0.3723   -0.4744 C   0  0  0  0  0  0  0  0  0  0  0  0
    2.4187   -0.0488    0.5513 C   0  0  0  0  0  0  0  0  0  0  0  0
    3.6433    0.4772    0.1414 O   0  0  0  0  0  0  0  0  0  0  0  0
   -0.2772   -1.5919   -0.0137 C   0  0  0  0  0  0  0  0  0  0  0  0
   -1.7529   -1.5705   -0.3585 C   0  0  0  0  0  0  0  0  0  0  0  0
   -2.1733   -0.2937    0.3739 C   0  0  0  0  0  0  0  0  0  0  0  0
   -2.1060    2.4495    0.1943 H   0  0  0  0  0  0  0  0  0  0  0  0
   -0.7233    2.4563   -0.9778 H   0  0  0  0  0  0  0  0  0  0  0  0
   -0.3653    2.4614    0.8174 H   0  0  0  0  0  0  0  0  0  0  0  0
    1.6851    0.0025   -1.4880 H   0  0  0  0  0  0  0  0  0  0  0  0
    1.3612    1.4798   -0.4553 H   0  0  0  0  0  0  0  0  0  0  0  0
    2.5236   -1.1402    0.6227 H   0  0  0  0  0  0  0  0  0  0  0  0
    2.1439    0.4120    1.5118 H   0  0  0  0  0  0  0  0  0  0  0  0
    3.6458    0.4164   -0.8568 H   0  0  0  0  0  0  0  0  0  0  0  0
    0.3151   -2.2170   -0.6806 H   0  0  0  0  0  0  0  0  0  0  0  0
   -0.2078   -1.9065    1.0606 H   0  0  0  0  0  0  0  0  0  0  0  0
   -1.8681   -1.3873   -1.4423 H   0  0  0  0  0  0  0  0  0  0  0  0
   -2.2896   -2.4515    0.0057 H   0  0  0  0  0  0  0  0  0  0  0  0
   -2.1578   -0.5752    1.4658 H   0  0  0  0  0  0  0  0  0  0  0  0
   -3.1404    0.0823    0.0423 H   0  0  0  0  0  0  0  0  0  0  0  0
  1  2  1  0
  2  3  2  0
  3  4  1  0
  4  5  1  0
  5  6  1  0
  3  7  1  0
  7  8  1  0
  8  9  1  0
  9  2  1  0
  1 10  1  0
  1 11  1  0
  1 12  1  0
  4 13  1  0
  4 14  1  0
  5 15  1  0
  5 16  1  0
  6 17  1  0
  7 18  1  0
  7 19  1  0
  8 20  1  0
  8 21  1  0
  9 22  1  0
  9 23  1  0
M  END
