
     RDKit          3D

 21 22  0  0  0  0  0  0  0  0999 V2000
   -2.0904    1.6406   -0.4169 C   0  0  0  0  0  0  0  0  0  0  0  0
   -1.0548    0.6522   -0.0426 C   0  0  0  0  0  0  0  0  0  0  0  0
    0.2121    1.0562    0.0151 C   0  0  0  0  0  0  0  0  0  0  0  0
    1.2254    0.0335    0.3953 C   0  0  0  0  0  0  0  0  0  0  0  0
    1.0616   -1.2699   -0.3148 C   0  0  0  0  0  0  0  0  0  0  0  0
   -0.3656   -1.6836   -0.5030 C   0  0  0  0  0  0  0  0  0  0  0  0
   -1.3041   -0.7786    0.2800 C   0  0  0  0  0  0  0  0  0  0  0  0
    2.5600    0.5474    0.7629 C   0  0  0  0  0  0  0  0  0  0  0  0
    1.6973    0.0151    1.6933 O   0  0  0  0  0  0  0  0  0  0  0  0
   -2.3096    2.3555    0.4050 H   0  0  0  0  0  0  0  0  0  0  0  0
   -1.7638    2.2788   -1.2865 H   0  0  0  0  0  0  0  0  0  0  0  0
   -3.0284    1.1652   -0.7018 H   0  0  0  0  0  0  0  0  0  0  0  0
    0.5178    2.0758   -0.1999 H   0  0  0  0  0  0  0  0  0  0  0  0
    1.5669   -1.2448   -1.3230 H   0  0  0  0  0  0  0  0  0  0  0  0
    1.5620   -2.0535    0.3238 H   0  0  0  0  0  0  0  0  0  0  0  0
   -0.5239   -2.6953   -0.1248 H   0  0  0  0  0  0  0  0  0  0  0  0
   -0.6205   -1.6821   -1.5917 H   0  0  0  0  0  0  0  0  0  0  0  0
   -2.3504   -1.0170    0.0225 H   0  0  0  0  0  0  0  0  0  0  0  0
   -1.1150   -0.9972    1.3562 H   0  0  0  0  0  0  0  0  0  0  0  0
    2.7030    1.6529    0.8513 H   0  0  0  0  0  0  0  0  0  0  0  0
    3.4207   -0.0514    0.3997 H   0  0  0  0  0  0  0  0  0  0  0  0
  1  2  1  0
  2  3  2  0
  3  4  1  0
  4  5  1  0
  5  6  1  0
  6  7  1  0
  4  8  1  0
  8  9  1  0
  7  2  1  0
  9  4  1  0
  1 10  1  0
  1 11  1  0
  1 12  1  0
  3 13  1  0
  5 14  1  0
  5 15  1  0
  6 16  1  0
  6 17  1  0
  7 18  1  0
  7 19  1  0
  8 20  1  0
  8 21  1  0
M  END
