
     RDKit          3D

 23 23  0  0  0  0  0  0  0  0999 V2000
   -2.3577    1.0566    1.0602 C   0  0  0  0  0  0  0  0  0  0  0  0
   -1.2727    0.3738    0.2980 C   0  0  0  0  0  0  0  0  0  0  0  0
   -0.1773    1.0498    0.0134 C   0  0  0  0  0  0  0  0  0  0  0  0
    0.9438    0.4539   -0.7352 C   0  0  0  0  0  0  0  0  0  0  0  0
    2.2286    0.9922   -0.1120 C   0  0  0  0  0  0  0  0  0  0  0  0
    2.2837    0.6282    1.2275 O   0  0  0  0  0  0  0  0  0  0  0  0
    0.9634   -1.0319   -0.6108 C   0  0  0  0  0  0  0  0  0  0  0  0
   -0.3425   -1.7070   -0.7229 C   0  0  0  0  0  0  0  0  0  0  0  0
   -1.5011   -1.0224   -0.0883 C   0  0  0  0  0  0  0  0  0  0  0  0
   -2.0763    2.0883    1.3496 H   0  0  0  0  0  0  0  0  0  0  0  0
   -2.6456    0.4265    1.9190 H   0  0  0  0  0  0  0  0  0  0  0  0
   -3.2582    1.1429    0.4170 H   0  0  0  0  0  0  0  0  0  0  0  0
   -0.0679    2.0895    0.3301 H   0  0  0  0  0  0  0  0  0  0  0  0
    0.8745    0.8135   -1.7840 H   0  0  0  0  0  0  0  0  0  0  0  0
    2.2918    2.0912   -0.2208 H   0  0  0  0  0  0  0  0  0  0  0  0
    3.0713    0.5522   -0.7071 H   0  0  0  0  0  0  0  0  0  0  0  0
    3.0258   -0.0363    1.3958 H   0  0  0  0  0  0  0  0  0  0  0  0
    1.4751   -1.2962    0.3544 H   0  0  0  0  0  0  0  0  0  0  0  0
    1.6400   -1.4201   -1.4140 H   0  0  0  0  0  0  0  0  0  0  0  0
   -0.5877   -1.9228   -1.7862 H   0  0  0  0  0  0  0  0  0  0  0  0
   -0.2485   -2.7249   -0.2412 H   0  0  0  0  0  0  0  0  0  0  0  0
   -2.3969   -1.0304   -0.7718 H   0  0  0  0  0  0  0  0  0  0  0  0
   -1.8658   -1.5666    0.8293 H   0  0  0  0  0  0  0  0  0  0  0  0
  1  2  1  0
  2  3  2  0
  3  4  1  0
  4  5  1  0
  5  6  1  0
  4  7  1  0
  7  8  1  0
  8  9  1  0
  9  2  1  0
  1 10  1  0
  1 11  1  0
  1 12  1  0
  3 13  1  0
  4 14  1  0
  5 15  1  0
  5 16  1  0
  6 17  1  0
  7 18  1  0
  7 19  1  0
  8 20  1  0
  8 21  1  0
  9 22  1  0
  9 23  1  0
M  END
