
     RDKit          3D

 20 20  0  0  0  0  0  0  0  0999 V2000
    2.5744   -0.1387    0.1681 C   0  0  0  0  0  0  0  0  0  0  0  0
    1.0803    0.0443    0.0749 C   0  0  0  0  0  0  0  0  0  0  0  0
    0.7059    1.3006    0.2878 C   0  0  0  0  0  0  0  0  0  0  0  0
   -0.6771    1.7664    0.2593 C   0  0  0  0  0  0  0  0  0  0  0  0
   -1.8276    1.1115    0.2289 C   0  0  0  0  0  0  0  0  0  0  0  0
   -1.9550   -0.3706    0.2164 C   0  0  0  0  0  0  0  0  0  0  0  0
   -1.0214   -1.0237   -0.7401 C   0  0  0  0  0  0  0  0  0  0  0  0
    0.3775   -1.1984   -0.2283 C   0  0  0  0  0  0  0  0  0  0  0  0
    2.9083   -0.9124   -0.5299 H   0  0  0  0  0  0  0  0  0  0  0  0
    3.0814    0.8338   -0.0000 H   0  0  0  0  0  0  0  0  0  0  0  0
    2.7543   -0.4177    1.2387 H   0  0  0  0  0  0  0  0  0  0  0  0
    1.4963    2.0080    0.4940 H   0  0  0  0  0  0  0  0  0  0  0  0
   -0.7949    2.8398    0.2635 H   0  0  0  0  0  0  0  0  0  0  0  0
   -2.7427    1.6864    0.2117 H   0  0  0  0  0  0  0  0  0  0  0  0
   -3.0050   -0.6036   -0.1258 H   0  0  0  0  0  0  0  0  0  0  0  0
   -1.8756   -0.7503    1.2474 H   0  0  0  0  0  0  0  0  0  0  0  0
   -1.4160   -2.0597   -0.9355 H   0  0  0  0  0  0  0  0  0  0  0  0
   -1.0498   -0.5084   -1.7078 H   0  0  0  0  0  0  0  0  0  0  0  0
    0.4357   -1.8975    0.6304 H   0  0  0  0  0  0  0  0  0  0  0  0
    0.9510   -1.7100   -1.0538 H   0  0  0  0  0  0  0  0  0  0  0  0
  1  2  1  0
  2  3  2  0
  3  4  1  0
  4  5  2  0
  5  6  1  0
  6  7  1  0
  7  8  1  0
  8  2  1  0
  1  9  1  0
  1 10  1  0
  1 11  1  0
  3 12  1  0
  4 13  1  0
  5 14  1  0
  6 15  1  0
  6 16  1  0
  7 17  1  0
  7 18  1  0
  8 19  1  0
  8 20  1  0
M  END
