
     RDKit          3D

 21 21  0  0  0  0  0  0  0  0999 V2000
    3.0880   -0.0056    0.1092 C   0  0  0  0  0  0  0  0  0  0  0  0
    1.6085    0.1656    0.0251 C   0  0  0  0  0  0  0  0  0  0  0  0
    1.1650    1.3679   -0.2094 C   0  0  0  0  0  0  0  0  0  0  0  0
   -0.1949    1.8095   -0.3384 C   0  0  0  0  0  0  0  0  0  0  0  0
   -1.2953    1.1158   -0.0725 C   0  0  0  0  0  0  0  0  0  0  0  0
   -1.5614   -0.2294    0.4066 C   0  0  0  0  0  0  0  0  0  0  0  0
   -2.7282   -0.8883   -0.3363 C   0  0  0  0  0  0  0  0  0  0  0  0
   -0.4415   -1.1609    0.3727 C   0  0  0  0  0  0  0  0  0  0  0  0
    0.8676   -1.0554    0.2206 C   0  0  0  0  0  0  0  0  0  0  0  0
    3.2881   -0.5852    1.0409 H   0  0  0  0  0  0  0  0  0  0  0  0
    3.4403   -0.6420   -0.7266 H   0  0  0  0  0  0  0  0  0  0  0  0
    3.5856    0.9885    0.1351 H   0  0  0  0  0  0  0  0  0  0  0  0
    1.9678    2.1122   -0.3160 H   0  0  0  0  0  0  0  0  0  0  0  0
   -0.3017    2.8335   -0.6971 H   0  0  0  0  0  0  0  0  0  0  0  0
   -2.1895    1.6988   -0.2604 H   0  0  0  0  0  0  0  0  0  0  0  0
   -1.9030   -0.1499    1.4777 H   0  0  0  0  0  0  0  0  0  0  0  0
   -3.6943   -0.6900    0.1734 H   0  0  0  0  0  0  0  0  0  0  0  0
   -2.7874   -0.5172   -1.3796 H   0  0  0  0  0  0  0  0  0  0  0  0
   -2.6118   -1.9917   -0.3733 H   0  0  0  0  0  0  0  0  0  0  0  0
   -0.7462   -2.2038    0.5040 H   0  0  0  0  0  0  0  0  0  0  0  0
    1.4443   -1.9726    0.2443 H   0  0  0  0  0  0  0  0  0  0  0  0
  1  2  1  0
  2  3  2  0
  3  4  1  0
  4  5  2  0
  5  6  1  0
  6  7  1  0
  6  8  1  0
  8  9  2  0
  9  2  1  0
  1 10  1  0
  1 11  1  0
  1 12  1  0
  3 13  1  0
  4 14  1  0
  5 15  1  0
  6 16  1  0
  7 17  1  0
  7 18  1  0
  7 19  1  0
  8 20  1  0
  9 21  1  0
M  END
