
     RDKit          3D

 21 22  0  0  0  0  0  0  0  0999 V2000
    2.5944    0.4522   -0.3218 C   0  0  0  0  0  0  0  0  0  0  0  0
    1.1821   -0.0057   -0.1098 C   0  0  0  0  0  0  0  0  0  0  0  0
    0.8632   -1.2788    0.0579 C   0  0  0  0  0  0  0  0  0  0  0  0
   -0.5415   -1.6455    0.3607 C   0  0  0  0  0  0  0  0  0  0  0  0
   -1.4455   -0.4439    0.2059 C   0  0  0  0  0  0  0  0  0  0  0  0
   -0.8719    0.6661    1.0984 C   0  0  0  0  0  0  0  0  0  0  0  0
    0.0494    0.9711   -0.0774 C   0  0  0  0  0  0  0  0  0  0  0  0
   -1.0665    0.4258   -0.9613 C   0  0  0  0  0  0  0  0  0  0  0  0
   -2.0197    1.4059   -1.1772 O   0  0  0  0  0  0  0  0  0  0  0  0
    3.2993   -0.3146    0.0416 H   0  0  0  0  0  0  0  0  0  0  0  0
    2.7784    1.3718    0.3016 H   0  0  0  0  0  0  0  0  0  0  0  0
    2.7948    0.6865   -1.3848 H   0  0  0  0  0  0  0  0  0  0  0  0
    1.5895   -2.0715   -0.0169 H   0  0  0  0  0  0  0  0  0  0  0  0
   -0.9057   -2.5132   -0.2056 H   0  0  0  0  0  0  0  0  0  0  0  0
   -0.5519   -1.9530    1.4471 H   0  0  0  0  0  0  0  0  0  0  0  0
   -2.5013   -0.6522    0.3488 H   0  0  0  0  0  0  0  0  0  0  0  0
   -1.5865    1.4796    1.2173 H   0  0  0  0  0  0  0  0  0  0  0  0
   -0.3644    0.2991    1.9998 H   0  0  0  0  0  0  0  0  0  0  0  0
    0.3076    2.0160   -0.2234 H   0  0  0  0  0  0  0  0  0  0  0  0
   -0.7069   -0.0958   -1.8633 H   0  0  0  0  0  0  0  0  0  0  0  0
   -2.8968    1.2000   -0.7376 H   0  0  0  0  0  0  0  0  0  0  0  0
  1  2  1  0
  2  3  2  0
  3  4  1  0
  4  5  1  0
  5  6  1  0
  6  7  1  0
  7  8  1  0
  8  9  1  0
  7  2  1  0
  8  5  1  0
  1 10  1  0
  1 11  1  0
  1 12  1  0
  3 13  1  0
  4 14  1  0
  4 15  1  0
  5 16  1  0
  6 17  1  0
  6 18  1  0
  7 19  1  0
  8 20  1  0
  9 21  1  0
M  END
