
     RDKit          3D

 23 24  0  0  0  0  0  0  0  0999 V2000
   -2.1417   -1.2397    0.3578 C   0  0  0  0  0  0  0  0  0  0  0  0
   -0.9328   -0.5289   -0.1514 C   0  0  0  0  0  0  0  0  0  0  0  0
   -0.6206    0.7481    0.0419 C   0  0  0  0  0  0  0  0  0  0  0  0
   -1.4818    1.6743    0.8301 C   0  0  0  0  0  0  0  0  0  0  0  0
    0.6376    1.1191   -0.5976 C   0  0  0  0  0  0  0  0  0  0  0  0
    1.9122    0.4490   -0.3595 C   0  0  0  0  0  0  0  0  0  0  0  0
    2.1846   -0.3612    0.8850 C   0  0  0  0  0  0  0  0  0  0  0  0
    0.9929   -0.0837   -1.4128 C   0  0  0  0  0  0  0  0  0  0  0  0
    0.0972   -1.2022   -0.9649 C   0  0  0  0  0  0  0  0  0  0  0  0
   -1.9895   -2.3192    0.4259 H   0  0  0  0  0  0  0  0  0  0  0  0
   -2.3717   -0.8523    1.3748 H   0  0  0  0  0  0  0  0  0  0  0  0
   -3.0041   -0.9662   -0.3187 H   0  0  0  0  0  0  0  0  0  0  0  0
   -1.8611    2.4388    0.0923 H   0  0  0  0  0  0  0  0  0  0  0  0
   -2.3826    1.1877    1.2358 H   0  0  0  0  0  0  0  0  0  0  0  0
   -0.9380    2.2227    1.5934 H   0  0  0  0  0  0  0  0  0  0  0  0
    0.6549    2.0754   -1.1964 H   0  0  0  0  0  0  0  0  0  0  0  0
    2.8207    0.9396   -0.7636 H   0  0  0  0  0  0  0  0  0  0  0  0
    2.9132   -1.1612    0.5884 H   0  0  0  0  0  0  0  0  0  0  0  0
    2.7488    0.2976    1.5820 H   0  0  0  0  0  0  0  0  0  0  0  0
    1.3000   -0.8210    1.3230 H   0  0  0  0  0  0  0  0  0  0  0  0
    1.2108    0.0159   -2.4749 H   0  0  0  0  0  0  0  0  0  0  0  0
    0.6296   -1.9155   -0.2805 H   0  0  0  0  0  0  0  0  0  0  0  0
   -0.3785   -1.7172   -1.8102 H   0  0  0  0  0  0  0  0  0  0  0  0
  1  2  1  0
  2  3  2  0
  3  4  1  0
  3  5  1  0
  5  6  1  0
  6  7  1  0
  6  8  1  0
  8  9  1  0
  9  2  1  0
  8  5  1  0
  1 10  1  0
  1 11  1  0
  1 12  1  0
  4 13  1  0
  4 14  1  0
  4 15  1  0
  5 16  1  0
  6 17  1  0
  7 18  1  0
  7 19  1  0
  7 20  1  0
  8 21  1  0
  9 22  1  0
  9 23  1  0
M  END
