
     RDKit          3D

 21 21  0  0  0  0  0  0  0  0999 V2000
    2.5554   -0.8533    0.6290 C   0  0  0  0  0  0  0  0  0  0  0  0
    1.3492   -0.0708    0.2987 C   0  0  0  0  0  0  0  0  0  0  0  0
    1.2553    1.1897    0.6429 C   0  0  0  0  0  0  0  0  0  0  0  0
    0.0274    1.9491    0.2952 C   0  0  0  0  0  0  0  0  0  0  0  0
   -1.0542    1.0805    0.5301 O   0  0  0  0  0  0  0  0  0  0  0  0
   -1.0002    0.1107   -0.4571 C   0  0  0  0  0  0  0  0  0  0  0  0
   -2.1882   -0.8358   -0.2390 C   0  0  0  0  0  0  0  0  0  0  0  0
   -3.3885   -0.1521   -0.3210 O   0  0  0  0  0  0  0  0  0  0  0  0
    0.2411   -0.7203   -0.4266 C   0  0  0  0  0  0  0  0  0  0  0  0
    2.4495   -1.9299    0.3822 H   0  0  0  0  0  0  0  0  0  0  0  0
    3.3963   -0.4438    0.0123 H   0  0  0  0  0  0  0  0  0  0  0  0
    2.8096   -0.8149    1.7110 H   0  0  0  0  0  0  0  0  0  0  0  0
    2.0676    1.6596    1.1727 H   0  0  0  0  0  0  0  0  0  0  0  0
   -0.0759    2.8806    0.8919 H   0  0  0  0  0  0  0  0  0  0  0  0
    0.0240    2.2288   -0.7989 H   0  0  0  0  0  0  0  0  0  0  0  0
   -1.1173    0.6190   -1.4322 H   0  0  0  0  0  0  0  0  0  0  0  0
   -2.1910   -1.6386   -1.0156 H   0  0  0  0  0  0  0  0  0  0  0  0
   -2.0608   -1.3464    0.7370 H   0  0  0  0  0  0  0  0  0  0  0  0
   -3.7581   -0.1969   -1.2159 H   0  0  0  0  0  0  0  0  0  0  0  0
    0.5894   -0.9955   -1.4640 H   0  0  0  0  0  0  0  0  0  0  0  0
    0.0697   -1.7200    0.0673 H   0  0  0  0  0  0  0  0  0  0  0  0
  1  2  1  0
  2  3  2  0
  3  4  1  0
  4  5  1  0
  5  6  1  0
  6  7  1  0
  7  8  1  0
  6  9  1  0
  9  2  1  0
  1 10  1  0
  1 11  1  0
  1 12  1  0
  3 13  1  0
  4 14  1  0
  4 15  1  0
  6 16  1  0
  7 17  1  0
  7 18  1  0
  8 19  1  0
  9 20  1  0
  9 21  1  0
M  END
