
     RDKit          3D

 17 18  0  0  0  0  0  0  0  0999 V2000
    2.3296   -0.0704   -0.0754 C   0  0  0  0  0  0  0  0  0  0  0  0
    0.8617    0.0320    0.1030 C   0  0  0  0  0  0  0  0  0  0  0  0
    0.2882   -0.1241    1.3204 C   0  0  0  0  0  0  0  0  0  0  0  0
   -1.1365    0.1490    1.3227 C   0  0  0  0  0  0  0  0  0  0  0  0
   -1.8505    0.0611    2.3243 O   0  0  0  0  0  0  0  0  0  0  0  0
   -1.7194    0.5525    0.0247 C   0  0  0  0  0  0  0  0  0  0  0  0
   -1.3211   -0.5583   -0.9506 C   0  0  0  0  0  0  0  0  0  0  0  0
   -0.0872    0.3060   -0.9978 C   0  0  0  0  0  0  0  0  0  0  0  0
   -0.8499    1.3960   -0.6832 O   0  0  0  0  0  0  0  0  0  0  0  0
    2.7070    0.6211   -0.8472 H   0  0  0  0  0  0  0  0  0  0  0  0
    2.8375    0.2306    0.8772 H   0  0  0  0  0  0  0  0  0  0  0  0
    2.5814   -1.1337   -0.2704 H   0  0  0  0  0  0  0  0  0  0  0  0
    0.8636   -0.4234    2.1840 H   0  0  0  0  0  0  0  0  0  0  0  0
   -2.7708    0.8291    0.0131 H   0  0  0  0  0  0  0  0  0  0  0  0
   -1.8872   -0.6048   -1.8725 H   0  0  0  0  0  0  0  0  0  0  0  0
   -1.1973   -1.5396   -0.4565 H   0  0  0  0  0  0  0  0  0  0  0  0
    0.3510    0.2770   -2.0158 H   0  0  0  0  0  0  0  0  0  0  0  0
  1  2  1  0
  2  3  2  0
  3  4  1  0
  4  5  2  0
  4  6  1  0
  6  7  1  0
  7  8  1  0
  8  9  1  0
  8  2  1  0
  9  6  1  0
  1 10  1  0
  1 11  1  0
  1 12  1  0
  3 13  1  0
  6 14  1  0
  7 15  1  0
  7 16  1  0
  8 17  1  0
M  END
