
     RDKit          3D

 21 21  0  0  0  0  0  0  0  0999 V2000
    1.8064   -1.4650    0.3786 C   0  0  0  0  0  0  0  0  0  0  0  0
    0.5628   -0.7515    0.0565 C   0  0  0  0  0  0  0  0  0  0  0  0
    0.7024    0.5392   -0.1153 C   0  0  0  0  0  0  0  0  0  0  0  0
    2.0572    1.1052    0.0318 C   0  0  0  0  0  0  0  0  0  0  0  0
   -0.3175    1.5272   -0.4406 C   0  0  0  0  0  0  0  0  0  0  0  0
   -1.6144    1.3957   -0.3569 C   0  0  0  0  0  0  0  0  0  0  0  0
   -2.4765    0.2971    0.0610 C   0  0  0  0  0  0  0  0  0  0  0  0
   -1.9014   -1.0381   -0.0298 C   0  0  0  0  0  0  0  0  0  0  0  0
   -0.6693   -1.5320   -0.0370 C   0  0  0  0  0  0  0  0  0  0  0  0
    2.4810   -1.5731   -0.4954 H   0  0  0  0  0  0  0  0  0  0  0  0
    2.3286   -1.0554    1.2733 H   0  0  0  0  0  0  0  0  0  0  0  0
    1.5249   -2.5151    0.6621 H   0  0  0  0  0  0  0  0  0  0  0  0
    2.8660    0.3911   -0.0703 H   0  0  0  0  0  0  0  0  0  0  0  0
    2.1031    1.6027    1.0153 H   0  0  0  0  0  0  0  0  0  0  0  0
    2.1354    1.9376   -0.7286 H   0  0  0  0  0  0  0  0  0  0  0  0
    0.0152    2.5030   -0.7996 H   0  0  0  0  0  0  0  0  0  0  0  0
   -2.1702    2.2966   -0.6638 H   0  0  0  0  0  0  0  0  0  0  0  0
   -3.3815    0.3143   -0.6168 H   0  0  0  0  0  0  0  0  0  0  0  0
   -2.8843    0.4427    1.1039 H   0  0  0  0  0  0  0  0  0  0  0  0
   -2.6450   -1.8340   -0.1119 H   0  0  0  0  0  0  0  0  0  0  0  0
   -0.5229   -2.5883   -0.1168 H   0  0  0  0  0  0  0  0  0  0  0  0
  1  2  1  0
  2  3  2  0
  3  4  1  0
  3  5  1  0
  5  6  2  0
  6  7  1  0
  7  8  1  0
  8  9  2  0
  9  2  1  0
  1 10  1  0
  1 11  1  0
  1 12  1  0
  4 13  1  0
  4 14  1  0
  4 15  1  0
  5 16  1  0
  6 17  1  0
  7 18  1  0
  7 19  1  0
  8 20  1  0
  9 21  1  0
M  END
