
     RDKit          3D

 21 21  0  0  0  0  0  0  0  0999 V2000
   -1.4954   -1.7528   -0.0349 C   0  0  0  0  0  0  0  0  0  0  0  0
   -0.3238   -0.8097    0.0281 C   0  0  0  0  0  0  0  0  0  0  0  0
    0.8344   -1.3356    0.3985 C   0  0  0  0  0  0  0  0  0  0  0  0
    2.0928   -0.6032    0.5255 C   0  0  0  0  0  0  0  0  0  0  0  0
    2.4296    0.6322    0.1403 C   0  0  0  0  0  0  0  0  0  0  0  0
    1.4599    1.5509   -0.5558 C   0  0  0  0  0  0  0  0  0  0  0  0
    0.2600    1.5054    0.1373 O   0  0  0  0  0  0  0  0  0  0  0  0
   -0.6429    0.6001   -0.3412 C   0  0  0  0  0  0  0  0  0  0  0  0
   -2.0118    0.9852    0.2389 C   0  0  0  0  0  0  0  0  0  0  0  0
   -2.4463   -1.2378    0.0847 H   0  0  0  0  0  0  0  0  0  0  0  0
   -1.4898   -2.3063   -1.0097 H   0  0  0  0  0  0  0  0  0  0  0  0
   -1.3418   -2.5401    0.7426 H   0  0  0  0  0  0  0  0  0  0  0  0
    0.8416   -2.3946    0.6239 H   0  0  0  0  0  0  0  0  0  0  0  0
    2.9054   -1.1193    1.0064 H   0  0  0  0  0  0  0  0  0  0  0  0
    3.4149    0.9721    0.3339 H   0  0  0  0  0  0  0  0  0  0  0  0
    1.8986    2.5703   -0.4398 H   0  0  0  0  0  0  0  0  0  0  0  0
    1.3552    1.3249   -1.6130 H   0  0  0  0  0  0  0  0  0  0  0  0
   -0.7795    0.6191   -1.4427 H   0  0  0  0  0  0  0  0  0  0  0  0
   -2.0449    2.1064    0.3540 H   0  0  0  0  0  0  0  0  0  0  0  0
   -2.8337    0.7069   -0.4230 H   0  0  0  0  0  0  0  0  0  0  0  0
   -2.0826    0.5256    1.2460 H   0  0  0  0  0  0  0  0  0  0  0  0
  1  2  1  0
  2  3  2  0
  3  4  1  0
  4  5  2  0
  5  6  1  0
  6  7  1  0
  7  8  1  0
  8  9  1  0
  8  2  1  0
  1 10  1  0
  1 11  1  0
  1 12  1  0
  3 13  1  0
  4 14  1  0
  5 15  1  0
  6 16  1  0
  6 17  1  0
  8 18  1  0
  9 19  1  0
  9 20  1  0
  9 21  1  0
M  END
