
     RDKit          3D

 21 22  0  0  0  0  0  0  0  0999 V2000
    2.4675   -1.1379   -0.0998 C   0  0  0  0  0  0  0  0  0  0  0  0
    1.3100   -0.2047   -0.1688 C   0  0  0  0  0  0  0  0  0  0  0  0
    1.4877    1.0602    0.1705 C   0  0  0  0  0  0  0  0  0  0  0  0
    0.3229    1.9556    0.0908 C   0  0  0  0  0  0  0  0  0  0  0  0
   -0.8669    1.4094    0.4345 O   0  0  0  0  0  0  0  0  0  0  0  0
   -1.1436    0.1545    0.0396 C   0  0  0  0  0  0  0  0  0  0  0  0
   -2.0975   -0.6603    0.9688 C   0  0  0  0  0  0  0  0  0  0  0  0
   -2.5287   -0.1704   -0.3757 C   0  0  0  0  0  0  0  0  0  0  0  0
   -0.0506   -0.6225   -0.6035 C   0  0  0  0  0  0  0  0  0  0  0  0
    2.8153   -1.1216    0.9732 H   0  0  0  0  0  0  0  0  0  0  0  0
    3.3274   -0.7091   -0.6884 H   0  0  0  0  0  0  0  0  0  0  0  0
    2.2131   -2.1499   -0.4320 H   0  0  0  0  0  0  0  0  0  0  0  0
    2.4815    1.3896    0.4937 H   0  0  0  0  0  0  0  0  0  0  0  0
    0.3235    2.4389   -0.9217 H   0  0  0  0  0  0  0  0  0  0  0  0
    0.5269    2.8116    0.8006 H   0  0  0  0  0  0  0  0  0  0  0  0
   -1.8710   -1.7366    1.0316 H   0  0  0  0  0  0  0  0  0  0  0  0
   -2.4087   -0.1489    1.8761 H   0  0  0  0  0  0  0  0  0  0  0  0
   -3.3049    0.6337   -0.3610 H   0  0  0  0  0  0  0  0  0  0  0  0
   -2.7119   -0.9174   -1.1808 H   0  0  0  0  0  0  0  0  0  0  0  0
   -0.1419   -1.7082   -0.3400 H   0  0  0  0  0  0  0  0  0  0  0  0
   -0.1501   -0.5659   -1.7077 H   0  0  0  0  0  0  0  0  0  0  0  0
  1  2  1  0
  2  3  2  0
  3  4  1  0
  4  5  1  0
  5  6  1  0
  6  7  1  0
  7  8  1  0
  6  9  1  0
  9  2  1  0
  8  6  1  0
  1 10  1  0
  1 11  1  0
  1 12  1  0
  3 13  1  0
  4 14  1  0
  4 15  1  0
  7 16  1  0
  7 17  1  0
  8 18  1  0
  8 19  1  0
  9 20  1  0
  9 21  1  0
M  END
