
     RDKit          3D

 19 19  0  0  0  0  0  0  0  0999 V2000
    2.7265    0.0936   -0.0486 C   0  0  0  0  0  0  0  0  0  0  0  0
    1.2332    0.0064   -0.0846 C   0  0  0  0  0  0  0  0  0  0  0  0
    0.7625   -1.2318   -0.0075 C   0  0  0  0  0  0  0  0  0  0  0  0
   -0.5784   -1.8075   -0.0035 C   0  0  0  0  0  0  0  0  0  0  0  0
   -1.8195   -1.3642    0.0879 C   0  0  0  0  0  0  0  0  0  0  0  0
   -2.4433   -0.0493    0.2321 C   0  0  0  0  0  0  0  0  0  0  0  0
   -1.9725    1.1736    0.1563 C   0  0  0  0  0  0  0  0  0  0  0  0
   -0.6617    1.7418   -0.0971 C   0  0  0  0  0  0  0  0  0  0  0  0
    0.6038    1.3267   -0.1989 C   0  0  0  0  0  0  0  0  0  0  0  0
    2.9994    0.9703    0.5955 H   0  0  0  0  0  0  0  0  0  0  0  0
    3.1476    0.2780   -1.0669 H   0  0  0  0  0  0  0  0  0  0  0  0
    3.1446   -0.8456    0.3142 H   0  0  0  0  0  0  0  0  0  0  0  0
    1.5570   -1.9562    0.0680 H   0  0  0  0  0  0  0  0  0  0  0  0
   -0.5341   -2.8971   -0.1033 H   0  0  0  0  0  0  0  0  0  0  0  0
   -2.5297   -2.1510    0.0468 H   0  0  0  0  0  0  0  0  0  0  0  0
   -3.5256   -0.1086    0.4473 H   0  0  0  0  0  0  0  0  0  0  0  0
   -2.7403    1.9067    0.3205 H   0  0  0  0  0  0  0  0  0  0  0  0
   -0.6928    2.8241   -0.2534 H   0  0  0  0  0  0  0  0  0  0  0  0
    1.3233    2.0900   -0.4048 H   0  0  0  0  0  0  0  0  0  0  0  0
  1  2  1  0
  2  3  2  3
  3  4  1  0
  4  5  2  3
  5  6  1  0
  6  7  2  3
  7  8  1  0
  8  9  2  3
  9  2  1  0
  1 10  1  0
  1 11  1  0
  1 12  1  0
  3 13  1  0
  4 14  1  0
  5 15  1  0
  6 16  1  0
  7 17  1  0
  8 18  1  0
  9 19  1  0
M  END
