
     RDKit          3D

 19 21  0  0  0  0  0  0  0  0999 V2000
    2.5685    0.2836   -0.5346 C   0  0  0  0  0  0  0  0  0  0  0  0
    1.2307   -0.0627   -0.0146 C   0  0  0  0  0  0  0  0  0  0  0  0
    0.8336   -0.6809    1.1003 C   0  0  0  0  0  0  0  0  0  0  0  0
   -0.6425   -0.6983    0.9531 C   0  0  0  0  0  0  0  0  0  0  0  0
   -0.8981    0.7287    0.4447 C   0  0  0  0  0  0  0  0  0  0  0  0
   -2.2778    0.6109   -0.0837 C   0  0  0  0  0  0  0  0  0  0  0  0
   -2.2006   -0.6293   -0.7702 O   0  0  0  0  0  0  0  0  0  0  0  0
   -0.9022   -1.0098   -0.5278 C   0  0  0  0  0  0  0  0  0  0  0  0
   -0.0520    0.2431   -0.7045 C   0  0  0  0  0  0  0  0  0  0  0  0
    2.9280   -0.4935   -1.2515 H   0  0  0  0  0  0  0  0  0  0  0  0
    3.3501    0.3286    0.2611 H   0  0  0  0  0  0  0  0  0  0  0  0
    2.5898    1.2985   -1.0129 H   0  0  0  0  0  0  0  0  0  0  0  0
    1.4737   -1.0592    1.8901 H   0  0  0  0  0  0  0  0  0  0  0  0
   -1.2738   -1.1013    1.6823 H   0  0  0  0  0  0  0  0  0  0  0  0
   -0.5778    1.5339    1.0443 H   0  0  0  0  0  0  0  0  0  0  0  0
   -2.9716    0.4691    0.7919 H   0  0  0  0  0  0  0  0  0  0  0  0
   -2.5989    1.4230   -0.7369 H   0  0  0  0  0  0  0  0  0  0  0  0
   -0.5208   -1.9296   -0.9038 H   0  0  0  0  0  0  0  0  0  0  0  0
   -0.0582    0.7452   -1.6273 H   0  0  0  0  0  0  0  0  0  0  0  0
  1  2  1  0
  2  3  2  0
  3  4  1  0
  4  5  1  0
  5  6  1  0
  6  7  1  0
  7  8  1  0
  8  9  1  0
  9  2  1  0
  8  4  1  0
  9  5  1  0
  1 10  1  0
  1 11  1  0
  1 12  1  0
  3 13  1  0
  4 14  1  0
  5 15  1  0
  6 16  1  0
  6 17  1  0
  8 18  1  0
  9 19  1  0
M  END
