
     RDKit          3D

 17 19  0  0  0  0  0  0  0  0999 V2000
    2.2822    0.4636    0.1154 C   0  0  0  0  0  0  0  0  0  0  0  0
    0.8729    0.1094   -0.2057 C   0  0  0  0  0  0  0  0  0  0  0  0
    0.0524    0.7675   -1.0197 C   0  0  0  0  0  0  0  0  0  0  0  0
   -1.2121   -0.0293   -1.0686 C   0  0  0  0  0  0  0  0  0  0  0  0
   -0.6827   -1.3305   -0.8773 O   0  0  0  0  0  0  0  0  0  0  0  0
    0.0614   -1.0412    0.2964 C   0  0  0  0  0  0  0  0  0  0  0  0
   -1.0567   -0.5951    1.1964 C   0  0  0  0  0  0  0  0  0  0  0  0
   -2.3788   -0.9628    0.8708 O   0  0  0  0  0  0  0  0  0  0  0  0
   -1.9502    0.1759    0.2123 C   0  0  0  0  0  0  0  0  0  0  0  0
    2.3749    1.2733    0.8463 H   0  0  0  0  0  0  0  0  0  0  0  0
    2.8710    0.7326   -0.7866 H   0  0  0  0  0  0  0  0  0  0  0  0
    2.7853   -0.4391    0.5677 H   0  0  0  0  0  0  0  0  0  0  0  0
    0.3172    1.6945   -1.5154 H   0  0  0  0  0  0  0  0  0  0  0  0
   -1.7749    0.0765   -1.9752 H   0  0  0  0  0  0  0  0  0  0  0  0
    0.6423   -1.8805    0.6487 H   0  0  0  0  0  0  0  0  0  0  0  0
   -0.8698   -0.1664    2.1780 H   0  0  0  0  0  0  0  0  0  0  0  0
   -2.3345    1.1516    0.5164 H   0  0  0  0  0  0  0  0  0  0  0  0
  1  2  1  0
  2  3  2  0
  3  4  1  0
  4  5  1  0
  5  6  1  0
  6  7  1  0
  7  8  1  0
  8  9  1  0
  6  2  1  0
  9  7  1  0
  9  4  1  0
  1 10  1  0
  1 11  1  0
  1 12  1  0
  3 13  1  0
  4 14  1  0
  6 15  1  0
  7 16  1  0
  9 17  1  0
M  END
