
     RDKit          3D

 23 23  0  0  0  0  0  0  0  0999 V2000
    2.1064    1.6001   -0.0197 C   0  0  0  0  0  0  0  0  0  0  0  0
    0.8716    0.7874   -0.0965 C   0  0  0  0  0  0  0  0  0  0  0  0
    0.8214   -0.5401   -0.0514 C   0  0  0  0  0  0  0  0  0  0  0  0
    1.9907   -1.4808    0.0850 C   0  0  0  0  0  0  0  0  0  0  0  0
   -0.5998   -0.9727   -0.1589 C   0  0  0  0  0  0  0  0  0  0  0  0
   -0.8581   -2.1532    0.4908 O   0  0  0  0  0  0  0  0  0  0  0  0
   -1.3118    0.2154    0.4455 C   0  0  0  0  0  0  0  0  0  0  0  0
   -2.7672    0.2734    0.0946 C   0  0  0  0  0  0  0  0  0  0  0  0
   -0.5151    1.3378   -0.2369 C   0  0  0  0  0  0  0  0  0  0  0  0
    2.6114    1.4600    0.9589 H   0  0  0  0  0  0  0  0  0  0  0  0
    1.9369    2.6605   -0.1882 H   0  0  0  0  0  0  0  0  0  0  0  0
    2.8658    1.2763   -0.7885 H   0  0  0  0  0  0  0  0  0  0  0  0
    2.8622   -0.9576    0.4843 H   0  0  0  0  0  0  0  0  0  0  0  0
    1.6907   -2.2762    0.8198 H   0  0  0  0  0  0  0  0  0  0  0  0
    2.1262   -1.9663   -0.8829 H   0  0  0  0  0  0  0  0  0  0  0  0
   -0.8517   -0.9814   -1.2375 H   0  0  0  0  0  0  0  0  0  0  0  0
   -0.9673   -2.8625   -0.2165 H   0  0  0  0  0  0  0  0  0  0  0  0
   -1.1381    0.2418    1.5349 H   0  0  0  0  0  0  0  0  0  0  0  0
   -3.4040    0.5459    0.9868 H   0  0  0  0  0  0  0  0  0  0  0  0
   -3.0789   -0.7573   -0.2051 H   0  0  0  0  0  0  0  0  0  0  0  0
   -2.9648    0.9539   -0.7646 H   0  0  0  0  0  0  0  0  0  0  0  0
   -0.7754    1.2979   -1.2995 H   0  0  0  0  0  0  0  0  0  0  0  0
   -0.6511    2.2978    0.2460 H   0  0  0  0  0  0  0  0  0  0  0  0
  1  2  1  0
  2  3  2  0
  3  4  1  0
  3  5  1  0
  5  6  1  0
  5  7  1  0
  7  8  1  0
  7  9  1  0
  9  2  1  0
  1 10  1  0
  1 11  1  0
  1 12  1  0
  4 13  1  0
  4 14  1  0
  4 15  1  0
  5 16  1  0
  6 17  1  0
  7 18  1  0
  8 19  1  0
  8 20  1  0
  8 21  1  0
  9 22  1  0
  9 23  1  0
M  END
