
     RDKit          3D

 21 22  0  0  0  0  0  0  0  0999 V2000
    2.0895   -1.3428   -0.3497 C   0  0  0  0  0  0  0  0  0  0  0  0
    0.7415   -0.6953   -0.2474 C   0  0  0  0  0  0  0  0  0  0  0  0
   -0.3783   -1.3818   -0.4542 C   0  0  0  0  0  0  0  0  0  0  0  0
   -1.6875   -0.6755   -0.3363 C   0  0  0  0  0  0  0  0  0  0  0  0
   -1.7312    0.1904    0.9043 C   0  0  0  0  0  0  0  0  0  0  0  0
   -0.4829    0.9465    1.1526 C   0  0  0  0  0  0  0  0  0  0  0  0
    0.5695    0.7438    0.0889 C   0  0  0  0  0  0  0  0  0  0  0  0
    0.7324    1.8003   -0.9170 C   0  0  0  0  0  0  0  0  0  0  0  0
    1.6877    1.5309    0.0928 O   0  0  0  0  0  0  0  0  0  0  0  0
    2.2074   -2.1527    0.3993 H   0  0  0  0  0  0  0  0  0  0  0  0
    2.2400   -1.8082   -1.3440 H   0  0  0  0  0  0  0  0  0  0  0  0
    2.8524   -0.5832   -0.1106 H   0  0  0  0  0  0  0  0  0  0  0  0
   -0.2871   -2.4265   -0.6996 H   0  0  0  0  0  0  0  0  0  0  0  0
   -2.4456   -1.4937   -0.1588 H   0  0  0  0  0  0  0  0  0  0  0  0
   -1.9512   -0.1269   -1.2550 H   0  0  0  0  0  0  0  0  0  0  0  0
   -1.9713   -0.4480    1.7810 H   0  0  0  0  0  0  0  0  0  0  0  0
   -2.6180    0.8755    0.7619 H   0  0  0  0  0  0  0  0  0  0  0  0
   -0.0459    0.6712    2.1506 H   0  0  0  0  0  0  0  0  0  0  0  0
   -0.7253    2.0290    1.2006 H   0  0  0  0  0  0  0  0  0  0  0  0
    0.2043    2.7657   -0.7039 H   0  0  0  0  0  0  0  0  0  0  0  0
    0.9995    1.5814   -1.9555 H   0  0  0  0  0  0  0  0  0  0  0  0
  1  2  1  0
  2  3  2  0
  3  4  1  0
  4  5  1  0
  5  6  1  0
  6  7  1  0
  7  8  1  0
  8  9  1  0
  7  2  1  0
  9  7  1  0
  1 10  1  0
  1 11  1  0
  1 12  1  0
  3 13  1  0
  4 14  1  0
  4 15  1  0
  5 16  1  0
  5 17  1  0
  6 18  1  0
  6 19  1  0
  8 20  1  0
  8 21  1  0
M  END
