
     RDKit          3D

 21 22  0  0  0  0  0  0  0  0999 V2000
    2.3102    0.0374   -0.0114 C   0  0  0  0  0  0  0  0  0  0  0  0
    0.8916   -0.3327    0.0476 C   0  0  0  0  0  0  0  0  0  0  0  0
    0.4322   -1.5998    0.1938 C   0  0  0  0  0  0  0  0  0  0  0  0
   -1.0409   -1.6175   -0.0552 C   0  0  0  0  0  0  0  0  0  0  0  0
   -1.1512   -0.3992   -0.9959 C   0  0  0  0  0  0  0  0  0  0  0  0
   -0.3435    0.4846   -0.0273 C   0  0  0  0  0  0  0  0  0  0  0  0
   -0.2151    1.8703   -0.4082 C   0  0  0  0  0  0  0  0  0  0  0  0
   -1.1278    0.1803    1.2329 C   0  0  0  0  0  0  0  0  0  0  0  0
   -1.7154   -1.0777    1.0413 O   0  0  0  0  0  0  0  0  0  0  0  0
    2.5728    0.5100    0.9681 H   0  0  0  0  0  0  0  0  0  0  0  0
    2.5409    0.7174   -0.8722 H   0  0  0  0  0  0  0  0  0  0  0  0
    2.9421   -0.8417   -0.1328 H   0  0  0  0  0  0  0  0  0  0  0  0
    1.0112   -2.4811    0.4493 H   0  0  0  0  0  0  0  0  0  0  0  0
   -1.4381   -2.5138   -0.4585 H   0  0  0  0  0  0  0  0  0  0  0  0
   -2.1885   -0.0955   -1.0618 H   0  0  0  0  0  0  0  0  0  0  0  0
   -0.6240   -0.5878   -1.9220 H   0  0  0  0  0  0  0  0  0  0  0  0
    0.7373    2.2912   -0.0323 H   0  0  0  0  0  0  0  0  0  0  0  0
   -0.2836    1.9794   -1.5186 H   0  0  0  0  0  0  0  0  0  0  0  0
   -1.0379    2.4762    0.0271 H   0  0  0  0  0  0  0  0  0  0  0  0
   -1.8736    0.9533    1.4733 H   0  0  0  0  0  0  0  0  0  0  0  0
   -0.3988    0.0466    2.0630 H   0  0  0  0  0  0  0  0  0  0  0  0
  1  2  1  0
  2  3  2  0
  3  4  1  0
  4  5  1  0
  5  6  1  0
  6  7  1  0
  6  8  1  0
  8  9  1  0
  6  2  1  0
  9  4  1  0
  1 10  1  0
  1 11  1  0
  1 12  1  0
  3 13  1  0
  4 14  1  0
  5 15  1  0
  5 16  1  0
  7 17  1  0
  7 18  1  0
  7 19  1  0
  8 20  1  0
  8 21  1  0
M  END
