
     RDKit          3D

 17 17  0  0  0  0  0  0  0  0999 V2000
    2.4189   -0.2517   -0.2372 C   0  0  0  0  0  0  0  0  0  0  0  0
    0.9316   -0.0329   -0.1228 C   0  0  0  0  0  0  0  0  0  0  0  0
    0.4359    1.1950   -0.0728 C   0  0  0  0  0  0  0  0  0  0  0  0
   -1.0122    1.4310    0.0389 C   0  0  0  0  0  0  0  0  0  0  0  0
   -1.5272    2.4978   -0.3322 O   0  0  0  0  0  0  0  0  0  0  0  0
   -1.7904    0.2912    0.6284 C   0  0  0  0  0  0  0  0  0  0  0  0
   -1.4307   -0.9074   -0.2218 C   0  0  0  0  0  0  0  0  0  0  0  0
    0.0159   -1.1572   -0.0655 C   0  0  0  0  0  0  0  0  0  0  0  0
    0.4142   -2.3276    0.1118 O   0  0  0  0  0  0  0  0  0  0  0  0
    2.9793    0.5712    0.2460 H   0  0  0  0  0  0  0  0  0  0  0  0
    2.7264   -0.3649   -1.2939 H   0  0  0  0  0  0  0  0  0  0  0  0
    2.6309   -1.1637    0.3565 H   0  0  0  0  0  0  0  0  0  0  0  0
    1.1166    2.0300   -0.1156 H   0  0  0  0  0  0  0  0  0  0  0  0
   -1.3633    0.1070    1.6532 H   0  0  0  0  0  0  0  0  0  0  0  0
   -2.8597    0.4963    0.6700 H   0  0  0  0  0  0  0  0  0  0  0  0
   -2.0277   -1.8035    0.0354 H   0  0  0  0  0  0  0  0  0  0  0  0
   -1.6583   -0.6105   -1.2784 H   0  0  0  0  0  0  0  0  0  0  0  0
  1  2  1  0
  2  3  2  0
  3  4  1  0
  4  5  2  0
  4  6  1  0
  6  7  1  0
  7  8  1  0
  8  9  2  0
  8  2  1  0
  1 10  1  0
  1 11  1  0
  1 12  1  0
  3 13  1  0
  6 14  1  0
  6 15  1  0
  7 16  1  0
  7 17  1  0
M  END
