
     RDKit          3D

 19 20  0  0  0  0  0  0  0  0999 V2000
    2.3317    0.2218    0.3648 C   0  0  0  0  0  0  0  0  0  0  0  0
    0.9193    0.1149   -0.0501 C   0  0  0  0  0  0  0  0  0  0  0  0
    0.2222    1.2189   -0.2444 C   0  0  0  0  0  0  0  0  0  0  0  0
   -1.1619    1.1828   -0.7583 C   0  0  0  0  0  0  0  0  0  0  0  0
   -2.1067    0.9816    0.2583 O   0  0  0  0  0  0  0  0  0  0  0  0
   -1.6459   -0.2210    0.8139 C   0  0  0  0  0  0  0  0  0  0  0  0
   -1.1737   -0.9589   -0.4161 C   0  0  0  0  0  0  0  0  0  0  0  0
    0.3214   -1.2312   -0.2377 C   0  0  0  0  0  0  0  0  0  0  0  0
   -1.2851   -0.0378   -1.4555 O   0  0  0  0  0  0  0  0  0  0  0  0
    2.9686   -0.5903   -0.0606 H   0  0  0  0  0  0  0  0  0  0  0  0
    2.3522    0.0981    1.4805 H   0  0  0  0  0  0  0  0  0  0  0  0
    2.7796    1.2002    0.0847 H   0  0  0  0  0  0  0  0  0  0  0  0
    0.6800    2.1668   -0.0207 H   0  0  0  0  0  0  0  0  0  0  0  0
   -1.4234    2.0469   -1.3929 H   0  0  0  0  0  0  0  0  0  0  0  0
   -2.4269   -0.7823    1.3274 H   0  0  0  0  0  0  0  0  0  0  0  0
   -0.7909    0.0709    1.4839 H   0  0  0  0  0  0  0  0  0  0  0  0
   -1.7425   -1.8601   -0.6408 H   0  0  0  0  0  0  0  0  0  0  0  0
    0.4628   -1.8989    0.6267 H   0  0  0  0  0  0  0  0  0  0  0  0
    0.7192   -1.7225   -1.1630 H   0  0  0  0  0  0  0  0  0  0  0  0
  1  2  1  0
  2  3  2  0
  3  4  1  0
  4  5  1  0
  5  6  1  0
  6  7  1  0
  7  8  1  0
  7  9  1  0
  8  2  1  0
  9  4  1  0
  1 10  1  0
  1 11  1  0
  1 12  1  0
  3 13  1  0
  4 14  1  0
  6 15  1  0
  6 16  1  0
  7 17  1  0
  8 18  1  0
  8 19  1  0
M  END
