
     RDKit          3D

 18 18  0  0  0  0  0  0  0  0999 V2000
    2.3072   -0.5107   -0.0335 C   0  0  0  0  0  0  0  0  0  0  0  0
    0.8507   -0.2112    0.0809 C   0  0  0  0  0  0  0  0  0  0  0  0
   -0.0291   -1.1655   -0.1403 C   0  0  0  0  0  0  0  0  0  0  0  0
   -1.5049   -0.9771   -0.0539 C   0  0  0  0  0  0  0  0  0  0  0  0
   -1.7423    0.4650   -0.5275 C   0  0  0  0  0  0  0  0  0  0  0  0
   -0.9818    1.3179    0.3873 C   0  0  0  0  0  0  0  0  0  0  0  0
   -1.5432    2.1133    1.0765 O   0  0  0  0  0  0  0  0  0  0  0  0
    0.4766    1.1842    0.4474 C   0  0  0  0  0  0  0  0  0  0  0  0
    2.7494   -0.2602    0.9692 H   0  0  0  0  0  0  0  0  0  0  0  0
    2.4811   -1.6091   -0.1886 H   0  0  0  0  0  0  0  0  0  0  0  0
    2.7743    0.0934   -0.8277 H   0  0  0  0  0  0  0  0  0  0  0  0
    0.3469   -2.1452   -0.4005 H   0  0  0  0  0  0  0  0  0  0  0  0
   -2.0556   -1.6517   -0.7271 H   0  0  0  0  0  0  0  0  0  0  0  0
   -1.7847   -1.0993    1.0110 H   0  0  0  0  0  0  0  0  0  0  0  0
   -1.3183    0.4825   -1.5698 H   0  0  0  0  0  0  0  0  0  0  0  0
   -2.8251    0.6806   -0.5652 H   0  0  0  0  0  0  0  0  0  0  0  0
    0.8995    1.8316   -0.3732 H   0  0  0  0  0  0  0  0  0  0  0  0
    0.8994    1.4614    1.4349 H   0  0  0  0  0  0  0  0  0  0  0  0
  1  2  1  0
  2  3  2  0
  3  4  1  0
  4  5  1  0
  5  6  1  0
  6  7  2  0
  6  8  1  0
  8  2  1  0
  1  9  1  0
  1 10  1  0
  1 11  1  0
  3 12  1  0
  4 13  1  0
  4 14  1  0
  5 15  1  0
  5 16  1  0
  8 17  1  0
  8 18  1  0
M  END
