
     RDKit          3D

 19 19  0  0  0  0  0  0  0  0999 V2000
    2.6937   -0.5535   -0.0077 C   0  0  0  0  0  0  0  0  0  0  0  0
    1.2172   -0.3354   -0.0924 C   0  0  0  0  0  0  0  0  0  0  0  0
    0.3552   -1.3348   -0.3020 C   0  0  0  0  0  0  0  0  0  0  0  0
   -1.0236   -0.7893   -0.3317 C   0  0  0  0  0  0  0  0  0  0  0  0
   -1.5295   -0.9049    0.9675 O   0  0  0  0  0  0  0  0  0  0  0  0
   -0.8056    0.6545   -0.6488 C   0  0  0  0  0  0  0  0  0  0  0  0
   -1.9094    1.5483   -0.1598 C   0  0  0  0  0  0  0  0  0  0  0  0
    0.4850    0.9153    0.0235 C   0  0  0  0  0  0  0  0  0  0  0  0
    0.8618    1.9553    0.5625 O   0  0  0  0  0  0  0  0  0  0  0  0
    3.2117    0.3563    0.3168 H   0  0  0  0  0  0  0  0  0  0  0  0
    2.8852   -1.4126    0.6502 H   0  0  0  0  0  0  0  0  0  0  0  0
    3.0646   -0.7804   -1.0421 H   0  0  0  0  0  0  0  0  0  0  0  0
    0.6362   -2.3918   -0.4307 H   0  0  0  0  0  0  0  0  0  0  0  0
   -1.6447   -1.3242   -1.0712 H   0  0  0  0  0  0  0  0  0  0  0  0
   -1.3145   -1.8443    1.2467 H   0  0  0  0  0  0  0  0  0  0  0  0
   -0.6383    0.8129   -1.7349 H   0  0  0  0  0  0  0  0  0  0  0  0
   -1.8751    1.7790    0.9038 H   0  0  0  0  0  0  0  0  0  0  0  0
   -2.8692    1.1248   -0.4906 H   0  0  0  0  0  0  0  0  0  0  0  0
   -1.8007    2.5248   -0.7098 H   0  0  0  0  0  0  0  0  0  0  0  0
  1  2  1  0
  2  3  2  0
  3  4  1  0
  4  5  1  0
  4  6  1  0
  6  7  1  0
  6  8  1  0
  8  9  2  0
  8  2  1  0
  1 10  1  0
  1 11  1  0
  1 12  1  0
  3 13  1  0
  4 14  1  0
  5 15  1  0
  6 16  1  0
  7 17  1  0
  7 18  1  0
  7 19  1  0
M  END
