
     RDKit          3D

 17 18  0  0  0  0  0  0  0  0999 V2000
   -1.7472    1.1771   -0.2653 C   0  0  0  0  0  0  0  0  0  0  0  0
   -0.6853    0.1620   -0.3127 C   0  0  0  0  0  0  0  0  0  0  0  0
   -0.7960   -1.1163   -0.7349 C   0  0  0  0  0  0  0  0  0  0  0  0
    0.6153   -1.5858   -0.5398 C   0  0  0  0  0  0  0  0  0  0  0  0
    0.8954   -1.0772    0.8598 C   0  0  0  0  0  0  0  0  0  0  0  0
    0.7567    0.2023    0.0608 C   0  0  0  0  0  0  0  0  0  0  0  0
    1.3437    1.4021    0.5312 C   0  0  0  0  0  0  0  0  0  0  0  0
    2.3617    1.8665    0.0448 O   0  0  0  0  0  0  0  0  0  0  0  0
    1.3445   -0.4923   -0.9954 O   0  0  0  0  0  0  0  0  0  0  0  0
   -2.2391    1.2468    0.7281 H   0  0  0  0  0  0  0  0  0  0  0  0
   -2.5511    0.8436   -0.9764 H   0  0  0  0  0  0  0  0  0  0  0  0
   -1.4321    2.1715   -0.6247 H   0  0  0  0  0  0  0  0  0  0  0  0
   -1.6605   -1.6481   -1.1080 H   0  0  0  0  0  0  0  0  0  0  0  0
    0.8811   -2.5672   -0.8107 H   0  0  0  0  0  0  0  0  0  0  0  0
    1.9098   -1.3159    1.1987 H   0  0  0  0  0  0  0  0  0  0  0  0
    0.1013   -1.2222    1.5965 H   0  0  0  0  0  0  0  0  0  0  0  0
    0.9019    1.9529    1.3482 H   0  0  0  0  0  0  0  0  0  0  0  0
  1  2  1  0
  2  3  2  0
  3  4  1  0
  4  5  1  0
  5  6  1  0
  6  7  1  0
  7  8  2  0
  6  9  1  0
  6  2  1  0
  9  4  1  0
  1 10  1  0
  1 11  1  0
  1 12  1  0
  3 13  1  0
  4 14  1  0
  5 15  1  0
  5 16  1  0
  7 17  1  0
M  END
