
     RDKit          3D

 23 24  0  0  0  0  0  0  0  0999 V2000
   -2.8779    1.1186   -0.2263 C   0  0  0  0  0  0  0  0  0  0  0  0
   -1.6305    0.3168   -0.0543 C   0  0  0  0  0  0  0  0  0  0  0  0
   -0.3996    0.7178   -0.3370 C   0  0  0  0  0  0  0  0  0  0  0  0
    0.5288   -0.3564   -0.0271 C   0  0  0  0  0  0  0  0  0  0  0  0
   -0.2858   -1.5985   -0.1412 C   0  0  0  0  0  0  0  0  0  0  0  0
   -1.6029   -1.0981    0.4748 C   0  0  0  0  0  0  0  0  0  0  0  0
    1.3897   -0.1956    1.1708 C   0  0  0  0  0  0  0  0  0  0  0  0
    1.9723   -0.3192   -0.2503 C   0  0  0  0  0  0  0  0  0  0  0  0
    2.7125    0.8833   -0.7197 C   0  0  0  0  0  0  0  0  0  0  0  0
   -2.9763    1.9067    0.5620 H   0  0  0  0  0  0  0  0  0  0  0  0
   -3.7702    0.4674   -0.1205 H   0  0  0  0  0  0  0  0  0  0  0  0
   -2.9241    1.5672   -1.2440 H   0  0  0  0  0  0  0  0  0  0  0  0
   -0.1423    1.7127   -0.7423 H   0  0  0  0  0  0  0  0  0  0  0  0
   -0.4911   -1.8902   -1.2081 H   0  0  0  0  0  0  0  0  0  0  0  0
    0.1344   -2.4350    0.4140 H   0  0  0  0  0  0  0  0  0  0  0  0
   -2.4543   -1.6847    0.1367 H   0  0  0  0  0  0  0  0  0  0  0  0
   -1.4374   -1.0791    1.5562 H   0  0  0  0  0  0  0  0  0  0  0  0
    1.3974    0.7973    1.6363 H   0  0  0  0  0  0  0  0  0  0  0  0
    1.5230   -1.0643    1.8460 H   0  0  0  0  0  0  0  0  0  0  0  0
    2.4548   -1.3216   -0.4468 H   0  0  0  0  0  0  0  0  0  0  0  0
    2.0977    1.6469   -1.2132 H   0  0  0  0  0  0  0  0  0  0  0  0
    3.5880    0.5575   -1.3460 H   0  0  0  0  0  0  0  0  0  0  0  0
    3.1937    1.3505    0.1895 H   0  0  0  0  0  0  0  0  0  0  0  0
  1  2  1  0
  2  3  2  0
  3  4  1  0
  4  5  1  0
  5  6  1  0
  4  7  1  0
  7  8  1  0
  8  9  1  0
  6  2  1  0
  8  4  1  0
  1 10  1  0
  1 11  1  0
  1 12  1  0
  3 13  1  0
  5 14  1  0
  5 15  1  0
  6 16  1  0
  6 17  1  0
  7 18  1  0
  7 19  1  0
  8 20  1  0
  9 21  1  0
  9 22  1  0
  9 23  1  0
M  END
