
     RDKit          3D

 20 20  0  0  0  0  0  0  0  0999 V2000
   -2.3556   -0.5196    0.2679 C   0  0  0  0  0  0  0  0  0  0  0  0
   -0.8978   -0.4796   -0.0784 C   0  0  0  0  0  0  0  0  0  0  0  0
   -0.3162   -1.0789   -1.1062 C   0  0  0  0  0  0  0  0  0  0  0  0
    1.1396   -0.8247   -1.1420 C   0  0  0  0  0  0  0  0  0  0  0  0
    1.4228   -0.2742    0.2429 C   0  0  0  0  0  0  0  0  0  0  0  0
    2.4424    0.6647    0.2435 O   0  0  0  0  0  0  0  0  0  0  0  0
    0.1078    0.2650    0.7170 C   0  0  0  0  0  0  0  0  0  0  0  0
   -0.0423    1.7459    0.3484 C   0  0  0  0  0  0  0  0  0  0  0  0
   -2.6622    0.5046    0.5978 H   0  0  0  0  0  0  0  0  0  0  0  0
   -2.5425   -1.1832    1.1343 H   0  0  0  0  0  0  0  0  0  0  0  0
   -2.9464   -0.7836   -0.6171 H   0  0  0  0  0  0  0  0  0  0  0  0
   -0.9092   -1.6887   -1.8238 H   0  0  0  0  0  0  0  0  0  0  0  0
    1.6319   -1.8318   -1.2477 H   0  0  0  0  0  0  0  0  0  0  0  0
    1.4432   -0.1559   -1.9491 H   0  0  0  0  0  0  0  0  0  0  0  0
    1.7352   -1.1363    0.8995 H   0  0  0  0  0  0  0  0  0  0  0  0
    3.1778    0.4045    0.8560 H   0  0  0  0  0  0  0  0  0  0  0  0
   -0.0554    0.1121    1.8010 H   0  0  0  0  0  0  0  0  0  0  0  0
   -1.0171    2.0546    0.7948 H   0  0  0  0  0  0  0  0  0  0  0  0
    0.7315    2.3676    0.8027 H   0  0  0  0  0  0  0  0  0  0  0  0
   -0.0877    1.8373   -0.7415 H   0  0  0  0  0  0  0  0  0  0  0  0
  1  2  1  0
  2  3  2  0
  3  4  1  0
  4  5  1  0
  5  6  1  0
  5  7  1  0
  7  8  1  0
  7  2  1  0
  1  9  1  0
  1 10  1  0
  1 11  1  0
  3 12  1  0
  4 13  1  0
  4 14  1  0
  5 15  1  0
  6 16  1  0
  7 17  1  0
  8 18  1  0
  8 19  1  0
  8 20  1  0
M  END
