
     RDKit          3D

 19 20  0  0  0  0  0  0  0  0999 V2000
    2.3194    0.7520   -0.0594 C   0  0  0  0  0  0  0  0  0  0  0  0
    0.9252    0.3177    0.0300 C   0  0  0  0  0  0  0  0  0  0  0  0
   -0.0904    1.1472   -0.1702 C   0  0  0  0  0  0  0  0  0  0  0  0
   -1.4670    0.5911   -0.0477 C   0  0  0  0  0  0  0  0  0  0  0  0
   -2.1922    0.9729   -1.1716 O   0  0  0  0  0  0  0  0  0  0  0  0
   -1.3713   -0.8988    0.1005 C   0  0  0  0  0  0  0  0  0  0  0  0
   -0.3477   -1.5469   -0.7747 C   0  0  0  0  0  0  0  0  0  0  0  0
    0.5552   -1.0808    0.3509 C   0  0  0  0  0  0  0  0  0  0  0  0
   -0.5441   -1.1648    1.1900 O   0  0  0  0  0  0  0  0  0  0  0  0
    2.9895   -0.0901   -0.3800 H   0  0  0  0  0  0  0  0  0  0  0  0
    2.4786    1.5706   -0.7787 H   0  0  0  0  0  0  0  0  0  0  0  0
    2.7376    1.1170    0.9142 H   0  0  0  0  0  0  0  0  0  0  0  0
    0.0003    2.1914   -0.4144 H   0  0  0  0  0  0  0  0  0  0  0  0
   -1.9483    1.0244    0.8568 H   0  0  0  0  0  0  0  0  0  0  0  0
   -2.3961    1.9370   -1.0817 H   0  0  0  0  0  0  0  0  0  0  0  0
   -2.3550   -1.4015    0.1491 H   0  0  0  0  0  0  0  0  0  0  0  0
   -0.4415   -2.6286   -0.7966 H   0  0  0  0  0  0  0  0  0  0  0  0
   -0.2037   -1.0413   -1.7367 H   0  0  0  0  0  0  0  0  0  0  0  0
    1.3516   -1.7685    0.6035 H   0  0  0  0  0  0  0  0  0  0  0  0
  1  2  1  0
  2  3  2  0
  3  4  1  0
  4  5  1  0
  4  6  1  0
  6  7  1  0
  7  8  1  0
  8  9  1  0
  8  2  1  0
  9  6  1  0
  1 10  1  0
  1 11  1  0
  1 12  1  0
  3 13  1  0
  4 14  1  0
  5 15  1  0
  6 16  1  0
  7 17  1  0
  7 18  1  0
  8 19  1  0
M  END
