
     RDKit          3D

 18 19  0  0  0  0  0  0  0  0999 V2000
    2.2309    0.0504    0.1046 C   0  0  0  0  0  0  0  0  0  0  0  0
    0.7543    0.2598    0.0843 C   0  0  0  0  0  0  0  0  0  0  0  0
    0.1225    1.4178   -0.0134 C   0  0  0  0  0  0  0  0  0  0  0  0
   -1.3576    1.0946    0.0052 C   0  0  0  0  0  0  0  0  0  0  0  0
   -1.2234   -0.1355   -0.8499 C   0  0  0  0  0  0  0  0  0  0  0  0
   -1.0935   -1.5064   -0.6144 C   0  0  0  0  0  0  0  0  0  0  0  0
   -0.2427   -0.7769    0.2117 C   0  0  0  0  0  0  0  0  0  0  0  0
   -0.7079   -0.7061    1.5667 O   0  0  0  0  0  0  0  0  0  0  0  0
    2.5591   -0.7141   -0.6216 H   0  0  0  0  0  0  0  0  0  0  0  0
    2.5738   -0.2101    1.1258 H   0  0  0  0  0  0  0  0  0  0  0  0
    2.7249    1.0027   -0.1933 H   0  0  0  0  0  0  0  0  0  0  0  0
    0.5418    2.3869   -0.0903 H   0  0  0  0  0  0  0  0  0  0  0  0
   -1.6624    0.8869    1.0315 H   0  0  0  0  0  0  0  0  0  0  0  0
   -1.9572    1.8860   -0.4343 H   0  0  0  0  0  0  0  0  0  0  0  0
   -0.7350    0.2030   -1.8204 H   0  0  0  0  0  0  0  0  0  0  0  0
   -0.6333   -2.1871   -1.3879 H   0  0  0  0  0  0  0  0  0  0  0  0
   -1.9862   -2.0558   -0.1982 H   0  0  0  0  0  0  0  0  0  0  0  0
    0.0918   -0.8961    2.0939 H   0  0  0  0  0  0  0  0  0  0  0  0
  1  2  1  0
  2  3  2  0
  3  4  1  0
  4  5  1  0
  5  6  1  0
  6  7  1  0
  7  8  1  0
  7  2  1  0
  7  5  1  0
  1  9  1  0
  1 10  1  0
  1 11  1  0
  3 12  1  0
  4 13  1  0
  4 14  1  0
  5 15  1  0
  6 16  1  0
  6 17  1  0
  8 18  1  0
M  END
