
     RDKit          3D

 21 22  0  0  0  0  0  0  0  0999 V2000
    2.8737   -0.4409   -0.2796 C   0  0  0  0  0  0  0  0  0  0  0  0
    1.4199   -0.1392   -0.2386 C   0  0  0  0  0  0  0  0  0  0  0  0
    0.8441    0.9860   -0.5802 C   0  0  0  0  0  0  0  0  0  0  0  0
   -0.6064    0.9277   -0.4115 C   0  0  0  0  0  0  0  0  0  0  0  0
   -1.4219    2.0769   -0.4461 C   0  0  0  0  0  0  0  0  0  0  0  0
   -1.4406    1.1205   -1.5393 O   0  0  0  0  0  0  0  0  0  0  0  0
   -0.8866   -0.3073    0.3945 C   0  0  0  0  0  0  0  0  0  0  0  0
   -2.0137   -1.1150   -0.2574 C   0  0  0  0  0  0  0  0  0  0  0  0
    0.3766   -1.0816    0.2031 C   0  0  0  0  0  0  0  0  0  0  0  0
    3.1661   -0.5313   -1.3454 H   0  0  0  0  0  0  0  0  0  0  0  0
    3.4687    0.3553    0.2142 H   0  0  0  0  0  0  0  0  0  0  0  0
    3.1146   -1.3860    0.2260 H   0  0  0  0  0  0  0  0  0  0  0  0
    1.3695    1.8825   -0.9529 H   0  0  0  0  0  0  0  0  0  0  0  0
   -2.3890    2.1599    0.0966 H   0  0  0  0  0  0  0  0  0  0  0  0
   -0.9962    3.0626   -0.7402 H   0  0  0  0  0  0  0  0  0  0  0  0
   -1.0695   -0.1213    1.4566 H   0  0  0  0  0  0  0  0  0  0  0  0
   -2.9947   -0.8706    0.1766 H   0  0  0  0  0  0  0  0  0  0  0  0
   -1.8075   -2.2036   -0.2055 H   0  0  0  0  0  0  0  0  0  0  0  0
   -1.9622   -0.8635   -1.3556 H   0  0  0  0  0  0  0  0  0  0  0  0
    0.2792   -1.8534   -0.6146 H   0  0  0  0  0  0  0  0  0  0  0  0
    0.6759   -1.6577    1.1012 H   0  0  0  0  0  0  0  0  0  0  0  0
  1  2  1  0
  2  3  2  0
  3  4  1  0
  4  5  1  0
  5  6  1  0
  4  7  1  0
  7  8  1  0
  7  9  1  0
  9  2  1  0
  6  4  1  0
  1 10  1  0
  1 11  1  0
  1 12  1  0
  3 13  1  0
  5 14  1  0
  5 15  1  0
  7 16  1  0
  8 17  1  0
  8 18  1  0
  8 19  1  0
  9 20  1  0
  9 21  1  0
M  END
