
     RDKit          3D

 19 20  0  0  0  0  0  0  0  0999 V2000
    2.8141   -0.5271   -0.2251 C   0  0  0  0  0  0  0  0  0  0  0  0
    1.4261   -0.0557   -0.0030 C   0  0  0  0  0  0  0  0  0  0  0  0
    1.0851    1.0977    0.5507 C   0  0  0  0  0  0  0  0  0  0  0  0
   -0.3887    1.2220    0.6056 C   0  0  0  0  0  0  0  0  0  0  0  0
   -0.8967   -0.0917    0.1203 C   0  0  0  0  0  0  0  0  0  0  0  0
   -2.2765   -0.0693   -0.4723 C   0  0  0  0  0  0  0  0  0  0  0  0
   -3.2492   -0.3348    0.5171 O   0  0  0  0  0  0  0  0  0  0  0  0
   -0.5255   -1.2756    0.6972 O   0  0  0  0  0  0  0  0  0  0  0  0
    0.2122   -0.8279   -0.3781 C   0  0  0  0  0  0  0  0  0  0  0  0
    3.0179   -0.7099   -1.3198 H   0  0  0  0  0  0  0  0  0  0  0  0
    3.0138   -1.4609    0.3620 H   0  0  0  0  0  0  0  0  0  0  0  0
    3.5696    0.2060    0.1188 H   0  0  0  0  0  0  0  0  0  0  0  0
    1.7572    1.8798    0.9293 H   0  0  0  0  0  0  0  0  0  0  0  0
   -0.6714    2.0197   -0.1144 H   0  0  0  0  0  0  0  0  0  0  0  0
   -0.7585    1.4903    1.6140 H   0  0  0  0  0  0  0  0  0  0  0  0
   -2.3540   -0.8209   -1.3007 H   0  0  0  0  0  0  0  0  0  0  0  0
   -2.5376    0.9301   -0.8794 H   0  0  0  0  0  0  0  0  0  0  0  0
   -3.4257   -1.3152    0.5253 H   0  0  0  0  0  0  0  0  0  0  0  0
    0.1879   -1.3566   -1.3475 H   0  0  0  0  0  0  0  0  0  0  0  0
  1  2  1  0
  2  3  2  0
  3  4  1  0
  4  5  1  0
  5  6  1  0
  6  7  1  0
  5  8  1  0
  8  9  1  0
  9  2  1  0
  9  5  1  0
  1 10  1  0
  1 11  1  0
  1 12  1  0
  3 13  1  0
  4 14  1  0
  4 15  1  0
  6 16  1  0
  6 17  1  0
  7 18  1  0
  9 19  1  0
M  END
