
     RDKit          3D

 21 22  0  0  0  0  0  0  0  0999 V2000
    2.7153    0.7534   -0.0312 C   0  0  0  0  0  0  0  0  0  0  0  0
    1.3521    0.1579   -0.0148 C   0  0  0  0  0  0  0  0  0  0  0  0
    0.2484    0.9018   -0.0422 C   0  0  0  0  0  0  0  0  0  0  0  0
   -1.0657    0.2247   -0.0229 C   0  0  0  0  0  0  0  0  0  0  0  0
   -1.9583    0.5025   -1.2121 C   0  0  0  0  0  0  0  0  0  0  0  0
   -1.6757    0.0381    1.3300 C   0  0  0  0  0  0  0  0  0  0  0  0
   -1.0906   -1.1162    0.5620 C   0  0  0  0  0  0  0  0  0  0  0  0
    0.1322   -1.5847    0.9601 O   0  0  0  0  0  0  0  0  0  0  0  0
    1.1570   -1.3180    0.0339 C   0  0  0  0  0  0  0  0  0  0  0  0
    2.6508    1.8461   -0.0492 H   0  0  0  0  0  0  0  0  0  0  0  0
    3.2164    0.3869   -0.9605 H   0  0  0  0  0  0  0  0  0  0  0  0
    3.2584    0.3777    0.8512 H   0  0  0  0  0  0  0  0  0  0  0  0
    0.3618    1.9703   -0.0773 H   0  0  0  0  0  0  0  0  0  0  0  0
   -1.4096    1.0723   -1.9773 H   0  0  0  0  0  0  0  0  0  0  0  0
   -2.8648    0.9872   -0.8349 H   0  0  0  0  0  0  0  0  0  0  0  0
   -2.2433   -0.4717   -1.7051 H   0  0  0  0  0  0  0  0  0  0  0  0
   -1.1425    0.3776    2.2438 H   0  0  0  0  0  0  0  0  0  0  0  0
   -2.7690    0.1896    1.3668 H   0  0  0  0  0  0  0  0  0  0  0  0
   -1.8233   -1.8490    0.1193 H   0  0  0  0  0  0  0  0  0  0  0  0
    2.0631   -1.8058    0.4397 H   0  0  0  0  0  0  0  0  0  0  0  0
    0.8871   -1.6407   -0.9793 H   0  0  0  0  0  0  0  0  0  0  0  0
  1  2  1  0
  2  3  2  0
  3  4  1  0
  4  5  1  0
  4  6  1  0
  6  7  1  0
  7  8  1  0
  8  9  1  0
  9  2  1  0
  7  4  1  0
  1 10  1  0
  1 11  1  0
  1 12  1  0
  3 13  1  0
  5 14  1  0
  5 15  1  0
  5 16  1  0
  6 17  1  0
  6 18  1  0
  7 19  1  0
  9 20  1  0
  9 21  1  0
M  END
