
     RDKit          3D

 19 20  0  0  0  0  0  0  0  0999 V2000
    2.6022    0.2347   -0.1266 C   0  0  0  0  0  0  0  0  0  0  0  0
    1.1367    0.1050   -0.0602 C   0  0  0  0  0  0  0  0  0  0  0  0
    0.4193   -0.2637   -1.1381 C   0  0  0  0  0  0  0  0  0  0  0  0
   -1.0155   -0.4764   -0.9429 C   0  0  0  0  0  0  0  0  0  0  0  0
   -1.3174   -1.1959    0.3802 C   0  0  0  0  0  0  0  0  0  0  0  0
   -1.1203    0.1832    1.0301 C   0  0  0  0  0  0  0  0  0  0  0  0
   -1.6156    0.7616   -0.2761 C   0  0  0  0  0  0  0  0  0  0  0  0
    0.3448    0.3539    1.1365 C   0  0  0  0  0  0  0  0  0  0  0  0
    0.8467    0.6986    2.2257 O   0  0  0  0  0  0  0  0  0  0  0  0
    2.9908    0.3468    0.9015 H   0  0  0  0  0  0  0  0  0  0  0  0
    3.0984   -0.6589   -0.5736 H   0  0  0  0  0  0  0  0  0  0  0  0
    2.8371    1.1061   -0.7720 H   0  0  0  0  0  0  0  0  0  0  0  0
    0.8494   -0.4046   -2.1142 H   0  0  0  0  0  0  0  0  0  0  0  0
   -1.5858   -0.8680   -1.7825 H   0  0  0  0  0  0  0  0  0  0  0  0
   -0.5409   -1.8940    0.7041 H   0  0  0  0  0  0  0  0  0  0  0  0
   -2.3340   -1.5831    0.4313 H   0  0  0  0  0  0  0  0  0  0  0  0
   -1.7165    0.3690    1.9142 H   0  0  0  0  0  0  0  0  0  0  0  0
   -1.1786    1.7092   -0.5832 H   0  0  0  0  0  0  0  0  0  0  0  0
   -2.7007    0.7425   -0.3541 H   0  0  0  0  0  0  0  0  0  0  0  0
  1  2  1  0
  2  3  2  0
  3  4  1  0
  4  5  1  0
  5  6  1  0
  6  7  1  0
  6  8  1  0
  8  9  2  0
  8  2  1  0
  7  4  1  0
  1 10  1  0
  1 11  1  0
  1 12  1  0
  3 13  1  0
  4 14  1  0
  5 15  1  0
  5 16  1  0
  6 17  1  0
  7 18  1  0
  7 19  1  0
M  END
