
     RDKit          3D

 23 23  0  0  0  0  0  0  0  0999 V2000
   -1.4794    1.9181    0.1895 C   0  0  0  0  0  0  0  0  0  0  0  0
   -0.4188    0.8859    0.0798 C   0  0  0  0  0  0  0  0  0  0  0  0
    0.7621    1.2257   -0.4224 C   0  0  0  0  0  0  0  0  0  0  0  0
    1.9078    0.3236   -0.5952 C   0  0  0  0  0  0  0  0  0  0  0  0
    2.9379    0.7023    0.2858 O   0  0  0  0  0  0  0  0  0  0  0  0
    1.5926   -1.1155   -0.3417 C   0  0  0  0  0  0  0  0  0  0  0  0
    0.1217   -1.3856   -0.5236 C   0  0  0  0  0  0  0  0  0  0  0  0
   -0.6053   -0.5104    0.5016 C   0  0  0  0  0  0  0  0  0  0  0  0
   -2.0440   -0.9483    0.5175 C   0  0  0  0  0  0  0  0  0  0  0  0
   -1.5958    2.1625    1.2684 H   0  0  0  0  0  0  0  0  0  0  0  0
   -1.1754    2.8420   -0.3244 H   0  0  0  0  0  0  0  0  0  0  0  0
   -2.4364    1.5954   -0.2784 H   0  0  0  0  0  0  0  0  0  0  0  0
    0.9159    2.2708   -0.7434 H   0  0  0  0  0  0  0  0  0  0  0  0
    2.3004    0.4949   -1.6380 H   0  0  0  0  0  0  0  0  0  0  0  0
    2.7842    0.2043    1.1257 H   0  0  0  0  0  0  0  0  0  0  0  0
    1.8249   -1.3353    0.7283 H   0  0  0  0  0  0  0  0  0  0  0  0
    2.2080   -1.7682   -0.9983 H   0  0  0  0  0  0  0  0  0  0  0  0
   -0.0828   -2.4451   -0.2557 H   0  0  0  0  0  0  0  0  0  0  0  0
   -0.2424   -1.1420   -1.5327 H   0  0  0  0  0  0  0  0  0  0  0  0
   -0.0981   -0.6768    1.4617 H   0  0  0  0  0  0  0  0  0  0  0  0
   -2.5854   -0.6573    1.4324 H   0  0  0  0  0  0  0  0  0  0  0  0
   -2.0571   -2.0573    0.4717 H   0  0  0  0  0  0  0  0  0  0  0  0
   -2.5346   -0.5838   -0.4086 H   0  0  0  0  0  0  0  0  0  0  0  0
  1  2  1  0
  2  3  2  0
  3  4  1  0
  4  5  1  0
  4  6  1  0
  6  7  1  0
  7  8  1  0
  8  9  1  0
  8  2  1  0
  1 10  1  0
  1 11  1  0
  1 12  1  0
  3 13  1  0
  4 14  1  0
  5 15  1  0
  6 16  1  0
  6 17  1  0
  7 18  1  0
  7 19  1  0
  8 20  1  0
  9 21  1  0
  9 22  1  0
  9 23  1  0
M  END
