
     RDKit          3D

 21 21  0  0  0  0  0  0  0  0999 V2000
    2.5860    0.3505    0.5702 C   0  0  0  0  0  0  0  0  0  0  0  0
    1.2583    0.0151    0.0432 C   0  0  0  0  0  0  0  0  0  0  0  0
    0.2563    0.8587    0.1735 C   0  0  0  0  0  0  0  0  0  0  0  0
   -1.0841    0.4972   -0.3695 C   0  0  0  0  0  0  0  0  0  0  0  0
   -2.1259    1.5127   -0.0570 C   0  0  0  0  0  0  0  0  0  0  0  0
   -1.4004   -0.8788    0.2004 C   0  0  0  0  0  0  0  0  0  0  0  0
   -0.3120   -1.7841   -0.2544 C   0  0  0  0  0  0  0  0  0  0  0  0
   -0.4750   -2.9923   -0.3343 O   0  0  0  0  0  0  0  0  0  0  0  0
    1.0360   -1.2724   -0.6379 C   0  0  0  0  0  0  0  0  0  0  0  0
    2.4885    0.5437    1.6660 H   0  0  0  0  0  0  0  0  0  0  0  0
    3.2756   -0.5390    0.4963 H   0  0  0  0  0  0  0  0  0  0  0  0
    3.0590    1.2024    0.0509 H   0  0  0  0  0  0  0  0  0  0  0  0
    0.4065    1.7922    0.6643 H   0  0  0  0  0  0  0  0  0  0  0  0
   -0.9503    0.4151   -1.4836 H   0  0  0  0  0  0  0  0  0  0  0  0
   -3.0427    1.1136    0.3882 H   0  0  0  0  0  0  0  0  0  0  0  0
   -2.4175    2.0646   -0.9835 H   0  0  0  0  0  0  0  0  0  0  0  0
   -1.7002    2.2600    0.6502 H   0  0  0  0  0  0  0  0  0  0  0  0
   -1.3578   -0.7574    1.3220 H   0  0  0  0  0  0  0  0  0  0  0  0
   -2.4001   -1.2221   -0.0457 H   0  0  0  0  0  0  0  0  0  0  0  0
    1.0970   -1.1757   -1.7581 H   0  0  0  0  0  0  0  0  0  0  0  0
    1.8028   -2.0040   -0.3012 H   0  0  0  0  0  0  0  0  0  0  0  0
  1  2  1  0
  2  3  2  0
  3  4  1  0
  4  5  1  0
  4  6  1  0
  6  7  1  0
  7  8  2  0
  7  9  1  0
  9  2  1  0
  1 10  1  0
  1 11  1  0
  1 12  1  0
  3 13  1  0
  4 14  1  0
  5 15  1  0
  5 16  1  0
  5 17  1  0
  6 18  1  0
  6 19  1  0
  9 20  1  0
  9 21  1  0
M  END
