
     RDKit          2D

 19 21  0  0  0  0  0  0  0  0999 V2000
   -1.4958    4.6036    0.0000 C   0  0  0  0  0  0  0  0  0  0  0  0
   -1.0323    3.1771    0.0000 C   0  0  0  0  0  0  0  0  0  0  0  0
    0.3943    2.7135    0.0000 C   0  0  0  0  0  0  0  0  0  0  0  0
    0.3943    1.2135    0.0000 C   0  0  0  0  0  0  0  0  0  0  0  0
    1.2760    0.0000    0.0000 O   0  0  0  0  0  0  0  0  0  0  0  0
    0.3943   -1.2135    0.0000 C   0  0  0  0  0  0  0  0  0  0  0  0
   -1.0323   -0.7500    0.0000 C   0  0  0  0  0  0  0  0  0  0  0  0
   -1.0323    0.7500    0.0000 C   0  0  0  0  0  0  0  0  0  0  0  0
   -1.9140    1.9635    0.0000 C   0  0  0  0  0  0  0  0  0  0  0  0
   -1.9593    6.0302    0.0000 H   0  0  0  0  0  0  0  0  0  0  0  0
   -0.0692    5.0672    0.0000 H   0  0  0  0  0  0  0  0  0  0  0  0
   -2.9224    4.1401    0.0000 H   0  0  0  0  0  0  0  0  0  0  0  0
    1.6078    3.5952    0.0000 H   0  0  0  0  0  0  0  0  0  0  0  0
    1.8209    1.6771    0.0000 H   0  0  0  0  0  0  0  0  0  0  0  0
    0.8578   -2.6401    0.0000 H   0  0  0  0  0  0  0  0  0  0  0  0
   -1.3442   -2.2172    0.0000 H   0  0  0  0  0  0  0  0  0  0  0  0
   -2.5321   -0.7762    0.0000 H   0  0  0  0  0  0  0  0  0  0  0  0
   -2.5047    0.4638    0.0000 H   0  0  0  0  0  0  0  0  0  0  0  0
   -3.4140    1.9635    0.0000 H   0  0  0  0  0  0  0  0  0  0  0  0
  1  2  1  0
  2  3  2  0
  3  4  1  0
  4  5  1  0
  5  6  1  0
  6  7  1  0
  7  8  1  0
  8  9  1  0
  9  2  1  0
  8  4  1  0
  9  6  1  0
  1 10  1  0
  1 11  1  0
  1 12  1  0
  3 13  1  0
  4 14  1  0
  6 15  1  0
  7 16  1  0
  7 17  1  0
  8 18  1  0
  9 19  1  0
M  END
