
     RDKit          3D

 19 21  0  0  0  0  0  0  0  0999 V2000
   -1.8726    1.6663   -0.2017 C   0  0  0  0  0  0  0  0  0  0  0  0
   -0.9430    0.5513   -0.1435 C   0  0  0  0  0  0  0  0  0  0  0  0
    0.3521    0.5933   -0.2066 C   0  0  0  0  0  0  0  0  0  0  0  0
    1.7898    0.7475   -0.2848 C   0  0  0  0  0  0  0  0  0  0  0  0
    1.8196   -0.5074    0.6468 C   0  0  0  0  0  0  0  0  0  0  0  0
    0.7047   -1.4483    0.8143 C   0  0  0  0  0  0  0  0  0  0  0  0
   -0.5814   -1.1348    1.3029 O   0  0  0  0  0  0  0  0  0  0  0  0
   -1.4789   -0.8461    0.1947 C   0  0  0  0  0  0  0  0  0  0  0  0
    0.8267   -0.9178   -0.5011 C   0  0  0  0  0  0  0  0  0  0  0  0
   -2.5353    1.5920   -1.1003 H   0  0  0  0  0  0  0  0  0  0  0  0
   -1.3871    2.6658   -0.2832 H   0  0  0  0  0  0  0  0  0  0  0  0
   -2.5450    1.7552    0.6826 H   0  0  0  0  0  0  0  0  0  0  0  0
    2.2242    0.4948   -1.2596 H   0  0  0  0  0  0  0  0  0  0  0  0
    2.2663    1.6209    0.1745 H   0  0  0  0  0  0  0  0  0  0  0  0
    2.8287   -0.9401    0.5875 H   0  0  0  0  0  0  0  0  0  0  0  0
    0.9461   -2.5093    1.0059 H   0  0  0  0  0  0  0  0  0  0  0  0
   -1.2817   -1.5142   -0.6329 H   0  0  0  0  0  0  0  0  0  0  0  0
   -2.4774   -0.7758    0.5935 H   0  0  0  0  0  0  0  0  0  0  0  0
    1.3442   -1.0930   -1.3890 H   0  0  0  0  0  0  0  0  0  0  0  0
  1  2  1  0
  2  3  2  0
  3  4  1  0
  4  5  1  0
  5  6  1  0
  6  7  1  0
  7  8  1  0
  6  9  1  0
  8  2  1  0
  9  3  1  0
  9  5  1  0
  1 10  1  0
  1 11  1  0
  1 12  1  0
  4 13  1  0
  4 14  1  0
  5 15  1  0
  6 16  1  0
  8 17  1  0
  8 18  1  0
  9 19  1  0
M  END
