
     RDKit          3D

 19 21  0  0  0  0  0  0  0  0999 V2000
    2.4453    0.3315    0.3251 C   0  0  0  0  0  0  0  0  0  0  0  0
    1.0761   -0.1843    0.0525 C   0  0  0  0  0  0  0  0  0  0  0  0
    0.5356   -1.2865    0.5320 C   0  0  0  0  0  0  0  0  0  0  0  0
   -0.8414   -1.4696    0.0337 C   0  0  0  0  0  0  0  0  0  0  0  0
   -1.8380   -0.4365    0.2179 C   0  0  0  0  0  0  0  0  0  0  0  0
   -1.6562    0.9722    0.5721 C   0  0  0  0  0  0  0  0  0  0  0  0
   -0.6182    1.5446    0.0174 C   0  0  0  0  0  0  0  0  0  0  0  0
    0.0638    0.5271   -0.8208 C   0  0  0  0  0  0  0  0  0  0  0  0
   -0.9723   -0.5027   -1.0639 C   0  0  0  0  0  0  0  0  0  0  0  0
    3.0768   -0.5194    0.7105 H   0  0  0  0  0  0  0  0  0  0  0  0
    2.9425    0.7487   -0.5523 H   0  0  0  0  0  0  0  0  0  0  0  0
    2.4507    1.1144    1.1210 H   0  0  0  0  0  0  0  0  0  0  0  0
    1.0374   -1.9703    1.2051 H   0  0  0  0  0  0  0  0  0  0  0  0
   -1.2132   -2.5186   -0.0631 H   0  0  0  0  0  0  0  0  0  0  0  0
   -2.9252   -0.7439    0.0570 H   0  0  0  0  0  0  0  0  0  0  0  0
   -2.3389    1.5107    1.2524 H   0  0  0  0  0  0  0  0  0  0  0  0
   -0.2567    2.5855    0.1104 H   0  0  0  0  0  0  0  0  0  0  0  0
    0.5352    0.9456   -1.7205 H   0  0  0  0  0  0  0  0  0  0  0  0
   -1.5033   -0.6485   -1.9865 H   0  0  0  0  0  0  0  0  0  0  0  0
  1  2  1  0
  2  3  2  0
  3  4  1  0
  4  5  1  0
  5  6  1  0
  6  7  2  0
  7  8  1  0
  8  9  1  0
  8  2  1  0
  9  4  1  0
  9  5  1  0
  1 10  1  0
  1 11  1  0
  1 12  1  0
  3 13  1  0
  4 14  1  0
  5 15  1  0
  6 16  1  0
  7 17  1  0
  8 18  1  0
  9 19  1  0
M  END
