
     RDKit          3D

 23 23  0  0  0  0  0  0  0  0999 V2000
    2.5567   -0.8138   -0.0368 C   0  0  0  0  0  0  0  0  0  0  0  0
    1.1019   -0.4696    0.1655 C   0  0  0  0  0  0  0  0  0  0  0  0
    0.3037   -1.5099    0.0549 C   0  0  0  0  0  0  0  0  0  0  0  0
   -1.1537   -1.5213    0.1934 C   0  0  0  0  0  0  0  0  0  0  0  0
   -1.8446   -0.3557   -0.4729 C   0  0  0  0  0  0  0  0  0  0  0  0
   -1.6359    0.8465    0.4183 C   0  0  0  0  0  0  0  0  0  0  0  0
   -0.3937    1.5399    0.0087 C   0  0  0  0  0  0  0  0  0  0  0  0
   -0.4107    1.6571   -1.3988 O   0  0  0  0  0  0  0  0  0  0  0  0
    0.8810    0.9291    0.4402 C   0  0  0  0  0  0  0  0  0  0  0  0
    3.0978    0.0049   -0.5494 H   0  0  0  0  0  0  0  0  0  0  0  0
    2.9967   -1.0045    0.9739 H   0  0  0  0  0  0  0  0  0  0  0  0
    2.6495   -1.7119   -0.6725 H   0  0  0  0  0  0  0  0  0  0  0  0
    0.7579   -2.4650   -0.1607 H   0  0  0  0  0  0  0  0  0  0  0  0
   -1.5534   -2.4514   -0.2605 H   0  0  0  0  0  0  0  0  0  0  0  0
   -1.4862   -1.5693    1.2719 H   0  0  0  0  0  0  0  0  0  0  0  0
   -2.9094   -0.6175   -0.6069 H   0  0  0  0  0  0  0  0  0  0  0  0
   -1.3310   -0.1651   -1.4300 H   0  0  0  0  0  0  0  0  0  0  0  0
   -2.4977    1.5310    0.2251 H   0  0  0  0  0  0  0  0  0  0  0  0
   -1.6679    0.5982    1.4907 H   0  0  0  0  0  0  0  0  0  0  0  0
   -0.4268    2.5845    0.3834 H   0  0  0  0  0  0  0  0  0  0  0  0
    0.2733    2.3551   -1.6065 H   0  0  0  0  0  0  0  0  0  0  0  0
    0.9803    1.0800    1.5576 H   0  0  0  0  0  0  0  0  0  0  0  0
    1.7124    1.5285    0.0114 H   0  0  0  0  0  0  0  0  0  0  0  0
  1  2  1  0
  2  3  2  0
  3  4  1  0
  4  5  1  0
  5  6  1  0
  6  7  1  0
  7  8  1  0
  7  9  1  0
  9  2  1  0
  1 10  1  0
  1 11  1  0
  1 12  1  0
  3 13  1  0
  4 14  1  0
  4 15  1  0
  5 16  1  0
  5 17  1  0
  6 18  1  0
  6 19  1  0
  7 20  1  0
  8 21  1  0
  9 22  1  0
  9 23  1  0
M  END
