
     RDKit          3D

 14 14  0  0  0  0  0  0  0  0999 V2000
    2.0873   -0.1520   -0.0106 C   0  0  0  0  0  0  0  0  0  0  0  0
    0.5940   -0.0415   -0.0040 C   0  0  0  0  0  0  0  0  0  0  0  0
   -0.2509   -1.0160   -0.2789 C   0  0  0  0  0  0  0  0  0  0  0  0
   -1.6705   -0.5218   -0.1680 C   0  0  0  0  0  0  0  0  0  0  0  0
   -1.5415    0.8987    0.2157 C   0  0  0  0  0  0  0  0  0  0  0  0
   -2.4640    1.7114    0.4198 O   0  0  0  0  0  0  0  0  0  0  0  0
   -0.1264    1.2001    0.3185 C   0  0  0  0  0  0  0  0  0  0  0  0
    0.4339    2.2924    0.6207 O   0  0  0  0  0  0  0  0  0  0  0  0
    2.4549   -0.2646   -1.0640 H   0  0  0  0  0  0  0  0  0  0  0  0
    2.4014   -1.0662    0.5697 H   0  0  0  0  0  0  0  0  0  0  0  0
    2.5421    0.7233    0.4931 H   0  0  0  0  0  0  0  0  0  0  0  0
   -0.0218   -2.0348   -0.5491 H   0  0  0  0  0  0  0  0  0  0  0  0
   -2.2012   -0.6183   -1.1447 H   0  0  0  0  0  0  0  0  0  0  0  0
   -2.2373   -1.1107    0.5819 H   0  0  0  0  0  0  0  0  0  0  0  0
  1  2  1  0
  2  3  2  0
  3  4  1  0
  4  5  1  0
  5  6  2  0
  5  7  1  0
  7  8  2  0
  7  2  1  0
  1  9  1  0
  1 10  1  0
  1 11  1  0
  3 12  1  0
  4 13  1  0
  4 14  1  0
M  END
