
     RDKit          3D

 19 19  0  0  0  0  0  0  0  0999 V2000
    2.3924   -0.4675   -0.6907 C   0  0  0  0  0  0  0  0  0  0  0  0
    0.9569   -0.4559   -0.2469 C   0  0  0  0  0  0  0  0  0  0  0  0
    0.2982   -1.5525    0.0503 C   0  0  0  0  0  0  0  0  0  0  0  0
   -1.1130   -1.4264    0.4768 C   0  0  0  0  0  0  0  0  0  0  0  0
   -1.8008   -0.4339   -0.1776 O   0  0  0  0  0  0  0  0  0  0  0  0
   -1.2116    0.7840   -0.2572 C   0  0  0  0  0  0  0  0  0  0  0  0
   -1.7831    1.7706    0.7142 C   0  0  0  0  0  0  0  0  0  0  0  0
   -1.3715    2.9149    0.7797 O   0  0  0  0  0  0  0  0  0  0  0  0
    0.2704    0.8304   -0.1421 C   0  0  0  0  0  0  0  0  0  0  0  0
    2.9159    0.2458   -0.0194 H   0  0  0  0  0  0  0  0  0  0  0  0
    2.3830   -0.1197   -1.7443 H   0  0  0  0  0  0  0  0  0  0  0  0
    2.8246   -1.4993   -0.6012 H   0  0  0  0  0  0  0  0  0  0  0  0
    0.7475   -2.5189   -0.0061 H   0  0  0  0  0  0  0  0  0  0  0  0
   -1.6221   -2.3851    0.2446 H   0  0  0  0  0  0  0  0  0  0  0  0
   -1.1211   -1.2223    1.5774 H   0  0  0  0  0  0  0  0  0  0  0  0
   -1.4751    1.2079   -1.2734 H   0  0  0  0  0  0  0  0  0  0  0  0
   -2.5828    1.5015    1.3930 H   0  0  0  0  0  0  0  0  0  0  0  0
    0.7206    1.5230   -0.9122 H   0  0  0  0  0  0  0  0  0  0  0  0
    0.5717    1.3033    0.8348 H   0  0  0  0  0  0  0  0  0  0  0  0
  1  2  1  0
  2  3  2  0
  3  4  1  0
  4  5  1  0
  5  6  1  0
  6  7  1  0
  7  8  2  0
  6  9  1  0
  9  2  1  0
  1 10  1  0
  1 11  1  0
  1 12  1  0
  3 13  1  0
  4 14  1  0
  4 15  1  0
  6 16  1  0
  7 17  1  0
  9 18  1  0
  9 19  1  0
M  END
