
     RDKit          3D

 23 23  0  0  0  0  0  0  0  0999 V2000
   -1.9875   -1.4777    0.2493 C   0  0  0  0  0  0  0  0  0  0  0  0
   -0.7628   -0.6676   -0.0017 C   0  0  0  0  0  0  0  0  0  0  0  0
    0.2420   -1.3812   -0.5131 C   0  0  0  0  0  0  0  0  0  0  0  0
    1.5710   -0.8132   -0.8542 C   0  0  0  0  0  0  0  0  0  0  0  0
    2.1622   -0.2326    0.3807 C   0  0  0  0  0  0  0  0  0  0  0  0
    1.5618    0.9389    0.9574 C   0  0  0  0  0  0  0  0  0  0  0  0
    0.3183    1.3628    0.9517 C   0  0  0  0  0  0  0  0  0  0  0  0
   -0.8432    0.7399    0.3358 C   0  0  0  0  0  0  0  0  0  0  0  0
   -1.2486    1.6139   -0.8627 C   0  0  0  0  0  0  0  0  0  0  0  0
   -1.8869   -2.5199   -0.1443 H   0  0  0  0  0  0  0  0  0  0  0  0
   -2.1371   -1.5693    1.3456 H   0  0  0  0  0  0  0  0  0  0  0  0
   -2.8792   -1.0492   -0.2549 H   0  0  0  0  0  0  0  0  0  0  0  0
    0.0852   -2.4352   -0.6916 H   0  0  0  0  0  0  0  0  0  0  0  0
    1.5187   -0.1009   -1.7038 H   0  0  0  0  0  0  0  0  0  0  0  0
    2.2326   -1.6396   -1.1911 H   0  0  0  0  0  0  0  0  0  0  0  0
    3.2563   -0.0323    0.1979 H   0  0  0  0  0  0  0  0  0  0  0  0
    2.1747   -1.0559    1.1543 H   0  0  0  0  0  0  0  0  0  0  0  0
    2.2700    1.5935    1.4992 H   0  0  0  0  0  0  0  0  0  0  0  0
    0.0853    2.3096    1.4703 H   0  0  0  0  0  0  0  0  0  0  0  0
   -1.7059    0.8869    1.0565 H   0  0  0  0  0  0  0  0  0  0  0  0
   -2.1252    1.2027   -1.3849 H   0  0  0  0  0  0  0  0  0  0  0  0
   -0.3913    1.7223   -1.5666 H   0  0  0  0  0  0  0  0  0  0  0  0
   -1.5103    2.6041   -0.4300 H   0  0  0  0  0  0  0  0  0  0  0  0
  1  2  1  0
  2  3  2  0
  3  4  1  0
  4  5  1  0
  5  6  1  0
  6  7  2  0
  7  8  1  0
  8  9  1  0
  8  2  1  0
  1 10  1  0
  1 11  1  0
  1 12  1  0
  3 13  1  0
  4 14  1  0
  4 15  1  0
  5 16  1  0
  5 17  1  0
  6 18  1  0
  7 19  1  0
  8 20  1  0
  9 21  1  0
  9 22  1  0
  9 23  1  0
M  END
