
     RDKit          3D

 21 22  0  0  0  0  0  0  0  0999 V2000
    2.5687   -0.0602    0.3445 C   0  0  0  0  0  0  0  0  0  0  0  0
    1.1187    0.1194    0.1069 C   0  0  0  0  0  0  0  0  0  0  0  0
    0.7547    1.3311   -0.3058 C   0  0  0  0  0  0  0  0  0  0  0  0
   -0.6298    1.7733   -0.6210 C   0  0  0  0  0  0  0  0  0  0  0  0
   -1.7286    1.0216   -0.5321 C   0  0  0  0  0  0  0  0  0  0  0  0
   -1.8134   -0.4072   -0.1110 C   0  0  0  0  0  0  0  0  0  0  0  0
   -0.7454   -1.2485   -0.8182 C   0  0  0  0  0  0  0  0  0  0  0  0
    0.2320   -1.0502    0.3488 C   0  0  0  0  0  0  0  0  0  0  0  0
   -0.9887   -0.6073    1.1656 C   0  0  0  0  0  0  0  0  0  0  0  0
    2.9702    0.6996    1.0765 H   0  0  0  0  0  0  0  0  0  0  0  0
    2.7896   -1.0686    0.6985 H   0  0  0  0  0  0  0  0  0  0  0  0
    3.0833    0.1001   -0.6385 H   0  0  0  0  0  0  0  0  0  0  0  0
    1.5116    2.0888   -0.4345 H   0  0  0  0  0  0  0  0  0  0  0  0
   -0.7133    2.7820   -0.9420 H   0  0  0  0  0  0  0  0  0  0  0  0
   -2.6800    1.4570   -0.7834 H   0  0  0  0  0  0  0  0  0  0  0  0
   -2.8100   -0.8220   -0.0989 H   0  0  0  0  0  0  0  0  0  0  0  0
   -1.1101   -2.2852   -0.9093 H   0  0  0  0  0  0  0  0  0  0  0  0
   -0.3495   -0.7850   -1.7433 H   0  0  0  0  0  0  0  0  0  0  0  0
    0.7262   -1.9484    0.6997 H   0  0  0  0  0  0  0  0  0  0  0  0
   -0.8125    0.3492    1.7192 H   0  0  0  0  0  0  0  0  0  0  0  0
   -1.3738   -1.4397    1.7782 H   0  0  0  0  0  0  0  0  0  0  0  0
  1  2  1  0
  2  3  2  0
  3  4  1  0
  4  5  2  0
  5  6  1  0
  6  7  1  0
  7  8  1  0
  8  9  1  0
  8  2  1  0
  9  6  1  0
  1 10  1  0
  1 11  1  0
  1 12  1  0
  3 13  1  0
  4 14  1  0
  5 15  1  0
  6 16  1  0
  7 17  1  0
  7 18  1  0
  8 19  1  0
  9 20  1  0
  9 21  1  0
M  END
