
     RDKit          3D

 19 20  0  0  0  0  0  0  0  0999 V2000
   -0.8868    1.8713   -0.1662 C   0  0  0  0  0  0  0  0  0  0  0  0
   -0.5702    0.4750    0.1412 C   0  0  0  0  0  0  0  0  0  0  0  0
    0.5807   -0.2237    0.0966 C   0  0  0  0  0  0  0  0  0  0  0  0
    1.9463    0.1737   -0.2817 C   0  0  0  0  0  0  0  0  0  0  0  0
    2.0085    1.5111   -0.6489 O   0  0  0  0  0  0  0  0  0  0  0  0
    0.0837   -1.5717    0.5536 C   0  0  0  0  0  0  0  0  0  0  0  0
   -1.1336   -1.7362   -0.3103 C   0  0  0  0  0  0  0  0  0  0  0  0
   -1.5198   -0.5824    0.6117 C   0  0  0  0  0  0  0  0  0  0  0  0
   -0.7917   -1.2349    1.5880 O   0  0  0  0  0  0  0  0  0  0  0  0
   -1.4117    1.9481   -1.1509 H   0  0  0  0  0  0  0  0  0  0  0  0
   -0.0245    2.5392   -0.0907 H   0  0  0  0  0  0  0  0  0  0  0  0
   -1.6433    2.2560    0.5793 H   0  0  0  0  0  0  0  0  0  0  0  0
    2.6031   -0.0153    0.6180 H   0  0  0  0  0  0  0  0  0  0  0  0
    2.3463   -0.4627   -1.1244 H   0  0  0  0  0  0  0  0  0  0  0  0
    2.8845    1.8497   -0.3007 H   0  0  0  0  0  0  0  0  0  0  0  0
    0.7770   -2.3544    0.6760 H   0  0  0  0  0  0  0  0  0  0  0  0
   -0.9907   -1.4411   -1.3628 H   0  0  0  0  0  0  0  0  0  0  0  0
   -1.7187   -2.6512   -0.1704 H   0  0  0  0  0  0  0  0  0  0  0  0
   -2.5390   -0.3504    0.7424 H   0  0  0  0  0  0  0  0  0  0  0  0
  1  2  1  0
  2  3  2  0
  3  4  1  0
  4  5  1  0
  3  6  1  0
  6  7  1  0
  7  8  1  0
  8  9  1  0
  8  2  1  0
  9  6  1  0
  1 10  1  0
  1 11  1  0
  1 12  1  0
  4 13  1  0
  4 14  1  0
  5 15  1  0
  6 16  1  0
  7 17  1  0
  7 18  1  0
  8 19  1  0
M  END
