
     RDKit          3D

 23 24  0  0  0  0  0  0  0  0999 V2000
    3.1248   -0.6892   -0.0755 C   0  0  0  0  0  0  0  0  0  0  0  0
    1.7469   -0.1226   -0.2523 C   0  0  0  0  0  0  0  0  0  0  0  0
    1.1898    0.1193   -1.4266 C   0  0  0  0  0  0  0  0  0  0  0  0
   -0.1885    0.6820   -1.2625 C   0  0  0  0  0  0  0  0  0  0  0  0
   -0.4675    0.4134    0.1933 C   0  0  0  0  0  0  0  0  0  0  0  0
    0.8404    0.2360    0.8768 C   0  0  0  0  0  0  0  0  0  0  0  0
   -1.5772    1.1981    0.7855 C   0  0  0  0  0  0  0  0  0  0  0  0
   -1.6743   -0.2831    0.6468 C   0  0  0  0  0  0  0  0  0  0  0  0
   -2.5491   -0.8911   -0.4212 C   0  0  0  0  0  0  0  0  0  0  0  0
    3.3101   -1.4620   -0.8565 H   0  0  0  0  0  0  0  0  0  0  0  0
    3.2383   -1.0843    0.9531 H   0  0  0  0  0  0  0  0  0  0  0  0
    3.8267    0.1742   -0.1592 H   0  0  0  0  0  0  0  0  0  0  0  0
    1.6782   -0.0695   -2.3867 H   0  0  0  0  0  0  0  0  0  0  0  0
   -0.1098    1.7837   -1.3779 H   0  0  0  0  0  0  0  0  0  0  0  0
   -0.9059    0.2222   -1.9468 H   0  0  0  0  0  0  0  0  0  0  0  0
    0.7635   -0.6822    1.5250 H   0  0  0  0  0  0  0  0  0  0  0  0
    1.1933    1.1175    1.4444 H   0  0  0  0  0  0  0  0  0  0  0  0
   -2.2144    1.8433    0.1487 H   0  0  0  0  0  0  0  0  0  0  0  0
   -1.3664    1.5990    1.7983 H   0  0  0  0  0  0  0  0  0  0  0  0
   -1.5717   -0.8723    1.5963 H   0  0  0  0  0  0  0  0  0  0  0  0
   -3.2240   -1.6602    0.0410 H   0  0  0  0  0  0  0  0  0  0  0  0
   -3.1864   -0.1632   -0.9390 H   0  0  0  0  0  0  0  0  0  0  0  0
   -1.8767   -1.4088   -1.1505 H   0  0  0  0  0  0  0  0  0  0  0  0
  1  2  1  0
  2  3  2  0
  3  4  1  0
  4  5  1  0
  5  6  1  0
  5  7  1  0
  7  8  1  0
  8  9  1  0
  6  2  1  0
  8  5  1  0
  1 10  1  0
  1 11  1  0
  1 12  1  0
  3 13  1  0
  4 14  1  0
  4 15  1  0
  6 16  1  0
  6 17  1  0
  7 18  1  0
  7 19  1  0
  8 20  1  0
  9 21  1  0
  9 22  1  0
  9 23  1  0
M  END
