
     RDKit          3D

 19 20  0  0  0  0  0  0  0  0999 V2000
    2.1227   -0.9070   -0.1821 C   0  0  0  0  0  0  0  0  0  0  0  0
    0.7496   -0.4846    0.1383 C   0  0  0  0  0  0  0  0  0  0  0  0
    0.1890    0.7437    0.1645 C   0  0  0  0  0  0  0  0  0  0  0  0
    0.7285    2.0717   -0.1360 C   0  0  0  0  0  0  0  0  0  0  0  0
   -1.1977    0.4054    0.5997 C   0  0  0  0  0  0  0  0  0  0  0  0
   -0.9832   -0.5724    1.5659 O   0  0  0  0  0  0  0  0  0  0  0  0
   -0.4423   -1.3258    0.5361 C   0  0  0  0  0  0  0  0  0  0  0  0
   -1.5079   -0.7487   -0.3546 C   0  0  0  0  0  0  0  0  0  0  0  0
   -2.7657   -1.2906   -0.2092 O   0  0  0  0  0  0  0  0  0  0  0  0
    2.1521   -1.1535   -1.2633 H   0  0  0  0  0  0  0  0  0  0  0  0
    2.8162   -0.0555   -0.0218 H   0  0  0  0  0  0  0  0  0  0  0  0
    2.4691   -1.7501    0.4077 H   0  0  0  0  0  0  0  0  0  0  0  0
    0.1707    2.8098    0.5058 H   0  0  0  0  0  0  0  0  0  0  0  0
    1.8105    2.1682    0.0208 H   0  0  0  0  0  0  0  0  0  0  0  0
    0.5294    2.4007   -1.1855 H   0  0  0  0  0  0  0  0  0  0  0  0
   -1.9123    1.1602    0.7386 H   0  0  0  0  0  0  0  0  0  0  0  0
   -0.3149   -2.3662    0.6271 H   0  0  0  0  0  0  0  0  0  0  0  0
   -1.1946   -0.4642   -1.3677 H   0  0  0  0  0  0  0  0  0  0  0  0
   -3.4192   -0.6412   -0.5843 H   0  0  0  0  0  0  0  0  0  0  0  0
  1  2  1  0
  2  3  2  0
  3  4  1  0
  3  5  1  0
  5  6  1  0
  6  7  1  0
  7  8  1  0
  8  9  1  0
  7  2  1  0
  8  5  1  0
  1 10  1  0
  1 11  1  0
  1 12  1  0
  4 13  1  0
  4 14  1  0
  4 15  1  0
  5 16  1  0
  7 17  1  0
  8 18  1  0
  9 19  1  0
M  END
