
     RDKit          3D

 18 19  0  0  0  0  0  0  0  0999 V2000
    2.5929    0.2060    0.2008 C   0  0  0  0  0  0  0  0  0  0  0  0
    1.1209    0.1766    0.0451 C   0  0  0  0  0  0  0  0  0  0  0  0
    0.3228    1.1970    0.2256 C   0  0  0  0  0  0  0  0  0  0  0  0
   -1.1084    0.8097   -0.0175 C   0  0  0  0  0  0  0  0  0  0  0  0
   -1.7106   -0.1057    0.9494 C   0  0  0  0  0  0  0  0  0  0  0  0
   -3.0962   -0.1245    1.0236 O   0  0  0  0  0  0  0  0  0  0  0  0
   -1.1007   -0.6675   -0.2714 C   0  0  0  0  0  0  0  0  0  0  0  0
    0.3449   -1.0399   -0.3442 C   0  0  0  0  0  0  0  0  0  0  0  0
    2.9102    0.9020    1.0158 H   0  0  0  0  0  0  0  0  0  0  0  0
    3.0965    0.6025   -0.7286 H   0  0  0  0  0  0  0  0  0  0  0  0
    2.9968   -0.8178    0.3478 H   0  0  0  0  0  0  0  0  0  0  0  0
    0.5885    2.2066    0.5106 H   0  0  0  0  0  0  0  0  0  0  0  0
   -1.6879    1.4011   -0.7455 H   0  0  0  0  0  0  0  0  0  0  0  0
   -1.2219   -0.2065    1.9502 H   0  0  0  0  0  0  0  0  0  0  0  0
   -3.4761   -0.2338    0.1104 H   0  0  0  0  0  0  0  0  0  0  0  0
   -1.7807   -1.1034   -1.0330 H   0  0  0  0  0  0  0  0  0  0  0  0
    0.6179   -1.9103    0.2747 H   0  0  0  0  0  0  0  0  0  0  0  0
    0.5912   -1.2920   -1.3939 H   0  0  0  0  0  0  0  0  0  0  0  0
  1  2  1  0
  2  3  2  0
  3  4  1  0
  4  5  1  0
  5  6  1  0
  5  7  1  0
  7  8  1  0
  8  2  1  0
  7  4  1  0
  1  9  1  0
  1 10  1  0
  1 11  1  0
  3 12  1  0
  4 13  1  0
  5 14  1  0
  6 15  1  0
  7 16  1  0
  8 17  1  0
  8 18  1  0
M  END
