
     RDKit          3D

 18 18  0  0  0  0  0  0  0  0999 V2000
    2.4235    0.5374   -0.0933 C   0  0  0  0  0  0  0  0  0  0  0  0
    0.9950    0.0614   -0.0807 C   0  0  0  0  0  0  0  0  0  0  0  0
    0.0481    0.5020   -0.8789 C   0  0  0  0  0  0  0  0  0  0  0  0
   -1.2243   -0.1961   -0.5751 C   0  0  0  0  0  0  0  0  0  0  0  0
   -2.2936    0.8635   -0.5409 C   0  0  0  0  0  0  0  0  0  0  0  0
   -2.6272    1.4411    0.4491 O   0  0  0  0  0  0  0  0  0  0  0  0
   -0.9880   -0.7690    0.8146 C   0  0  0  0  0  0  0  0  0  0  0  0
    0.4991   -0.9636    0.8388 C   0  0  0  0  0  0  0  0  0  0  0  0
    2.5640    1.3984   -0.7522 H   0  0  0  0  0  0  0  0  0  0  0  0
    3.0282   -0.3497   -0.3867 H   0  0  0  0  0  0  0  0  0  0  0  0
    2.7129    0.8293    0.9331 H   0  0  0  0  0  0  0  0  0  0  0  0
    0.1881    1.2870   -1.6675 H   0  0  0  0  0  0  0  0  0  0  0  0
   -1.4602   -0.9846   -1.3149 H   0  0  0  0  0  0  0  0  0  0  0  0
   -2.7583    1.0785   -1.4987 H   0  0  0  0  0  0  0  0  0  0  0  0
   -1.3547   -0.1100    1.6102 H   0  0  0  0  0  0  0  0  0  0  0  0
   -1.4615   -1.7755    0.8558 H   0  0  0  0  0  0  0  0  0  0  0  0
    0.7939   -1.9626    0.4226 H   0  0  0  0  0  0  0  0  0  0  0  0
    0.9151   -0.8874    1.8648 H   0  0  0  0  0  0  0  0  0  0  0  0
  1  2  1  0
  2  3  2  0
  3  4  1  0
  4  5  1  0
  5  6  2  0
  4  7  1  0
  7  8  1  0
  8  2  1  0
  1  9  1  0
  1 10  1  0
  1 11  1  0
  3 12  1  0
  4 13  1  0
  5 14  1  0
  7 15  1  0
  7 16  1  0
  8 17  1  0
  8 18  1  0
M  END
