
     RDKit          3D

 25 25  0  0  0  0  0  0  0  0999 V2000
    2.9857   -0.4543    0.4875 C   0  0  0  0  0  0  0  0  0  0  0  0
    1.6065   -0.3221   -0.0480 C   0  0  0  0  0  0  0  0  0  0  0  0
    0.9900    0.8348    0.0264 C   0  0  0  0  0  0  0  0  0  0  0  0
   -0.3639    1.0332   -0.4797 C   0  0  0  0  0  0  0  0  0  0  0  0
   -1.0227    2.1160    0.3890 C   0  0  0  0  0  0  0  0  0  0  0  0
   -1.2209   -0.1786   -0.5515 C   0  0  0  0  0  0  0  0  0  0  0  0
   -2.3065   -0.1558    0.5352 C   0  0  0  0  0  0  0  0  0  0  0  0
   -0.5446   -1.4900   -0.4805 C   0  0  0  0  0  0  0  0  0  0  0  0
    0.9264   -1.4866   -0.6641 C   0  0  0  0  0  0  0  0  0  0  0  0
    3.5092    0.5058    0.5818 H   0  0  0  0  0  0  0  0  0  0  0  0
    2.8877   -0.8527    1.5360 H   0  0  0  0  0  0  0  0  0  0  0  0
    3.6267   -1.1183   -0.1235 H   0  0  0  0  0  0  0  0  0  0  0  0
    1.5026    1.6703    0.4771 H   0  0  0  0  0  0  0  0  0  0  0  0
   -0.2678    1.5294   -1.4912 H   0  0  0  0  0  0  0  0  0  0  0  0
   -2.0978    2.2238    0.1408 H   0  0  0  0  0  0  0  0  0  0  0  0
   -0.5527    3.1008    0.1037 H   0  0  0  0  0  0  0  0  0  0  0  0
   -0.8740    1.9281    1.4572 H   0  0  0  0  0  0  0  0  0  0  0  0
   -1.8054   -0.1115   -1.5165 H   0  0  0  0  0  0  0  0  0  0  0  0
   -2.6847   -1.1966    0.6339 H   0  0  0  0  0  0  0  0  0  0  0  0
   -1.8814    0.1389    1.5171 H   0  0  0  0  0  0  0  0  0  0  0  0
   -3.1571    0.4748    0.2263 H   0  0  0  0  0  0  0  0  0  0  0  0
   -0.7629   -2.0180    0.4942 H   0  0  0  0  0  0  0  0  0  0  0  0
   -0.9771   -2.1909   -1.2550 H   0  0  0  0  0  0  0  0  0  0  0  0
    1.3340   -2.4385   -0.2385 H   0  0  0  0  0  0  0  0  0  0  0  0
    1.1506   -1.5420   -1.7578 H   0  0  0  0  0  0  0  0  0  0  0  0
  1  2  1  0
  2  3  2  0
  3  4  1  0
  4  5  1  0
  4  6  1  0
  6  7  1  0
  6  8  1  0
  8  9  1  0
  9  2  1  0
  1 10  1  0
  1 11  1  0
  1 12  1  0
  3 13  1  0
  4 14  1  0
  5 15  1  0
  5 16  1  0
  5 17  1  0
  6 18  1  0
  7 19  1  0
  7 20  1  0
  7 21  1  0
  8 22  1  0
  8 23  1  0
  9 24  1  0
  9 25  1  0
M  END
