
     RDKit          3D

 21 23  0  0  0  0  0  0  0  0999 V2000
   -2.0659   -0.8859    0.7124 C   0  0  0  0  0  0  0  0  0  0  0  0
   -0.7288   -0.7376    0.0976 C   0  0  0  0  0  0  0  0  0  0  0  0
    0.0689   -1.7253   -0.2862 C   0  0  0  0  0  0  0  0  0  0  0  0
    1.3343   -1.1978   -0.8618 C   0  0  0  0  0  0  0  0  0  0  0  0
    2.2793   -0.5207    0.0425 C   0  0  0  0  0  0  0  0  0  0  0  0
    1.2460    0.2594   -0.8244 C   0  0  0  0  0  0  0  0  0  0  0  0
   -0.0746    0.5483   -0.1839 C   0  0  0  0  0  0  0  0  0  0  0  0
   -0.0868    1.6662    0.7925 C   0  0  0  0  0  0  0  0  0  0  0  0
   -0.8712    1.7363   -0.4773 C   0  0  0  0  0  0  0  0  0  0  0  0
   -2.5083   -1.8816    0.5699 H   0  0  0  0  0  0  0  0  0  0  0  0
   -2.0668   -0.6840    1.8057 H   0  0  0  0  0  0  0  0  0  0  0  0
   -2.8062   -0.1557    0.2804 H   0  0  0  0  0  0  0  0  0  0  0  0
   -0.2067   -2.7715   -0.1755 H   0  0  0  0  0  0  0  0  0  0  0  0
    1.7246   -1.6985   -1.7627 H   0  0  0  0  0  0  0  0  0  0  0  0
    2.0556   -0.4988    1.1445 H   0  0  0  0  0  0  0  0  0  0  0  0
    3.3370   -0.3818   -0.1974 H   0  0  0  0  0  0  0  0  0  0  0  0
    1.6639    0.9325   -1.5836 H   0  0  0  0  0  0  0  0  0  0  0  0
    0.7990    2.3538    0.8200 H   0  0  0  0  0  0  0  0  0  0  0  0
   -0.5813    1.5568    1.7596 H   0  0  0  0  0  0  0  0  0  0  0  0
   -1.9630    1.6956   -0.3590 H   0  0  0  0  0  0  0  0  0  0  0  0
   -0.5490    2.3903   -1.3132 H   0  0  0  0  0  0  0  0  0  0  0  0
  1  2  1  0
  2  3  2  0
  3  4  1  0
  4  5  1  0
  5  6  1  0
  6  7  1  0
  7  8  1  0
  8  9  1  0
  7  2  1  0
  6  4  1  0
  9  7  1  0
  1 10  1  0
  1 11  1  0
  1 12  1  0
  3 13  1  0
  4 14  1  0
  5 15  1  0
  5 16  1  0
  6 17  1  0
  8 18  1  0
  8 19  1  0
  9 20  1  0
  9 21  1  0
M  END
