
     RDKit          3D

 21 22  0  0  0  0  0  0  0  0999 V2000
    2.3560    0.6548   -0.2300 C   0  0  0  0  0  0  0  0  0  0  0  0
    1.0612   -0.0634   -0.0169 C   0  0  0  0  0  0  0  0  0  0  0  0
    1.0282   -1.2973    0.4683 C   0  0  0  0  0  0  0  0  0  0  0  0
   -0.4015   -1.7736    0.5778 C   0  0  0  0  0  0  0  0  0  0  0  0
   -1.0408   -0.8997   -0.5156 C   0  0  0  0  0  0  0  0  0  0  0  0
   -2.3996   -0.8208   -0.3842 O   0  0  0  0  0  0  0  0  0  0  0  0
   -0.3020    0.3658   -0.2555 C   0  0  0  0  0  0  0  0  0  0  0  0
   -0.8620    1.2931    0.8482 C   0  0  0  0  0  0  0  0  0  0  0  0
   -0.7594    1.6971   -0.5748 C   0  0  0  0  0  0  0  0  0  0  0  0
    2.3388    1.2952   -1.1292 H   0  0  0  0  0  0  0  0  0  0  0  0
    2.5061    1.3042    0.6585 H   0  0  0  0  0  0  0  0  0  0  0  0
    3.2173   -0.0300   -0.2889 H   0  0  0  0  0  0  0  0  0  0  0  0
    1.8566   -1.9325    0.7646 H   0  0  0  0  0  0  0  0  0  0  0  0
   -0.8610   -1.4530    1.5313 H   0  0  0  0  0  0  0  0  0  0  0  0
   -0.5019   -2.8356    0.3676 H   0  0  0  0  0  0  0  0  0  0  0  0
   -0.7072   -1.3029   -1.4925 H   0  0  0  0  0  0  0  0  0  0  0  0
   -2.8067   -1.0968   -1.2659 H   0  0  0  0  0  0  0  0  0  0  0  0
   -1.8034    0.9355    1.2901 H   0  0  0  0  0  0  0  0  0  0  0  0
   -0.1504    1.6829    1.6006 H   0  0  0  0  0  0  0  0  0  0  0  0
   -0.0464    2.4871   -0.8103 H   0  0  0  0  0  0  0  0  0  0  0  0
   -1.7219    1.7901   -1.1432 H   0  0  0  0  0  0  0  0  0  0  0  0
  1  2  1  0
  2  3  2  0
  3  4  1  0
  4  5  1  0
  5  6  1  0
  5  7  1  0
  7  8  1  0
  8  9  1  0
  7  2  1  0
  9  7  1  0
  1 10  1  0
  1 11  1  0
  1 12  1  0
  3 13  1  0
  4 14  1  0
  4 15  1  0
  5 16  1  0
  6 17  1  0
  8 18  1  0
  8 19  1  0
  9 20  1  0
  9 21  1  0
M  END
