
     RDKit          3D

 21 22  0  0  0  0  0  0  0  0999 V2000
    2.1268   -0.7297   -0.5728 C   0  0  0  0  0  0  0  0  0  0  0  0
    0.9341   -0.4077    0.2228 C   0  0  0  0  0  0  0  0  0  0  0  0
    0.3510   -1.1772    1.1667 C   0  0  0  0  0  0  0  0  0  0  0  0
   -0.7791   -0.2735    1.5961 C   0  0  0  0  0  0  0  0  0  0  0  0
   -0.0928    0.9621    1.6507 O   0  0  0  0  0  0  0  0  0  0  0  0
    0.0369    0.7874    0.2517 C   0  0  0  0  0  0  0  0  0  0  0  0
    0.3266    1.9313   -0.5748 C   0  0  0  0  0  0  0  0  0  0  0  0
   -1.3582    0.2180    0.3177 C   0  0  0  0  0  0  0  0  0  0  0  0
   -1.7098   -0.8025   -0.7088 C   0  0  0  0  0  0  0  0  0  0  0  0
    2.6604    0.1894   -0.9179 H   0  0  0  0  0  0  0  0  0  0  0  0
    2.8956   -1.3023    0.0037 H   0  0  0  0  0  0  0  0  0  0  0  0
    1.8584   -1.3785   -1.4398 H   0  0  0  0  0  0  0  0  0  0  0  0
    0.6200   -2.1657    1.5166 H   0  0  0  0  0  0  0  0  0  0  0  0
   -1.3725   -0.5595    2.4156 H   0  0  0  0  0  0  0  0  0  0  0  0
    0.4042    2.8984    0.0039 H   0  0  0  0  0  0  0  0  0  0  0  0
   -0.5098    2.1205   -1.2983 H   0  0  0  0  0  0  0  0  0  0  0  0
    1.2354    1.8539   -1.2305 H   0  0  0  0  0  0  0  0  0  0  0  0
   -2.0960    1.0149    0.4132 H   0  0  0  0  0  0  0  0  0  0  0  0
   -2.0690   -0.2824   -1.6107 H   0  0  0  0  0  0  0  0  0  0  0  0
   -2.5817   -1.3929   -0.3100 H   0  0  0  0  0  0  0  0  0  0  0  0
   -0.8806   -1.5039   -0.8953 H   0  0  0  0  0  0  0  0  0  0  0  0
  1  2  1  0
  2  3  2  0
  3  4  1  0
  4  5  1  0
  5  6  1  0
  6  7  1  0
  6  8  1  0
  8  9  1  0
  6  2  1  0
  8  4  1  0
  1 10  1  0
  1 11  1  0
  1 12  1  0
  3 13  1  0
  4 14  1  0
  7 15  1  0
  7 16  1  0
  7 17  1  0
  8 18  1  0
  9 19  1  0
  9 20  1  0
  9 21  1  0
M  END
