
     RDKit          3D

 19 20  0  0  0  0  0  0  0  0999 V2000
    2.3464   -0.2443    0.5133 C   0  0  0  0  0  0  0  0  0  0  0  0
    0.9914   -0.2929   -0.0791 C   0  0  0  0  0  0  0  0  0  0  0  0
    0.2675   -1.4042   -0.1777 C   0  0  0  0  0  0  0  0  0  0  0  0
   -1.0555   -1.0076   -0.8402 C   0  0  0  0  0  0  0  0  0  0  0  0
   -2.0252   -1.8833   -0.3907 O   0  0  0  0  0  0  0  0  0  0  0  0
   -1.1562    0.2844   -0.0946 C   0  0  0  0  0  0  0  0  0  0  0  0
   -0.8252    1.6230   -0.3396 C   0  0  0  0  0  0  0  0  0  0  0  0
   -0.7355    2.5304    0.7457 O   0  0  0  0  0  0  0  0  0  0  0  0
    0.2300    0.7735   -0.6685 C   0  0  0  0  0  0  0  0  0  0  0  0
    2.9302    0.6510    0.1751 H   0  0  0  0  0  0  0  0  0  0  0  0
    2.9800   -1.1226    0.1985 H   0  0  0  0  0  0  0  0  0  0  0  0
    2.3289   -0.2411    1.6216 H   0  0  0  0  0  0  0  0  0  0  0  0
    0.4935   -2.4194    0.1236 H   0  0  0  0  0  0  0  0  0  0  0  0
   -0.9495   -0.9302   -1.9178 H   0  0  0  0  0  0  0  0  0  0  0  0
   -1.9126   -1.9389    0.6044 H   0  0  0  0  0  0  0  0  0  0  0  0
   -1.1513    0.0144    1.0103 H   0  0  0  0  0  0  0  0  0  0  0  0
   -1.4319    2.1408   -1.1433 H   0  0  0  0  0  0  0  0  0  0  0  0
   -1.6803    2.8132    0.9488 H   0  0  0  0  0  0  0  0  0  0  0  0
    0.3552    0.6538   -1.8005 H   0  0  0  0  0  0  0  0  0  0  0  0
  1  2  1  0
  2  3  2  0
  3  4  1  0
  4  5  1  0
  4  6  1  0
  6  7  1  0
  7  8  1  0
  7  9  1  0
  9  2  1  0
  9  6  1  0
  1 10  1  0
  1 11  1  0
  1 12  1  0
  3 13  1  0
  4 14  1  0
  5 15  1  0
  6 16  1  0
  7 17  1  0
  8 18  1  0
  9 19  1  0
M  END
