
     RDKit          3D

 17 17  0  0  0  0  0  0  0  0999 V2000
   -2.2326    0.8668    0.2405 C   0  0  0  0  0  0  0  0  0  0  0  0
   -0.9278    0.1696    0.1025 C   0  0  0  0  0  0  0  0  0  0  0  0
    0.1513    0.5288    0.7899 C   0  0  0  0  0  0  0  0  0  0  0  0
    1.3129   -0.3663    0.4319 C   0  0  0  0  0  0  0  0  0  0  0  0
    2.3779    0.5003   -0.0799 C   0  0  0  0  0  0  0  0  0  0  0  0
    3.0955    1.1007    0.6817 O   0  0  0  0  0  0  0  0  0  0  0  0
    0.7818   -1.3154   -0.5484 C   0  0  0  0  0  0  0  0  0  0  0  0
    1.4066   -2.2124   -1.0693 O   0  0  0  0  0  0  0  0  0  0  0  0
   -0.6298   -0.9898   -0.7858 C   0  0  0  0  0  0  0  0  0  0  0  0
   -2.6513    0.7405    1.2783 H   0  0  0  0  0  0  0  0  0  0  0  0
   -2.0379    1.9690    0.0985 H   0  0  0  0  0  0  0  0  0  0  0  0
   -2.9686    0.4881   -0.4797 H   0  0  0  0  0  0  0  0  0  0  0  0
    0.2627    1.3215    1.5082 H   0  0  0  0  0  0  0  0  0  0  0  0
    1.5856   -0.8650    1.4028 H   0  0  0  0  0  0  0  0  0  0  0  0
    2.5246    0.6052   -1.1361 H   0  0  0  0  0  0  0  0  0  0  0  0
   -0.7365   -0.7123   -1.8574 H   0  0  0  0  0  0  0  0  0  0  0  0
   -1.3146   -1.8292   -0.5778 H   0  0  0  0  0  0  0  0  0  0  0  0
  1  2  1  0
  2  3  2  0
  3  4  1  0
  4  5  1  0
  5  6  2  0
  4  7  1  0
  7  8  2  0
  7  9  1  0
  9  2  1  0
  1 10  1  0
  1 11  1  0
  1 12  1  0
  3 13  1  0
  4 14  1  0
  5 15  1  0
  9 16  1  0
  9 17  1  0
M  END
