
     RDKit          3D

 18 19  0  0  0  0  0  0  0  0999 V2000
   -2.6188    0.2996   -0.3098 C   0  0  0  0  0  0  0  0  0  0  0  0
   -1.1605    0.1568   -0.0631 C   0  0  0  0  0  0  0  0  0  0  0  0
   -0.1182    0.8372   -0.5473 C   0  0  0  0  0  0  0  0  0  0  0  0
    1.0062    0.1727    0.1469 C   0  0  0  0  0  0  0  0  0  0  0  0
    2.3600    0.6482    0.0050 C   0  0  0  0  0  0  0  0  0  0  0  0
    0.6884   -1.2897   -0.0342 C   0  0  0  0  0  0  0  0  0  0  0  0
   -0.4552   -0.8264    0.8276 C   0  0  0  0  0  0  0  0  0  0  0  0
    0.4660    0.0322    1.4493 O   0  0  0  0  0  0  0  0  0  0  0  0
   -3.0486   -0.6403   -0.7521 H   0  0  0  0  0  0  0  0  0  0  0  0
   -2.8046    1.1446   -0.9745 H   0  0  0  0  0  0  0  0  0  0  0  0
   -3.1823    0.5151    0.6405 H   0  0  0  0  0  0  0  0  0  0  0  0
   -0.1783    1.6478   -1.2584 H   0  0  0  0  0  0  0  0  0  0  0  0
    2.8917    0.5661    0.9969 H   0  0  0  0  0  0  0  0  0  0  0  0
    2.3898    1.7218   -0.2491 H   0  0  0  0  0  0  0  0  0  0  0  0
    2.9182    0.0270   -0.7467 H   0  0  0  0  0  0  0  0  0  0  0  0
    1.4249   -1.8989    0.5173 H   0  0  0  0  0  0  0  0  0  0  0  0
    0.4364   -1.6118   -1.0519 H   0  0  0  0  0  0  0  0  0  0  0  0
   -1.0151   -1.5020    1.4034 H   0  0  0  0  0  0  0  0  0  0  0  0
  1  2  1  0
  2  3  2  0
  3  4  1  0
  4  5  1  0
  4  6  1  0
  6  7  1  0
  7  8  1  0
  7  2  1  0
  8  4  1  0
  1  9  1  0
  1 10  1  0
  1 11  1  0
  3 12  1  0
  5 13  1  0
  5 14  1  0
  5 15  1  0
  6 16  1  0
  6 17  1  0
  7 18  1  0
M  END
