
     RDKit          3D

 21 22  0  0  0  0  0  0  0  0999 V2000
    2.7057   -0.5175    0.5857 C   0  0  0  0  0  0  0  0  0  0  0  0
    1.3030   -0.1996    0.2153 C   0  0  0  0  0  0  0  0  0  0  0  0
    0.2570   -0.6257    0.9166 C   0  0  0  0  0  0  0  0  0  0  0  0
   -1.0021   -0.1544    0.3100 C   0  0  0  0  0  0  0  0  0  0  0  0
   -1.9751    0.4521    1.2859 C   0  0  0  0  0  0  0  0  0  0  0  0
   -1.5469   -1.1508   -0.5004 O   0  0  0  0  0  0  0  0  0  0  0  0
   -1.3532   -0.3671   -1.6507 C   0  0  0  0  0  0  0  0  0  0  0  0
   -0.6199    0.6989   -0.8485 C   0  0  0  0  0  0  0  0  0  0  0  0
    0.8619    0.6129   -0.9513 C   0  0  0  0  0  0  0  0  0  0  0  0
    2.7867   -1.4486    1.1878 H   0  0  0  0  0  0  0  0  0  0  0  0
    3.1498    0.2997    1.2135 H   0  0  0  0  0  0  0  0  0  0  0  0
    3.3580   -0.6211   -0.2854 H   0  0  0  0  0  0  0  0  0  0  0  0
    0.2858   -1.2400    1.8200 H   0  0  0  0  0  0  0  0  0  0  0  0
   -1.6881    0.0556    2.3011 H   0  0  0  0  0  0  0  0  0  0  0  0
   -3.0090    0.0989    1.1082 H   0  0  0  0  0  0  0  0  0  0  0  0
   -1.9013    1.5417    1.3568 H   0  0  0  0  0  0  0  0  0  0  0  0
   -2.3373   -0.0410   -2.0266 H   0  0  0  0  0  0  0  0  0  0  0  0
   -0.6787   -0.8553   -2.3664 H   0  0  0  0  0  0  0  0  0  0  0  0
   -1.0861    1.6890   -0.9218 H   0  0  0  0  0  0  0  0  0  0  0  0
    1.2921    1.6277   -0.8335 H   0  0  0  0  0  0  0  0  0  0  0  0
    1.1976    0.1445   -1.9165 H   0  0  0  0  0  0  0  0  0  0  0  0
  1  2  1  0
  2  3  2  0
  3  4  1  0
  4  5  1  0
  4  6  1  0
  6  7  1  0
  7  8  1  0
  8  9  1  0
  9  2  1  0
  8  4  1  0
  1 10  1  0
  1 11  1  0
  1 12  1  0
  3 13  1  0
  5 14  1  0
  5 15  1  0
  5 16  1  0
  7 17  1  0
  7 18  1  0
  8 19  1  0
  9 20  1  0
  9 21  1  0
M  END
