
     RDKit          3D

 19 20  0  0  0  0  0  0  0  0999 V2000
    2.4279   -0.1349    0.0554 C   0  0  0  0  0  0  0  0  0  0  0  0
    0.9541   -0.0192    0.1375 C   0  0  0  0  0  0  0  0  0  0  0  0
    0.1268    0.3957   -0.8195 C   0  0  0  0  0  0  0  0  0  0  0  0
   -1.2242    0.1802   -0.2956 C   0  0  0  0  0  0  0  0  0  0  0  0
   -1.3379   -1.3061   -0.0079 C   0  0  0  0  0  0  0  0  0  0  0  0
   -0.4995   -1.5476    1.0915 O   0  0  0  0  0  0  0  0  0  0  0  0
    0.1416   -0.3674    1.3640 C   0  0  0  0  0  0  0  0  0  0  0  0
   -0.9965    0.6490    1.1588 C   0  0  0  0  0  0  0  0  0  0  0  0
   -0.5608    1.9405    1.2210 O   0  0  0  0  0  0  0  0  0  0  0  0
    2.8552    0.8548    0.3178 H   0  0  0  0  0  0  0  0  0  0  0  0
    2.7187   -0.3733   -0.9989 H   0  0  0  0  0  0  0  0  0  0  0  0
    2.8056   -0.9553    0.7028 H   0  0  0  0  0  0  0  0  0  0  0  0
    0.4195    0.8023   -1.7741 H   0  0  0  0  0  0  0  0  0  0  0  0
   -2.0445    0.6359   -0.7799 H   0  0  0  0  0  0  0  0  0  0  0  0
   -1.0033   -1.8614   -0.9027 H   0  0  0  0  0  0  0  0  0  0  0  0
   -2.3878   -1.5034    0.2718 H   0  0  0  0  0  0  0  0  0  0  0  0
    0.6530   -0.2753    2.2838 H   0  0  0  0  0  0  0  0  0  0  0  0
   -1.8855    0.3993    1.7186 H   0  0  0  0  0  0  0  0  0  0  0  0
   -1.1625    2.4860    0.6227 H   0  0  0  0  0  0  0  0  0  0  0  0
  1  2  1  0
  2  3  2  0
  3  4  1  0
  4  5  1  0
  5  6  1  0
  6  7  1  0
  7  8  1  0
  8  9  1  0
  7  2  1  0
  8  4  1  0
  1 10  1  0
  1 11  1  0
  1 12  1  0
  3 13  1  0
  4 14  1  0
  5 15  1  0
  5 16  1  0
  7 17  1  0
  8 18  1  0
  9 19  1  0
M  END
