
     RDKit          3D

 20 21  0  0  0  0  0  0  0  0999 V2000
    2.2098   -0.4193   -0.6118 C   0  0  0  0  0  0  0  0  0  0  0  0
    0.7873   -0.5193   -0.2000 C   0  0  0  0  0  0  0  0  0  0  0  0
   -0.0467   -1.4545   -0.5938 C   0  0  0  0  0  0  0  0  0  0  0  0
   -1.4002   -1.2883   -0.0135 C   0  0  0  0  0  0  0  0  0  0  0  0
   -2.1540   -0.1259   -0.5457 C   0  0  0  0  0  0  0  0  0  0  0  0
   -1.3511    0.1004    0.6568 C   0  0  0  0  0  0  0  0  0  0  0  0
    0.0888    0.3876    0.7024 C   0  0  0  0  0  0  0  0  0  0  0  0
    0.4492    1.8369    0.5132 C   0  0  0  0  0  0  0  0  0  0  0  0
    2.7901    0.2606    0.0700 H   0  0  0  0  0  0  0  0  0  0  0  0
    2.3063    0.0065   -1.6267 H   0  0  0  0  0  0  0  0  0  0  0  0
    2.7402   -1.3804   -0.5949 H   0  0  0  0  0  0  0  0  0  0  0  0
    0.1870   -2.2753   -1.2674 H   0  0  0  0  0  0  0  0  0  0  0  0
   -1.8563   -2.0693    0.5954 H   0  0  0  0  0  0  0  0  0  0  0  0
   -1.8709    0.2386   -1.5482 H   0  0  0  0  0  0  0  0  0  0  0  0
   -3.2576   -0.1545   -0.4107 H   0  0  0  0  0  0  0  0  0  0  0  0
   -1.8916    0.1941    1.6282 H   0  0  0  0  0  0  0  0  0  0  0  0
    0.4708    0.1314    1.7412 H   0  0  0  0  0  0  0  0  0  0  0  0
    0.2595    2.2164   -0.4950 H   0  0  0  0  0  0  0  0  0  0  0  0
    1.5639    1.9098    0.6752 H   0  0  0  0  0  0  0  0  0  0  0  0
   -0.0247    2.4044    1.3254 H   0  0  0  0  0  0  0  0  0  0  0  0
  1  2  1  0
  2  3  2  0
  3  4  1  0
  4  5  1  0
  5  6  1  0
  6  7  1  0
  7  8  1  0
  7  2  1  0
  6  4  1  0
  1  9  1  0
  1 10  1  0
  1 11  1  0
  3 12  1  0
  4 13  1  0
  5 14  1  0
  5 15  1  0
  6 16  1  0
  7 17  1  0
  8 18  1  0
  8 19  1  0
  8 20  1  0
M  END
