
     RDKit          3D

 21 22  0  0  0  0  0  0  0  0999 V2000
   -1.6865    1.8631    0.1451 C   0  0  0  0  0  0  0  0  0  0  0  0
   -1.0448    0.5370   -0.0450 C   0  0  0  0  0  0  0  0  0  0  0  0
    0.1799    0.2361    0.3209 C   0  0  0  0  0  0  0  0  0  0  0  0
    1.5925    0.1107    0.8162 C   0  0  0  0  0  0  0  0  0  0  0  0
    2.6319    0.5397   -0.1647 C   0  0  0  0  0  0  0  0  0  0  0  0
    1.4040   -1.3186    0.8613 O   0  0  0  0  0  0  0  0  0  0  0  0
    0.4535   -1.1981   -0.1429 C   0  0  0  0  0  0  0  0  0  0  0  0
   -0.9194   -1.7632    0.0959 C   0  0  0  0  0  0  0  0  0  0  0  0
   -1.7223   -0.6588   -0.6484 C   0  0  0  0  0  0  0  0  0  0  0  0
   -2.4360    1.9864   -0.6615 H   0  0  0  0  0  0  0  0  0  0  0  0
   -0.9380    2.6827    0.1498 H   0  0  0  0  0  0  0  0  0  0  0  0
   -2.2330    1.8281    1.1282 H   0  0  0  0  0  0  0  0  0  0  0  0
    1.7425    0.4422    1.8636 H   0  0  0  0  0  0  0  0  0  0  0  0
    2.3098    1.4909   -0.6419 H   0  0  0  0  0  0  0  0  0  0  0  0
    3.5972    0.6326    0.3671 H   0  0  0  0  0  0  0  0  0  0  0  0
    2.7398   -0.2485   -0.9267 H   0  0  0  0  0  0  0  0  0  0  0  0
    0.8218   -1.2542   -1.1680 H   0  0  0  0  0  0  0  0  0  0  0  0
   -1.1538   -1.6975    1.1595 H   0  0  0  0  0  0  0  0  0  0  0  0
   -1.0942   -2.7343   -0.3653 H   0  0  0  0  0  0  0  0  0  0  0  0
   -2.7841   -0.7195   -0.4310 H   0  0  0  0  0  0  0  0  0  0  0  0
   -1.4609   -0.7571   -1.7123 H   0  0  0  0  0  0  0  0  0  0  0  0
  1  2  1  0
  2  3  2  0
  3  4  1  0
  4  5  1  0
  4  6  1  0
  6  7  1  0
  7  8  1  0
  8  9  1  0
  9  2  1  0
  7  3  1  0
  1 10  1  0
  1 11  1  0
  1 12  1  0
  4 13  1  0
  5 14  1  0
  5 15  1  0
  5 16  1  0
  7 17  1  0
  8 18  1  0
  8 19  1  0
  9 20  1  0
  9 21  1  0
M  END
