
     RDKit          3D

 19 20  0  0  0  0  0  0  0  0999 V2000
   -0.3115    2.0488   -0.1390 C   0  0  0  0  0  0  0  0  0  0  0  0
   -0.2940    0.6104    0.1888 C   0  0  0  0  0  0  0  0  0  0  0  0
    0.8101   -0.1548    0.1116 C   0  0  0  0  0  0  0  0  0  0  0  0
    2.1752    0.2782   -0.2885 C   0  0  0  0  0  0  0  0  0  0  0  0
    0.3516   -1.5123    0.5137 C   0  0  0  0  0  0  0  0  0  0  0  0
   -0.4365   -2.0049   -0.5180 O   0  0  0  0  0  0  0  0  0  0  0  0
   -1.6490   -1.2898   -0.4643 C   0  0  0  0  0  0  0  0  0  0  0  0
   -1.3586   -0.3083    0.6453 C   0  0  0  0  0  0  0  0  0  0  0  0
   -0.6094   -1.1616    1.4957 O   0  0  0  0  0  0  0  0  0  0  0  0
   -1.3129    2.3701   -0.5454 H   0  0  0  0  0  0  0  0  0  0  0  0
   -0.0216    2.6330    0.7454 H   0  0  0  0  0  0  0  0  0  0  0  0
    0.4068    2.2492   -0.9599 H   0  0  0  0  0  0  0  0  0  0  0  0
    2.7161    0.7923    0.5324 H   0  0  0  0  0  0  0  0  0  0  0  0
    2.7632   -0.6325   -0.5207 H   0  0  0  0  0  0  0  0  0  0  0  0
    2.1664    0.9184   -1.1805 H   0  0  0  0  0  0  0  0  0  0  0  0
    1.1143   -2.1715    0.8732 H   0  0  0  0  0  0  0  0  0  0  0  0
   -2.4306   -2.0106   -0.1815 H   0  0  0  0  0  0  0  0  0  0  0  0
   -1.8707   -0.7910   -1.4224 H   0  0  0  0  0  0  0  0  0  0  0  0
   -2.2086    0.1370    1.1140 H   0  0  0  0  0  0  0  0  0  0  0  0
  1  2  1  0
  2  3  2  0
  3  4  1  0
  3  5  1  0
  5  6  1  0
  6  7  1  0
  7  8  1  0
  8  9  1  0
  8  2  1  0
  9  5  1  0
  1 10  1  0
  1 11  1  0
  1 12  1  0
  4 13  1  0
  4 14  1  0
  4 15  1  0
  5 16  1  0
  7 17  1  0
  7 18  1  0
  8 19  1  0
M  END
