
     RDKit          3D

 23 24  0  0  0  0  0  0  0  0999 V2000
    2.1680    1.7859   -0.5252 C   0  0  0  0  0  0  0  0  0  0  0  0
    1.2023    0.6651   -0.2621 C   0  0  0  0  0  0  0  0  0  0  0  0
   -0.0868    0.9558   -0.1306 C   0  0  0  0  0  0  0  0  0  0  0  0
   -1.1489   -0.0271    0.1280 C   0  0  0  0  0  0  0  0  0  0  0  0
   -0.6197   -1.4180    0.0266 C   0  0  0  0  0  0  0  0  0  0  0  0
    0.7641   -1.5940    0.5766 C   0  0  0  0  0  0  0  0  0  0  0  0
    1.7250   -0.7063   -0.1613 C   0  0  0  0  0  0  0  0  0  0  0  0
   -2.2522    0.3375    1.0403 C   0  0  0  0  0  0  0  0  0  0  0  0
   -2.5126    0.1888   -0.4475 C   0  0  0  0  0  0  0  0  0  0  0  0
    2.7533    1.4990   -1.4191 H   0  0  0  0  0  0  0  0  0  0  0  0
    2.8209    1.8335    0.3709 H   0  0  0  0  0  0  0  0  0  0  0  0
    1.6373    2.7332   -0.6665 H   0  0  0  0  0  0  0  0  0  0  0  0
   -0.3855    2.0077   -0.2212 H   0  0  0  0  0  0  0  0  0  0  0  0
   -0.5745   -1.6990   -1.0575 H   0  0  0  0  0  0  0  0  0  0  0  0
   -1.3241   -2.1539    0.4830 H   0  0  0  0  0  0  0  0  0  0  0  0
    0.8456   -1.3561    1.6488 H   0  0  0  0  0  0  0  0  0  0  0  0
    1.0674   -2.6429    0.3945 H   0  0  0  0  0  0  0  0  0  0  0  0
    2.7174   -0.7482    0.3711 H   0  0  0  0  0  0  0  0  0  0  0  0
    1.9155   -1.0808   -1.1936 H   0  0  0  0  0  0  0  0  0  0  0  0
   -2.7438   -0.3605    1.7152 H   0  0  0  0  0  0  0  0  0  0  0  0
   -2.2114    1.3802    1.4400 H   0  0  0  0  0  0  0  0  0  0  0  0
   -2.6510    1.1089   -1.0626 H   0  0  0  0  0  0  0  0  0  0  0  0
   -3.1064   -0.7091   -0.7644 H   0  0  0  0  0  0  0  0  0  0  0  0
  1  2  1  0
  2  3  2  0
  3  4  1  0
  4  5  1  0
  5  6  1  0
  6  7  1  0
  4  8  1  0
  8  9  1  0
  7  2  1  0
  9  4  1  0
  1 10  1  0
  1 11  1  0
  1 12  1  0
  3 13  1  0
  5 14  1  0
  5 15  1  0
  6 16  1  0
  6 17  1  0
  7 18  1  0
  7 19  1  0
  8 20  1  0
  8 21  1  0
  9 22  1  0
  9 23  1  0
M  END
