
     RDKit          3D

 19 20  0  0  0  0  0  0  0  0999 V2000
    2.3232    0.1266    0.0296 C   0  0  0  0  0  0  0  0  0  0  0  0
    0.8664   -0.1081    0.1737 C   0  0  0  0  0  0  0  0  0  0  0  0
    0.2842   -1.0914    0.8530 C   0  0  0  0  0  0  0  0  0  0  0  0
   -1.1922   -0.9337    0.6534 C   0  0  0  0  0  0  0  0  0  0  0  0
   -1.4352   -1.1197   -0.7981 C   0  0  0  0  0  0  0  0  0  0  0  0
   -0.8739   -0.0996   -1.4427 C   0  0  0  0  0  0  0  0  0  0  0  0
   -0.2179    0.7329   -0.4292 C   0  0  0  0  0  0  0  0  0  0  0  0
    0.1123    1.9813   -0.7472 O   0  0  0  0  0  0  0  0  0  0  0  0
   -1.2486    0.6071    0.7138 C   0  0  0  0  0  0  0  0  0  0  0  0
    2.5116    0.9801   -0.6545 H   0  0  0  0  0  0  0  0  0  0  0  0
    2.8394   -0.7504   -0.4611 H   0  0  0  0  0  0  0  0  0  0  0  0
    2.8403    0.2493    1.0020 H   0  0  0  0  0  0  0  0  0  0  0  0
    0.8335   -1.8311    1.4211 H   0  0  0  0  0  0  0  0  0  0  0  0
   -1.8228   -1.4321    1.3325 H   0  0  0  0  0  0  0  0  0  0  0  0
   -1.9648   -1.9241   -1.2599 H   0  0  0  0  0  0  0  0  0  0  0  0
   -0.8738    0.1158   -2.5005 H   0  0  0  0  0  0  0  0  0  0  0  0
    0.1147    2.5659    0.0514 H   0  0  0  0  0  0  0  0  0  0  0  0
   -0.8617    0.9926    1.6521 H   0  0  0  0  0  0  0  0  0  0  0  0
   -2.2348    0.9385    0.4106 H   0  0  0  0  0  0  0  0  0  0  0  0
  1  2  1  0
  2  3  2  0
  3  4  1  0
  4  5  1  0
  5  6  2  0
  6  7  1  0
  7  8  1  0
  7  9  1  0
  7  2  1  0
  9  4  1  0
  1 10  1  0
  1 11  1  0
  1 12  1  0
  3 13  1  0
  4 14  1  0
  5 15  1  0
  6 16  1  0
  8 17  1  0
  9 18  1  0
  9 19  1  0
M  END
