
     RDKit          3D

 21 21  0  0  0  0  0  0  0  0999 V2000
   -2.2951    1.6571   -0.0018 C   0  0  0  0  0  0  0  0  0  0  0  0
   -1.4609    0.4403   -0.1398 C   0  0  0  0  0  0  0  0  0  0  0  0
   -0.3342    0.3748   -0.8348 C   0  0  0  0  0  0  0  0  0  0  0  0
    0.1515   -1.0283   -0.6915 C   0  0  0  0  0  0  0  0  0  0  0  0
    1.6610   -1.0672   -0.7594 C   0  0  0  0  0  0  0  0  0  0  0  0
    2.2925   -0.2421    0.3374 C   0  0  0  0  0  0  0  0  0  0  0  0
    1.9001    1.0699    0.2338 O   0  0  0  0  0  0  0  0  0  0  0  0
   -0.3453   -1.3943    0.5344 O   0  0  0  0  0  0  0  0  0  0  0  0
   -1.6771   -0.9240    0.4389 C   0  0  0  0  0  0  0  0  0  0  0  0
   -2.6108    2.0639   -0.9904 H   0  0  0  0  0  0  0  0  0  0  0  0
   -1.6755    2.4396    0.5094 H   0  0  0  0  0  0  0  0  0  0  0  0
   -3.1739    1.4972    0.6308 H   0  0  0  0  0  0  0  0  0  0  0  0
    0.1612    1.1758   -1.4076 H   0  0  0  0  0  0  0  0  0  0  0  0
   -0.2608   -1.5955   -1.5355 H   0  0  0  0  0  0  0  0  0  0  0  0
    1.9543   -0.5948   -1.7212 H   0  0  0  0  0  0  0  0  0  0  0  0
    1.9720   -2.1217   -0.7249 H   0  0  0  0  0  0  0  0  0  0  0  0
    3.3929   -0.2838    0.2072 H   0  0  0  0  0  0  0  0  0  0  0  0
    2.0804   -0.6810    1.3379 H   0  0  0  0  0  0  0  0  0  0  0  0
    2.6573    1.6891    0.0651 H   0  0  0  0  0  0  0  0  0  0  0  0
   -2.1705   -0.8854    1.4181 H   0  0  0  0  0  0  0  0  0  0  0  0
   -2.2191   -1.5897   -0.2511 H   0  0  0  0  0  0  0  0  0  0  0  0
  1  2  1  0
  2  3  2  0
  3  4  1  0
  4  5  1  0
  5  6  1  0
  6  7  1  0
  4  8  1  0
  8  9  1  0
  9  2  1  0
  1 10  1  0
  1 11  1  0
  1 12  1  0
  3 13  1  0
  4 14  1  0
  5 15  1  0
  5 16  1  0
  6 17  1  0
  6 18  1  0
  7 19  1  0
  9 20  1  0
  9 21  1  0
M  END
