
     RDKit          3D

 19 19  0  0  0  0  0  0  0  0999 V2000
    2.6232   -0.0063   -0.1425 C   0  0  0  0  0  0  0  0  0  0  0  0
    1.2320    0.0727    0.3768 C   0  0  0  0  0  0  0  0  0  0  0  0
    0.6982   -0.7197    1.2942 C   0  0  0  0  0  0  0  0  0  0  0  0
   -0.6924   -0.3291    1.5413 C   0  0  0  0  0  0  0  0  0  0  0  0
   -1.4474   -0.6690    2.4896 O   0  0  0  0  0  0  0  0  0  0  0  0
   -1.0927    0.5735    0.4469 C   0  0  0  0  0  0  0  0  0  0  0  0
   -1.8333   -0.2242   -0.6125 C   0  0  0  0  0  0  0  0  0  0  0  0
   -2.9531   -0.7783    0.0166 O   0  0  0  0  0  0  0  0  0  0  0  0
    0.2273    1.0741   -0.0725 C   0  0  0  0  0  0  0  0  0  0  0  0
    2.9702    0.9589   -0.5602 H   0  0  0  0  0  0  0  0  0  0  0  0
    2.7408   -0.8096   -0.8907 H   0  0  0  0  0  0  0  0  0  0  0  0
    3.3515   -0.2387    0.6889 H   0  0  0  0  0  0  0  0  0  0  0  0
    1.1554   -1.5455    1.8217 H   0  0  0  0  0  0  0  0  0  0  0  0
   -1.6845    1.4348    0.7785 H   0  0  0  0  0  0  0  0  0  0  0  0
   -2.1679    0.4318   -1.4416 H   0  0  0  0  0  0  0  0  0  0  0  0
   -1.1860   -1.0154   -1.0115 H   0  0  0  0  0  0  0  0  0  0  0  0
   -2.6732   -1.4601    0.6633 H   0  0  0  0  0  0  0  0  0  0  0  0
    0.2388    1.2218   -1.1615 H   0  0  0  0  0  0  0  0  0  0  0  0
    0.4930    2.0281    0.4356 H   0  0  0  0  0  0  0  0  0  0  0  0
  1  2  1  0
  2  3  2  0
  3  4  1  0
  4  5  2  0
  4  6  1  0
  6  7  1  0
  7  8  1  0
  6  9  1  0
  9  2  1  0
  1 10  1  0
  1 11  1  0
  1 12  1  0
  3 13  1  0
  6 14  1  0
  7 15  1  0
  7 16  1  0
  8 17  1  0
  9 18  1  0
  9 19  1  0
M  END
