
     RDKit          3D

 17 17  0  0  0  0  0  0  0  0999 V2000
    2.1726   -0.2575    0.2085 C   0  0  0  0  0  0  0  0  0  0  0  0
    0.6908   -0.1607    0.1197 C   0  0  0  0  0  0  0  0  0  0  0  0
   -0.1323   -1.0059    0.7209 C   0  0  0  0  0  0  0  0  0  0  0  0
   -1.5427   -0.6371    0.4363 C   0  0  0  0  0  0  0  0  0  0  0  0
   -1.9451   -1.2590   -0.7492 O   0  0  0  0  0  0  0  0  0  0  0  0
   -1.3971    0.8158    0.1185 C   0  0  0  0  0  0  0  0  0  0  0  0
   -2.1264    1.7414    0.3826 O   0  0  0  0  0  0  0  0  0  0  0  0
   -0.0875    0.8656   -0.6325 C   0  0  0  0  0  0  0  0  0  0  0  0
    0.5220    2.0817   -0.5497 O   0  0  0  0  0  0  0  0  0  0  0  0
    2.4549   -0.1046    1.2620 H   0  0  0  0  0  0  0  0  0  0  0  0
    2.6271    0.5380   -0.4477 H   0  0  0  0  0  0  0  0  0  0  0  0
    2.5532   -1.2303   -0.1795 H   0  0  0  0  0  0  0  0  0  0  0  0
    0.1678   -1.8417    1.3294 H   0  0  0  0  0  0  0  0  0  0  0  0
   -2.2248   -0.8210    1.2750 H   0  0  0  0  0  0  0  0  0  0  0  0
   -1.3946   -2.0590   -0.9361 H   0  0  0  0  0  0  0  0  0  0  0  0
   -0.2735    0.4823   -1.6364 H   0  0  0  0  0  0  0  0  0  0  0  0
   -0.0644    2.8519   -0.7217 H   0  0  0  0  0  0  0  0  0  0  0  0
  1  2  1  0
  2  3  2  0
  3  4  1  0
  4  5  1  0
  4  6  1  0
  6  7  2  0
  6  8  1  0
  8  9  1  0
  8  2  1  0
  1 10  1  0
  1 11  1  0
  1 12  1  0
  3 13  1  0
  4 14  1  0
  5 15  1  0
  8 16  1  0
  9 17  1  0
M  END
