
     RDKit          3D

 19 21  0  0  0  0  0  0  0  0999 V2000
    2.4525   -0.7170   -0.5928 C   0  0  0  0  0  0  0  0  0  0  0  0
    0.9937   -0.5954   -0.2931 C   0  0  0  0  0  0  0  0  0  0  0  0
   -0.0280   -1.2743   -0.8040 C   0  0  0  0  0  0  0  0  0  0  0  0
   -1.3099   -0.8380   -0.2298 C   0  0  0  0  0  0  0  0  0  0  0  0
   -1.6667    0.5443   -0.7935 C   0  0  0  0  0  0  0  0  0  0  0  0
   -0.7507    1.1294    0.2417 C   0  0  0  0  0  0  0  0  0  0  0  0
   -0.9931    2.3609    0.7936 O   0  0  0  0  0  0  0  0  0  0  0  0
    0.4417    0.3906    0.7061 C   0  0  0  0  0  0  0  0  0  0  0  0
   -0.8680   -0.1326    1.0170 C   0  0  0  0  0  0  0  0  0  0  0  0
    2.8996   -1.3334    0.2224 H   0  0  0  0  0  0  0  0  0  0  0  0
    2.5910   -1.1991   -1.5660 H   0  0  0  0  0  0  0  0  0  0  0  0
    2.9638    0.2725   -0.5833 H   0  0  0  0  0  0  0  0  0  0  0  0
    0.0847   -2.0493   -1.5492 H   0  0  0  0  0  0  0  0  0  0  0  0
   -2.1222   -1.5454   -0.1644 H   0  0  0  0  0  0  0  0  0  0  0  0
   -1.3851    0.6843   -1.8456 H   0  0  0  0  0  0  0  0  0  0  0  0
   -2.7519    0.7057   -0.6213 H   0  0  0  0  0  0  0  0  0  0  0  0
   -0.2670    2.9843    0.4808 H   0  0  0  0  0  0  0  0  0  0  0  0
    1.0793    0.8245    1.4595 H   0  0  0  0  0  0  0  0  0  0  0  0
   -1.3637   -0.2120    1.9608 H   0  0  0  0  0  0  0  0  0  0  0  0
  1  2  1  0
  2  3  2  0
  3  4  1  0
  4  5  1  0
  5  6  1  0
  6  7  1  0
  6  8  1  0
  8  9  1  0
  8  2  1  0
  9  4  1  0
  9  6  1  0
  1 10  1  0
  1 11  1  0
  1 12  1  0
  3 13  1  0
  4 14  1  0
  5 15  1  0
  5 16  1  0
  7 17  1  0
  8 18  1  0
  9 19  1  0
M  END
