
     RDKit          3D

 21 22  0  0  0  0  0  0  0  0999 V2000
   -2.0708   -1.3503    0.0797 C   0  0  0  0  0  0  0  0  0  0  0  0
   -1.1560   -0.1874    0.0139 C   0  0  0  0  0  0  0  0  0  0  0  0
   -1.3983    0.9250   -0.6654 C   0  0  0  0  0  0  0  0  0  0  0  0
   -0.1939    1.8420   -0.4575 C   0  0  0  0  0  0  0  0  0  0  0  0
   -0.2919    2.3620    0.8252 O   0  0  0  0  0  0  0  0  0  0  0  0
    0.8047    0.7214   -0.5206 C   0  0  0  0  0  0  0  0  0  0  0  0
    1.4694   -0.0973    0.3926 C   0  0  0  0  0  0  0  0  0  0  0  0
    2.0369   -1.4525   -0.0578 C   0  0  0  0  0  0  0  0  0  0  0  0
    0.1090   -0.0187    0.6783 C   0  0  0  0  0  0  0  0  0  0  0  0
   -1.9813   -1.9064    1.0569 H   0  0  0  0  0  0  0  0  0  0  0  0
   -1.9109   -2.0580   -0.7739 H   0  0  0  0  0  0  0  0  0  0  0  0
   -3.1418   -1.0602    0.0191 H   0  0  0  0  0  0  0  0  0  0  0  0
   -2.2392    1.2161   -1.2685 H   0  0  0  0  0  0  0  0  0  0  0  0
   -0.1034    2.5737   -1.2500 H   0  0  0  0  0  0  0  0  0  0  0  0
    0.6244    2.4974    1.2237 H   0  0  0  0  0  0  0  0  0  0  0  0
    0.6672    0.2363   -1.5411 H   0  0  0  0  0  0  0  0  0  0  0  0
    2.2370    0.3837    1.0659 H   0  0  0  0  0  0  0  0  0  0  0  0
    3.0654   -1.2324   -0.4639 H   0  0  0  0  0  0  0  0  0  0  0  0
    1.3899   -1.9429   -0.7927 H   0  0  0  0  0  0  0  0  0  0  0  0
    2.1903   -2.0789    0.8367 H   0  0  0  0  0  0  0  0  0  0  0  0
   -0.1067    0.6274    1.5995 H   0  0  0  0  0  0  0  0  0  0  0  0
  1  2  1  0
  2  3  2  0
  3  4  1  0
  4  5  1  0
  4  6  1  0
  6  7  1  0
  7  8  1  0
  7  9  1  0
  9  2  1  0
  9  6  1  0
  1 10  1  0
  1 11  1  0
  1 12  1  0
  3 13  1  0
  4 14  1  0
  5 15  1  0
  6 16  1  0
  7 17  1  0
  8 18  1  0
  8 19  1  0
  8 20  1  0
  9 21  1  0
M  END
