
     RDKit          3D

 21 22  0  0  0  0  0  0  0  0999 V2000
    2.5362   -0.2219    0.3917 C   0  0  0  0  0  0  0  0  0  0  0  0
    1.1223   -0.0604   -0.0016 C   0  0  0  0  0  0  0  0  0  0  0  0
    0.3825   -1.1512    0.0740 C   0  0  0  0  0  0  0  0  0  0  0  0
   -1.0216   -1.4689   -0.2021 C   0  0  0  0  0  0  0  0  0  0  0  0
   -1.9951   -0.3741    0.2606 C   0  0  0  0  0  0  0  0  0  0  0  0
   -1.6721    0.8127   -0.5519 C   0  0  0  0  0  0  0  0  0  0  0  0
   -1.7333    2.1040   -0.2111 O   0  0  0  0  0  0  0  0  0  0  0  0
   -0.6016    1.5661    0.2614 C   0  0  0  0  0  0  0  0  0  0  0  0
    0.6633    1.3083   -0.4443 C   0  0  0  0  0  0  0  0  0  0  0  0
    2.9557   -1.0481   -0.2191 H   0  0  0  0  0  0  0  0  0  0  0  0
    3.0946    0.7374    0.2361 H   0  0  0  0  0  0  0  0  0  0  0  0
    2.6214   -0.5541    1.4652 H   0  0  0  0  0  0  0  0  0  0  0  0
    0.9555   -2.0139    0.4238 H   0  0  0  0  0  0  0  0  0  0  0  0
   -1.1886   -1.6139   -1.3100 H   0  0  0  0  0  0  0  0  0  0  0  0
   -1.3204   -2.4080    0.2751 H   0  0  0  0  0  0  0  0  0  0  0  0
   -3.0025   -0.7789    0.1647 H   0  0  0  0  0  0  0  0  0  0  0  0
   -1.7888   -0.2522    1.3530 H   0  0  0  0  0  0  0  0  0  0  0  0
   -1.4634    0.6026   -1.6174 H   0  0  0  0  0  0  0  0  0  0  0  0
   -0.5668    1.4028    1.3546 H   0  0  0  0  0  0  0  0  0  0  0  0
    1.4204    2.0670   -0.1534 H   0  0  0  0  0  0  0  0  0  0  0  0
    0.6023    1.3446   -1.5495 H   0  0  0  0  0  0  0  0  0  0  0  0
  1  2  1  0
  2  3  2  0
  3  4  1  0
  4  5  1  0
  5  6  1  0
  6  7  1  0
  7  8  1  0
  8  9  1  0
  9  2  1  0
  8  6  1  0
  1 10  1  0
  1 11  1  0
  1 12  1  0
  3 13  1  0
  4 14  1  0
  4 15  1  0
  5 16  1  0
  5 17  1  0
  6 18  1  0
  8 19  1  0
  9 20  1  0
  9 21  1  0
M  END
