
     RDKit          3D

 21 21  0  0  0  0  0  0  0  0999 V2000
   -2.2940   -0.4503    0.6972 C   0  0  0  0  0  0  0  0  0  0  0  0
   -0.9760   -0.4918    0.0007 C   0  0  0  0  0  0  0  0  0  0  0  0
   -0.2144    0.5361   -0.3201 C   0  0  0  0  0  0  0  0  0  0  0  0
   -0.5458    1.9759   -0.0346 C   0  0  0  0  0  0  0  0  0  0  0  0
    1.0012    0.0089   -0.9943 C   0  0  0  0  0  0  0  0  0  0  0  0
    2.1175   -0.2652   -0.0034 C   0  0  0  0  0  0  0  0  0  0  0  0
    2.6206    0.9165    0.5310 O   0  0  0  0  0  0  0  0  0  0  0  0
    0.5665   -1.2244   -1.4705 O   0  0  0  0  0  0  0  0  0  0  0  0
   -0.2774   -1.7223   -0.4679 C   0  0  0  0  0  0  0  0  0  0  0  0
   -2.8988   -1.3058    0.3385 H   0  0  0  0  0  0  0  0  0  0  0  0
   -2.1690   -0.6110    1.8035 H   0  0  0  0  0  0  0  0  0  0  0  0
   -2.8244    0.5058    0.5059 H   0  0  0  0  0  0  0  0  0  0  0  0
   -1.0150    2.4628   -0.9007 H   0  0  0  0  0  0  0  0  0  0  0  0
   -1.2139    2.0202    0.8610 H   0  0  0  0  0  0  0  0  0  0  0  0
    0.4286    2.4735    0.1510 H   0  0  0  0  0  0  0  0  0  0  0  0
    1.3390    0.6657   -1.8157 H   0  0  0  0  0  0  0  0  0  0  0  0
    1.7150   -0.9072    0.7960 H   0  0  0  0  0  0  0  0  0  0  0  0
    2.8868   -0.8515   -0.5439 H   0  0  0  0  0  0  0  0  0  0  0  0
    2.4991    0.9048    1.5038 H   0  0  0  0  0  0  0  0  0  0  0  0
   -0.9993   -2.3906   -0.9628 H   0  0  0  0  0  0  0  0  0  0  0  0
    0.2539   -2.2502    0.3253 H   0  0  0  0  0  0  0  0  0  0  0  0
  1  2  1  0
  2  3  2  0
  3  4  1  0
  3  5  1  0
  5  6  1  0
  6  7  1  0
  5  8  1  0
  8  9  1  0
  9  2  1  0
  1 10  1  0
  1 11  1  0
  1 12  1  0
  4 13  1  0
  4 14  1  0
  4 15  1  0
  5 16  1  0
  6 17  1  0
  6 18  1  0
  7 19  1  0
  9 20  1  0
  9 21  1  0
M  END
