
     RDKit          3D

 21 22  0  0  0  0  0  0  0  0999 V2000
    2.1930   -0.1032   -0.3158 C   0  0  0  0  0  0  0  0  0  0  0  0
    0.8120    0.4740   -0.1488 C   0  0  0  0  0  0  0  0  0  0  0  0
    0.5450    1.7698   -0.1529 C   0  0  0  0  0  0  0  0  0  0  0  0
   -0.8973    1.9513    0.0344 C   0  0  0  0  0  0  0  0  0  0  0  0
   -1.6795    1.5581   -1.0464 O   0  0  0  0  0  0  0  0  0  0  0  0
   -1.5568    0.6062   -0.0725 C   0  0  0  0  0  0  0  0  0  0  0  0
   -0.3980   -0.3164    0.0367 C   0  0  0  0  0  0  0  0  0  0  0  0
   -0.5025   -1.3673   -1.0383 C   0  0  0  0  0  0  0  0  0  0  0  0
   -0.4687   -1.0068    1.3882 C   0  0  0  0  0  0  0  0  0  0  0  0
    2.9375    0.6596   -0.5540 H   0  0  0  0  0  0  0  0  0  0  0  0
    2.2173   -0.8800   -1.0910 H   0  0  0  0  0  0  0  0  0  0  0  0
    2.4681   -0.5482    0.6756 H   0  0  0  0  0  0  0  0  0  0  0  0
    1.2801    2.5936   -0.2771 H   0  0  0  0  0  0  0  0  0  0  0  0
   -1.3100    2.6003    0.8102 H   0  0  0  0  0  0  0  0  0  0  0  0
   -2.4728    0.3994    0.5213 H   0  0  0  0  0  0  0  0  0  0  0  0
   -0.6043   -0.8901   -2.0293 H   0  0  0  0  0  0  0  0  0  0  0  0
   -1.3802   -2.0105   -0.8599 H   0  0  0  0  0  0  0  0  0  0  0  0
    0.4244   -1.9682   -1.0076 H   0  0  0  0  0  0  0  0  0  0  0  0
   -1.5390   -1.3107    1.5216 H   0  0  0  0  0  0  0  0  0  0  0  0
    0.1723   -1.9042    1.3906 H   0  0  0  0  0  0  0  0  0  0  0  0
   -0.2406   -0.3067    2.2151 H   0  0  0  0  0  0  0  0  0  0  0  0
  1  2  1  0
  2  3  2  0
  3  4  1  0
  4  5  1  0
  5  6  1  0
  6  7  1  0
  7  8  1  0
  7  9  1  0
  7  2  1  0
  6  4  1  0
  1 10  1  0
  1 11  1  0
  1 12  1  0
  3 13  1  0
  4 14  1  0
  6 15  1  0
  8 16  1  0
  8 17  1  0
  8 18  1  0
  9 19  1  0
  9 20  1  0
  9 21  1  0
M  END
