
     RDKit          3D

 21 22  0  0  0  0  0  0  0  0999 V2000
   -2.6900   -0.7392   -0.1640 C   0  0  0  0  0  0  0  0  0  0  0  0
   -1.3454   -0.1071   -0.1426 C   0  0  0  0  0  0  0  0  0  0  0  0
   -1.2035    1.1937   -0.1197 C   0  0  0  0  0  0  0  0  0  0  0  0
    0.1207    1.8229   -0.0985 C   0  0  0  0  0  0  0  0  0  0  0  0
    1.1771    1.0024    0.5830 C   0  0  0  0  0  0  0  0  0  0  0  0
    1.0785   -0.4603    0.2776 C   0  0  0  0  0  0  0  0  0  0  0  0
    2.3552   -1.1617   -0.1567 C   0  0  0  0  0  0  0  0  0  0  0  0
    0.3115   -1.2708    1.1441 O   0  0  0  0  0  0  0  0  0  0  0  0
   -0.1615   -0.9855   -0.1475 C   0  0  0  0  0  0  0  0  0  0  0  0
   -3.2350   -0.3000   -1.0427 H   0  0  0  0  0  0  0  0  0  0  0  0
   -2.6327   -1.8231   -0.3366 H   0  0  0  0  0  0  0  0  0  0  0  0
   -3.2288   -0.5754    0.7842 H   0  0  0  0  0  0  0  0  0  0  0  0
   -2.1293    1.7967   -0.1169 H   0  0  0  0  0  0  0  0  0  0  0  0
    0.0238    2.7880    0.4714 H   0  0  0  0  0  0  0  0  0  0  0  0
    0.4530    2.0723   -1.1476 H   0  0  0  0  0  0  0  0  0  0  0  0
    2.1603    1.3651    0.2174 H   0  0  0  0  0  0  0  0  0  0  0  0
    1.1925    1.1373    1.6844 H   0  0  0  0  0  0  0  0  0  0  0  0
    2.1393   -2.2351   -0.2765 H   0  0  0  0  0  0  0  0  0  0  0  0
    3.1486   -1.0124    0.6040 H   0  0  0  0  0  0  0  0  0  0  0  0
    2.6709   -0.7008   -1.1313 H   0  0  0  0  0  0  0  0  0  0  0  0
   -0.2051   -1.8070   -0.8855 H   0  0  0  0  0  0  0  0  0  0  0  0
  1  2  1  0
  2  3  2  0
  3  4  1  0
  4  5  1  0
  5  6  1  0
  6  7  1  0
  6  8  1  0
  8  9  1  0
  9  2  1  0
  9  6  1  0
  1 10  1  0
  1 11  1  0
  1 12  1  0
  3 13  1  0
  4 14  1  0
  4 15  1  0
  5 16  1  0
  5 17  1  0
  7 18  1  0
  7 19  1  0
  7 20  1  0
  9 21  1  0
M  END
