
     RDKit          3D

 21 21  0  0  0  0  0  0  0  0999 V2000
    2.9138    0.7679    0.5622 C   0  0  0  0  0  0  0  0  0  0  0  0
    1.6649    0.0815    0.1717 C   0  0  0  0  0  0  0  0  0  0  0  0
    0.4408    0.5898    0.2858 C   0  0  0  0  0  0  0  0  0  0  0  0
   -0.4698   -0.4565   -0.2284 C   0  0  0  0  0  0  0  0  0  0  0  0
   -1.7413    0.1111   -0.7882 C   0  0  0  0  0  0  0  0  0  0  0  0
   -2.5064    0.7096    0.3985 C   0  0  0  0  0  0  0  0  0  0  0  0
   -2.5323   -0.8681   -1.3245 O   0  0  0  0  0  0  0  0  0  0  0  0
    0.3088   -1.1082   -1.1545 O   0  0  0  0  0  0  0  0  0  0  0  0
    1.5050   -1.2975   -0.4215 C   0  0  0  0  0  0  0  0  0  0  0  0
    2.6897    1.6074    1.2230 H   0  0  0  0  0  0  0  0  0  0  0  0
    3.3869    1.1402   -0.3766 H   0  0  0  0  0  0  0  0  0  0  0  0
    3.5722    0.0727    1.1154 H   0  0  0  0  0  0  0  0  0  0  0  0
    0.1074    1.5465    0.6610 H   0  0  0  0  0  0  0  0  0  0  0  0
   -0.7289   -1.1374    0.5904 H   0  0  0  0  0  0  0  0  0  0  0  0
   -1.6068    0.9142   -1.5103 H   0  0  0  0  0  0  0  0  0  0  0  0
   -1.8298    0.9062    1.2543 H   0  0  0  0  0  0  0  0  0  0  0  0
   -2.9687    1.6748    0.1353 H   0  0  0  0  0  0  0  0  0  0  0  0
   -3.2749   -0.0139    0.7756 H   0  0  0  0  0  0  0  0  0  0  0  0
   -2.5607   -1.6725   -0.7232 H   0  0  0  0  0  0  0  0  0  0  0  0
    1.2876   -1.9897    0.4098 H   0  0  0  0  0  0  0  0  0  0  0  0
    2.3427   -1.5782   -1.0559 H   0  0  0  0  0  0  0  0  0  0  0  0
  1  2  1  0
  2  3  2  0
  3  4  1  0
  4  5  1  0
  5  6  1  0
  5  7  1  0
  4  8  1  0
  8  9  1  0
  9  2  1  0
  1 10  1  0
  1 11  1  0
  1 12  1  0
  3 13  1  0
  4 14  1  0
  5 15  1  0
  6 16  1  0
  6 17  1  0
  6 18  1  0
  7 19  1  0
  9 20  1  0
  9 21  1  0
M  END
