
     RDKit          3D

 21 22  0  0  0  0  0  0  0  0999 V2000
   -1.4675    1.5963    0.7764 C   0  0  0  0  0  0  0  0  0  0  0  0
   -0.5509    0.6924    0.0342 C   0  0  0  0  0  0  0  0  0  0  0  0
   -0.6027   -0.6491   -0.1119 C   0  0  0  0  0  0  0  0  0  0  0  0
   -1.5959   -1.6184    0.4205 C   0  0  0  0  0  0  0  0  0  0  0  0
    0.6137   -0.8769   -0.9545 C   0  0  0  0  0  0  0  0  0  0  0  0
    0.4629    0.1773   -1.8865 O   0  0  0  0  0  0  0  0  0  0  0  0
    0.6822    1.0027   -0.7581 C   0  0  0  0  0  0  0  0  0  0  0  0
    1.6570   -0.0281   -0.3113 C   0  0  0  0  0  0  0  0  0  0  0  0
    1.7564   -0.0835    1.1834 C   0  0  0  0  0  0  0  0  0  0  0  0
   -0.9398    2.2925    1.4419 H   0  0  0  0  0  0  0  0  0  0  0  0
   -2.1402    2.1164    0.0664 H   0  0  0  0  0  0  0  0  0  0  0  0
   -2.1314    0.9259    1.3901 H   0  0  0  0  0  0  0  0  0  0  0  0
   -2.6040   -1.1333    0.5028 H   0  0  0  0  0  0  0  0  0  0  0  0
   -1.7463   -2.4586   -0.3019 H   0  0  0  0  0  0  0  0  0  0  0  0
   -1.2795   -1.9665    1.4145 H   0  0  0  0  0  0  0  0  0  0  0  0
    0.8228   -1.8446   -1.3179 H   0  0  0  0  0  0  0  0  0  0  0  0
    0.9568    2.0087   -0.9171 H   0  0  0  0  0  0  0  0  0  0  0  0
    2.6288   -0.0434   -0.8049 H   0  0  0  0  0  0  0  0  0  0  0  0
    0.7850   -0.1800    1.6728 H   0  0  0  0  0  0  0  0  0  0  0  0
    2.1885    0.9080    1.5091 H   0  0  0  0  0  0  0  0  0  0  0  0
    2.5041   -0.8379    1.5340 H   0  0  0  0  0  0  0  0  0  0  0  0
  1  2  1  0
  2  3  2  0
  3  4  1  0
  3  5  1  0
  5  6  1  0
  6  7  1  0
  7  8  1  0
  8  9  1  0
  7  2  1  0
  8  5  1  0
  1 10  1  0
  1 11  1  0
  1 12  1  0
  4 13  1  0
  4 14  1  0
  4 15  1  0
  5 16  1  0
  7 17  1  0
  8 18  1  0
  9 19  1  0
  9 20  1  0
  9 21  1  0
M  END
