
     RDKit          3D

 17 18  0  0  0  0  0  0  0  0999 V2000
    2.2221   -0.6022   -0.4831 C   0  0  0  0  0  0  0  0  0  0  0  0
    0.8687   -0.0816   -0.0663 C   0  0  0  0  0  0  0  0  0  0  0  0
    0.4236   -0.2059    1.1570 C   0  0  0  0  0  0  0  0  0  0  0  0
   -0.9192    0.3892    1.2845 C   0  0  0  0  0  0  0  0  0  0  0  0
   -1.3580    0.6749   -0.0967 C   0  0  0  0  0  0  0  0  0  0  0  0
   -1.9058   -0.4850   -0.8264 C   0  0  0  0  0  0  0  0  0  0  0  0
   -2.8506   -1.2788   -0.7086 O   0  0  0  0  0  0  0  0  0  0  0  0
   -0.8727   -0.2991   -1.7332 O   0  0  0  0  0  0  0  0  0  0  0  0
   -0.0984    0.5979   -0.9227 C   0  0  0  0  0  0  0  0  0  0  0  0
    2.0657   -1.6244   -0.8369 H   0  0  0  0  0  0  0  0  0  0  0  0
    2.6843    0.0768   -1.2268 H   0  0  0  0  0  0  0  0  0  0  0  0
    2.9097   -0.6400    0.3811 H   0  0  0  0  0  0  0  0  0  0  0  0
    0.9752   -0.6972    2.0112 H   0  0  0  0  0  0  0  0  0  0  0  0
   -0.7843    1.3277    1.8722 H   0  0  0  0  0  0  0  0  0  0  0  0
   -1.6152   -0.2674    1.8575 H   0  0  0  0  0  0  0  0  0  0  0  0
   -1.9483    1.6077   -0.2213 H   0  0  0  0  0  0  0  0  0  0  0  0
    0.2034    1.5074   -1.4415 H   0  0  0  0  0  0  0  0  0  0  0  0
  1  2  1  0
  2  3  2  0
  3  4  1  0
  4  5  1  0
  5  6  1  0
  6  7  2  0
  6  8  1  0
  8  9  1  0
  9  2  1  0
  9  5  1  0
  1 10  1  0
  1 11  1  0
  1 12  1  0
  3 13  1  0
  4 14  1  0
  4 15  1  0
  5 16  1  0
  9 17  1  0
M  END
