
     RDKit          3D

 20 20  0  0  0  0  0  0  0  0999 V2000
    2.6839   -0.4309    0.2624 C   0  0  0  0  0  0  0  0  0  0  0  0
    1.2561   -0.2461   -0.0760 C   0  0  0  0  0  0  0  0  0  0  0  0
    0.2409   -1.0285    0.2483 C   0  0  0  0  0  0  0  0  0  0  0  0
   -1.0481   -0.5129   -0.2733 C   0  0  0  0  0  0  0  0  0  0  0  0
   -2.1917   -0.7788    0.6719 C   0  0  0  0  0  0  0  0  0  0  0  0
   -0.7757    0.9382   -0.4793 C   0  0  0  0  0  0  0  0  0  0  0  0
   -0.9453    1.6992    0.6669 O   0  0  0  0  0  0  0  0  0  0  0  0
    0.7142    0.9007   -0.8638 C   0  0  0  0  0  0  0  0  0  0  0  0
    3.0361    0.2637    1.0542 H   0  0  0  0  0  0  0  0  0  0  0  0
    3.2934   -0.2530   -0.6615 H   0  0  0  0  0  0  0  0  0  0  0  0
    2.9218   -1.4592    0.5872 H   0  0  0  0  0  0  0  0  0  0  0  0
    0.3417   -1.9397    0.8279 H   0  0  0  0  0  0  0  0  0  0  0  0
   -1.2801   -0.9974   -1.2500 H   0  0  0  0  0  0  0  0  0  0  0  0
   -2.1941   -1.8461    0.9069 H   0  0  0  0  0  0  0  0  0  0  0  0
   -3.1198   -0.5164    0.1645 H   0  0  0  0  0  0  0  0  0  0  0  0
   -2.0180   -0.2275    1.6233 H   0  0  0  0  0  0  0  0  0  0  0  0
   -1.3107    1.3733   -1.3564 H   0  0  0  0  0  0  0  0  0  0  0  0
   -1.5577    2.4513    0.4799 H   0  0  0  0  0  0  0  0  0  0  0  0
    1.1632    1.8550   -0.5863 H   0  0  0  0  0  0  0  0  0  0  0  0
    0.7898    0.7553   -1.9469 H   0  0  0  0  0  0  0  0  0  0  0  0
  1  2  1  0
  2  3  2  0
  3  4  1  0
  4  5  1  0
  4  6  1  0
  6  7  1  0
  6  8  1  0
  8  2  1  0
  1  9  1  0
  1 10  1  0
  1 11  1  0
  3 12  1  0
  4 13  1  0
  5 14  1  0
  5 15  1  0
  5 16  1  0
  6 17  1  0
  7 18  1  0
  8 19  1  0
  8 20  1  0
M  END
