
     RDKit          3D

 21 21  0  0  0  0  0  0  0  0999 V2000
    2.7759   -0.3243    0.3818 C   0  0  0  0  0  0  0  0  0  0  0  0
    1.3123   -0.1404    0.2115 C   0  0  0  0  0  0  0  0  0  0  0  0
    0.5643   -1.1698   -0.1361 C   0  0  0  0  0  0  0  0  0  0  0  0
   -0.8642   -1.3856   -0.3939 C   0  0  0  0  0  0  0  0  0  0  0  0
   -1.7459   -0.2818    0.0711 C   0  0  0  0  0  0  0  0  0  0  0  0
   -1.6467   -0.1158    1.4431 O   0  0  0  0  0  0  0  0  0  0  0  0
   -1.4369    1.0446   -0.5798 C   0  0  0  0  0  0  0  0  0  0  0  0
   -0.3229    1.7301    0.1256 C   0  0  0  0  0  0  0  0  0  0  0  0
    0.8474    1.2136    0.4584 C   0  0  0  0  0  0  0  0  0  0  0  0
    2.9989   -1.4118    0.5573 H   0  0  0  0  0  0  0  0  0  0  0  0
    3.3573    0.0085   -0.4954 H   0  0  0  0  0  0  0  0  0  0  0  0
    3.1217    0.3009    1.2424 H   0  0  0  0  0  0  0  0  0  0  0  0
    1.1767   -2.0796   -0.2576 H   0  0  0  0  0  0  0  0  0  0  0  0
   -1.1645   -2.3103    0.1439 H   0  0  0  0  0  0  0  0  0  0  0  0
   -1.0732   -1.6064   -1.4789 H   0  0  0  0  0  0  0  0  0  0  0  0
   -2.7932   -0.5503   -0.1654 H   0  0  0  0  0  0  0  0  0  0  0  0
   -2.5197   -0.2622    1.8993 H   0  0  0  0  0  0  0  0  0  0  0  0
   -2.3517    1.6845   -0.4318 H   0  0  0  0  0  0  0  0  0  0  0  0
   -1.2787    0.9758   -1.6620 H   0  0  0  0  0  0  0  0  0  0  0  0
   -0.4795    2.7828    0.4056 H   0  0  0  0  0  0  0  0  0  0  0  0
    1.5226    1.8976    0.9746 H   0  0  0  0  0  0  0  0  0  0  0  0
  1  2  1  0
  2  3  2  0
  3  4  1  0
  4  5  1  0
  5  6  1  0
  5  7  1  0
  7  8  1  0
  8  9  2  0
  9  2  1  0
  1 10  1  0
  1 11  1  0
  1 12  1  0
  3 13  1  0
  4 14  1  0
  4 15  1  0
  5 16  1  0
  6 17  1  0
  7 18  1  0
  7 19  1  0
  8 20  1  0
  9 21  1  0
M  END
