
     RDKit          3D

 21 22  0  0  0  0  0  0  0  0999 V2000
    2.6729   -0.0568   -0.2903 C   0  0  0  0  0  0  0  0  0  0  0  0
    1.2138    0.0922   -0.0587 C   0  0  0  0  0  0  0  0  0  0  0  0
    0.6776    1.1400    0.5497 C   0  0  0  0  0  0  0  0  0  0  0  0
   -0.7977    1.1359    0.7054 C   0  0  0  0  0  0  0  0  0  0  0  0
   -1.3610    0.7939   -0.6653 C   0  0  0  0  0  0  0  0  0  0  0  0
   -1.0834   -0.6637   -0.3128 C   0  0  0  0  0  0  0  0  0  0  0  0
   -2.0217   -1.5589   -0.7679 O   0  0  0  0  0  0  0  0  0  0  0  0
    0.3378   -1.0315   -0.5589 C   0  0  0  0  0  0  0  0  0  0  0  0
   -1.2243   -0.2585    1.1374 C   0  0  0  0  0  0  0  0  0  0  0  0
    3.2121    0.4955    0.5062 H   0  0  0  0  0  0  0  0  0  0  0  0
    2.9831   -1.1237   -0.3201 H   0  0  0  0  0  0  0  0  0  0  0  0
    2.9204    0.4077   -1.2574 H   0  0  0  0  0  0  0  0  0  0  0  0
    1.2319    1.9791    0.9316 H   0  0  0  0  0  0  0  0  0  0  0  0
   -1.2530    1.9678    1.2254 H   0  0  0  0  0  0  0  0  0  0  0  0
   -0.7373    1.1294   -1.5160 H   0  0  0  0  0  0  0  0  0  0  0  0
   -2.4204    1.0439   -0.7837 H   0  0  0  0  0  0  0  0  0  0  0  0
   -2.8883   -1.3272   -0.3415 H   0  0  0  0  0  0  0  0  0  0  0  0
    0.6027   -1.9048    0.0775 H   0  0  0  0  0  0  0  0  0  0  0  0
    0.5680   -1.2695   -1.6151 H   0  0  0  0  0  0  0  0  0  0  0  0
   -0.4116   -0.6846    1.7869 H   0  0  0  0  0  0  0  0  0  0  0  0
   -2.2215   -0.3060    1.5674 H   0  0  0  0  0  0  0  0  0  0  0  0
  1  2  1  0
  2  3  2  0
  3  4  1  0
  4  5  1  0
  5  6  1  0
  6  7  1  0
  6  8  1  0
  6  9  1  0
  8  2  1  0
  9  4  1  0
  1 10  1  0
  1 11  1  0
  1 12  1  0
  3 13  1  0
  4 14  1  0
  5 15  1  0
  5 16  1  0
  7 17  1  0
  8 18  1  0
  8 19  1  0
  9 20  1  0
  9 21  1  0
M  END
