
     RDKit          3D

 21 21  0  0  0  0  0  0  0  0999 V2000
    2.6664   -0.5109   -0.0426 C   0  0  0  0  0  0  0  0  0  0  0  0
    1.2553   -0.0086    0.0261 C   0  0  0  0  0  0  0  0  0  0  0  0
    0.2994   -0.8352   -0.3506 C   0  0  0  0  0  0  0  0  0  0  0  0
   -1.1457   -0.5987   -0.3810 C   0  0  0  0  0  0  0  0  0  0  0  0
   -1.8244   -1.8981    0.0609 C   0  0  0  0  0  0  0  0  0  0  0  0
   -1.5875    0.3947    0.4481 O   0  0  0  0  0  0  0  0  0  0  0  0
   -1.3595    1.6817   -0.0220 C   0  0  0  0  0  0  0  0  0  0  0  0
   -0.0400    2.1219    0.5077 C   0  0  0  0  0  0  0  0  0  0  0  0
    1.0543    1.3538    0.5042 C   0  0  0  0  0  0  0  0  0  0  0  0
    3.2339    0.0494    0.7125 H   0  0  0  0  0  0  0  0  0  0  0  0
    2.7183   -1.5929    0.0988 H   0  0  0  0  0  0  0  0  0  0  0  0
    3.0414   -0.2411   -1.0573 H   0  0  0  0  0  0  0  0  0  0  0  0
    0.6090   -1.8118   -0.6800 H   0  0  0  0  0  0  0  0  0  0  0  0
   -1.4409   -0.4399   -1.4536 H   0  0  0  0  0  0  0  0  0  0  0  0
   -1.1154   -2.7389    0.1018 H   0  0  0  0  0  0  0  0  0  0  0  0
   -2.6382   -2.1870   -0.6187 H   0  0  0  0  0  0  0  0  0  0  0  0
   -2.2419   -1.7873    1.0860 H   0  0  0  0  0  0  0  0  0  0  0  0
   -2.1334    2.3921    0.3588 H   0  0  0  0  0  0  0  0  0  0  0  0
   -1.3220    1.6961   -1.1509 H   0  0  0  0  0  0  0  0  0  0  0  0
    0.0467    3.1148    0.9193 H   0  0  0  0  0  0  0  0  0  0  0  0
    1.9241    1.8459    0.9323 H   0  0  0  0  0  0  0  0  0  0  0  0
  1  2  1  0
  2  3  2  0
  3  4  1  0
  4  5  1  0
  4  6  1  0
  6  7  1  0
  7  8  1  0
  8  9  2  0
  9  2  1  0
  1 10  1  0
  1 11  1  0
  1 12  1  0
  3 13  1  0
  4 14  1  0
  5 15  1  0
  5 16  1  0
  5 17  1  0
  7 18  1  0
  7 19  1  0
  8 20  1  0
  9 21  1  0
M  END
