
     RDKit          3D

 19 19  0  0  0  0  0  0  0  0999 V2000
   -1.3942   -1.6240    0.1388 C   0  0  0  0  0  0  0  0  0  0  0  0
   -0.9331   -0.1823    0.1471 C   0  0  0  0  0  0  0  0  0  0  0  0
    0.2347    0.2852   -0.2520 C   0  0  0  0  0  0  0  0  0  0  0  0
    1.3294   -0.5480   -0.7939 C   0  0  0  0  0  0  0  0  0  0  0  0
    2.5668   -0.4612    0.0035 C   0  0  0  0  0  0  0  0  0  0  0  0
    2.6329    0.2275    0.9838 O   0  0  0  0  0  0  0  0  0  0  0  0
    0.2340    1.7524   -0.0578 C   0  0  0  0  0  0  0  0  0  0  0  0
   -0.8355    2.0098    0.7985 O   0  0  0  0  0  0  0  0  0  0  0  0
   -1.7317    0.9581    0.6124 C   0  0  0  0  0  0  0  0  0  0  0  0
   -0.5340   -2.3020    0.2696 H   0  0  0  0  0  0  0  0  0  0  0  0
   -2.0675   -1.7245    1.0111 H   0  0  0  0  0  0  0  0  0  0  0  0
   -1.9204   -1.8467   -0.8224 H   0  0  0  0  0  0  0  0  0  0  0  0
    1.5269   -0.1631   -1.8281 H   0  0  0  0  0  0  0  0  0  0  0  0
    1.0412   -1.6190   -0.8275 H   0  0  0  0  0  0  0  0  0  0  0  0
    3.4231   -1.0389   -0.3189 H   0  0  0  0  0  0  0  0  0  0  0  0
    1.1735    2.1168    0.4018 H   0  0  0  0  0  0  0  0  0  0  0  0
    0.0148    2.2611   -1.0359 H   0  0  0  0  0  0  0  0  0  0  0  0
   -2.1866    0.6913    1.6118 H   0  0  0  0  0  0  0  0  0  0  0  0
   -2.5743    1.2073   -0.0419 H   0  0  0  0  0  0  0  0  0  0  0  0
  1  2  1  0
  2  3  2  0
  3  4  1  0
  4  5  1  0
  5  6  2  0
  3  7  1  0
  7  8  1  0
  8  9  1  0
  9  2  1  0
  1 10  1  0
  1 11  1  0
  1 12  1  0
  4 13  1  0
  4 14  1  0
  5 15  1  0
  7 16  1  0
  7 17  1  0
  9 18  1  0
  9 19  1  0
M  END
