
     RDKit          3D

 19 21  0  0  0  0  0  0  0  0999 V2000
    1.8759   -0.8055   -0.4332 C   0  0  0  0  0  0  0  0  0  0  0  0
    0.8582    0.1570   -0.0098 C   0  0  0  0  0  0  0  0  0  0  0  0
    0.8756    1.4799    0.0253 C   0  0  0  0  0  0  0  0  0  0  0  0
   -0.3942    1.9642    0.5263 C   0  0  0  0  0  0  0  0  0  0  0  0
   -0.9842    2.0664    1.6803 O   0  0  0  0  0  0  0  0  0  0  0  0
   -0.5520    0.8326    1.5977 C   0  0  0  0  0  0  0  0  0  0  0  0
   -0.4835   -0.2044    0.5406 C   0  0  0  0  0  0  0  0  0  0  0  0
   -1.6472   -0.4857   -0.2804 C   0  0  0  0  0  0  0  0  0  0  0  0
   -0.9529   -1.5509    0.5658 C   0  0  0  0  0  0  0  0  0  0  0  0
    1.6933   -1.0520   -1.5015 H   0  0  0  0  0  0  0  0  0  0  0  0
    1.8936   -1.7440    0.1517 H   0  0  0  0  0  0  0  0  0  0  0  0
    2.9240   -0.3921   -0.3636 H   0  0  0  0  0  0  0  0  0  0  0  0
    1.7484    2.0492   -0.2906 H   0  0  0  0  0  0  0  0  0  0  0  0
   -1.1668    1.9303   -0.3144 H   0  0  0  0  0  0  0  0  0  0  0  0
    0.3634    0.7084    2.2679 H   0  0  0  0  0  0  0  0  0  0  0  0
   -1.5139   -0.5015   -1.3746 H   0  0  0  0  0  0  0  0  0  0  0  0
   -2.6428   -0.2034    0.1277 H   0  0  0  0  0  0  0  0  0  0  0  0
   -1.4648   -1.9378    1.4628 H   0  0  0  0  0  0  0  0  0  0  0  0
   -0.4301   -2.3107   -0.0588 H   0  0  0  0  0  0  0  0  0  0  0  0
  1  2  1  0
  2  3  2  0
  3  4  1  0
  4  5  1  0
  5  6  1  0
  6  7  1  0
  7  8  1  0
  8  9  1  0
  7  2  1  0
  6  4  1  0
  9  7  1  0
  1 10  1  0
  1 11  1  0
  1 12  1  0
  3 13  1  0
  4 14  1  0
  6 15  1  0
  8 16  1  0
  8 17  1  0
  9 18  1  0
  9 19  1  0
M  END
