
     RDKit          3D

 21 22  0  0  0  0  0  0  0  0999 V2000
    2.7478    0.5956    0.3251 C   0  0  0  0  0  0  0  0  0  0  0  0
    1.3891    0.1018    0.0325 C   0  0  0  0  0  0  0  0  0  0  0  0
    0.6952    0.3583   -1.0718 C   0  0  0  0  0  0  0  0  0  0  0  0
   -0.5731   -0.3919   -1.0092 C   0  0  0  0  0  0  0  0  0  0  0  0
   -0.0713   -1.6402   -0.2499 C   0  0  0  0  0  0  0  0  0  0  0  0
    0.5038   -0.7776    0.8885 C   0  0  0  0  0  0  0  0  0  0  0  0
   -0.6772    0.0314    1.2207 C   0  0  0  0  0  0  0  0  0  0  0  0
   -1.3771    0.2243    0.0799 C   0  0  0  0  0  0  0  0  0  0  0  0
   -2.6677    0.8922   -0.1255 C   0  0  0  0  0  0  0  0  0  0  0  0
    3.5487    0.0602   -0.2070 H   0  0  0  0  0  0  0  0  0  0  0  0
    2.9317    0.5394    1.4209 H   0  0  0  0  0  0  0  0  0  0  0  0
    2.8123    1.6687    0.0593 H   0  0  0  0  0  0  0  0  0  0  0  0
    0.9820    0.9962   -1.8852 H   0  0  0  0  0  0  0  0  0  0  0  0
   -1.0724   -0.6041   -1.9172 H   0  0  0  0  0  0  0  0  0  0  0  0
    0.7069   -2.1632   -0.7995 H   0  0  0  0  0  0  0  0  0  0  0  0
   -0.9267   -2.2248    0.0691 H   0  0  0  0  0  0  0  0  0  0  0  0
    0.9942   -1.3102    1.6528 H   0  0  0  0  0  0  0  0  0  0  0  0
   -0.9811    0.4272    2.1829 H   0  0  0  0  0  0  0  0  0  0  0  0
   -3.3828    0.1831   -0.5902 H   0  0  0  0  0  0  0  0  0  0  0  0
   -2.5090    1.7063   -0.8915 H   0  0  0  0  0  0  0  0  0  0  0  0
   -3.0734    1.3273    0.8151 H   0  0  0  0  0  0  0  0  0  0  0  0
  1  2  1  0
  2  3  2  0
  3  4  1  0
  4  5  1  0
  5  6  1  0
  6  7  1  0
  7  8  2  0
  8  9  1  0
  6  2  1  0
  8  4  1  0
  1 10  1  0
  1 11  1  0
  1 12  1  0
  3 13  1  0
  4 14  1  0
  5 15  1  0
  5 16  1  0
  6 17  1  0
  7 18  1  0
  9 19  1  0
  9 20  1  0
  9 21  1  0
M  END
