
     RDKit          3D

 23 24  0  0  0  0  0  0  0  0999 V2000
    2.7371   -0.1567    0.5832 C   0  0  0  0  0  0  0  0  0  0  0  0
    1.3405    0.1445    0.0960 C   0  0  0  0  0  0  0  0  0  0  0  0
    1.0844    1.1864   -0.6679 C   0  0  0  0  0  0  0  0  0  0  0  0
   -0.3653    1.1997   -0.9698 C   0  0  0  0  0  0  0  0  0  0  0  0
   -0.9868    0.2480    0.0019 C   0  0  0  0  0  0  0  0  0  0  0  0
   -1.7019    0.8409    1.1734 C   0  0  0  0  0  0  0  0  0  0  0  0
   -1.6815   -0.9447   -0.6265 C   0  0  0  0  0  0  0  0  0  0  0  0
   -0.3214   -1.6424   -0.6256 C   0  0  0  0  0  0  0  0  0  0  0  0
    0.1600   -0.6556    0.4111 C   0  0  0  0  0  0  0  0  0  0  0  0
    2.8820   -1.2278    0.7404 H   0  0  0  0  0  0  0  0  0  0  0  0
    3.4808    0.1789   -0.1858 H   0  0  0  0  0  0  0  0  0  0  0  0
    2.9247    0.4042    1.5213 H   0  0  0  0  0  0  0  0  0  0  0  0
    1.8312    1.9364   -1.0295 H   0  0  0  0  0  0  0  0  0  0  0  0
   -0.8026    2.2176   -0.9255 H   0  0  0  0  0  0  0  0  0  0  0  0
   -0.4785    0.7517   -1.9954 H   0  0  0  0  0  0  0  0  0  0  0  0
   -1.1492    1.7622    1.4719 H   0  0  0  0  0  0  0  0  0  0  0  0
   -2.7727    1.0395    0.9888 H   0  0  0  0  0  0  0  0  0  0  0  0
   -1.6406    0.0905    2.0084 H   0  0  0  0  0  0  0  0  0  0  0  0
   -2.4371   -1.4283    0.0139 H   0  0  0  0  0  0  0  0  0  0  0  0
   -2.0348   -0.6847   -1.6498 H   0  0  0  0  0  0  0  0  0  0  0  0
    0.2007   -1.5989   -1.6027 H   0  0  0  0  0  0  0  0  0  0  0  0
   -0.4103   -2.6569   -0.1853 H   0  0  0  0  0  0  0  0  0  0  0  0
    0.1413   -1.0046    1.4534 H   0  0  0  0  0  0  0  0  0  0  0  0
  1  2  1  0
  2  3  2  0
  3  4  1  0
  4  5  1  0
  5  6  1  0
  5  7  1  0
  7  8  1  0
  8  9  1  0
  9  2  1  0
  9  5  1  0
  1 10  1  0
  1 11  1  0
  1 12  1  0
  3 13  1  0
  4 14  1  0
  4 15  1  0
  6 16  1  0
  6 17  1  0
  6 18  1  0
  7 19  1  0
  7 20  1  0
  8 21  1  0
  8 22  1  0
  9 23  1  0
M  END
