
     RDKit          3D

 19 21  0  0  0  0  0  0  0  0999 V2000
   -2.5770    0.3044    0.4347 C   0  0  0  0  0  0  0  0  0  0  0  0
   -1.1191    0.3843    0.1771 C   0  0  0  0  0  0  0  0  0  0  0  0
   -0.3097    1.4061    0.4155 C   0  0  0  0  0  0  0  0  0  0  0  0
    1.0762    1.0591    0.0057 C   0  0  0  0  0  0  0  0  0  0  0  0
    0.8710   -0.0387   -0.9398 C   0  0  0  0  0  0  0  0  0  0  0  0
   -0.3328   -0.7526   -0.4221 C   0  0  0  0  0  0  0  0  0  0  0  0
    0.5946   -1.4283    0.5839 C   0  0  0  0  0  0  0  0  0  0  0  0
    1.5627   -0.2963    0.4171 C   0  0  0  0  0  0  0  0  0  0  0  0
    2.9255   -0.5140    0.3887 O   0  0  0  0  0  0  0  0  0  0  0  0
   -3.0511    1.3199    0.3045 H   0  0  0  0  0  0  0  0  0  0  0  0
   -2.8225   -0.0001    1.4658 H   0  0  0  0  0  0  0  0  0  0  0  0
   -3.1084   -0.3495   -0.2933 H   0  0  0  0  0  0  0  0  0  0  0  0
   -0.5987    2.3530    0.8421 H   0  0  0  0  0  0  0  0  0  0  0  0
    1.8046    1.8166   -0.2454 H   0  0  0  0  0  0  0  0  0  0  0  0
    1.3988   -0.2618   -1.8349 H   0  0  0  0  0  0  0  0  0  0  0  0
   -0.8741   -1.4058   -1.0962 H   0  0  0  0  0  0  0  0  0  0  0  0
    1.0020   -2.3525    0.0923 H   0  0  0  0  0  0  0  0  0  0  0  0
    0.1698   -1.5785    1.5802 H   0  0  0  0  0  0  0  0  0  0  0  0
    3.3882    0.3349    0.6644 H   0  0  0  0  0  0  0  0  0  0  0  0
  1  2  1  0
  2  3  2  0
  3  4  1  0
  4  5  1  0
  5  6  1  0
  6  7  1  0
  7  8  1  0
  8  9  1  0
  6  2  1  0
  8  4  1  0
  8  5  1  0
  1 10  1  0
  1 11  1  0
  1 12  1  0
  3 13  1  0
  4 14  1  0
  5 15  1  0
  6 16  1  0
  7 17  1  0
  7 18  1  0
  9 19  1  0
M  END
