
     RDKit          3D

 19 19  0  0  0  0  0  0  0  0999 V2000
    2.1858   -0.4444    0.2664 C   0  0  0  0  0  0  0  0  0  0  0  0
    0.7082   -0.4886    0.0521 C   0  0  0  0  0  0  0  0  0  0  0  0
   -0.1144    0.5623   -0.0064 C   0  0  0  0  0  0  0  0  0  0  0  0
    0.3093    1.9704    0.1331 C   0  0  0  0  0  0  0  0  0  0  0  0
   -1.5008    0.0840   -0.2246 C   0  0  0  0  0  0  0  0  0  0  0  0
   -2.1485   -0.1479    1.0033 O   0  0  0  0  0  0  0  0  0  0  0  0
   -1.2675   -1.2559   -0.8828 C   0  0  0  0  0  0  0  0  0  0  0  0
   -0.0659   -1.7134   -0.1324 C   0  0  0  0  0  0  0  0  0  0  0  0
    0.2468   -2.8608    0.2652 O   0  0  0  0  0  0  0  0  0  0  0  0
    2.4943    0.6390    0.3480 H   0  0  0  0  0  0  0  0  0  0  0  0
    2.7576   -0.8495   -0.5766 H   0  0  0  0  0  0  0  0  0  0  0  0
    2.5002   -0.9624    1.1803 H   0  0  0  0  0  0  0  0  0  0  0  0
    0.7238    2.3840   -0.7949 H   0  0  0  0  0  0  0  0  0  0  0  0
    1.0114    2.0792    0.9955 H   0  0  0  0  0  0  0  0  0  0  0  0
   -0.5903    2.5806    0.4195 H   0  0  0  0  0  0  0  0  0  0  0  0
   -2.0766    0.7823   -0.8579 H   0  0  0  0  0  0  0  0  0  0  0  0
   -2.0870    0.6862    1.5260 H   0  0  0  0  0  0  0  0  0  0  0  0
   -2.1187   -1.9438   -0.7675 H   0  0  0  0  0  0  0  0  0  0  0  0
   -0.9676   -1.1012   -1.9464 H   0  0  0  0  0  0  0  0  0  0  0  0
  1  2  1  0
  2  3  2  0
  3  4  1  0
  3  5  1  0
  5  6  1  0
  5  7  1  0
  7  8  1  0
  8  9  2  0
  8  2  1  0
  1 10  1  0
  1 11  1  0
  1 12  1  0
  4 13  1  0
  4 14  1  0
  4 15  1  0
  5 16  1  0
  6 17  1  0
  7 18  1  0
  7 19  1  0
M  END
