
     RDKit          3D

 18 19  0  0  0  0  0  0  0  0999 V2000
    2.3894    0.3415   -0.2488 C   0  0  0  0  0  0  0  0  0  0  0  0
    0.9151    0.1810   -0.1284 C   0  0  0  0  0  0  0  0  0  0  0  0
   -0.0553    1.0729   -0.3537 C   0  0  0  0  0  0  0  0  0  0  0  0
   -1.2824    0.3382   -0.0180 C   0  0  0  0  0  0  0  0  0  0  0  0
   -2.4774    0.8712   -0.0713 O   0  0  0  0  0  0  0  0  0  0  0  0
   -0.8393   -0.4145    1.2451 C   0  0  0  0  0  0  0  0  0  0  0  0
    0.1501   -1.0313    0.2788 C   0  0  0  0  0  0  0  0  0  0  0  0
   -1.0148   -1.0020   -0.7190 C   0  0  0  0  0  0  0  0  0  0  0  0
    2.9084   -0.2500    0.5604 H   0  0  0  0  0  0  0  0  0  0  0  0
    2.7019    1.3998   -0.0668 H   0  0  0  0  0  0  0  0  0  0  0  0
    2.7643    0.0108   -1.2499 H   0  0  0  0  0  0  0  0  0  0  0  0
    0.0357    2.0941   -0.7007 H   0  0  0  0  0  0  0  0  0  0  0  0
   -2.4599    1.8213   -0.3573 H   0  0  0  0  0  0  0  0  0  0  0  0
   -1.5688   -1.1060    1.6516 H   0  0  0  0  0  0  0  0  0  0  0  0
   -0.2832    0.2211    1.9684 H   0  0  0  0  0  0  0  0  0  0  0  0
    0.6245   -1.9329    0.4902 H   0  0  0  0  0  0  0  0  0  0  0  0
   -0.7054   -0.8772   -1.7564 H   0  0  0  0  0  0  0  0  0  0  0  0
   -1.8027   -1.7379   -0.5241 H   0  0  0  0  0  0  0  0  0  0  0  0
  1  2  1  0
  2  3  2  0
  3  4  1  0
  4  5  1  0
  4  6  1  0
  6  7  1  0
  7  8  1  0
  7  2  1  0
  8  4  1  0
  1  9  1  0
  1 10  1  0
  1 11  1  0
  3 12  1  0
  5 13  1  0
  6 14  1  0
  6 15  1  0
  7 16  1  0
  8 17  1  0
  8 18  1  0
M  END
