
     RDKit          3D

 19 19  0  0  0  0  0  0  0  0999 V2000
    2.4342    0.2674   -0.2908 C   0  0  0  0  0  0  0  0  0  0  0  0
    0.9740    0.1188   -0.1261 C   0  0  0  0  0  0  0  0  0  0  0  0
    0.0542    0.7455   -0.8263 C   0  0  0  0  0  0  0  0  0  0  0  0
   -1.2774    0.3134   -0.3442 C   0  0  0  0  0  0  0  0  0  0  0  0
   -1.7171    1.2836    0.6736 C   0  0  0  0  0  0  0  0  0  0  0  0
   -1.6202    2.4749    0.4462 O   0  0  0  0  0  0  0  0  0  0  0  0
   -0.9863   -1.0437    0.2233 C   0  0  0  0  0  0  0  0  0  0  0  0
   -0.7559   -1.9206   -0.8344 O   0  0  0  0  0  0  0  0  0  0  0  0
    0.3565   -0.7903    0.8808 C   0  0  0  0  0  0  0  0  0  0  0  0
    2.7908    0.8805    0.5820 H   0  0  0  0  0  0  0  0  0  0  0  0
    2.7106    0.8528   -1.1904 H   0  0  0  0  0  0  0  0  0  0  0  0
    2.9703   -0.6906   -0.2236 H   0  0  0  0  0  0  0  0  0  0  0  0
    0.1977    1.4610   -1.6253 H   0  0  0  0  0  0  0  0  0  0  0  0
   -2.0329    0.2852   -1.1558 H   0  0  0  0  0  0  0  0  0  0  0  0
   -2.1278    0.9826    1.6269 H   0  0  0  0  0  0  0  0  0  0  0  0
   -1.7525   -1.3976    0.9232 H   0  0  0  0  0  0  0  0  0  0  0  0
   -1.4210   -1.7216   -1.5540 H   0  0  0  0  0  0  0  0  0  0  0  0
    0.9216   -1.7422    0.9378 H   0  0  0  0  0  0  0  0  0  0  0  0
    0.2811   -0.3591    1.8772 H   0  0  0  0  0  0  0  0  0  0  0  0
  1  2  1  0
  2  3  2  0
  3  4  1  0
  4  5  1  0
  5  6  2  0
  4  7  1  0
  7  8  1  0
  7  9  1  0
  9  2  1  0
  1 10  1  0
  1 11  1  0
  1 12  1  0
  3 13  1  0
  4 14  1  0
  5 15  1  0
  7 16  1  0
  8 17  1  0
  9 18  1  0
  9 19  1  0
M  END
