
     RDKit          3D

 17 18  0  0  0  0  0  0  0  0999 V2000
    1.9711   -0.9919   -0.0672 C   0  0  0  0  0  0  0  0  0  0  0  0
    0.8067   -0.0632    0.0519 C   0  0  0  0  0  0  0  0  0  0  0  0
    0.8840    1.2549    0.1761 C   0  0  0  0  0  0  0  0  0  0  0  0
   -0.5215    1.7100    0.2428 C   0  0  0  0  0  0  0  0  0  0  0  0
   -0.9853    2.6388    0.9147 O   0  0  0  0  0  0  0  0  0  0  0  0
   -1.1510    0.7681   -0.6847 C   0  0  0  0  0  0  0  0  0  0  0  0
   -1.7107   -0.5186   -0.6497 C   0  0  0  0  0  0  0  0  0  0  0  0
   -0.5802   -0.4147    0.1532 C   0  0  0  0  0  0  0  0  0  0  0  0
   -0.9205   -0.3488    1.5560 O   0  0  0  0  0  0  0  0  0  0  0  0
    2.9047   -0.5417    0.2991 H   0  0  0  0  0  0  0  0  0  0  0  0
    2.1312   -1.3306   -1.1105 H   0  0  0  0  0  0  0  0  0  0  0  0
    1.6883   -1.8997    0.5077 H   0  0  0  0  0  0  0  0  0  0  0  0
    1.8070    1.8638    0.2377 H   0  0  0  0  0  0  0  0  0  0  0  0
   -0.6979    0.9760   -1.7046 H   0  0  0  0  0  0  0  0  0  0  0  0
   -2.7310   -0.6474   -0.2242 H   0  0  0  0  0  0  0  0  0  0  0  0
   -1.6316   -1.2228   -1.5329 H   0  0  0  0  0  0  0  0  0  0  0  0
   -1.2634   -1.2323    1.8347 H   0  0  0  0  0  0  0  0  0  0  0  0
  1  2  1  0
  2  3  2  0
  3  4  1  0
  4  5  2  0
  4  6  1  0
  6  7  1  0
  7  8  1  0
  8  9  1  0
  8  2  1  0
  8  6  1  0
  1 10  1  0
  1 11  1  0
  1 12  1  0
  3 13  1  0
  6 14  1  0
  7 15  1  0
  7 16  1  0
  9 17  1  0
M  END
