
     RDKit          3D

 21 22  0  0  0  0  0  0  0  0999 V2000
    3.1499    0.0795    0.2562 C   0  0  0  0  0  0  0  0  0  0  0  0
    1.6972   -0.3101    0.4269 C   0  0  0  0  0  0  0  0  0  0  0  0
    0.6526    0.3201   -0.0892 C   0  0  0  0  0  0  0  0  0  0  0  0
   -0.5460   -0.4606    0.3752 C   0  0  0  0  0  0  0  0  0  0  0  0
   -1.6728    0.4987    0.5850 C   0  0  0  0  0  0  0  0  0  0  0  0
   -2.0505    1.2590   -0.6941 C   0  0  0  0  0  0  0  0  0  0  0  0
   -2.9963    0.2968   -0.0476 C   0  0  0  0  0  0  0  0  0  0  0  0
   -0.1038   -1.0471    1.5624 O   0  0  0  0  0  0  0  0  0  0  0  0
    1.1658   -1.4615    1.1857 C   0  0  0  0  0  0  0  0  0  0  0  0
    3.5548    0.5171    1.1907 H   0  0  0  0  0  0  0  0  0  0  0  0
    3.6737   -0.8513   -0.0505 H   0  0  0  0  0  0  0  0  0  0  0  0
    3.2016    0.7705   -0.6094 H   0  0  0  0  0  0  0  0  0  0  0  0
    0.6562    1.2008   -0.7079 H   0  0  0  0  0  0  0  0  0  0  0  0
   -0.8135   -1.2376   -0.3356 H   0  0  0  0  0  0  0  0  0  0  0  0
   -1.5657    1.1248    1.5130 H   0  0  0  0  0  0  0  0  0  0  0  0
   -2.2409    2.3471   -0.6008 H   0  0  0  0  0  0  0  0  0  0  0  0
   -1.6277    0.9442   -1.6459 H   0  0  0  0  0  0  0  0  0  0  0  0
   -3.8716    0.7525    0.4917 H   0  0  0  0  0  0  0  0  0  0  0  0
   -3.1945   -0.6774   -0.5404 H   0  0  0  0  0  0  0  0  0  0  0  0
    1.7984   -1.7399    2.0516 H   0  0  0  0  0  0  0  0  0  0  0  0
    1.1331   -2.3257    0.4817 H   0  0  0  0  0  0  0  0  0  0  0  0
  1  2  1  0
  2  3  2  0
  3  4  1  0
  4  5  1  0
  5  6  1  0
  6  7  1  0
  4  8  1  0
  8  9  1  0
  9  2  1  0
  7  5  1  0
  1 10  1  0
  1 11  1  0
  1 12  1  0
  3 13  1  0
  4 14  1  0
  5 15  1  0
  6 16  1  0
  6 17  1  0
  7 18  1  0
  7 19  1  0
  9 20  1  0
  9 21  1  0
M  END
