
     RDKit          3D

 21 22  0  0  0  0  0  0  0  0999 V2000
    2.6388   -0.9701   -0.6071 C   0  0  0  0  0  0  0  0  0  0  0  0
    1.3109   -0.3989   -0.2203 C   0  0  0  0  0  0  0  0  0  0  0  0
    0.1920   -0.6898   -0.8657 C   0  0  0  0  0  0  0  0  0  0  0  0
   -0.9062    0.0332   -0.2284 C   0  0  0  0  0  0  0  0  0  0  0  0
   -2.2915    0.0157   -0.7111 C   0  0  0  0  0  0  0  0  0  0  0  0
   -1.8970   -0.8177    0.4847 C   0  0  0  0  0  0  0  0  0  0  0  0
   -0.2654    1.2084    0.4057 C   0  0  0  0  0  0  0  0  0  0  0  0
   -0.9807    1.7807    1.4348 O   0  0  0  0  0  0  0  0  0  0  0  0
    1.0393    0.5664    0.9096 C   0  0  0  0  0  0  0  0  0  0  0  0
    3.4743   -0.4864   -0.0811 H   0  0  0  0  0  0  0  0  0  0  0  0
    2.7576   -0.9310   -1.7177 H   0  0  0  0  0  0  0  0  0  0  0  0
    2.5972   -2.0642   -0.3465 H   0  0  0  0  0  0  0  0  0  0  0  0
    0.1096   -1.3681   -1.7408 H   0  0  0  0  0  0  0  0  0  0  0  0
   -2.4618   -0.4889   -1.6860 H   0  0  0  0  0  0  0  0  0  0  0  0
   -2.8884    0.9229   -0.5408 H   0  0  0  0  0  0  0  0  0  0  0  0
   -1.9067   -1.9166    0.3338 H   0  0  0  0  0  0  0  0  0  0  0  0
   -2.2728   -0.5164    1.4953 H   0  0  0  0  0  0  0  0  0  0  0  0
    0.0020    1.9478   -0.3794 H   0  0  0  0  0  0  0  0  0  0  0  0
   -0.9913    2.7696    1.2898 H   0  0  0  0  0  0  0  0  0  0  0  0
    1.8325    1.3410    0.9057 H   0  0  0  0  0  0  0  0  0  0  0  0
    0.9077    0.0622    1.8654 H   0  0  0  0  0  0  0  0  0  0  0  0
  1  2  1  0
  2  3  2  0
  3  4  1  0
  4  5  1  0
  5  6  1  0
  4  7  1  0
  7  8  1  0
  7  9  1  0
  9  2  1  0
  6  4  1  0
  1 10  1  0
  1 11  1  0
  1 12  1  0
  3 13  1  0
  5 14  1  0
  5 15  1  0
  6 16  1  0
  6 17  1  0
  7 18  1  0
  8 19  1  0
  9 20  1  0
  9 21  1  0
M  END
