
     RDKit          3D

 23 23  0  0  0  0  0  0  0  0999 V2000
    2.8266   -0.3562   -0.3756 C   0  0  0  0  0  0  0  0  0  0  0  0
    1.3716   -0.1414   -0.1556 C   0  0  0  0  0  0  0  0  0  0  0  0
    0.5917   -1.1951    0.0834 C   0  0  0  0  0  0  0  0  0  0  0  0
   -0.8257   -1.3868    0.3391 C   0  0  0  0  0  0  0  0  0  0  0  0
   -1.7755   -0.3997   -0.1693 C   0  0  0  0  0  0  0  0  0  0  0  0
   -2.9933   -0.5874    0.5374 O   0  0  0  0  0  0  0  0  0  0  0  0
   -1.4528    1.0232   -0.1359 C   0  0  0  0  0  0  0  0  0  0  0  0
   -0.2696    1.4393    0.6816 C   0  0  0  0  0  0  0  0  0  0  0  0
    0.9538    1.2759   -0.2319 C   0  0  0  0  0  0  0  0  0  0  0  0
    2.9914   -0.5289   -1.4714 H   0  0  0  0  0  0  0  0  0  0  0  0
    3.4272    0.4987    0.0046 H   0  0  0  0  0  0  0  0  0  0  0  0
    3.2059   -1.2599    0.1367 H   0  0  0  0  0  0  0  0  0  0  0  0
    1.1746   -2.1127    0.0833 H   0  0  0  0  0  0  0  0  0  0  0  0
   -0.9616   -1.5413    1.4500 H   0  0  0  0  0  0  0  0  0  0  0  0
   -1.1045   -2.3892   -0.0976 H   0  0  0  0  0  0  0  0  0  0  0  0
   -2.0506   -0.6853   -1.2294 H   0  0  0  0  0  0  0  0  0  0  0  0
   -3.3925   -1.4593    0.2681 H   0  0  0  0  0  0  0  0  0  0  0  0
   -2.3198    1.6545    0.2243 H   0  0  0  0  0  0  0  0  0  0  0  0
   -1.2682    1.4243   -1.1779 H   0  0  0  0  0  0  0  0  0  0  0  0
   -0.1786    0.7725    1.5672 H   0  0  0  0  0  0  0  0  0  0  0  0
   -0.3313    2.5042    0.9652 H   0  0  0  0  0  0  0  0  0  0  0  0
    1.7430    1.9930    0.0037 H   0  0  0  0  0  0  0  0  0  0  0  0
    0.6384    1.4576   -1.2999 H   0  0  0  0  0  0  0  0  0  0  0  0
  1  2  1  0
  2  3  2  0
  3  4  1  0
  4  5  1  0
  5  6  1  0
  5  7  1  0
  7  8  1  0
  8  9  1  0
  9  2  1  0
  1 10  1  0
  1 11  1  0
  1 12  1  0
  3 13  1  0
  4 14  1  0
  4 15  1  0
  5 16  1  0
  6 17  1  0
  7 18  1  0
  7 19  1  0
  8 20  1  0
  8 21  1  0
  9 22  1  0
  9 23  1  0
M  END
