
     RDKit          3D

 21 23  0  0  0  0  0  0  0  0999 V2000
   -2.4431   -0.8252   -0.5682 C   0  0  0  0  0  0  0  0  0  0  0  0
   -1.1374   -0.4569    0.0145 C   0  0  0  0  0  0  0  0  0  0  0  0
   -0.1149   -1.3432    0.1410 C   0  0  0  0  0  0  0  0  0  0  0  0
    1.1823   -0.9455    0.7300 C   0  0  0  0  0  0  0  0  0  0  0  0
    2.3252   -0.7161   -0.1661 C   0  0  0  0  0  0  0  0  0  0  0  0
    1.6081    0.4925    0.3623 C   0  0  0  0  0  0  0  0  0  0  0  0
    0.5274    1.1084   -0.3886 C   0  0  0  0  0  0  0  0  0  0  0  0
   -0.4479    2.0916   -0.0807 C   0  0  0  0  0  0  0  0  0  0  0  0
   -0.7317    0.8548    0.5220 C   0  0  0  0  0  0  0  0  0  0  0  0
   -3.2355   -0.2669    0.0100 H   0  0  0  0  0  0  0  0  0  0  0  0
   -2.4921   -0.5462   -1.6574 H   0  0  0  0  0  0  0  0  0  0  0  0
   -2.6303   -1.9244   -0.4283 H   0  0  0  0  0  0  0  0  0  0  0  0
   -0.2577   -2.3782   -0.2030 H   0  0  0  0  0  0  0  0  0  0  0  0
    1.4431   -1.2866    1.7550 H   0  0  0  0  0  0  0  0  0  0  0  0
    2.1876   -0.8742   -1.2595 H   0  0  0  0  0  0  0  0  0  0  0  0
    3.3483   -0.9368    0.1772 H   0  0  0  0  0  0  0  0  0  0  0  0
    2.1769    1.0257    1.1603 H   0  0  0  0  0  0  0  0  0  0  0  0
    0.4715    0.7155   -1.4444 H   0  0  0  0  0  0  0  0  0  0  0  0
   -0.1336    2.9517    0.5691 H   0  0  0  0  0  0  0  0  0  0  0  0
   -1.1235    2.4822   -0.8783 H   0  0  0  0  0  0  0  0  0  0  0  0
   -0.5227    0.7778    1.6329 H   0  0  0  0  0  0  0  0  0  0  0  0
  1  2  1  0
  2  3  2  0
  3  4  1  0
  4  5  1  0
  5  6  1  0
  6  7  1  0
  7  8  1  0
  8  9  1  0
  9  2  1  0
  6  4  1  0
  9  7  1  0
  1 10  1  0
  1 11  1  0
  1 12  1  0
  3 13  1  0
  4 14  1  0
  5 15  1  0
  5 16  1  0
  6 17  1  0
  7 18  1  0
  8 19  1  0
  8 20  1  0
  9 21  1  0
M  END
