
     RDKit          3D

 19 19  0  0  0  0  0  0  0  0999 V2000
    2.5396   -0.0049    0.2313 C   0  0  0  0  0  0  0  0  0  0  0  0
    1.0661    0.1366    0.1141 C   0  0  0  0  0  0  0  0  0  0  0  0
    0.5627    1.3622   -0.0259 C   0  0  0  0  0  0  0  0  0  0  0  0
   -0.8794    1.5427   -0.1442 C   0  0  0  0  0  0  0  0  0  0  0  0
   -1.4009    2.5687   -0.6529 O   0  0  0  0  0  0  0  0  0  0  0  0
   -1.7349    0.4419    0.3713 C   0  0  0  0  0  0  0  0  0  0  0  0
   -1.1951   -0.8567   -0.1787 C   0  0  0  0  0  0  0  0  0  0  0  0
   -1.4708   -0.9094   -1.5438 O   0  0  0  0  0  0  0  0  0  0  0  0
    0.2376   -1.0718    0.1574 C   0  0  0  0  0  0  0  0  0  0  0  0
    2.7179   -0.4968    1.2286 H   0  0  0  0  0  0  0  0  0  0  0  0
    2.8983   -0.7141   -0.5240 H   0  0  0  0  0  0  0  0  0  0  0  0
    3.0684    0.9607    0.2008 H   0  0  0  0  0  0  0  0  0  0  0  0
    1.1992    2.2349   -0.0547 H   0  0  0  0  0  0  0  0  0  0  0  0
   -2.7884    0.5598    0.0969 H   0  0  0  0  0  0  0  0  0  0  0  0
   -1.6183    0.4451    1.4875 H   0  0  0  0  0  0  0  0  0  0  0  0
   -1.7773   -1.7053    0.2785 H   0  0  0  0  0  0  0  0  0  0  0  0
   -2.4363   -1.1355   -1.6827 H   0  0  0  0  0  0  0  0  0  0  0  0
    0.3346   -1.5191    1.1747 H   0  0  0  0  0  0  0  0  0  0  0  0
    0.6770   -1.8388   -0.5342 H   0  0  0  0  0  0  0  0  0  0  0  0
  1  2  1  0
  2  3  2  0
  3  4  1  0
  4  5  2  0
  4  6  1  0
  6  7  1  0
  7  8  1  0
  7  9  1  0
  9  2  1  0
  1 10  1  0
  1 11  1  0
  1 12  1  0
  3 13  1  0
  6 14  1  0
  6 15  1  0
  7 16  1  0
  8 17  1  0
  9 18  1  0
  9 19  1  0
M  END
