
     RDKit          3D

 17 17  0  0  0  0  0  0  0  0999 V2000
    2.1308   -0.1885    0.1131 C   0  0  0  0  0  0  0  0  0  0  0  0
    0.6729   -0.3983    0.0328 C   0  0  0  0  0  0  0  0  0  0  0  0
   -0.0089   -1.4602    0.3789 C   0  0  0  0  0  0  0  0  0  0  0  0
   -1.4328   -1.2839    0.1487 C   0  0  0  0  0  0  0  0  0  0  0  0
   -2.3769   -2.0289    0.5191 O   0  0  0  0  0  0  0  0  0  0  0  0
   -1.6095   -0.0303   -0.6273 C   0  0  0  0  0  0  0  0  0  0  0  0
   -0.2819    0.6330   -0.4850 C   0  0  0  0  0  0  0  0  0  0  0  0
   -0.2818    1.7760    0.4596 C   0  0  0  0  0  0  0  0  0  0  0  0
   -0.0826    2.9013    0.0357 O   0  0  0  0  0  0  0  0  0  0  0  0
    2.6143   -1.0805   -0.3390 H   0  0  0  0  0  0  0  0  0  0  0  0
    2.4477    0.7379   -0.3648 H   0  0  0  0  0  0  0  0  0  0  0  0
    2.3915   -0.0842    1.2051 H   0  0  0  0  0  0  0  0  0  0  0  0
    0.4058   -2.3720    0.7885 H   0  0  0  0  0  0  0  0  0  0  0  0
   -1.7732   -0.2958   -1.6836 H   0  0  0  0  0  0  0  0  0  0  0  0
   -2.4617    0.5884   -0.2346 H   0  0  0  0  0  0  0  0  0  0  0  0
    0.1001    0.9460   -1.4643 H   0  0  0  0  0  0  0  0  0  0  0  0
   -0.4539    1.6399    1.5169 H   0  0  0  0  0  0  0  0  0  0  0  0
  1  2  1  0
  2  3  2  0
  3  4  1  0
  4  5  2  0
  4  6  1  0
  6  7  1  0
  7  8  1  0
  8  9  2  0
  7  2  1  0
  1 10  1  0
  1 11  1  0
  1 12  1  0
  3 13  1  0
  6 14  1  0
  6 15  1  0
  7 16  1  0
  8 17  1  0
M  END
