
     RDKit          3D

 19 19  0  0  0  0  0  0  0  0999 V2000
    2.6225   -0.5698   -0.1585 C   0  0  0  0  0  0  0  0  0  0  0  0
    1.2899    0.1007   -0.0862 C   0  0  0  0  0  0  0  0  0  0  0  0
    0.2370   -0.5717   -0.5024 C   0  0  0  0  0  0  0  0  0  0  0  0
   -1.1081    0.0034   -0.4696 C   0  0  0  0  0  0  0  0  0  0  0  0
   -2.1357   -1.0457   -0.0213 C   0  0  0  0  0  0  0  0  0  0  0  0
   -1.2514    1.1646    0.4689 C   0  0  0  0  0  0  0  0  0  0  0  0
   -0.1043    2.0004    0.4647 O   0  0  0  0  0  0  0  0  0  0  0  0
    1.1624    1.4477    0.4276 C   0  0  0  0  0  0  0  0  0  0  0  0
    2.1731    2.1150    0.8356 O   0  0  0  0  0  0  0  0  0  0  0  0
    3.2603   -0.3028    0.7231 H   0  0  0  0  0  0  0  0  0  0  0  0
    3.0970   -0.2838   -1.1130 H   0  0  0  0  0  0  0  0  0  0  0  0
    2.4925   -1.6757   -0.1974 H   0  0  0  0  0  0  0  0  0  0  0  0
    0.3735   -1.6018   -0.8876 H   0  0  0  0  0  0  0  0  0  0  0  0
   -1.3985    0.2638   -1.5176 H   0  0  0  0  0  0  0  0  0  0  0  0
   -1.9474   -1.1824    1.0674 H   0  0  0  0  0  0  0  0  0  0  0  0
   -2.0479   -1.9681   -0.5936 H   0  0  0  0  0  0  0  0  0  0  0  0
   -3.1360   -0.5613   -0.1138 H   0  0  0  0  0  0  0  0  0  0  0  0
   -2.1076    1.8151    0.1632 H   0  0  0  0  0  0  0  0  0  0  0  0
   -1.4714    0.8524    1.5104 H   0  0  0  0  0  0  0  0  0  0  0  0
  1  2  1  0
  2  3  2  0
  3  4  1  0
  4  5  1  0
  4  6  1  0
  6  7  1  0
  7  8  1  0
  8  9  2  0
  8  2  1  0
  1 10  1  0
  1 11  1  0
  1 12  1  0
  3 13  1  0
  4 14  1  0
  5 15  1  0
  5 16  1  0
  5 17  1  0
  6 18  1  0
  6 19  1  0
M  END
