
     RDKit          3D

 23 23  0  0  0  0  0  0  0  0999 V2000
    2.5661   -0.5556    0.4686 C   0  0  0  0  0  0  0  0  0  0  0  0
    1.1279   -0.2413    0.2402 C   0  0  0  0  0  0  0  0  0  0  0  0
    0.8306    1.0364    0.4145 C   0  0  0  0  0  0  0  0  0  0  0  0
   -0.3788    1.9007    0.3320 C   0  0  0  0  0  0  0  0  0  0  0  0
   -1.1776    1.4670   -0.8690 C   0  0  0  0  0  0  0  0  0  0  0  0
   -1.4338    0.1256   -0.9232 O   0  0  0  0  0  0  0  0  0  0  0  0
   -1.8710   -0.4680    0.2136 C   0  0  0  0  0  0  0  0  0  0  0  0
   -0.9377   -1.5777    0.6142 C   0  0  0  0  0  0  0  0  0  0  0  0
    0.3620   -1.4434   -0.1316 C   0  0  0  0  0  0  0  0  0  0  0  0
    3.0905   -0.2850   -0.4889 H   0  0  0  0  0  0  0  0  0  0  0  0
    2.7410   -1.6118    0.7337 H   0  0  0  0  0  0  0  0  0  0  0  0
    2.9391    0.1274    1.2701 H   0  0  0  0  0  0  0  0  0  0  0  0
    1.7317    1.6059    0.6977 H   0  0  0  0  0  0  0  0  0  0  0  0
   -0.0686    2.9651    0.1341 H   0  0  0  0  0  0  0  0  0  0  0  0
   -0.9536    1.9359    1.2613 H   0  0  0  0  0  0  0  0  0  0  0  0
   -2.0735    2.1128   -1.0098 H   0  0  0  0  0  0  0  0  0  0  0  0
   -0.5238    1.6951   -1.7631 H   0  0  0  0  0  0  0  0  0  0  0  0
   -2.0004    0.1911    1.0834 H   0  0  0  0  0  0  0  0  0  0  0  0
   -2.8867   -0.9208    0.0216 H   0  0  0  0  0  0  0  0  0  0  0  0
   -1.3738   -2.5673    0.3104 H   0  0  0  0  0  0  0  0  0  0  0  0
   -0.7913   -1.6375    1.7068 H   0  0  0  0  0  0  0  0  0  0  0  0
    0.9548   -2.3640    0.0813 H   0  0  0  0  0  0  0  0  0  0  0  0
    0.1268   -1.4906   -1.2247 H   0  0  0  0  0  0  0  0  0  0  0  0
  1  2  1  0
  2  3  2  3
  3  4  1  0
  4  5  1  0
  5  6  1  0
  6  7  1  0
  7  8  1  0
  8  9  1  0
  9  2  1  0
  1 10  1  0
  1 11  1  0
  1 12  1  0
  3 13  1  0
  4 14  1  0
  4 15  1  0
  5 16  1  0
  5 17  1  0
  7 18  1  0
  7 19  1  0
  8 20  1  0
  8 21  1  0
  9 22  1  0
  9 23  1  0
M  END
