
     RDKit          3D

 23 24  0  0  0  0  0  0  0  0999 V2000
    2.6128    0.0982    0.4309 C   0  0  0  0  0  0  0  0  0  0  0  0
    1.1435    0.0437    0.3729 C   0  0  0  0  0  0  0  0  0  0  0  0
    0.3046    0.1128    1.3942 C   0  0  0  0  0  0  0  0  0  0  0  0
   -1.1418    0.0448    1.0411 C   0  0  0  0  0  0  0  0  0  0  0  0
   -1.3910    1.2235    0.0944 C   0  0  0  0  0  0  0  0  0  0  0  0
   -0.4400    1.1259   -1.0540 C   0  0  0  0  0  0  0  0  0  0  0  0
    0.4755   -0.1048   -0.9541 C   0  0  0  0  0  0  0  0  0  0  0  0
   -0.3588   -1.3700   -0.8334 C   0  0  0  0  0  0  0  0  0  0  0  0
   -1.4289   -1.2030    0.1938 C   0  0  0  0  0  0  0  0  0  0  0  0
    2.9673    0.5622   -0.5246 H   0  0  0  0  0  0  0  0  0  0  0  0
    3.0177   -0.9420    0.4108 H   0  0  0  0  0  0  0  0  0  0  0  0
    2.9810    0.6763    1.2922 H   0  0  0  0  0  0  0  0  0  0  0  0
    0.5663    0.2116    2.4350 H   0  0  0  0  0  0  0  0  0  0  0  0
   -1.8014    0.0571    1.9070 H   0  0  0  0  0  0  0  0  0  0  0  0
   -1.3221    2.1622    0.6672 H   0  0  0  0  0  0  0  0  0  0  0  0
   -2.4339    1.1672   -0.2958 H   0  0  0  0  0  0  0  0  0  0  0  0
   -0.9079    1.1981   -2.0410 H   0  0  0  0  0  0  0  0  0  0  0  0
    0.2703    2.0002   -0.9810 H   0  0  0  0  0  0  0  0  0  0  0  0
    1.1561   -0.1074   -1.7968 H   0  0  0  0  0  0  0  0  0  0  0  0
    0.3335   -2.1707   -0.4785 H   0  0  0  0  0  0  0  0  0  0  0  0
   -0.7253   -1.6736   -1.8312 H   0  0  0  0  0  0  0  0  0  0  0  0
   -2.3998   -1.0441   -0.3426 H   0  0  0  0  0  0  0  0  0  0  0  0
   -1.4776   -2.0681    0.8936 H   0  0  0  0  0  0  0  0  0  0  0  0
  1  2  1  0
  2  3  2  0
  3  4  1  0
  4  5  1  0
  5  6  1  0
  6  7  1  0
  7  8  1  0
  8  9  1  0
  7  2  1  0
  9  4  1  0
  1 10  1  0
  1 11  1  0
  1 12  1  0
  3 13  1  0
  4 14  1  0
  5 15  1  0
  5 16  1  0
  6 17  1  0
  6 18  1  0
  7 19  1  0
  8 20  1  0
  8 21  1  0
  9 22  1  0
  9 23  1  0
M  END
