
     RDKit          3D

 23 23  0  0  0  0  0  0  0  0999 V2000
   -2.1619    1.6494    0.0712 C   0  0  0  0  0  0  0  0  0  0  0  0
   -1.1890    0.5039   -0.0706 C   0  0  0  0  0  0  0  0  0  0  0  0
   -1.7218   -0.7010    0.0414 C   0  0  0  0  0  0  0  0  0  0  0  0
   -1.0600   -2.0193   -0.0449 C   0  0  0  0  0  0  0  0  0  0  0  0
    0.1548   -2.0221    0.6146 O   0  0  0  0  0  0  0  0  0  0  0  0
    1.1442   -1.3570   -0.1041 C   0  0  0  0  0  0  0  0  0  0  0  0
    1.2179    0.0641    0.4037 C   0  0  0  0  0  0  0  0  0  0  0  0
    2.5661    0.6944    0.1854 C   0  0  0  0  0  0  0  0  0  0  0  0
    0.1963    0.9344   -0.3112 C   0  0  0  0  0  0  0  0  0  0  0  0
   -3.1999    1.2786   -0.0823 H   0  0  0  0  0  0  0  0  0  0  0  0
   -1.9277    2.3582   -0.7482 H   0  0  0  0  0  0  0  0  0  0  0  0
   -2.0332    2.1258    1.0414 H   0  0  0  0  0  0  0  0  0  0  0  0
   -2.8096   -0.6771    0.2235 H   0  0  0  0  0  0  0  0  0  0  0  0
   -0.8692   -2.3335   -1.0944 H   0  0  0  0  0  0  0  0  0  0  0  0
   -1.7255   -2.7524    0.4590 H   0  0  0  0  0  0  0  0  0  0  0  0
    2.1032   -1.8719    0.0655 H   0  0  0  0  0  0  0  0  0  0  0  0
    0.8221   -1.3555   -1.1680 H   0  0  0  0  0  0  0  0  0  0  0  0
    1.0330    0.0268    1.4922 H   0  0  0  0  0  0  0  0  0  0  0  0
    3.4025   -0.0274    0.2104 H   0  0  0  0  0  0  0  0  0  0  0  0
    2.5645    1.1826   -0.8087 H   0  0  0  0  0  0  0  0  0  0  0  0
    2.6798    1.4807    0.9789 H   0  0  0  0  0  0  0  0  0  0  0  0
    0.3795    1.9725    0.0439 H   0  0  0  0  0  0  0  0  0  0  0  0
    0.4339    0.8458   -1.3986 H   0  0  0  0  0  0  0  0  0  0  0  0
  1  2  1  0
  2  3  2  0
  3  4  1  0
  4  5  1  0
  5  6  1  0
  6  7  1  0
  7  8  1  0
  7  9  1  0
  9  2  1  0
  1 10  1  0
  1 11  1  0
  1 12  1  0
  3 13  1  0
  4 14  1  0
  4 15  1  0
  6 16  1  0
  6 17  1  0
  7 18  1  0
  8 19  1  0
  8 20  1  0
  8 21  1  0
  9 22  1  0
  9 23  1  0
M  END
