
     RDKit          3D

 15 15  0  0  0  0  0  0  0  0999 V2000
   -2.2264   -0.2828    0.1089 C   0  0  0  0  0  0  0  0  0  0  0  0
   -0.8036    0.0768   -0.1251 C   0  0  0  0  0  0  0  0  0  0  0  0
    0.1257   -0.8283   -0.3735 C   0  0  0  0  0  0  0  0  0  0  0  0
    1.4602   -0.2311   -0.5712 C   0  0  0  0  0  0  0  0  0  0  0  0
    2.3525   -0.7421    0.3700 O   0  0  0  0  0  0  0  0  0  0  0  0
    1.2270    1.2128   -0.4066 C   0  0  0  0  0  0  0  0  0  0  0  0
    2.1058    2.1522   -0.4908 O   0  0  0  0  0  0  0  0  0  0  0  0
   -0.1853    1.3923   -0.1294 C   0  0  0  0  0  0  0  0  0  0  0  0
   -0.7819    2.4771    0.0724 O   0  0  0  0  0  0  0  0  0  0  0  0
   -2.2774   -0.7382    1.1210 H   0  0  0  0  0  0  0  0  0  0  0  0
   -2.5579   -1.0947   -0.5919 H   0  0  0  0  0  0  0  0  0  0  0  0
   -2.8760    0.6005    0.0408 H   0  0  0  0  0  0  0  0  0  0  0  0
   -0.0498   -1.9203   -0.4326 H   0  0  0  0  0  0  0  0  0  0  0  0
    1.8413   -0.4428   -1.5989 H   0  0  0  0  0  0  0  0  0  0  0  0
    2.6457   -1.6314    0.0141 H   0  0  0  0  0  0  0  0  0  0  0  0
  1  2  1  0
  2  3  2  0
  3  4  1  0
  4  5  1  0
  4  6  1  0
  6  7  2  0
  6  8  1  0
  8  9  2  0
  8  2  1  0
  1 10  1  0
  1 11  1  0
  1 12  1  0
  3 13  1  0
  4 14  1  0
  5 15  1  0
M  END
