
     RDKit          3D

 21 21  0  0  0  0  0  0  0  0999 V2000
    2.4896    0.0380    0.2033 C   0  0  0  0  0  0  0  0  0  0  0  0
    1.0709   -0.3705    0.0234 C   0  0  0  0  0  0  0  0  0  0  0  0
    0.0483    0.4304   -0.2591 C   0  0  0  0  0  0  0  0  0  0  0  0
    0.2136    1.9166   -0.4387 C   0  0  0  0  0  0  0  0  0  0  0  0
   -1.2015   -0.3641   -0.3576 C   0  0  0  0  0  0  0  0  0  0  0  0
   -2.3846    0.3706    0.2277 C   0  0  0  0  0  0  0  0  0  0  0  0
   -0.8490   -1.5733    0.4046 C   0  0  0  0  0  0  0  0  0  0  0  0
   -1.5992   -2.2094    1.0817 O   0  0  0  0  0  0  0  0  0  0  0  0
    0.5807   -1.7936    0.1405 C   0  0  0  0  0  0  0  0  0  0  0  0
    2.6325    0.3021    1.2737 H   0  0  0  0  0  0  0  0  0  0  0  0
    2.6293    0.9872   -0.3613 H   0  0  0  0  0  0  0  0  0  0  0  0
    3.1625   -0.7596   -0.1387 H   0  0  0  0  0  0  0  0  0  0  0  0
    1.1044    2.2693    0.1318 H   0  0  0  0  0  0  0  0  0  0  0  0
   -0.6982    2.4343   -0.0995 H   0  0  0  0  0  0  0  0  0  0  0  0
    0.3565    2.0658   -1.5333 H   0  0  0  0  0  0  0  0  0  0  0  0
   -1.4107   -0.6854   -1.4013 H   0  0  0  0  0  0  0  0  0  0  0  0
   -2.5594    1.2540   -0.4062 H   0  0  0  0  0  0  0  0  0  0  0  0
   -3.2511   -0.3339    0.1720 H   0  0  0  0  0  0  0  0  0  0  0  0
   -2.1297    0.6237    1.2779 H   0  0  0  0  0  0  0  0  0  0  0  0
    0.6858   -2.2575   -0.8684 H   0  0  0  0  0  0  0  0  0  0  0  0
    1.1093   -2.3448    0.9274 H   0  0  0  0  0  0  0  0  0  0  0  0
  1  2  1  0
  2  3  2  0
  3  4  1  0
  3  5  1  0
  5  6  1  0
  5  7  1  0
  7  8  2  0
  7  9  1  0
  9  2  1  0
  1 10  1  0
  1 11  1  0
  1 12  1  0
  4 13  1  0
  4 14  1  0
  4 15  1  0
  5 16  1  0
  6 17  1  0
  6 18  1  0
  6 19  1  0
  9 20  1  0
  9 21  1  0
M  END
