
     RDKit          3D

 19 20  0  0  0  0  0  0  0  0999 V2000
    1.9469    1.2438    0.3351 C   0  0  0  0  0  0  0  0  0  0  0  0
    0.8950    0.2359    0.0372 C   0  0  0  0  0  0  0  0  0  0  0  0
   -0.3397    0.6443   -0.0071 C   0  0  0  0  0  0  0  0  0  0  0  0
   -1.5419    1.5086    0.0395 C   0  0  0  0  0  0  0  0  0  0  0  0
   -2.2249    0.3613    0.5158 O   0  0  0  0  0  0  0  0  0  0  0  0
   -1.3783   -0.3754   -0.3107 C   0  0  0  0  0  0  0  0  0  0  0  0
   -1.0213   -1.7480    0.1096 C   0  0  0  0  0  0  0  0  0  0  0  0
    0.2887   -2.0838    0.1295 O   0  0  0  0  0  0  0  0  0  0  0  0
    1.2419   -1.1742   -0.1947 C   0  0  0  0  0  0  0  0  0  0  0  0
    1.7493    2.1234   -0.3417 H   0  0  0  0  0  0  0  0  0  0  0  0
    2.9590    0.8717    0.1412 H   0  0  0  0  0  0  0  0  0  0  0  0
    1.8108    1.6195    1.3825 H   0  0  0  0  0  0  0  0  0  0  0  0
   -1.5111    2.3325    0.7787 H   0  0  0  0  0  0  0  0  0  0  0  0
   -1.8721    1.7776   -0.9690 H   0  0  0  0  0  0  0  0  0  0  0  0
   -1.7009   -0.2533   -1.3699 H   0  0  0  0  0  0  0  0  0  0  0  0
   -1.4448   -1.9240    1.1274 H   0  0  0  0  0  0  0  0  0  0  0  0
   -1.5578   -2.4686   -0.5551 H   0  0  0  0  0  0  0  0  0  0  0  0
    2.1489   -1.3938    0.4129 H   0  0  0  0  0  0  0  0  0  0  0  0
    1.5523   -1.2975   -1.2614 H   0  0  0  0  0  0  0  0  0  0  0  0
  1  2  1  0
  2  3  2  0
  3  4  1  0
  4  5  1  0
  5  6  1  0
  6  7  1  0
  7  8  1  0
  8  9  1  0
  9  2  1  0
  6  3  1  0
  1 10  1  0
  1 11  1  0
  1 12  1  0
  4 13  1  0
  4 14  1  0
  6 15  1  0
  7 16  1  0
  7 17  1  0
  9 18  1  0
  9 19  1  0
M  END
