
     RDKit          3D

 19 21  0  0  0  0  0  0  0  0999 V2000
    2.2579   -0.8765    0.4118 C   0  0  0  0  0  0  0  0  0  0  0  0
    0.9134   -0.1880    0.2977 C   0  0  0  0  0  0  0  0  0  0  0  0
   -0.2808   -0.7201    0.2390 C   0  0  0  0  0  0  0  0  0  0  0  0
   -1.2208    0.4811    0.1358 C   0  0  0  0  0  0  0  0  0  0  0  0
   -0.4337    1.4939   -0.5922 C   0  0  0  0  0  0  0  0  0  0  0  0
    0.8794    1.3149    0.2102 C   0  0  0  0  0  0  0  0  0  0  0  0
   -2.1493   -0.4555   -0.5050 C   0  0  0  0  0  0  0  0  0  0  0  0
   -2.7205   -1.2809    0.4503 O   0  0  0  0  0  0  0  0  0  0  0  0
   -1.4184   -1.6258    0.1898 C   0  0  0  0  0  0  0  0  0  0  0  0
    2.7180   -0.6508    1.3944 H   0  0  0  0  0  0  0  0  0  0  0  0
    2.9079   -0.5064   -0.4325 H   0  0  0  0  0  0  0  0  0  0  0  0
    2.1732   -1.9587    0.2785 H   0  0  0  0  0  0  0  0  0  0  0  0
   -1.5281    0.8590    1.1317 H   0  0  0  0  0  0  0  0  0  0  0  0
   -0.7533    2.5356   -0.4328 H   0  0  0  0  0  0  0  0  0  0  0  0
   -0.2132    1.2596   -1.6369 H   0  0  0  0  0  0  0  0  0  0  0  0
    1.6698    1.7263   -0.4033 H   0  0  0  0  0  0  0  0  0  0  0  0
    0.8340    1.8002    1.1749 H   0  0  0  0  0  0  0  0  0  0  0  0
   -2.2718   -0.6068   -1.5641 H   0  0  0  0  0  0  0  0  0  0  0  0
   -1.3639   -2.6012   -0.3473 H   0  0  0  0  0  0  0  0  0  0  0  0
  1  2  1  0
  2  3  2  0
  3  4  1  0
  4  5  1  0
  5  6  1  0
  4  7  1  0
  7  8  1  0
  8  9  1  0
  6  2  1  0
  9  7  1  0
  9  3  1  0
  1 10  1  0
  1 11  1  0
  1 12  1  0
  4 13  1  0
  5 14  1  0
  5 15  1  0
  6 16  1  0
  6 17  1  0
  7 18  1  0
  9 19  1  0
M  END
