
     RDKit          3D

 21 22  0  0  0  0  0  0  0  0999 V2000
    2.9376   -0.3787    0.1568 C   0  0  0  0  0  0  0  0  0  0  0  0
    1.4255   -0.3841    0.1390 C   0  0  0  0  0  0  0  0  0  0  0  0
    0.6407   -1.4419    0.0712 C   0  0  0  0  0  0  0  0  0  0  0  0
   -0.7578   -0.9979    0.0792 C   0  0  0  0  0  0  0  0  0  0  0  0
   -1.1723   -0.3171   -1.2232 C   0  0  0  0  0  0  0  0  0  0  0  0
   -2.5355   -0.3911   -1.4600 O   0  0  0  0  0  0  0  0  0  0  0  0
   -0.7441    0.4957   -0.0756 C   0  0  0  0  0  0  0  0  0  0  0  0
   -1.8042    1.3185    0.6233 C   0  0  0  0  0  0  0  0  0  0  0  0
    0.6617    0.8803    0.2037 C   0  0  0  0  0  0  0  0  0  0  0  0
    3.2358   -1.2782    0.7045 H   0  0  0  0  0  0  0  0  0  0  0  0
    3.3362   -0.3473   -0.8753 H   0  0  0  0  0  0  0  0  0  0  0  0
    3.3271    0.4969    0.7071 H   0  0  0  0  0  0  0  0  0  0  0  0
    0.9800   -2.4628    0.0186 H   0  0  0  0  0  0  0  0  0  0  0  0
   -1.5194   -1.4906    0.6948 H   0  0  0  0  0  0  0  0  0  0  0  0
   -0.5539   -0.4663   -2.1155 H   0  0  0  0  0  0  0  0  0  0  0  0
   -3.0461   -0.7685   -0.6954 H   0  0  0  0  0  0  0  0  0  0  0  0
   -1.5398    1.3981    1.6814 H   0  0  0  0  0  0  0  0  0  0  0  0
   -2.8141    0.9016    0.5044 H   0  0  0  0  0  0  0  0  0  0  0  0
   -1.8338    2.3290    0.1204 H   0  0  0  0  0  0  0  0  0  0  0  0
    1.0843    1.6118   -0.5143 H   0  0  0  0  0  0  0  0  0  0  0  0
    0.6921    1.2925    1.2549 H   0  0  0  0  0  0  0  0  0  0  0  0
  1  2  1  0
  2  3  2  0
  3  4  1  0
  4  5  1  0
  5  6  1  0
  5  7  1  0
  7  8  1  0
  7  9  1  0
  9  2  1  0
  7  4  1  0
  1 10  1  0
  1 11  1  0
  1 12  1  0
  3 13  1  0
  4 14  1  0
  5 15  1  0
  6 16  1  0
  8 17  1  0
  8 18  1  0
  8 19  1  0
  9 20  1  0
  9 21  1  0
M  END
