
     RDKit          3D

 21 21  0  0  0  0  0  0  0  0999 V2000
    2.5968   -0.2634   -0.2736 C   0  0  0  0  0  0  0  0  0  0  0  0
    1.1407   -0.2139    0.0208 C   0  0  0  0  0  0  0  0  0  0  0  0
    0.3381   -1.2526   -0.0863 C   0  0  0  0  0  0  0  0  0  0  0  0
   -1.1124   -1.2010    0.2077 C   0  0  0  0  0  0  0  0  0  0  0  0
   -1.8683   -1.7017   -0.8562 O   0  0  0  0  0  0  0  0  0  0  0  0
   -1.6463    0.1617    0.5092 C   0  0  0  0  0  0  0  0  0  0  0  0
   -0.7982    1.1652   -0.2432 C   0  0  0  0  0  0  0  0  0  0  0  0
   -1.3634    2.4120   -0.1325 O   0  0  0  0  0  0  0  0  0  0  0  0
    0.5657    1.0834    0.4585 C   0  0  0  0  0  0  0  0  0  0  0  0
    2.8303    0.0439   -1.3071 H   0  0  0  0  0  0  0  0  0  0  0  0
    3.1099    0.4452    0.3960 H   0  0  0  0  0  0  0  0  0  0  0  0
    2.9370   -1.3075   -0.1046 H   0  0  0  0  0  0  0  0  0  0  0  0
    0.7507   -2.1838   -0.4016 H   0  0  0  0  0  0  0  0  0  0  0  0
   -1.2411   -1.8664    1.1157 H   0  0  0  0  0  0  0  0  0  0  0  0
   -1.7486   -2.6788   -0.9751 H   0  0  0  0  0  0  0  0  0  0  0  0
   -1.5289    0.3723    1.6070 H   0  0  0  0  0  0  0  0  0  0  0  0
   -2.7027    0.3065    0.2214 H   0  0  0  0  0  0  0  0  0  0  0  0
   -0.6985    0.8052   -1.2877 H   0  0  0  0  0  0  0  0  0  0  0  0
   -1.1368    2.9483   -0.9486 H   0  0  0  0  0  0  0  0  0  0  0  0
    0.3838    0.9794    1.5650 H   0  0  0  0  0  0  0  0  0  0  0  0
    1.1920    1.9460    0.2552 H   0  0  0  0  0  0  0  0  0  0  0  0
  1  2  1  0
  2  3  2  0
  3  4  1  0
  4  5  1  0
  4  6  1  0
  6  7  1  0
  7  8  1  0
  7  9  1  0
  9  2  1  0
  1 10  1  0
  1 11  1  0
  1 12  1  0
  3 13  1  0
  4 14  1  0
  5 15  1  0
  6 16  1  0
  6 17  1  0
  7 18  1  0
  8 19  1  0
  9 20  1  0
  9 21  1  0
M  END
