
     RDKit          3D

 21 21  0  0  0  0  0  0  0  0999 V2000
   -0.0667    2.0768    0.2084 C   0  0  0  0  0  0  0  0  0  0  0  0
    0.5101    0.7118    0.0362 C   0  0  0  0  0  0  0  0  0  0  0  0
    1.7926    0.4389   -0.0919 C   0  0  0  0  0  0  0  0  0  0  0  0
    1.9190   -1.0336   -0.2383 C   0  0  0  0  0  0  0  0  0  0  0  0
    0.6292   -1.4423   -0.5982 O   0  0  0  0  0  0  0  0  0  0  0  0
   -0.2401   -0.5509   -0.0154 C   0  0  0  0  0  0  0  0  0  0  0  0
   -0.5106   -0.9877    1.4073 C   0  0  0  0  0  0  0  0  0  0  0  0
   -1.5412   -0.4266   -0.7762 C   0  0  0  0  0  0  0  0  0  0  0  0
   -1.3276    0.0060   -2.0606 O   0  0  0  0  0  0  0  0  0  0  0  0
   -0.7147    2.3634   -0.6475 H   0  0  0  0  0  0  0  0  0  0  0  0
    0.7405    2.8274    0.2583 H   0  0  0  0  0  0  0  0  0  0  0  0
   -0.6260    2.1521    1.1680 H   0  0  0  0  0  0  0  0  0  0  0  0
    2.6524    1.1235   -0.0974 H   0  0  0  0  0  0  0  0  0  0  0  0
    2.6723   -1.2538   -1.0017 H   0  0  0  0  0  0  0  0  0  0  0  0
    2.1533   -1.5434    0.7097 H   0  0  0  0  0  0  0  0  0  0  0  0
   -0.9651   -0.1471    1.9716 H   0  0  0  0  0  0  0  0  0  0  0  0
   -1.1613   -1.8726    1.4084 H   0  0  0  0  0  0  0  0  0  0  0  0
    0.4849   -1.1717    1.8776 H   0  0  0  0  0  0  0  0  0  0  0  0
   -1.9978   -1.4507   -0.7786 H   0  0  0  0  0  0  0  0  0  0  0  0
   -2.1981    0.2409   -0.1983 H   0  0  0  0  0  0  0  0  0  0  0  0
   -2.2051   -0.0605   -2.5417 H   0  0  0  0  0  0  0  0  0  0  0  0
  1  2  1  0
  2  3  2  0
  3  4  1  0
  4  5  1  0
  5  6  1  0
  6  7  1  0
  6  8  1  0
  8  9  1  0
  6  2  1  0
  1 10  1  0
  1 11  1  0
  1 12  1  0
  3 13  1  0
  4 14  1  0
  4 15  1  0
  7 16  1  0
  7 17  1  0
  7 18  1  0
  8 19  1  0
  8 20  1  0
  9 21  1  0
M  END
