
     RDKit          3D

 19 20  0  0  0  0  0  0  0  0999 V2000
    2.1889    0.1764    0.0889 C   0  0  0  0  0  0  0  0  0  0  0  0
    0.7613   -0.2019    0.2523 C   0  0  0  0  0  0  0  0  0  0  0  0
    0.2757   -1.3128    0.8053 C   0  0  0  0  0  0  0  0  0  0  0  0
   -1.1995   -1.1712    0.6637 C   0  0  0  0  0  0  0  0  0  0  0  0
   -1.5081   -1.2562   -0.8062 C   0  0  0  0  0  0  0  0  0  0  0  0
   -0.9805   -0.0194   -1.2574 O   0  0  0  0  0  0  0  0  0  0  0  0
   -0.3997    0.5780   -0.1655 C   0  0  0  0  0  0  0  0  0  0  0  0
   -0.2562    2.0322   -0.1982 C   0  0  0  0  0  0  0  0  0  0  0  0
   -1.3326    0.2285    0.8463 O   0  0  0  0  0  0  0  0  0  0  0  0
    2.4593    1.0165    0.7651 H   0  0  0  0  0  0  0  0  0  0  0  0
    2.8658   -0.6966    0.2868 H   0  0  0  0  0  0  0  0  0  0  0  0
    2.3593    0.5452   -0.9631 H   0  0  0  0  0  0  0  0  0  0  0  0
    0.8578   -2.1146    1.2475 H   0  0  0  0  0  0  0  0  0  0  0  0
   -1.7959   -1.7619    1.3184 H   0  0  0  0  0  0  0  0  0  0  0  0
   -0.9153   -2.0535   -1.2992 H   0  0  0  0  0  0  0  0  0  0  0  0
   -2.5780   -1.2804   -1.0383 H   0  0  0  0  0  0  0  0  0  0  0  0
    0.4686    2.4060   -0.9283 H   0  0  0  0  0  0  0  0  0  0  0  0
   -1.2363    2.4893   -0.4574 H   0  0  0  0  0  0  0  0  0  0  0  0
   -0.0347    2.3964    0.8391 H   0  0  0  0  0  0  0  0  0  0  0  0
  1  2  1  0
  2  3  2  0
  3  4  1  0
  4  5  1  0
  5  6  1  0
  6  7  1  0
  7  8  1  0
  7  9  1  0
  7  2  1  0
  9  4  1  0
  1 10  1  0
  1 11  1  0
  1 12  1  0
  3 13  1  0
  4 14  1  0
  5 15  1  0
  5 16  1  0
  8 17  1  0
  8 18  1  0
  8 19  1  0
M  END
