
     RDKit          3D

 23 23  0  0  0  0  0  0  0  0999 V2000
    2.6240   -0.2287   -0.4402 C   0  0  0  0  0  0  0  0  0  0  0  0
    1.2014   -0.2354   -0.0452 C   0  0  0  0  0  0  0  0  0  0  0  0
    0.5953   -1.3710    0.3011 C   0  0  0  0  0  0  0  0  0  0  0  0
   -0.8429   -1.2911    0.6869 C   0  0  0  0  0  0  0  0  0  0  0  0
   -1.5856   -0.1870    0.0052 C   0  0  0  0  0  0  0  0  0  0  0  0
   -2.7209   -0.7428   -0.8607 C   0  0  0  0  0  0  0  0  0  0  0  0
   -0.7997    0.6458   -0.7737 O   0  0  0  0  0  0  0  0  0  0  0  0
    0.3338    0.9695    0.0048 C   0  0  0  0  0  0  0  0  0  0  0  0
    0.9809    2.1866   -0.5901 C   0  0  0  0  0  0  0  0  0  0  0  0
    3.2778   -0.5456    0.4215 H   0  0  0  0  0  0  0  0  0  0  0  0
    2.9437    0.7598   -0.7673 H   0  0  0  0  0  0  0  0  0  0  0  0
    2.8509   -0.9820   -1.2452 H   0  0  0  0  0  0  0  0  0  0  0  0
    1.1413   -2.3179    0.2986 H   0  0  0  0  0  0  0  0  0  0  0  0
   -0.8903   -1.1243    1.8020 H   0  0  0  0  0  0  0  0  0  0  0  0
   -1.3632   -2.2597    0.5238 H   0  0  0  0  0  0  0  0  0  0  0  0
   -2.1023    0.4843    0.7497 H   0  0  0  0  0  0  0  0  0  0  0  0
   -2.4576   -1.7110   -1.2991 H   0  0  0  0  0  0  0  0  0  0  0  0
   -2.9002   -0.0133   -1.6709 H   0  0  0  0  0  0  0  0  0  0  0  0
   -3.6682   -0.7998   -0.2620 H   0  0  0  0  0  0  0  0  0  0  0  0
    0.0486    1.1681    1.0383 H   0  0  0  0  0  0  0  0  0  0  0  0
    1.9444    2.4135   -0.1136 H   0  0  0  0  0  0  0  0  0  0  0  0
    0.3119    3.0479   -0.3785 H   0  0  0  0  0  0  0  0  0  0  0  0
    1.0768    2.1339   -1.6938 H   0  0  0  0  0  0  0  0  0  0  0  0
  1  2  1  0
  2  3  2  0
  3  4  1  0
  4  5  1  0
  5  6  1  0
  5  7  1  0
  7  8  1  0
  8  9  1  0
  8  2  1  0
  1 10  1  0
  1 11  1  0
  1 12  1  0
  3 13  1  0
  4 14  1  0
  4 15  1  0
  5 16  1  0
  6 17  1  0
  6 18  1  0
  6 19  1  0
  8 20  1  0
  9 21  1  0
  9 22  1  0
  9 23  1  0
M  END
