
     RDKit          3D

 21 22  0  0  0  0  0  0  0  0999 V2000
    2.7788   -0.3419   -0.1253 C   0  0  0  0  0  0  0  0  0  0  0  0
    1.3345   -0.2328    0.1792 C   0  0  0  0  0  0  0  0  0  0  0  0
    0.6415   -1.3246    0.4727 C   0  0  0  0  0  0  0  0  0  0  0  0
   -0.8263   -1.2390    0.7854 C   0  0  0  0  0  0  0  0  0  0  0  0
   -1.5133   -0.1389    0.0666 C   0  0  0  0  0  0  0  0  0  0  0  0
   -2.5494   -0.5642   -0.7855 O   0  0  0  0  0  0  0  0  0  0  0  0
   -1.7912    1.1647    0.7454 C   0  0  0  0  0  0  0  0  0  0  0  0
   -0.7392    1.0094   -0.3362 C   0  0  0  0  0  0  0  0  0  0  0  0
    0.6735    1.1034    0.1527 C   0  0  0  0  0  0  0  0  0  0  0  0
    2.8895   -0.7022   -1.1660 H   0  0  0  0  0  0  0  0  0  0  0  0
    3.2904    0.6443   -0.0115 H   0  0  0  0  0  0  0  0  0  0  0  0
    3.3026   -1.0798    0.5190 H   0  0  0  0  0  0  0  0  0  0  0  0
    1.1803   -2.2635    0.4749 H   0  0  0  0  0  0  0  0  0  0  0  0
   -1.2403   -2.2596    0.5378 H   0  0  0  0  0  0  0  0  0  0  0  0
   -0.9096   -1.1763    1.9034 H   0  0  0  0  0  0  0  0  0  0  0  0
   -3.4029   -0.4375   -0.2881 H   0  0  0  0  0  0  0  0  0  0  0  0
   -2.7152    1.7369    0.5239 H   0  0  0  0  0  0  0  0  0  0  0  0
   -1.4512    1.3229    1.8004 H   0  0  0  0  0  0  0  0  0  0  0  0
   -0.9457    1.4540   -1.3383 H   0  0  0  0  0  0  0  0  0  0  0  0
    1.2498    1.8088   -0.5025 H   0  0  0  0  0  0  0  0  0  0  0  0
    0.7433    1.5159    1.1806 H   0  0  0  0  0  0  0  0  0  0  0  0
  1  2  1  0
  2  3  2  0
  3  4  1  0
  4  5  1  0
  5  6  1  0
  5  7  1  0
  7  8  1  0
  8  9  1  0
  9  2  1  0
  8  5  1  0
  1 10  1  0
  1 11  1  0
  1 12  1  0
  3 13  1  0
  4 14  1  0
  4 15  1  0
  6 16  1  0
  7 17  1  0
  7 18  1  0
  8 19  1  0
  9 20  1  0
  9 21  1  0
M  END
