
     RDKit          3D

 22 22  0  0  0  0  0  0  0  0999 V2000
   -1.5013    2.1586    0.2639 C   0  0  0  0  0  0  0  0  0  0  0  0
   -0.6077    0.9619    0.1192 C   0  0  0  0  0  0  0  0  0  0  0  0
    0.5294    0.7234    0.7504 C   0  0  0  0  0  0  0  0  0  0  0  0
    1.1136   -0.5948    0.3124 C   0  0  0  0  0  0  0  0  0  0  0  0
    2.6044   -0.5775    0.2748 C   0  0  0  0  0  0  0  0  0  0  0  0
    0.4958   -0.7068   -1.0931 C   0  0  0  0  0  0  0  0  0  0  0  0
   -0.8844   -0.1833   -0.7727 C   0  0  0  0  0  0  0  0  0  0  0  0
   -1.6585   -1.2014    0.0396 C   0  0  0  0  0  0  0  0  0  0  0  0
   -1.5953    2.3448    1.3531 H   0  0  0  0  0  0  0  0  0  0  0  0
   -1.0999    3.0312   -0.2940 H   0  0  0  0  0  0  0  0  0  0  0  0
   -2.5084    1.9296   -0.1365 H   0  0  0  0  0  0  0  0  0  0  0  0
    0.9864    1.3673    1.4755 H   0  0  0  0  0  0  0  0  0  0  0  0
    0.7710   -1.4358    0.9142 H   0  0  0  0  0  0  0  0  0  0  0  0
    2.9519   -0.0742    1.2244 H   0  0  0  0  0  0  0  0  0  0  0  0
    3.0366   -0.0511   -0.5957 H   0  0  0  0  0  0  0  0  0  0  0  0
    2.9826   -1.6184    0.3362 H   0  0  0  0  0  0  0  0  0  0  0  0
    0.9865   -0.0006   -1.7629 H   0  0  0  0  0  0  0  0  0  0  0  0
    0.4880   -1.7468   -1.4467 H   0  0  0  0  0  0  0  0  0  0  0  0
   -1.4331    0.1130   -1.6922 H   0  0  0  0  0  0  0  0  0  0  0  0
   -2.5336   -1.6000   -0.5524 H   0  0  0  0  0  0  0  0  0  0  0  0
   -2.0591   -0.7535    0.9715 H   0  0  0  0  0  0  0  0  0  0  0  0
   -1.0648   -2.0856    0.3110 H   0  0  0  0  0  0  0  0  0  0  0  0
  1  2  1  0
  2  3  2  0
  3  4  1  0
  4  5  1  0
  4  6  1  0
  6  7  1  0
  7  8  1  0
  7  2  1  0
  1  9  1  0
  1 10  1  0
  1 11  1  0
  3 12  1  0
  4 13  1  0
  5 14  1  0
  5 15  1  0
  5 16  1  0
  6 17  1  0
  6 18  1  0
  7 19  1  0
  8 20  1  0
  8 21  1  0
  8 22  1  0
M  END
