
     RDKit          3D

 21 22  0  0  0  0  0  0  0  0999 V2000
   -1.8298    1.1660    0.7491 C   0  0  0  0  0  0  0  0  0  0  0  0
   -0.7386    0.3076    0.2333 C   0  0  0  0  0  0  0  0  0  0  0  0
    0.4345    0.6490   -0.2910 C   0  0  0  0  0  0  0  0  0  0  0  0
    0.9512    2.0412   -0.4134 C   0  0  0  0  0  0  0  0  0  0  0  0
    1.1413   -0.6065   -0.7344 C   0  0  0  0  0  0  0  0  0  0  0  0
    1.4860   -1.3458    0.5015 C   0  0  0  0  0  0  0  0  0  0  0  0
    0.3286   -1.6598    1.0832 C   0  0  0  0  0  0  0  0  0  0  0  0
   -0.7752   -1.1779    0.2142 C   0  0  0  0  0  0  0  0  0  0  0  0
   -0.1059   -1.4096   -1.1576 C   0  0  0  0  0  0  0  0  0  0  0  0
   -1.7424    2.2219    0.4285 H   0  0  0  0  0  0  0  0  0  0  0  0
   -2.8276    0.8224    0.3765 H   0  0  0  0  0  0  0  0  0  0  0  0
   -1.8851    1.1518    1.8403 H   0  0  0  0  0  0  0  0  0  0  0  0
    0.8439    2.5429    0.5892 H   0  0  0  0  0  0  0  0  0  0  0  0
    0.3696    2.5602   -1.1870 H   0  0  0  0  0  0  0  0  0  0  0  0
    2.0406    1.9849   -0.6730 H   0  0  0  0  0  0  0  0  0  0  0  0
    1.8771   -0.4923   -1.4765 H   0  0  0  0  0  0  0  0  0  0  0  0
    2.4822   -1.5683    0.8345 H   0  0  0  0  0  0  0  0  0  0  0  0
    0.1935   -2.1754    2.0240 H   0  0  0  0  0  0  0  0  0  0  0  0
   -1.7194   -1.6414    0.3251 H   0  0  0  0  0  0  0  0  0  0  0  0
   -0.6449   -0.9092   -1.9592 H   0  0  0  0  0  0  0  0  0  0  0  0
    0.1203   -2.4616   -1.3074 H   0  0  0  0  0  0  0  0  0  0  0  0
  1  2  1  0
  2  3  2  0
  3  4  1  0
  3  5  1  0
  5  6  1  0
  6  7  2  0
  7  8  1  0
  8  9  1  0
  8  2  1  0
  9  5  1  0
  1 10  1  0
  1 11  1  0
  1 12  1  0
  4 13  1  0
  4 14  1  0
  4 15  1  0
  5 16  1  0
  6 17  1  0
  7 18  1  0
  8 19  1  0
  9 20  1  0
  9 21  1  0
M  END
