
     RDKit          3D

 21 21  0  0  0  0  0  0  0  0999 V2000
    0.3764    1.8132   -0.1728 C   0  0  0  0  0  0  0  0  0  0  0  0
   -0.0612    0.3974   -0.0080 C   0  0  0  0  0  0  0  0  0  0  0  0
    0.7427   -0.6599   -0.1511 C   0  0  0  0  0  0  0  0  0  0  0  0
    2.1834   -0.6148   -0.4920 C   0  0  0  0  0  0  0  0  0  0  0  0
    2.9639   -1.2097    0.5250 O   0  0  0  0  0  0  0  0  0  0  0  0
   -0.1057   -1.8586    0.0990 C   0  0  0  0  0  0  0  0  0  0  0  0
   -1.3949   -1.3837   -0.2413 O   0  0  0  0  0  0  0  0  0  0  0  0
   -1.3910   -0.1347    0.3297 C   0  0  0  0  0  0  0  0  0  0  0  0
   -2.5201    0.7483   -0.1260 C   0  0  0  0  0  0  0  0  0  0  0  0
    0.6947    2.2337    0.7984 H   0  0  0  0  0  0  0  0  0  0  0  0
   -0.4945    2.4106   -0.5694 H   0  0  0  0  0  0  0  0  0  0  0  0
    1.1735    1.9177   -0.9245 H   0  0  0  0  0  0  0  0  0  0  0  0
    2.3313   -1.2242   -1.4146 H   0  0  0  0  0  0  0  0  0  0  0  0
    2.5340    0.4288   -0.6193 H   0  0  0  0  0  0  0  0  0  0  0  0
    2.8437   -0.7194    1.3720 H   0  0  0  0  0  0  0  0  0  0  0  0
    0.1836   -2.7136   -0.5235 H   0  0  0  0  0  0  0  0  0  0  0  0
   -0.1390   -2.0977    1.1889 H   0  0  0  0  0  0  0  0  0  0  0  0
   -1.4782   -0.2248    1.4363 H   0  0  0  0  0  0  0  0  0  0  0  0
   -3.4629    0.1797    0.0440 H   0  0  0  0  0  0  0  0  0  0  0  0
   -2.5669    1.6026    0.6117 H   0  0  0  0  0  0  0  0  0  0  0  0
   -2.4130    1.1093   -1.1625 H   0  0  0  0  0  0  0  0  0  0  0  0
  1  2  1  0
  2  3  2  0
  3  4  1  0
  4  5  1  0
  3  6  1  0
  6  7  1  0
  7  8  1  0
  8  9  1  0
  8  2  1  0
  1 10  1  0
  1 11  1  0
  1 12  1  0
  4 13  1  0
  4 14  1  0
  5 15  1  0
  6 16  1  0
  6 17  1  0
  8 18  1  0
  9 19  1  0
  9 20  1  0
  9 21  1  0
M  END
