
     RDKit          3D

 21 22  0  0  0  0  0  0  0  0999 V2000
    2.5758   -0.2451    0.0780 C   0  0  0  0  0  0  0  0  0  0  0  0
    1.0917   -0.2756    0.0431 C   0  0  0  0  0  0  0  0  0  0  0  0
    0.4090   -1.2438   -0.5570 C   0  0  0  0  0  0  0  0  0  0  0  0
   -1.0695   -1.2928   -0.6307 C   0  0  0  0  0  0  0  0  0  0  0  0
   -1.7033   -0.1058    0.0479 C   0  0  0  0  0  0  0  0  0  0  0  0
   -1.4125    1.0922   -0.7890 C   0  0  0  0  0  0  0  0  0  0  0  0
   -0.2620    1.6440   -0.4108 C   0  0  0  0  0  0  0  0  0  0  0  0
    0.3298    0.8078    0.6981 C   0  0  0  0  0  0  0  0  0  0  0  0
   -0.9618    0.2649    1.3260 C   0  0  0  0  0  0  0  0  0  0  0  0
    3.0020   -0.7938   -0.8127 H   0  0  0  0  0  0  0  0  0  0  0  0
    2.9704    0.7998   -0.0287 H   0  0  0  0  0  0  0  0  0  0  0  0
    2.8988   -0.7128    1.0286 H   0  0  0  0  0  0  0  0  0  0  0  0
    0.9534   -2.0597   -1.0291 H   0  0  0  0  0  0  0  0  0  0  0  0
   -1.4058   -2.2565   -0.2157 H   0  0  0  0  0  0  0  0  0  0  0  0
   -1.3794   -1.2627   -1.6966 H   0  0  0  0  0  0  0  0  0  0  0  0
   -2.7713   -0.2687    0.2156 H   0  0  0  0  0  0  0  0  0  0  0  0
   -2.0689    1.4344   -1.5837 H   0  0  0  0  0  0  0  0  0  0  0  0
    0.1644    2.5272   -0.8248 H   0  0  0  0  0  0  0  0  0  0  0  0
    0.8986    1.4170    1.3910 H   0  0  0  0  0  0  0  0  0  0  0  0
   -0.7813   -0.5847    1.9759 H   0  0  0  0  0  0  0  0  0  0  0  0
   -1.4781    1.1145    1.7746 H   0  0  0  0  0  0  0  0  0  0  0  0
  1  2  1  0
  2  3  2  0
  3  4  1  0
  4  5  1  0
  5  6  1  0
  6  7  2  0
  7  8  1  0
  8  9  1  0
  8  2  1  0
  9  5  1  0
  1 10  1  0
  1 11  1  0
  1 12  1  0
  3 13  1  0
  4 14  1  0
  4 15  1  0
  5 16  1  0
  6 17  1  0
  7 18  1  0
  8 19  1  0
  9 20  1  0
  9 21  1  0
M  END
