
     RDKit          3D

 18 20  0  0  0  0  0  0  0  0999 V2000
    2.5250    0.1760    0.0670 C   0  0  0  0  0  0  0  0  0  0  0  0
    1.0603    0.0896   -0.1703 C   0  0  0  0  0  0  0  0  0  0  0  0
    0.2804    0.9339   -0.8339 C   0  0  0  0  0  0  0  0  0  0  0  0
   -1.1181    0.4728   -0.8324 C   0  0  0  0  0  0  0  0  0  0  0  0
   -1.7449    0.6579    0.5313 C   0  0  0  0  0  0  0  0  0  0  0  0
   -1.0395   -0.5771    0.9987 C   0  0  0  0  0  0  0  0  0  0  0  0
    0.2091   -1.0412    0.3473 C   0  0  0  0  0  0  0  0  0  0  0  0
   -0.9688   -0.9774   -0.4906 C   0  0  0  0  0  0  0  0  0  0  0  0
    2.9559   -0.8452    0.0683 H   0  0  0  0  0  0  0  0  0  0  0  0
    2.9749    0.7962   -0.7361 H   0  0  0  0  0  0  0  0  0  0  0  0
    2.7347    0.6516    1.0523 H   0  0  0  0  0  0  0  0  0  0  0  0
    0.6302    1.8392   -1.3106 H   0  0  0  0  0  0  0  0  0  0  0  0
   -1.7389    0.7307   -1.6935 H   0  0  0  0  0  0  0  0  0  0  0  0
   -1.4242    1.5764    1.0745 H   0  0  0  0  0  0  0  0  0  0  0  0
   -2.8401    0.5103    0.4498 H   0  0  0  0  0  0  0  0  0  0  0  0
   -1.5426   -1.2547    1.6837 H   0  0  0  0  0  0  0  0  0  0  0  0
    0.6524   -1.9819    0.6331 H   0  0  0  0  0  0  0  0  0  0  0  0
   -1.6057   -1.7571   -0.8387 H   0  0  0  0  0  0  0  0  0  0  0  0
  1  2  1  0
  2  3  2  0
  3  4  1  0
  4  5  1  0
  5  6  1  0
  6  7  1  0
  7  8  1  0
  7  2  1  0
  8  4  1  0
  8  6  1  0
  1  9  1  0
  1 10  1  0
  1 11  1  0
  3 12  1  0
  4 13  1  0
  5 14  1  0
  5 15  1  0
  6 16  1  0
  7 17  1  0
  8 18  1  0
M  END
