
     RDKit          3D

 18 19  0  0  0  0  0  0  0  0999 V2000
    2.6158    0.0672    0.1639 C   0  0  0  0  0  0  0  0  0  0  0  0
    1.1379    0.1809   -0.0216 C   0  0  0  0  0  0  0  0  0  0  0  0
    0.5014    1.3179   -0.2968 C   0  0  0  0  0  0  0  0  0  0  0  0
   -0.9339    1.0738   -0.4134 C   0  0  0  0  0  0  0  0  0  0  0  0
   -1.1302   -0.2443    0.2470 C   0  0  0  0  0  0  0  0  0  0  0  0
   -2.4150   -0.8725    0.2038 C   0  0  0  0  0  0  0  0  0  0  0  0
   -1.8809   -0.3989    1.3811 O   0  0  0  0  0  0  0  0  0  0  0  0
    0.1867   -0.9492    0.0752 C   0  0  0  0  0  0  0  0  0  0  0  0
    3.1181    1.0370    0.0087 H   0  0  0  0  0  0  0  0  0  0  0  0
    2.8865   -0.2887    1.1733 H   0  0  0  0  0  0  0  0  0  0  0  0
    2.9759   -0.6517   -0.6054 H   0  0  0  0  0  0  0  0  0  0  0  0
    0.9593    2.3050   -0.4229 H   0  0  0  0  0  0  0  0  0  0  0  0
   -1.5711    1.8645    0.0329 H   0  0  0  0  0  0  0  0  0  0  0  0
   -1.2111    0.9547   -1.4934 H   0  0  0  0  0  0  0  0  0  0  0  0
   -2.4831   -1.9577    0.0050 H   0  0  0  0  0  0  0  0  0  0  0  0
   -3.2728   -0.3095   -0.2265 H   0  0  0  0  0  0  0  0  0  0  0  0
    0.3713   -1.5475    1.0059 H   0  0  0  0  0  0  0  0  0  0  0  0
    0.1453   -1.5811   -0.8167 H   0  0  0  0  0  0  0  0  0  0  0  0
  1  2  1  0
  2  3  2  0
  3  4  1  0
  4  5  1  0
  5  6  1  0
  6  7  1  0
  5  8  1  0
  8  2  1  0
  7  5  1  0
  1  9  1  0
  1 10  1  0
  1 11  1  0
  3 12  1  0
  4 13  1  0
  4 14  1  0
  6 15  1  0
  6 16  1  0
  8 17  1  0
  8 18  1  0
M  END
