
     RDKit          3D

 21 22  0  0  0  0  0  0  0  0999 V2000
    2.4225    0.5029    0.3574 C   0  0  0  0  0  0  0  0  0  0  0  0
    1.0094    0.1300    0.3251 C   0  0  0  0  0  0  0  0  0  0  0  0
    0.2211    0.0595    1.4164 C   0  0  0  0  0  0  0  0  0  0  0  0
   -1.1704   -0.3877    1.1103 C   0  0  0  0  0  0  0  0  0  0  0  0
   -1.7456    0.6738    0.1632 C   0  0  0  0  0  0  0  0  0  0  0  0
   -0.8605    0.7866   -1.0496 C   0  0  0  0  0  0  0  0  0  0  0  0
    0.2665   -0.2214   -0.9431 C   0  0  0  0  0  0  0  0  0  0  0  0
   -0.3431   -1.5868   -0.6947 C   0  0  0  0  0  0  0  0  0  0  0  0
   -1.0712   -1.6066    0.4635 O   0  0  0  0  0  0  0  0  0  0  0  0
    2.8948    0.2147    1.3196 H   0  0  0  0  0  0  0  0  0  0  0  0
    2.5245    1.5744    0.1296 H   0  0  0  0  0  0  0  0  0  0  0  0
    2.9448   -0.1034   -0.4394 H   0  0  0  0  0  0  0  0  0  0  0  0
    0.5379    0.2941    2.4041 H   0  0  0  0  0  0  0  0  0  0  0  0
   -1.7985   -0.4991    1.9925 H   0  0  0  0  0  0  0  0  0  0  0  0
   -2.7989    0.4395   -0.0959 H   0  0  0  0  0  0  0  0  0  0  0  0
   -1.6982    1.6280    0.7387 H   0  0  0  0  0  0  0  0  0  0  0  0
   -1.4322    0.6728   -1.9971 H   0  0  0  0  0  0  0  0  0  0  0  0
   -0.3772    1.7883   -1.1021 H   0  0  0  0  0  0  0  0  0  0  0  0
    0.9033   -0.1997   -1.8210 H   0  0  0  0  0  0  0  0  0  0  0  0
   -0.9368   -1.8385   -1.5973 H   0  0  0  0  0  0  0  0  0  0  0  0
    0.5079   -2.3213   -0.6802 H   0  0  0  0  0  0  0  0  0  0  0  0
  1  2  1  0
  2  3  2  0
  3  4  1  0
  4  5  1  0
  5  6  1  0
  6  7  1  0
  7  8  1  0
  8  9  1  0
  7  2  1  0
  9  4  1  0
  1 10  1  0
  1 11  1  0
  1 12  1  0
  3 13  1  0
  4 14  1  0
  5 15  1  0
  5 16  1  0
  6 17  1  0
  6 18  1  0
  7 19  1  0
  8 20  1  0
  8 21  1  0
M  END
