
     RDKit          3D

 19 20  0  0  0  0  0  0  0  0999 V2000
    2.3421   -0.2239   -0.4678 C   0  0  0  0  0  0  0  0  0  0  0  0
    0.9373   -0.2426    0.0027 C   0  0  0  0  0  0  0  0  0  0  0  0
    0.2510   -1.3021    0.4086 C   0  0  0  0  0  0  0  0  0  0  0  0
   -1.1449   -0.8404    0.6439 C   0  0  0  0  0  0  0  0  0  0  0  0
   -0.8124    0.5253    1.2877 C   0  0  0  0  0  0  0  0  0  0  0  0
    0.0642    0.9575    0.0919 C   0  0  0  0  0  0  0  0  0  0  0  0
   -0.9893    0.8820   -0.9923 C   0  0  0  0  0  0  0  0  0  0  0  0
   -1.6713   -0.3896   -0.6410 C   0  0  0  0  0  0  0  0  0  0  0  0
   -2.5089   -0.9375   -1.3109 O   0  0  0  0  0  0  0  0  0  0  0  0
    2.9349   -1.0778   -0.0373 H   0  0  0  0  0  0  0  0  0  0  0  0
    2.8883    0.6916   -0.1215 H   0  0  0  0  0  0  0  0  0  0  0  0
    2.3964   -0.3109   -1.5568 H   0  0  0  0  0  0  0  0  0  0  0  0
    0.5798   -2.3156    0.5573 H   0  0  0  0  0  0  0  0  0  0  0  0
   -1.7510   -1.4638    1.2537 H   0  0  0  0  0  0  0  0  0  0  0  0
   -0.2045    0.4029    2.1815 H   0  0  0  0  0  0  0  0  0  0  0  0
   -1.7011    1.1450    1.3811 H   0  0  0  0  0  0  0  0  0  0  0  0
    0.5474    1.8957    0.2241 H   0  0  0  0  0  0  0  0  0  0  0  0
   -1.6588    1.7425   -0.9278 H   0  0  0  0  0  0  0  0  0  0  0  0
   -0.4991    0.8614   -1.9769 H   0  0  0  0  0  0  0  0  0  0  0  0
  1  2  1  0
  2  3  2  0
  3  4  1  0
  4  5  1  0
  5  6  1  0
  6  7  1  0
  7  8  1  0
  8  9  2  0
  6  2  1  0
  8  4  1  0
  1 10  1  0
  1 11  1  0
  1 12  1  0
  3 13  1  0
  4 14  1  0
  5 15  1  0
  5 16  1  0
  6 17  1  0
  7 18  1  0
  7 19  1  0
M  END
