
     RDKit          3D

 21 21  0  0  0  0  0  0  0  0999 V2000
    1.6294    1.9760    0.2349 C   0  0  0  0  0  0  0  0  0  0  0  0
    0.7309    0.8098    0.0570 C   0  0  0  0  0  0  0  0  0  0  0  0
   -0.4911    0.8567   -0.4498 C   0  0  0  0  0  0  0  0  0  0  0  0
   -1.0239   -0.5260   -0.4440 C   0  0  0  0  0  0  0  0  0  0  0  0
   -2.4994   -0.5665   -0.1371 C   0  0  0  0  0  0  0  0  0  0  0  0
   -2.6986    0.0637    1.0913 O   0  0  0  0  0  0  0  0  0  0  0  0
   -0.2576   -1.1651    0.5044 O   0  0  0  0  0  0  0  0  0  0  0  0
    1.0258   -0.6004    0.4118 C   0  0  0  0  0  0  0  0  0  0  0  0
    1.7865   -1.3408   -0.6316 C   0  0  0  0  0  0  0  0  0  0  0  0
    1.8433    2.1985    1.2911 H   0  0  0  0  0  0  0  0  0  0  0  0
    1.2081    2.8746   -0.2538 H   0  0  0  0  0  0  0  0  0  0  0  0
    2.6252    1.8113   -0.2577 H   0  0  0  0  0  0  0  0  0  0  0  0
   -1.0233    1.7595   -0.8131 H   0  0  0  0  0  0  0  0  0  0  0  0
   -0.8920   -0.9987   -1.4585 H   0  0  0  0  0  0  0  0  0  0  0  0
   -3.0204    0.0278   -0.9149 H   0  0  0  0  0  0  0  0  0  0  0  0
   -2.8515   -1.5958   -0.1681 H   0  0  0  0  0  0  0  0  0  0  0  0
   -3.6047   -0.1656    1.4554 H   0  0  0  0  0  0  0  0  0  0  0  0
    1.5177   -0.6251    1.4054 H   0  0  0  0  0  0  0  0  0  0  0  0
    1.7996   -0.8759   -1.6239 H   0  0  0  0  0  0  0  0  0  0  0  0
    2.8422   -1.5457   -0.2849 H   0  0  0  0  0  0  0  0  0  0  0  0
    1.3536   -2.3722   -0.7756 H   0  0  0  0  0  0  0  0  0  0  0  0
  1  2  1  0
  2  3  2  0
  3  4  1  0
  4  5  1  0
  5  6  1  0
  4  7  1  0
  7  8  1  0
  8  9  1  0
  8  2  1  0
  1 10  1  0
  1 11  1  0
  1 12  1  0
  3 13  1  0
  4 14  1  0
  5 15  1  0
  5 16  1  0
  6 17  1  0
  8 18  1  0
  9 19  1  0
  9 20  1  0
  9 21  1  0
M  END
