
     RDKit          3D

 21 22  0  0  0  0  0  0  0  0999 V2000
   -2.1742   -1.2763    0.3111 C   0  0  0  0  0  0  0  0  0  0  0  0
   -1.2029   -0.1819    0.1334 C   0  0  0  0  0  0  0  0  0  0  0  0
   -1.1618    1.0014    0.7340 C   0  0  0  0  0  0  0  0  0  0  0  0
    0.0256    1.7340    0.2212 C   0  0  0  0  0  0  0  0  0  0  0  0
    1.1917    0.9706    0.6716 C   0  0  0  0  0  0  0  0  0  0  0  0
    1.1879   -0.2010    0.0452 C   0  0  0  0  0  0  0  0  0  0  0  0
    2.1980   -1.2708    0.1710 C   0  0  0  0  0  0  0  0  0  0  0  0
   -0.0335   -0.2287   -0.8104 C   0  0  0  0  0  0  0  0  0  0  0  0
   -0.0406    1.2501   -1.2445 C   0  0  0  0  0  0  0  0  0  0  0  0
   -1.6664   -2.2396    0.3825 H   0  0  0  0  0  0  0  0  0  0  0  0
   -2.8398   -1.2684   -0.5988 H   0  0  0  0  0  0  0  0  0  0  0  0
   -2.7923   -1.1085    1.2252 H   0  0  0  0  0  0  0  0  0  0  0  0
   -1.8439    1.3945    1.4632 H   0  0  0  0  0  0  0  0  0  0  0  0
    0.0283    2.7838    0.3329 H   0  0  0  0  0  0  0  0  0  0  0  0
    1.9274    1.2921    1.3833 H   0  0  0  0  0  0  0  0  0  0  0  0
    3.0997   -0.8802    0.7060 H   0  0  0  0  0  0  0  0  0  0  0  0
    2.4833   -1.7164   -0.8197 H   0  0  0  0  0  0  0  0  0  0  0  0
    1.8305   -2.1157    0.7871 H   0  0  0  0  0  0  0  0  0  0  0  0
   -0.0759   -0.9325   -1.5887 H   0  0  0  0  0  0  0  0  0  0  0  0
    0.8538    1.5148   -1.7998 H   0  0  0  0  0  0  0  0  0  0  0  0
   -0.9949    1.4786   -1.7057 H   0  0  0  0  0  0  0  0  0  0  0  0
  1  2  1  0
  2  3  2  0
  3  4  1  0
  4  5  1  0
  5  6  2  0
  6  7  1  0
  6  8  1  0
  8  9  1  0
  8  2  1  0
  9  4  1  0
  1 10  1  0
  1 11  1  0
  1 12  1  0
  3 13  1  0
  4 14  1  0
  5 15  1  0
  7 16  1  0
  7 17  1  0
  7 18  1  0
  8 19  1  0
  9 20  1  0
  9 21  1  0
M  END
