
     RDKit          3D

 20 21  0  0  0  0  0  0  0  0999 V2000
    2.4984   -0.2573    0.0086 C   0  0  0  0  0  0  0  0  0  0  0  0
    1.0421   -0.3151    0.0581 C   0  0  0  0  0  0  0  0  0  0  0  0
    0.2844   -0.9189    0.9623 C   0  0  0  0  0  0  0  0  0  0  0  0
   -1.1477   -0.7629    0.5865 C   0  0  0  0  0  0  0  0  0  0  0  0
   -1.6065    0.6711    0.7247 C   0  0  0  0  0  0  0  0  0  0  0  0
   -0.6253    1.3934   -0.1830 C   0  0  0  0  0  0  0  0  0  0  0  0
    0.1125    0.3081   -0.9207 C   0  0  0  0  0  0  0  0  0  0  0  0
   -0.9826   -0.7714   -0.9514 C   0  0  0  0  0  0  0  0  0  0  0  0
    2.8608   -0.8750   -0.8367 H   0  0  0  0  0  0  0  0  0  0  0  0
    2.8382    0.7941   -0.2236 H   0  0  0  0  0  0  0  0  0  0  0  0
    2.9975   -0.5247    0.9585 H   0  0  0  0  0  0  0  0  0  0  0  0
    0.6810   -1.4333    1.8236 H   0  0  0  0  0  0  0  0  0  0  0  0
   -1.8158   -1.5117    0.9473 H   0  0  0  0  0  0  0  0  0  0  0  0
   -2.6044    0.7401    0.2643 H   0  0  0  0  0  0  0  0  0  0  0  0
   -1.5618    1.0369    1.7654 H   0  0  0  0  0  0  0  0  0  0  0  0
   -1.1285    2.1091   -0.8574 H   0  0  0  0  0  0  0  0  0  0  0  0
    0.1172    1.9478    0.4248 H   0  0  0  0  0  0  0  0  0  0  0  0
    0.5151    0.5551   -1.8723 H   0  0  0  0  0  0  0  0  0  0  0  0
   -1.8808   -0.4370   -1.4567 H   0  0  0  0  0  0  0  0  0  0  0  0
   -0.5940   -1.7483   -1.2222 H   0  0  0  0  0  0  0  0  0  0  0  0
  1  2  1  0
  2  3  2  0
  3  4  1  0
  4  5  1  0
  5  6  1  0
  6  7  1  0
  7  8  1  0
  7  2  1  0
  8  4  1  0
  1  9  1  0
  1 10  1  0
  1 11  1  0
  3 12  1  0
  4 13  1  0
  5 14  1  0
  5 15  1  0
  6 16  1  0
  6 17  1  0
  7 18  1  0
  8 19  1  0
  8 20  1  0
M  END
