
     RDKit          3D

 16 17  0  0  0  0  0  0  0  0999 V2000
    2.0973   -0.7260   -0.3292 C   0  0  0  0  0  0  0  0  0  0  0  0
    0.7702   -0.0914   -0.2453 C   0  0  0  0  0  0  0  0  0  0  0  0
   -0.1874   -0.0145   -1.1534 C   0  0  0  0  0  0  0  0  0  0  0  0
   -1.2848    0.7115   -0.4920 C   0  0  0  0  0  0  0  0  0  0  0  0
   -1.8039   -0.1744    0.6092 C   0  0  0  0  0  0  0  0  0  0  0  0
   -0.7622   -0.1165    1.5504 O   0  0  0  0  0  0  0  0  0  0  0  0
    0.2258    0.6343    0.9724 C   0  0  0  0  0  0  0  0  0  0  0  0
   -0.5337    1.6232    0.2971 O   0  0  0  0  0  0  0  0  0  0  0  0
    2.7407   -0.0780   -0.9655 H   0  0  0  0  0  0  0  0  0  0  0  0
    1.9904   -1.7208   -0.7870 H   0  0  0  0  0  0  0  0  0  0  0  0
    2.5350   -0.8342    0.6738 H   0  0  0  0  0  0  0  0  0  0  0  0
   -0.1675   -0.3940   -2.1426 H   0  0  0  0  0  0  0  0  0  0  0  0
   -2.0127    1.1735   -1.1169 H   0  0  0  0  0  0  0  0  0  0  0  0
   -1.8413   -1.2152    0.2300 H   0  0  0  0  0  0  0  0  0  0  0  0
   -2.7512    0.1922    1.0093 H   0  0  0  0  0  0  0  0  0  0  0  0
    0.9852    1.0302    1.6102 H   0  0  0  0  0  0  0  0  0  0  0  0
  1  2  1  0
  2  3  2  0
  3  4  1  0
  4  5  1  0
  5  6  1  0
  6  7  1  0
  7  8  1  0
  7  2  1  0
  8  4  1  0
  1  9  1  0
  1 10  1  0
  1 11  1  0
  3 12  1  0
  4 13  1  0
  5 14  1  0
  5 15  1  0
  7 16  1  0
M  END
