
     RDKit          3D

 17 18  0  0  0  0  0  0  0  0999 V2000
    2.5047    0.2148   -0.0536 C   0  0  0  0  0  0  0  0  0  0  0  0
    1.0468   -0.1394   -0.0285 C   0  0  0  0  0  0  0  0  0  0  0  0
    0.2052    0.3733   -0.9216 C   0  0  0  0  0  0  0  0  0  0  0  0
   -1.1630   -0.1288   -0.6834 C   0  0  0  0  0  0  0  0  0  0  0  0
   -1.9743    0.8328    0.1153 C   0  0  0  0  0  0  0  0  0  0  0  0
   -1.6623    0.1813    1.3051 O   0  0  0  0  0  0  0  0  0  0  0  0
   -1.1079   -0.9047    0.6058 C   0  0  0  0  0  0  0  0  0  0  0  0
    0.3438   -1.0129    0.8730 C   0  0  0  0  0  0  0  0  0  0  0  0
    0.8566   -1.7482    1.7435 O   0  0  0  0  0  0  0  0  0  0  0  0
    2.5472    1.3313   -0.0959 H   0  0  0  0  0  0  0  0  0  0  0  0
    3.0258   -0.1613    0.8322 H   0  0  0  0  0  0  0  0  0  0  0  0
    2.9291   -0.1381   -1.0169 H   0  0  0  0  0  0  0  0  0  0  0  0
    0.4305    1.0606   -1.7262 H   0  0  0  0  0  0  0  0  0  0  0  0
   -1.6577   -0.6187   -1.5258 H   0  0  0  0  0  0  0  0  0  0  0  0
   -3.0474    0.8014   -0.1754 H   0  0  0  0  0  0  0  0  0  0  0  0
   -1.5873    1.8802    0.0973 H   0  0  0  0  0  0  0  0  0  0  0  0
   -1.6899   -1.8238    0.6551 H   0  0  0  0  0  0  0  0  0  0  0  0
  1  2  1  0
  2  3  2  0
  3  4  1  0
  4  5  1  0
  5  6  1  0
  6  7  1  0
  7  8  1  0
  8  9  2  0
  8  2  1  0
  7  4  1  0
  1 10  1  0
  1 11  1  0
  1 12  1  0
  3 13  1  0
  4 14  1  0
  5 15  1  0
  5 16  1  0
  7 17  1  0
M  END
