
     RDKit          3D

 21 22  0  0  0  0  0  0  0  0999 V2000
    2.5590    0.0712   -1.2236 C   0  0  0  0  0  0  0  0  0  0  0  0
    1.2819    0.2839   -0.4361 C   0  0  0  0  0  0  0  0  0  0  0  0
    0.2359    0.9850   -0.7863 C   0  0  0  0  0  0  0  0  0  0  0  0
   -0.8002    0.9466    0.2514 C   0  0  0  0  0  0  0  0  0  0  0  0
   -2.0382    0.1449   -0.0934 C   0  0  0  0  0  0  0  0  0  0  0  0
   -2.3775    0.2165   -1.4458 O   0  0  0  0  0  0  0  0  0  0  0  0
   -1.2078   -1.1029    0.2423 C   0  0  0  0  0  0  0  0  0  0  0  0
   -0.3876   -0.2018    1.1309 C   0  0  0  0  0  0  0  0  0  0  0  0
    1.0780   -0.3210    0.8926 C   0  0  0  0  0  0  0  0  0  0  0  0
    2.6961    0.8839   -1.9636 H   0  0  0  0  0  0  0  0  0  0  0  0
    2.5920   -0.9232   -1.6775 H   0  0  0  0  0  0  0  0  0  0  0  0
    3.3915    0.1566   -0.5004 H   0  0  0  0  0  0  0  0  0  0  0  0
    0.1536    1.5392   -1.7566 H   0  0  0  0  0  0  0  0  0  0  0  0
   -0.9969    1.8999    0.7794 H   0  0  0  0  0  0  0  0  0  0  0  0
   -2.8441    0.3601    0.6168 H   0  0  0  0  0  0  0  0  0  0  0  0
   -3.2472   -0.2683   -1.5502 H   0  0  0  0  0  0  0  0  0  0  0  0
   -0.6626   -1.4142   -0.6646 H   0  0  0  0  0  0  0  0  0  0  0  0
   -1.7797   -1.8898    0.7697 H   0  0  0  0  0  0  0  0  0  0  0  0
   -0.7186   -0.1455    2.1840 H   0  0  0  0  0  0  0  0  0  0  0  0
    1.6994    0.1701    1.6562 H   0  0  0  0  0  0  0  0  0  0  0  0
    1.3731   -1.3912    0.8895 H   0  0  0  0  0  0  0  0  0  0  0  0
  1  2  1  0
  2  3  2  0
  3  4  1  0
  4  5  1  0
  5  6  1  0
  5  7  1  0
  7  8  1  0
  8  9  1  0
  9  2  1  0
  8  4  1  0
  1 10  1  0
  1 11  1  0
  1 12  1  0
  3 13  1  0
  4 14  1  0
  5 15  1  0
  6 16  1  0
  7 17  1  0
  7 18  1  0
  8 19  1  0
  9 20  1  0
  9 21  1  0
M  END
