
     RDKit          3D

 21 22  0  0  0  0  0  0  0  0999 V2000
   -2.0155    1.5127    0.2278 C   0  0  0  0  0  0  0  0  0  0  0  0
   -1.1101    0.3583   -0.0110 C   0  0  0  0  0  0  0  0  0  0  0  0
    0.2015    0.3756   -0.1699 C   0  0  0  0  0  0  0  0  0  0  0  0
    1.4190    1.1908   -0.2283 C   0  0  0  0  0  0  0  0  0  0  0  0
    2.5087    0.1923    0.0666 C   0  0  0  0  0  0  0  0  0  0  0  0
    1.9560   -1.0702    0.1575 O   0  0  0  0  0  0  0  0  0  0  0  0
    0.6886   -1.0248   -0.3882 C   0  0  0  0  0  0  0  0  0  0  0  0
   -0.3486   -1.7934    0.4004 C   0  0  0  0  0  0  0  0  0  0  0  0
   -1.6087   -1.0602   -0.0980 C   0  0  0  0  0  0  0  0  0  0  0  0
   -2.7364    1.2964    1.0446 H   0  0  0  0  0  0  0  0  0  0  0  0
   -2.6395    1.7204   -0.6882 H   0  0  0  0  0  0  0  0  0  0  0  0
   -1.4610    2.4212    0.5375 H   0  0  0  0  0  0  0  0  0  0  0  0
    1.4917    1.6405   -1.2212 H   0  0  0  0  0  0  0  0  0  0  0  0
    1.4589    1.9545    0.6001 H   0  0  0  0  0  0  0  0  0  0  0  0
    3.0810    0.4372    0.9865 H   0  0  0  0  0  0  0  0  0  0  0  0
    3.2357    0.2538   -0.7725 H   0  0  0  0  0  0  0  0  0  0  0  0
    0.6406   -1.3269   -1.4488 H   0  0  0  0  0  0  0  0  0  0  0  0
   -0.3811   -2.8610    0.1316 H   0  0  0  0  0  0  0  0  0  0  0  0
   -0.1846   -1.5875    1.4605 H   0  0  0  0  0  0  0  0  0  0  0  0
   -1.7335   -1.3891   -1.1414 H   0  0  0  0  0  0  0  0  0  0  0  0
   -2.4629   -1.2406    0.5541 H   0  0  0  0  0  0  0  0  0  0  0  0
  1  2  1  0
  2  3  2  0
  3  4  1  0
  4  5  1  0
  5  6  1  0
  6  7  1  0
  7  8  1  0
  8  9  1  0
  9  2  1  0
  7  3  1  0
  1 10  1  0
  1 11  1  0
  1 12  1  0
  4 13  1  0
  4 14  1  0
  5 15  1  0
  5 16  1  0
  7 17  1  0
  8 18  1  0
  8 19  1  0
  9 20  1  0
  9 21  1  0
M  END
