
     RDKit          3D

 17 18  0  0  0  0  0  0  0  0999 V2000
   -1.7410   -1.0582   -0.0119 C   0  0  0  0  0  0  0  0  0  0  0  0
   -0.2851   -0.7059    0.0657 C   0  0  0  0  0  0  0  0  0  0  0  0
    0.7260   -1.5198    0.3262 C   0  0  0  0  0  0  0  0  0  0  0  0
    1.9998   -0.8107    0.3158 C   0  0  0  0  0  0  0  0  0  0  0  0
    3.1584   -1.2508    0.5540 O   0  0  0  0  0  0  0  0  0  0  0  0
    1.6256    0.6028   -0.0511 C   0  0  0  0  0  0  0  0  0  0  0  0
    1.0151    0.6713   -1.4030 O   0  0  0  0  0  0  0  0  0  0  0  0
    0.2646    0.6502   -0.1437 C   0  0  0  0  0  0  0  0  0  0  0  0
   -0.6803    1.8062   -0.0267 C   0  0  0  0  0  0  0  0  0  0  0  0
   -2.1721   -0.6824   -0.9800 H   0  0  0  0  0  0  0  0  0  0  0  0
   -1.8645   -2.1710   -0.0574 H   0  0  0  0  0  0  0  0  0  0  0  0
   -2.3216   -0.5981    0.7949 H   0  0  0  0  0  0  0  0  0  0  0  0
    0.6074   -2.5729    0.5198 H   0  0  0  0  0  0  0  0  0  0  0  0
    2.4275    1.3325   -0.0021 H   0  0  0  0  0  0  0  0  0  0  0  0
   -0.2571    2.7185   -0.4990 H   0  0  0  0  0  0  0  0  0  0  0  0
   -0.8364    2.0646    1.0466 H   0  0  0  0  0  0  0  0  0  0  0  0
   -1.6662    1.5236   -0.4480 H   0  0  0  0  0  0  0  0  0  0  0  0
  1  2  1  0
  2  3  2  0
  3  4  1  0
  4  5  2  0
  4  6  1  0
  6  7  1  0
  7  8  1  0
  8  9  1  0
  8  2  1  0
  8  6  1  0
  1 10  1  0
  1 11  1  0
  1 12  1  0
  3 13  1  0
  6 14  1  0
  9 15  1  0
  9 16  1  0
  9 17  1  0
M  END
