
     RDKit          3D

 21 21  0  0  0  0  0  0  0  0999 V2000
    3.0120   -0.2853    0.3289 C   0  0  0  0  0  0  0  0  0  0  0  0
    1.5813   -0.0627   -0.0005 C   0  0  0  0  0  0  0  0  0  0  0  0
    0.7601   -1.0936   -0.1788 C   0  0  0  0  0  0  0  0  0  0  0  0
   -0.6855   -0.9297   -0.5111 C   0  0  0  0  0  0  0  0  0  0  0  0
   -1.1036    0.5059   -0.3583 C   0  0  0  0  0  0  0  0  0  0  0  0
   -2.5368    0.5037    0.1375 C   0  0  0  0  0  0  0  0  0  0  0  0
   -3.2983   -0.2449   -0.7637 O   0  0  0  0  0  0  0  0  0  0  0  0
   -0.2757    1.2341    0.4877 O   0  0  0  0  0  0  0  0  0  0  0  0
    0.9877    1.2946   -0.1482 C   0  0  0  0  0  0  0  0  0  0  0  0
    3.1579   -0.8851    1.2493 H   0  0  0  0  0  0  0  0  0  0  0  0
    3.5144    0.6817    0.4290 H   0  0  0  0  0  0  0  0  0  0  0  0
    3.5435   -0.8452   -0.4849 H   0  0  0  0  0  0  0  0  0  0  0  0
    1.2042   -2.0984   -0.0674 H   0  0  0  0  0  0  0  0  0  0  0  0
   -1.2397   -1.6101    0.1662 H   0  0  0  0  0  0  0  0  0  0  0  0
   -0.8431   -1.2212   -1.5751 H   0  0  0  0  0  0  0  0  0  0  0  0
   -1.1156    1.0515   -1.3294 H   0  0  0  0  0  0  0  0  0  0  0  0
   -2.6371    0.1077    1.1516 H   0  0  0  0  0  0  0  0  0  0  0  0
   -2.9706    1.5311    0.1333 H   0  0  0  0  0  0  0  0  0  0  0  0
   -3.4823   -1.1624   -0.4190 H   0  0  0  0  0  0  0  0  0  0  0  0
    0.8014    1.4773   -1.2070 H   0  0  0  0  0  0  0  0  0  0  0  0
    1.6259    2.0510    0.3450 H   0  0  0  0  0  0  0  0  0  0  0  0
  1  2  1  0
  2  3  2  0
  3  4  1  0
  4  5  1  0
  5  6  1  0
  6  7  1  0
  5  8  1  0
  8  9  1  0
  9  2  1  0
  1 10  1  0
  1 11  1  0
  1 12  1  0
  3 13  1  0
  4 14  1  0
  4 15  1  0
  5 16  1  0
  6 17  1  0
  6 18  1  0
  7 19  1  0
  9 20  1  0
  9 21  1  0
M  END
