
     RDKit          3D

 21 22  0  0  0  0  0  0  0  0999 V2000
    2.5767    0.6756    0.6755 C   0  0  0  0  0  0  0  0  0  0  0  0
    1.3047    0.1385    0.1237 C   0  0  0  0  0  0  0  0  0  0  0  0
    1.2784   -0.8872   -0.7178 C   0  0  0  0  0  0  0  0  0  0  0  0
   -0.0990   -1.2258   -1.1166 C   0  0  0  0  0  0  0  0  0  0  0  0
   -0.9270   -0.3778   -0.2169 C   0  0  0  0  0  0  0  0  0  0  0  0
   -1.9210   -0.9841    0.7216 C   0  0  0  0  0  0  0  0  0  0  0  0
   -0.9976    1.0722   -0.5829 C   0  0  0  0  0  0  0  0  0  0  0  0
   -2.1447    1.7074   -0.1769 O   0  0  0  0  0  0  0  0  0  0  0  0
   -0.0260    0.6561    0.4307 C   0  0  0  0  0  0  0  0  0  0  0  0
    2.4098    1.6351    1.2202 H   0  0  0  0  0  0  0  0  0  0  0  0
    3.3079    0.7786   -0.1454 H   0  0  0  0  0  0  0  0  0  0  0  0
    3.0168   -0.0595    1.3967 H   0  0  0  0  0  0  0  0  0  0  0  0
    2.1396   -1.4593   -1.1099 H   0  0  0  0  0  0  0  0  0  0  0  0
   -0.2233   -0.9150   -2.1883 H   0  0  0  0  0  0  0  0  0  0  0  0
   -0.3421   -2.3013   -1.0149 H   0  0  0  0  0  0  0  0  0  0  0  0
   -2.8689   -1.1377    0.1926 H   0  0  0  0  0  0  0  0  0  0  0  0
   -1.4820   -1.9601    1.0836 H   0  0  0  0  0  0  0  0  0  0  0  0
   -2.0448   -0.3855    1.6700 H   0  0  0  0  0  0  0  0  0  0  0  0
   -0.6436    1.3619   -1.6044 H   0  0  0  0  0  0  0  0  0  0  0  0
   -2.0636    2.6906   -0.1240 H   0  0  0  0  0  0  0  0  0  0  0  0
   -0.2503    0.9776    1.4836 H   0  0  0  0  0  0  0  0  0  0  0  0
  1  2  1  0
  2  3  2  0
  3  4  1  0
  4  5  1  0
  5  6  1  0
  5  7  1  0
  7  8  1  0
  7  9  1  0
  9  2  1  0
  9  5  1  0
  1 10  1  0
  1 11  1  0
  1 12  1  0
  3 13  1  0
  4 14  1  0
  4 15  1  0
  6 16  1  0
  6 17  1  0
  6 18  1  0
  7 19  1  0
  8 20  1  0
  9 21  1  0
M  END
