
     RDKit          3D

 21 22  0  0  0  0  0  0  0  0999 V2000
   -2.0147    1.0613   -0.3279 C   0  0  0  0  0  0  0  0  0  0  0  0
   -0.6319    0.6394    0.0262 C   0  0  0  0  0  0  0  0  0  0  0  0
    0.2963    1.5857    0.1180 C   0  0  0  0  0  0  0  0  0  0  0  0
    1.7085    1.2487    0.4685 C   0  0  0  0  0  0  0  0  0  0  0  0
    1.9685   -0.1319   -0.0477 C   0  0  0  0  0  0  0  0  0  0  0  0
    1.0289   -1.1699    0.4416 C   0  0  0  0  0  0  0  0  0  0  0  0
    0.2112   -1.0237    1.5194 O   0  0  0  0  0  0  0  0  0  0  0  0
   -0.3660   -0.7860    0.2538 C   0  0  0  0  0  0  0  0  0  0  0  0
   -1.2692   -1.8269   -0.3391 C   0  0  0  0  0  0  0  0  0  0  0  0
   -2.1335    2.1711   -0.2835 H   0  0  0  0  0  0  0  0  0  0  0  0
   -2.3543    0.6406   -1.2788 H   0  0  0  0  0  0  0  0  0  0  0  0
   -2.6752    0.6615    0.4822 H   0  0  0  0  0  0  0  0  0  0  0  0
    0.0534    2.6214   -0.0583 H   0  0  0  0  0  0  0  0  0  0  0  0
    1.9254    1.3811    1.5404 H   0  0  0  0  0  0  0  0  0  0  0  0
    2.3604    1.9495   -0.1247 H   0  0  0  0  0  0  0  0  0  0  0  0
    3.0421   -0.4129    0.1441 H   0  0  0  0  0  0  0  0  0  0  0  0
    1.8809   -0.0773   -1.1570 H   0  0  0  0  0  0  0  0  0  0  0  0
    1.3316   -2.2104    0.2186 H   0  0  0  0  0  0  0  0  0  0  0  0
   -1.6751   -2.5379    0.4119 H   0  0  0  0  0  0  0  0  0  0  0  0
   -0.6425   -2.4315   -1.0495 H   0  0  0  0  0  0  0  0  0  0  0  0
   -2.0449   -1.3518   -0.9583 H   0  0  0  0  0  0  0  0  0  0  0  0
  1  2  1  0
  2  3  2  0
  3  4  1  0
  4  5  1  0
  5  6  1  0
  6  7  1  0
  7  8  1  0
  8  9  1  0
  8  2  1  0
  8  6  1  0
  1 10  1  0
  1 11  1  0
  1 12  1  0
  3 13  1  0
  4 14  1  0
  4 15  1  0
  5 16  1  0
  5 17  1  0
  6 18  1  0
  9 19  1  0
  9 20  1  0
  9 21  1  0
M  END
