
     RDKit          3D

 23 23  0  0  0  0  0  0  0  0999 V2000
    2.7688    0.5107    0.3091 C   0  0  0  0  0  0  0  0  0  0  0  0
    1.4228    0.0259   -0.1042 C   0  0  0  0  0  0  0  0  0  0  0  0
    0.9809   -1.1090    0.4246 C   0  0  0  0  0  0  0  0  0  0  0  0
   -0.2446   -1.8947    0.2828 C   0  0  0  0  0  0  0  0  0  0  0  0
   -1.4792   -1.1044    0.0098 C   0  0  0  0  0  0  0  0  0  0  0  0
   -1.1565    0.3536   -0.0157 C   0  0  0  0  0  0  0  0  0  0  0  0
   -2.3823    1.2303    0.1239 C   0  0  0  0  0  0  0  0  0  0  0  0
   -0.5818    0.6159   -1.2792 O   0  0  0  0  0  0  0  0  0  0  0  0
    0.7427    0.8892   -1.0683 C   0  0  0  0  0  0  0  0  0  0  0  0
    3.1459   -0.0899    1.1564 H   0  0  0  0  0  0  0  0  0  0  0  0
    2.6832    1.5925    0.5813 H   0  0  0  0  0  0  0  0  0  0  0  0
    3.4428    0.4302   -0.5817 H   0  0  0  0  0  0  0  0  0  0  0  0
    1.7134   -1.5358    1.1194 H   0  0  0  0  0  0  0  0  0  0  0  0
   -0.1379   -2.7284   -0.4719 H   0  0  0  0  0  0  0  0  0  0  0  0
   -0.4218   -2.4448    1.2535 H   0  0  0  0  0  0  0  0  0  0  0  0
   -1.8564   -1.3741   -1.0144 H   0  0  0  0  0  0  0  0  0  0  0  0
   -2.3077   -1.3224    0.7371 H   0  0  0  0  0  0  0  0  0  0  0  0
   -0.4494    0.5679    0.8071 H   0  0  0  0  0  0  0  0  0  0  0  0
   -2.4282    1.6524    1.1571 H   0  0  0  0  0  0  0  0  0  0  0  0
   -2.2435    2.1270   -0.5401 H   0  0  0  0  0  0  0  0  0  0  0  0
   -3.3034    0.7106   -0.1734 H   0  0  0  0  0  0  0  0  0  0  0  0
    1.2946    0.9542   -2.0488 H   0  0  0  0  0  0  0  0  0  0  0  0
    0.7977    1.9433   -0.6645 H   0  0  0  0  0  0  0  0  0  0  0  0
  1  2  1  0
  2  3  2  0
  3  4  1  0
  4  5  1  0
  5  6  1  0
  6  7  1  0
  6  8  1  0
  8  9  1  0
  9  2  1  0
  1 10  1  0
  1 11  1  0
  1 12  1  0
  3 13  1  0
  4 14  1  0
  4 15  1  0
  5 16  1  0
  5 17  1  0
  6 18  1  0
  7 19  1  0
  7 20  1  0
  7 21  1  0
  9 22  1  0
  9 23  1  0
M  END
