
     RDKit          3D

 21 22  0  0  0  0  0  0  0  0999 V2000
   -1.6795   -1.4830    0.7691 C   0  0  0  0  0  0  0  0  0  0  0  0
   -1.0780   -0.3000    0.0934 C   0  0  0  0  0  0  0  0  0  0  0  0
   -1.5280    0.9385    0.2505 C   0  0  0  0  0  0  0  0  0  0  0  0
   -0.6318    1.8370   -0.6059 C   0  0  0  0  0  0  0  0  0  0  0  0
    0.6212    1.0743   -0.2676 C   0  0  0  0  0  0  0  0  0  0  0  0
    0.7481    1.1217    1.1529 O   0  0  0  0  0  0  0  0  0  0  0  0
    1.3720    0.0613   -0.8623 C   0  0  0  0  0  0  0  0  0  0  0  0
    2.2925   -0.8245   -0.0178 C   0  0  0  0  0  0  0  0  0  0  0  0
    0.0087   -0.2461   -0.8460 C   0  0  0  0  0  0  0  0  0  0  0  0
   -2.4472   -1.2011    1.5041 H   0  0  0  0  0  0  0  0  0  0  0  0
   -2.1638   -2.1750    0.0510 H   0  0  0  0  0  0  0  0  0  0  0  0
   -0.8938   -2.0880    1.2994 H   0  0  0  0  0  0  0  0  0  0  0  0
   -2.3440    1.3298    0.8349 H   0  0  0  0  0  0  0  0  0  0  0  0
   -0.8743    1.7613   -1.6616 H   0  0  0  0  0  0  0  0  0  0  0  0
   -0.5682    2.8411   -0.1771 H   0  0  0  0  0  0  0  0  0  0  0  0
    0.2822    0.3605    1.5596 H   0  0  0  0  0  0  0  0  0  0  0  0
    1.8974    0.2928   -1.8319 H   0  0  0  0  0  0  0  0  0  0  0  0
    3.3514   -0.5818   -0.1722 H   0  0  0  0  0  0  0  0  0  0  0  0
    1.9945   -0.6587    1.0370 H   0  0  0  0  0  0  0  0  0  0  0  0
    2.1186   -1.8978   -0.2301 H   0  0  0  0  0  0  0  0  0  0  0  0
   -0.4779   -0.1621   -1.8796 H   0  0  0  0  0  0  0  0  0  0  0  0
  1  2  1  0
  2  3  2  0
  3  4  1  0
  4  5  1  0
  5  6  1  0
  5  7  1  0
  7  8  1  0
  7  9  1  0
  9  2  1  0
  9  5  1  0
  1 10  1  0
  1 11  1  0
  1 12  1  0
  3 13  1  0
  4 14  1  0
  4 15  1  0
  6 16  1  0
  7 17  1  0
  8 18  1  0
  8 19  1  0
  8 20  1  0
  9 21  1  0
M  END
