
     RDKit          3D

 21 22  0  0  0  0  0  0  0  0999 V2000
    2.7116   -0.3751    0.6401 C   0  0  0  0  0  0  0  0  0  0  0  0
    1.2858   -0.1326    0.2861 C   0  0  0  0  0  0  0  0  0  0  0  0
    0.2714   -0.9973    0.2617 C   0  0  0  0  0  0  0  0  0  0  0  0
   -0.9240   -0.2410   -0.1521 C   0  0  0  0  0  0  0  0  0  0  0  0
   -2.0584   -0.9897   -0.6580 C   0  0  0  0  0  0  0  0  0  0  0  0
   -1.2004    0.7804    0.9230 C   0  0  0  0  0  0  0  0  0  0  0  0
   -0.0942    1.6189    0.8943 O   0  0  0  0  0  0  0  0  0  0  0  0
    0.7491    1.1974   -0.1186 C   0  0  0  0  0  0  0  0  0  0  0  0
   -0.2812    0.7263   -1.1660 C   0  0  0  0  0  0  0  0  0  0  0  0
    3.0701    0.5357    1.1775 H   0  0  0  0  0  0  0  0  0  0  0  0
    2.7199   -1.2624    1.3289 H   0  0  0  0  0  0  0  0  0  0  0  0
    3.3495   -0.5415   -0.2496 H   0  0  0  0  0  0  0  0  0  0  0  0
    0.3058   -2.0355    0.4940 H   0  0  0  0  0  0  0  0  0  0  0  0
   -2.7482   -1.2339    0.1754 H   0  0  0  0  0  0  0  0  0  0  0  0
   -2.6414   -0.3724   -1.3709 H   0  0  0  0  0  0  0  0  0  0  0  0
   -1.7339   -1.9430   -1.1096 H   0  0  0  0  0  0  0  0  0  0  0  0
   -2.1292    1.3375    0.6577 H   0  0  0  0  0  0  0  0  0  0  0  0
   -1.3474    0.2935    1.8983 H   0  0  0  0  0  0  0  0  0  0  0  0
    1.4492    1.9027   -0.4879 H   0  0  0  0  0  0  0  0  0  0  0  0
    0.2036    0.1971   -1.9820 H   0  0  0  0  0  0  0  0  0  0  0  0
   -0.9578    1.5348   -1.4422 H   0  0  0  0  0  0  0  0  0  0  0  0
  1  2  1  0
  2  3  2  0
  3  4  1  0
  4  5  1  0
  4  6  1  0
  6  7  1  0
  7  8  1  0
  8  9  1  0
  8  2  1  0
  9  4  1  0
  1 10  1  0
  1 11  1  0
  1 12  1  0
  3 13  1  0
  5 14  1  0
  5 15  1  0
  5 16  1  0
  6 17  1  0
  6 18  1  0
  8 19  1  0
  9 20  1  0
  9 21  1  0
M  END
