
     RDKit          3D

 17 18  0  0  0  0  0  0  0  0999 V2000
    2.0524    0.6095    0.0028 C   0  0  0  0  0  0  0  0  0  0  0  0
    0.7147   -0.0746   -0.0710 C   0  0  0  0  0  0  0  0  0  0  0  0
    0.5989   -1.3571   -0.3629 C   0  0  0  0  0  0  0  0  0  0  0  0
   -0.8349   -1.7859   -0.3699 C   0  0  0  0  0  0  0  0  0  0  0  0
   -1.4894   -0.6716    0.3646 C   0  0  0  0  0  0  0  0  0  0  0  0
   -2.5043   -0.6469    1.0170 O   0  0  0  0  0  0  0  0  0  0  0  0
   -0.6092    0.5000    0.1397 C   0  0  0  0  0  0  0  0  0  0  0  0
   -0.9883    1.7760    0.4726 C   0  0  0  0  0  0  0  0  0  0  0  0
   -1.0833    1.3607   -0.9427 O   0  0  0  0  0  0  0  0  0  0  0  0
    2.7528    0.0707    0.6659 H   0  0  0  0  0  0  0  0  0  0  0  0
    2.4823    0.6325   -1.0162 H   0  0  0  0  0  0  0  0  0  0  0  0
    1.9068    1.6132    0.4427 H   0  0  0  0  0  0  0  0  0  0  0  0
    1.4135   -2.0767   -0.5837 H   0  0  0  0  0  0  0  0  0  0  0  0
   -1.2032   -1.8788   -1.4093 H   0  0  0  0  0  0  0  0  0  0  0  0
   -0.9729   -2.7232    0.2221 H   0  0  0  0  0  0  0  0  0  0  0  0
   -1.9602    2.0136    0.9260 H   0  0  0  0  0  0  0  0  0  0  0  0
   -0.2756    2.6388    0.5021 H   0  0  0  0  0  0  0  0  0  0  0  0
  1  2  1  0
  2  3  2  0
  3  4  1  0
  4  5  1  0
  5  6  2  0
  5  7  1  0
  7  8  1  0
  8  9  1  0
  7  2  1  0
  9  7  1  0
  1 10  1  0
  1 11  1  0
  1 12  1  0
  3 13  1  0
  4 14  1  0
  4 15  1  0
  8 16  1  0
  8 17  1  0
M  END
