
     RDKit          3D

 19 20  0  0  0  0  0  0  0  0999 V2000
    2.3773   -0.3644   -0.0997 C   0  0  0  0  0  0  0  0  0  0  0  0
    0.9041   -0.3174   -0.1499 C   0  0  0  0  0  0  0  0  0  0  0  0
    0.1238   -1.3999   -0.1903 C   0  0  0  0  0  0  0  0  0  0  0  0
   -1.2500   -1.2118    0.4096 C   0  0  0  0  0  0  0  0  0  0  0  0
   -1.9834   -0.1402   -0.3379 C   0  0  0  0  0  0  0  0  0  0  0  0
   -1.1447    0.7250    0.5819 C   0  0  0  0  0  0  0  0  0  0  0  0
   -1.0447   -0.3159    1.4785 O   0  0  0  0  0  0  0  0  0  0  0  0
    0.1579    0.9895   -0.1593 C   0  0  0  0  0  0  0  0  0  0  0  0
    0.8680    2.0103    0.4120 O   0  0  0  0  0  0  0  0  0  0  0  0
    2.7164   -1.3946   -0.2231 H   0  0  0  0  0  0  0  0  0  0  0  0
    2.6816    0.0120    0.9207 H   0  0  0  0  0  0  0  0  0  0  0  0
    2.8517    0.3567   -0.8092 H   0  0  0  0  0  0  0  0  0  0  0  0
    0.4365   -2.3456   -0.6163 H   0  0  0  0  0  0  0  0  0  0  0  0
   -1.7808   -2.1253    0.6508 H   0  0  0  0  0  0  0  0  0  0  0  0
   -1.6910   -0.0543   -1.4159 H   0  0  0  0  0  0  0  0  0  0  0  0
   -3.0576   -0.0996   -0.1947 H   0  0  0  0  0  0  0  0  0  0  0  0
   -1.6452    1.6152    0.9880 H   0  0  0  0  0  0  0  0  0  0  0  0
   -0.0548    1.1922   -1.2397 H   0  0  0  0  0  0  0  0  0  0  0  0
    0.5349    2.8683   -0.0053 H   0  0  0  0  0  0  0  0  0  0  0  0
  1  2  1  0
  2  3  2  0
  3  4  1  0
  4  5  1  0
  5  6  1  0
  6  7  1  0
  6  8  1  0
  8  9  1  0
  8  2  1  0
  7  4  1  0
  1 10  1  0
  1 11  1  0
  1 12  1  0
  3 13  1  0
  4 14  1  0
  5 15  1  0
  5 16  1  0
  6 17  1  0
  8 18  1  0
  9 19  1  0
M  END
