
     RDKit          3D

 23 24  0  0  0  0  0  0  0  0999 V2000
   -2.8849    0.1302   -0.4743 C   0  0  0  0  0  0  0  0  0  0  0  0
   -1.4744   -0.0202   -0.0946 C   0  0  0  0  0  0  0  0  0  0  0  0
   -0.9357   -0.9624    0.6428 C   0  0  0  0  0  0  0  0  0  0  0  0
    0.5307   -0.7842    0.8133 C   0  0  0  0  0  0  0  0  0  0  0  0
    1.2020   -1.9272    0.0844 C   0  0  0  0  0  0  0  0  0  0  0  0
    0.8261    0.5384    0.2043 C   0  0  0  0  0  0  0  0  0  0  0  0
    2.1877    0.7551   -0.4468 C   0  0  0  0  0  0  0  0  0  0  0  0
    0.1300    1.7633    0.6202 C   0  0  0  0  0  0  0  0  0  0  0  0
   -0.4119    0.9203   -0.5117 C   0  0  0  0  0  0  0  0  0  0  0  0
   -2.9273    0.3167   -1.5818 H   0  0  0  0  0  0  0  0  0  0  0  0
   -3.4951   -0.7720   -0.2875 H   0  0  0  0  0  0  0  0  0  0  0  0
   -3.3060    1.0448   -0.0016 H   0  0  0  0  0  0  0  0  0  0  0  0
   -1.4695   -1.7978    1.0965 H   0  0  0  0  0  0  0  0  0  0  0  0
    0.8065   -0.8392    1.8931 H   0  0  0  0  0  0  0  0  0  0  0  0
    2.0509   -2.3496    0.6686 H   0  0  0  0  0  0  0  0  0  0  0  0
    0.4912   -2.7896   -0.0581 H   0  0  0  0  0  0  0  0  0  0  0  0
    1.5469   -1.6527   -0.9252 H   0  0  0  0  0  0  0  0  0  0  0  0
    2.6439    1.6279    0.1047 H   0  0  0  0  0  0  0  0  0  0  0  0
    1.9928    1.1051   -1.4695 H   0  0  0  0  0  0  0  0  0  0  0  0
    2.8098   -0.1403   -0.3868 H   0  0  0  0  0  0  0  0  0  0  0  0
    0.5256    2.7363    0.3351 H   0  0  0  0  0  0  0  0  0  0  0  0
   -0.4519    1.7981    1.5858 H   0  0  0  0  0  0  0  0  0  0  0  0
   -0.3874    1.2989   -1.5364 H   0  0  0  0  0  0  0  0  0  0  0  0
  1  2  1  0
  2  3  2  0
  3  4  1  0
  4  5  1  0
  4  6  1  0
  6  7  1  0
  6  8  1  0
  8  9  1  0
  9  2  1  0
  9  6  1  0
  1 10  1  0
  1 11  1  0
  1 12  1  0
  3 13  1  0
  4 14  1  0
  5 15  1  0
  5 16  1  0
  5 17  1  0
  7 18  1  0
  7 19  1  0
  7 20  1  0
  8 21  1  0
  8 22  1  0
  9 23  1  0
M  END
