
     RDKit          3D

 19 20  0  0  0  0  0  0  0  0999 V2000
    2.5998    0.0666    0.0291 C   0  0  0  0  0  0  0  0  0  0  0  0
    1.1330    0.2781   -0.0640 C   0  0  0  0  0  0  0  0  0  0  0  0
    0.4520    1.2247   -0.7197 C   0  0  0  0  0  0  0  0  0  0  0  0
   -0.9798    0.8732   -0.3858 C   0  0  0  0  0  0  0  0  0  0  0  0
   -0.8344    0.5946    1.0907 C   0  0  0  0  0  0  0  0  0  0  0  0
    0.0619   -0.5279    0.5613 C   0  0  0  0  0  0  0  0  0  0  0  0
   -0.9164   -0.6245   -0.5849 C   0  0  0  0  0  0  0  0  0  0  0  0
   -2.1258   -1.3878   -0.3796 C   0  0  0  0  0  0  0  0  0  0  0  0
   -2.5917   -1.6799    0.7083 O   0  0  0  0  0  0  0  0  0  0  0  0
    2.9363   -0.7871   -0.6225 H   0  0  0  0  0  0  0  0  0  0  0  0
    2.8757   -0.2461    1.0638 H   0  0  0  0  0  0  0  0  0  0  0  0
    3.1359    1.0044   -0.2688 H   0  0  0  0  0  0  0  0  0  0  0  0
    0.8155    2.0388   -1.3344 H   0  0  0  0  0  0  0  0  0  0  0  0
   -1.7605    1.4463   -0.7673 H   0  0  0  0  0  0  0  0  0  0  0  0
   -1.7177    0.2806    1.6309 H   0  0  0  0  0  0  0  0  0  0  0  0
   -0.2928    1.3846    1.6357 H   0  0  0  0  0  0  0  0  0  0  0  0
    0.2681   -1.3506    1.1700 H   0  0  0  0  0  0  0  0  0  0  0  0
   -0.3710   -0.8432   -1.5260 H   0  0  0  0  0  0  0  0  0  0  0  0
   -2.6880   -1.7446   -1.2369 H   0  0  0  0  0  0  0  0  0  0  0  0
  1  2  1  0
  2  3  2  0
  3  4  1  0
  4  5  1  0
  5  6  1  0
  6  7  1  0
  7  8  1  0
  8  9  2  0
  6  2  1  0
  7  4  1  0
  1 10  1  0
  1 11  1  0
  1 12  1  0
  3 13  1  0
  4 14  1  0
  5 15  1  0
  5 16  1  0
  6 17  1  0
  7 18  1  0
  8 19  1  0
M  END
