
     RDKit          3D

 19 20  0  0  0  0  0  0  0  0999 V2000
    2.6727    0.0988   -0.1985 C   0  0  0  0  0  0  0  0  0  0  0  0
    1.1952    0.1995    0.0003 C   0  0  0  0  0  0  0  0  0  0  0  0
    0.4336    1.1693   -0.4265 C   0  0  0  0  0  0  0  0  0  0  0  0
   -0.9643    0.8964   -0.0271 C   0  0  0  0  0  0  0  0  0  0  0  0
   -1.5797   -0.2483   -0.8161 C   0  0  0  0  0  0  0  0  0  0  0  0
   -2.9625   -0.1938   -0.9264 O   0  0  0  0  0  0  0  0  0  0  0  0
   -1.0097   -0.4632    0.5186 C   0  0  0  0  0  0  0  0  0  0  0  0
   -1.9168   -0.8242    1.5144 O   0  0  0  0  0  0  0  0  0  0  0  0
    0.4312   -0.8214    0.7296 C   0  0  0  0  0  0  0  0  0  0  0  0
    2.9833   -0.9448   -0.2509 H   0  0  0  0  0  0  0  0  0  0  0  0
    2.9042    0.6094   -1.1627 H   0  0  0  0  0  0  0  0  0  0  0  0
    3.1482    0.6332    0.6529 H   0  0  0  0  0  0  0  0  0  0  0  0
    0.7598    2.0283   -0.9778 H   0  0  0  0  0  0  0  0  0  0  0  0
   -1.6164    1.7130    0.3319 H   0  0  0  0  0  0  0  0  0  0  0  0
   -1.0855   -0.5838   -1.7418 H   0  0  0  0  0  0  0  0  0  0  0  0
   -3.2385    0.0915   -1.8443 H   0  0  0  0  0  0  0  0  0  0  0  0
   -1.5290   -0.8139    2.4147 H   0  0  0  0  0  0  0  0  0  0  0  0
    0.7098   -0.6881    1.8141 H   0  0  0  0  0  0  0  0  0  0  0  0
    0.6645   -1.8579    0.3957 H   0  0  0  0  0  0  0  0  0  0  0  0
  1  2  1  0
  2  3  2  0
  3  4  1  0
  4  5  1  0
  5  6  1  0
  5  7  1  0
  7  8  1  0
  7  9  1  0
  9  2  1  0
  7  4  1  0
  1 10  1  0
  1 11  1  0
  1 12  1  0
  3 13  1  0
  4 14  1  0
  5 15  1  0
  6 16  1  0
  8 17  1  0
  9 18  1  0
  9 19  1  0
M  END
