
     RDKit          3D

 21 21  0  0  0  0  0  0  0  0999 V2000
   -1.9883    1.4637    0.2984 C   0  0  0  0  0  0  0  0  0  0  0  0
   -0.7317    0.7010    0.0444 C   0  0  0  0  0  0  0  0  0  0  0  0
    0.3693    1.3669   -0.1500 C   0  0  0  0  0  0  0  0  0  0  0  0
    1.6958    0.7556   -0.4139 C   0  0  0  0  0  0  0  0  0  0  0  0
    1.7554   -0.7046   -0.2665 C   0  0  0  0  0  0  0  0  0  0  0  0
    0.5661   -1.4269    0.2037 C   0  0  0  0  0  0  0  0  0  0  0  0
    0.7181   -1.8115    1.5588 O   0  0  0  0  0  0  0  0  0  0  0  0
   -0.7648   -0.7781    0.0196 C   0  0  0  0  0  0  0  0  0  0  0  0
   -1.4433   -1.2423   -1.1249 O   0  0  0  0  0  0  0  0  0  0  0  0
   -1.9445    2.4827   -0.1374 H   0  0  0  0  0  0  0  0  0  0  0  0
   -2.0356    1.5918    1.4191 H   0  0  0  0  0  0  0  0  0  0  0  0
   -2.8828    0.9398   -0.0422 H   0  0  0  0  0  0  0  0  0  0  0  0
    0.3474    2.4625   -0.1229 H   0  0  0  0  0  0  0  0  0  0  0  0
    2.4166    1.3000    0.2523 H   0  0  0  0  0  0  0  0  0  0  0  0
    1.9725    1.1045   -1.4533 H   0  0  0  0  0  0  0  0  0  0  0  0
    2.6106   -0.9381    0.4384 H   0  0  0  0  0  0  0  0  0  0  0  0
    2.1355   -1.1362   -1.2424 H   0  0  0  0  0  0  0  0  0  0  0  0
    0.5071   -2.4070   -0.3285 H   0  0  0  0  0  0  0  0  0  0  0  0
   -0.1602   -2.1277    1.9024 H   0  0  0  0  0  0  0  0  0  0  0  0
   -1.4239   -1.0948    0.8582 H   0  0  0  0  0  0  0  0  0  0  0  0
   -1.7193   -0.5012   -1.7132 H   0  0  0  0  0  0  0  0  0  0  0  0
  1  2  1  0
  2  3  2  0
  3  4  1  0
  4  5  1  0
  5  6  1  0
  6  7  1  0
  6  8  1  0
  8  9  1  0
  8  2  1  0
  1 10  1  0
  1 11  1  0
  1 12  1  0
  3 13  1  0
  4 14  1  0
  4 15  1  0
  5 16  1  0
  5 17  1  0
  6 18  1  0
  7 19  1  0
  8 20  1  0
  9 21  1  0
M  END
