
     RDKit          3D

 19 20  0  0  0  0  0  0  0  0999 V2000
    2.0821   -0.6368    0.2651 C   0  0  0  0  0  0  0  0  0  0  0  0
    0.8648    0.2158    0.1272 C   0  0  0  0  0  0  0  0  0  0  0  0
    0.9094    1.5259   -0.0474 C   0  0  0  0  0  0  0  0  0  0  0  0
   -0.4393    2.0688   -0.1460 C   0  0  0  0  0  0  0  0  0  0  0  0
   -0.8113    3.1524   -0.6033 O   0  0  0  0  0  0  0  0  0  0  0  0
   -1.3065    0.9985    0.4442 C   0  0  0  0  0  0  0  0  0  0  0  0
   -0.5131   -0.2193    0.1558 C   0  0  0  0  0  0  0  0  0  0  0  0
   -0.9747   -1.5860    0.3668 C   0  0  0  0  0  0  0  0  0  0  0  0
   -0.9173   -1.0938   -1.0478 C   0  0  0  0  0  0  0  0  0  0  0  0
    3.0071   -0.0959   -0.0284 H   0  0  0  0  0  0  0  0  0  0  0  0
    2.2138   -0.8961    1.3529 H   0  0  0  0  0  0  0  0  0  0  0  0
    2.0245   -1.5444   -0.3546 H   0  0  0  0  0  0  0  0  0  0  0  0
    1.7888    2.1837   -0.1188 H   0  0  0  0  0  0  0  0  0  0  0  0
   -2.2965    1.0427   -0.0472 H   0  0  0  0  0  0  0  0  0  0  0  0
   -1.3698    1.1783    1.5361 H   0  0  0  0  0  0  0  0  0  0  0  0
   -0.3283   -2.4094    0.6712 H   0  0  0  0  0  0  0  0  0  0  0  0
   -2.0287   -1.7037    0.7442 H   0  0  0  0  0  0  0  0  0  0  0  0
   -0.1007   -1.4609   -1.7121 H   0  0  0  0  0  0  0  0  0  0  0  0
   -1.8044   -0.7199   -1.5580 H   0  0  0  0  0  0  0  0  0  0  0  0
  1  2  1  0
  2  3  2  0
  3  4  1  0
  4  5  2  0
  4  6  1  0
  6  7  1  0
  7  8  1  0
  8  9  1  0
  7  2  1  0
  9  7  1  0
  1 10  1  0
  1 11  1  0
  1 12  1  0
  3 13  1  0
  6 14  1  0
  6 15  1  0
  8 16  1  0
  8 17  1  0
  9 18  1  0
  9 19  1  0
M  END
