
     RDKit          3D

 23 23  0  0  0  0  0  0  0  0999 V2000
    2.6856   -1.0146   -0.2567 C   0  0  0  0  0  0  0  0  0  0  0  0
    1.4114   -0.2903   -0.0036 C   0  0  0  0  0  0  0  0  0  0  0  0
    0.3439   -0.9814    0.3606 C   0  0  0  0  0  0  0  0  0  0  0  0
   -1.0344   -0.6216    0.6841 C   0  0  0  0  0  0  0  0  0  0  0  0
   -1.9343   -1.3883   -0.2612 C   0  0  0  0  0  0  0  0  0  0  0  0
   -1.3372    0.8281    0.7511 C   0  0  0  0  0  0  0  0  0  0  0  0
   -0.9989    1.6273   -0.4499 C   0  0  0  0  0  0  0  0  0  0  0  0
    0.4381    2.0099   -0.3708 C   0  0  0  0  0  0  0  0  0  0  0  0
    1.4338    1.1582   -0.1791 C   0  0  0  0  0  0  0  0  0  0  0  0
    2.4437   -1.9783   -0.7902 H   0  0  0  0  0  0  0  0  0  0  0  0
    3.3212   -0.4424   -0.9668 H   0  0  0  0  0  0  0  0  0  0  0  0
    3.2076   -1.2673    0.6875 H   0  0  0  0  0  0  0  0  0  0  0  0
    0.5428   -2.0410    0.4320 H   0  0  0  0  0  0  0  0  0  0  0  0
   -1.2500   -1.0474    1.7092 H   0  0  0  0  0  0  0  0  0  0  0  0
   -1.6700   -1.2053   -1.3173 H   0  0  0  0  0  0  0  0  0  0  0  0
   -2.9990   -1.2618   -0.0437 H   0  0  0  0  0  0  0  0  0  0  0  0
   -1.6967   -2.4730   -0.0779 H   0  0  0  0  0  0  0  0  0  0  0  0
   -0.8794    1.2772    1.6538 H   0  0  0  0  0  0  0  0  0  0  0  0
   -2.4487    0.9211    0.9154 H   0  0  0  0  0  0  0  0  0  0  0  0
   -1.1290    1.0207   -1.3722 H   0  0  0  0  0  0  0  0  0  0  0  0
   -1.6101    2.5538   -0.4899 H   0  0  0  0  0  0  0  0  0  0  0  0
    0.7090    3.0451   -0.4739 H   0  0  0  0  0  0  0  0  0  0  0  0
    2.4505    1.5713   -0.1406 H   0  0  0  0  0  0  0  0  0  0  0  0
  1  2  1  0
  2  3  2  0
  3  4  1  0
  4  5  1  0
  4  6  1  0
  6  7  1  0
  7  8  1  0
  8  9  2  0
  9  2  1  0
  1 10  1  0
  1 11  1  0
  1 12  1  0
  3 13  1  0
  4 14  1  0
  5 15  1  0
  5 16  1  0
  5 17  1  0
  6 18  1  0
  6 19  1  0
  7 20  1  0
  7 21  1  0
  8 22  1  0
  9 23  1  0
M  END
