
     RDKit          3D

 18 19  0  0  0  0  0  0  0  0999 V2000
    2.0071    1.2059    0.4173 C   0  0  0  0  0  0  0  0  0  0  0  0
    0.9787    0.1884    0.0997 C   0  0  0  0  0  0  0  0  0  0  0  0
   -0.2774    0.4440   -0.1478 C   0  0  0  0  0  0  0  0  0  0  0  0
   -1.6481    0.9089   -0.4002 C   0  0  0  0  0  0  0  0  0  0  0  0
   -2.0520   -0.4088    0.3094 C   0  0  0  0  0  0  0  0  0  0  0  0
   -0.8593   -0.9349   -0.4526 C   0  0  0  0  0  0  0  0  0  0  0  0
   -0.0139   -1.8061    0.2141 O   0  0  0  0  0  0  0  0  0  0  0  0
    1.2738   -1.2835    0.0486 C   0  0  0  0  0  0  0  0  0  0  0  0
    2.5963    0.9355    1.3228 H   0  0  0  0  0  0  0  0  0  0  0  0
    1.5612    2.1821    0.6058 H   0  0  0  0  0  0  0  0  0  0  0  0
    2.6569    1.3117   -0.4815 H   0  0  0  0  0  0  0  0  0  0  0  0
   -1.9964    1.7948    0.1228 H   0  0  0  0  0  0  0  0  0  0  0  0
   -1.9004    0.8576   -1.4879 H   0  0  0  0  0  0  0  0  0  0  0  0
   -3.0290   -0.7852    0.0182 H   0  0  0  0  0  0  0  0  0  0  0  0
   -1.8227   -0.3113    1.3785 H   0  0  0  0  0  0  0  0  0  0  0  0
   -0.9966   -1.0808   -1.5205 H   0  0  0  0  0  0  0  0  0  0  0  0
    1.8777   -1.6287    0.8837 H   0  0  0  0  0  0  0  0  0  0  0  0
    1.6441   -1.5896   -0.9303 H   0  0  0  0  0  0  0  0  0  0  0  0
  1  2  1  0
  2  3  2  0
  3  4  1  0
  4  5  1  0
  5  6  1  0
  6  7  1  0
  7  8  1  0
  8  2  1  0
  6  3  1  0
  1  9  1  0
  1 10  1  0
  1 11  1  0
  4 12  1  0
  4 13  1  0
  5 14  1  0
  5 15  1  0
  6 16  1  0
  8 17  1  0
  8 18  1  0
M  END
