
     RDKit          3D

 19 20  0  0  0  0  0  0  0  0999 V2000
    2.3289    0.1970    0.6824 C   0  0  0  0  0  0  0  0  0  0  0  0
    1.0445   -0.1784    0.0373 C   0  0  0  0  0  0  0  0  0  0  0  0
    0.4084   -1.3375    0.1073 C   0  0  0  0  0  0  0  0  0  0  0  0
   -0.8374   -1.1586   -0.6843 C   0  0  0  0  0  0  0  0  0  0  0  0
   -1.9406   -0.5286    0.1457 C   0  0  0  0  0  0  0  0  0  0  0  0
   -2.0854    0.7982   -0.2594 O   0  0  0  0  0  0  0  0  0  0  0  0
   -0.8578    1.4168   -0.0255 C   0  0  0  0  0  0  0  0  0  0  0  0
    0.2283    0.7202   -0.8277 C   0  0  0  0  0  0  0  0  0  0  0  0
   -0.3857   -0.2421   -1.6656 O   0  0  0  0  0  0  0  0  0  0  0  0
    2.5777   -0.4433    1.5466 H   0  0  0  0  0  0  0  0  0  0  0  0
    3.1435    0.1704   -0.0904 H   0  0  0  0  0  0  0  0  0  0  0  0
    2.2260    1.2478    1.0509 H   0  0  0  0  0  0  0  0  0  0  0  0
    0.7247   -2.2251    0.6276 H   0  0  0  0  0  0  0  0  0  0  0  0
   -1.1804   -2.1056   -1.1492 H   0  0  0  0  0  0  0  0  0  0  0  0
   -2.9238   -1.0208   -0.0581 H   0  0  0  0  0  0  0  0  0  0  0  0
   -1.7039   -0.5134    1.2266 H   0  0  0  0  0  0  0  0  0  0  0  0
   -0.6663    1.3077    1.0787 H   0  0  0  0  0  0  0  0  0  0  0  0
   -0.9245    2.4598   -0.3457 H   0  0  0  0  0  0  0  0  0  0  0  0
    0.8238    1.4355   -1.3973 H   0  0  0  0  0  0  0  0  0  0  0  0
  1  2  1  0
  2  3  2  0
  3  4  1  0
  4  5  1  0
  5  6  1  0
  6  7  1  0
  7  8  1  0
  8  9  1  0
  8  2  1  0
  9  4  1  0
  1 10  1  0
  1 11  1  0
  1 12  1  0
  3 13  1  0
  4 14  1  0
  5 15  1  0
  5 16  1  0
  7 17  1  0
  7 18  1  0
  8 19  1  0
M  END
