
     RDKit          3D

 21 21  0  0  0  0  0  0  0  0999 V2000
   -1.9311   -1.3944    0.2083 C   0  0  0  0  0  0  0  0  0  0  0  0
   -0.6223   -0.6962    0.2381 C   0  0  0  0  0  0  0  0  0  0  0  0
    0.5734   -1.2551    0.1172 C   0  0  0  0  0  0  0  0  0  0  0  0
    1.6263   -0.2097    0.2008 C   0  0  0  0  0  0  0  0  0  0  0  0
    2.8313   -0.5065   -0.5525 C   0  0  0  0  0  0  0  0  0  0  0  0
    3.9072   -0.5742    0.0283 O   0  0  0  0  0  0  0  0  0  0  0  0
    0.8485    0.9920   -0.3581 C   0  0  0  0  0  0  0  0  0  0  0  0
   -0.4372    0.7714    0.4127 C   0  0  0  0  0  0  0  0  0  0  0  0
   -1.5788    1.5827   -0.0629 C   0  0  0  0  0  0  0  0  0  0  0  0
   -2.3264   -1.4872    1.2394 H   0  0  0  0  0  0  0  0  0  0  0  0
   -2.6560   -0.9226   -0.4896 H   0  0  0  0  0  0  0  0  0  0  0  0
   -1.7680   -2.4499   -0.1478 H   0  0  0  0  0  0  0  0  0  0  0  0
    0.7242   -2.3121   -0.0200 H   0  0  0  0  0  0  0  0  0  0  0  0
    1.7994   -0.0001    1.2610 H   0  0  0  0  0  0  0  0  0  0  0  0
    2.8297   -0.6713   -1.6019 H   0  0  0  0  0  0  0  0  0  0  0  0
    1.3366    1.9386   -0.1443 H   0  0  0  0  0  0  0  0  0  0  0  0
    0.7209    0.7786   -1.4391 H   0  0  0  0  0  0  0  0  0  0  0  0
   -0.2068    0.9400    1.4883 H   0  0  0  0  0  0  0  0  0  0  0  0
   -2.5167    1.0193    0.1275 H   0  0  0  0  0  0  0  0  0  0  0  0
   -1.4944    1.9577   -1.0984 H   0  0  0  0  0  0  0  0  0  0  0  0
   -1.6598    2.4991    0.5931 H   0  0  0  0  0  0  0  0  0  0  0  0
  1  2  1  0
  2  3  2  0
  3  4  1  0
  4  5  1  0
  5  6  2  0
  4  7  1  0
  7  8  1  0
  8  9  1  0
  8  2  1  0
  1 10  1  0
  1 11  1  0
  1 12  1  0
  3 13  1  0
  4 14  1  0
  5 15  1  0
  7 16  1  0
  7 17  1  0
  8 18  1  0
  9 19  1  0
  9 20  1  0
  9 21  1  0
M  END
