
     RDKit          3D

 19 21  0  0  0  0  0  0  0  0999 V2000
    2.4175   -0.5807   -0.1634 C   0  0  0  0  0  0  0  0  0  0  0  0
    1.0107   -0.2595    0.1808 C   0  0  0  0  0  0  0  0  0  0  0  0
    0.2743   -0.8189    1.1337 C   0  0  0  0  0  0  0  0  0  0  0  0
   -1.0884   -0.2217    1.1654 C   0  0  0  0  0  0  0  0  0  0  0  0
   -1.9442   -0.6274    0.0113 C   0  0  0  0  0  0  0  0  0  0  0  0
   -1.2542    0.4322   -0.8105 C   0  0  0  0  0  0  0  0  0  0  0  0
   -0.8473    1.0741    0.4460 C   0  0  0  0  0  0  0  0  0  0  0  0
    0.1760    0.7716   -0.5260 C   0  0  0  0  0  0  0  0  0  0  0  0
    0.7886    1.6606   -1.3612 O   0  0  0  0  0  0  0  0  0  0  0  0
    3.1428   -0.0873    0.5280 H   0  0  0  0  0  0  0  0  0  0  0  0
    2.6209   -1.6680   -0.0892 H   0  0  0  0  0  0  0  0  0  0  0  0
    2.6562   -0.1936   -1.1745 H   0  0  0  0  0  0  0  0  0  0  0  0
    0.6770   -1.6087    1.7749 H   0  0  0  0  0  0  0  0  0  0  0  0
   -1.5604   -0.1611    2.1499 H   0  0  0  0  0  0  0  0  0  0  0  0
   -1.8830   -1.6494   -0.3464 H   0  0  0  0  0  0  0  0  0  0  0  0
   -3.0175   -0.3581    0.2142 H   0  0  0  0  0  0  0  0  0  0  0  0
   -1.7404    0.9281   -1.6437 H   0  0  0  0  0  0  0  0  0  0  0  0
   -1.1796    2.0227    0.8092 H   0  0  0  0  0  0  0  0  0  0  0  0
    0.7510    1.3451   -2.2986 H   0  0  0  0  0  0  0  0  0  0  0  0
  1  2  1  0
  2  3  2  0
  3  4  1  0
  4  5  1  0
  5  6  1  0
  6  7  1  0
  7  8  1  0
  8  9  1  0
  8  2  1  0
  7  4  1  0
  8  6  1  0
  1 10  1  0
  1 11  1  0
  1 12  1  0
  3 13  1  0
  4 14  1  0
  5 15  1  0
  5 16  1  0
  6 17  1  0
  7 18  1  0
  9 19  1  0
M  END
