
     RDKit          3D

 21 22  0  0  0  0  0  0  0  0999 V2000
    2.5585   -0.3309    0.3000 C   0  0  0  0  0  0  0  0  0  0  0  0
    1.1865   -0.0239   -0.1780 C   0  0  0  0  0  0  0  0  0  0  0  0
    0.9066    1.2698   -0.1934 C   0  0  0  0  0  0  0  0  0  0  0  0
   -0.3745    1.8642   -0.6191 C   0  0  0  0  0  0  0  0  0  0  0  0
   -1.5480    1.2360   -0.5896 C   0  0  0  0  0  0  0  0  0  0  0  0
   -1.9548   -0.0852   -0.1844 C   0  0  0  0  0  0  0  0  0  0  0  0
   -1.4268   -0.4703    1.2319 C   0  0  0  0  0  0  0  0  0  0  0  0
   -1.0424   -1.1694   -0.0194 C   0  0  0  0  0  0  0  0  0  0  0  0
    0.3308   -1.1438   -0.5655 C   0  0  0  0  0  0  0  0  0  0  0  0
    2.7284    0.1273    1.2833 H   0  0  0  0  0  0  0  0  0  0  0  0
    2.6833   -1.4315    0.4058 H   0  0  0  0  0  0  0  0  0  0  0  0
    3.3347    0.0161   -0.4128 H   0  0  0  0  0  0  0  0  0  0  0  0
    1.6482    1.9747    0.1229 H   0  0  0  0  0  0  0  0  0  0  0  0
   -0.3243    2.8895   -0.9754 H   0  0  0  0  0  0  0  0  0  0  0  0
   -2.3330    1.8838   -0.9517 H   0  0  0  0  0  0  0  0  0  0  0  0
   -3.0518   -0.3235   -0.3315 H   0  0  0  0  0  0  0  0  0  0  0  0
   -2.1875   -0.9256    1.9150 H   0  0  0  0  0  0  0  0  0  0  0  0
   -0.7654    0.2243    1.7457 H   0  0  0  0  0  0  0  0  0  0  0  0
   -1.4945   -2.2111   -0.0899 H   0  0  0  0  0  0  0  0  0  0  0  0
    0.8527   -2.0855   -0.2161 H   0  0  0  0  0  0  0  0  0  0  0  0
    0.2733   -1.2850   -1.6777 H   0  0  0  0  0  0  0  0  0  0  0  0
  1  2  1  0
  2  3  2  0
  3  4  1  0
  4  5  2  0
  5  6  1  0
  6  7  1  0
  7  8  1  0
  8  9  1  0
  9  2  1  0
  8  6  1  0
  1 10  1  0
  1 11  1  0
  1 12  1  0
  3 13  1  0
  4 14  1  0
  5 15  1  0
  6 16  1  0
  7 17  1  0
  7 18  1  0
  8 19  1  0
  9 20  1  0
  9 21  1  0
M  END
