
     RDKit          3D

 23 24  0  0  0  0  0  0  0  0999 V2000
   -2.5657   -0.0279    0.4442 C   0  0  0  0  0  0  0  0  0  0  0  0
   -1.1695   -0.2952    0.0719 C   0  0  0  0  0  0  0  0  0  0  0  0
   -0.1683    0.5910    0.0001 C   0  0  0  0  0  0  0  0  0  0  0  0
   -0.3676    2.0790    0.3104 C   0  0  0  0  0  0  0  0  0  0  0  0
    1.0757    0.0075   -0.3607 C   0  0  0  0  0  0  0  0  0  0  0  0
    0.5168   -0.9467   -1.2929 C   0  0  0  0  0  0  0  0  0  0  0  0
   -0.5412   -1.6064   -0.3589 C   0  0  0  0  0  0  0  0  0  0  0  0
    1.7853    0.1679    0.8892 C   0  0  0  0  0  0  0  0  0  0  0  0
    2.4064   -0.4309   -0.1525 C   0  0  0  0  0  0  0  0  0  0  0  0
   -3.0519    0.7626   -0.1736 H   0  0  0  0  0  0  0  0  0  0  0  0
   -2.6825    0.3176    1.5016 H   0  0  0  0  0  0  0  0  0  0  0  0
   -3.1379   -0.9843    0.3623 H   0  0  0  0  0  0  0  0  0  0  0  0
   -1.3623    2.3576   -0.0592 H   0  0  0  0  0  0  0  0  0  0  0  0
   -0.3287    2.2562    1.3847 H   0  0  0  0  0  0  0  0  0  0  0  0
    0.3701    2.6558   -0.2832 H   0  0  0  0  0  0  0  0  0  0  0  0
   -0.0875   -0.3823   -2.0549 H   0  0  0  0  0  0  0  0  0  0  0  0
    1.0661   -1.6926   -1.8264 H   0  0  0  0  0  0  0  0  0  0  0  0
   -0.0724   -2.1398    0.4619 H   0  0  0  0  0  0  0  0  0  0  0  0
   -1.2259   -2.1480   -1.0015 H   0  0  0  0  0  0  0  0  0  0  0  0
    1.9986    1.2491    1.1659 H   0  0  0  0  0  0  0  0  0  0  0  0
    1.6065   -0.4020    1.8316 H   0  0  0  0  0  0  0  0  0  0  0  0
    2.7695   -1.5033   -0.0614 H   0  0  0  0  0  0  0  0  0  0  0  0
    3.1665    0.1150   -0.7987 H   0  0  0  0  0  0  0  0  0  0  0  0
  1  2  1  0
  2  3  2  0
  3  4  1  0
  3  5  1  0
  5  6  1  0
  6  7  1  0
  5  8  1  0
  8  9  1  0
  7  2  1  0
  9  5  1  0
  1 10  1  0
  1 11  1  0
  1 12  1  0
  4 13  1  0
  4 14  1  0
  4 15  1  0
  6 16  1  0
  6 17  1  0
  7 18  1  0
  7 19  1  0
  8 20  1  0
  8 21  1  0
  9 22  1  0
  9 23  1  0
M  END
