
     RDKit          3D

 15 16  0  0  0  0  0  0  0  0999 V2000
   -2.0902   -0.1854   -0.0345 C   0  0  0  0  0  0  0  0  0  0  0  0
   -0.6192   -0.1226   -0.0606 C   0  0  0  0  0  0  0  0  0  0  0  0
    0.1748   -1.1695    0.0079 C   0  0  0  0  0  0  0  0  0  0  0  0
    1.5956   -0.7899   -0.0417 C   0  0  0  0  0  0  0  0  0  0  0  0
    2.0632   -0.0390    1.0267 O   0  0  0  0  0  0  0  0  0  0  0  0
    1.6335    0.7015   -0.0873 C   0  0  0  0  0  0  0  0  0  0  0  0
    0.1973    1.1051   -0.1661 C   0  0  0  0  0  0  0  0  0  0  0  0
   -2.5409    0.4053    0.7946 H   0  0  0  0  0  0  0  0  0  0  0  0
   -2.4543    0.2244   -1.0060 H   0  0  0  0  0  0  0  0  0  0  0  0
   -2.4657   -1.2204    0.0296 H   0  0  0  0  0  0  0  0  0  0  0  0
   -0.1565   -2.2112    0.0922 H   0  0  0  0  0  0  0  0  0  0  0  0
    2.3074   -1.3333   -0.6868 H   0  0  0  0  0  0  0  0  0  0  0  0
    2.3943    1.1996   -0.7106 H   0  0  0  0  0  0  0  0  0  0  0  0
    0.0345    1.5667   -1.1679 H   0  0  0  0  0  0  0  0  0  0  0  0
   -0.0737    1.8689    0.5886 H   0  0  0  0  0  0  0  0  0  0  0  0
  1  2  1  0
  2  3  2  0
  3  4  1  0
  4  5  1  0
  5  6  1  0
  6  7  1  0
  7  2  1  0
  6  4  1  0
  1  8  1  0
  1  9  1  0
  1 10  1  0
  3 11  1  0
  4 12  1  0
  6 13  1  0
  7 14  1  0
  7 15  1  0
M  END
