
     RDKit          3D

 17 17  0  0  0  0  0  0  0  0999 V2000
    2.3925   -0.0600    0.1119 C   0  0  0  0  0  0  0  0  0  0  0  0
    0.8865   -0.1167    0.0641 C   0  0  0  0  0  0  0  0  0  0  0  0
    0.1552   -0.5947   -0.9277 C   0  0  0  0  0  0  0  0  0  0  0  0
   -1.2797   -0.4972   -0.6486 C   0  0  0  0  0  0  0  0  0  0  0  0
   -1.8398   -1.6401   -0.1341 O   0  0  0  0  0  0  0  0  0  0  0  0
   -1.2917    0.6540    0.3652 C   0  0  0  0  0  0  0  0  0  0  0  0
   -1.0612    1.8106   -0.3643 O   0  0  0  0  0  0  0  0  0  0  0  0
   -0.0388    0.3375    1.0956 C   0  0  0  0  0  0  0  0  0  0  0  0
    0.2252    0.4213    2.3209 O   0  0  0  0  0  0  0  0  0  0  0  0
    2.7285   -0.0341   -0.9407 H   0  0  0  0  0  0  0  0  0  0  0  0
    2.7276   -0.9955    0.5912 H   0  0  0  0  0  0  0  0  0  0  0  0
    2.7562    0.8494    0.5960 H   0  0  0  0  0  0  0  0  0  0  0  0
    0.5857   -1.0024   -1.8248 H   0  0  0  0  0  0  0  0  0  0  0  0
   -1.8796   -0.1543   -1.5026 H   0  0  0  0  0  0  0  0  0  0  0  0
   -1.2253   -2.1926    0.3991 H   0  0  0  0  0  0  0  0  0  0  0  0
   -2.1793    0.6703    0.9740 H   0  0  0  0  0  0  0  0  0  0  0  0
   -1.6621    2.5446   -0.1754 H   0  0  0  0  0  0  0  0  0  0  0  0
  1  2  1  0
  2  3  2  0
  3  4  1  0
  4  5  1  0
  4  6  1  0
  6  7  1  0
  6  8  1  0
  8  9  2  0
  8  2  1  0
  1 10  1  0
  1 11  1  0
  1 12  1  0
  3 13  1  0
  4 14  1  0
  5 15  1  0
  6 16  1  0
  7 17  1  0
M  END
