
     RDKit          3D

 16 18  0  0  0  0  0  0  0  0999 V2000
    2.2745    0.1054    0.1077 C   0  0  0  0  0  0  0  0  0  0  0  0
    0.7962    0.0173    0.1930 C   0  0  0  0  0  0  0  0  0  0  0  0
    0.0679   -0.4315    1.1907 C   0  0  0  0  0  0  0  0  0  0  0  0
   -1.3852   -0.3479    0.8732 C   0  0  0  0  0  0  0  0  0  0  0  0
   -1.6948   -1.3112   -0.0799 O   0  0  0  0  0  0  0  0  0  0  0  0
   -1.3159   -0.4741   -1.1149 C   0  0  0  0  0  0  0  0  0  0  0  0
   -0.1308    0.4528   -0.9103 C   0  0  0  0  0  0  0  0  0  0  0  0
   -1.3952    0.6710   -0.2222 C   0  0  0  0  0  0  0  0  0  0  0  0
    2.7388   -0.9102    0.2687 H   0  0  0  0  0  0  0  0  0  0  0  0
    2.6166    0.4422   -0.8755 H   0  0  0  0  0  0  0  0  0  0  0  0
    2.6973    0.8341    0.8548 H   0  0  0  0  0  0  0  0  0  0  0  0
    0.4283   -0.8195    2.1352 H   0  0  0  0  0  0  0  0  0  0  0  0
   -2.0667   -0.2235    1.7033 H   0  0  0  0  0  0  0  0  0  0  0  0
   -1.8296   -0.5012   -2.0844 H   0  0  0  0  0  0  0  0  0  0  0  0
    0.2468    0.9855   -1.7676 H   0  0  0  0  0  0  0  0  0  0  0  0
   -2.0483    1.5108   -0.2717 H   0  0  0  0  0  0  0  0  0  0  0  0
  1  2  1  0
  2  3  2  0
  3  4  1  0
  4  5  1  0
  5  6  1  0
  6  7  1  0
  7  8  1  0
  7  2  1  0
  8  4  1  0
  8  6  1  0
  1  9  1  0
  1 10  1  0
  1 11  1  0
  3 12  1  0
  4 13  1  0
  6 14  1  0
  7 15  1  0
  8 16  1  0
M  END
