
     RDKit          3D

 20 20  0  0  0  0  0  0  0  0999 V2000
   -2.5999    0.3866    0.9698 C   0  0  0  0  0  0  0  0  0  0  0  0
   -1.2847    0.1116    0.3468 C   0  0  0  0  0  0  0  0  0  0  0  0
   -0.2129    0.8916    0.3181 C   0  0  0  0  0  0  0  0  0  0  0  0
    0.8685    0.2028   -0.4160 C   0  0  0  0  0  0  0  0  0  0  0  0
    2.2455    0.5871    0.0265 C   0  0  0  0  0  0  0  0  0  0  0  0
    2.3838    0.2724    1.3701 O   0  0  0  0  0  0  0  0  0  0  0  0
    0.5327   -1.2374   -0.1051 C   0  0  0  0  0  0  0  0  0  0  0  0
   -0.9817   -1.1820   -0.3743 C   0  0  0  0  0  0  0  0  0  0  0  0
   -2.4903    1.2693    1.6365 H   0  0  0  0  0  0  0  0  0  0  0  0
   -2.9637   -0.4351    1.6091 H   0  0  0  0  0  0  0  0  0  0  0  0
   -3.3482    0.6277    0.1966 H   0  0  0  0  0  0  0  0  0  0  0  0
   -0.2194    1.8809    0.7933 H   0  0  0  0  0  0  0  0  0  0  0  0
    0.7016    0.4074   -1.5008 H   0  0  0  0  0  0  0  0  0  0  0  0
    2.9706   -0.0424   -0.5271 H   0  0  0  0  0  0  0  0  0  0  0  0
    2.3802    1.6619   -0.1700 H   0  0  0  0  0  0  0  0  0  0  0  0
    2.9251    1.0093    1.7809 H   0  0  0  0  0  0  0  0  0  0  0  0
    0.6775   -1.3693    0.9820 H   0  0  0  0  0  0  0  0  0  0  0  0
    1.0370   -1.9605   -0.7310 H   0  0  0  0  0  0  0  0  0  0  0  0
   -1.1149   -1.0511   -1.4642 H   0  0  0  0  0  0  0  0  0  0  0  0
   -1.5071   -2.0307    0.0565 H   0  0  0  0  0  0  0  0  0  0  0  0
  1  2  1  0
  2  3  2  0
  3  4  1  0
  4  5  1  0
  5  6  1  0
  4  7  1  0
  7  8  1  0
  8  2  1  0
  1  9  1  0
  1 10  1  0
  1 11  1  0
  3 12  1  0
  4 13  1  0
  5 14  1  0
  5 15  1  0
  6 16  1  0
  7 17  1  0
  7 18  1  0
  8 19  1  0
  8 20  1  0
M  END
