
     RDKit          3D

 21 22  0  0  0  0  0  0  0  0999 V2000
    2.3488   -0.5068   -0.5223 C   0  0  0  0  0  0  0  0  0  0  0  0
    0.8689   -0.5505   -0.1831 C   0  0  0  0  0  0  0  0  0  0  0  0
    0.1670   -1.6285    0.0918 C   0  0  0  0  0  0  0  0  0  0  0  0
   -1.2390   -1.4101    0.3870 C   0  0  0  0  0  0  0  0  0  0  0  0
   -2.1809   -0.6329   -0.4288 C   0  0  0  0  0  0  0  0  0  0  0  0
   -1.2844    0.1279    0.4761 C   0  0  0  0  0  0  0  0  0  0  0  0
   -0.0181    0.6250   -0.1175 C   0  0  0  0  0  0  0  0  0  0  0  0
    0.5529    1.7276    0.7542 C   0  0  0  0  0  0  0  0  0  0  0  0
   -0.3011    1.1182   -1.4038 O   0  0  0  0  0  0  0  0  0  0  0  0
    2.5676    0.4566   -1.0034 H   0  0  0  0  0  0  0  0  0  0  0  0
    2.9630   -0.5761    0.3914 H   0  0  0  0  0  0  0  0  0  0  0  0
    2.5965   -1.3611   -1.1722 H   0  0  0  0  0  0  0  0  0  0  0  0
    0.6122   -2.6434    0.1000 H   0  0  0  0  0  0  0  0  0  0  0  0
   -1.6490   -1.9553    1.2883 H   0  0  0  0  0  0  0  0  0  0  0  0
   -2.0680   -0.5574   -1.5309 H   0  0  0  0  0  0  0  0  0  0  0  0
   -3.2433   -0.6781   -0.1125 H   0  0  0  0  0  0  0  0  0  0  0  0
   -1.6758    0.5290    1.4243 H   0  0  0  0  0  0  0  0  0  0  0  0
    1.2452    1.3565    1.5089 H   0  0  0  0  0  0  0  0  0  0  0  0
   -0.3069    2.2007    1.2775 H   0  0  0  0  0  0  0  0  0  0  0  0
    0.9855    2.4988    0.0811 H   0  0  0  0  0  0  0  0  0  0  0  0
   -0.9413    1.8598   -1.3062 H   0  0  0  0  0  0  0  0  0  0  0  0
  1  2  1  0
  2  3  2  0
  3  4  1  0
  4  5  1  0
  5  6  1  0
  6  7  1  0
  7  8  1  0
  7  9  1  0
  7  2  1  0
  6  4  1  0
  1 10  1  0
  1 11  1  0
  1 12  1  0
  3 13  1  0
  4 14  1  0
  5 15  1  0
  5 16  1  0
  6 17  1  0
  8 18  1  0
  8 19  1  0
  8 20  1  0
  9 21  1  0
M  END
