
     RDKit          3D

 23 24  0  0  0  0  0  0  0  0999 V2000
   -3.0415    0.0072    0.1846 C   0  0  0  0  0  0  0  0  0  0  0  0
   -1.5785    0.0123   -0.1303 C   0  0  0  0  0  0  0  0  0  0  0  0
   -0.9862   -0.9880   -0.7409 C   0  0  0  0  0  0  0  0  0  0  0  0
    0.4515   -0.9692   -1.0434 C   0  0  0  0  0  0  0  0  0  0  0  0
    1.2625   -0.2156   -0.0332 C   0  0  0  0  0  0  0  0  0  0  0  0
    2.3159   -1.0011    0.7117 C   0  0  0  0  0  0  0  0  0  0  0  0
    1.6654    1.2172   -0.3113 C   0  0  0  0  0  0  0  0  0  0  0  0
    0.5743    0.8311    0.7044 C   0  0  0  0  0  0  0  0  0  0  0  0
   -0.7991    1.1915    0.2651 C   0  0  0  0  0  0  0  0  0  0  0  0
   -3.5255    0.9302   -0.1931 H   0  0  0  0  0  0  0  0  0  0  0  0
   -3.5743   -0.8405   -0.2444 H   0  0  0  0  0  0  0  0  0  0  0  0
   -3.1248   -0.0525    1.2905 H   0  0  0  0  0  0  0  0  0  0  0  0
   -1.5795   -1.8418   -1.0244 H   0  0  0  0  0  0  0  0  0  0  0  0
    0.6680   -0.5600   -2.0711 H   0  0  0  0  0  0  0  0  0  0  0  0
    0.8111   -2.0164   -1.0581 H   0  0  0  0  0  0  0  0  0  0  0  0
    1.9030   -1.6270    1.5214 H   0  0  0  0  0  0  0  0  0  0  0  0
    3.1549   -0.3515    1.0712 H   0  0  0  0  0  0  0  0  0  0  0  0
    2.7983   -1.6857   -0.0390 H   0  0  0  0  0  0  0  0  0  0  0  0
    2.5750    1.6216    0.1535 H   0  0  0  0  0  0  0  0  0  0  0  0
    1.3637    1.6884   -1.2513 H   0  0  0  0  0  0  0  0  0  0  0  0
    0.7908    0.9841    1.7775 H   0  0  0  0  0  0  0  0  0  0  0  0
   -0.7888    1.8907   -0.6088 H   0  0  0  0  0  0  0  0  0  0  0  0
   -1.3362    1.7750    1.0694 H   0  0  0  0  0  0  0  0  0  0  0  0
  1  2  1  0
  2  3  2  0
  3  4  1  0
  4  5  1  0
  5  6  1  0
  5  7  1  0
  7  8  1  0
  8  9  1  0
  9  2  1  0
  8  5  1  0
  1 10  1  0
  1 11  1  0
  1 12  1  0
  3 13  1  0
  4 14  1  0
  4 15  1  0
  6 16  1  0
  6 17  1  0
  6 18  1  0
  7 19  1  0
  7 20  1  0
  8 21  1  0
  9 22  1  0
  9 23  1  0
M  END
