
     RDKit          3D

 21 22  0  0  0  0  0  0  0  0999 V2000
   -2.0695   -1.5449   -0.0974 C   0  0  0  0  0  0  0  0  0  0  0  0
   -1.0471   -0.4767    0.0613 C   0  0  0  0  0  0  0  0  0  0  0  0
    0.2131   -0.7412   -0.2467 C   0  0  0  0  0  0  0  0  0  0  0  0
    1.2979    0.2768   -0.1151 C   0  0  0  0  0  0  0  0  0  0  0  0
    2.5852   -0.4154    0.2423 C   0  0  0  0  0  0  0  0  0  0  0  0
    0.8120    1.2443    0.8815 C   0  0  0  0  0  0  0  0  0  0  0  0
    0.4574    2.5119    0.8336 O   0  0  0  0  0  0  0  0  0  0  0  0
   -0.4481    1.8159    0.1757 C   0  0  0  0  0  0  0  0  0  0  0  0
   -1.4884    0.8564    0.5640 C   0  0  0  0  0  0  0  0  0  0  0  0
   -2.2823   -1.7403   -1.1621 H   0  0  0  0  0  0  0  0  0  0  0  0
   -3.0168   -1.3046    0.4159 H   0  0  0  0  0  0  0  0  0  0  0  0
   -1.6758   -2.5021    0.3351 H   0  0  0  0  0  0  0  0  0  0  0  0
    0.5016   -1.7167   -0.6087 H   0  0  0  0  0  0  0  0  0  0  0  0
    1.4198    0.8089   -1.0966 H   0  0  0  0  0  0  0  0  0  0  0  0
    3.0485    0.1681    1.0770 H   0  0  0  0  0  0  0  0  0  0  0  0
    2.3848   -1.4623    0.5306 H   0  0  0  0  0  0  0  0  0  0  0  0
    3.2408   -0.4452   -0.6555 H   0  0  0  0  0  0  0  0  0  0  0  0
    0.6490    0.7757    1.8895 H   0  0  0  0  0  0  0  0  0  0  0  0
   -0.3839    1.9514   -0.9401 H   0  0  0  0  0  0  0  0  0  0  0  0
   -2.4278    1.0966   -0.0147 H   0  0  0  0  0  0  0  0  0  0  0  0
   -1.7702    0.8434    1.6284 H   0  0  0  0  0  0  0  0  0  0  0  0
  1  2  1  0
  2  3  2  0
  3  4  1  0
  4  5  1  0
  4  6  1  0
  6  7  1  0
  7  8  1  0
  8  9  1  0
  9  2  1  0
  8  6  1  0
  1 10  1  0
  1 11  1  0
  1 12  1  0
  3 13  1  0
  4 14  1  0
  5 15  1  0
  5 16  1  0
  5 17  1  0
  6 18  1  0
  8 19  1  0
  9 20  1  0
  9 21  1  0
M  END
