
     RDKit          3D

 19 21  0  0  0  0  0  0  0  0999 V2000
   -2.3584   -0.8755    0.1546 C   0  0  0  0  0  0  0  0  0  0  0  0
   -1.1026   -0.1190   -0.0321 C   0  0  0  0  0  0  0  0  0  0  0  0
   -0.8098    1.0498    0.5131 C   0  0  0  0  0  0  0  0  0  0  0  0
    0.5244    1.5117    0.1120 C   0  0  0  0  0  0  0  0  0  0  0  0
    1.7169    0.6411    0.1758 C   0  0  0  0  0  0  0  0  0  0  0  0
    1.6396   -0.7720    0.6652 C   0  0  0  0  0  0  0  0  0  0  0  0
    0.7700   -1.4747   -0.1145 O   0  0  0  0  0  0  0  0  0  0  0  0
    0.0303   -0.5779   -0.8773 C   0  0  0  0  0  0  0  0  0  0  0  0
    0.8716    0.6545   -1.0388 C   0  0  0  0  0  0  0  0  0  0  0  0
   -2.4239   -1.3582    1.1568 H   0  0  0  0  0  0  0  0  0  0  0  0
   -3.2690   -0.2469    0.0590 H   0  0  0  0  0  0  0  0  0  0  0  0
   -2.4603   -1.6884   -0.5977 H   0  0  0  0  0  0  0  0  0  0  0  0
   -1.4802    1.5865    1.1706 H   0  0  0  0  0  0  0  0  0  0  0  0
    0.7264    2.5938   -0.0206 H   0  0  0  0  0  0  0  0  0  0  0  0
    2.7041    1.0916    0.1674 H   0  0  0  0  0  0  0  0  0  0  0  0
    1.3881   -0.8244    1.7655 H   0  0  0  0  0  0  0  0  0  0  0  0
    2.6416   -1.2415    0.5837 H   0  0  0  0  0  0  0  0  0  0  0  0
   -0.3041   -0.9704   -1.8348 H   0  0  0  0  0  0  0  0  0  0  0  0
    1.1953    1.0199   -2.0080 H   0  0  0  0  0  0  0  0  0  0  0  0
  1  2  1  0
  2  3  2  0
  3  4  1  0
  4  5  1  0
  5  6  1  0
  6  7  1  0
  7  8  1  0
  8  9  1  0
  8  2  1  0
  9  4  1  0
  9  5  1  0
  1 10  1  0
  1 11  1  0
  1 12  1  0
  3 13  1  0
  4 14  1  0
  5 15  1  0
  6 16  1  0
  6 17  1  0
  8 18  1  0
  9 19  1  0
M  END
