
     RDKit          3D

 17 17  0  0  0  0  0  0  0  0999 V2000
   -2.0147   -0.3269    0.0470 C   0  0  0  0  0  0  0  0  0  0  0  0
   -0.5356   -0.2926   -0.0901 C   0  0  0  0  0  0  0  0  0  0  0  0
    0.2341    0.7600    0.1219 C   0  0  0  0  0  0  0  0  0  0  0  0
   -0.2730    2.0647    0.5291 C   0  0  0  0  0  0  0  0  0  0  0  0
    0.5074    3.0316    0.7165 O   0  0  0  0  0  0  0  0  0  0  0  0
    1.6724    0.4041   -0.1152 C   0  0  0  0  0  0  0  0  0  0  0  0
    1.6197   -1.0963    0.0631 C   0  0  0  0  0  0  0  0  0  0  0  0
    2.4695   -1.8247    0.5475 O   0  0  0  0  0  0  0  0  0  0  0  0
    0.2877   -1.4584   -0.4935 C   0  0  0  0  0  0  0  0  0  0  0  0
   -2.3612   -1.3679    0.1823 H   0  0  0  0  0  0  0  0  0  0  0  0
   -2.5368    0.0739   -0.8330 H   0  0  0  0  0  0  0  0  0  0  0  0
   -2.3765    0.2421    0.9247 H   0  0  0  0  0  0  0  0  0  0  0  0
   -1.3241    2.2537    0.6847 H   0  0  0  0  0  0  0  0  0  0  0  0
    2.3484    0.8772    0.5973 H   0  0  0  0  0  0  0  0  0  0  0  0
    1.9573    0.5742   -1.1754 H   0  0  0  0  0  0  0  0  0  0  0  0
   -0.0989   -2.4168   -0.0978 H   0  0  0  0  0  0  0  0  0  0  0  0
    0.4244   -1.4979   -1.6089 H   0  0  0  0  0  0  0  0  0  0  0  0
  1  2  1  0
  2  3  2  0
  3  4  1  0
  4  5  2  0
  3  6  1  0
  6  7  1  0
  7  8  2  0
  7  9  1  0
  9  2  1  0
  1 10  1  0
  1 11  1  0
  1 12  1  0
  4 13  1  0
  6 14  1  0
  6 15  1  0
  9 16  1  0
  9 17  1  0
M  END
