
     RDKit          3D

 16 17  0  0  0  0  0  0  0  0999 V2000
    2.1849   -0.3424   -0.0217 C   0  0  0  0  0  0  0  0  0  0  0  0
    0.7179   -0.1997   -0.1420 C   0  0  0  0  0  0  0  0  0  0  0  0
   -0.1681   -0.9047   -0.8487 C   0  0  0  0  0  0  0  0  0  0  0  0
   -1.4486   -0.2360   -0.5257 C   0  0  0  0  0  0  0  0  0  0  0  0
   -1.2972   -0.0906    0.9926 C   0  0  0  0  0  0  0  0  0  0  0  0
   -0.1385    0.8089    0.5293 C   0  0  0  0  0  0  0  0  0  0  0  0
   -1.0630    1.1940   -0.5565 C   0  0  0  0  0  0  0  0  0  0  0  0
   -1.3339    2.2109   -1.1496 O   0  0  0  0  0  0  0  0  0  0  0  0
    2.4829    0.0072    0.9780 H   0  0  0  0  0  0  0  0  0  0  0  0
    2.6764    0.3230   -0.7718 H   0  0  0  0  0  0  0  0  0  0  0  0
    2.5547   -1.3602   -0.1597 H   0  0  0  0  0  0  0  0  0  0  0  0
   -0.0454   -1.7506   -1.5024 H   0  0  0  0  0  0  0  0  0  0  0  0
   -2.3586   -0.5667   -0.9171 H   0  0  0  0  0  0  0  0  0  0  0  0
   -0.9115   -1.0220    1.4007 H   0  0  0  0  0  0  0  0  0  0  0  0
   -2.1072    0.4207    1.4950 H   0  0  0  0  0  0  0  0  0  0  0  0
    0.2554    1.5083    1.1995 H   0  0  0  0  0  0  0  0  0  0  0  0
  1  2  1  0
  2  3  2  0
  3  4  1  0
  4  5  1  0
  5  6  1  0
  6  7  1  0
  7  8  2  0
  6  2  1  0
  7  4  1  0
  1  9  1  0
  1 10  1  0
  1 11  1  0
  3 12  1  0
  4 13  1  0
  5 14  1  0
  5 15  1  0
  6 16  1  0
M  END
