
     RDKit          3D

 17 17  0  0  0  0  0  0  0  0999 V2000
   -2.4897   -0.6727    0.7786 C   0  0  0  0  0  0  0  0  0  0  0  0
   -1.2354   -0.1134    0.1841 C   0  0  0  0  0  0  0  0  0  0  0  0
   -0.1256   -0.7363   -0.1379 C   0  0  0  0  0  0  0  0  0  0  0  0
    0.8208    0.2271   -0.6852 C   0  0  0  0  0  0  0  0  0  0  0  0
    2.1014    0.3364    0.1069 C   0  0  0  0  0  0  0  0  0  0  0  0
    2.8078   -0.8674    0.1118 O   0  0  0  0  0  0  0  0  0  0  0  0
    0.1657    1.4539   -0.6520 O   0  0  0  0  0  0  0  0  0  0  0  0
   -1.1027    1.2976   -0.1255 C   0  0  0  0  0  0  0  0  0  0  0  0
   -1.9751    2.2117    0.0501 O   0  0  0  0  0  0  0  0  0  0  0  0
   -2.7806    0.0260    1.5913 H   0  0  0  0  0  0  0  0  0  0  0  0
   -3.2663   -0.6625   -0.0140 H   0  0  0  0  0  0  0  0  0  0  0  0
   -2.3349   -1.7065    1.1523 H   0  0  0  0  0  0  0  0  0  0  0  0
    0.0716   -1.7938   -0.0222 H   0  0  0  0  0  0  0  0  0  0  0  0
    1.1045    0.0325   -1.7386 H   0  0  0  0  0  0  0  0  0  0  0  0
    2.7181    1.1262   -0.3932 H   0  0  0  0  0  0  0  0  0  0  0  0
    1.9283    0.6194    1.1609 H   0  0  0  0  0  0  0  0  0  0  0  0
    3.5922   -0.7782   -0.4916 H   0  0  0  0  0  0  0  0  0  0  0  0
  1  2  1  0
  2  3  2  0
  3  4  1  0
  4  5  1  0
  5  6  1  0
  4  7  1  0
  7  8  1  0
  8  9  2  0
  8  2  1  0
  1 10  1  0
  1 11  1  0
  1 12  1  0
  3 13  1  0
  4 14  1  0
  5 15  1  0
  5 16  1  0
  6 17  1  0
M  END
