
     RDKit          3D

 21 21  0  0  0  0  0  0  0  0999 V2000
    2.5755    0.8932   -0.0310 C   0  0  0  0  0  0  0  0  0  0  0  0
    1.1525    0.4813   -0.0296 C   0  0  0  0  0  0  0  0  0  0  0  0
    0.2805    1.3066    0.5152 C   0  0  0  0  0  0  0  0  0  0  0  0
   -1.1688    1.1759    0.6625 C   0  0  0  0  0  0  0  0  0  0  0  0
   -1.6585    1.9915    1.4864 O   0  0  0  0  0  0  0  0  0  0  0  0
   -2.1200    0.2763    0.0264 C   0  0  0  0  0  0  0  0  0  0  0  0
   -1.6429   -1.0639   -0.3369 C   0  0  0  0  0  0  0  0  0  0  0  0
   -0.2765   -1.4446    0.1246 C   0  0  0  0  0  0  0  0  0  0  0  0
    0.8416   -0.8316   -0.6469 C   0  0  0  0  0  0  0  0  0  0  0  0
    2.9726    1.0883   -1.0394 H   0  0  0  0  0  0  0  0  0  0  0  0
    3.1872    0.1081    0.5059 H   0  0  0  0  0  0  0  0  0  0  0  0
    2.7053    1.8178    0.5665 H   0  0  0  0  0  0  0  0  0  0  0  0
    0.7186    2.2267    0.9152 H   0  0  0  0  0  0  0  0  0  0  0  0
   -2.5547    0.7933   -0.8793 H   0  0  0  0  0  0  0  0  0  0  0  0
   -3.0123    0.1686    0.7114 H   0  0  0  0  0  0  0  0  0  0  0  0
   -2.3405   -1.8646    0.0213 H   0  0  0  0  0  0  0  0  0  0  0  0
   -1.6494   -1.1858   -1.4602 H   0  0  0  0  0  0  0  0  0  0  0  0
   -0.1914   -2.5509    0.0309 H   0  0  0  0  0  0  0  0  0  0  0  0
   -0.1467   -1.2332    1.2146 H   0  0  0  0  0  0  0  0  0  0  0  0
    1.7304   -1.4969   -0.6431 H   0  0  0  0  0  0  0  0  0  0  0  0
    0.5975   -0.6559   -1.7148 H   0  0  0  0  0  0  0  0  0  0  0  0
  1  2  1  0
  2  3  2  0
  3  4  1  0
  4  5  2  0
  4  6  1  0
  6  7  1  0
  7  8  1  0
  8  9  1  0
  9  2  1  0
  1 10  1  0
  1 11  1  0
  1 12  1  0
  3 13  1  0
  6 14  1  0
  6 15  1  0
  7 16  1  0
  7 17  1  0
  8 18  1  0
  8 19  1  0
  9 20  1  0
  9 21  1  0
M  END
