
     RDKit          3D

 23 23  0  0  0  0  0  0  0  0999 V2000
    0.3329    2.1885    0.1786 C   0  0  0  0  0  0  0  0  0  0  0  0
    0.5867    0.7335    0.0322 C   0  0  0  0  0  0  0  0  0  0  0  0
    1.8169    0.2676   -0.1093 C   0  0  0  0  0  0  0  0  0  0  0  0
    1.9701   -1.1857   -0.2474 C   0  0  0  0  0  0  0  0  0  0  0  0
    1.1405   -1.9623    0.4983 O   0  0  0  0  0  0  0  0  0  0  0  0
   -0.1483   -1.5600    0.6505 C   0  0  0  0  0  0  0  0  0  0  0  0
   -0.5194   -0.2530    0.0387 C   0  0  0  0  0  0  0  0  0  0  0  0
   -1.6193    0.3653    0.9147 C   0  0  0  0  0  0  0  0  0  0  0  0
   -1.1404   -0.4185   -1.3382 C   0  0  0  0  0  0  0  0  0  0  0  0
    0.2759    2.4947    1.2446 H   0  0  0  0  0  0  0  0  0  0  0  0
   -0.5441    2.5115   -0.3939 H   0  0  0  0  0  0  0  0  0  0  0  0
    1.2049    2.7696   -0.2439 H   0  0  0  0  0  0  0  0  0  0  0  0
    2.6927    0.9475   -0.1227 H   0  0  0  0  0  0  0  0  0  0  0  0
    1.7901   -1.4379   -1.3310 H   0  0  0  0  0  0  0  0  0  0  0  0
    3.0384   -1.4288   -0.0730 H   0  0  0  0  0  0  0  0  0  0  0  0
   -0.3956   -1.5781    1.7338 H   0  0  0  0  0  0  0  0  0  0  0  0
   -0.7974   -2.3396    0.1866 H   0  0  0  0  0  0  0  0  0  0  0  0
   -1.2091    0.7521    1.8584 H   0  0  0  0  0  0  0  0  0  0  0  0
   -2.3233   -0.4791    1.1254 H   0  0  0  0  0  0  0  0  0  0  0  0
   -2.1746    1.1272    0.3425 H   0  0  0  0  0  0  0  0  0  0  0  0
   -1.9539   -1.1801   -1.2090 H   0  0  0  0  0  0  0  0  0  0  0  0
   -1.6064    0.5083   -1.6751 H   0  0  0  0  0  0  0  0  0  0  0  0
   -0.4174   -0.8428   -2.0609 H   0  0  0  0  0  0  0  0  0  0  0  0
  1  2  1  0
  2  3  2  0
  3  4  1  0
  4  5  1  0
  5  6  1  0
  6  7  1  0
  7  8  1  0
  7  9  1  0
  7  2  1  0
  1 10  1  0
  1 11  1  0
  1 12  1  0
  3 13  1  0
  4 14  1  0
  4 15  1  0
  6 16  1  0
  6 17  1  0
  8 18  1  0
  8 19  1  0
  8 20  1  0
  9 21  1  0
  9 22  1  0
  9 23  1  0
M  END
