
     RDKit          3D

 23 23  0  0  0  0  0  0  0  0999 V2000
    3.0318   -0.0764   -0.2176 C   0  0  0  0  0  0  0  0  0  0  0  0
    1.5765    0.1405   -0.1136 C   0  0  0  0  0  0  0  0  0  0  0  0
    0.7987   -0.8885    0.1767 C   0  0  0  0  0  0  0  0  0  0  0  0
   -0.6655   -0.6281    0.2727 C   0  0  0  0  0  0  0  0  0  0  0  0
   -1.3594   -1.9539   -0.0077 C   0  0  0  0  0  0  0  0  0  0  0  0
   -1.1393    0.4444   -0.6499 C   0  0  0  0  0  0  0  0  0  0  0  0
   -2.2127    1.2898    0.0086 C   0  0  0  0  0  0  0  0  0  0  0  0
   -0.1650    1.2635   -1.1448 O   0  0  0  0  0  0  0  0  0  0  0  0
    0.9178    1.4562   -0.3163 C   0  0  0  0  0  0  0  0  0  0  0  0
    3.2731   -0.2261   -1.2889 H   0  0  0  0  0  0  0  0  0  0  0  0
    3.3504   -0.9528    0.4006 H   0  0  0  0  0  0  0  0  0  0  0  0
    3.6255    0.8103    0.1132 H   0  0  0  0  0  0  0  0  0  0  0  0
    1.2373   -1.8471    0.3286 H   0  0  0  0  0  0  0  0  0  0  0  0
   -0.8895   -0.3450    1.3430 H   0  0  0  0  0  0  0  0  0  0  0  0
   -2.4040   -1.8040   -0.3450 H   0  0  0  0  0  0  0  0  0  0  0  0
   -1.3412   -2.5405    0.9423 H   0  0  0  0  0  0  0  0  0  0  0  0
   -0.7825   -2.5525   -0.7438 H   0  0  0  0  0  0  0  0  0  0  0  0
   -1.6369   -0.0640   -1.5244 H   0  0  0  0  0  0  0  0  0  0  0  0
   -3.0793    1.4455   -0.6664 H   0  0  0  0  0  0  0  0  0  0  0  0
   -1.8334    2.2934    0.2901 H   0  0  0  0  0  0  0  0  0  0  0  0
   -2.5885    0.7314    0.9094 H   0  0  0  0  0  0  0  0  0  0  0  0
    0.6346    1.9177    0.6402 H   0  0  0  0  0  0  0  0  0  0  0  0
    1.6514    2.0863   -0.8873 H   0  0  0  0  0  0  0  0  0  0  0  0
  1  2  1  0
  2  3  2  0
  3  4  1  0
  4  5  1  0
  4  6  1  0
  6  7  1  0
  6  8  1  0
  8  9  1  0
  9  2  1  0
  1 10  1  0
  1 11  1  0
  1 12  1  0
  3 13  1  0
  4 14  1  0
  5 15  1  0
  5 16  1  0
  5 17  1  0
  6 18  1  0
  7 19  1  0
  7 20  1  0
  7 21  1  0
  9 22  1  0
  9 23  1  0
M  END
