
     RDKit          3D

 23 23  0  0  0  0  0  0  0  0999 V2000
   -2.2685   -1.2287    0.3189 C   0  0  0  0  0  0  0  0  0  0  0  0
   -0.9819   -0.5048    0.1971 C   0  0  0  0  0  0  0  0  0  0  0  0
   -0.8041    0.8126    0.2224 C   0  0  0  0  0  0  0  0  0  0  0  0
   -1.8254    1.8842    0.3762 C   0  0  0  0  0  0  0  0  0  0  0  0
    0.6678    1.1001    0.0644 C   0  0  0  0  0  0  0  0  0  0  0  0
    1.0761   -0.1157   -0.7461 C   0  0  0  0  0  0  0  0  0  0  0  0
    2.5586   -0.3026   -0.7761 C   0  0  0  0  0  0  0  0  0  0  0  0
    3.0301   -0.4691    0.5127 O   0  0  0  0  0  0  0  0  0  0  0  0
    0.3395   -1.1738    0.0230 C   0  0  0  0  0  0  0  0  0  0  0  0
   -3.1399   -0.6243    0.0409 H   0  0  0  0  0  0  0  0  0  0  0  0
   -2.3027   -2.1409   -0.3374 H   0  0  0  0  0  0  0  0  0  0  0  0
   -2.4143   -1.5829    1.3586 H   0  0  0  0  0  0  0  0  0  0  0  0
   -1.9797    2.1441    1.4474 H   0  0  0  0  0  0  0  0  0  0  0  0
   -2.8026    1.5965   -0.0786 H   0  0  0  0  0  0  0  0  0  0  0  0
   -1.5300    2.8204   -0.1448 H   0  0  0  0  0  0  0  0  0  0  0  0
    0.8461    2.0354   -0.4868 H   0  0  0  0  0  0  0  0  0  0  0  0
    1.1851    1.0696    1.0504 H   0  0  0  0  0  0  0  0  0  0  0  0
    0.6221   -0.0315   -1.7402 H   0  0  0  0  0  0  0  0  0  0  0  0
    2.8075   -1.1069   -1.4632 H   0  0  0  0  0  0  0  0  0  0  0  0
    2.9992    0.6478   -1.1745 H   0  0  0  0  0  0  0  0  0  0  0  0
    2.8334   -1.4051    0.7788 H   0  0  0  0  0  0  0  0  0  0  0  0
    0.8084   -1.2850    1.0340 H   0  0  0  0  0  0  0  0  0  0  0  0
    0.2754   -2.1396   -0.4772 H   0  0  0  0  0  0  0  0  0  0  0  0
  1  2  1  0
  2  3  2  0
  3  4  1  0
  3  5  1  0
  5  6  1  0
  6  7  1  0
  7  8  1  0
  6  9  1  0
  9  2  1  0
  1 10  1  0
  1 11  1  0
  1 12  1  0
  4 13  1  0
  4 14  1  0
  4 15  1  0
  5 16  1  0
  5 17  1  0
  6 18  1  0
  7 19  1  0
  7 20  1  0
  8 21  1  0
  9 22  1  0
  9 23  1  0
M  END
