
     RDKit          3D

 19 19  0  0  0  0  0  0  0  0999 V2000
    2.3822    0.6384    0.2464 C   0  0  0  0  0  0  0  0  0  0  0  0
    0.9282    0.4025    0.0529 C   0  0  0  0  0  0  0  0  0  0  0  0
    0.0595    1.3218    0.4450 C   0  0  0  0  0  0  0  0  0  0  0  0
   -1.3696    1.0978    0.2588 C   0  0  0  0  0  0  0  0  0  0  0  0
   -2.0830    2.0821   -0.0470 O   0  0  0  0  0  0  0  0  0  0  0  0
   -1.8765   -0.2757    0.4444 C   0  0  0  0  0  0  0  0  0  0  0  0
   -0.8602   -1.3213    0.1044 C   0  0  0  0  0  0  0  0  0  0  0  0
    0.3666   -0.8215   -0.5666 C   0  0  0  0  0  0  0  0  0  0  0  0
    0.1817   -0.6053   -1.9353 O   0  0  0  0  0  0  0  0  0  0  0  0
    2.9189    0.1176   -0.5661 H   0  0  0  0  0  0  0  0  0  0  0  0
    2.7564    0.1649    1.1978 H   0  0  0  0  0  0  0  0  0  0  0  0
    2.5436    1.7304    0.2566 H   0  0  0  0  0  0  0  0  0  0  0  0
    0.4478    2.2270    0.8979 H   0  0  0  0  0  0  0  0  0  0  0  0
   -2.1231   -0.4105    1.5399 H   0  0  0  0  0  0  0  0  0  0  0  0
   -2.8499   -0.4362   -0.0714 H   0  0  0  0  0  0  0  0  0  0  0  0
   -0.5317   -1.9114    1.0036 H   0  0  0  0  0  0  0  0  0  0  0  0
   -1.3361   -2.0711   -0.5858 H   0  0  0  0  0  0  0  0  0  0  0  0
    1.1489   -1.6317   -0.5020 H   0  0  0  0  0  0  0  0  0  0  0  0
   -0.7036   -0.2977   -2.1735 H   0  0  0  0  0  0  0  0  0  0  0  0
  1  2  1  0
  2  3  2  0
  3  4  1  0
  4  5  2  0
  4  6  1  0
  6  7  1  0
  7  8  1  0
  8  9  1  0
  8  2  1  0
  1 10  1  0
  1 11  1  0
  1 12  1  0
  3 13  1  0
  6 14  1  0
  6 15  1  0
  7 16  1  0
  7 17  1  0
  8 18  1  0
  9 19  1  0
M  END
