
     RDKit          3D

 19 20  0  0  0  0  0  0  0  0999 V2000
    2.5459    0.8616    0.2005 C   0  0  0  0  0  0  0  0  0  0  0  0
    1.1993    0.1931    0.0597 C   0  0  0  0  0  0  0  0  0  0  0  0
    0.1487    0.8467   -0.3890 C   0  0  0  0  0  0  0  0  0  0  0  0
   -1.0240   -0.0473   -0.4221 C   0  0  0  0  0  0  0  0  0  0  0  0
   -2.2150    0.5573    0.3018 C   0  0  0  0  0  0  0  0  0  0  0  0
   -1.4200   -0.2411   -1.7696 O   0  0  0  0  0  0  0  0  0  0  0  0
   -0.5652   -1.3069    0.2085 C   0  0  0  0  0  0  0  0  0  0  0  0
    0.3462   -2.0901   -0.4925 O   0  0  0  0  0  0  0  0  0  0  0  0
    0.9273   -1.2206    0.4031 C   0  0  0  0  0  0  0  0  0  0  0  0
    2.6934    1.6361   -0.5706 H   0  0  0  0  0  0  0  0  0  0  0  0
    2.6487    1.2966    1.1987 H   0  0  0  0  0  0  0  0  0  0  0  0
    3.3412    0.0951    0.0341 H   0  0  0  0  0  0  0  0  0  0  0  0
    0.1396    1.9201   -0.7005 H   0  0  0  0  0  0  0  0  0  0  0  0
   -2.3576    1.5894   -0.0532 H   0  0  0  0  0  0  0  0  0  0  0  0
   -3.0808   -0.0897    0.0723 H   0  0  0  0  0  0  0  0  0  0  0  0
   -1.9817    0.6005    1.3706 H   0  0  0  0  0  0  0  0  0  0  0  0
   -1.6141   -1.2111   -1.8387 H   0  0  0  0  0  0  0  0  0  0  0  0
   -1.1060   -1.7286    1.0700 H   0  0  0  0  0  0  0  0  0  0  0  0
    1.3741   -1.6610    1.3168 H   0  0  0  0  0  0  0  0  0  0  0  0
  1  2  1  0
  2  3  2  0
  3  4  1  0
  4  5  1  0
  4  6  1  0
  4  7  1  0
  7  8  1  0
  8  9  1  0
  9  2  1  0
  9  7  1  0
  1 10  1  0
  1 11  1  0
  1 12  1  0
  3 13  1  0
  5 14  1  0
  5 15  1  0
  5 16  1  0
  6 17  1  0
  7 18  1  0
  9 19  1  0
M  END
