
     RDKit          3D

 19 19  0  0  0  0  0  0  0  0999 V2000
    1.4408   -1.4850    0.0891 C   0  0  0  0  0  0  0  0  0  0  0  0
    0.7631   -0.1593   -0.0677 C   0  0  0  0  0  0  0  0  0  0  0  0
   -0.5385    0.0216   -0.1716 C   0  0  0  0  0  0  0  0  0  0  0  0
   -1.6243   -1.0217   -0.1579 C   0  0  0  0  0  0  0  0  0  0  0  0
   -1.0758   -2.2843   -0.0144 O   0  0  0  0  0  0  0  0  0  0  0  0
   -0.8258    1.4638   -0.3209 C   0  0  0  0  0  0  0  0  0  0  0  0
    0.4056    2.1132    0.2651 C   0  0  0  0  0  0  0  0  0  0  0  0
    1.4511    1.1305   -0.1213 C   0  0  0  0  0  0  0  0  0  0  0  0
    2.6519    1.2961   -0.4309 O   0  0  0  0  0  0  0  0  0  0  0  0
    2.5391   -1.3496    0.0889 H   0  0  0  0  0  0  0  0  0  0  0  0
    1.1344   -1.9770    1.0176 H   0  0  0  0  0  0  0  0  0  0  0  0
    1.1351   -2.1266   -0.7564 H   0  0  0  0  0  0  0  0  0  0  0  0
   -2.3334   -0.8332    0.6816 H   0  0  0  0  0  0  0  0  0  0  0  0
   -2.2170   -0.9603   -1.0912 H   0  0  0  0  0  0  0  0  0  0  0  0
   -1.1844   -2.5913    0.9415 H   0  0  0  0  0  0  0  0  0  0  0  0
   -0.8648    1.7699   -1.3924 H   0  0  0  0  0  0  0  0  0  0  0  0
   -1.7442    1.7732    0.2167 H   0  0  0  0  0  0  0  0  0  0  0  0
    0.2839    2.0993    1.3668 H   0  0  0  0  0  0  0  0  0  0  0  0
    0.6032    3.1207   -0.1425 H   0  0  0  0  0  0  0  0  0  0  0  0
  1  2  1  0
  2  3  2  0
  3  4  1  0
  4  5  1  0
  3  6  1  0
  6  7  1  0
  7  8  1  0
  8  9  2  0
  8  2  1  0
  1 10  1  0
  1 11  1  0
  1 12  1  0
  4 13  1  0
  4 14  1  0
  5 15  1  0
  6 16  1  0
  6 17  1  0
  7 18  1  0
  7 19  1  0
M  END
