
     RDKit          3D

 19 21  0  0  0  0  0  0  0  0999 V2000
    2.4229   -0.2899   -0.6062 C   0  0  0  0  0  0  0  0  0  0  0  0
    0.9783   -0.2617   -0.2460 C   0  0  0  0  0  0  0  0  0  0  0  0
    0.0361   -0.9659   -0.8799 C   0  0  0  0  0  0  0  0  0  0  0  0
   -1.2951   -0.6851   -0.2416 C   0  0  0  0  0  0  0  0  0  0  0  0
   -2.3185   -1.5757   -0.3511 O   0  0  0  0  0  0  0  0  0  0  0  0
   -1.5725    0.7341    0.0501 C   0  0  0  0  0  0  0  0  0  0  0  0
   -0.4651    1.7067    0.3087 C   0  0  0  0  0  0  0  0  0  0  0  0
    0.3606    0.5393    0.8565 C   0  0  0  0  0  0  0  0  0  0  0  0
   -0.9287   -0.1854    1.0691 C   0  0  0  0  0  0  0  0  0  0  0  0
    2.8238    0.7433   -0.7036 H   0  0  0  0  0  0  0  0  0  0  0  0
    2.9559   -0.8578    0.1838 H   0  0  0  0  0  0  0  0  0  0  0  0
    2.5803   -0.7873   -1.5633 H   0  0  0  0  0  0  0  0  0  0  0  0
    0.1887   -1.6238   -1.7052 H   0  0  0  0  0  0  0  0  0  0  0  0
   -2.0058   -2.4657   -0.6846 H   0  0  0  0  0  0  0  0  0  0  0  0
   -2.6265    1.0229    0.1652 H   0  0  0  0  0  0  0  0  0  0  0  0
   -0.0227    2.2105   -0.5584 H   0  0  0  0  0  0  0  0  0  0  0  0
   -0.7291    2.3710    1.1751 H   0  0  0  0  0  0  0  0  0  0  0  0
    0.9858    0.7591    1.7123 H   0  0  0  0  0  0  0  0  0  0  0  0
   -1.3684   -0.3887    2.0192 H   0  0  0  0  0  0  0  0  0  0  0  0
  1  2  1  0
  2  3  2  0
  3  4  1  0
  4  5  1  0
  4  6  1  0
  6  7  1  0
  7  8  1  0
  8  9  1  0
  8  2  1  0
  9  4  1  0
  9  6  1  0
  1 10  1  0
  1 11  1  0
  1 12  1  0
  3 13  1  0
  5 14  1  0
  6 15  1  0
  7 16  1  0
  7 17  1  0
  8 18  1  0
  9 19  1  0
M  END
