
     RDKit          3D

 21 22  0  0  0  0  0  0  0  0999 V2000
   -1.5230   -1.8157   -0.3858 C   0  0  0  0  0  0  0  0  0  0  0  0
   -0.3645   -0.8809   -0.3733 C   0  0  0  0  0  0  0  0  0  0  0  0
    0.5979   -0.7305   -1.2648 C   0  0  0  0  0  0  0  0  0  0  0  0
    1.5537    0.3242   -0.8461 C   0  0  0  0  0  0  0  0  0  0  0  0
    2.3673   -0.0285    0.3749 C   0  0  0  0  0  0  0  0  0  0  0  0
    1.1421    0.7931    0.5025 C   0  0  0  0  0  0  0  0  0  0  0  0
   -0.1450    0.0838    0.7633 C   0  0  0  0  0  0  0  0  0  0  0  0
   -1.2559    1.1205    0.7979 C   0  0  0  0  0  0  0  0  0  0  0  0
   -1.2491    1.8138   -0.4108 O   0  0  0  0  0  0  0  0  0  0  0  0
   -1.3673   -2.6213   -1.1461 H   0  0  0  0  0  0  0  0  0  0  0  0
   -2.4575   -1.2930   -0.6791 H   0  0  0  0  0  0  0  0  0  0  0  0
   -1.6343   -2.3391    0.5905 H   0  0  0  0  0  0  0  0  0  0  0  0
    0.6885   -1.2910   -2.1766 H   0  0  0  0  0  0  0  0  0  0  0  0
    1.9645    1.0205   -1.5997 H   0  0  0  0  0  0  0  0  0  0  0  0
    3.3648    0.4010    0.4265 H   0  0  0  0  0  0  0  0  0  0  0  0
    2.2958   -1.0601    0.7925 H   0  0  0  0  0  0  0  0  0  0  0  0
    1.2298    1.8897    0.6663 H   0  0  0  0  0  0  0  0  0  0  0  0
   -0.0668   -0.4447    1.7337 H   0  0  0  0  0  0  0  0  0  0  0  0
   -2.2294    0.6921    1.0432 H   0  0  0  0  0  0  0  0  0  0  0  0
   -0.9705    1.8521    1.5841 H   0  0  0  0  0  0  0  0  0  0  0  0
   -1.9411    2.5140   -0.3930 H   0  0  0  0  0  0  0  0  0  0  0  0
  1  2  1  0
  2  3  2  0
  3  4  1  0
  4  5  1  0
  5  6  1  0
  6  7  1  0
  7  8  1  0
  8  9  1  0
  7  2  1  0
  6  4  1  0
  1 10  1  0
  1 11  1  0
  1 12  1  0
  3 13  1  0
  4 14  1  0
  5 15  1  0
  5 16  1  0
  6 17  1  0
  7 18  1  0
  8 19  1  0
  8 20  1  0
  9 21  1  0
M  END
