
     RDKit          3D

 19 19  0  0  0  0  0  0  0  0999 V2000
   -1.5050   -1.4427    0.6518 C   0  0  0  0  0  0  0  0  0  0  0  0
   -0.8750   -0.1600    0.2562 C   0  0  0  0  0  0  0  0  0  0  0  0
   -1.4957    1.0006    0.0716 C   0  0  0  0  0  0  0  0  0  0  0  0
   -0.4890    2.0548   -0.3248 C   0  0  0  0  0  0  0  0  0  0  0  0
    0.5526    1.1528   -1.0036 C   0  0  0  0  0  0  0  0  0  0  0  0
    0.5810    0.0225    0.0017 C   0  0  0  0  0  0  0  0  0  0  0  0
    1.1991   -1.1300   -0.4994 O   0  0  0  0  0  0  0  0  0  0  0  0
    2.3216   -1.7013    0.1097 C   0  0  0  0  0  0  0  0  0  0  0  0
    2.7671   -1.1379    1.1401 O   0  0  0  0  0  0  0  0  0  0  0  0
   -0.7512   -2.2196    0.8312 H   0  0  0  0  0  0  0  0  0  0  0  0
   -2.2079   -1.8313   -0.1135 H   0  0  0  0  0  0  0  0  0  0  0  0
   -2.0442   -1.2871    1.6201 H   0  0  0  0  0  0  0  0  0  0  0  0
   -2.5563    1.1375    0.1937 H   0  0  0  0  0  0  0  0  0  0  0  0
   -0.9173    2.7832   -1.0173 H   0  0  0  0  0  0  0  0  0  0  0  0
   -0.0228    2.5076    0.5786 H   0  0  0  0  0  0  0  0  0  0  0  0
    1.5117    1.6491   -1.1280 H   0  0  0  0  0  0  0  0  0  0  0  0
    0.1231    0.7629   -1.9498 H   0  0  0  0  0  0  0  0  0  0  0  0
    1.0705    0.4195    0.9124 H   0  0  0  0  0  0  0  0  0  0  0  0
    2.7378   -2.5806   -0.3307 H   0  0  0  0  0  0  0  0  0  0  0  0
  1  2  1  0
  2  3  2  0
  3  4  1  0
  4  5  1  0
  5  6  1  0
  6  7  1  0
  7  8  1  0
  8  9  2  0
  6  2  1  0
  1 10  1  0
  1 11  1  0
  1 12  1  0
  3 13  1  0
  4 14  1  0
  4 15  1  0
  5 16  1  0
  5 17  1  0
  6 18  1  0
  8 19  1  0
M  END
