
     RDKit          3D

 21 22  0  0  0  0  0  0  0  0999 V2000
    2.7885   -0.8702   -0.4205 C   0  0  0  0  0  0  0  0  0  0  0  0
    1.3329   -0.4497   -0.3745 C   0  0  0  0  0  0  0  0  0  0  0  0
    0.2850   -1.2447   -0.4130 C   0  0  0  0  0  0  0  0  0  0  0  0
   -0.9862   -0.4979   -0.3478 C   0  0  0  0  0  0  0  0  0  0  0  0
   -2.0794   -1.2030    0.4172 C   0  0  0  0  0  0  0  0  0  0  0  0
   -1.3273    0.4341   -1.3157 O   0  0  0  0  0  0  0  0  0  0  0  0
   -0.6159    0.8568   -0.1995 C   0  0  0  0  0  0  0  0  0  0  0  0
   -1.2855    1.8787    0.6748 C   0  0  0  0  0  0  0  0  0  0  0  0
    0.8737    0.9457   -0.2797 C   0  0  0  0  0  0  0  0  0  0  0  0
    2.8664   -1.8958   -0.7685 H   0  0  0  0  0  0  0  0  0  0  0  0
    3.2415   -0.8139    0.5973 H   0  0  0  0  0  0  0  0  0  0  0  0
    3.3250   -0.1210   -1.0310 H   0  0  0  0  0  0  0  0  0  0  0  0
    0.4035   -2.3505   -0.4870 H   0  0  0  0  0  0  0  0  0  0  0  0
   -1.5925   -1.7741    1.2352 H   0  0  0  0  0  0  0  0  0  0  0  0
   -2.6243   -1.9508   -0.2022 H   0  0  0  0  0  0  0  0  0  0  0  0
   -2.7837   -0.5010    0.9063 H   0  0  0  0  0  0  0  0  0  0  0  0
   -2.1950    1.5325    1.1589 H   0  0  0  0  0  0  0  0  0  0  0  0
   -0.5419    2.2581    1.4247 H   0  0  0  0  0  0  0  0  0  0  0  0
   -1.5412    2.7486    0.0327 H   0  0  0  0  0  0  0  0  0  0  0  0
    1.3184    1.4877    0.5848 H   0  0  0  0  0  0  0  0  0  0  0  0
    1.1379    1.5304   -1.1926 H   0  0  0  0  0  0  0  0  0  0  0  0
  1  2  1  0
  2  3  2  0
  3  4  1  0
  4  5  1  0
  4  6  1  0
  6  7  1  0
  7  8  1  0
  7  9  1  0
  9  2  1  0
  7  4  1  0
  1 10  1  0
  1 11  1  0
  1 12  1  0
  3 13  1  0
  5 14  1  0
  5 15  1  0
  5 16  1  0
  8 17  1  0
  8 18  1  0
  8 19  1  0
  9 20  1  0
  9 21  1  0
M  END
