
     RDKit          3D

 17 18  0  0  0  0  0  0  0  0999 V2000
    2.2385   -0.0446   -0.1228 C   0  0  0  0  0  0  0  0  0  0  0  0
    0.7730   -0.1269   -0.0999 C   0  0  0  0  0  0  0  0  0  0  0  0
    0.0043   -0.7475   -1.0064 C   0  0  0  0  0  0  0  0  0  0  0  0
   -1.4108   -0.8194   -0.4822 C   0  0  0  0  0  0  0  0  0  0  0  0
   -1.9524    0.4440   -0.6675 O   0  0  0  0  0  0  0  0  0  0  0  0
   -1.1248    1.3035    0.0677 C   0  0  0  0  0  0  0  0  0  0  0  0
   -0.2129    0.4335    0.8948 C   0  0  0  0  0  0  0  0  0  0  0  0
   -1.1092   -0.7740    0.9830 C   0  0  0  0  0  0  0  0  0  0  0  0
   -1.4636   -1.4604    1.8834 O   0  0  0  0  0  0  0  0  0  0  0  0
    2.7046   -1.0160   -0.4602 H   0  0  0  0  0  0  0  0  0  0  0  0
    2.5910    0.7753   -0.8177 H   0  0  0  0  0  0  0  0  0  0  0  0
    2.6613    0.1277    0.9005 H   0  0  0  0  0  0  0  0  0  0  0  0
    0.2696   -1.1579   -1.9730 H   0  0  0  0  0  0  0  0  0  0  0  0
   -1.9767   -1.6483   -0.8188 H   0  0  0  0  0  0  0  0  0  0  0  0
   -0.5007    1.8456   -0.7027 H   0  0  0  0  0  0  0  0  0  0  0  0
   -1.6646    2.0586    0.6298 H   0  0  0  0  0  0  0  0  0  0  0  0
    0.1733    0.8069    1.7920 H   0  0  0  0  0  0  0  0  0  0  0  0
  1  2  1  0
  2  3  2  0
  3  4  1  0
  4  5  1  0
  5  6  1  0
  6  7  1  0
  7  8  1  0
  8  9  2  0
  7  2  1  0
  8  4  1  0
  1 10  1  0
  1 11  1  0
  1 12  1  0
  3 13  1  0
  4 14  1  0
  6 15  1  0
  6 16  1  0
  7 17  1  0
M  END
