
     RDKit          3D

 19 21  0  0  0  0  0  0  0  0999 V2000
    2.4074    0.3066   -0.1422 C   0  0  0  0  0  0  0  0  0  0  0  0
    0.9889   -0.1512    0.0396 C   0  0  0  0  0  0  0  0  0  0  0  0
    0.5653   -0.8276    1.1033 C   0  0  0  0  0  0  0  0  0  0  0  0
   -0.8648   -1.1368    1.0012 C   0  0  0  0  0  0  0  0  0  0  0  0
   -1.8543   -0.0948    0.6307 C   0  0  0  0  0  0  0  0  0  0  0  0
   -1.4289    1.2195    0.6069 O   0  0  0  0  0  0  0  0  0  0  0  0
   -0.7531    1.4244   -0.5944 C   0  0  0  0  0  0  0  0  0  0  0  0
   -0.1153    0.0835   -0.9210 C   0  0  0  0  0  0  0  0  0  0  0  0
   -1.1714   -0.8604   -0.4245 C   0  0  0  0  0  0  0  0  0  0  0  0
    2.4641    1.3260    0.2817 H   0  0  0  0  0  0  0  0  0  0  0  0
    2.6186    0.3420   -1.2389 H   0  0  0  0  0  0  0  0  0  0  0  0
    3.1093   -0.3939    0.3085 H   0  0  0  0  0  0  0  0  0  0  0  0
    1.1908   -1.1249    1.9569 H   0  0  0  0  0  0  0  0  0  0  0  0
   -1.2845   -2.0420    1.4873 H   0  0  0  0  0  0  0  0  0  0  0  0
   -2.9227   -0.3059    0.7950 H   0  0  0  0  0  0  0  0  0  0  0  0
   -1.4858    1.6720   -1.3754 H   0  0  0  0  0  0  0  0  0  0  0  0
   -0.0084    2.2315   -0.5193 H   0  0  0  0  0  0  0  0  0  0  0  0
    0.1556   -0.0308   -1.9645 H   0  0  0  0  0  0  0  0  0  0  0  0
   -1.6109   -1.6372   -1.0308 H   0  0  0  0  0  0  0  0  0  0  0  0
  1  2  1  0
  2  3  2  0
  3  4  1  0
  4  5  1  0
  5  6  1  0
  6  7  1  0
  7  8  1  0
  8  9  1  0
  8  2  1  0
  9  4  1  0
  9  5  1  0
  1 10  1  0
  1 11  1  0
  1 12  1  0
  3 13  1  0
  4 14  1  0
  5 15  1  0
  7 16  1  0
  7 17  1  0
  8 18  1  0
  9 19  1  0
M  END
