
     RDKit          3D

 23 23  0  0  0  0  0  0  0  0999 V2000
   -0.6452    2.1816    0.2167 C   0  0  0  0  0  0  0  0  0  0  0  0
   -0.2921    0.7279    0.0010 C   0  0  0  0  0  0  0  0  0  0  0  0
    0.9280    0.2346   -0.0226 C   0  0  0  0  0  0  0  0  0  0  0  0
    2.1629    1.0984    0.1707 C   0  0  0  0  0  0  0  0  0  0  0  0
    0.9901   -1.2244   -0.2524 C   0  0  0  0  0  0  0  0  0  0  0  0
    1.8959   -1.4756   -1.2627 O   0  0  0  0  0  0  0  0  0  0  0  0
   -0.4100   -1.5076   -0.7609 C   0  0  0  0  0  0  0  0  0  0  0  0
   -1.2512   -0.3827   -0.2189 C   0  0  0  0  0  0  0  0  0  0  0  0
   -1.8706   -0.8640    1.0749 C   0  0  0  0  0  0  0  0  0  0  0  0
    0.0343    2.5680    0.9986 H   0  0  0  0  0  0  0  0  0  0  0  0
   -0.5147    2.7792   -0.6878 H   0  0  0  0  0  0  0  0  0  0  0  0
   -1.6795    2.2752    0.5810 H   0  0  0  0  0  0  0  0  0  0  0  0
    2.9899    0.4681    0.5281 H   0  0  0  0  0  0  0  0  0  0  0  0
    2.3891    1.6464   -0.7652 H   0  0  0  0  0  0  0  0  0  0  0  0
    1.9544    1.8869    0.9493 H   0  0  0  0  0  0  0  0  0  0  0  0
    1.2160   -1.7801    0.6826 H   0  0  0  0  0  0  0  0  0  0  0  0
    1.5042   -1.5140   -2.1639 H   0  0  0  0  0  0  0  0  0  0  0  0
   -0.7935   -2.4846   -0.4735 H   0  0  0  0  0  0  0  0  0  0  0  0
   -0.4162   -1.4552   -1.8843 H   0  0  0  0  0  0  0  0  0  0  0  0
   -2.0781   -0.0917   -0.8909 H   0  0  0  0  0  0  0  0  0  0  0  0
   -2.7901   -1.4352    0.8214 H   0  0  0  0  0  0  0  0  0  0  0  0
   -2.1277   -0.0532    1.7549 H   0  0  0  0  0  0  0  0  0  0  0  0
   -1.1959   -1.5979    1.6038 H   0  0  0  0  0  0  0  0  0  0  0  0
  1  2  1  0
  2  3  2  0
  3  4  1  0
  3  5  1  0
  5  6  1  0
  5  7  1  0
  7  8  1  0
  8  9  1  0
  8  2  1  0
  1 10  1  0
  1 11  1  0
  1 12  1  0
  4 13  1  0
  4 14  1  0
  4 15  1  0
  5 16  1  0
  6 17  1  0
  7 18  1  0
  7 19  1  0
  8 20  1  0
  9 21  1  0
  9 22  1  0
  9 23  1  0
M  END
