
     RDKit          3D

 21 23  0  0  0  0  0  0  0  0999 V2000
    2.7424    0.1910   -0.1001 C   0  0  0  0  0  0  0  0  0  0  0  0
    1.2540    0.2011   -0.1361 C   0  0  0  0  0  0  0  0  0  0  0  0
    0.5983    1.3417    0.0408 C   0  0  0  0  0  0  0  0  0  0  0  0
   -0.8659    1.4581    0.0234 C   0  0  0  0  0  0  0  0  0  0  0  0
   -1.7615    0.5716    0.7615 C   0  0  0  0  0  0  0  0  0  0  0  0
   -1.5486   -0.8815    0.9648 C   0  0  0  0  0  0  0  0  0  0  0  0
   -0.9083   -1.0103   -0.3923 C   0  0  0  0  0  0  0  0  0  0  0  0
    0.5748   -1.0988   -0.3739 C   0  0  0  0  0  0  0  0  0  0  0  0
   -1.4542    0.3259   -0.7413 C   0  0  0  0  0  0  0  0  0  0  0  0
    3.1383    1.2108   -0.3211 H   0  0  0  0  0  0  0  0  0  0  0  0
    3.0999   -0.1494    0.9042 H   0  0  0  0  0  0  0  0  0  0  0  0
    3.1131   -0.5037   -0.8870 H   0  0  0  0  0  0  0  0  0  0  0  0
    1.2014    2.2285    0.2065 H   0  0  0  0  0  0  0  0  0  0  0  0
   -1.2764    2.4477   -0.2688 H   0  0  0  0  0  0  0  0  0  0  0  0
   -2.7768    0.9330    1.0077 H   0  0  0  0  0  0  0  0  0  0  0  0
   -0.9211   -1.1476    1.8230 H   0  0  0  0  0  0  0  0  0  0  0  0
   -2.4793   -1.4998    0.9861 H   0  0  0  0  0  0  0  0  0  0  0  0
   -1.3450   -1.7961   -1.0452 H   0  0  0  0  0  0  0  0  0  0  0  0
    0.9232   -1.4529   -1.3785 H   0  0  0  0  0  0  0  0  0  0  0  0
    0.9686   -1.8273    0.3704 H   0  0  0  0  0  0  0  0  0  0  0  0
   -2.2769    0.4580   -1.4440 H   0  0  0  0  0  0  0  0  0  0  0  0
  1  2  1  0
  2  3  2  0
  3  4  1  0
  4  5  1  0
  5  6  1  0
  6  7  1  0
  7  8  1  0
  7  9  1  0
  8  2  1  0
  9  4  1  0
  9  5  1  0
  1 10  1  0
  1 11  1  0
  1 12  1  0
  3 13  1  0
  4 14  1  0
  5 15  1  0
  6 16  1  0
  6 17  1  0
  7 18  1  0
  8 19  1  0
  8 20  1  0
  9 21  1  0
M  END
