
     RDKit          3D

 23 23  0  0  0  0  0  0  0  0999 V2000
    2.4653   -1.1764   -0.1398 C   0  0  0  0  0  0  0  0  0  0  0  0
    1.1636   -0.4224   -0.0895 C   0  0  0  0  0  0  0  0  0  0  0  0
    0.0874   -1.0974    0.2601 C   0  0  0  0  0  0  0  0  0  0  0  0
   -1.1938   -0.3648    0.3119 C   0  0  0  0  0  0  0  0  0  0  0  0
   -1.9116   -0.5323   -1.0054 C   0  0  0  0  0  0  0  0  0  0  0  0
   -1.9906   -1.0243    1.2770 O   0  0  0  0  0  0  0  0  0  0  0  0
   -1.0562    1.0487    0.7425 C   0  0  0  0  0  0  0  0  0  0  0  0
    0.0656    1.8056    0.1523 C   0  0  0  0  0  0  0  0  0  0  0  0
    1.1760    1.0011   -0.4292 C   0  0  0  0  0  0  0  0  0  0  0  0
    2.3214   -2.2568   -0.0585 H   0  0  0  0  0  0  0  0  0  0  0  0
    2.9310   -0.9831   -1.1383 H   0  0  0  0  0  0  0  0  0  0  0  0
    3.1067   -0.8190    0.6837 H   0  0  0  0  0  0  0  0  0  0  0  0
    0.1709   -2.1690    0.4995 H   0  0  0  0  0  0  0  0  0  0  0  0
   -1.3759   -1.2714   -1.6654 H   0  0  0  0  0  0  0  0  0  0  0  0
   -2.0209    0.4338   -1.5369 H   0  0  0  0  0  0  0  0  0  0  0  0
   -2.9349   -0.9409   -0.8900 H   0  0  0  0  0  0  0  0  0  0  0  0
   -1.4124   -1.3481    1.9871 H   0  0  0  0  0  0  0  0  0  0  0  0
   -2.0399    1.5605    0.5234 H   0  0  0  0  0  0  0  0  0  0  0  0
   -1.0087    1.0524    1.8718 H   0  0  0  0  0  0  0  0  0  0  0  0
    0.5016    2.4639    0.9543 H   0  0  0  0  0  0  0  0  0  0  0  0
   -0.3397    2.5222   -0.6055 H   0  0  0  0  0  0  0  0  0  0  0  0
    2.1661    1.4215   -0.1528 H   0  0  0  0  0  0  0  0  0  0  0  0
    1.1290    1.0962   -1.5522 H   0  0  0  0  0  0  0  0  0  0  0  0
  1  2  1  0
  2  3  2  0
  3  4  1  0
  4  5  1  0
  4  6  1  0
  4  7  1  0
  7  8  1  0
  8  9  1  0
  9  2  1  0
  1 10  1  0
  1 11  1  0
  1 12  1  0
  3 13  1  0
  5 14  1  0
  5 15  1  0
  5 16  1  0
  6 17  1  0
  7 18  1  0
  7 19  1  0
  8 20  1  0
  8 21  1  0
  9 22  1  0
  9 23  1  0
M  END
