
     RDKit          3D

 19 20  0  0  0  0  0  0  0  0999 V2000
    2.3376   -0.2071   -0.4015 C   0  0  0  0  0  0  0  0  0  0  0  0
    0.9116    0.0755   -0.0582 C   0  0  0  0  0  0  0  0  0  0  0  0
    0.3660    0.2140    1.1411 C   0  0  0  0  0  0  0  0  0  0  0  0
   -1.0625    0.6218    1.0446 C   0  0  0  0  0  0  0  0  0  0  0  0
   -1.0642    1.2842   -0.3418 C   0  0  0  0  0  0  0  0  0  0  0  0
   -0.1891    0.2570   -1.0746 C   0  0  0  0  0  0  0  0  0  0  0  0
   -0.9487   -0.8971   -1.1661 O   0  0  0  0  0  0  0  0  0  0  0  0
   -1.2705   -1.3998    0.0641 C   0  0  0  0  0  0  0  0  0  0  0  0
   -1.8789   -0.5006    0.9200 O   0  0  0  0  0  0  0  0  0  0  0  0
    2.6497   -1.1010    0.2123 H   0  0  0  0  0  0  0  0  0  0  0  0
    2.4280   -0.4595   -1.4597 H   0  0  0  0  0  0  0  0  0  0  0  0
    3.0186    0.6023   -0.1294 H   0  0  0  0  0  0  0  0  0  0  0  0
    0.8996    0.0493    2.0686 H   0  0  0  0  0  0  0  0  0  0  0  0
   -1.3754    1.3174    1.8214 H   0  0  0  0  0  0  0  0  0  0  0  0
   -2.0805    1.3228   -0.7501 H   0  0  0  0  0  0  0  0  0  0  0  0
   -0.5615    2.2565   -0.2709 H   0  0  0  0  0  0  0  0  0  0  0  0
    0.1740    0.6200   -2.0296 H   0  0  0  0  0  0  0  0  0  0  0  0
   -2.0188   -2.2268   -0.1028 H   0  0  0  0  0  0  0  0  0  0  0  0
   -0.3349   -1.8290    0.5126 H   0  0  0  0  0  0  0  0  0  0  0  0
  1  2  1  0
  2  3  2  0
  3  4  1  0
  4  5  1  0
  5  6  1  0
  6  7  1  0
  7  8  1  0
  8  9  1  0
  6  2  1  0
  9  4  1  0
  1 10  1  0
  1 11  1  0
  1 12  1  0
  3 13  1  0
  4 14  1  0
  5 15  1  0
  5 16  1  0
  6 17  1  0
  8 18  1  0
  8 19  1  0
M  END
