
     RDKit          3D

 19 20  0  0  0  0  0  0  0  0999 V2000
    2.4152   -0.0491   -0.3443 C   0  0  0  0  0  0  0  0  0  0  0  0
    0.9654    0.1056   -0.0336 C   0  0  0  0  0  0  0  0  0  0  0  0
    0.2196    1.1103   -0.4317 C   0  0  0  0  0  0  0  0  0  0  0  0
   -1.1894    0.9642    0.0492 C   0  0  0  0  0  0  0  0  0  0  0  0
   -1.5273    1.9702    0.9414 O   0  0  0  0  0  0  0  0  0  0  0  0
   -1.2017   -0.4042    0.6400 C   0  0  0  0  0  0  0  0  0  0  0  0
   -1.1953   -1.4595   -0.4406 C   0  0  0  0  0  0  0  0  0  0  0  0
   -0.1227   -2.0595    0.1565 O   0  0  0  0  0  0  0  0  0  0  0  0
    0.1988   -0.8725    0.7702 C   0  0  0  0  0  0  0  0  0  0  0  0
    2.9913   -0.2420    0.5908 H   0  0  0  0  0  0  0  0  0  0  0  0
    2.5539   -0.9241   -1.0081 H   0  0  0  0  0  0  0  0  0  0  0  0
    2.8425    0.8641   -0.8071 H   0  0  0  0  0  0  0  0  0  0  0  0
    0.5376    1.9581   -1.0317 H   0  0  0  0  0  0  0  0  0  0  0  0
   -1.8499    0.9507   -0.8517 H   0  0  0  0  0  0  0  0  0  0  0  0
   -1.2768    2.8345    0.4833 H   0  0  0  0  0  0  0  0  0  0  0  0
   -1.8852   -0.5817    1.4859 H   0  0  0  0  0  0  0  0  0  0  0  0
   -0.9267   -1.0627   -1.4330 H   0  0  0  0  0  0  0  0  0  0  0  0
   -2.1292   -2.0471   -0.5259 H   0  0  0  0  0  0  0  0  0  0  0  0
    0.5798   -1.0553    1.7905 H   0  0  0  0  0  0  0  0  0  0  0  0
  1  2  1  0
  2  3  2  0
  3  4  1  0
  4  5  1  0
  4  6  1  0
  6  7  1  0
  7  8  1  0
  8  9  1  0
  9  2  1  0
  9  6  1  0
  1 10  1  0
  1 11  1  0
  1 12  1  0
  3 13  1  0
  4 14  1  0
  5 15  1  0
  6 16  1  0
  7 17  1  0
  7 18  1  0
  9 19  1  0
M  END
