
     RDKit          3D

 19 21  0  0  0  0  0  0  0  0999 V2000
    2.5027    0.2156   -0.4535 C   0  0  0  0  0  0  0  0  0  0  0  0
    1.0574    0.0208   -0.1461 C   0  0  0  0  0  0  0  0  0  0  0  0
    0.4202    0.9915    0.4767 C   0  0  0  0  0  0  0  0  0  0  0  0
   -0.9967    0.9027    0.8249 C   0  0  0  0  0  0  0  0  0  0  0  0
   -1.8968    0.7872   -0.4329 C   0  0  0  0  0  0  0  0  0  0  0  0
   -1.3135    0.2276   -1.5442 O   0  0  0  0  0  0  0  0  0  0  0  0
   -1.0854   -0.9287   -0.8025 C   0  0  0  0  0  0  0  0  0  0  0  0
    0.3693   -1.2382   -0.5357 C   0  0  0  0  0  0  0  0  0  0  0  0
   -1.6754   -0.3504    0.4423 C   0  0  0  0  0  0  0  0  0  0  0  0
    3.0194    0.8308    0.3165 H   0  0  0  0  0  0  0  0  0  0  0  0
    2.6109    0.7780   -1.4165 H   0  0  0  0  0  0  0  0  0  0  0  0
    3.0111   -0.7557   -0.5916 H   0  0  0  0  0  0  0  0  0  0  0  0
    0.9613    1.8859    0.7406 H   0  0  0  0  0  0  0  0  0  0  0  0
   -1.3947    1.4785    1.6638 H   0  0  0  0  0  0  0  0  0  0  0  0
   -2.7663    1.4290   -0.4661 H   0  0  0  0  0  0  0  0  0  0  0  0
   -1.6664   -1.8156   -1.1440 H   0  0  0  0  0  0  0  0  0  0  0  0
    0.8652   -1.7053   -1.4094 H   0  0  0  0  0  0  0  0  0  0  0  0
    0.4164   -1.9037    0.3702 H   0  0  0  0  0  0  0  0  0  0  0  0
   -2.4387   -0.8501    1.0289 H   0  0  0  0  0  0  0  0  0  0  0  0
  1  2  1  0
  2  3  2  0
  3  4  1  0
  4  5  1  0
  5  6  1  0
  6  7  1  0
  7  8  1  0
  7  9  1  0
  8  2  1  0
  9  4  1  0
  9  5  1  0
  1 10  1  0
  1 11  1  0
  1 12  1  0
  3 13  1  0
  4 14  1  0
  5 15  1  0
  7 16  1  0
  8 17  1  0
  8 18  1  0
  9 19  1  0
M  END
