
     RDKit          3D

 21 21  0  0  0  0  0  0  0  0999 V2000
   -0.3539   -1.6174    1.3649 C   0  0  0  0  0  0  0  0  0  0  0  0
   -0.6056   -0.4189    0.4917 C   0  0  0  0  0  0  0  0  0  0  0  0
   -1.5736    0.4562    0.8018 C   0  0  0  0  0  0  0  0  0  0  0  0
   -1.7261    1.6023   -0.1398 C   0  0  0  0  0  0  0  0  0  0  0  0
   -0.4973    2.1603   -0.4685 O   0  0  0  0  0  0  0  0  0  0  0  0
    0.3937    1.2908   -1.0286 C   0  0  0  0  0  0  0  0  0  0  0  0
    0.1811   -0.1533   -0.7207 C   0  0  0  0  0  0  0  0  0  0  0  0
    1.5186   -0.8495   -0.5643 C   0  0  0  0  0  0  0  0  0  0  0  0
    2.2058   -0.3855    0.5362 O   0  0  0  0  0  0  0  0  0  0  0  0
   -1.2442   -1.8030    2.0122 H   0  0  0  0  0  0  0  0  0  0  0  0
   -0.2316   -2.4774    0.6703 H   0  0  0  0  0  0  0  0  0  0  0  0
    0.5742   -1.4634    1.9482 H   0  0  0  0  0  0  0  0  0  0  0  0
   -2.1915    0.3197    1.6825 H   0  0  0  0  0  0  0  0  0  0  0  0
   -2.3206    2.3805    0.3809 H   0  0  0  0  0  0  0  0  0  0  0  0
   -2.2982    1.2495   -0.9941 H   0  0  0  0  0  0  0  0  0  0  0  0
    0.4891    1.4747   -2.1389 H   0  0  0  0  0  0  0  0  0  0  0  0
    1.4157    1.5664   -0.6321 H   0  0  0  0  0  0  0  0  0  0  0  0
   -0.3762   -0.5982   -1.5783 H   0  0  0  0  0  0  0  0  0  0  0  0
    1.3744   -1.9448   -0.4742 H   0  0  0  0  0  0  0  0  0  0  0  0
    2.1429   -0.6622   -1.4624 H   0  0  0  0  0  0  0  0  0  0  0  0
    3.1233   -0.1266    0.3132 H   0  0  0  0  0  0  0  0  0  0  0  0
  1  2  1  0
  2  3  2  0
  3  4  1  0
  4  5  1  0
  5  6  1  0
  6  7  1  0
  7  8  1  0
  8  9  1  0
  7  2  1  0
  1 10  1  0
  1 11  1  0
  1 12  1  0
  3 13  1  0
  4 14  1  0
  4 15  1  0
  6 16  1  0
  6 17  1  0
  7 18  1  0
  8 19  1  0
  8 20  1  0
  9 21  1  0
M  END
