
     RDKit          3D

 25 25  0  0  0  0  0  0  0  0999 V2000
    2.7698    0.0558   -0.0929 C   0  0  0  0  0  0  0  0  0  0  0  0
    1.2985   -0.2833    0.0251 C   0  0  0  0  0  0  0  0  0  0  0  0
    0.2956    0.5529   -0.0917 C   0  0  0  0  0  0  0  0  0  0  0  0
    0.4937    2.0157   -0.3687 C   0  0  0  0  0  0  0  0  0  0  0  0
   -0.9894   -0.1344    0.0752 C   0  0  0  0  0  0  0  0  0  0  0  0
   -1.5958   -0.4565   -1.2950 C   0  0  0  0  0  0  0  0  0  0  0  0
   -1.9790    0.6359    0.9094 C   0  0  0  0  0  0  0  0  0  0  0  0
   -0.6315   -1.3765    0.8246 C   0  0  0  0  0  0  0  0  0  0  0  0
    0.7673   -1.6459    0.3051 C   0  0  0  0  0  0  0  0  0  0  0  0
    3.2993   -0.8684   -0.3900 H   0  0  0  0  0  0  0  0  0  0  0  0
    2.9323    0.7821   -0.9309 H   0  0  0  0  0  0  0  0  0  0  0  0
    3.1859    0.3985    0.8583 H   0  0  0  0  0  0  0  0  0  0  0  0
   -0.2344    2.3589   -1.1307 H   0  0  0  0  0  0  0  0  0  0  0  0
    1.5015    2.2271   -0.7707 H   0  0  0  0  0  0  0  0  0  0  0  0
    0.3956    2.6186    0.5685 H   0  0  0  0  0  0  0  0  0  0  0  0
   -2.6069   -0.0117   -1.3733 H   0  0  0  0  0  0  0  0  0  0  0  0
   -1.5733   -1.5372   -1.5013 H   0  0  0  0  0  0  0  0  0  0  0  0
   -0.9792    0.0382   -2.0738 H   0  0  0  0  0  0  0  0  0  0  0  0
   -2.9570    0.0989    0.8155 H   0  0  0  0  0  0  0  0  0  0  0  0
   -2.0635    1.6853    0.6345 H   0  0  0  0  0  0  0  0  0  0  0  0
   -1.6830    0.5067    1.9833 H   0  0  0  0  0  0  0  0  0  0  0  0
   -1.2938   -2.2245    0.6279 H   0  0  0  0  0  0  0  0  0  0  0  0
   -0.5452   -1.1246    1.9111 H   0  0  0  0  0  0  0  0  0  0  0  0
    0.7775   -2.2304   -0.6182 H   0  0  0  0  0  0  0  0  0  0  0  0
    1.4152   -2.0813    1.0986 H   0  0  0  0  0  0  0  0  0  0  0  0
  1  2  1  0
  2  3  2  0
  3  4  1  0
  3  5  1  0
  5  6  1  0
  5  7  1  0
  5  8  1  0
  8  9  1  0
  9  2  1  0
  1 10  1  0
  1 11  1  0
  1 12  1  0
  4 13  1  0
  4 14  1  0
  4 15  1  0
  6 16  1  0
  6 17  1  0
  6 18  1  0
  7 19  1  0
  7 20  1  0
  7 21  1  0
  8 22  1  0
  8 23  1  0
  9 24  1  0
  9 25  1  0
M  END
