
     RDKit          3D

 19 19  0  0  0  0  0  0  0  0999 V2000
   -2.5037   -0.5354   -0.3038 C   0  0  0  0  0  0  0  0  0  0  0  0
   -1.1056   -0.0669   -0.0704 C   0  0  0  0  0  0  0  0  0  0  0  0
   -0.7081    1.1689   -0.3328 C   0  0  0  0  0  0  0  0  0  0  0  0
    0.7271    1.3376   -0.0001 C   0  0  0  0  0  0  0  0  0  0  0  0
    1.2686   -0.0752    0.0738 C   0  0  0  0  0  0  0  0  0  0  0  0
    2.2074   -0.1400    1.0937 O   0  0  0  0  0  0  0  0  0  0  0  0
    1.8338   -0.5467   -1.1891 C   0  0  0  0  0  0  0  0  0  0  0  0
    1.2087   -0.5860   -2.2257 O   0  0  0  0  0  0  0  0  0  0  0  0
    0.0265   -0.8682    0.4708 C   0  0  0  0  0  0  0  0  0  0  0  0
   -2.7229   -1.4359    0.3128 H   0  0  0  0  0  0  0  0  0  0  0  0
   -2.6035   -0.7216   -1.3811 H   0  0  0  0  0  0  0  0  0  0  0  0
   -3.2369    0.2657   -0.0160 H   0  0  0  0  0  0  0  0  0  0  0  0
   -1.3190    1.9587   -0.7314 H   0  0  0  0  0  0  0  0  0  0  0  0
    1.2685    1.9629   -0.7340 H   0  0  0  0  0  0  0  0  0  0  0  0
    0.8306    1.7811    1.0175 H   0  0  0  0  0  0  0  0  0  0  0  0
    1.8236    0.1507    1.9591 H   0  0  0  0  0  0  0  0  0  0  0  0
    2.8642   -0.8807   -1.2105 H   0  0  0  0  0  0  0  0  0  0  0  0
    0.1249   -1.8535    0.0014 H   0  0  0  0  0  0  0  0  0  0  0  0
    0.0159   -0.9156    1.5674 H   0  0  0  0  0  0  0  0  0  0  0  0
  1  2  1  0
  2  3  2  0
  3  4  1  0
  4  5  1  0
  5  6  1  0
  5  7  1  0
  7  8  2  0
  5  9  1  0
  9  2  1  0
  1 10  1  0
  1 11  1  0
  1 12  1  0
  3 13  1  0
  4 14  1  0
  4 15  1  0
  6 16  1  0
  7 17  1  0
  9 18  1  0
  9 19  1  0
M  END
