
     RDKit          3D

 21 21  0  0  0  0  0  0  0  0999 V2000
    2.3382    0.7434   -0.3873 C   0  0  0  0  0  0  0  0  0  0  0  0
    0.9370    0.4111   -0.0115 C   0  0  0  0  0  0  0  0  0  0  0  0
    0.0470    1.3661   -0.0966 C   0  0  0  0  0  0  0  0  0  0  0  0
   -1.3986    1.3525    0.1999 C   0  0  0  0  0  0  0  0  0  0  0  0
   -2.0612    0.0639   -0.0361 C   0  0  0  0  0  0  0  0  0  0  0  0
   -1.6429   -1.1509   -0.3783 C   0  0  0  0  0  0  0  0  0  0  0  0
   -0.2576   -1.5966   -0.6452 C   0  0  0  0  0  0  0  0  0  0  0  0
    0.6409   -0.9978    0.4375 C   0  0  0  0  0  0  0  0  0  0  0  0
   -0.0625   -0.8931    1.6214 O   0  0  0  0  0  0  0  0  0  0  0  0
    2.7619    1.3789    0.4307 H   0  0  0  0  0  0  0  0  0  0  0  0
    2.3756    1.2288   -1.3718 H   0  0  0  0  0  0  0  0  0  0  0  0
    2.9184   -0.2116   -0.3463 H   0  0  0  0  0  0  0  0  0  0  0  0
    0.4907    2.3163   -0.4509 H   0  0  0  0  0  0  0  0  0  0  0  0
   -1.6135    1.6577    1.2648 H   0  0  0  0  0  0  0  0  0  0  0  0
   -1.9104    2.1377   -0.4178 H   0  0  0  0  0  0  0  0  0  0  0  0
   -3.1542    0.0786    0.0924 H   0  0  0  0  0  0  0  0  0  0  0  0
   -2.4221   -1.9276   -0.4770 H   0  0  0  0  0  0  0  0  0  0  0  0
    0.1041   -1.1873   -1.6325 H   0  0  0  0  0  0  0  0  0  0  0  0
   -0.1715   -2.6834   -0.6937 H   0  0  0  0  0  0  0  0  0  0  0  0
    1.5545   -1.5833    0.5917 H   0  0  0  0  0  0  0  0  0  0  0  0
    0.5262   -0.5036    2.3069 H   0  0  0  0  0  0  0  0  0  0  0  0
  1  2  1  0
  2  3  2  0
  3  4  1  0
  4  5  1  0
  5  6  2  0
  6  7  1  0
  7  8  1  0
  8  9  1  0
  8  2  1  0
  1 10  1  0
  1 11  1  0
  1 12  1  0
  3 13  1  0
  4 14  1  0
  4 15  1  0
  5 16  1  0
  6 17  1  0
  7 18  1  0
  7 19  1  0
  8 20  1  0
  9 21  1  0
M  END
