
     RDKit          3D

 23 23  0  0  0  0  0  0  0  0999 V2000
    2.6210    0.8638    0.0315 C   0  0  0  0  0  0  0  0  0  0  0  0
    1.2105    0.4439    0.2110 C   0  0  0  0  0  0  0  0  0  0  0  0
    0.3326    1.4263    0.1295 C   0  0  0  0  0  0  0  0  0  0  0  0
   -1.1578    1.5694    0.2279 C   0  0  0  0  0  0  0  0  0  0  0  0
   -1.8093    0.9579   -0.8134 O   0  0  0  0  0  0  0  0  0  0  0  0
   -2.2210   -0.3136   -0.6035 C   0  0  0  0  0  0  0  0  0  0  0  0
   -1.3219   -1.1672    0.2298 C   0  0  0  0  0  0  0  0  0  0  0  0
   -0.0291   -1.5249   -0.4528 C   0  0  0  0  0  0  0  0  0  0  0  0
    1.1047   -1.0137    0.4460 C   0  0  0  0  0  0  0  0  0  0  0  0
    3.2869    0.5253    0.8474 H   0  0  0  0  0  0  0  0  0  0  0  0
    2.7018    1.9470   -0.1781 H   0  0  0  0  0  0  0  0  0  0  0  0
    2.9828    0.3508   -0.9019 H   0  0  0  0  0  0  0  0  0  0  0  0
    0.8610    2.3733   -0.0605 H   0  0  0  0  0  0  0  0  0  0  0  0
   -1.3834    2.6606    0.1675 H   0  0  0  0  0  0  0  0  0  0  0  0
   -1.5209    1.2505    1.2314 H   0  0  0  0  0  0  0  0  0  0  0  0
   -2.3100   -0.8203   -1.6078 H   0  0  0  0  0  0  0  0  0  0  0  0
   -3.2386   -0.3354   -0.1397 H   0  0  0  0  0  0  0  0  0  0  0  0
   -1.1743   -0.7597    1.2491 H   0  0  0  0  0  0  0  0  0  0  0  0
   -1.8644   -2.1463    0.3872 H   0  0  0  0  0  0  0  0  0  0  0  0
    0.0771   -2.5933   -0.6737 H   0  0  0  0  0  0  0  0  0  0  0  0
   -0.0026   -0.9909   -1.4258 H   0  0  0  0  0  0  0  0  0  0  0  0
    0.8271   -1.1496    1.5129 H   0  0  0  0  0  0  0  0  0  0  0  0
    2.0278   -1.5540    0.1860 H   0  0  0  0  0  0  0  0  0  0  0  0
  1  2  1  0
  2  3  2  3
  3  4  1  0
  4  5  1  0
  5  6  1  0
  6  7  1  0
  7  8  1  0
  8  9  1  0
  9  2  1  0
  1 10  1  0
  1 11  1  0
  1 12  1  0
  3 13  1  0
  4 14  1  0
  4 15  1  0
  6 16  1  0
  6 17  1  0
  7 18  1  0
  7 19  1  0
  8 20  1  0
  8 21  1  0
  9 22  1  0
  9 23  1  0
M  END
