
     RDKit          3D

 20 20  0  0  0  0  0  0  0  0999 V2000
   -2.2745   -1.2131    0.2118 C   0  0  0  0  0  0  0  0  0  0  0  0
   -1.0167   -0.4016    0.1119 C   0  0  0  0  0  0  0  0  0  0  0  0
    0.1302   -0.7704    0.6515 C   0  0  0  0  0  0  0  0  0  0  0  0
    1.1655    0.2430    0.3750 C   0  0  0  0  0  0  0  0  0  0  0  0
    2.5268   -0.3845    0.2581 C   0  0  0  0  0  0  0  0  0  0  0  0
    0.6843    0.8936   -0.8680 C   0  0  0  0  0  0  0  0  0  0  0  0
   -0.8342    0.8991   -0.5933 C   0  0  0  0  0  0  0  0  0  0  0  0
   -1.1292    1.9401    0.2637 O   0  0  0  0  0  0  0  0  0  0  0  0
   -2.8233   -1.0029    1.1567 H   0  0  0  0  0  0  0  0  0  0  0  0
   -2.9672   -1.0060   -0.6293 H   0  0  0  0  0  0  0  0  0  0  0  0
   -2.0079   -2.2842    0.2429 H   0  0  0  0  0  0  0  0  0  0  0  0
    0.2914   -1.7128    1.2323 H   0  0  0  0  0  0  0  0  0  0  0  0
    1.2453    1.0019    1.1904 H   0  0  0  0  0  0  0  0  0  0  0  0
    2.5781   -1.1992    1.0086 H   0  0  0  0  0  0  0  0  0  0  0  0
    2.6438   -0.8509   -0.7585 H   0  0  0  0  0  0  0  0  0  0  0  0
    3.3056    0.3359    0.4984 H   0  0  0  0  0  0  0  0  0  0  0  0
    1.0363    1.9438   -0.9954 H   0  0  0  0  0  0  0  0  0  0  0  0
    0.8801    0.3599   -1.7961 H   0  0  0  0  0  0  0  0  0  0  0  0
   -1.4049    0.9181   -1.5392 H   0  0  0  0  0  0  0  0  0  0  0  0
   -2.0295    2.2902   -0.0217 H   0  0  0  0  0  0  0  0  0  0  0  0
  1  2  1  0
  2  3  2  0
  3  4  1  0
  4  5  1  0
  4  6  1  0
  6  7  1  0
  7  8  1  0
  7  2  1  0
  1  9  1  0
  1 10  1  0
  1 11  1  0
  3 12  1  0
  4 13  1  0
  5 14  1  0
  5 15  1  0
  5 16  1  0
  6 17  1  0
  6 18  1  0
  7 19  1  0
  8 20  1  0
M  END
