
     RDKit          3D

 23 23  0  0  0  0  0  0  0  0999 V2000
    2.5391   -1.1577   -0.0819 C   0  0  0  0  0  0  0  0  0  0  0  0
    1.4112   -0.2133    0.1527 C   0  0  0  0  0  0  0  0  0  0  0  0
    1.5813    1.0974    0.2461 C   0  0  0  0  0  0  0  0  0  0  0  0
    0.3844    1.9282    0.4799 C   0  0  0  0  0  0  0  0  0  0  0  0
   -0.7557    1.4923   -0.0954 O   0  0  0  0  0  0  0  0  0  0  0  0
   -1.0334    0.1782   -0.1002 C   0  0  0  0  0  0  0  0  0  0  0  0
   -2.2251   -0.1216    0.8207 C   0  0  0  0  0  0  0  0  0  0  0  0
   -1.4881   -0.2086   -1.5140 C   0  0  0  0  0  0  0  0  0  0  0  0
    0.0554   -0.7552    0.2862 C   0  0  0  0  0  0  0  0  0  0  0  0
    2.7703   -1.7538    0.8450 H   0  0  0  0  0  0  0  0  0  0  0  0
    2.1630   -1.8999   -0.8351 H   0  0  0  0  0  0  0  0  0  0  0  0
    3.4411   -0.6448   -0.4627 H   0  0  0  0  0  0  0  0  0  0  0  0
    2.5824    1.4847    0.1465 H   0  0  0  0  0  0  0  0  0  0  0  0
    0.6202    2.9506    0.0642 H   0  0  0  0  0  0  0  0  0  0  0  0
    0.2484    2.1022    1.5831 H   0  0  0  0  0  0  0  0  0  0  0  0
   -2.9653    0.6800    0.7996 H   0  0  0  0  0  0  0  0  0  0  0  0
   -2.6391   -1.0974    0.4405 H   0  0  0  0  0  0  0  0  0  0  0  0
   -1.8508   -0.3495    1.8414 H   0  0  0  0  0  0  0  0  0  0  0  0
   -1.5590    0.6854   -2.1683 H   0  0  0  0  0  0  0  0  0  0  0  0
   -2.4488   -0.7312   -1.5103 H   0  0  0  0  0  0  0  0  0  0  0  0
   -0.7515   -0.8894   -1.9972 H   0  0  0  0  0  0  0  0  0  0  0  0
   -0.0706   -1.0813    1.3601 H   0  0  0  0  0  0  0  0  0  0  0  0
   -0.0093   -1.6951   -0.3010 H   0  0  0  0  0  0  0  0  0  0  0  0
  1  2  1  0
  2  3  2  0
  3  4  1  0
  4  5  1  0
  5  6  1  0
  6  7  1  0
  6  8  1  0
  6  9  1  0
  9  2  1  0
  1 10  1  0
  1 11  1  0
  1 12  1  0
  3 13  1  0
  4 14  1  0
  4 15  1  0
  7 16  1  0
  7 17  1  0
  7 18  1  0
  8 19  1  0
  8 20  1  0
  8 21  1  0
  9 22  1  0
  9 23  1  0
M  END
