
     RDKit          3D

 23 24  0  0  0  0  0  0  0  0999 V2000
   -2.5402    0.9747   -0.6929 C   0  0  0  0  0  0  0  0  0  0  0  0
   -1.2336    0.5026   -0.1712 C   0  0  0  0  0  0  0  0  0  0  0  0
   -0.2775    1.1566    0.4850 C   0  0  0  0  0  0  0  0  0  0  0  0
    0.7810    0.2207    0.7611 C   0  0  0  0  0  0  0  0  0  0  0  0
    1.8882   -0.3136    0.0906 C   0  0  0  0  0  0  0  0  0  0  0  0
    2.9340    0.7338   -0.3415 C   0  0  0  0  0  0  0  0  0  0  0  0
    0.6982   -0.5157   -0.6178 C   0  0  0  0  0  0  0  0  0  0  0  0
   -0.7084   -0.9221   -0.3512 C   0  0  0  0  0  0  0  0  0  0  0  0
   -0.9967   -1.6518    0.9025 C   0  0  0  0  0  0  0  0  0  0  0  0
   -2.8092    0.3749   -1.5954 H   0  0  0  0  0  0  0  0  0  0  0  0
   -2.4845    2.0381   -0.9470 H   0  0  0  0  0  0  0  0  0  0  0  0
   -3.3436    0.7662    0.0671 H   0  0  0  0  0  0  0  0  0  0  0  0
   -0.3408    2.1942    0.7348 H   0  0  0  0  0  0  0  0  0  0  0  0
    0.4698   -0.3992    1.6677 H   0  0  0  0  0  0  0  0  0  0  0  0
    2.4328   -1.2041    0.4802 H   0  0  0  0  0  0  0  0  0  0  0  0
    2.3790    1.5462   -0.8469 H   0  0  0  0  0  0  0  0  0  0  0  0
    3.3824    1.1554    0.5926 H   0  0  0  0  0  0  0  0  0  0  0  0
    3.7105    0.2745   -0.9782 H   0  0  0  0  0  0  0  0  0  0  0  0
    0.6490    0.1577   -1.5377 H   0  0  0  0  0  0  0  0  0  0  0  0
   -1.1426   -1.3753   -1.2612 H   0  0  0  0  0  0  0  0  0  0  0  0
   -1.8159   -2.3989    0.6640 H   0  0  0  0  0  0  0  0  0  0  0  0
   -0.1691   -2.2895    1.2845 H   0  0  0  0  0  0  0  0  0  0  0  0
   -1.4627   -1.0255    1.7119 H   0  0  0  0  0  0  0  0  0  0  0  0
  1  2  1  0
  2  3  2  0
  3  4  1  0
  4  5  1  0
  5  6  1  0
  5  7  1  0
  7  8  1  0
  8  9  1  0
  8  2  1  0
  7  4  1  0
  1 10  1  0
  1 11  1  0
  1 12  1  0
  3 13  1  0
  4 14  1  0
  5 15  1  0
  6 16  1  0
  6 17  1  0
  6 18  1  0
  7 19  1  0
  8 20  1  0
  9 21  1  0
  9 22  1  0
  9 23  1  0
M  END
