
     RDKit          3D

 19 20  0  0  0  0  0  0  0  0999 V2000
    2.6427   -0.2082   -0.4214 C   0  0  0  0  0  0  0  0  0  0  0  0
    1.1526   -0.0828   -0.2974 C   0  0  0  0  0  0  0  0  0  0  0  0
    0.4780    1.0497   -0.4550 C   0  0  0  0  0  0  0  0  0  0  0  0
   -0.9612    0.7747   -0.2565 C   0  0  0  0  0  0  0  0  0  0  0  0
   -1.9194    1.4945   -0.9364 O   0  0  0  0  0  0  0  0  0  0  0  0
   -1.3428    0.3878    1.1442 C   0  0  0  0  0  0  0  0  0  0  0  0
   -1.0847   -0.6188    0.1107 C   0  0  0  0  0  0  0  0  0  0  0  0
   -2.1287   -1.4421   -0.2525 O   0  0  0  0  0  0  0  0  0  0  0  0
    0.2721   -1.2248    0.0174 C   0  0  0  0  0  0  0  0  0  0  0  0
    3.1163    0.7817   -0.5373 H   0  0  0  0  0  0  0  0  0  0  0  0
    3.0231   -0.6306    0.5485 H   0  0  0  0  0  0  0  0  0  0  0  0
    2.9169   -0.9005   -1.2247 H   0  0  0  0  0  0  0  0  0  0  0  0
    0.9567    2.0107   -0.6937 H   0  0  0  0  0  0  0  0  0  0  0  0
   -2.0276    2.3676   -0.4789 H   0  0  0  0  0  0  0  0  0  0  0  0
   -2.3759    0.5821    1.5131 H   0  0  0  0  0  0  0  0  0  0  0  0
   -0.5852    0.4574    1.9601 H   0  0  0  0  0  0  0  0  0  0  0  0
   -3.0135   -1.1252    0.0442 H   0  0  0  0  0  0  0  0  0  0  0  0
    0.3664   -1.9790   -0.7955 H   0  0  0  0  0  0  0  0  0  0  0  0
    0.5144   -1.6944    1.0113 H   0  0  0  0  0  0  0  0  0  0  0  0
  1  2  1  0
  2  3  2  0
  3  4  1  0
  4  5  1  0
  4  6  1  0
  6  7  1  0
  7  8  1  0
  7  9  1  0
  9  2  1  0
  7  4  1  0
  1 10  1  0
  1 11  1  0
  1 12  1  0
  3 13  1  0
  5 14  1  0
  6 15  1  0
  6 16  1  0
  8 17  1  0
  9 18  1  0
  9 19  1  0
M  END
