
     RDKit          3D

 21 22  0  0  0  0  0  0  0  0999 V2000
   -2.0045   -1.5212   -0.4666 C   0  0  0  0  0  0  0  0  0  0  0  0
   -0.8089   -0.6877   -0.1211 C   0  0  0  0  0  0  0  0  0  0  0  0
    0.3184   -1.1424    0.3997 C   0  0  0  0  0  0  0  0  0  0  0  0
    1.2323    0.0052    0.5846 C   0  0  0  0  0  0  0  0  0  0  0  0
    2.6772   -0.3794    0.3403 C   0  0  0  0  0  0  0  0  0  0  0  0
    0.7461    1.0156   -0.4173 C   0  0  0  0  0  0  0  0  0  0  0  0
   -0.7524    0.7739   -0.3380 C   0  0  0  0  0  0  0  0  0  0  0  0
   -1.6369    1.7485    0.1805 C   0  0  0  0  0  0  0  0  0  0  0  0
   -1.6092    1.3949   -1.2053 O   0  0  0  0  0  0  0  0  0  0  0  0
   -1.9963   -2.4539    0.1041 H   0  0  0  0  0  0  0  0  0  0  0  0
   -2.0025   -1.7524   -1.5496 H   0  0  0  0  0  0  0  0  0  0  0  0
   -2.9528   -0.9699   -0.2364 H   0  0  0  0  0  0  0  0  0  0  0  0
    0.5182   -2.2035    0.6453 H   0  0  0  0  0  0  0  0  0  0  0  0
    1.1049    0.4564    1.5930 H   0  0  0  0  0  0  0  0  0  0  0  0
    2.7756   -0.6001   -0.7355 H   0  0  0  0  0  0  0  0  0  0  0  0
    2.8974   -1.2358    0.9858 H   0  0  0  0  0  0  0  0  0  0  0  0
    3.2979    0.4709    0.6643 H   0  0  0  0  0  0  0  0  0  0  0  0
    1.1183    0.8264   -1.4440 H   0  0  0  0  0  0  0  0  0  0  0  0
    0.9119    2.0606   -0.0972 H   0  0  0  0  0  0  0  0  0  0  0  0
   -2.5659    1.4132    0.7288 H   0  0  0  0  0  0  0  0  0  0  0  0
   -1.2685    2.7808    0.3846 H   0  0  0  0  0  0  0  0  0  0  0  0
  1  2  1  0
  2  3  2  0
  3  4  1  0
  4  5  1  0
  4  6  1  0
  6  7  1  0
  7  8  1  0
  8  9  1  0
  7  2  1  0
  9  7  1  0
  1 10  1  0
  1 11  1  0
  1 12  1  0
  3 13  1  0
  4 14  1  0
  5 15  1  0
  5 16  1  0
  5 17  1  0
  6 18  1  0
  6 19  1  0
  8 20  1  0
  8 21  1  0
M  END
