
     RDKit          3D

 23 23  0  0  0  0  0  0  0  0999 V2000
   -1.8172    1.4088    0.7655 C   0  0  0  0  0  0  0  0  0  0  0  0
   -0.5805    0.7558    0.2692 C   0  0  0  0  0  0  0  0  0  0  0  0
    0.5743    1.3128   -0.0755 C   0  0  0  0  0  0  0  0  0  0  0  0
    1.4691    0.2119   -0.4992 C   0  0  0  0  0  0  0  0  0  0  0  0
    2.9191    0.5026   -0.1893 C   0  0  0  0  0  0  0  0  0  0  0  0
    0.9815   -0.8768    0.1725 O   0  0  0  0  0  0  0  0  0  0  0  0
   -0.4040   -0.7125    0.0635 C   0  0  0  0  0  0  0  0  0  0  0  0
   -1.1379   -1.4743    1.1221 C   0  0  0  0  0  0  0  0  0  0  0  0
   -0.8237   -1.1703   -1.2953 C   0  0  0  0  0  0  0  0  0  0  0  0
   -1.7899    2.5031    0.5911 H   0  0  0  0  0  0  0  0  0  0  0  0
   -2.6649    1.0230    0.1497 H   0  0  0  0  0  0  0  0  0  0  0  0
   -1.9860    1.2550    1.8452 H   0  0  0  0  0  0  0  0  0  0  0  0
    0.7852    2.3897   -0.0388 H   0  0  0  0  0  0  0  0  0  0  0  0
    1.3895    0.1360   -1.6022 H   0  0  0  0  0  0  0  0  0  0  0  0
    3.1328    1.5265   -0.5593 H   0  0  0  0  0  0  0  0  0  0  0  0
    3.1543    0.4150    0.8888 H   0  0  0  0  0  0  0  0  0  0  0  0
    3.5279   -0.1986   -0.7935 H   0  0  0  0  0  0  0  0  0  0  0  0
   -0.6772   -1.2463    2.1094 H   0  0  0  0  0  0  0  0  0  0  0  0
   -1.0557   -2.5601    0.9209 H   0  0  0  0  0  0  0  0  0  0  0  0
   -2.1952   -1.2090    1.1146 H   0  0  0  0  0  0  0  0  0  0  0  0
    0.0637   -1.3712   -1.9635 H   0  0  0  0  0  0  0  0  0  0  0  0
   -1.5269   -0.4692   -1.8047 H   0  0  0  0  0  0  0  0  0  0  0  0
   -1.3384   -2.1519   -1.1912 H   0  0  0  0  0  0  0  0  0  0  0  0
  1  2  1  0
  2  3  2  0
  3  4  1  0
  4  5  1  0
  4  6  1  0
  6  7  1  0
  7  8  1  0
  7  9  1  0
  7  2  1  0
  1 10  1  0
  1 11  1  0
  1 12  1  0
  3 13  1  0
  4 14  1  0
  5 15  1  0
  5 16  1  0
  5 17  1  0
  8 18  1  0
  8 19  1  0
  8 20  1  0
  9 21  1  0
  9 22  1  0
  9 23  1  0
M  END
