
     RDKit          3D

 21 21  0  0  0  0  0  0  0  0999 V2000
   -2.7889    0.4892    0.2728 C   0  0  0  0  0  0  0  0  0  0  0  0
   -1.3875   -0.0904    0.1047 C   0  0  0  0  0  0  0  0  0  0  0  0
   -1.1228   -1.3470   -0.1949 C   0  0  0  0  0  0  0  0  0  0  0  0
    0.3367   -1.5740   -0.2818 C   0  0  0  0  0  0  0  0  0  0  0  0
    0.8696   -0.1748   -0.4402 C   0  0  0  0  0  0  0  0  0  0  0  0
    2.2174   -0.1143    0.2405 C   0  0  0  0  0  0  0  0  0  0  0  0
    2.8068    1.1354    0.1579 O   0  0  0  0  0  0  0  0  0  0  0  0
   -0.1496    0.7033    0.2588 C   0  0  0  0  0  0  0  0  0  0  0  0
   -0.2738    1.8975   -0.4482 O   0  0  0  0  0  0  0  0  0  0  0  0
   -3.0501    1.1113   -0.6035 H   0  0  0  0  0  0  0  0  0  0  0  0
   -3.5152   -0.3259    0.3813 H   0  0  0  0  0  0  0  0  0  0  0  0
   -2.8057    1.0893    1.2036 H   0  0  0  0  0  0  0  0  0  0  0  0
   -1.9294   -2.0822   -0.3480 H   0  0  0  0  0  0  0  0  0  0  0  0
    0.6642   -2.0661    0.6498 H   0  0  0  0  0  0  0  0  0  0  0  0
    0.6018   -2.1515   -1.1940 H   0  0  0  0  0  0  0  0  0  0  0  0
    0.9378    0.0699   -1.5000 H   0  0  0  0  0  0  0  0  0  0  0  0
    2.8768   -0.8277   -0.3128 H   0  0  0  0  0  0  0  0  0  0  0  0
    2.1405   -0.4775    1.2714 H   0  0  0  0  0  0  0  0  0  0  0  0
    3.3991    1.2151   -0.6160 H   0  0  0  0  0  0  0  0  0  0  0  0
    0.0740    0.8549    1.3275 H   0  0  0  0  0  0  0  0  0  0  0  0
    0.0983    2.6655    0.0712 H   0  0  0  0  0  0  0  0  0  0  0  0
  1  2  1  0
  2  3  2  0
  3  4  1  0
  4  5  1  0
  5  6  1  0
  6  7  1  0
  5  8  1  0
  8  9  1  0
  8  2  1  0
  1 10  1  0
  1 11  1  0
  1 12  1  0
  3 13  1  0
  4 14  1  0
  4 15  1  0
  5 16  1  0
  6 17  1  0
  6 18  1  0
  7 19  1  0
  8 20  1  0
  9 21  1  0
M  END
