
     RDKit          3D

 19 21  0  0  0  0  0  0  0  0999 V2000
    2.0932   -0.7673    0.8740 C   0  0  0  0  0  0  0  0  0  0  0  0
    1.0262   -0.0742    0.1089 C   0  0  0  0  0  0  0  0  0  0  0  0
    0.9398    1.2416   -0.0264 C   0  0  0  0  0  0  0  0  0  0  0  0
   -0.2159    1.6368   -0.8344 C   0  0  0  0  0  0  0  0  0  0  0  0
   -0.9633    0.3678   -1.0468 C   0  0  0  0  0  0  0  0  0  0  0  0
   -1.9050   -0.0427    0.0384 C   0  0  0  0  0  0  0  0  0  0  0  0
   -1.2084   -1.3590    0.2144 C   0  0  0  0  0  0  0  0  0  0  0  0
   -0.0498   -0.7770   -0.5805 C   0  0  0  0  0  0  0  0  0  0  0  0
   -0.3753   -0.5318   -1.8964 O   0  0  0  0  0  0  0  0  0  0  0  0
    2.7069   -0.0431    1.4788 H   0  0  0  0  0  0  0  0  0  0  0  0
    2.8152   -1.2828    0.2145 H   0  0  0  0  0  0  0  0  0  0  0  0
    1.6366   -1.4509    1.6215 H   0  0  0  0  0  0  0  0  0  0  0  0
    1.6442    1.9583    0.4103 H   0  0  0  0  0  0  0  0  0  0  0  0
   -0.8830    2.3756   -0.3635 H   0  0  0  0  0  0  0  0  0  0  0  0
    0.1147    2.0481   -1.8251 H   0  0  0  0  0  0  0  0  0  0  0  0
   -1.7865    0.5626    0.9819 H   0  0  0  0  0  0  0  0  0  0  0  0
   -2.9709   -0.0753   -0.2215 H   0  0  0  0  0  0  0  0  0  0  0  0
   -0.9007   -1.6285    1.2254 H   0  0  0  0  0  0  0  0  0  0  0  0
   -1.7178   -2.1582   -0.3735 H   0  0  0  0  0  0  0  0  0  0  0  0
  1  2  1  0
  2  3  2  0
  3  4  1  0
  4  5  1  0
  5  6  1  0
  6  7  1  0
  7  8  1  0
  8  9  1  0
  8  2  1  0
  8  5  1  0
  9  5  1  0
  1 10  1  0
  1 11  1  0
  1 12  1  0
  3 13  1  0
  4 14  1  0
  4 15  1  0
  6 16  1  0
  6 17  1  0
  7 18  1  0
  7 19  1  0
M  END
