
     RDKit          3D

 23 24  0  0  0  0  0  0  0  0999 V2000
    2.1376   -1.4574    0.3822 C   0  0  0  0  0  0  0  0  0  0  0  0
    1.2456   -0.3877   -0.1426 C   0  0  0  0  0  0  0  0  0  0  0  0
    1.7350    0.8325   -0.2610 C   0  0  0  0  0  0  0  0  0  0  0  0
    0.9181    1.9726   -0.7769 C   0  0  0  0  0  0  0  0  0  0  0  0
   -0.4452    1.8076   -0.0958 C   0  0  0  0  0  0  0  0  0  0  0  0
   -0.9986    0.5159   -0.5804 C   0  0  0  0  0  0  0  0  0  0  0  0
   -1.2556   -0.5380    0.4465 C   0  0  0  0  0  0  0  0  0  0  0  0
   -2.4989   -1.3609    0.1916 C   0  0  0  0  0  0  0  0  0  0  0  0
   -0.1457   -0.6693   -0.5294 C   0  0  0  0  0  0  0  0  0  0  0  0
    1.7374   -2.4761    0.1683 H   0  0  0  0  0  0  0  0  0  0  0  0
    3.1487   -1.4262   -0.0972 H   0  0  0  0  0  0  0  0  0  0  0  0
    2.3113   -1.3689    1.4653 H   0  0  0  0  0  0  0  0  0  0  0  0
    2.7806    1.0683    0.0174 H   0  0  0  0  0  0  0  0  0  0  0  0
    1.3373    2.9051   -0.4023 H   0  0  0  0  0  0  0  0  0  0  0  0
    0.8093    1.9385   -1.8794 H   0  0  0  0  0  0  0  0  0  0  0  0
   -0.2486    1.8443    0.9904 H   0  0  0  0  0  0  0  0  0  0  0  0
   -1.1336    2.6157   -0.3551 H   0  0  0  0  0  0  0  0  0  0  0  0
   -1.6705    0.5900   -1.4639 H   0  0  0  0  0  0  0  0  0  0  0  0
   -1.0447   -0.2950    1.5063 H   0  0  0  0  0  0  0  0  0  0  0  0
   -2.4335   -2.3841    0.5669 H   0  0  0  0  0  0  0  0  0  0  0  0
   -2.6635   -1.4388   -0.9156 H   0  0  0  0  0  0  0  0  0  0  0  0
   -3.4050   -0.8143    0.5690 H   0  0  0  0  0  0  0  0  0  0  0  0
   -0.2173   -1.4739   -1.2976 H   0  0  0  0  0  0  0  0  0  0  0  0
  1  2  1  0
  2  3  2  0
  3  4  1  0
  4  5  1  0
  5  6  1  0
  6  7  1  0
  7  8  1  0
  7  9  1  0
  9  2  1  0
  9  6  1  0
  1 10  1  0
  1 11  1  0
  1 12  1  0
  3 13  1  0
  4 14  1  0
  4 15  1  0
  5 16  1  0
  5 17  1  0
  6 18  1  0
  7 19  1  0
  8 20  1  0
  8 21  1  0
  8 22  1  0
  9 23  1  0
M  END
