
     RDKit          3D

 16 16  0  0  0  0  0  0  0  0999 V2000
   -1.5000   -1.2145    0.0832 C   0  0  0  0  0  0  0  0  0  0  0  0
   -0.5995   -0.0445   -0.0231 C   0  0  0  0  0  0  0  0  0  0  0  0
    0.7123   -0.1380   -0.1093 C   0  0  0  0  0  0  0  0  0  0  0  0
    1.5007   -1.3630   -0.1165 C   0  0  0  0  0  0  0  0  0  0  0  0
    2.7518   -1.2774   -0.2054 O   0  0  0  0  0  0  0  0  0  0  0  0
    1.2196    1.2532   -0.1972 C   0  0  0  0  0  0  0  0  0  0  0  0
    0.2309    1.9620    0.4852 O   0  0  0  0  0  0  0  0  0  0  0  0
   -0.9273    1.4065   -0.0561 C   0  0  0  0  0  0  0  0  0  0  0  0
   -1.2779   -1.8703   -0.7865 H   0  0  0  0  0  0  0  0  0  0  0  0
   -1.2127   -1.7730    1.0114 H   0  0  0  0  0  0  0  0  0  0  0  0
   -2.5681   -0.9132    0.1277 H   0  0  0  0  0  0  0  0  0  0  0  0
    1.0404   -2.3386   -0.0477 H   0  0  0  0  0  0  0  0  0  0  0  0
    1.3037    1.6270   -1.2189 H   0  0  0  0  0  0  0  0  0  0  0  0
    2.1603    1.2890    0.3858 H   0  0  0  0  0  0  0  0  0  0  0  0
   -1.7683    1.6156    0.6152 H   0  0  0  0  0  0  0  0  0  0  0  0
   -1.0659    1.7790   -1.0899 H   0  0  0  0  0  0  0  0  0  0  0  0
  1  2  1  0
  2  3  2  0
  3  4  1  0
  4  5  2  0
  3  6  1  0
  6  7  1  0
  7  8  1  0
  8  2  1  0
  1  9  1  0
  1 10  1  0
  1 11  1  0
  4 12  1  0
  6 13  1  0
  6 14  1  0
  8 15  1  0
  8 16  1  0
M  END
