
     RDKit          3D

 21 22  0  0  0  0  0  0  0  0999 V2000
   -2.7046    1.1649    0.5140 C   0  0  0  0  0  0  0  0  0  0  0  0
   -1.4629    0.3816    0.2514 C   0  0  0  0  0  0  0  0  0  0  0  0
   -0.1960    0.8116    0.3497 C   0  0  0  0  0  0  0  0  0  0  0  0
    0.7080   -0.2792    0.0033 C   0  0  0  0  0  0  0  0  0  0  0  0
   -0.1369   -1.1718   -0.8520 C   0  0  0  0  0  0  0  0  0  0  0  0
   -1.4857   -1.0461   -0.1729 C   0  0  0  0  0  0  0  0  0  0  0  0
    1.0875   -1.0298    1.2316 O   0  0  0  0  0  0  0  0  0  0  0  0
    2.0249   -0.4961    0.3241 C   0  0  0  0  0  0  0  0  0  0  0  0
    2.8970    0.5638    0.9574 C   0  0  0  0  0  0  0  0  0  0  0  0
   -3.1804    1.3567   -0.4721 H   0  0  0  0  0  0  0  0  0  0  0  0
   -3.3882    0.4876    1.0788 H   0  0  0  0  0  0  0  0  0  0  0  0
   -2.5101    2.0869    1.0776 H   0  0  0  0  0  0  0  0  0  0  0  0
    0.0278    1.8273    0.6470 H   0  0  0  0  0  0  0  0  0  0  0  0
   -0.2029   -0.6985   -1.8719 H   0  0  0  0  0  0  0  0  0  0  0  0
    0.2191   -2.2026   -0.9147 H   0  0  0  0  0  0  0  0  0  0  0  0
   -2.3288   -1.2895   -0.8345 H   0  0  0  0  0  0  0  0  0  0  0  0
   -1.4434   -1.7291    0.7177 H   0  0  0  0  0  0  0  0  0  0  0  0
    2.6116   -1.2891   -0.1843 H   0  0  0  0  0  0  0  0  0  0  0  0
    2.8932    0.4976    2.0700 H   0  0  0  0  0  0  0  0  0  0  0  0
    2.5977    1.5940    0.6728 H   0  0  0  0  0  0  0  0  0  0  0  0
    3.9730    0.4601    0.6569 H   0  0  0  0  0  0  0  0  0  0  0  0
  1  2  1  0
  2  3  2  0
  3  4  1  0
  4  5  1  0
  5  6  1  0
  4  7  1  0
  7  8  1  0
  8  9  1  0
  6  2  1  0
  8  4  1  0
  1 10  1  0
  1 11  1  0
  1 12  1  0
  3 13  1  0
  5 14  1  0
  5 15  1  0
  6 16  1  0
  6 17  1  0
  8 18  1  0
  9 19  1  0
  9 20  1  0
  9 21  1  0
M  END
