
     RDKit          3D

 19 21  0  0  0  0  0  0  0  0999 V2000
    2.6540    0.6100   -0.1398 C   0  0  0  0  0  0  0  0  0  0  0  0
    1.2895    0.0132   -0.2111 C   0  0  0  0  0  0  0  0  0  0  0  0
    0.9689   -1.3049   -0.2047 C   0  0  0  0  0  0  0  0  0  0  0  0
   -0.5031   -1.2788   -0.2026 C   0  0  0  0  0  0  0  0  0  0  0  0
   -0.8370   -0.2233   -1.2030 C   0  0  0  0  0  0  0  0  0  0  0  0
   -2.0078    0.1043   -0.3239 C   0  0  0  0  0  0  0  0  0  0  0  0
   -2.5088    1.3853   -0.4311 O   0  0  0  0  0  0  0  0  0  0  0  0
   -0.8810   -0.0932    0.6447 C   0  0  0  0  0  0  0  0  0  0  0  0
   -0.0301    0.6750   -0.3045 C   0  0  0  0  0  0  0  0  0  0  0  0
    2.9048    1.1555   -1.0575 H   0  0  0  0  0  0  0  0  0  0  0  0
    2.7421    1.2930    0.7376 H   0  0  0  0  0  0  0  0  0  0  0  0
    3.3729   -0.2302    0.0343 H   0  0  0  0  0  0  0  0  0  0  0  0
    1.6183   -2.1569   -0.2018 H   0  0  0  0  0  0  0  0  0  0  0  0
   -1.0660   -2.1751   -0.1421 H   0  0  0  0  0  0  0  0  0  0  0  0
   -0.8079   -0.2708   -2.2001 H   0  0  0  0  0  0  0  0  0  0  0  0
   -2.7244   -0.7161   -0.2843 H   0  0  0  0  0  0  0  0  0  0  0  0
   -3.1690    1.5361    0.2688 H   0  0  0  0  0  0  0  0  0  0  0  0
   -0.9114   -0.0501    1.6435 H   0  0  0  0  0  0  0  0  0  0  0  0
   -0.1039    1.7271   -0.3943 H   0  0  0  0  0  0  0  0  0  0  0  0
  1  2  1  0
  2  3  2  0
  3  4  1  0
  4  5  1  0
  5  6  1  0
  6  7  1  0
  6  8  1  0
  8  9  1  0
  9  2  1  0
  8  4  1  0
  9  5  1  0
  1 10  1  0
  1 11  1  0
  1 12  1  0
  3 13  1  0
  4 14  1  0
  5 15  1  0
  6 16  1  0
  7 17  1  0
  8 18  1  0
  9 19  1  0
M  END
