
     RDKit          3D

 25 25  0  0  0  0  0  0  0  0999 V2000
   -0.9943    2.0253   -0.6226 C   0  0  0  0  0  0  0  0  0  0  0  0
   -0.0244    0.9493   -0.2182 C   0  0  0  0  0  0  0  0  0  0  0  0
    1.2386    1.2691   -0.1727 C   0  0  0  0  0  0  0  0  0  0  0  0
    2.2613    0.2906    0.2101 C   0  0  0  0  0  0  0  0  0  0  0  0
    1.8359   -1.1215    0.2035 C   0  0  0  0  0  0  0  0  0  0  0  0
    0.4094   -1.3909    0.5199 C   0  0  0  0  0  0  0  0  0  0  0  0
   -0.5763   -0.3879    0.0966 C   0  0  0  0  0  0  0  0  0  0  0  0
   -1.6652   -0.1963    1.1395 C   0  0  0  0  0  0  0  0  0  0  0  0
   -1.2844   -0.8976   -1.1633 C   0  0  0  0  0  0  0  0  0  0  0  0
   -1.0612    2.1129   -1.7326 H   0  0  0  0  0  0  0  0  0  0  0  0
   -1.9894    1.8663   -0.1628 H   0  0  0  0  0  0  0  0  0  0  0  0
   -0.6475    3.0192   -0.2585 H   0  0  0  0  0  0  0  0  0  0  0  0
    1.5654    2.2808   -0.4206 H   0  0  0  0  0  0  0  0  0  0  0  0
    2.6753    0.6009    1.2067 H   0  0  0  0  0  0  0  0  0  0  0  0
    3.1305    0.4329   -0.4972 H   0  0  0  0  0  0  0  0  0  0  0  0
    2.4817   -1.6757    0.9484 H   0  0  0  0  0  0  0  0  0  0  0  0
    2.1086   -1.5716   -0.7817 H   0  0  0  0  0  0  0  0  0  0  0  0
    0.1588   -2.4014    0.0847 H   0  0  0  0  0  0  0  0  0  0  0  0
    0.3239   -1.5468    1.6286 H   0  0  0  0  0  0  0  0  0  0  0  0
   -2.6693   -0.2497    0.7189 H   0  0  0  0  0  0  0  0  0  0  0  0
   -1.4897    0.7555    1.7054 H   0  0  0  0  0  0  0  0  0  0  0  0
   -1.5408   -0.9960    1.9244 H   0  0  0  0  0  0  0  0  0  0  0  0
   -0.5148   -0.9837   -1.9599 H   0  0  0  0  0  0  0  0  0  0  0  0
   -2.1171   -0.2362   -1.4394 H   0  0  0  0  0  0  0  0  0  0  0  0
   -1.6150   -1.9473   -0.9572 H   0  0  0  0  0  0  0  0  0  0  0  0
  1  2  1  0
  2  3  2  0
  3  4  1  0
  4  5  1  0
  5  6  1  0
  6  7  1  0
  7  8  1  0
  7  9  1  0
  7  2  1  0
  1 10  1  0
  1 11  1  0
  1 12  1  0
  3 13  1  0
  4 14  1  0
  4 15  1  0
  5 16  1  0
  5 17  1  0
  6 18  1  0
  6 19  1  0
  8 20  1  0
  8 21  1  0
  8 22  1  0
  9 23  1  0
  9 24  1  0
  9 25  1  0
M  END
