
     RDKit          3D

 21 22  0  0  0  0  0  0  0  0999 V2000
    2.5067   -0.5508   -0.1425 C   0  0  0  0  0  0  0  0  0  0  0  0
    1.0478   -0.3134   -0.3726 C   0  0  0  0  0  0  0  0  0  0  0  0
    0.1074   -1.2431   -0.4611 C   0  0  0  0  0  0  0  0  0  0  0  0
   -1.2205   -0.6391   -0.6920 C   0  0  0  0  0  0  0  0  0  0  0  0
   -2.1542   -0.7273    0.5245 C   0  0  0  0  0  0  0  0  0  0  0  0
   -1.2163    0.3086    1.1586 C   0  0  0  0  0  0  0  0  0  0  0  0
   -1.0006    0.7997   -0.2745 C   0  0  0  0  0  0  0  0  0  0  0  0
    0.4428    1.0473   -0.5377 C   0  0  0  0  0  0  0  0  0  0  0  0
    0.9528    1.8679    0.4484 O   0  0  0  0  0  0  0  0  0  0  0  0
    3.0516   -0.7611   -1.0794 H   0  0  0  0  0  0  0  0  0  0  0  0
    2.6725   -1.3925    0.5698 H   0  0  0  0  0  0  0  0  0  0  0  0
    2.9928    0.3334    0.3283 H   0  0  0  0  0  0  0  0  0  0  0  0
    0.3053   -2.3109   -0.3727 H   0  0  0  0  0  0  0  0  0  0  0  0
   -1.6947   -0.8042   -1.6528 H   0  0  0  0  0  0  0  0  0  0  0  0
   -2.1791   -1.6923    1.0168 H   0  0  0  0  0  0  0  0  0  0  0  0
   -3.1017   -0.2367    0.2671 H   0  0  0  0  0  0  0  0  0  0  0  0
   -0.3068   -0.1936    1.5442 H   0  0  0  0  0  0  0  0  0  0  0  0
   -1.7059    1.0286    1.8122 H   0  0  0  0  0  0  0  0  0  0  0  0
   -1.7258    1.5264   -0.6262 H   0  0  0  0  0  0  0  0  0  0  0  0
    0.6198    1.4304   -1.5580 H   0  0  0  0  0  0  0  0  0  0  0  0
    1.6061    2.5225    0.0996 H   0  0  0  0  0  0  0  0  0  0  0  0
  1  2  1  0
  2  3  2  0
  3  4  1  0
  4  5  1  0
  5  6  1  0
  6  7  1  0
  7  8  1  0
  8  9  1  0
  8  2  1  0
  7  4  1  0
  1 10  1  0
  1 11  1  0
  1 12  1  0
  3 13  1  0
  4 14  1  0
  5 15  1  0
  5 16  1  0
  6 17  1  0
  6 18  1  0
  7 19  1  0
  8 20  1  0
  9 21  1  0
M  END
