
     RDKit          3D

 19 20  0  0  0  0  0  0  0  0999 V2000
    1.9221    1.0283    0.7366 C   0  0  0  0  0  0  0  0  0  0  0  0
    0.8516    0.1270    0.1881 C   0  0  0  0  0  0  0  0  0  0  0  0
    1.1234   -1.1111   -0.2110 C   0  0  0  0  0  0  0  0  0  0  0  0
   -0.0889   -1.7969   -0.7093 C   0  0  0  0  0  0  0  0  0  0  0  0
   -1.1289   -0.7179   -0.6967 C   0  0  0  0  0  0  0  0  0  0  0  0
   -1.6453   -0.3552    0.6578 C   0  0  0  0  0  0  0  0  0  0  0  0
   -0.5822    0.4482    0.0143 C   0  0  0  0  0  0  0  0  0  0  0  0
   -0.9354    1.8358   -0.3621 C   0  0  0  0  0  0  0  0  0  0  0  0
   -0.8415    2.1890   -1.5186 O   0  0  0  0  0  0  0  0  0  0  0  0
    2.5132    1.4861   -0.0915 H   0  0  0  0  0  0  0  0  0  0  0  0
    2.6517    0.4445    1.3610 H   0  0  0  0  0  0  0  0  0  0  0  0
    1.4674    1.8114    1.4012 H   0  0  0  0  0  0  0  0  0  0  0  0
    2.1035   -1.6068   -0.1935 H   0  0  0  0  0  0  0  0  0  0  0  0
    0.0331   -2.3144   -1.6553 H   0  0  0  0  0  0  0  0  0  0  0  0
   -0.3831   -2.5395    0.0843 H   0  0  0  0  0  0  0  0  0  0  0  0
   -1.7281   -0.5116   -1.6064 H   0  0  0  0  0  0  0  0  0  0  0  0
   -2.6475    0.0656    0.6825 H   0  0  0  0  0  0  0  0  0  0  0  0
   -1.4080   -1.0159    1.5232 H   0  0  0  0  0  0  0  0  0  0  0  0
   -1.2771    2.5335    0.3953 H   0  0  0  0  0  0  0  0  0  0  0  0
  1  2  1  0
  2  3  2  0
  3  4  1  0
  4  5  1  0
  5  6  1  0
  6  7  1  0
  7  8  1  0
  8  9  2  0
  7  2  1  0
  7  5  1  0
  1 10  1  0
  1 11  1  0
  1 12  1  0
  3 13  1  0
  4 14  1  0
  4 15  1  0
  5 16  1  0
  6 17  1  0
  6 18  1  0
  8 19  1  0
M  END
