
     RDKit          3D

 21 22  0  0  0  0  0  0  0  0999 V2000
    2.6647   -0.1699   -0.4259 C   0  0  0  0  0  0  0  0  0  0  0  0
    1.2110   -0.0754   -0.1860 C   0  0  0  0  0  0  0  0  0  0  0  0
    0.5278   -1.1868    0.0168 C   0  0  0  0  0  0  0  0  0  0  0  0
   -0.9658   -1.2084    0.2723 C   0  0  0  0  0  0  0  0  0  0  0  0
   -1.5593   -2.3139   -0.2879 O   0  0  0  0  0  0  0  0  0  0  0  0
   -1.4391    0.0704   -0.2848 C   0  0  0  0  0  0  0  0  0  0  0  0
   -2.0383    1.2187    0.2781 C   0  0  0  0  0  0  0  0  0  0  0  0
   -0.6650    1.1169    0.5891 C   0  0  0  0  0  0  0  0  0  0  0  0
    0.5744    1.3006   -0.1835 C   0  0  0  0  0  0  0  0  0  0  0  0
    2.9225    0.0018   -1.4902 H   0  0  0  0  0  0  0  0  0  0  0  0
    3.1180   -1.0978   -0.0751 H   0  0  0  0  0  0  0  0  0  0  0  0
    3.1534    0.6608    0.1384 H   0  0  0  0  0  0  0  0  0  0  0  0
    1.0730   -2.1168   -0.0034 H   0  0  0  0  0  0  0  0  0  0  0  0
   -1.0556   -1.2925    1.3825 H   0  0  0  0  0  0  0  0  0  0  0  0
   -2.3220   -2.5739    0.2995 H   0  0  0  0  0  0  0  0  0  0  0  0
   -1.2408    0.1024   -1.3988 H   0  0  0  0  0  0  0  0  0  0  0  0
   -2.7919    1.0949    1.0934 H   0  0  0  0  0  0  0  0  0  0  0  0
   -2.3775    2.0417   -0.4062 H   0  0  0  0  0  0  0  0  0  0  0  0
   -0.4151    0.7970    1.6471 H   0  0  0  0  0  0  0  0  0  0  0  0
    0.3744    1.5931   -1.2392 H   0  0  0  0  0  0  0  0  0  0  0  0
    1.2511    2.0372    0.2637 H   0  0  0  0  0  0  0  0  0  0  0  0
  1  2  1  0
  2  3  2  0
  3  4  1  0
  4  5  1  0
  4  6  1  0
  6  7  1  0
  7  8  1  0
  8  9  1  0
  9  2  1  0
  8  6  1  0
  1 10  1  0
  1 11  1  0
  1 12  1  0
  3 13  1  0
  4 14  1  0
  5 15  1  0
  6 16  1  0
  7 17  1  0
  7 18  1  0
  8 19  1  0
  9 20  1  0
  9 21  1  0
M  END
