
     RDKit          3D

 23 24  0  0  0  0  0  0  0  0999 V2000
   -1.0030    2.0083   -0.1861 C   0  0  0  0  0  0  0  0  0  0  0  0
   -0.9161    0.5451   -0.0970 C   0  0  0  0  0  0  0  0  0  0  0  0
    0.1270   -0.2488   -0.2533 C   0  0  0  0  0  0  0  0  0  0  0  0
    1.5048    0.1582   -0.5661 C   0  0  0  0  0  0  0  0  0  0  0  0
    2.2519    1.1919    0.1339 C   0  0  0  0  0  0  0  0  0  0  0  0
    2.5156   -0.2657    0.5107 C   0  0  0  0  0  0  0  0  0  0  0  0
   -0.2672   -1.6745   -0.0682 C   0  0  0  0  0  0  0  0  0  0  0  0
   -1.7737   -1.7040   -0.0924 C   0  0  0  0  0  0  0  0  0  0  0  0
   -2.1384   -0.2858    0.2149 C   0  0  0  0  0  0  0  0  0  0  0  0
   -1.5434    2.3607    0.7418 H   0  0  0  0  0  0  0  0  0  0  0  0
   -1.5887    2.3011   -1.0868 H   0  0  0  0  0  0  0  0  0  0  0  0
   -0.0603    2.5397   -0.2151 H   0  0  0  0  0  0  0  0  0  0  0  0
    1.8352   -0.1164   -1.5862 H   0  0  0  0  0  0  0  0  0  0  0  0
    3.0659    1.7009   -0.4239 H   0  0  0  0  0  0  0  0  0  0  0  0
    1.8785    1.7817    0.9789 H   0  0  0  0  0  0  0  0  0  0  0  0
    3.4639   -0.7129    0.1956 H   0  0  0  0  0  0  0  0  0  0  0  0
    2.1350   -0.6427    1.4687 H   0  0  0  0  0  0  0  0  0  0  0  0
    0.1472   -2.1110    0.8483 H   0  0  0  0  0  0  0  0  0  0  0  0
    0.0782   -2.3106   -0.9163 H   0  0  0  0  0  0  0  0  0  0  0  0
   -2.1367   -2.4278    0.6784 H   0  0  0  0  0  0  0  0  0  0  0  0
   -2.1851   -2.0677   -1.0575 H   0  0  0  0  0  0  0  0  0  0  0  0
   -2.4299   -0.1267    1.2767 H   0  0  0  0  0  0  0  0  0  0  0  0
   -2.9608    0.1068   -0.4148 H   0  0  0  0  0  0  0  0  0  0  0  0
  1  2  1  0
  2  3  2  0
  3  4  1  0
  4  5  1  0
  5  6  1  0
  3  7  1  0
  7  8  1  0
  8  9  1  0
  9  2  1  0
  6  4  1  0
  1 10  1  0
  1 11  1  0
  1 12  1  0
  4 13  1  0
  5 14  1  0
  5 15  1  0
  6 16  1  0
  6 17  1  0
  7 18  1  0
  7 19  1  0
  8 20  1  0
  8 21  1  0
  9 22  1  0
  9 23  1  0
M  END
