
     RDKit          3D

 21 21  0  0  0  0  0  0  0  0999 V2000
    2.6156    0.7443   -0.1067 C   0  0  0  0  0  0  0  0  0  0  0  0
    1.2918    0.1019   -0.2174 C   0  0  0  0  0  0  0  0  0  0  0  0
    0.1646    0.7953   -0.3080 C   0  0  0  0  0  0  0  0  0  0  0  0
   -1.1256    0.0701   -0.4161 C   0  0  0  0  0  0  0  0  0  0  0  0
   -2.1915    0.9573    0.2039 C   0  0  0  0  0  0  0  0  0  0  0  0
   -1.4896   -0.1321   -1.7477 O   0  0  0  0  0  0  0  0  0  0  0  0
   -1.0997   -1.2744    0.2512 C   0  0  0  0  0  0  0  0  0  0  0  0
    0.1301   -1.7357    0.5914 O   0  0  0  0  0  0  0  0  0  0  0  0
    1.1612   -1.3838   -0.2324 C   0  0  0  0  0  0  0  0  0  0  0  0
    2.5100    1.7889    0.2824 H   0  0  0  0  0  0  0  0  0  0  0  0
    3.2782    0.1246    0.5447 H   0  0  0  0  0  0  0  0  0  0  0  0
    3.0365    0.8246   -1.1289 H   0  0  0  0  0  0  0  0  0  0  0  0
    0.2386    1.8774   -0.2989 H   0  0  0  0  0  0  0  0  0  0  0  0
   -1.7657    1.9025    0.6106 H   0  0  0  0  0  0  0  0  0  0  0  0
   -2.9792    1.2350   -0.5102 H   0  0  0  0  0  0  0  0  0  0  0  0
   -2.6207    0.4287    1.0968 H   0  0  0  0  0  0  0  0  0  0  0  0
   -0.9809    0.4274   -2.3653 H   0  0  0  0  0  0  0  0  0  0  0  0
   -1.7063   -1.1935    1.2012 H   0  0  0  0  0  0  0  0  0  0  0  0
   -1.6307   -2.0645   -0.3407 H   0  0  0  0  0  0  0  0  0  0  0  0
    2.1057   -1.7988    0.2293 H   0  0  0  0  0  0  0  0  0  0  0  0
    1.0576   -1.6952   -1.2825 H   0  0  0  0  0  0  0  0  0  0  0  0
  1  2  1  0
  2  3  2  0
  3  4  1  0
  4  5  1  0
  4  6  1  0
  4  7  1  0
  7  8  1  0
  8  9  1  0
  9  2  1  0
  1 10  1  0
  1 11  1  0
  1 12  1  0
  3 13  1  0
  5 14  1  0
  5 15  1  0
  5 16  1  0
  6 17  1  0
  7 18  1  0
  7 19  1  0
  9 20  1  0
  9 21  1  0
M  END
