
     RDKit          3D

 19 19  0  0  0  0  0  0  0  0999 V2000
    2.0150   -0.9266    0.1057 C   0  0  0  0  0  0  0  0  0  0  0  0
    0.5736   -0.5681    0.1283 C   0  0  0  0  0  0  0  0  0  0  0  0
    0.2514    0.6861   -0.1027 C   0  0  0  0  0  0  0  0  0  0  0  0
    1.2863    1.6683   -0.3682 C   0  0  0  0  0  0  0  0  0  0  0  0
    0.9837    2.8497   -0.5858 O   0  0  0  0  0  0  0  0  0  0  0  0
   -1.1473    1.0952   -0.0931 C   0  0  0  0  0  0  0  0  0  0  0  0
   -2.1358   -0.0071   -0.1930 C   0  0  0  0  0  0  0  0  0  0  0  0
   -1.5948   -1.2568   -0.4146 O   0  0  0  0  0  0  0  0  0  0  0  0
   -0.5049   -1.5403    0.3947 C   0  0  0  0  0  0  0  0  0  0  0  0
    2.1667   -1.9921    0.3412 H   0  0  0  0  0  0  0  0  0  0  0  0
    2.5234   -0.2980    0.8870 H   0  0  0  0  0  0  0  0  0  0  0  0
    2.4031   -0.6403   -0.8999 H   0  0  0  0  0  0  0  0  0  0  0  0
    2.3366    1.3718   -0.3776 H   0  0  0  0  0  0  0  0  0  0  0  0
   -1.3538    1.6794    0.8505 H   0  0  0  0  0  0  0  0  0  0  0  0
   -1.2830    1.8476   -0.9211 H   0  0  0  0  0  0  0  0  0  0  0  0
   -2.7852   -0.0689    0.7058 H   0  0  0  0  0  0  0  0  0  0  0  0
   -2.8181    0.2006   -1.0485 H   0  0  0  0  0  0  0  0  0  0  0  0
   -0.7404   -1.5239    1.4682 H   0  0  0  0  0  0  0  0  0  0  0  0
   -0.1764   -2.5766    0.1229 H   0  0  0  0  0  0  0  0  0  0  0  0
  1  2  1  0
  2  3  2  0
  3  4  1  0
  4  5  2  0
  3  6  1  0
  6  7  1  0
  7  8  1  0
  8  9  1  0
  9  2  1  0
  1 10  1  0
  1 11  1  0
  1 12  1  0
  4 13  1  0
  6 14  1  0
  6 15  1  0
  7 16  1  0
  7 17  1  0
  9 18  1  0
  9 19  1  0
M  END
