
     RDKit          3D

 19 19  0  0  0  0  0  0  0  0999 V2000
    2.1869    0.2903    0.1078 C   0  0  0  0  0  0  0  0  0  0  0  0
    0.8035   -0.2792    0.0622 C   0  0  0  0  0  0  0  0  0  0  0  0
    0.4632   -1.4860    0.5025 C   0  0  0  0  0  0  0  0  0  0  0  0
   -0.9605   -1.7059    0.2993 C   0  0  0  0  0  0  0  0  0  0  0  0
   -1.7075   -2.5114    0.8856 O   0  0  0  0  0  0  0  0  0  0  0  0
   -1.3275   -0.7479   -0.7720 C   0  0  0  0  0  0  0  0  0  0  0  0
   -0.3874    0.3923   -0.4588 C   0  0  0  0  0  0  0  0  0  0  0  0
   -0.9975    1.1931    0.6890 C   0  0  0  0  0  0  0  0  0  0  0  0
   -0.1454    1.1859   -1.5644 O   0  0  0  0  0  0  0  0  0  0  0  0
    2.7814   -0.1156    0.9393 H   0  0  0  0  0  0  0  0  0  0  0  0
    2.1094    1.3949    0.1246 H   0  0  0  0  0  0  0  0  0  0  0  0
    2.6389    0.0360   -0.8879 H   0  0  0  0  0  0  0  0  0  0  0  0
    1.1244   -2.2408    0.9603 H   0  0  0  0  0  0  0  0  0  0  0  0
   -1.0502   -1.2336   -1.7358 H   0  0  0  0  0  0  0  0  0  0  0  0
   -2.3884   -0.4457   -0.7410 H   0  0  0  0  0  0  0  0  0  0  0  0
   -0.5719    2.2125    0.6061 H   0  0  0  0  0  0  0  0  0  0  0  0
   -0.7034    0.7391    1.6639 H   0  0  0  0  0  0  0  0  0  0  0  0
   -2.0900    1.2793    0.5722 H   0  0  0  0  0  0  0  0  0  0  0  0
    0.2221    2.0426   -1.2528 H   0  0  0  0  0  0  0  0  0  0  0  0
  1  2  1  0
  2  3  2  0
  3  4  1  0
  4  5  2  0
  4  6  1  0
  6  7  1  0
  7  8  1  0
  7  9  1  0
  7  2  1  0
  1 10  1  0
  1 11  1  0
  1 12  1  0
  3 13  1  0
  6 14  1  0
  6 15  1  0
  8 16  1  0
  8 17  1  0
  8 18  1  0
  9 19  1  0
M  END
