
     RDKit          3D

 21 22  0  0  0  0  0  0  0  0999 V2000
   -0.2674    2.2660    0.0035 C   0  0  0  0  0  0  0  0  0  0  0  0
   -0.3245    0.7968    0.0269 C   0  0  0  0  0  0  0  0  0  0  0  0
    0.6196   -0.1249    0.2123 C   0  0  0  0  0  0  0  0  0  0  0  0
    2.0696   -0.0219    0.4943 C   0  0  0  0  0  0  0  0  0  0  0  0
    2.8596   -0.6198   -0.4723 O   0  0  0  0  0  0  0  0  0  0  0  0
   -0.1158   -1.3971    0.0716 C   0  0  0  0  0  0  0  0  0  0  0  0
   -1.0226   -1.0967   -1.1007 C   0  0  0  0  0  0  0  0  0  0  0  0
   -1.5474   -0.0238   -0.1675 C   0  0  0  0  0  0  0  0  0  0  0  0
   -1.3498   -1.0777    0.9310 C   0  0  0  0  0  0  0  0  0  0  0  0
    0.6907    2.6680   -0.3610 H   0  0  0  0  0  0  0  0  0  0  0  0
   -1.0527    2.6170   -0.7272 H   0  0  0  0  0  0  0  0  0  0  0  0
   -0.5720    2.6448    0.9935 H   0  0  0  0  0  0  0  0  0  0  0  0
    2.3384   -0.5217    1.4681 H   0  0  0  0  0  0  0  0  0  0  0  0
    2.3979    1.0337    0.6061 H   0  0  0  0  0  0  0  0  0  0  0  0
    2.7343   -0.2683   -1.3714 H   0  0  0  0  0  0  0  0  0  0  0  0
    0.3452   -2.3281    0.1749 H   0  0  0  0  0  0  0  0  0  0  0  0
   -0.4560   -0.6172   -1.9193 H   0  0  0  0  0  0  0  0  0  0  0  0
   -1.7340   -1.8706   -1.3816 H   0  0  0  0  0  0  0  0  0  0  0  0
   -2.4881    0.4038   -0.3072 H   0  0  0  0  0  0  0  0  0  0  0  0
   -1.0257   -0.6030    1.8609 H   0  0  0  0  0  0  0  0  0  0  0  0
   -2.0992   -1.8593    0.9651 H   0  0  0  0  0  0  0  0  0  0  0  0
  1  2  1  0
  2  3  2  0
  3  4  1  0
  4  5  1  0
  3  6  1  0
  6  7  1  0
  7  8  1  0
  8  9  1  0
  8  2  1  0
  9  6  1  0
  1 10  1  0
  1 11  1  0
  1 12  1  0
  4 13  1  0
  4 14  1  0
  5 15  1  0
  6 16  1  0
  7 17  1  0
  7 18  1  0
  8 19  1  0
  9 20  1  0
  9 21  1  0
M  END
