
     RDKit          3D

 21 21  0  0  0  0  0  0  0  0999 V2000
    2.6710   -0.5038    0.5778 C   0  0  0  0  0  0  0  0  0  0  0  0
    1.2711   -0.0808    0.2418 C   0  0  0  0  0  0  0  0  0  0  0  0
    0.7914    0.8293    1.0743 C   0  0  0  0  0  0  0  0  0  0  0  0
   -0.5400    1.5170    1.1082 C   0  0  0  0  0  0  0  0  0  0  0  0
   -1.5790    0.6098    1.0160 O   0  0  0  0  0  0  0  0  0  0  0  0
   -2.0678    0.4792   -0.2857 C   0  0  0  0  0  0  0  0  0  0  0  0
   -1.8427   -0.9141   -0.8361 C   0  0  0  0  0  0  0  0  0  0  0  0
   -0.4468   -1.0981   -1.3158 C   0  0  0  0  0  0  0  0  0  0  0  0
    0.7890   -0.8014   -0.9469 C   0  0  0  0  0  0  0  0  0  0  0  0
    2.7049   -1.6150    0.7822 H   0  0  0  0  0  0  0  0  0  0  0  0
    2.9599   -0.0284    1.5406 H   0  0  0  0  0  0  0  0  0  0  0  0
    3.3341   -0.2321   -0.2557 H   0  0  0  0  0  0  0  0  0  0  0  0
    1.4667    1.1224    1.8523 H   0  0  0  0  0  0  0  0  0  0  0  0
   -0.6131    2.2187    1.9383 H   0  0  0  0  0  0  0  0  0  0  0  0
   -0.5722    2.1264    0.1596 H   0  0  0  0  0  0  0  0  0  0  0  0
   -3.1876    0.5866   -0.1923 H   0  0  0  0  0  0  0  0  0  0  0  0
   -1.7220    1.2694   -0.9620 H   0  0  0  0  0  0  0  0  0  0  0  0
   -2.0279   -1.6170    0.0196 H   0  0  0  0  0  0  0  0  0  0  0  0
   -2.5461   -1.0965   -1.6527 H   0  0  0  0  0  0  0  0  0  0  0  0
   -0.4163   -1.6384   -2.2527 H   0  0  0  0  0  0  0  0  0  0  0  0
    1.5732   -1.1331   -1.6107 H   0  0  0  0  0  0  0  0  0  0  0  0
  1  2  1  0
  2  3  2  3
  3  4  1  0
  4  5  1  0
  5  6  1  0
  6  7  1  0
  7  8  1  0
  8  9  2  3
  9  2  1  0
  1 10  1  0
  1 11  1  0
  1 12  1  0
  3 13  1  0
  4 14  1  0
  4 15  1  0
  6 16  1  0
  6 17  1  0
  7 18  1  0
  7 19  1  0
  8 20  1  0
  9 21  1  0
M  END
