
     RDKit          3D

 21 22  0  0  0  0  0  0  0  0999 V2000
    2.7870   -0.3151    0.4402 C   0  0  0  0  0  0  0  0  0  0  0  0
    1.3308   -0.1247    0.2948 C   0  0  0  0  0  0  0  0  0  0  0  0
    0.6030   -1.1597   -0.1656 C   0  0  0  0  0  0  0  0  0  0  0  0
   -0.8136   -1.3147   -0.4238 C   0  0  0  0  0  0  0  0  0  0  0  0
   -1.8397   -0.9015    0.5868 C   0  0  0  0  0  0  0  0  0  0  0  0
   -1.6462   -0.2379   -0.7954 C   0  0  0  0  0  0  0  0  0  0  0  0
   -1.3401    1.1726   -0.7216 C   0  0  0  0  0  0  0  0  0  0  0  0
   -0.3706    1.6923    0.2055 C   0  0  0  0  0  0  0  0  0  0  0  0
    0.7708    1.1717    0.6590 C   0  0  0  0  0  0  0  0  0  0  0  0
    3.2315   -0.9242   -0.3663 H   0  0  0  0  0  0  0  0  0  0  0  0
    3.0783   -0.7541    1.4127 H   0  0  0  0  0  0  0  0  0  0  0  0
    3.2745    0.6858    0.3926 H   0  0  0  0  0  0  0  0  0  0  0  0
    1.2450   -2.0042   -0.3618 H   0  0  0  0  0  0  0  0  0  0  0  0
   -1.0576   -2.3318   -0.8601 H   0  0  0  0  0  0  0  0  0  0  0  0
   -1.4309   -0.3858    1.4661 H   0  0  0  0  0  0  0  0  0  0  0  0
   -2.7337   -1.4870    0.7731 H   0  0  0  0  0  0  0  0  0  0  0  0
   -2.5266   -0.4606   -1.4778 H   0  0  0  0  0  0  0  0  0  0  0  0
   -2.3106    1.7342   -0.5560 H   0  0  0  0  0  0  0  0  0  0  0  0
   -1.0237    1.5434   -1.7468 H   0  0  0  0  0  0  0  0  0  0  0  0
   -0.5878    2.6692    0.6113 H   0  0  0  0  0  0  0  0  0  0  0  0
    1.3603    1.7319    1.3603 H   0  0  0  0  0  0  0  0  0  0  0  0
  1  2  1  0
  2  3  2  0
  3  4  1  0
  4  5  1  0
  5  6  1  0
  6  7  1  0
  7  8  1  0
  8  9  2  0
  9  2  1  0
  6  4  1  0
  1 10  1  0
  1 11  1  0
  1 12  1  0
  3 13  1  0
  4 14  1  0
  5 15  1  0
  5 16  1  0
  6 17  1  0
  7 18  1  0
  7 19  1  0
  8 20  1  0
  9 21  1  0
M  END
