
     RDKit          3D

 17 18  0  0  0  0  0  0  0  0999 V2000
    2.2897   -0.1197    0.3861 C   0  0  0  0  0  0  0  0  0  0  0  0
    0.8144   -0.1641    0.2262 C   0  0  0  0  0  0  0  0  0  0  0  0
   -0.0804   -0.1309    1.2134 C   0  0  0  0  0  0  0  0  0  0  0  0
   -1.4414   -0.2455    0.6412 C   0  0  0  0  0  0  0  0  0  0  0  0
   -1.6682    1.0115   -0.1233 C   0  0  0  0  0  0  0  0  0  0  0  0
   -0.7621    1.0373   -1.0977 C   0  0  0  0  0  0  0  0  0  0  0  0
    0.0142   -0.2533   -1.0316 C   0  0  0  0  0  0  0  0  0  0  0  0
   -1.0982   -1.1461   -0.5309 C   0  0  0  0  0  0  0  0  0  0  0  0
   -1.5431   -2.1711   -0.9085 O   0  0  0  0  0  0  0  0  0  0  0  0
    2.7717    0.4433   -0.4434 H   0  0  0  0  0  0  0  0  0  0  0  0
    2.7376   -1.1258    0.4972 H   0  0  0  0  0  0  0  0  0  0  0  0
    2.5694    0.4333    1.3224 H   0  0  0  0  0  0  0  0  0  0  0  0
    0.1270   -0.0365    2.2680 H   0  0  0  0  0  0  0  0  0  0  0  0
   -2.2193   -0.5909    1.2609 H   0  0  0  0  0  0  0  0  0  0  0  0
   -2.3985    1.7785    0.0332 H   0  0  0  0  0  0  0  0  0  0  0  0
   -0.6140    1.8405   -1.8056 H   0  0  0  0  0  0  0  0  0  0  0  0
    0.5011   -0.5604   -1.9076 H   0  0  0  0  0  0  0  0  0  0  0  0
  1  2  1  0
  2  3  2  0
  3  4  1  0
  4  5  1  0
  5  6  2  0
  6  7  1  0
  7  8  1  0
  8  9  2  0
  7  2  1  0
  8  4  1  0
  1 10  1  0
  1 11  1  0
  1 12  1  0
  3 13  1  0
  4 14  1  0
  5 15  1  0
  6 16  1  0
  7 17  1  0
M  END
