
     RDKit          3D

 21 22  0  0  0  0  0  0  0  0999 V2000
    2.3845    1.0121   -0.0546 C   0  0  0  0  0  0  0  0  0  0  0  0
    1.1724    0.1409   -0.1825 C   0  0  0  0  0  0  0  0  0  0  0  0
   -0.0845    0.5253   -0.2363 C   0  0  0  0  0  0  0  0  0  0  0  0
   -1.0711    1.6338   -0.2285 C   0  0  0  0  0  0  0  0  0  0  0  0
   -2.1967    1.0124    0.5773 C   0  0  0  0  0  0  0  0  0  0  0  0
   -2.1136   -0.3144    0.4797 C   0  0  0  0  0  0  0  0  0  0  0  0
   -0.9714   -0.6969   -0.3672 C   0  0  0  0  0  0  0  0  0  0  0  0
   -0.1330   -1.7957    0.2346 C   0  0  0  0  0  0  0  0  0  0  0  0
    1.2484   -1.3525   -0.2568 C   0  0  0  0  0  0  0  0  0  0  0  0
    2.0708    2.0740   -0.1273 H   0  0  0  0  0  0  0  0  0  0  0  0
    2.8593    0.8034    0.9230 H   0  0  0  0  0  0  0  0  0  0  0  0
    3.0510    0.7362   -0.9047 H   0  0  0  0  0  0  0  0  0  0  0  0
   -0.6896    2.5250    0.2922 H   0  0  0  0  0  0  0  0  0  0  0  0
   -1.4482    1.8382   -1.2404 H   0  0  0  0  0  0  0  0  0  0  0  0
   -2.9064    1.6193    1.1129 H   0  0  0  0  0  0  0  0  0  0  0  0
   -2.8115   -0.9832    0.9724 H   0  0  0  0  0  0  0  0  0  0  0  0
   -1.2362   -0.8792   -1.4124 H   0  0  0  0  0  0  0  0  0  0  0  0
   -0.4016   -2.7885   -0.1331 H   0  0  0  0  0  0  0  0  0  0  0  0
   -0.1530   -1.6952    1.3386 H   0  0  0  0  0  0  0  0  0  0  0  0
    1.9801   -1.7535    0.4926 H   0  0  0  0  0  0  0  0  0  0  0  0
    1.4503   -1.6617   -1.2796 H   0  0  0  0  0  0  0  0  0  0  0  0
  1  2  1  0
  2  3  2  0
  3  4  1  0
  4  5  1  0
  5  6  2  0
  6  7  1  0
  7  8  1  0
  8  9  1  0
  9  2  1  0
  7  3  1  0
  1 10  1  0
  1 11  1  0
  1 12  1  0
  4 13  1  0
  4 14  1  0
  5 15  1  0
  6 16  1  0
  7 17  1  0
  8 18  1  0
  8 19  1  0
  9 20  1  0
  9 21  1  0
M  END
