
     RDKit          3D

 15 16  0  0  0  0  0  0  0  0999 V2000
   -2.0441   -0.2733   -0.1477 C   0  0  0  0  0  0  0  0  0  0  0  0
   -0.5598   -0.2553   -0.1918 C   0  0  0  0  0  0  0  0  0  0  0  0
    0.2876   -1.1803    0.2532 C   0  0  0  0  0  0  0  0  0  0  0  0
    1.6422   -0.6811   -0.1485 C   0  0  0  0  0  0  0  0  0  0  0  0
    2.0102    0.4141    0.6863 O   0  0  0  0  0  0  0  0  0  0  0  0
    1.1473    1.4358    0.3080 C   0  0  0  0  0  0  0  0  0  0  0  0
    1.0356    2.6194    0.7008 O   0  0  0  0  0  0  0  0  0  0  0  0
    0.2965    0.8143   -0.7496 C   0  0  0  0  0  0  0  0  0  0  0  0
    1.2989   -0.0024   -1.3449 O   0  0  0  0  0  0  0  0  0  0  0  0
   -2.4410   -1.2371    0.2140 H   0  0  0  0  0  0  0  0  0  0  0  0
   -2.4695    0.5188    0.4803 H   0  0  0  0  0  0  0  0  0  0  0  0
   -2.4528   -0.1466   -1.1822 H   0  0  0  0  0  0  0  0  0  0  0  0
    0.0248   -2.0865    0.7867 H   0  0  0  0  0  0  0  0  0  0  0  0
    2.3891   -1.4360   -0.2702 H   0  0  0  0  0  0  0  0  0  0  0  0
   -0.1650    1.4963   -1.4288 H   0  0  0  0  0  0  0  0  0  0  0  0
  1  2  1  0
  2  3  2  0
  3  4  1  0
  4  5  1  0
  5  6  1  0
  6  7  2  0
  6  8  1  0
  8  9  1  0
  8  2  1  0
  9  4  1  0
  1 10  1  0
  1 11  1  0
  1 12  1  0
  3 13  1  0
  4 14  1  0
  8 15  1  0
M  END
