
     RDKit          3D

 21 22  0  0  0  0  0  0  0  0999 V2000
    2.7155   -0.5855   -0.2449 C   0  0  0  0  0  0  0  0  0  0  0  0
    1.3588    0.0249    0.0423 C   0  0  0  0  0  0  0  0  0  0  0  0
    0.6927    0.7726   -0.8053 C   0  0  0  0  0  0  0  0  0  0  0  0
   -0.5847    1.1905   -0.1882 C   0  0  0  0  0  0  0  0  0  0  0  0
   -1.7623    0.9031   -1.0503 C   0  0  0  0  0  0  0  0  0  0  0  0
   -2.2821   -0.2842   -0.8212 C   0  0  0  0  0  0  0  0  0  0  0  0
   -1.5021   -0.9496    0.2407 C   0  0  0  0  0  0  0  0  0  0  0  0
   -0.8135    0.1935    0.9473 C   0  0  0  0  0  0  0  0  0  0  0  0
    0.6158   -0.1437    1.3031 C   0  0  0  0  0  0  0  0  0  0  0  0
    2.5841   -1.5638   -0.7512 H   0  0  0  0  0  0  0  0  0  0  0  0
    3.2864    0.0913   -0.9212 H   0  0  0  0  0  0  0  0  0  0  0  0
    3.2425   -0.6635    0.7275 H   0  0  0  0  0  0  0  0  0  0  0  0
    1.0305    1.0535   -1.8335 H   0  0  0  0  0  0  0  0  0  0  0  0
   -0.5483    2.2198    0.1791 H   0  0  0  0  0  0  0  0  0  0  0  0
   -2.1776    1.5844   -1.8043 H   0  0  0  0  0  0  0  0  0  0  0  0
   -3.1542   -0.7587   -1.3085 H   0  0  0  0  0  0  0  0  0  0  0  0
   -2.1562   -1.5107    0.9575 H   0  0  0  0  0  0  0  0  0  0  0  0
   -0.7533   -1.6231   -0.2268 H   0  0  0  0  0  0  0  0  0  0  0  0
   -1.3768    0.6146    1.7777 H   0  0  0  0  0  0  0  0  0  0  0  0
    0.9283    0.6031    2.0748 H   0  0  0  0  0  0  0  0  0  0  0  0
    0.6564   -1.1686    1.7055 H   0  0  0  0  0  0  0  0  0  0  0  0
  1  2  1  0
  2  3  2  0
  3  4  1  0
  4  5  1  0
  5  6  2  0
  6  7  1  0
  7  8  1  0
  8  9  1  0
  9  2  1  0
  8  4  1  0
  1 10  1  0
  1 11  1  0
  1 12  1  0
  3 13  1  0
  4 14  1  0
  5 15  1  0
  6 16  1  0
  7 17  1  0
  7 18  1  0
  8 19  1  0
  9 20  1  0
  9 21  1  0
M  END
