
     RDKit          3D

 25 25  0  0  0  0  0  0  0  0999 V2000
   -1.4688    1.8665    0.8736 C   0  0  0  0  0  0  0  0  0  0  0  0
   -0.5759    0.8889    0.2154 C   0  0  0  0  0  0  0  0  0  0  0  0
    0.7415    1.0150    0.3711 C   0  0  0  0  0  0  0  0  0  0  0  0
    1.5526   -0.0306   -0.3397 C   0  0  0  0  0  0  0  0  0  0  0  0
    2.9926    0.2316   -0.0121 C   0  0  0  0  0  0  0  0  0  0  0  0
    1.0659   -1.3616    0.1735 C   0  0  0  0  0  0  0  0  0  0  0  0
   -0.3577   -1.5514   -0.2997 C   0  0  0  0  0  0  0  0  0  0  0  0
   -1.0333   -0.2358   -0.6169 C   0  0  0  0  0  0  0  0  0  0  0  0
   -2.5252   -0.4662   -0.5133 C   0  0  0  0  0  0  0  0  0  0  0  0
   -0.9684    2.8466    1.0357 H   0  0  0  0  0  0  0  0  0  0  0  0
   -2.3652    2.1106    0.2315 H   0  0  0  0  0  0  0  0  0  0  0  0
   -1.7967    1.5211    1.8835 H   0  0  0  0  0  0  0  0  0  0  0  0
    1.1786    1.8012    0.9573 H   0  0  0  0  0  0  0  0  0  0  0  0
    1.3421    0.0522   -1.4060 H   0  0  0  0  0  0  0  0  0  0  0  0
    3.2291    1.3088    0.0491 H   0  0  0  0  0  0  0  0  0  0  0  0
    3.2312   -0.2370    0.9660 H   0  0  0  0  0  0  0  0  0  0  0  0
    3.6147   -0.2925   -0.7689 H   0  0  0  0  0  0  0  0  0  0  0  0
    1.1070   -1.3062    1.2865 H   0  0  0  0  0  0  0  0  0  0  0  0
    1.6789   -2.1985   -0.1562 H   0  0  0  0  0  0  0  0  0  0  0  0
   -0.2979   -2.1914   -1.2285 H   0  0  0  0  0  0  0  0  0  0  0  0
   -0.8884   -2.0967    0.5090 H   0  0  0  0  0  0  0  0  0  0  0  0
   -0.7938    0.0207   -1.6820 H   0  0  0  0  0  0  0  0  0  0  0  0
   -2.7868   -0.7318    0.5290 H   0  0  0  0  0  0  0  0  0  0  0  0
   -3.1114    0.3825   -0.9138 H   0  0  0  0  0  0  0  0  0  0  0  0
   -2.7647   -1.3459   -1.1441 H   0  0  0  0  0  0  0  0  0  0  0  0
  1  2  1  0
  2  3  2  0
  3  4  1  0
  4  5  1  0
  4  6  1  0
  6  7  1  0
  7  8  1  0
  8  9  1  0
  8  2  1  0
  1 10  1  0
  1 11  1  0
  1 12  1  0
  3 13  1  0
  4 14  1  0
  5 15  1  0
  5 16  1  0
  5 17  1  0
  6 18  1  0
  6 19  1  0
  7 20  1  0
  7 21  1  0
  8 22  1  0
  9 23  1  0
  9 24  1  0
  9 25  1  0
M  END
