
     RDKit          3D

 21 21  0  0  0  0  0  0  0  0999 V2000
   -1.1796    1.9335    0.1593 C   0  0  0  0  0  0  0  0  0  0  0  0
   -1.1769    0.4708   -0.0421 C   0  0  0  0  0  0  0  0  0  0  0  0
   -0.1737   -0.3640    0.2067 C   0  0  0  0  0  0  0  0  0  0  0  0
    1.1519   -0.0095    0.7371 C   0  0  0  0  0  0  0  0  0  0  0  0
    2.2842   -0.3825   -0.2021 C   0  0  0  0  0  0  0  0  0  0  0  0
    3.4755    0.0071    0.4209 O   0  0  0  0  0  0  0  0  0  0  0  0
   -0.6582   -1.7165   -0.1556 C   0  0  0  0  0  0  0  0  0  0  0  0
   -2.0437   -1.5805    0.0962 O   0  0  0  0  0  0  0  0  0  0  0  0
   -2.2995   -0.3823   -0.5683 C   0  0  0  0  0  0  0  0  0  0  0  0
   -1.2412    2.2143    1.2363 H   0  0  0  0  0  0  0  0  0  0  0  0
   -0.2812    2.4153   -0.2811 H   0  0  0  0  0  0  0  0  0  0  0  0
   -2.0585    2.3822   -0.3309 H   0  0  0  0  0  0  0  0  0  0  0  0
    1.3642   -0.5694    1.6948 H   0  0  0  0  0  0  0  0  0  0  0  0
    1.2402    1.0605    1.0120 H   0  0  0  0  0  0  0  0  0  0  0  0
    2.1876    0.1568   -1.1763 H   0  0  0  0  0  0  0  0  0  0  0  0
    2.3083   -1.4756   -0.3303 H   0  0  0  0  0  0  0  0  0  0  0  0
    3.2916    0.7679    1.0396 H   0  0  0  0  0  0  0  0  0  0  0  0
   -0.2171   -2.5172    0.4471 H   0  0  0  0  0  0  0  0  0  0  0  0
   -0.5819   -1.8932   -1.2486 H   0  0  0  0  0  0  0  0  0  0  0  0
   -2.1118   -0.5579   -1.6451 H   0  0  0  0  0  0  0  0  0  0  0  0
   -3.2800    0.0403   -0.3537 H   0  0  0  0  0  0  0  0  0  0  0  0
  1  2  1  0
  2  3  2  0
  3  4  1  0
  4  5  1  0
  5  6  1  0
  3  7  1  0
  7  8  1  0
  8  9  1  0
  9  2  1  0
  1 10  1  0
  1 11  1  0
  1 12  1  0
  4 13  1  0
  4 14  1  0
  5 15  1  0
  5 16  1  0
  6 17  1  0
  7 18  1  0
  7 19  1  0
  9 20  1  0
  9 21  1  0
M  END
