
     RDKit          3D

 21 22  0  0  0  0  0  0  0  0999 V2000
    2.4604    0.4062    0.2191 C   0  0  0  0  0  0  0  0  0  0  0  0
    1.0979   -0.1000    0.3700 C   0  0  0  0  0  0  0  0  0  0  0  0
    0.7494   -1.2165   -0.2946 C   0  0  0  0  0  0  0  0  0  0  0  0
   -0.6117   -1.8040   -0.2019 C   0  0  0  0  0  0  0  0  0  0  0  0
   -1.7031   -0.8053    0.1259 C   0  0  0  0  0  0  0  0  0  0  0  0
   -1.1258    0.5356    0.0777 C   0  0  0  0  0  0  0  0  0  0  0  0
   -0.8592    1.5448    1.0274 C   0  0  0  0  0  0  0  0  0  0  0  0
   -0.3957    2.8008    0.5693 O   0  0  0  0  0  0  0  0  0  0  0  0
    0.0113    0.4479    1.1648 C   0  0  0  0  0  0  0  0  0  0  0  0
    2.6756    0.4556   -0.8884 H   0  0  0  0  0  0  0  0  0  0  0  0
    3.1688   -0.3775    0.5987 H   0  0  0  0  0  0  0  0  0  0  0  0
    2.6380    1.3966    0.6317 H   0  0  0  0  0  0  0  0  0  0  0  0
    1.4701   -1.7366   -0.9358 H   0  0  0  0  0  0  0  0  0  0  0  0
   -0.8552   -2.2461   -1.2113 H   0  0  0  0  0  0  0  0  0  0  0  0
   -0.6099   -2.6109    0.5753 H   0  0  0  0  0  0  0  0  0  0  0  0
   -2.5505   -0.8906   -0.5998 H   0  0  0  0  0  0  0  0  0  0  0  0
   -2.1355   -1.0154    1.1247 H   0  0  0  0  0  0  0  0  0  0  0  0
   -0.7821    0.7628   -0.9783 H   0  0  0  0  0  0  0  0  0  0  0  0
   -1.6260    1.7284    1.8358 H   0  0  0  0  0  0  0  0  0  0  0  0
   -0.8217    2.9765   -0.3062 H   0  0  0  0  0  0  0  0  0  0  0  0
   -0.1950   -0.2523    2.0319 H   0  0  0  0  0  0  0  0  0  0  0  0
  1  2  1  0
  2  3  2  0
  3  4  1  0
  4  5  1  0
  5  6  1  0
  6  7  1  0
  7  8  1  0
  7  9  1  0
  9  2  1  0
  9  6  1  0
  1 10  1  0
  1 11  1  0
  1 12  1  0
  3 13  1  0
  4 14  1  0
  4 15  1  0
  5 16  1  0
  5 17  1  0
  6 18  1  0
  7 19  1  0
  8 20  1  0
  9 21  1  0
M  END
