
     RDKit          3D

 23 23  0  0  0  0  0  0  0  0999 V2000
    0.2691   -1.8736    2.1488 C   0  0  0  0  0  0  0  0  0  0  0  0
   -0.1869   -1.2987    0.8783 C   0  0  0  0  0  0  0  0  0  0  0  0
   -0.1516   -1.9224   -0.2962 C   0  0  0  0  0  0  0  0  0  0  0  0
   -0.6649   -1.1556   -1.4626 C   0  0  0  0  0  0  0  0  0  0  0  0
   -0.0950    0.2419   -1.5342 C   0  0  0  0  0  0  0  0  0  0  0  0
    0.1404    0.8244   -0.1860 C   0  0  0  0  0  0  0  0  0  0  0  0
   -0.1778    2.2956   -0.0962 C   0  0  0  0  0  0  0  0  0  0  0  0
    0.6051    3.0257   -0.9860 O   0  0  0  0  0  0  0  0  0  0  0  0
   -0.7529    0.1011    0.7993 C   0  0  0  0  0  0  0  0  0  0  0  0
    1.3677   -2.0061    2.0912 H   0  0  0  0  0  0  0  0  0  0  0  0
    0.0044   -1.1727    2.9643 H   0  0  0  0  0  0  0  0  0  0  0  0
   -0.2293   -2.8407    2.4077 H   0  0  0  0  0  0  0  0  0  0  0  0
    0.2390   -2.9302   -0.3414 H   0  0  0  0  0  0  0  0  0  0  0  0
   -1.7823   -1.0581   -1.3790 H   0  0  0  0  0  0  0  0  0  0  0  0
   -0.4384   -1.7505   -2.3696 H   0  0  0  0  0  0  0  0  0  0  0  0
    0.7996    0.1970   -2.1835 H   0  0  0  0  0  0  0  0  0  0  0  0
   -0.8173    0.9254   -2.0679 H   0  0  0  0  0  0  0  0  0  0  0  0
    1.2166    0.7121    0.0681 H   0  0  0  0  0  0  0  0  0  0  0  0
   -1.2444    2.5173   -0.3029 H   0  0  0  0  0  0  0  0  0  0  0  0
    0.0710    2.6622    0.9209 H   0  0  0  0  0  0  0  0  0  0  0  0
    0.1464    3.8690   -1.1785 H   0  0  0  0  0  0  0  0  0  0  0  0
   -0.8177    0.5791    1.7725 H   0  0  0  0  0  0  0  0  0  0  0  0
   -1.7626    0.0577    0.3328 H   0  0  0  0  0  0  0  0  0  0  0  0
  1  2  1  0
  2  3  2  0
  3  4  1  0
  4  5  1  0
  5  6  1  0
  6  7  1  0
  7  8  1  0
  6  9  1  0
  9  2  1  0
  1 10  1  0
  1 11  1  0
  1 12  1  0
  3 13  1  0
  4 14  1  0
  4 15  1  0
  5 16  1  0
  5 17  1  0
  6 18  1  0
  7 19  1  0
  7 20  1  0
  8 21  1  0
  9 22  1  0
  9 23  1  0
M  END
