
     RDKit          3D

 19 21  0  0  0  0  0  0  0  0999 V2000
    2.4455   -0.3896    0.4567 C   0  0  0  0  0  0  0  0  0  0  0  0
    1.0043   -0.0030    0.3662 C   0  0  0  0  0  0  0  0  0  0  0  0
    0.2719    0.6424    1.2672 C   0  0  0  0  0  0  0  0  0  0  0  0
   -1.1154    0.8246    0.7755 C   0  0  0  0  0  0  0  0  0  0  0  0
   -1.7585   -0.2946    0.1041 C   0  0  0  0  0  0  0  0  0  0  0  0
   -0.8832   -1.4041   -0.4375 C   0  0  0  0  0  0  0  0  0  0  0  0
    0.1423   -0.3203   -0.8090 C   0  0  0  0  0  0  0  0  0  0  0  0
   -0.9508    0.6602   -0.6824 C   0  0  0  0  0  0  0  0  0  0  0  0
   -1.4060    1.4824   -1.6329 O   0  0  0  0  0  0  0  0  0  0  0  0
    2.9030   -0.0092    1.3864 H   0  0  0  0  0  0  0  0  0  0  0  0
    2.9930    0.0654   -0.4101 H   0  0  0  0  0  0  0  0  0  0  0  0
    2.5056   -1.4749    0.3259 H   0  0  0  0  0  0  0  0  0  0  0  0
    0.7011    0.9650    2.2200 H   0  0  0  0  0  0  0  0  0  0  0  0
   -1.7211    1.6713    1.1575 H   0  0  0  0  0  0  0  0  0  0  0  0
   -2.8579   -0.3754   -0.0342 H   0  0  0  0  0  0  0  0  0  0  0  0
   -1.2766   -1.9655   -1.2852 H   0  0  0  0  0  0  0  0  0  0  0  0
   -0.5430   -2.0342    0.4233 H   0  0  0  0  0  0  0  0  0  0  0  0
    0.6411   -0.4632   -1.7586 H   0  0  0  0  0  0  0  0  0  0  0  0
   -1.0954    2.4226   -1.4328 H   0  0  0  0  0  0  0  0  0  0  0  0
  1  2  1  0
  2  3  2  0
  3  4  1  0
  4  5  1  0
  5  6  1  0
  6  7  1  0
  7  8  1  0
  8  9  1  0
  7  2  1  0
  8  4  1  0
  8  5  1  0
  1 10  1  0
  1 11  1  0
  1 12  1  0
  3 13  1  0
  4 14  1  0
  5 15  1  0
  6 16  1  0
  6 17  1  0
  7 18  1  0
  9 19  1  0
M  END
