
     RDKit          3D

 25 25  0  0  0  0  0  0  0  0999 V2000
   -2.9594   -0.8539   -0.2570 C   0  0  0  0  0  0  0  0  0  0  0  0
   -1.5698   -0.3240   -0.3578 C   0  0  0  0  0  0  0  0  0  0  0  0
   -0.6510   -1.2445   -0.5936 C   0  0  0  0  0  0  0  0  0  0  0  0
    0.8003   -1.0367   -0.7449 C   0  0  0  0  0  0  0  0  0  0  0  0
    1.4099   -0.2578    0.4052 C   0  0  0  0  0  0  0  0  0  0  0  0
    2.8782   -0.4885    0.5249 C   0  0  0  0  0  0  0  0  0  0  0  0
    1.0636    1.1916    0.1279 C   0  0  0  0  0  0  0  0  0  0  0  0
   -0.2726    1.5827    0.6244 C   0  0  0  0  0  0  0  0  0  0  0  0
   -1.4314    1.1061   -0.1848 C   0  0  0  0  0  0  0  0  0  0  0  0
   -3.4234   -0.4183    0.6514 H   0  0  0  0  0  0  0  0  0  0  0  0
   -2.9722   -1.9616   -0.0961 H   0  0  0  0  0  0  0  0  0  0  0  0
   -3.5822   -0.5586   -1.1227 H   0  0  0  0  0  0  0  0  0  0  0  0
   -0.9664   -2.2856   -0.6934 H   0  0  0  0  0  0  0  0  0  0  0  0
    1.0554   -0.4348   -1.6675 H   0  0  0  0  0  0  0  0  0  0  0  0
    1.3429   -2.0045   -0.8433 H   0  0  0  0  0  0  0  0  0  0  0  0
    0.9300   -0.5999    1.3468 H   0  0  0  0  0  0  0  0  0  0  0  0
    3.4721    0.0253   -0.2575 H   0  0  0  0  0  0  0  0  0  0  0  0
    3.0756   -1.5674    0.4340 H   0  0  0  0  0  0  0  0  0  0  0  0
    3.1952   -0.1944    1.5519 H   0  0  0  0  0  0  0  0  0  0  0  0
    1.2171    1.4015   -0.9490 H   0  0  0  0  0  0  0  0  0  0  0  0
    1.8291    1.8027    0.6643 H   0  0  0  0  0  0  0  0  0  0  0  0
   -0.3600    1.2978    1.6926 H   0  0  0  0  0  0  0  0  0  0  0  0
   -0.3200    2.7074    0.6213 H   0  0  0  0  0  0  0  0  0  0  0  0
   -2.3410    1.5048    0.3148 H   0  0  0  0  0  0  0  0  0  0  0  0
   -1.4199    1.6106   -1.1920 H   0  0  0  0  0  0  0  0  0  0  0  0
  1  2  1  0
  2  3  2  0
  3  4  1  0
  4  5  1  0
  5  6  1  0
  5  7  1  0
  7  8  1  0
  8  9  1  0
  9  2  1  0
  1 10  1  0
  1 11  1  0
  1 12  1  0
  3 13  1  0
  4 14  1  0
  4 15  1  0
  5 16  1  0
  6 17  1  0
  6 18  1  0
  6 19  1  0
  7 20  1  0
  7 21  1  0
  8 22  1  0
  8 23  1  0
  9 24  1  0
  9 25  1  0
M  END
