
     RDKit          3D

 25 25  0  0  0  0  0  0  0  0999 V2000
    2.7826   -0.4254   -0.9325 C   0  0  0  0  0  0  0  0  0  0  0  0
    1.4613    0.0211   -0.3308 C   0  0  0  0  0  0  0  0  0  0  0  0
    1.4975    0.6637    0.8175 C   0  0  0  0  0  0  0  0  0  0  0  0
    0.3258    1.1831    1.5709 C   0  0  0  0  0  0  0  0  0  0  0  0
   -0.9106    1.0918    0.7560 C   0  0  0  0  0  0  0  0  0  0  0  0
   -0.9676   -0.1451   -0.1139 C   0  0  0  0  0  0  0  0  0  0  0  0
   -1.1069   -1.4076    0.7056 C   0  0  0  0  0  0  0  0  0  0  0  0
   -2.2162    0.0058   -0.9698 C   0  0  0  0  0  0  0  0  0  0  0  0
    0.2058   -0.2656   -1.0255 C   0  0  0  0  0  0  0  0  0  0  0  0
    2.7534   -1.5176   -1.1050 H   0  0  0  0  0  0  0  0  0  0  0  0
    2.8601    0.1379   -1.8908 H   0  0  0  0  0  0  0  0  0  0  0  0
    3.6206   -0.1120   -0.3110 H   0  0  0  0  0  0  0  0  0  0  0  0
    2.5010    0.8362    1.2706 H   0  0  0  0  0  0  0  0  0  0  0  0
    0.5298    2.2558    1.8130 H   0  0  0  0  0  0  0  0  0  0  0  0
    0.2591    0.6409    2.5445 H   0  0  0  0  0  0  0  0  0  0  0  0
   -1.0176    1.9738    0.0982 H   0  0  0  0  0  0  0  0  0  0  0  0
   -1.8381    1.0483    1.3953 H   0  0  0  0  0  0  0  0  0  0  0  0
   -0.0777   -1.8064    0.9148 H   0  0  0  0  0  0  0  0  0  0  0  0
   -1.6473   -1.2740    1.6400 H   0  0  0  0  0  0  0  0  0  0  0  0
   -1.5865   -2.1682    0.0417 H   0  0  0  0  0  0  0  0  0  0  0  0
   -2.2342   -0.7064   -1.8106 H   0  0  0  0  0  0  0  0  0  0  0  0
   -3.1136   -0.1839   -0.3212 H   0  0  0  0  0  0  0  0  0  0  0  0
   -2.2790    1.0333   -1.4023 H   0  0  0  0  0  0  0  0  0  0  0  0
    0.1778   -1.3053   -1.4591 H   0  0  0  0  0  0  0  0  0  0  0  0
    0.0205    0.4257   -1.8955 H   0  0  0  0  0  0  0  0  0  0  0  0
  1  2  1  0
  2  3  2  0
  3  4  1  0
  4  5  1  0
  5  6  1  0
  6  7  1  0
  6  8  1  0
  6  9  1  0
  9  2  1  0
  1 10  1  0
  1 11  1  0
  1 12  1  0
  3 13  1  0
  4 14  1  0
  4 15  1  0
  5 16  1  0
  5 17  1  0
  7 18  1  0
  7 19  1  0
  7 20  1  0
  8 21  1  0
  8 22  1  0
  8 23  1  0
  9 24  1  0
  9 25  1  0
M  END
