
     RDKit          3D

 19 21  0  0  0  0  0  0  0  0999 V2000
    2.6860   -0.5381   -0.1968 C   0  0  0  0  0  0  0  0  0  0  0  0
    1.2593   -0.1616   -0.1281 C   0  0  0  0  0  0  0  0  0  0  0  0
    0.2275   -1.0057   -0.1166 C   0  0  0  0  0  0  0  0  0  0  0  0
   -1.0504   -0.2275   -0.0400 C   0  0  0  0  0  0  0  0  0  0  0  0
   -2.2925   -0.8719    0.4491 C   0  0  0  0  0  0  0  0  0  0  0  0
   -1.1068    1.0352   -0.8227 C   0  0  0  0  0  0  0  0  0  0  0  0
    0.1007    1.5662   -1.2710 O   0  0  0  0  0  0  0  0  0  0  0  0
    0.7416    1.2488   -0.0596 C   0  0  0  0  0  0  0  0  0  0  0  0
   -0.6025    1.0433    0.5420 C   0  0  0  0  0  0  0  0  0  0  0  0
    3.2454    0.1067   -0.9019 H   0  0  0  0  0  0  0  0  0  0  0  0
    2.8378   -1.5736   -0.5033 H   0  0  0  0  0  0  0  0  0  0  0  0
    3.1103   -0.3900    0.8286 H   0  0  0  0  0  0  0  0  0  0  0  0
    0.2563   -2.0833   -0.1547 H   0  0  0  0  0  0  0  0  0  0  0  0
   -2.5391   -1.7607   -0.1628 H   0  0  0  0  0  0  0  0  0  0  0  0
   -2.1179   -1.2413    1.4783 H   0  0  0  0  0  0  0  0  0  0  0  0
   -3.1119   -0.1614    0.4165 H   0  0  0  0  0  0  0  0  0  0  0  0
   -2.0596    1.4811   -1.1007 H   0  0  0  0  0  0  0  0  0  0  0  0
    1.4072    1.9891    0.3501 H   0  0  0  0  0  0  0  0  0  0  0  0
   -0.9914    1.5448    1.3937 H   0  0  0  0  0  0  0  0  0  0  0  0
  1  2  1  0
  2  3  2  0
  3  4  1  0
  4  5  1  0
  4  6  1  0
  6  7  1  0
  7  8  1  0
  8  9  1  0
  8  2  1  0
  9  4  1  0
  9  6  1  0
  1 10  1  0
  1 11  1  0
  1 12  1  0
  3 13  1  0
  5 14  1  0
  5 15  1  0
  5 16  1  0
  6 17  1  0
  8 18  1  0
  9 19  1  0
M  END
