
     RDKit          3D

 21 22  0  0  0  0  0  0  0  0999 V2000
    2.4343   -0.2500    0.6535 C   0  0  0  0  0  0  0  0  0  0  0  0
    1.0503   -0.4092    0.0917 C   0  0  0  0  0  0  0  0  0  0  0  0
    0.6371   -1.3850   -0.7160 C   0  0  0  0  0  0  0  0  0  0  0  0
   -0.8393   -1.1049   -0.9959 C   0  0  0  0  0  0  0  0  0  0  0  0
   -1.1459   -0.6616    0.4090 C   0  0  0  0  0  0  0  0  0  0  0  0
   -1.1892    0.5501    1.0992 C   0  0  0  0  0  0  0  0  0  0  0  0
   -2.2613    1.4225    0.8257 O   0  0  0  0  0  0  0  0  0  0  0  0
   -0.0738    0.4705    0.2627 C   0  0  0  0  0  0  0  0  0  0  0  0
   -0.2095    1.3685   -0.9852 C   0  0  0  0  0  0  0  0  0  0  0  0
    3.0191   -1.1609    0.4569 H   0  0  0  0  0  0  0  0  0  0  0  0
    2.9484    0.6370    0.2542 H   0  0  0  0  0  0  0  0  0  0  0  0
    2.3049   -0.1212    1.7556 H   0  0  0  0  0  0  0  0  0  0  0  0
    1.1777   -2.2241   -1.1232 H   0  0  0  0  0  0  0  0  0  0  0  0
   -0.9905   -0.3722   -1.7739 H   0  0  0  0  0  0  0  0  0  0  0  0
   -1.3679   -2.0362   -1.2483 H   0  0  0  0  0  0  0  0  0  0  0  0
   -0.8678   -1.5428    1.0739 H   0  0  0  0  0  0  0  0  0  0  0  0
   -0.9840    0.5972    2.2098 H   0  0  0  0  0  0  0  0  0  0  0  0
   -3.0030    1.2025    1.4356 H   0  0  0  0  0  0  0  0  0  0  0  0
    0.4200    1.0856   -1.8172 H   0  0  0  0  0  0  0  0  0  0  0  0
   -1.2538    1.5712   -1.2437 H   0  0  0  0  0  0  0  0  0  0  0  0
    0.1942    2.3631   -0.6246 H   0  0  0  0  0  0  0  0  0  0  0  0
  1  2  1  0
  2  3  2  0
  3  4  1  0
  4  5  1  0
  5  6  1  0
  6  7  1  0
  6  8  1  0
  8  9  1  0
  8  2  1  0
  8  5  1  0
  1 10  1  0
  1 11  1  0
  1 12  1  0
  3 13  1  0
  4 14  1  0
  4 15  1  0
  5 16  1  0
  6 17  1  0
  7 18  1  0
  9 19  1  0
  9 20  1  0
  9 21  1  0
M  END
