
     RDKit          3D

 21 23  0  0  0  0  0  0  0  0999 V2000
    2.8249   -0.2650   -0.2403 C   0  0  0  0  0  0  0  0  0  0  0  0
    1.3505   -0.2646   -0.2085 C   0  0  0  0  0  0  0  0  0  0  0  0
    0.5656   -0.9385   -1.0617 C   0  0  0  0  0  0  0  0  0  0  0  0
   -0.8673   -0.7034   -0.7276 C   0  0  0  0  0  0  0  0  0  0  0  0
   -1.2913   -1.3890    0.5755 C   0  0  0  0  0  0  0  0  0  0  0  0
   -0.7212   -0.1991    1.3057 C   0  0  0  0  0  0  0  0  0  0  0  0
    0.4811    0.4784    0.7693 C   0  0  0  0  0  0  0  0  0  0  0  0
   -0.7978    0.5637    0.0714 C   0  0  0  0  0  0  0  0  0  0  0  0
   -1.5918    1.7475   -0.1972 C   0  0  0  0  0  0  0  0  0  0  0  0
    3.2505    0.3185    0.5751 H   0  0  0  0  0  0  0  0  0  0  0  0
    3.1293    0.2283   -1.1957 H   0  0  0  0  0  0  0  0  0  0  0  0
    3.2243   -1.2947   -0.1948 H   0  0  0  0  0  0  0  0  0  0  0  0
    0.8849   -1.5702   -1.8840 H   0  0  0  0  0  0  0  0  0  0  0  0
   -1.5809   -0.7584   -1.5424 H   0  0  0  0  0  0  0  0  0  0  0  0
   -0.8310   -2.3556    0.7646 H   0  0  0  0  0  0  0  0  0  0  0  0
   -2.4127   -1.4334    0.5772 H   0  0  0  0  0  0  0  0  0  0  0  0
   -1.0932    0.1043    2.2799 H   0  0  0  0  0  0  0  0  0  0  0  0
    0.8624    1.3564    1.2753 H   0  0  0  0  0  0  0  0  0  0  0  0
   -0.9423    2.6624   -0.1464 H   0  0  0  0  0  0  0  0  0  0  0  0
   -2.4491    1.9495    0.4565 H   0  0  0  0  0  0  0  0  0  0  0  0
   -1.9948    1.7628   -1.2521 H   0  0  0  0  0  0  0  0  0  0  0  0
  1  2  1  0
  2  3  2  0
  3  4  1  0
  4  5  1  0
  5  6  1  0
  6  7  1  0
  7  8  1  0
  8  9  1  0
  7  2  1  0
  8  4  1  0
  8  6  1  0
  1 10  1  0
  1 11  1  0
  1 12  1  0
  3 13  1  0
  4 14  1  0
  5 15  1  0
  5 16  1  0
  6 17  1  0
  7 18  1  0
  9 19  1  0
  9 20  1  0
  9 21  1  0
M  END
