
     RDKit          3D

 18 18  0  0  0  0  0  0  0  0999 V2000
    2.2090   -0.7427   -0.0634 C   0  0  0  0  0  0  0  0  0  0  0  0
    0.7784   -0.3390   -0.1279 C   0  0  0  0  0  0  0  0  0  0  0  0
   -0.2306   -1.1090   -0.5225 C   0  0  0  0  0  0  0  0  0  0  0  0
   -1.5035   -0.3449   -0.4458 C   0  0  0  0  0  0  0  0  0  0  0  0
   -2.5750   -1.1429   -0.0629 O   0  0  0  0  0  0  0  0  0  0  0  0
   -1.1673    0.6958    0.6061 C   0  0  0  0  0  0  0  0  0  0  0  0
    0.2717    1.0118    0.2493 C   0  0  0  0  0  0  0  0  0  0  0  0
    0.3673    1.9223   -0.7986 O   0  0  0  0  0  0  0  0  0  0  0  0
    2.6082   -0.8258   -1.0988 H   0  0  0  0  0  0  0  0  0  0  0  0
    2.2700   -1.7801    0.3795 H   0  0  0  0  0  0  0  0  0  0  0  0
    2.8041   -0.1042    0.5958 H   0  0  0  0  0  0  0  0  0  0  0  0
   -0.1669   -2.1372   -0.8540 H   0  0  0  0  0  0  0  0  0  0  0  0
   -1.6736    0.1346   -1.4368 H   0  0  0  0  0  0  0  0  0  0  0  0
   -2.8453   -0.9744    0.8535 H   0  0  0  0  0  0  0  0  0  0  0  0
   -1.8226    1.5729    0.5548 H   0  0  0  0  0  0  0  0  0  0  0  0
   -1.1613    0.1920    1.5869 H   0  0  0  0  0  0  0  0  0  0  0  0
    0.7484    1.4033    1.1595 H   0  0  0  0  0  0  0  0  0  0  0  0
    1.0888    2.5676   -0.5747 H   0  0  0  0  0  0  0  0  0  0  0  0
  1  2  1  0
  2  3  2  0
  3  4  1  0
  4  5  1  0
  4  6  1  0
  6  7  1  0
  7  8  1  0
  7  2  1  0
  1  9  1  0
  1 10  1  0
  1 11  1  0
  3 12  1  0
  4 13  1  0
  5 14  1  0
  6 15  1  0
  6 16  1  0
  7 17  1  0
  8 18  1  0
M  END
