
     RDKit          3D

 21 21  0  0  0  0  0  0  0  0999 V2000
    1.1362    1.8961   -0.1741 C   0  0  0  0  0  0  0  0  0  0  0  0
    0.1314    0.7976   -0.1109 C   0  0  0  0  0  0  0  0  0  0  0  0
    0.3501   -0.5011   -0.2736 C   0  0  0  0  0  0  0  0  0  0  0  0
    1.6722   -1.1058   -0.5559 C   0  0  0  0  0  0  0  0  0  0  0  0
    2.6847   -0.1757   -0.6371 O   0  0  0  0  0  0  0  0  0  0  0  0
   -0.9089   -1.2661   -0.1308 C   0  0  0  0  0  0  0  0  0  0  0  0
   -1.7005   -0.3073    0.7767 C   0  0  0  0  0  0  0  0  0  0  0  0
   -3.0601   -0.5712    0.6787 O   0  0  0  0  0  0  0  0  0  0  0  0
   -1.3172    1.0153    0.1506 C   0  0  0  0  0  0  0  0  0  0  0  0
    0.6890    2.8742    0.0836 H   0  0  0  0  0  0  0  0  0  0  0  0
    1.9879    1.7292    0.5230 H   0  0  0  0  0  0  0  0  0  0  0  0
    1.4851    2.0008   -1.2386 H   0  0  0  0  0  0  0  0  0  0  0  0
    1.6583   -1.6670   -1.5298 H   0  0  0  0  0  0  0  0  0  0  0  0
    1.8775   -1.8588    0.2392 H   0  0  0  0  0  0  0  0  0  0  0  0
    3.4853   -0.5649   -0.1794 H   0  0  0  0  0  0  0  0  0  0  0  0
   -0.7930   -2.2480    0.3251 H   0  0  0  0  0  0  0  0  0  0  0  0
   -1.4923   -1.3062   -1.0772 H   0  0  0  0  0  0  0  0  0  0  0  0
   -1.3245   -0.3808    1.8198 H   0  0  0  0  0  0  0  0  0  0  0  0
   -3.2393   -1.3256    1.3209 H   0  0  0  0  0  0  0  0  0  0  0  0
   -1.5075    1.8733    0.8158 H   0  0  0  0  0  0  0  0  0  0  0  0
   -1.8145    1.0918   -0.8259 H   0  0  0  0  0  0  0  0  0  0  0  0
  1  2  1  0
  2  3  2  0
  3  4  1  0
  4  5  1  0
  3  6  1  0
  6  7  1  0
  7  8  1  0
  7  9  1  0
  9  2  1  0
  1 10  1  0
  1 11  1  0
  1 12  1  0
  4 13  1  0
  4 14  1  0
  5 15  1  0
  6 16  1  0
  6 17  1  0
  7 18  1  0
  8 19  1  0
  9 20  1  0
  9 21  1  0
M  END
