
     RDKit          3D

 23 23  0  0  0  0  0  0  0  0999 V2000
   -1.6380    1.6821   -0.4881 C   0  0  0  0  0  0  0  0  0  0  0  0
   -0.3918    0.8735   -0.2611 C   0  0  0  0  0  0  0  0  0  0  0  0
    0.7312    1.2298   -0.8356 C   0  0  0  0  0  0  0  0  0  0  0  0
    2.0056    0.4919   -0.6674 C   0  0  0  0  0  0  0  0  0  0  0  0
    1.7509   -0.9197   -0.2310 C   0  0  0  0  0  0  0  0  0  0  0  0
    0.8040   -0.8841    0.9463 C   0  0  0  0  0  0  0  0  0  0  0  0
   -0.5216   -0.3066    0.6230 C   0  0  0  0  0  0  0  0  0  0  0  0
   -1.4564   -1.2828   -0.0623 C   0  0  0  0  0  0  0  0  0  0  0  0
   -1.1573    0.0893    1.8099 O   0  0  0  0  0  0  0  0  0  0  0  0
   -2.3833    1.5059    0.2989 H   0  0  0  0  0  0  0  0  0  0  0  0
   -1.4140    2.7796   -0.4629 H   0  0  0  0  0  0  0  0  0  0  0  0
   -2.0754    1.3991   -1.4491 H   0  0  0  0  0  0  0  0  0  0  0  0
    0.7058    2.1202   -1.4677 H   0  0  0  0  0  0  0  0  0  0  0  0
    2.5087    0.4988   -1.6649 H   0  0  0  0  0  0  0  0  0  0  0  0
    2.6899    0.9917    0.0646 H   0  0  0  0  0  0  0  0  0  0  0  0
    2.7124   -1.3388    0.1394 H   0  0  0  0  0  0  0  0  0  0  0  0
    1.3520   -1.5322   -1.0667 H   0  0  0  0  0  0  0  0  0  0  0  0
    1.2891   -0.2218    1.7151 H   0  0  0  0  0  0  0  0  0  0  0  0
    0.7267   -1.8938    1.3985 H   0  0  0  0  0  0  0  0  0  0  0  0
   -2.1736   -0.7132   -0.6920 H   0  0  0  0  0  0  0  0  0  0  0  0
   -2.0607   -1.8646    0.6660 H   0  0  0  0  0  0  0  0  0  0  0  0
   -0.8997   -1.9893   -0.7267 H   0  0  0  0  0  0  0  0  0  0  0  0
   -1.1046   -0.7152    2.4139 H   0  0  0  0  0  0  0  0  0  0  0  0
  1  2  1  0
  2  3  2  0
  3  4  1  0
  4  5  1  0
  5  6  1  0
  6  7  1  0
  7  8  1  0
  7  9  1  0
  7  2  1  0
  1 10  1  0
  1 11  1  0
  1 12  1  0
  3 13  1  0
  4 14  1  0
  4 15  1  0
  5 16  1  0
  5 17  1  0
  6 18  1  0
  6 19  1  0
  8 20  1  0
  8 21  1  0
  8 22  1  0
  9 23  1  0
M  END
