
     RDKit          3D

 19 20  0  0  0  0  0  0  0  0999 V2000
   -2.1392    1.1564    0.2610 C   0  0  0  0  0  0  0  0  0  0  0  0
   -1.1579    0.0536    0.1044 C   0  0  0  0  0  0  0  0  0  0  0  0
    0.1330    0.2083    0.0629 C   0  0  0  0  0  0  0  0  0  0  0  0
    1.3419    1.0848    0.0991 C   0  0  0  0  0  0  0  0  0  0  0  0
    2.4349    0.0463    0.3591 C   0  0  0  0  0  0  0  0  0  0  0  0
    1.7580   -1.0970    0.8137 O   0  0  0  0  0  0  0  0  0  0  0  0
    0.7217   -1.1712   -0.1073 C   0  0  0  0  0  0  0  0  0  0  0  0
   -0.2810   -2.0610    0.2237 O   0  0  0  0  0  0  0  0  0  0  0  0
   -1.4891   -1.3777   -0.0248 C   0  0  0  0  0  0  0  0  0  0  0  0
   -3.0223    0.8680   -0.3791 H   0  0  0  0  0  0  0  0  0  0  0  0
   -2.5264    1.1885    1.3016 H   0  0  0  0  0  0  0  0  0  0  0  0
   -1.7789    2.1162   -0.1031 H   0  0  0  0  0  0  0  0  0  0  0  0
    1.3471    1.7812    0.9424 H   0  0  0  0  0  0  0  0  0  0  0  0
    1.5685    1.5381   -0.8758 H   0  0  0  0  0  0  0  0  0  0  0  0
    2.9069   -0.2566   -0.6069 H   0  0  0  0  0  0  0  0  0  0  0  0
    3.1766    0.4081    1.0930 H   0  0  0  0  0  0  0  0  0  0  0  0
    1.0940   -1.2562   -1.1284 H   0  0  0  0  0  0  0  0  0  0  0  0
   -1.8502   -1.5790   -1.0379 H   0  0  0  0  0  0  0  0  0  0  0  0
   -2.2374   -1.6507    0.7694 H   0  0  0  0  0  0  0  0  0  0  0  0
  1  2  1  0
  2  3  2  0
  3  4  1  0
  4  5  1  0
  5  6  1  0
  6  7  1  0
  7  8  1  0
  8  9  1  0
  9  2  1  0
  7  3  1  0
  1 10  1  0
  1 11  1  0
  1 12  1  0
  4 13  1  0
  4 14  1  0
  5 15  1  0
  5 16  1  0
  7 17  1  0
  9 18  1  0
  9 19  1  0
M  END
