
     RDKit          3D

 21 22  0  0  0  0  0  0  0  0999 V2000
    2.6369   -0.5077    0.0326 C   0  0  0  0  0  0  0  0  0  0  0  0
    1.2440   -0.0044   -0.1607 C   0  0  0  0  0  0  0  0  0  0  0  0
    0.2775   -0.9085   -0.0696 C   0  0  0  0  0  0  0  0  0  0  0  0
   -1.1540   -0.5610   -0.2374 C   0  0  0  0  0  0  0  0  0  0  0  0
   -2.1303   -1.6140    0.2347 C   0  0  0  0  0  0  0  0  0  0  0  0
   -1.4687    0.2252   -1.3201 O   0  0  0  0  0  0  0  0  0  0  0  0
   -1.4857    0.8157   -0.0801 C   0  0  0  0  0  0  0  0  0  0  0  0
   -0.3571    1.7425    0.3232 C   0  0  0  0  0  0  0  0  0  0  0  0
    0.9144    1.3949   -0.4393 C   0  0  0  0  0  0  0  0  0  0  0  0
    3.3696    0.3033    0.0842 H   0  0  0  0  0  0  0  0  0  0  0  0
    2.6323   -1.1615    0.9233 H   0  0  0  0  0  0  0  0  0  0  0  0
    2.8252   -1.2001   -0.8397 H   0  0  0  0  0  0  0  0  0  0  0  0
    0.5235   -1.9727    0.1381 H   0  0  0  0  0  0  0  0  0  0  0  0
   -2.7595   -1.2334    1.0748 H   0  0  0  0  0  0  0  0  0  0  0  0
   -2.7513   -1.9637   -0.6067 H   0  0  0  0  0  0  0  0  0  0  0  0
   -1.5959   -2.5116    0.6399 H   0  0  0  0  0  0  0  0  0  0  0  0
   -2.4666    1.1202    0.3052 H   0  0  0  0  0  0  0  0  0  0  0  0
   -0.1448    1.5595    1.3928 H   0  0  0  0  0  0  0  0  0  0  0  0
   -0.5731    2.7979    0.1626 H   0  0  0  0  0  0  0  0  0  0  0  0
    0.7515    1.6156   -1.5120 H   0  0  0  0  0  0  0  0  0  0  0  0
    1.7122    2.0638   -0.0458 H   0  0  0  0  0  0  0  0  0  0  0  0
  1  2  1  0
  2  3  2  0
  3  4  1  0
  4  5  1  0
  4  6  1  0
  6  7  1  0
  7  8  1  0
  8  9  1  0
  9  2  1  0
  7  4  1  0
  1 10  1  0
  1 11  1  0
  1 12  1  0
  3 13  1  0
  5 14  1  0
  5 15  1  0
  5 16  1  0
  7 17  1  0
  8 18  1  0
  8 19  1  0
  9 20  1  0
  9 21  1  0
M  END
