
     RDKit          3D

 21 23  0  0  0  0  0  0  0  0999 V2000
   -2.6863    0.6503    0.3809 C   0  0  0  0  0  0  0  0  0  0  0  0
   -1.2444    0.3509    0.1640 C   0  0  0  0  0  0  0  0  0  0  0  0
   -0.1973    1.1391    0.3856 C   0  0  0  0  0  0  0  0  0  0  0  0
    1.0643    0.4308    0.0271 C   0  0  0  0  0  0  0  0  0  0  0  0
    2.2963    1.2430   -0.2205 C   0  0  0  0  0  0  0  0  0  0  0  0
    1.2164   -0.9790    0.3675 C   0  0  0  0  0  0  0  0  0  0  0  0
   -0.0065   -1.7627    0.7189 C   0  0  0  0  0  0  0  0  0  0  0  0
   -0.7520   -0.9653   -0.3622 C   0  0  0  0  0  0  0  0  0  0  0  0
    0.5859   -0.5994   -0.9036 C   0  0  0  0  0  0  0  0  0  0  0  0
   -2.8323    1.4813    1.1005 H   0  0  0  0  0  0  0  0  0  0  0  0
   -3.2160   -0.2795    0.6772 H   0  0  0  0  0  0  0  0  0  0  0  0
   -3.1763    0.9636   -0.5869 H   0  0  0  0  0  0  0  0  0  0  0  0
   -0.2559    2.1552    0.7732 H   0  0  0  0  0  0  0  0  0  0  0  0
    2.1252    2.1016   -0.8961 H   0  0  0  0  0  0  0  0  0  0  0  0
    2.6275    1.6592    0.7618 H   0  0  0  0  0  0  0  0  0  0  0  0
    3.0785    0.5981   -0.6357 H   0  0  0  0  0  0  0  0  0  0  0  0
    2.2121   -1.4658    0.3560 H   0  0  0  0  0  0  0  0  0  0  0  0
    0.0296   -2.8188    0.4149 H   0  0  0  0  0  0  0  0  0  0  0  0
   -0.3706   -1.5640    1.7450 H   0  0  0  0  0  0  0  0  0  0  0  0
   -1.4389   -1.5320   -0.9751 H   0  0  0  0  0  0  0  0  0  0  0  0
    0.9407   -0.8067   -1.8879 H   0  0  0  0  0  0  0  0  0  0  0  0
  1  2  1  0
  2  3  2  0
  3  4  1  0
  4  5  1  0
  4  6  1  0
  6  7  1  0
  7  8  1  0
  8  9  1  0
  8  2  1  0
  9  4  1  0
  9  6  1  0
  1 10  1  0
  1 11  1  0
  1 12  1  0
  3 13  1  0
  5 14  1  0
  5 15  1  0
  5 16  1  0
  6 17  1  0
  7 18  1  0
  7 19  1  0
  8 20  1  0
  9 21  1  0
M  END
