
     RDKit          3D

 21 23  0  0  0  0  0  0  0  0999 V2000
   -2.4912   -0.8677    0.4805 C   0  0  0  0  0  0  0  0  0  0  0  0
   -1.3361   -0.0246    0.0623 C   0  0  0  0  0  0  0  0  0  0  0  0
   -1.3185    1.3030    0.0945 C   0  0  0  0  0  0  0  0  0  0  0  0
   -0.0000    1.8079   -0.3963 C   0  0  0  0  0  0  0  0  0  0  0  0
    0.7698    0.6126   -0.8647 C   0  0  0  0  0  0  0  0  0  0  0  0
    1.8468    0.1961    0.1014 C   0  0  0  0  0  0  0  0  0  0  0  0
    2.3518   -1.1824    0.0321 C   0  0  0  0  0  0  0  0  0  0  0  0
    0.9817   -0.8961    0.5820 C   0  0  0  0  0  0  0  0  0  0  0  0
   -0.0676   -0.5693   -0.4404 C   0  0  0  0  0  0  0  0  0  0  0  0
   -3.3645   -0.2378    0.7826 H   0  0  0  0  0  0  0  0  0  0  0  0
   -2.2216   -1.5700    1.2924 H   0  0  0  0  0  0  0  0  0  0  0  0
   -2.8481   -1.4599   -0.4080 H   0  0  0  0  0  0  0  0  0  0  0  0
   -2.1015    1.9792    0.4147 H   0  0  0  0  0  0  0  0  0  0  0  0
   -0.1273    2.5117   -1.2273 H   0  0  0  0  0  0  0  0  0  0  0  0
    0.4888    2.3151    0.4682 H   0  0  0  0  0  0  0  0  0  0  0  0
    1.0590    0.6126   -1.9313 H   0  0  0  0  0  0  0  0  0  0  0  0
    2.2389    0.9259    0.8234 H   0  0  0  0  0  0  0  0  0  0  0  0
    2.4000   -1.6223   -1.0039 H   0  0  0  0  0  0  0  0  0  0  0  0
    3.1168   -1.5127    0.7582 H   0  0  0  0  0  0  0  0  0  0  0  0
    0.7470   -1.0190    1.6357 H   0  0  0  0  0  0  0  0  0  0  0  0
   -0.1241   -1.3024   -1.2562 H   0  0  0  0  0  0  0  0  0  0  0  0
  1  2  1  0
  2  3  2  0
  3  4  1  0
  4  5  1  0
  5  6  1  0
  6  7  1  0
  7  8  1  0
  8  9  1  0
  9  2  1  0
  9  5  1  0
  8  6  1  0
  1 10  1  0
  1 11  1  0
  1 12  1  0
  3 13  1  0
  4 14  1  0
  4 15  1  0
  5 16  1  0
  6 17  1  0
  7 18  1  0
  7 19  1  0
  8 20  1  0
  9 21  1  0
M  END
