
     RDKit          3D

 19 20  0  0  0  0  0  0  0  0999 V2000
   -2.4838    0.4045   -0.4911 C   0  0  0  0  0  0  0  0  0  0  0  0
   -0.9998    0.3388   -0.2181 C   0  0  0  0  0  0  0  0  0  0  0  0
   -0.0282    0.8574   -0.9333 C   0  0  0  0  0  0  0  0  0  0  0  0
    1.3049    0.5804   -0.3425 C   0  0  0  0  0  0  0  0  0  0  0  0
    2.1373    1.5957    0.0246 O   0  0  0  0  0  0  0  0  0  0  0  0
    1.7272   -0.8318   -0.4392 C   0  0  0  0  0  0  0  0  0  0  0  0
    1.0124   -0.4283    0.7856 C   0  0  0  0  0  0  0  0  0  0  0  0
   -0.4444   -0.3404    0.9386 C   0  0  0  0  0  0  0  0  0  0  0  0
   -1.0714   -1.5442    1.2425 O   0  0  0  0  0  0  0  0  0  0  0  0
   -3.0680    0.2652    0.4402 H   0  0  0  0  0  0  0  0  0  0  0  0
   -2.7436    1.3612   -0.9636 H   0  0  0  0  0  0  0  0  0  0  0  0
   -2.6890   -0.4789   -1.1526 H   0  0  0  0  0  0  0  0  0  0  0  0
   -0.1689    1.4183   -1.8410 H   0  0  0  0  0  0  0  0  0  0  0  0
    2.9802    1.6666   -0.4475 H   0  0  0  0  0  0  0  0  0  0  0  0
    2.8018   -1.0789   -0.3179 H   0  0  0  0  0  0  0  0  0  0  0  0
    1.2454   -1.4720   -1.2139 H   0  0  0  0  0  0  0  0  0  0  0  0
    1.6060   -0.3353    1.7199 H   0  0  0  0  0  0  0  0  0  0  0  0
   -0.6550    0.3138    1.8411 H   0  0  0  0  0  0  0  0  0  0  0  0
   -0.4629   -2.2921    1.3684 H   0  0  0  0  0  0  0  0  0  0  0  0
  1  2  1  0
  2  3  2  0
  3  4  1  0
  4  5  1  0
  4  6  1  0
  6  7  1  0
  7  8  1  0
  8  9  1  0
  8  2  1  0
  7  4  1  0
  1 10  1  0
  1 11  1  0
  1 12  1  0
  3 13  1  0
  5 14  1  0
  6 15  1  0
  6 16  1  0
  7 17  1  0
  8 18  1  0
  9 19  1  0
M  END
