
     RDKit          3D

 23 23  0  0  0  0  0  0  0  0999 V2000
   -1.1389    1.8613    0.3291 C   0  0  0  0  0  0  0  0  0  0  0  0
   -0.1201    0.8376    0.0122 C   0  0  0  0  0  0  0  0  0  0  0  0
    1.1191    1.2698   -0.1725 C   0  0  0  0  0  0  0  0  0  0  0  0
    2.2467    0.3491   -0.4978 C   0  0  0  0  0  0  0  0  0  0  0  0
    1.8343   -1.0205    0.0569 C   0  0  0  0  0  0  0  0  0  0  0  0
    0.6352   -1.3606   -0.5123 O   0  0  0  0  0  0  0  0  0  0  0  0
   -0.4364   -0.5856   -0.0979 C   0  0  0  0  0  0  0  0  0  0  0  0
   -1.5376   -0.7582   -1.1257 C   0  0  0  0  0  0  0  0  0  0  0  0
   -0.9759   -1.1752    1.2007 C   0  0  0  0  0  0  0  0  0  0  0  0
   -1.9241    1.4872    1.0197 H   0  0  0  0  0  0  0  0  0  0  0  0
   -0.6720    2.7724    0.7862 H   0  0  0  0  0  0  0  0  0  0  0  0
   -1.5979    2.2434   -0.6303 H   0  0  0  0  0  0  0  0  0  0  0  0
    1.3594    2.3228   -0.0923 H   0  0  0  0  0  0  0  0  0  0  0  0
    3.1919    0.6805   -0.0141 H   0  0  0  0  0  0  0  0  0  0  0  0
    2.4162    0.2424   -1.5808 H   0  0  0  0  0  0  0  0  0  0  0  0
    1.8160   -0.9864    1.1610 H   0  0  0  0  0  0  0  0  0  0  0  0
    2.5978   -1.7290   -0.2881 H   0  0  0  0  0  0  0  0  0  0  0  0
   -1.8249   -1.8121   -1.1368 H   0  0  0  0  0  0  0  0  0  0  0  0
   -1.2027   -0.3554   -2.0893 H   0  0  0  0  0  0  0  0  0  0  0  0
   -2.4001   -0.1514   -0.7779 H   0  0  0  0  0  0  0  0  0  0  0  0
   -0.1866   -1.3008    1.9549 H   0  0  0  0  0  0  0  0  0  0  0  0
   -1.8652   -0.6277    1.5579 H   0  0  0  0  0  0  0  0  0  0  0  0
   -1.3342   -2.2036    0.9372 H   0  0  0  0  0  0  0  0  0  0  0  0
  1  2  1  0
  2  3  2  0
  3  4  1  0
  4  5  1  0
  5  6  1  0
  6  7  1  0
  7  8  1  0
  7  9  1  0
  7  2  1  0
  1 10  1  0
  1 11  1  0
  1 12  1  0
  3 13  1  0
  4 14  1  0
  4 15  1  0
  5 16  1  0
  5 17  1  0
  8 18  1  0
  8 19  1  0
  8 20  1  0
  9 21  1  0
  9 22  1  0
  9 23  1  0
M  END
