
     RDKit          3D

 23 23  0  0  0  0  0  0  0  0999 V2000
    2.5246   -0.1043    0.1041 C   0  0  0  0  0  0  0  0  0  0  0  0
    1.1298    0.3577   -0.0582 C   0  0  0  0  0  0  0  0  0  0  0  0
    0.1424   -0.5067   -0.1774 C   0  0  0  0  0  0  0  0  0  0  0  0
    0.4319   -1.9506   -0.1485 C   0  0  0  0  0  0  0  0  0  0  0  0
   -1.2446   -0.0116   -0.3387 C   0  0  0  0  0  0  0  0  0  0  0  0
   -2.1904   -0.7008    0.6506 C   0  0  0  0  0  0  0  0  0  0  0  0
   -1.3658    1.4686   -0.1422 C   0  0  0  0  0  0  0  0  0  0  0  0
   -0.3394    2.0077    0.6261 O   0  0  0  0  0  0  0  0  0  0  0  0
    0.8538    1.8412   -0.0853 C   0  0  0  0  0  0  0  0  0  0  0  0
    3.1661    0.6204    0.6473 H   0  0  0  0  0  0  0  0  0  0  0  0
    2.5488   -1.0933    0.6451 H   0  0  0  0  0  0  0  0  0  0  0  0
    2.9487   -0.2054   -0.9255 H   0  0  0  0  0  0  0  0  0  0  0  0
    0.5921   -2.3429    0.8805 H   0  0  0  0  0  0  0  0  0  0  0  0
    1.3602   -2.2175   -0.7122 H   0  0  0  0  0  0  0  0  0  0  0  0
   -0.3985   -2.5097   -0.6432 H   0  0  0  0  0  0  0  0  0  0  0  0
   -1.5910   -0.3426   -1.3490 H   0  0  0  0  0  0  0  0  0  0  0  0
   -2.4452   -1.7287    0.2983 H   0  0  0  0  0  0  0  0  0  0  0  0
   -3.1403   -0.1275    0.6279 H   0  0  0  0  0  0  0  0  0  0  0  0
   -1.7577   -0.7110    1.6773 H   0  0  0  0  0  0  0  0  0  0  0  0
   -2.3557    1.6904    0.3161 H   0  0  0  0  0  0  0  0  0  0  0  0
   -1.3135    1.9883   -1.1438 H   0  0  0  0  0  0  0  0  0  0  0  0
    1.7010    2.3739    0.3742 H   0  0  0  0  0  0  0  0  0  0  0  0
    0.7427    2.2043   -1.1232 H   0  0  0  0  0  0  0  0  0  0  0  0
  1  2  1  0
  2  3  2  0
  3  4  1  0
  3  5  1  0
  5  6  1  0
  5  7  1  0
  7  8  1  0
  8  9  1  0
  9  2  1  0
  1 10  1  0
  1 11  1  0
  1 12  1  0
  4 13  1  0
  4 14  1  0
  4 15  1  0
  5 16  1  0
  6 17  1  0
  6 18  1  0
  6 19  1  0
  7 20  1  0
  7 21  1  0
  9 22  1  0
  9 23  1  0
M  END
