
     RDKit          3D

 23 23  0  0  0  0  0  0  0  0999 V2000
    2.9908    0.1424   -0.4619 C   0  0  0  0  0  0  0  0  0  0  0  0
    1.5455    0.2122   -0.0984 C   0  0  0  0  0  0  0  0  0  0  0  0
    0.7156    1.1593   -0.5032 C   0  0  0  0  0  0  0  0  0  0  0  0
   -0.6335    0.8966    0.0584 C   0  0  0  0  0  0  0  0  0  0  0  0
   -1.7410    1.3391   -0.8556 C   0  0  0  0  0  0  0  0  0  0  0  0
   -0.5898   -0.6059    0.2349 C   0  0  0  0  0  0  0  0  0  0  0  0
   -1.6471   -1.1267    1.1402 C   0  0  0  0  0  0  0  0  0  0  0  0
   -0.7186   -1.2034   -1.0319 O   0  0  0  0  0  0  0  0  0  0  0  0
    0.8144   -0.7778    0.7746 C   0  0  0  0  0  0  0  0  0  0  0  0
    3.4755   -0.6774    0.1172 H   0  0  0  0  0  0  0  0  0  0  0  0
    3.5372    1.0732   -0.2033 H   0  0  0  0  0  0  0  0  0  0  0  0
    3.1414   -0.1192   -1.5310 H   0  0  0  0  0  0  0  0  0  0  0  0
    0.9412    2.0138   -1.1456 H   0  0  0  0  0  0  0  0  0  0  0  0
   -0.7325    1.3284    1.0857 H   0  0  0  0  0  0  0  0  0  0  0  0
   -2.5357    0.5541   -0.9790 H   0  0  0  0  0  0  0  0  0  0  0  0
   -1.3630    1.6320   -1.8569 H   0  0  0  0  0  0  0  0  0  0  0  0
   -2.2751    2.1907   -0.3507 H   0  0  0  0  0  0  0  0  0  0  0  0
   -1.9339   -2.1508    0.8192 H   0  0  0  0  0  0  0  0  0  0  0  0
   -1.3157   -1.1035    2.1939 H   0  0  0  0  0  0  0  0  0  0  0  0
   -2.5688   -0.5000    0.9726 H   0  0  0  0  0  0  0  0  0  0  0  0
   -1.1083   -2.0952   -0.8746 H   0  0  0  0  0  0  0  0  0  0  0  0
    0.7959   -0.3926    1.8192 H   0  0  0  0  0  0  0  0  0  0  0  0
    1.2054   -1.7891    0.6764 H   0  0  0  0  0  0  0  0  0  0  0  0
  1  2  1  0
  2  3  2  0
  3  4  1  0
  4  5  1  0
  4  6  1  0
  6  7  1  0
  6  8  1  0
  6  9  1  0
  9  2  1  0
  1 10  1  0
  1 11  1  0
  1 12  1  0
  3 13  1  0
  4 14  1  0
  5 15  1  0
  5 16  1  0
  5 17  1  0
  7 18  1  0
  7 19  1  0
  7 20  1  0
  8 21  1  0
  9 22  1  0
  9 23  1  0
M  END
