
     RDKit          3D

 21 22  0  0  0  0  0  0  0  0999 V2000
   -1.7572   -1.6241   -0.5082 C   0  0  0  0  0  0  0  0  0  0  0  0
   -0.8332   -0.6069   -0.0221 C   0  0  0  0  0  0  0  0  0  0  0  0
    0.4638   -0.8198    0.0873 C   0  0  0  0  0  0  0  0  0  0  0  0
    1.7622   -1.5491    0.0156 C   0  0  0  0  0  0  0  0  0  0  0  0
    2.4413   -0.2942    0.0356 O   0  0  0  0  0  0  0  0  0  0  0  0
    1.3297    0.2850    0.6326 C   0  0  0  0  0  0  0  0  0  0  0  0
    0.9668    1.6455    0.1409 C   0  0  0  0  0  0  0  0  0  0  0  0
   -0.3868    1.6574   -0.4899 C   0  0  0  0  0  0  0  0  0  0  0  0
   -1.2892    0.7500    0.3651 C   0  0  0  0  0  0  0  0  0  0  0  0
   -2.2222   -2.2105    0.3333 H   0  0  0  0  0  0  0  0  0  0  0  0
   -2.6420   -1.2010   -1.0599 H   0  0  0  0  0  0  0  0  0  0  0  0
   -1.2872   -2.3272   -1.2391 H   0  0  0  0  0  0  0  0  0  0  0  0
    2.0040   -2.0539    0.9728 H   0  0  0  0  0  0  0  0  0  0  0  0
    1.9392   -2.1295   -0.8971 H   0  0  0  0  0  0  0  0  0  0  0  0
    1.3575    0.2585    1.7581 H   0  0  0  0  0  0  0  0  0  0  0  0
    1.7238    2.0462   -0.5756 H   0  0  0  0  0  0  0  0  0  0  0  0
    0.9355    2.3936    0.9951 H   0  0  0  0  0  0  0  0  0  0  0  0
   -0.8289    2.6563   -0.6046 H   0  0  0  0  0  0  0  0  0  0  0  0
   -0.2809    1.2168   -1.5240 H   0  0  0  0  0  0  0  0  0  0  0  0
   -2.3449    0.9421    0.1458 H   0  0  0  0  0  0  0  0  0  0  0  0
   -1.0511    0.9649    1.4385 H   0  0  0  0  0  0  0  0  0  0  0  0
  1  2  1  0
  2  3  2  0
  3  4  1  0
  4  5  1  0
  5  6  1  0
  6  7  1  0
  7  8  1  0
  8  9  1  0
  9  2  1  0
  6  3  1  0
  1 10  1  0
  1 11  1  0
  1 12  1  0
  4 13  1  0
  4 14  1  0
  6 15  1  0
  7 16  1  0
  7 17  1  0
  8 18  1  0
  8 19  1  0
  9 20  1  0
  9 21  1  0
M  END
