
     RDKit          3D

 19 19  0  0  0  0  0  0  0  0999 V2000
    0.2149    1.9482   -0.0244 C   0  0  0  0  0  0  0  0  0  0  0  0
   -0.1610    0.5018   -0.0540 C   0  0  0  0  0  0  0  0  0  0  0  0
    0.8101   -0.3861    0.0282 C   0  0  0  0  0  0  0  0  0  0  0  0
    2.2265    0.0274    0.1459 C   0  0  0  0  0  0  0  0  0  0  0  0
    0.4396   -1.7939   -0.0010 C   0  0  0  0  0  0  0  0  0  0  0  0
    1.3680   -2.6370    0.0775 O   0  0  0  0  0  0  0  0  0  0  0  0
   -0.8847   -2.1617   -0.1111 O   0  0  0  0  0  0  0  0  0  0  0  0
   -1.9246   -1.2561    0.0323 C   0  0  0  0  0  0  0  0  0  0  0  0
   -1.5810    0.1681   -0.1722 C   0  0  0  0  0  0  0  0  0  0  0  0
   -0.1301    2.4008    0.9296 H   0  0  0  0  0  0  0  0  0  0  0  0
    1.2837    2.1147   -0.2121 H   0  0  0  0  0  0  0  0  0  0  0  0
   -0.3267    2.4131   -0.8893 H   0  0  0  0  0  0  0  0  0  0  0  0
    2.6164    0.3388   -0.8594 H   0  0  0  0  0  0  0  0  0  0  0  0
    2.8438   -0.8637    0.4392 H   0  0  0  0  0  0  0  0  0  0  0  0
    2.3965    0.8105    0.9001 H   0  0  0  0  0  0  0  0  0  0  0  0
   -2.7108   -1.5294   -0.7316 H   0  0  0  0  0  0  0  0  0  0  0  0
   -2.4028   -1.4380    1.0385 H   0  0  0  0  0  0  0  0  0  0  0  0
   -1.9525    0.5743   -1.1502 H   0  0  0  0  0  0  0  0  0  0  0  0
   -2.1256    0.7682    0.6142 H   0  0  0  0  0  0  0  0  0  0  0  0
  1  2  1  0
  2  3  2  0
  3  4  1  0
  3  5  1  0
  5  6  2  0
  5  7  1  0
  7  8  1  0
  8  9  1  0
  9  2  1  0
  1 10  1  0
  1 11  1  0
  1 12  1  0
  4 13  1  0
  4 14  1  0
  4 15  1  0
  8 16  1  0
  8 17  1  0
  9 18  1  0
  9 19  1  0
M  END
