
     RDKit          3D

 23 24  0  0  0  0  0  0  0  0999 V2000
    2.3224   -1.4715   -0.1622 C   0  0  0  0  0  0  0  0  0  0  0  0
    1.3050   -0.3550   -0.1761 C   0  0  0  0  0  0  0  0  0  0  0  0
   -0.0047   -0.4673   -0.2659 C   0  0  0  0  0  0  0  0  0  0  0  0
   -1.1672   -1.3762   -0.3834 C   0  0  0  0  0  0  0  0  0  0  0  0
   -2.3886   -0.5358   -0.0071 C   0  0  0  0  0  0  0  0  0  0  0  0
   -1.7358    0.6445    0.7161 C   0  0  0  0  0  0  0  0  0  0  0  0
   -0.5903    0.9093   -0.2298 C   0  0  0  0  0  0  0  0  0  0  0  0
    0.4981    1.7777    0.3649 C   0  0  0  0  0  0  0  0  0  0  0  0
    1.7213    1.0514   -0.0851 C   0  0  0  0  0  0  0  0  0  0  0  0
    2.7603   -1.5499    0.8609 H   0  0  0  0  0  0  0  0  0  0  0  0
    1.8179   -2.4459   -0.3482 H   0  0  0  0  0  0  0  0  0  0  0  0
    3.1097   -1.2549   -0.8895 H   0  0  0  0  0  0  0  0  0  0  0  0
   -1.2977   -1.6973   -1.4473 H   0  0  0  0  0  0  0  0  0  0  0  0
   -1.1114   -2.2575    0.2694 H   0  0  0  0  0  0  0  0  0  0  0  0
   -2.8425   -0.1327   -0.9333 H   0  0  0  0  0  0  0  0  0  0  0  0
   -3.0829   -1.0859    0.6364 H   0  0  0  0  0  0  0  0  0  0  0  0
   -1.3198    0.2421    1.6520 H   0  0  0  0  0  0  0  0  0  0  0  0
   -2.4143    1.4868    0.8321 H   0  0  0  0  0  0  0  0  0  0  0  0
   -0.9091    1.2469   -1.2159 H   0  0  0  0  0  0  0  0  0  0  0  0
    0.3960    1.8760    1.4488 H   0  0  0  0  0  0  0  0  0  0  0  0
    0.4080    2.7810   -0.1429 H   0  0  0  0  0  0  0  0  0  0  0  0
    2.5614    1.2128    0.6214 H   0  0  0  0  0  0  0  0  0  0  0  0
    1.9639    1.4014   -1.1153 H   0  0  0  0  0  0  0  0  0  0  0  0
  1  2  1  0
  2  3  2  0
  3  4  1  0
  4  5  1  0
  5  6  1  0
  6  7  1  0
  7  8  1  0
  8  9  1  0
  9  2  1  0
  7  3  1  0
  1 10  1  0
  1 11  1  0
  1 12  1  0
  4 13  1  0
  4 14  1  0
  5 15  1  0
  5 16  1  0
  6 17  1  0
  6 18  1  0
  7 19  1  0
  8 20  1  0
  8 21  1  0
  9 22  1  0
  9 23  1  0
M  END
