
     RDKit          3D

 19 21  0  0  0  0  0  0  0  0999 V2000
    2.3241   -0.9413   -0.0148 C   0  0  0  0  0  0  0  0  0  0  0  0
    0.9257   -0.4522   -0.0852 C   0  0  0  0  0  0  0  0  0  0  0  0
   -0.0052   -0.8900   -0.9212 C   0  0  0  0  0  0  0  0  0  0  0  0
   -1.2323   -0.0951   -0.6117 C   0  0  0  0  0  0  0  0  0  0  0  0
   -2.2561   -0.6879    0.1446 C   0  0  0  0  0  0  0  0  0  0  0  0
   -2.3981   -0.2590   -1.2400 O   0  0  0  0  0  0  0  0  0  0  0  0
   -0.5330    1.2016   -0.3990 C   0  0  0  0  0  0  0  0  0  0  0  0
   -0.0088    1.9123    0.6868 C   0  0  0  0  0  0  0  0  0  0  0  0
    0.3270    0.5568    0.7636 C   0  0  0  0  0  0  0  0  0  0  0  0
    2.4013   -2.0268   -0.2759 H   0  0  0  0  0  0  0  0  0  0  0  0
    2.9741   -0.3203   -0.6681 H   0  0  0  0  0  0  0  0  0  0  0  0
    2.7532   -0.8245    1.0159 H   0  0  0  0  0  0  0  0  0  0  0  0
    0.0977   -1.6453   -1.6555 H   0  0  0  0  0  0  0  0  0  0  0  0
   -2.9013   -0.1540    0.8602 H   0  0  0  0  0  0  0  0  0  0  0  0
   -2.3344   -1.7996    0.2234 H   0  0  0  0  0  0  0  0  0  0  0  0
    0.0439    1.4086   -1.3597 H   0  0  0  0  0  0  0  0  0  0  0  0
   -0.7463    2.3751    1.4031 H   0  0  0  0  0  0  0  0  0  0  0  0
    0.8494    2.6402    0.5764 H   0  0  0  0  0  0  0  0  0  0  0  0
   -0.2808    0.0013    1.5571 H   0  0  0  0  0  0  0  0  0  0  0  0
  1  2  1  0
  2  3  2  0
  3  4  1  0
  4  5  1  0
  5  6  1  0
  4  7  1  0
  7  8  1  0
  8  9  1  0
  9  2  1  0
  6  4  1  0
  9  7  1  0
  1 10  1  0
  1 11  1  0
  1 12  1  0
  3 13  1  0
  5 14  1  0
  5 15  1  0
  7 16  1  0
  8 17  1  0
  8 18  1  0
  9 19  1  0
M  END
