
     RDKit          3D

 19 20  0  0  0  0  0  0  0  0999 V2000
    2.6669   -0.3109    0.3276 C   0  0  0  0  0  0  0  0  0  0  0  0
    1.2331   -0.1621   -0.0310 C   0  0  0  0  0  0  0  0  0  0  0  0
    0.3194    0.4629    0.7065 C   0  0  0  0  0  0  0  0  0  0  0  0
   -0.9444    0.3572   -0.0655 C   0  0  0  0  0  0  0  0  0  0  0  0
   -1.9800    1.3320    0.2426 C   0  0  0  0  0  0  0  0  0  0  0  0
   -1.3559   -1.0940   -0.0466 C   0  0  0  0  0  0  0  0  0  0  0  0
   -0.3551   -1.6766   -0.8355 O   0  0  0  0  0  0  0  0  0  0  0  0
    0.4891   -0.6404   -1.2293 C   0  0  0  0  0  0  0  0  0  0  0  0
   -0.4264    0.4318   -1.3850 O   0  0  0  0  0  0  0  0  0  0  0  0
    2.8800   -1.2326    0.8971 H   0  0  0  0  0  0  0  0  0  0  0  0
    3.2838   -0.3198   -0.6187 H   0  0  0  0  0  0  0  0  0  0  0  0
    3.0495    0.5433    0.9122 H   0  0  0  0  0  0  0  0  0  0  0  0
    0.5070    0.9345    1.6632 H   0  0  0  0  0  0  0  0  0  0  0  0
   -3.0047    0.9066    0.1339 H   0  0  0  0  0  0  0  0  0  0  0  0
   -1.8674    1.6958    1.3066 H   0  0  0  0  0  0  0  0  0  0  0  0
   -1.9341    2.2595   -0.3723 H   0  0  0  0  0  0  0  0  0  0  0  0
   -1.3052   -1.4419    1.0042 H   0  0  0  0  0  0  0  0  0  0  0  0
   -2.3374   -1.2131   -0.5118 H   0  0  0  0  0  0  0  0  0  0  0  0
    1.0818   -0.8324   -2.0982 H   0  0  0  0  0  0  0  0  0  0  0  0
  1  2  1  0
  2  3  2  0
  3  4  1  0
  4  5  1  0
  4  6  1  0
  6  7  1  0
  7  8  1  0
  8  9  1  0
  8  2  1  0
  9  4  1  0
  1 10  1  0
  1 11  1  0
  1 12  1  0
  3 13  1  0
  5 14  1  0
  5 15  1  0
  5 16  1  0
  6 17  1  0
  6 18  1  0
  8 19  1  0
M  END
