
     RDKit          3D

 23 24  0  0  0  0  0  0  0  0999 V2000
   -2.3760   -1.1596   -0.1584 C   0  0  0  0  0  0  0  0  0  0  0  0
   -0.9903   -0.5704   -0.1573 C   0  0  0  0  0  0  0  0  0  0  0  0
    0.0826   -1.3286   -0.1804 C   0  0  0  0  0  0  0  0  0  0  0  0
    1.3129   -0.5031   -0.1726 C   0  0  0  0  0  0  0  0  0  0  0  0
    2.3077   -0.6420   -1.2693 C   0  0  0  0  0  0  0  0  0  0  0  0
    1.5987    0.1650    1.1079 C   0  0  0  0  0  0  0  0  0  0  0  0
    0.8486    0.9172    0.0926 C   0  0  0  0  0  0  0  0  0  0  0  0
   -0.6063    0.8318   -0.1380 C   0  0  0  0  0  0  0  0  0  0  0  0
   -1.4126    1.6632    0.8405 C   0  0  0  0  0  0  0  0  0  0  0  0
   -2.3748   -2.0512    0.4941 H   0  0  0  0  0  0  0  0  0  0  0  0
   -3.1268   -0.4415    0.1809 H   0  0  0  0  0  0  0  0  0  0  0  0
   -2.5445   -1.4796   -1.2254 H   0  0  0  0  0  0  0  0  0  0  0  0
    0.1274   -2.4156   -0.2027 H   0  0  0  0  0  0  0  0  0  0  0  0
    2.6867   -1.6950   -1.2921 H   0  0  0  0  0  0  0  0  0  0  0  0
    1.7745   -0.4212   -2.2351 H   0  0  0  0  0  0  0  0  0  0  0  0
    3.1045    0.0930   -1.1648 H   0  0  0  0  0  0  0  0  0  0  0  0
    2.6234    0.5027    1.3261 H   0  0  0  0  0  0  0  0  0  0  0  0
    1.0931   -0.2312    2.0334 H   0  0  0  0  0  0  0  0  0  0  0  0
    1.3702    1.7612   -0.3991 H   0  0  0  0  0  0  0  0  0  0  0  0
   -0.8069    1.2904   -1.1560 H   0  0  0  0  0  0  0  0  0  0  0  0
   -1.3480    2.7323    0.4964 H   0  0  0  0  0  0  0  0  0  0  0  0
   -0.8831    1.6339    1.8098 H   0  0  0  0  0  0  0  0  0  0  0  0
   -2.4607    1.3485    0.9074 H   0  0  0  0  0  0  0  0  0  0  0  0
  1  2  1  0
  2  3  2  0
  3  4  1  0
  4  5  1  0
  4  6  1  0
  6  7  1  0
  7  8  1  0
  8  9  1  0
  8  2  1  0
  7  4  1  0
  1 10  1  0
  1 11  1  0
  1 12  1  0
  3 13  1  0
  5 14  1  0
  5 15  1  0
  5 16  1  0
  6 17  1  0
  6 18  1  0
  7 19  1  0
  8 20  1  0
  9 21  1  0
  9 22  1  0
  9 23  1  0
M  END
