
     RDKit          3D

 23 24  0  0  0  0  0  0  0  0999 V2000
    2.6689   -0.0729   -0.3137 C   0  0  0  0  0  0  0  0  0  0  0  0
    1.1848   -0.3725   -0.3106 C   0  0  0  0  0  0  0  0  0  0  0  0
    0.2832    0.5724   -0.0917 C   0  0  0  0  0  0  0  0  0  0  0  0
    0.5674    2.0303    0.1775 C   0  0  0  0  0  0  0  0  0  0  0  0
   -1.0847   -0.0004   -0.1460 C   0  0  0  0  0  0  0  0  0  0  0  0
   -2.1517    0.8102   -0.8544 C   0  0  0  0  0  0  0  0  0  0  0  0
   -1.5268   -1.0262    0.8184 C   0  0  0  0  0  0  0  0  0  0  0  0
   -0.9080   -1.3982   -0.5345 C   0  0  0  0  0  0  0  0  0  0  0  0
    0.5667   -1.6869   -0.5386 C   0  0  0  0  0  0  0  0  0  0  0  0
    3.0133    0.0322   -1.3470 H   0  0  0  0  0  0  0  0  0  0  0  0
    2.8896    0.8418    0.2307 H   0  0  0  0  0  0  0  0  0  0  0  0
    3.1955   -0.9034    0.2310 H   0  0  0  0  0  0  0  0  0  0  0  0
   -0.2044    2.6339   -0.3508 H   0  0  0  0  0  0  0  0  0  0  0  0
    0.5602    2.1549    1.2650 H   0  0  0  0  0  0  0  0  0  0  0  0
    1.5451    2.3372   -0.1984 H   0  0  0  0  0  0  0  0  0  0  0  0
   -2.2559    1.7634   -0.2808 H   0  0  0  0  0  0  0  0  0  0  0  0
   -3.0754    0.2073   -0.8483 H   0  0  0  0  0  0  0  0  0  0  0  0
   -1.7712    1.0107   -1.8715 H   0  0  0  0  0  0  0  0  0  0  0  0
   -0.9039   -1.3267    1.6864 H   0  0  0  0  0  0  0  0  0  0  0  0
   -2.6045   -1.1831    0.9071 H   0  0  0  0  0  0  0  0  0  0  0  0
   -1.5743   -1.8940   -1.2701 H   0  0  0  0  0  0  0  0  0  0  0  0
    0.7667   -2.4254    0.2661 H   0  0  0  0  0  0  0  0  0  0  0  0
    0.8191   -2.1045   -1.5336 H   0  0  0  0  0  0  0  0  0  0  0  0
  1  2  1  0
  2  3  2  0
  3  4  1  0
  3  5  1  0
  5  6  1  0
  5  7  1  0
  7  8  1  0
  8  9  1  0
  9  2  1  0
  8  5  1  0
  1 10  1  0
  1 11  1  0
  1 12  1  0
  4 13  1  0
  4 14  1  0
  4 15  1  0
  6 16  1  0
  6 17  1  0
  6 18  1  0
  7 19  1  0
  7 20  1  0
  8 21  1  0
  9 22  1  0
  9 23  1  0
M  END
