
     RDKit          3D

 17 18  0  0  0  0  0  0  0  0999 V2000
    2.2262   -0.2016    0.1710 C   0  0  0  0  0  0  0  0  0  0  0  0
    0.7439    0.0016    0.0707 C   0  0  0  0  0  0  0  0  0  0  0  0
    0.2681    1.2252   -0.1425 C   0  0  0  0  0  0  0  0  0  0  0  0
   -1.1909    1.4184   -0.2400 C   0  0  0  0  0  0  0  0  0  0  0  0
   -1.6395    2.4658   -0.7411 O   0  0  0  0  0  0  0  0  0  0  0  0
   -1.9691    0.3141    0.2837 C   0  0  0  0  0  0  0  0  0  0  0  0
   -2.6487   -0.6705   -0.2372 O   0  0  0  0  0  0  0  0  0  0  0  0
   -1.3907   -0.8650   -0.5472 C   0  0  0  0  0  0  0  0  0  0  0  0
   -0.1699   -1.1942    0.2142 C   0  0  0  0  0  0  0  0  0  0  0  0
    2.5587    0.0569    1.2140 H   0  0  0  0  0  0  0  0  0  0  0  0
    2.7045    0.5358   -0.5099 H   0  0  0  0  0  0  0  0  0  0  0  0
    2.5148   -1.2405   -0.0506 H   0  0  0  0  0  0  0  0  0  0  0  0
    0.9587    2.0767   -0.2440 H   0  0  0  0  0  0  0  0  0  0  0  0
   -1.8563    0.2358    1.4060 H   0  0  0  0  0  0  0  0  0  0  0  0
   -1.1597   -0.6520   -1.6311 H   0  0  0  0  0  0  0  0  0  0  0  0
   -0.3044   -1.4536    1.2644 H   0  0  0  0  0  0  0  0  0  0  0  0
    0.3543   -2.0529   -0.2806 H   0  0  0  0  0  0  0  0  0  0  0  0
  1  2  1  0
  2  3  2  0
  3  4  1  0
  4  5  2  0
  4  6  1  0
  6  7  1  0
  7  8  1  0
  8  9  1  0
  9  2  1  0
  8  6  1  0
  1 10  1  0
  1 11  1  0
  1 12  1  0
  3 13  1  0
  6 14  1  0
  8 15  1  0
  9 16  1  0
  9 17  1  0
M  END
