
     RDKit          3D

 18 19  0  0  0  0  0  0  0  0999 V2000
    2.2948   -0.3637    0.4005 C   0  0  0  0  0  0  0  0  0  0  0  0
    0.9712    0.0625   -0.0951 C   0  0  0  0  0  0  0  0  0  0  0  0
    0.4443    1.2852    0.0692 C   0  0  0  0  0  0  0  0  0  0  0  0
   -0.9300    1.1837   -0.4866 C   0  0  0  0  0  0  0  0  0  0  0  0
   -1.7315    0.3052    0.4255 C   0  0  0  0  0  0  0  0  0  0  0  0
   -1.1942   -1.0882    0.0664 C   0  0  0  0  0  0  0  0  0  0  0  0
   -0.0437   -0.7009   -0.8492 C   0  0  0  0  0  0  0  0  0  0  0  0
   -0.6727    0.3318   -1.5878 O   0  0  0  0  0  0  0  0  0  0  0  0
    2.8827    0.5170    0.7296 H   0  0  0  0  0  0  0  0  0  0  0  0
    2.8808   -0.8185   -0.4381 H   0  0  0  0  0  0  0  0  0  0  0  0
    2.2391   -1.0460    1.2687 H   0  0  0  0  0  0  0  0  0  0  0  0
    0.9651    2.1217    0.5185 H   0  0  0  0  0  0  0  0  0  0  0  0
   -1.3830    2.1181   -0.7636 H   0  0  0  0  0  0  0  0  0  0  0  0
   -1.3926    0.4810    1.4848 H   0  0  0  0  0  0  0  0  0  0  0  0
   -2.8097    0.3781    0.3114 H   0  0  0  0  0  0  0  0  0  0  0  0
   -1.9702   -1.6177   -0.5340 H   0  0  0  0  0  0  0  0  0  0  0  0
   -0.8785   -1.6468    0.9432 H   0  0  0  0  0  0  0  0  0  0  0  0
    0.3281   -1.5022   -1.4636 H   0  0  0  0  0  0  0  0  0  0  0  0
  1  2  1  0
  2  3  2  0
  3  4  1  0
  4  5  1  0
  5  6  1  0
  6  7  1  0
  7  8  1  0
  7  2  1  0
  8  4  1  0
  1  9  1  0
  1 10  1  0
  1 11  1  0
  3 12  1  0
  4 13  1  0
  5 14  1  0
  5 15  1  0
  6 16  1  0
  6 17  1  0
  7 18  1  0
M  END
