
     RDKit          3D

 23 24  0  0  0  0  0  0  0  0999 V2000
    2.4925   -1.3399    0.1907 C   0  0  0  0  0  0  0  0  0  0  0  0
    1.5049   -0.2188    0.1200 C   0  0  0  0  0  0  0  0  0  0  0  0
    1.8297    0.9547   -0.4240 C   0  0  0  0  0  0  0  0  0  0  0  0
    0.5884    1.8450   -0.3287 C   0  0  0  0  0  0  0  0  0  0  0  0
   -0.3561    0.7148   -0.6478 C   0  0  0  0  0  0  0  0  0  0  0  0
    0.1469   -0.1003    0.5896 C   0  0  0  0  0  0  0  0  0  0  0  0
   -1.1573   -0.1514    0.0979 C   0  0  0  0  0  0  0  0  0  0  0  0
   -2.3109    0.5268    0.8641 C   0  0  0  0  0  0  0  0  0  0  0  0
   -1.7124   -1.4125   -0.5873 C   0  0  0  0  0  0  0  0  0  0  0  0
    2.4348   -1.8317    1.2062 H   0  0  0  0  0  0  0  0  0  0  0  0
    3.5251   -1.0060    0.0798 H   0  0  0  0  0  0  0  0  0  0  0  0
    2.2861   -2.0755   -0.6071 H   0  0  0  0  0  0  0  0  0  0  0  0
    2.7450    1.3078   -0.8669 H   0  0  0  0  0  0  0  0  0  0  0  0
    0.5561    2.5750   -1.1284 H   0  0  0  0  0  0  0  0  0  0  0  0
    0.4831    2.2291    0.6884 H   0  0  0  0  0  0  0  0  0  0  0  0
   -0.0498    0.3189   -1.6673 H   0  0  0  0  0  0  0  0  0  0  0  0
    0.2110    0.4768    1.5760 H   0  0  0  0  0  0  0  0  0  0  0  0
   -2.7760    1.2777    0.1949 H   0  0  0  0  0  0  0  0  0  0  0  0
   -3.0151   -0.1997    1.2641 H   0  0  0  0  0  0  0  0  0  0  0  0
   -1.8745    1.0908    1.7167 H   0  0  0  0  0  0  0  0  0  0  0  0
   -2.4383   -1.0147   -1.3464 H   0  0  0  0  0  0  0  0  0  0  0  0
   -2.1906   -2.0400    0.1669 H   0  0  0  0  0  0  0  0  0  0  0  0
   -0.9226   -1.9269   -1.1515 H   0  0  0  0  0  0  0  0  0  0  0  0
  1  2  1  0
  2  3  2  0
  3  4  1  0
  4  5  1  0
  5  6  1  0
  6  7  1  0
  7  8  1  0
  7  9  1  0
  6  2  1  0
  7  5  1  0
  1 10  1  0
  1 11  1  0
  1 12  1  0
  3 13  1  0
  4 14  1  0
  4 15  1  0
  5 16  1  0
  6 17  1  0
  8 18  1  0
  8 19  1  0
  8 20  1  0
  9 21  1  0
  9 22  1  0
  9 23  1  0
M  END
