
     RDKit          3D

 19 20  0  0  0  0  0  0  0  0999 V2000
    2.2782    1.0360   -0.3455 C   0  0  0  0  0  0  0  0  0  0  0  0
    0.9235    0.4073   -0.2276 C   0  0  0  0  0  0  0  0  0  0  0  0
   -0.2045    1.0170   -0.5606 C   0  0  0  0  0  0  0  0  0  0  0  0
   -1.3201    0.0986   -0.3105 C   0  0  0  0  0  0  0  0  0  0  0  0
   -2.3975    0.4522    0.5049 C   0  0  0  0  0  0  0  0  0  0  0  0
   -2.5170    0.3456   -0.9750 O   0  0  0  0  0  0  0  0  0  0  0  0
   -0.6861   -1.2544   -0.4094 C   0  0  0  0  0  0  0  0  0  0  0  0
    0.6625   -0.9690    0.2689 C   0  0  0  0  0  0  0  0  0  0  0  0
    0.5055   -1.0341    1.6393 O   0  0  0  0  0  0  0  0  0  0  0  0
    2.6225    1.2962    0.6718 H   0  0  0  0  0  0  0  0  0  0  0  0
    2.9496    0.2868   -0.7956 H   0  0  0  0  0  0  0  0  0  0  0  0
    2.2440    1.9408   -0.9869 H   0  0  0  0  0  0  0  0  0  0  0  0
   -0.2640    2.0373   -0.9544 H   0  0  0  0  0  0  0  0  0  0  0  0
   -2.5250    1.5217    0.8434 H   0  0  0  0  0  0  0  0  0  0  0  0
   -3.0801   -0.2608    1.0100 H   0  0  0  0  0  0  0  0  0  0  0  0
   -1.2455   -2.0346    0.1357 H   0  0  0  0  0  0  0  0  0  0  0  0
   -0.4690   -1.5276   -1.4626 H   0  0  0  0  0  0  0  0  0  0  0  0
    1.3649   -1.7184   -0.1233 H   0  0  0  0  0  0  0  0  0  0  0  0
    1.1582   -1.6407    2.0771 H   0  0  0  0  0  0  0  0  0  0  0  0
  1  2  1  0
  2  3  2  0
  3  4  1  0
  4  5  1  0
  5  6  1  0
  4  7  1  0
  7  8  1  0
  8  9  1  0
  8  2  1  0
  6  4  1  0
  1 10  1  0
  1 11  1  0
  1 12  1  0
  3 13  1  0
  5 14  1  0
  5 15  1  0
  7 16  1  0
  7 17  1  0
  8 18  1  0
  9 19  1  0
M  END
