
     RDKit          3D

 21 23  0  0  0  0  0  0  0  0999 V2000
    2.6661    0.0609    0.4909 C   0  0  0  0  0  0  0  0  0  0  0  0
    1.3356   -0.0921   -0.1014 C   0  0  0  0  0  0  0  0  0  0  0  0
    0.8811    0.1738   -1.3427 C   0  0  0  0  0  0  0  0  0  0  0  0
   -0.5515   -0.2016   -1.2531 C   0  0  0  0  0  0  0  0  0  0  0  0
   -0.5660   -1.4492   -0.4367 C   0  0  0  0  0  0  0  0  0  0  0  0
   -1.8467   -0.9584    0.1731 C   0  0  0  0  0  0  0  0  0  0  0  0
   -0.9670    0.2851    0.1013 C   0  0  0  0  0  0  0  0  0  0  0  0
   -1.2974    1.5430    0.5011 C   0  0  0  0  0  0  0  0  0  0  0  0
    0.1337   -0.6063    0.5910 C   0  0  0  0  0  0  0  0  0  0  0  0
    2.9722   -0.9101    0.9428 H   0  0  0  0  0  0  0  0  0  0  0  0
    3.4030    0.4291   -0.2543 H   0  0  0  0  0  0  0  0  0  0  0  0
    2.6939    0.8013    1.3278 H   0  0  0  0  0  0  0  0  0  0  0  0
    1.4273    0.5644   -2.1927 H   0  0  0  0  0  0  0  0  0  0  0  0
   -1.1866   -0.0820   -2.0904 H   0  0  0  0  0  0  0  0  0  0  0  0
   -0.3380   -2.3841   -0.7146 H   0  0  0  0  0  0  0  0  0  0  0  0
   -2.7200   -0.9383   -0.4818 H   0  0  0  0  0  0  0  0  0  0  0  0
   -1.9616   -1.2937    1.1996 H   0  0  0  0  0  0  0  0  0  0  0  0
   -2.1937    1.6053    1.1898 H   0  0  0  0  0  0  0  0  0  0  0  0
   -1.5646    2.2657   -0.3271 H   0  0  0  0  0  0  0  0  0  0  0  0
   -0.4978    2.0996    1.0757 H   0  0  0  0  0  0  0  0  0  0  0  0
    0.1781   -0.9123    1.6016 H   0  0  0  0  0  0  0  0  0  0  0  0
  1  2  1  0
  2  3  2  0
  3  4  1  0
  4  5  1  0
  5  6  1  0
  6  7  1  0
  7  8  1  0
  7  9  1  0
  9  2  1  0
  7  4  1  0
  9  5  1  0
  1 10  1  0
  1 11  1  0
  1 12  1  0
  3 13  1  0
  4 14  1  0
  5 15  1  0
  6 16  1  0
  6 17  1  0
  8 18  1  0
  8 19  1  0
  8 20  1  0
  9 21  1  0
M  END
