
     RDKit          3D

 21 21  0  0  0  0  0  0  0  0999 V2000
    2.4347    1.0548    0.1872 C   0  0  0  0  0  0  0  0  0  0  0  0
    1.0659    0.4557   -0.0408 C   0  0  0  0  0  0  0  0  0  0  0  0
    0.1253    1.3780    0.0428 C   0  0  0  0  0  0  0  0  0  0  0  0
   -1.3563    1.3972   -0.0838 C   0  0  0  0  0  0  0  0  0  0  0  0
   -1.8723    0.4582    0.8150 O   0  0  0  0  0  0  0  0  0  0  0  0
   -2.2723   -0.6366    0.0617 C   0  0  0  0  0  0  0  0  0  0  0  0
   -1.3028   -1.7295    0.1562 C   0  0  0  0  0  0  0  0  0  0  0  0
    0.0195   -1.7922    0.0095 C   0  0  0  0  0  0  0  0  0  0  0  0
    1.1926   -0.9794   -0.2884 C   0  0  0  0  0  0  0  0  0  0  0  0
    2.5151    2.0367   -0.3354 H   0  0  0  0  0  0  0  0  0  0  0  0
    2.5736    1.2786    1.2837 H   0  0  0  0  0  0  0  0  0  0  0  0
    3.2327    0.4165   -0.2053 H   0  0  0  0  0  0  0  0  0  0  0  0
    0.5575    2.3482    0.2554 H   0  0  0  0  0  0  0  0  0  0  0  0
   -1.7287    2.4057    0.2090 H   0  0  0  0  0  0  0  0  0  0  0  0
   -1.6972    1.2184   -1.1129 H   0  0  0  0  0  0  0  0  0  0  0  0
   -3.2554   -0.9546    0.4612 H   0  0  0  0  0  0  0  0  0  0  0  0
   -2.3832   -0.3679   -1.0206 H   0  0  0  0  0  0  0  0  0  0  0  0
   -1.7858   -2.6690    0.3952 H   0  0  0  0  0  0  0  0  0  0  0  0
    0.3225   -2.8428    0.1759 H   0  0  0  0  0  0  0  0  0  0  0  0
    2.0322   -1.3531    0.3683 H   0  0  0  0  0  0  0  0  0  0  0  0
    1.5824   -1.1228   -1.3336 H   0  0  0  0  0  0  0  0  0  0  0  0
  1  2  1  0
  2  3  2  3
  3  4  1  0
  4  5  1  0
  5  6  1  0
  6  7  1  0
  7  8  2  3
  8  9  1  0
  9  2  1  0
  1 10  1  0
  1 11  1  0
  1 12  1  0
  3 13  1  0
  4 14  1  0
  4 15  1  0
  6 16  1  0
  6 17  1  0
  7 18  1  0
  8 19  1  0
  9 20  1  0
  9 21  1  0
M  END
