
     RDKit          3D

 18 19  0  0  0  0  0  0  0  0999 V2000
    2.2209   -0.3381    0.3372 C   0  0  0  0  0  0  0  0  0  0  0  0
    0.7820   -0.2354   -0.0185 C   0  0  0  0  0  0  0  0  0  0  0  0
    0.0717   -1.3779   -0.1609 C   0  0  0  0  0  0  0  0  0  0  0  0
   -1.3307   -1.1631   -0.5106 C   0  0  0  0  0  0  0  0  0  0  0  0
   -2.4349   -1.1321    0.1844 O   0  0  0  0  0  0  0  0  0  0  0  0
   -1.7215   -0.0924    0.5325 C   0  0  0  0  0  0  0  0  0  0  0  0
   -1.3099    1.1488   -0.1315 C   0  0  0  0  0  0  0  0  0  0  0  0
    0.2062    1.1161   -0.1980 C   0  0  0  0  0  0  0  0  0  0  0  0
    2.8454    0.4292   -0.1215 H   0  0  0  0  0  0  0  0  0  0  0  0
    2.3175   -0.2588    1.4392 H   0  0  0  0  0  0  0  0  0  0  0  0
    2.6122   -1.3291   -0.0380 H   0  0  0  0  0  0  0  0  0  0  0  0
    0.5712   -2.3167   -0.0124 H   0  0  0  0  0  0  0  0  0  0  0  0
   -1.4476   -0.8850   -1.5962 H   0  0  0  0  0  0  0  0  0  0  0  0
   -1.2713   -0.1906    1.5663 H   0  0  0  0  0  0  0  0  0  0  0  0
   -1.6621    1.2102   -1.2003 H   0  0  0  0  0  0  0  0  0  0  0  0
   -1.6395    2.0446    0.4326 H   0  0  0  0  0  0  0  0  0  0  0  0
    0.6234    1.7584    0.6331 H   0  0  0  0  0  0  0  0  0  0  0  0
    0.5669    1.6121   -1.1376 H   0  0  0  0  0  0  0  0  0  0  0  0
  1  2  1  0
  2  3  2  0
  3  4  1  0
  4  5  1  0
  5  6  1  0
  6  7  1  0
  7  8  1  0
  8  2  1  0
  6  4  1  0
  1  9  1  0
  1 10  1  0
  1 11  1  0
  3 12  1  0
  4 13  1  0
  6 14  1  0
  7 15  1  0
  7 16  1  0
  8 17  1  0
  8 18  1  0
M  END
