
     RDKit          3D

 21 23  0  0  0  0  0  0  0  0999 V2000
    2.5430   -0.2144    0.3342 C   0  0  0  0  0  0  0  0  0  0  0  0
    1.1490    0.2617    0.1692 C   0  0  0  0  0  0  0  0  0  0  0  0
    0.6987    1.4566    0.4525 C   0  0  0  0  0  0  0  0  0  0  0  0
   -0.7728    1.5583    0.1486 C   0  0  0  0  0  0  0  0  0  0  0  0
   -1.1453    0.3104   -0.5525 C   0  0  0  0  0  0  0  0  0  0  0  0
   -2.0250   -0.6975    0.1968 C   0  0  0  0  0  0  0  0  0  0  0  0
   -0.7427   -1.3707    0.6229 C   0  0  0  0  0  0  0  0  0  0  0  0
    0.0542   -0.5777   -0.3527 C   0  0  0  0  0  0  0  0  0  0  0  0
   -0.4340   -0.2452   -1.7078 C   0  0  0  0  0  0  0  0  0  0  0  0
    2.8459   -0.8525   -0.5374 H   0  0  0  0  0  0  0  0  0  0  0  0
    3.2763    0.6290    0.3498 H   0  0  0  0  0  0  0  0  0  0  0  0
    2.6957   -0.8129    1.2368 H   0  0  0  0  0  0  0  0  0  0  0  0
    1.2806    2.2623    0.8462 H   0  0  0  0  0  0  0  0  0  0  0  0
   -1.2706    1.5611    1.1588 H   0  0  0  0  0  0  0  0  0  0  0  0
   -1.0187    2.4917   -0.3539 H   0  0  0  0  0  0  0  0  0  0  0  0
   -2.5466   -1.3253   -0.5413 H   0  0  0  0  0  0  0  0  0  0  0  0
   -2.6140   -0.2199    0.9774 H   0  0  0  0  0  0  0  0  0  0  0  0
   -0.6943   -2.4556    0.5054 H   0  0  0  0  0  0  0  0  0  0  0  0
   -0.5129   -1.0568    1.6801 H   0  0  0  0  0  0  0  0  0  0  0  0
    0.2420    0.3239   -2.3463 H   0  0  0  0  0  0  0  0  0  0  0  0
   -1.0086   -1.0264   -2.2866 H   0  0  0  0  0  0  0  0  0  0  0  0
  1  2  1  0
  2  3  2  0
  3  4  1  0
  4  5  1  0
  5  6  1  0
  6  7  1  0
  7  8  1  0
  8  9  1  0
  8  2  1  0
  8  5  1  0
  9  5  1  0
  1 10  1  0
  1 11  1  0
  1 12  1  0
  3 13  1  0
  4 14  1  0
  4 15  1  0
  6 16  1  0
  6 17  1  0
  7 18  1  0
  7 19  1  0
  9 20  1  0
  9 21  1  0
M  END
