
     RDKit          3D

 17 18  0  0  0  0  0  0  0  0999 V2000
    2.4028    0.7286    0.0702 C   0  0  0  0  0  0  0  0  0  0  0  0
    1.0036    0.2075   -0.0527 C   0  0  0  0  0  0  0  0  0  0  0  0
   -0.1038    0.9301   -0.1596 C   0  0  0  0  0  0  0  0  0  0  0  0
   -1.2815    0.0612   -0.2595 C   0  0  0  0  0  0  0  0  0  0  0  0
   -2.5303    0.3462    0.4338 C   0  0  0  0  0  0  0  0  0  0  0  0
   -2.3955    0.4287   -0.9796 O   0  0  0  0  0  0  0  0  0  0  0  0
   -0.7673   -1.3104   -0.3924 C   0  0  0  0  0  0  0  0  0  0  0  0
   -1.4340   -2.2743   -0.7063 O   0  0  0  0  0  0  0  0  0  0  0  0
    0.6823   -1.2434   -0.0697 C   0  0  0  0  0  0  0  0  0  0  0  0
    3.0373    0.0722    0.6922 H   0  0  0  0  0  0  0  0  0  0  0  0
    2.3392    1.7000    0.6207 H   0  0  0  0  0  0  0  0  0  0  0  0
    2.8703    0.9382   -0.8893 H   0  0  0  0  0  0  0  0  0  0  0  0
   -0.1309    2.0087   -0.1711 H   0  0  0  0  0  0  0  0  0  0  0  0
   -2.6722    1.3568    0.8805 H   0  0  0  0  0  0  0  0  0  0  0  0
   -3.0889   -0.5187    0.8430 H   0  0  0  0  0  0  0  0  0  0  0  0
    0.8048   -1.6234    0.9572 H   0  0  0  0  0  0  0  0  0  0  0  0
    1.2642   -1.8080   -0.8176 H   0  0  0  0  0  0  0  0  0  0  0  0
  1  2  1  0
  2  3  2  0
  3  4  1  0
  4  5  1  0
  5  6  1  0
  4  7  1  0
  7  8  2  0
  7  9  1  0
  9  2  1  0
  6  4  1  0
  1 10  1  0
  1 11  1  0
  1 12  1  0
  3 13  1  0
  5 14  1  0
  5 15  1  0
  9 16  1  0
  9 17  1  0
M  END
