
     RDKit          3D

 23 24  0  0  0  0  0  0  0  0999 V2000
   -1.7514    1.7307    0.4615 C   0  0  0  0  0  0  0  0  0  0  0  0
   -0.6854    0.7019    0.4443 C   0  0  0  0  0  0  0  0  0  0  0  0
    0.5204    1.1101    0.8971 C   0  0  0  0  0  0  0  0  0  0  0  0
    1.6971    0.2202    0.9518 C   0  0  0  0  0  0  0  0  0  0  0  0
    2.6225    0.1502   -0.2018 C   0  0  0  0  0  0  0  0  0  0  0  0
    1.6326   -0.9495    0.0599 C   0  0  0  0  0  0  0  0  0  0  0  0
    0.4550   -0.9698   -0.8613 C   0  0  0  0  0  0  0  0  0  0  0  0
   -0.7825   -0.6806    0.0029 C   0  0  0  0  0  0  0  0  0  0  0  0
   -1.9713   -1.0863   -0.7573 C   0  0  0  0  0  0  0  0  0  0  0  0
   -2.6364    1.5107   -0.1237 H   0  0  0  0  0  0  0  0  0  0  0  0
   -1.2744    2.6751    0.0634 H   0  0  0  0  0  0  0  0  0  0  0  0
   -2.0051    1.9835    1.5320 H   0  0  0  0  0  0  0  0  0  0  0  0
    0.6697    2.1396    1.2471 H   0  0  0  0  0  0  0  0  0  0  0  0
    2.1783    0.1146    1.9487 H   0  0  0  0  0  0  0  0  0  0  0  0
    3.6759   -0.1435   -0.0836 H   0  0  0  0  0  0  0  0  0  0  0  0
    2.4329    0.8463   -1.0462 H   0  0  0  0  0  0  0  0  0  0  0  0
    1.9759   -1.9064    0.4793 H   0  0  0  0  0  0  0  0  0  0  0  0
    0.3252   -2.0280   -1.2324 H   0  0  0  0  0  0  0  0  0  0  0  0
    0.5277   -0.2735   -1.7105 H   0  0  0  0  0  0  0  0  0  0  0  0
   -0.6591   -1.3356    0.8988 H   0  0  0  0  0  0  0  0  0  0  0  0
   -1.7175   -1.4697   -1.7907 H   0  0  0  0  0  0  0  0  0  0  0  0
   -2.4669   -1.9817   -0.2754 H   0  0  0  0  0  0  0  0  0  0  0  0
   -2.7631   -0.3586   -0.9038 H   0  0  0  0  0  0  0  0  0  0  0  0
  1  2  1  0
  2  3  2  0
  3  4  1  0
  4  5  1  0
  5  6  1  0
  6  7  1  0
  7  8  1  0
  8  9  1  0
  8  2  1  0
  6  4  1  0
  1 10  1  0
  1 11  1  0
  1 12  1  0
  3 13  1  0
  4 14  1  0
  5 15  1  0
  5 16  1  0
  6 17  1  0
  7 18  1  0
  7 19  1  0
  8 20  1  0
  9 21  1  0
  9 22  1  0
  9 23  1  0
M  END
