
     RDKit          3D

 18 18  0  0  0  0  0  0  0  0999 V2000
   -2.2764   -0.6110    0.5638 C   0  0  0  0  0  0  0  0  0  0  0  0
   -0.8658   -0.3546    0.0644 C   0  0  0  0  0  0  0  0  0  0  0  0
    0.0241   -1.2857    0.3627 C   0  0  0  0  0  0  0  0  0  0  0  0
    1.4522   -1.2867    0.0060 C   0  0  0  0  0  0  0  0  0  0  0  0
    2.2248   -0.2002   -0.1771 C   0  0  0  0  0  0  0  0  0  0  0  0
    1.7583    1.1858   -0.0481 C   0  0  0  0  0  0  0  0  0  0  0  0
    0.5340    1.6286   -0.2743 C   0  0  0  0  0  0  0  0  0  0  0  0
   -0.6650    0.8829   -0.7068 C   0  0  0  0  0  0  0  0  0  0  0  0
   -2.8799    0.2558    0.2893 H   0  0  0  0  0  0  0  0  0  0  0  0
   -2.2172   -0.6221    1.6915 H   0  0  0  0  0  0  0  0  0  0  0  0
   -2.6477   -1.5686    0.1594 H   0  0  0  0  0  0  0  0  0  0  0  0
   -0.3540   -2.1309    0.9233 H   0  0  0  0  0  0  0  0  0  0  0  0
    1.8988   -2.2562   -0.1101 H   0  0  0  0  0  0  0  0  0  0  0  0
    3.2544   -0.3572   -0.4324 H   0  0  0  0  0  0  0  0  0  0  0  0
    2.4831    1.9258    0.2556 H   0  0  0  0  0  0  0  0  0  0  0  0
    0.3890    2.7245   -0.1145 H   0  0  0  0  0  0  0  0  0  0  0  0
   -1.5762    1.5242   -0.6727 H   0  0  0  0  0  0  0  0  0  0  0  0
   -0.5364    0.5457   -1.7800 H   0  0  0  0  0  0  0  0  0  0  0  0
  1  2  1  0
  2  3  2  0
  3  4  1  0
  4  5  2  0
  5  6  1  0
  6  7  2  0
  7  8  1  0
  8  2  1  0
  1  9  1  0
  1 10  1  0
  1 11  1  0
  3 12  1  0
  4 13  1  0
  5 14  1  0
  6 15  1  0
  7 16  1  0
  8 17  1  0
  8 18  1  0
M  END
