
     RDKit          3D

 21 23  0  0  0  0  0  0  0  0999 V2000
   -2.4692   -0.6877    0.0237 C   0  0  0  0  0  0  0  0  0  0  0  0
   -1.0889   -0.1093    0.1149 C   0  0  0  0  0  0  0  0  0  0  0  0
   -0.0220   -0.8831    0.0532 C   0  0  0  0  0  0  0  0  0  0  0  0
    1.0773   -1.9321   -0.0360 C   0  0  0  0  0  0  0  0  0  0  0  0
    1.8611   -0.9070    0.8530 C   0  0  0  0  0  0  0  0  0  0  0  0
    1.1663    0.0805   -0.0240 C   0  0  0  0  0  0  0  0  0  0  0  0
    0.6885    1.3798    0.4700 C   0  0  0  0  0  0  0  0  0  0  0  0
   -0.0602    2.1552   -0.6244 C   0  0  0  0  0  0  0  0  0  0  0  0
   -0.8062    1.3005    0.3537 C   0  0  0  0  0  0  0  0  0  0  0  0
   -2.6816   -1.3691    0.8657 H   0  0  0  0  0  0  0  0  0  0  0  0
   -2.5071   -1.3036   -0.9032 H   0  0  0  0  0  0  0  0  0  0  0  0
   -3.2474    0.0844   -0.0443 H   0  0  0  0  0  0  0  0  0  0  0  0
    1.5390   -1.9013   -1.0306 H   0  0  0  0  0  0  0  0  0  0  0  0
    0.8720   -2.8732    0.4496 H   0  0  0  0  0  0  0  0  0  0  0  0
    1.5285   -0.9552    1.8940 H   0  0  0  0  0  0  0  0  0  0  0  0
    2.9492   -1.0244    0.6703 H   0  0  0  0  0  0  0  0  0  0  0  0
    1.6130    0.0696   -1.0520 H   0  0  0  0  0  0  0  0  0  0  0  0
    1.1362    1.9343    1.2903 H   0  0  0  0  0  0  0  0  0  0  0  0
   -0.0314    1.8118   -1.6573 H   0  0  0  0  0  0  0  0  0  0  0  0
   -0.1036    3.2607   -0.5378 H   0  0  0  0  0  0  0  0  0  0  0  0
   -1.4134    1.8691    1.1095 H   0  0  0  0  0  0  0  0  0  0  0  0
  1  2  1  0
  2  3  2  0
  3  4  1  0
  4  5  1  0
  5  6  1  0
  6  7  1  0
  7  8  1  0
  8  9  1  0
  9  2  1  0
  6  3  1  0
  9  7  1  0
  1 10  1  0
  1 11  1  0
  1 12  1  0
  4 13  1  0
  4 14  1  0
  5 15  1  0
  5 16  1  0
  6 17  1  0
  7 18  1  0
  8 19  1  0
  8 20  1  0
  9 21  1  0
M  END
