
     RDKit          3D

 23 24  0  0  0  0  0  0  0  0999 V2000
    2.2407    1.0970   -0.8420 C   0  0  0  0  0  0  0  0  0  0  0  0
    0.8756    0.5931   -0.5455 C   0  0  0  0  0  0  0  0  0  0  0  0
   -0.2978    0.8795   -1.1328 C   0  0  0  0  0  0  0  0  0  0  0  0
   -1.2590    0.0532   -0.3414 C   0  0  0  0  0  0  0  0  0  0  0  0
   -2.6565    0.0722   -0.6041 C   0  0  0  0  0  0  0  0  0  0  0  0
   -0.5036   -1.2660   -0.2119 C   0  0  0  0  0  0  0  0  0  0  0  0
    0.5056   -0.3660    0.4976 C   0  0  0  0  0  0  0  0  0  0  0  0
    1.4678   -0.9459    1.3902 C   0  0  0  0  0  0  0  0  0  0  0  0
   -0.7397    0.3124    1.0818 C   0  0  0  0  0  0  0  0  0  0  0  0
    2.5061    1.9930   -0.2253 H   0  0  0  0  0  0  0  0  0  0  0  0
    2.3357    1.4267   -1.9003 H   0  0  0  0  0  0  0  0  0  0  0  0
    2.9679    0.2940   -0.5931 H   0  0  0  0  0  0  0  0  0  0  0  0
   -0.5132    1.5372   -1.9665 H   0  0  0  0  0  0  0  0  0  0  0  0
   -3.2667    0.2936    0.3162 H   0  0  0  0  0  0  0  0  0  0  0  0
   -3.0190   -0.9106   -1.0259 H   0  0  0  0  0  0  0  0  0  0  0  0
   -2.9466    0.8309   -1.3466 H   0  0  0  0  0  0  0  0  0  0  0  0
   -0.1671   -1.6976   -1.1518 H   0  0  0  0  0  0  0  0  0  0  0  0
   -0.9722   -1.9423    0.5260 H   0  0  0  0  0  0  0  0  0  0  0  0
    1.0880   -1.0120    2.4243 H   0  0  0  0  0  0  0  0  0  0  0  0
    1.7284   -1.9785    1.0529 H   0  0  0  0  0  0  0  0  0  0  0  0
    2.3968   -0.3326    1.4375 H   0  0  0  0  0  0  0  0  0  0  0  0
   -0.5727    1.3760    1.3085 H   0  0  0  0  0  0  0  0  0  0  0  0
   -1.1986   -0.3073    1.8521 H   0  0  0  0  0  0  0  0  0  0  0  0
  1  2  1  0
  2  3  2  0
  3  4  1  0
  4  5  1  0
  4  6  1  0
  6  7  1  0
  7  8  1  0
  7  9  1  0
  7  2  1  0
  9  4  1  0
  1 10  1  0
  1 11  1  0
  1 12  1  0
  3 13  1  0
  5 14  1  0
  5 15  1  0
  5 16  1  0
  6 17  1  0
  6 18  1  0
  8 19  1  0
  8 20  1  0
  8 21  1  0
  9 22  1  0
  9 23  1  0
M  END
