
     RDKit          3D

 19 19  0  0  0  0  0  0  0  0999 V2000
    2.6913    0.1211   -0.0436 C   0  0  0  0  0  0  0  0  0  0  0  0
    1.1921    0.0075   -0.1490 C   0  0  0  0  0  0  0  0  0  0  0  0
    0.6910   -1.2123   -0.0512 C   0  0  0  0  0  0  0  0  0  0  0  0
   -0.7246   -1.5506   -0.1248 C   0  0  0  0  0  0  0  0  0  0  0  0
   -0.9687   -2.7836   -0.1834 O   0  0  0  0  0  0  0  0  0  0  0  0
   -1.9412   -0.7117   -0.1440 C   0  0  0  0  0  0  0  0  0  0  0  0
   -1.7769    0.6030    0.5497 C   0  0  0  0  0  0  0  0  0  0  0  0
   -0.7763    1.4974   -0.0358 C   0  0  0  0  0  0  0  0  0  0  0  0
    0.4925    1.2867   -0.3484 C   0  0  0  0  0  0  0  0  0  0  0  0
    2.9916   -0.6184    0.7146 H   0  0  0  0  0  0  0  0  0  0  0  0
    2.9241    1.1226    0.3782 H   0  0  0  0  0  0  0  0  0  0  0  0
    3.1766   -0.0514   -1.0219 H   0  0  0  0  0  0  0  0  0  0  0  0
    1.4153   -1.9980    0.0944 H   0  0  0  0  0  0  0  0  0  0  0  0
   -2.3155   -0.5419   -1.1764 H   0  0  0  0  0  0  0  0  0  0  0  0
   -2.7329   -1.2705    0.3971 H   0  0  0  0  0  0  0  0  0  0  0  0
   -2.7695    1.0975    0.5673 H   0  0  0  0  0  0  0  0  0  0  0  0
   -1.5286    0.3922    1.6176 H   0  0  0  0  0  0  0  0  0  0  0  0
   -1.1110    2.5142   -0.2606 H   0  0  0  0  0  0  0  0  0  0  0  0
    1.0707    2.0961   -0.7798 H   0  0  0  0  0  0  0  0  0  0  0  0
  1  2  1  0
  2  3  2  0
  3  4  1  0
  4  5  2  0
  4  6  1  0
  6  7  1  0
  7  8  1  0
  8  9  2  0
  9  2  1  0
  1 10  1  0
  1 11  1  0
  1 12  1  0
  3 13  1  0
  6 14  1  0
  6 15  1  0
  7 16  1  0
  7 17  1  0
  8 18  1  0
  9 19  1  0
M  END
