
     RDKit          3D

 21 21  0  0  0  0  0  0  0  0999 V2000
    2.5202    0.3903    0.0417 C   0  0  0  0  0  0  0  0  0  0  0  0
    1.0392    0.1740    0.0643 C   0  0  0  0  0  0  0  0  0  0  0  0
    0.3532    1.2612   -0.2309 C   0  0  0  0  0  0  0  0  0  0  0  0
   -1.1075    1.4717   -0.3178 C   0  0  0  0  0  0  0  0  0  0  0  0
   -1.8044    0.4733    0.6073 C   0  0  0  0  0  0  0  0  0  0  0  0
   -1.7770   -0.8384   -0.1389 C   0  0  0  0  0  0  0  0  0  0  0  0
   -2.8368   -1.3058   -0.4751 O   0  0  0  0  0  0  0  0  0  0  0  0
   -0.5477   -1.5909   -0.4871 C   0  0  0  0  0  0  0  0  0  0  0  0
    0.6069   -1.1878    0.4051 C   0  0  0  0  0  0  0  0  0  0  0  0
    2.8567    0.4910   -1.0066 H   0  0  0  0  0  0  0  0  0  0  0  0
    2.7247    1.3159    0.6462 H   0  0  0  0  0  0  0  0  0  0  0  0
    3.0646   -0.4609    0.4827 H   0  0  0  0  0  0  0  0  0  0  0  0
    0.9400    2.1517   -0.4470 H   0  0  0  0  0  0  0  0  0  0  0  0
   -1.4203    2.4985   -0.0341 H   0  0  0  0  0  0  0  0  0  0  0  0
   -1.4421    1.3204   -1.3735 H   0  0  0  0  0  0  0  0  0  0  0  0
   -1.1095    0.3789    1.4930 H   0  0  0  0  0  0  0  0  0  0  0  0
   -2.8103    0.7783    0.8811 H   0  0  0  0  0  0  0  0  0  0  0  0
   -0.2320   -1.4363   -1.5342 H   0  0  0  0  0  0  0  0  0  0  0  0
   -0.7561   -2.6857   -0.3133 H   0  0  0  0  0  0  0  0  0  0  0  0
    1.4450   -1.8999    0.2657 H   0  0  0  0  0  0  0  0  0  0  0  0
    0.2930   -1.2995    1.4713 H   0  0  0  0  0  0  0  0  0  0  0  0
  1  2  1  0
  2  3  2  0
  3  4  1  0
  4  5  1  0
  5  6  1  0
  6  7  2  0
  6  8  1  0
  8  9  1  0
  9  2  1  0
  1 10  1  0
  1 11  1  0
  1 12  1  0
  3 13  1  0
  4 14  1  0
  4 15  1  0
  5 16  1  0
  5 17  1  0
  8 18  1  0
  8 19  1  0
  9 20  1  0
  9 21  1  0
M  END
