
     RDKit          3D

 21 22  0  0  0  0  0  0  0  0999 V2000
    2.6281   -0.0972   -0.0044 C   0  0  0  0  0  0  0  0  0  0  0  0
    1.1845    0.1924   -0.1686 C   0  0  0  0  0  0  0  0  0  0  0  0
    0.6897    1.3761    0.1557 C   0  0  0  0  0  0  0  0  0  0  0  0
   -0.7933    1.4789    0.2691 C   0  0  0  0  0  0  0  0  0  0  0  0
   -1.4731    0.4938   -0.6207 C   0  0  0  0  0  0  0  0  0  0  0  0
   -1.9156   -0.6866    0.2410 C   0  0  0  0  0  0  0  0  0  0  0  0
   -0.5971   -1.4134    0.4062 C   0  0  0  0  0  0  0  0  0  0  0  0
    0.2570   -0.8380   -0.7012 C   0  0  0  0  0  0  0  0  0  0  0  0
   -0.6451   -0.1341   -1.5337 O   0  0  0  0  0  0  0  0  0  0  0  0
    2.7945   -1.1861    0.0885 H   0  0  0  0  0  0  0  0  0  0  0  0
    3.1962    0.3257   -0.8747 H   0  0  0  0  0  0  0  0  0  0  0  0
    2.9723    0.4206    0.8980 H   0  0  0  0  0  0  0  0  0  0  0  0
    1.3379    2.2528    0.3360 H   0  0  0  0  0  0  0  0  0  0  0  0
   -1.0133    1.2912    1.3609 H   0  0  0  0  0  0  0  0  0  0  0  0
   -1.1383    2.5297    0.1005 H   0  0  0  0  0  0  0  0  0  0  0  0
   -2.3253    0.9175   -1.1865 H   0  0  0  0  0  0  0  0  0  0  0  0
   -2.3412   -0.3346    1.1891 H   0  0  0  0  0  0  0  0  0  0  0  0
   -2.6267   -1.2640   -0.3860 H   0  0  0  0  0  0  0  0  0  0  0  0
   -0.1587   -1.2029    1.4156 H   0  0  0  0  0  0  0  0  0  0  0  0
   -0.7975   -2.4875    0.2735 H   0  0  0  0  0  0  0  0  0  0  0  0
    0.7651   -1.6343   -1.2582 H   0  0  0  0  0  0  0  0  0  0  0  0
  1  2  1  0
  2  3  2  0
  3  4  1  0
  4  5  1  0
  5  6  1  0
  6  7  1  0
  7  8  1  0
  8  9  1  0
  8  2  1  0
  9  5  1  0
  1 10  1  0
  1 11  1  0
  1 12  1  0
  3 13  1  0
  4 14  1  0
  4 15  1  0
  5 16  1  0
  6 17  1  0
  6 18  1  0
  7 19  1  0
  7 20  1  0
  8 21  1  0
M  END
