
     RDKit          3D

 14 14  0  0  0  0  0  0  0  0999 V2000
    2.0737    0.1329    0.0383 C   0  0  0  0  0  0  0  0  0  0  0  0
    0.5826    0.0705   -0.0490 C   0  0  0  0  0  0  0  0  0  0  0  0
   -0.1866    1.1425    0.0591 C   0  0  0  0  0  0  0  0  0  0  0  0
   -1.5885    0.7432   -0.0702 C   0  0  0  0  0  0  0  0  0  0  0  0
   -2.5911    1.4671   -0.2688 O   0  0  0  0  0  0  0  0  0  0  0  0
   -1.6233   -0.7479    0.0824 C   0  0  0  0  0  0  0  0  0  0  0  0
   -0.2445   -1.1132   -0.2573 C   0  0  0  0  0  0  0  0  0  0  0  0
    0.2398   -2.2032   -0.6590 O   0  0  0  0  0  0  0  0  0  0  0  0
    2.5024    0.5261   -0.8848 H   0  0  0  0  0  0  0  0  0  0  0  0
    2.5166   -0.8525    0.2499 H   0  0  0  0  0  0  0  0  0  0  0  0
    2.3495    0.7964    0.8906 H   0  0  0  0  0  0  0  0  0  0  0  0
    0.1144    2.1835    0.2194 H   0  0  0  0  0  0  0  0  0  0  0  0
   -2.3910   -1.2192   -0.5294 H   0  0  0  0  0  0  0  0  0  0  0  0
   -1.7540   -0.9263    1.1787 H   0  0  0  0  0  0  0  0  0  0  0  0
  1  2  1  0
  2  3  2  0
  3  4  1  0
  4  5  2  0
  4  6  1  0
  6  7  1  0
  7  8  2  0
  7  2  1  0
  1  9  1  0
  1 10  1  0
  1 11  1  0
  3 12  1  0
  6 13  1  0
  6 14  1  0
M  END
