
     RDKit          3D

 17 19  0  0  0  0  0  0  0  0999 V2000
    2.0223    0.4969    0.5230 C   0  0  0  0  0  0  0  0  0  0  0  0
    0.7102   -0.1846    0.1721 C   0  0  0  0  0  0  0  0  0  0  0  0
    0.4297   -1.4635    0.2858 C   0  0  0  0  0  0  0  0  0  0  0  0
   -0.9362   -1.8211   -0.1388 C   0  0  0  0  0  0  0  0  0  0  0  0
   -2.0556   -1.1641    0.2981 O   0  0  0  0  0  0  0  0  0  0  0  0
   -1.4179   -0.5293   -0.7641 C   0  0  0  0  0  0  0  0  0  0  0  0
   -0.4548    0.5218   -0.3514 C   0  0  0  0  0  0  0  0  0  0  0  0
   -0.9685    1.7555    0.1890 C   0  0  0  0  0  0  0  0  0  0  0  0
   -0.3108    1.6557   -1.1346 O   0  0  0  0  0  0  0  0  0  0  0  0
    2.7651   -0.2461    0.8759 H   0  0  0  0  0  0  0  0  0  0  0  0
    2.4529    0.9696   -0.3894 H   0  0  0  0  0  0  0  0  0  0  0  0
    1.8744    1.2127    1.3487 H   0  0  0  0  0  0  0  0  0  0  0  0
    1.1749   -2.1833    0.6700 H   0  0  0  0  0  0  0  0  0  0  0  0
   -1.0194   -2.7496   -0.7412 H   0  0  0  0  0  0  0  0  0  0  0  0
   -1.7890   -0.6278   -1.7854 H   0  0  0  0  0  0  0  0  0  0  0  0
   -2.0487    1.9849    0.0339 H   0  0  0  0  0  0  0  0  0  0  0  0
   -0.4286    2.3725    0.9085 H   0  0  0  0  0  0  0  0  0  0  0  0
  1  2  1  0
  2  3  2  0
  3  4  1  0
  4  5  1  0
  5  6  1  0
  6  7  1  0
  7  8  1  0
  8  9  1  0
  7  2  1  0
  6  4  1  0
  9  7  1  0
  1 10  1  0
  1 11  1  0
  1 12  1  0
  3 13  1  0
  4 14  1  0
  6 15  1  0
  8 16  1  0
  8 17  1  0
M  END
