
     RDKit          3D

 21 22  0  0  0  0  0  0  0  0999 V2000
    2.3314   -0.6071    0.2976 C   0  0  0  0  0  0  0  0  0  0  0  0
    0.9168   -0.4155   -0.1699 C   0  0  0  0  0  0  0  0  0  0  0  0
    0.3744   -1.0378   -1.2105 C   0  0  0  0  0  0  0  0  0  0  0  0
   -1.0567   -0.6014   -1.3831 C   0  0  0  0  0  0  0  0  0  0  0  0
   -1.4100    0.1288   -0.1170 C   0  0  0  0  0  0  0  0  0  0  0  0
   -1.5482   -0.6930    1.1179 C   0  0  0  0  0  0  0  0  0  0  0  0
   -0.4755   -0.0002    1.6854 O   0  0  0  0  0  0  0  0  0  0  0  0
   -0.0810    0.4814    0.4439 C   0  0  0  0  0  0  0  0  0  0  0  0
    0.1801    1.9462    0.3609 C   0  0  0  0  0  0  0  0  0  0  0  0
    2.7800    0.4157    0.3310 H   0  0  0  0  0  0  0  0  0  0  0  0
    2.3899   -1.1238    1.2623 H   0  0  0  0  0  0  0  0  0  0  0  0
    2.9065   -1.1593   -0.4719 H   0  0  0  0  0  0  0  0  0  0  0  0
    0.9052   -1.7516   -1.8294 H   0  0  0  0  0  0  0  0  0  0  0  0
   -1.7321   -1.4646   -1.4853 H   0  0  0  0  0  0  0  0  0  0  0  0
   -1.1128    0.1153   -2.2268 H   0  0  0  0  0  0  0  0  0  0  0  0
   -2.1388    0.9597   -0.2335 H   0  0  0  0  0  0  0  0  0  0  0  0
   -2.4884   -0.5006    1.7051 H   0  0  0  0  0  0  0  0  0  0  0  0
   -1.3896   -1.7551    0.9205 H   0  0  0  0  0  0  0  0  0  0  0  0
   -0.4688    2.4476   -0.4041 H   0  0  0  0  0  0  0  0  0  0  0  0
   -0.1025    2.4273    1.3333 H   0  0  0  0  0  0  0  0  0  0  0  0
    1.2202    2.1879    0.0738 H   0  0  0  0  0  0  0  0  0  0  0  0
  1  2  1  0
  2  3  2  0
  3  4  1  0
  4  5  1  0
  5  6  1  0
  6  7  1  0
  7  8  1  0
  8  9  1  0
  8  2  1  0
  8  5  1  0
  1 10  1  0
  1 11  1  0
  1 12  1  0
  3 13  1  0
  4 14  1  0
  4 15  1  0
  5 16  1  0
  6 17  1  0
  6 18  1  0
  9 19  1  0
  9 20  1  0
  9 21  1  0
M  END
