
     RDKit          3D

 19 20  0  0  0  0  0  0  0  0999 V2000
    2.4120    0.6564   -0.9783 C   0  0  0  0  0  0  0  0  0  0  0  0
    1.0588    0.1383   -0.4971 C   0  0  0  0  0  0  0  0  0  0  0  0
   -0.1137    0.6681   -0.7955 C   0  0  0  0  0  0  0  0  0  0  0  0
   -1.2313   -0.0594   -0.1785 C   0  0  0  0  0  0  0  0  0  0  0  0
   -2.1458   -0.6590   -0.9841 O   0  0  0  0  0  0  0  0  0  0  0  0
   -1.7445    0.6524    1.0515 C   0  0  0  0  0  0  0  0  0  0  0  0
   -0.7145    0.0730    1.8327 O   0  0  0  0  0  0  0  0  0  0  0  0
   -0.5403   -0.9137    0.8546 C   0  0  0  0  0  0  0  0  0  0  0  0
    0.8742   -1.0414    0.3736 C   0  0  0  0  0  0  0  0  0  0  0  0
    2.8021    1.4014   -0.2550 H   0  0  0  0  0  0  0  0  0  0  0  0
    2.2298    1.1112   -1.9532 H   0  0  0  0  0  0  0  0  0  0  0  0
    3.1276   -0.1815   -0.9950 H   0  0  0  0  0  0  0  0  0  0  0  0
   -0.1848    1.5692   -1.4490 H   0  0  0  0  0  0  0  0  0  0  0  0
   -3.0280   -0.6321   -0.5640 H   0  0  0  0  0  0  0  0  0  0  0  0
   -1.5729    1.7594    0.9921 H   0  0  0  0  0  0  0  0  0  0  0  0
   -2.7393    0.3714    1.4023 H   0  0  0  0  0  0  0  0  0  0  0  0
   -1.0562   -1.8457    1.1394 H   0  0  0  0  0  0  0  0  0  0  0  0
    0.9644   -1.9961   -0.2086 H   0  0  0  0  0  0  0  0  0  0  0  0
    1.6024   -1.0718    1.2124 H   0  0  0  0  0  0  0  0  0  0  0  0
  1  2  1  0
  2  3  2  0
  3  4  1  0
  4  5  1  0
  4  6  1  0
  6  7  1  0
  7  8  1  0
  8  9  1  0
  9  2  1  0
  8  4  1  0
  1 10  1  0
  1 11  1  0
  1 12  1  0
  3 13  1  0
  5 14  1  0
  6 15  1  0
  6 16  1  0
  8 17  1  0
  9 18  1  0
  9 19  1  0
M  END
