
     RDKit          3D

 21 22  0  0  0  0  0  0  0  0999 V2000
   -2.4102   -0.6288   -0.2591 C   0  0  0  0  0  0  0  0  0  0  0  0
   -0.9299   -0.4219   -0.0962 C   0  0  0  0  0  0  0  0  0  0  0  0
   -0.2987    0.6538    0.3152 C   0  0  0  0  0  0  0  0  0  0  0  0
   -1.0588    1.9040    0.7006 C   0  0  0  0  0  0  0  0  0  0  0  0
    1.1568    0.5291    0.3684 C   0  0  0  0  0  0  0  0  0  0  0  0
    2.0095    0.0784   -0.7322 C   0  0  0  0  0  0  0  0  0  0  0  0
    3.3784    0.3340   -0.5865 O   0  0  0  0  0  0  0  0  0  0  0  0
    1.3495   -0.9669    0.1024 C   0  0  0  0  0  0  0  0  0  0  0  0
    0.0523   -1.4717   -0.4056 C   0  0  0  0  0  0  0  0  0  0  0  0
   -2.9903    0.1522    0.2253 H   0  0  0  0  0  0  0  0  0  0  0  0
   -2.6620   -0.7203   -1.3504 H   0  0  0  0  0  0  0  0  0  0  0  0
   -2.6872   -1.6033    0.1955 H   0  0  0  0  0  0  0  0  0  0  0  0
   -1.9477    1.6115    1.3083 H   0  0  0  0  0  0  0  0  0  0  0  0
   -1.3504    2.4735   -0.2166 H   0  0  0  0  0  0  0  0  0  0  0  0
   -0.4067    2.5801    1.2907 H   0  0  0  0  0  0  0  0  0  0  0  0
    1.6050    0.9418    1.2975 H   0  0  0  0  0  0  0  0  0  0  0  0
    1.6821    0.1560   -1.7906 H   0  0  0  0  0  0  0  0  0  0  0  0
    3.7363   -0.0608    0.2683 H   0  0  0  0  0  0  0  0  0  0  0  0
    1.9086   -1.4948    0.8991 H   0  0  0  0  0  0  0  0  0  0  0  0
    0.1031   -1.5797   -1.5329 H   0  0  0  0  0  0  0  0  0  0  0  0
   -0.2400   -2.4662   -0.0012 H   0  0  0  0  0  0  0  0  0  0  0  0
  1  2  1  0
  2  3  2  0
  3  4  1  0
  3  5  1  0
  5  6  1  0
  6  7  1  0
  6  8  1  0
  8  9  1  0
  9  2  1  0
  8  5  1  0
  1 10  1  0
  1 11  1  0
  1 12  1  0
  4 13  1  0
  4 14  1  0
  4 15  1  0
  5 16  1  0
  6 17  1  0
  7 18  1  0
  8 19  1  0
  9 20  1  0
  9 21  1  0
M  END
