
     RDKit          3D

 19 20  0  0  0  0  0  0  0  0999 V2000
    2.6697    0.3986   -0.7893 C   0  0  0  0  0  0  0  0  0  0  0  0
    1.2800    0.0100   -0.3349 C   0  0  0  0  0  0  0  0  0  0  0  0
    0.1540    0.5515   -0.7629 C   0  0  0  0  0  0  0  0  0  0  0  0
   -0.9695   -0.0699   -0.1083 C   0  0  0  0  0  0  0  0  0  0  0  0
   -2.3627    0.3241   -0.2209 C   0  0  0  0  0  0  0  0  0  0  0  0
   -1.6443    0.8417    0.9491 C   0  0  0  0  0  0  0  0  0  0  0  0
   -0.4820   -1.3770    0.3974 C   0  0  0  0  0  0  0  0  0  0  0  0
    0.9665   -1.0319    0.6461 C   0  0  0  0  0  0  0  0  0  0  0  0
    1.7430   -1.5205    1.5001 O   0  0  0  0  0  0  0  0  0  0  0  0
    3.3185   -0.4532   -0.5623 H   0  0  0  0  0  0  0  0  0  0  0  0
    3.0362    1.2634   -0.1864 H   0  0  0  0  0  0  0  0  0  0  0  0
    2.6348    0.6935   -1.8459 H   0  0  0  0  0  0  0  0  0  0  0  0
    0.0710    1.3560   -1.5062 H   0  0  0  0  0  0  0  0  0  0  0  0
   -3.1236   -0.4846   -0.0237 H   0  0  0  0  0  0  0  0  0  0  0  0
   -2.6553    0.9759   -1.0485 H   0  0  0  0  0  0  0  0  0  0  0  0
   -1.7273    0.4219    1.9505 H   0  0  0  0  0  0  0  0  0  0  0  0
   -1.3866    1.9168    0.9348 H   0  0  0  0  0  0  0  0  0  0  0  0
   -0.9934   -1.6209    1.3423 H   0  0  0  0  0  0  0  0  0  0  0  0
   -0.5290   -2.1953   -0.3308 H   0  0  0  0  0  0  0  0  0  0  0  0
  1  2  1  0
  2  3  2  0
  3  4  1  0
  4  5  1  0
  5  6  1  0
  4  7  1  0
  7  8  1  0
  8  9  2  0
  8  2  1  0
  6  4  1  0
  1 10  1  0
  1 11  1  0
  1 12  1  0
  3 13  1  0
  5 14  1  0
  5 15  1  0
  6 16  1  0
  6 17  1  0
  7 18  1  0
  7 19  1  0
M  END
