
     RDKit          3D

 19 19  0  0  0  0  0  0  0  0999 V2000
   -1.9077   -0.6887    0.5086 C   0  0  0  0  0  0  0  0  0  0  0  0
   -0.4637   -0.4791    0.2532 C   0  0  0  0  0  0  0  0  0  0  0  0
    0.4339   -1.2799    0.8085 C   0  0  0  0  0  0  0  0  0  0  0  0
    1.8494   -1.0627    0.5492 C   0  0  0  0  0  0  0  0  0  0  0  0
    2.6817   -1.6470    1.2753 O   0  0  0  0  0  0  0  0  0  0  0  0
    2.1648   -0.1509   -0.5740 C   0  0  0  0  0  0  0  0  0  0  0  0
    1.3260    0.9425   -0.4443 O   0  0  0  0  0  0  0  0  0  0  0  0
    0.0072    0.6108   -0.6133 C   0  0  0  0  0  0  0  0  0  0  0  0
   -0.8515    1.8354   -0.3166 C   0  0  0  0  0  0  0  0  0  0  0  0
   -2.3392    0.1284    1.1343 H   0  0  0  0  0  0  0  0  0  0  0  0
   -2.1424   -1.6457    0.9651 H   0  0  0  0  0  0  0  0  0  0  0  0
   -2.4465   -0.6260   -0.4689 H   0  0  0  0  0  0  0  0  0  0  0  0
    0.1056   -2.0871    1.4490 H   0  0  0  0  0  0  0  0  0  0  0  0
    1.8448   -0.6807   -1.5121 H   0  0  0  0  0  0  0  0  0  0  0  0
    3.2161    0.1166   -0.6509 H   0  0  0  0  0  0  0  0  0  0  0  0
   -0.2297    0.3405   -1.6798 H   0  0  0  0  0  0  0  0  0  0  0  0
   -0.6315    2.6691   -1.0274 H   0  0  0  0  0  0  0  0  0  0  0  0
   -0.6907    2.1860    0.7362 H   0  0  0  0  0  0  0  0  0  0  0  0
   -1.9265    1.5186   -0.3920 H   0  0  0  0  0  0  0  0  0  0  0  0
  1  2  1  0
  2  3  2  0
  3  4  1  0
  4  5  2  0
  4  6  1  0
  6  7  1  0
  7  8  1  0
  8  9  1  0
  8  2  1  0
  1 10  1  0
  1 11  1  0
  1 12  1  0
  3 13  1  0
  6 14  1  0
  6 15  1  0
  8 16  1  0
  9 17  1  0
  9 18  1  0
  9 19  1  0
M  END
