
     RDKit          3D

 19 21  0  0  0  0  0  0  0  0999 V2000
    2.5741   -0.3002    0.3558 C   0  0  0  0  0  0  0  0  0  0  0  0
    1.1918   -0.0754   -0.0910 C   0  0  0  0  0  0  0  0  0  0  0  0
    0.3936    0.8966    0.4414 C   0  0  0  0  0  0  0  0  0  0  0  0
   -0.9283    0.9433   -0.1459 C   0  0  0  0  0  0  0  0  0  0  0  0
   -2.2116    1.0409    0.2603 C   0  0  0  0  0  0  0  0  0  0  0  0
   -1.6834   -0.3006    0.1152 C   0  0  0  0  0  0  0  0  0  0  0  0
   -0.7023   -1.2653   -0.2094 C   0  0  0  0  0  0  0  0  0  0  0  0
   -0.2621   -1.8897   -1.2827 O   0  0  0  0  0  0  0  0  0  0  0  0
    0.4710   -0.8296   -1.1251 C   0  0  0  0  0  0  0  0  0  0  0  0
    2.7050   -1.2963    0.8435 H   0  0  0  0  0  0  0  0  0  0  0  0
    3.2502   -0.3314   -0.5418 H   0  0  0  0  0  0  0  0  0  0  0  0
    2.9138    0.5377    0.9730 H   0  0  0  0  0  0  0  0  0  0  0  0
    0.7961    1.5353    1.2336 H   0  0  0  0  0  0  0  0  0  0  0  0
   -0.8231    1.2401   -1.2452 H   0  0  0  0  0  0  0  0  0  0  0  0
   -2.3362    1.6313    1.2265 H   0  0  0  0  0  0  0  0  0  0  0  0
   -3.0984    1.2698   -0.3726 H   0  0  0  0  0  0  0  0  0  0  0  0
   -2.2945   -0.7212    0.9230 H   0  0  0  0  0  0  0  0  0  0  0  0
   -0.2622   -1.9070    0.6526 H   0  0  0  0  0  0  0  0  0  0  0  0
    0.3066   -0.1781   -2.0112 H   0  0  0  0  0  0  0  0  0  0  0  0
  1  2  1  0
  2  3  2  0
  3  4  1  0
  4  5  1  0
  5  6  1  0
  6  7  1  0
  7  8  1  0
  8  9  1  0
  9  2  1  0
  6  4  1  0
  9  7  1  0
  1 10  1  0
  1 11  1  0
  1 12  1  0
  3 13  1  0
  4 14  1  0
  5 15  1  0
  5 16  1  0
  6 17  1  0
  7 18  1  0
  9 19  1  0
M  END
