
     RDKit          3D

 21 22  0  0  0  0  0  0  0  0999 V2000
   -2.3180    1.2640   -0.2186 C   0  0  0  0  0  0  0  0  0  0  0  0
   -1.0065    0.5849   -0.3395 C   0  0  0  0  0  0  0  0  0  0  0  0
    0.1664    1.1866   -0.4094 C   0  0  0  0  0  0  0  0  0  0  0  0
    1.2204    0.1752   -0.5213 C   0  0  0  0  0  0  0  0  0  0  0  0
    2.4380    0.4661    0.3172 C   0  0  0  0  0  0  0  0  0  0  0  0
    0.6367   -1.1627   -0.2727 C   0  0  0  0  0  0  0  0  0  0  0  0
   -0.2692   -1.4916    0.8282 C   0  0  0  0  0  0  0  0  0  0  0  0
   -0.8352   -0.8907   -0.3984 C   0  0  0  0  0  0  0  0  0  0  0  0
   -1.4713   -1.6261   -1.3647 O   0  0  0  0  0  0  0  0  0  0  0  0
   -3.1190    0.5947    0.1596 H   0  0  0  0  0  0  0  0  0  0  0  0
   -2.2824    2.1220    0.5015 H   0  0  0  0  0  0  0  0  0  0  0  0
   -2.6381    1.7088   -1.1901 H   0  0  0  0  0  0  0  0  0  0  0  0
    0.3167    2.2508   -0.3871 H   0  0  0  0  0  0  0  0  0  0  0  0
    1.5736    0.1949   -1.5952 H   0  0  0  0  0  0  0  0  0  0  0  0
    3.3661    0.1949   -0.2281 H   0  0  0  0  0  0  0  0  0  0  0  0
    2.4048   -0.2086    1.2187 H   0  0  0  0  0  0  0  0  0  0  0  0
    2.4714    1.5193    0.6250 H   0  0  0  0  0  0  0  0  0  0  0  0
    1.0982   -1.9997   -0.8362 H   0  0  0  0  0  0  0  0  0  0  0  0
   -0.2818   -0.8828    1.7780 H   0  0  0  0  0  0  0  0  0  0  0  0
   -0.4543   -2.5560    1.0258 H   0  0  0  0  0  0  0  0  0  0  0  0
   -1.0164   -1.4440   -2.2392 H   0  0  0  0  0  0  0  0  0  0  0  0
  1  2  1  0
  2  3  2  0
  3  4  1  0
  4  5  1  0
  4  6  1  0
  6  7  1  0
  7  8  1  0
  8  9  1  0
  8  2  1  0
  8  6  1  0
  1 10  1  0
  1 11  1  0
  1 12  1  0
  3 13  1  0
  4 14  1  0
  5 15  1  0
  5 16  1  0
  5 17  1  0
  6 18  1  0
  7 19  1  0
  7 20  1  0
  9 21  1  0
M  END
