
     RDKit          3D

 21 21  0  0  0  0  0  0  0  0999 V2000
    2.4407   -0.7398    0.1094 C   0  0  0  0  0  0  0  0  0  0  0  0
    0.9658   -0.7205   -0.1424 C   0  0  0  0  0  0  0  0  0  0  0  0
    0.2562    0.4117   -0.1876 C   0  0  0  0  0  0  0  0  0  0  0  0
    0.8168    1.7923    0.0018 C   0  0  0  0  0  0  0  0  0  0  0  0
   -1.1647    0.0787   -0.4539 C   0  0  0  0  0  0  0  0  0  0  0  0
   -2.1031    0.9348    0.3608 C   0  0  0  0  0  0  0  0  0  0  0  0
   -1.2652   -1.3888   -0.0144 C   0  0  0  0  0  0  0  0  0  0  0  0
    0.0961   -1.8648   -0.3688 C   0  0  0  0  0  0  0  0  0  0  0  0
    0.4768   -2.9829   -0.7759 O   0  0  0  0  0  0  0  0  0  0  0  0
    2.6501   -0.1975    1.0762 H   0  0  0  0  0  0  0  0  0  0  0  0
    2.8173   -1.7594    0.1773 H   0  0  0  0  0  0  0  0  0  0  0  0
    2.9007   -0.1247   -0.6876 H   0  0  0  0  0  0  0  0  0  0  0  0
    1.0662    2.2060   -1.0013 H   0  0  0  0  0  0  0  0  0  0  0  0
    1.7091    1.6827    0.6430 H   0  0  0  0  0  0  0  0  0  0  0  0
    0.1126    2.4752    0.4703 H   0  0  0  0  0  0  0  0  0  0  0  0
   -1.3309    0.1428   -1.5351 H   0  0  0  0  0  0  0  0  0  0  0  0
   -2.6850    1.6072   -0.2777 H   0  0  0  0  0  0  0  0  0  0  0  0
   -1.5406    1.4766    1.1267 H   0  0  0  0  0  0  0  0  0  0  0  0
   -2.8177    0.2589    0.9084 H   0  0  0  0  0  0  0  0  0  0  0  0
   -1.3322   -1.3712    1.0897 H   0  0  0  0  0  0  0  0  0  0  0  0
   -2.0686   -1.9173   -0.5189 H   0  0  0  0  0  0  0  0  0  0  0  0
  1  2  1  0
  2  3  2  0
  3  4  1  0
  3  5  1  0
  5  6  1  0
  5  7  1  0
  7  8  1  0
  8  9  2  0
  8  2  1  0
  1 10  1  0
  1 11  1  0
  1 12  1  0
  4 13  1  0
  4 14  1  0
  4 15  1  0
  5 16  1  0
  6 17  1  0
  6 18  1  0
  6 19  1  0
  7 20  1  0
  7 21  1  0
M  END
