
     RDKit          3D

 19 20  0  0  0  0  0  0  0  0999 V2000
    2.5362    0.2195   -0.4958 C   0  0  0  0  0  0  0  0  0  0  0  0
    1.1447    0.1048    0.0217 C   0  0  0  0  0  0  0  0  0  0  0  0
    0.3136    1.1349    0.1914 C   0  0  0  0  0  0  0  0  0  0  0  0
   -0.9977    0.6451    0.7276 C   0  0  0  0  0  0  0  0  0  0  0  0
   -2.0339    0.6981   -0.3564 C   0  0  0  0  0  0  0  0  0  0  0  0
   -1.6896   -0.7311   -0.6827 C   0  0  0  0  0  0  0  0  0  0  0  0
   -1.9604   -1.4139   -1.6594 O   0  0  0  0  0  0  0  0  0  0  0  0
   -0.9631   -0.8532    0.6039 C   0  0  0  0  0  0  0  0  0  0  0  0
    0.4861   -1.1478    0.4187 C   0  0  0  0  0  0  0  0  0  0  0  0
    3.1519   -0.5728    0.0067 H   0  0  0  0  0  0  0  0  0  0  0  0
    2.9399    1.1855   -0.1299 H   0  0  0  0  0  0  0  0  0  0  0  0
    2.5914    0.1317   -1.5986 H   0  0  0  0  0  0  0  0  0  0  0  0
    0.4806    2.1898   -0.0027 H   0  0  0  0  0  0  0  0  0  0  0  0
   -1.2579    1.0564    1.6983 H   0  0  0  0  0  0  0  0  0  0  0  0
   -3.0529    0.7752    0.0556 H   0  0  0  0  0  0  0  0  0  0  0  0
   -1.7883    1.3804   -1.1963 H   0  0  0  0  0  0  0  0  0  0  0  0
   -1.4866   -1.3378    1.4197 H   0  0  0  0  0  0  0  0  0  0  0  0
    0.9877   -1.5223    1.3319 H   0  0  0  0  0  0  0  0  0  0  0  0
    0.5982   -1.9423   -0.3535 H   0  0  0  0  0  0  0  0  0  0  0  0
  1  2  1  0
  2  3  2  0
  3  4  1  0
  4  5  1  0
  5  6  1  0
  6  7  2  0
  6  8  1  0
  8  9  1  0
  9  2  1  0
  8  4  1  0
  1 10  1  0
  1 11  1  0
  1 12  1  0
  3 13  1  0
  4 14  1  0
  5 15  1  0
  5 16  1  0
  8 17  1  0
  9 18  1  0
  9 19  1  0
M  END
