
     RDKit          3D

 22 22  0  0  0  0  0  0  0  0999 V2000
   -2.6191    0.0808   -0.5975 C   0  0  0  0  0  0  0  0  0  0  0  0
   -1.2592   -0.2801   -0.1413 C   0  0  0  0  0  0  0  0  0  0  0  0
   -0.9684   -1.2145    0.7389 C   0  0  0  0  0  0  0  0  0  0  0  0
    0.5211   -1.2769    0.9334 C   0  0  0  0  0  0  0  0  0  0  0  0
    1.0520   -0.6224   -0.3554 C   0  0  0  0  0  0  0  0  0  0  0  0
    2.4092   -0.0395   -0.1379 C   0  0  0  0  0  0  0  0  0  0  0  0
   -0.0231    0.3757   -0.6128 C   0  0  0  0  0  0  0  0  0  0  0  0
    0.1482    1.6431    0.2024 C   0  0  0  0  0  0  0  0  0  0  0  0
   -3.4130   -0.5516   -0.1963 H   0  0  0  0  0  0  0  0  0  0  0  0
   -2.8209    1.1195   -0.2107 H   0  0  0  0  0  0  0  0  0  0  0  0
   -2.7170    0.0675   -1.7142 H   0  0  0  0  0  0  0  0  0  0  0  0
   -1.6488   -1.8631    1.2685 H   0  0  0  0  0  0  0  0  0  0  0  0
    0.8935   -2.3005    0.9862 H   0  0  0  0  0  0  0  0  0  0  0  0
    0.8268   -0.6160    1.7529 H   0  0  0  0  0  0  0  0  0  0  0  0
    1.0334   -1.3706   -1.1678 H   0  0  0  0  0  0  0  0  0  0  0  0
    3.1559   -0.8392   -0.3853 H   0  0  0  0  0  0  0  0  0  0  0  0
    2.6087    0.8833   -0.7054 H   0  0  0  0  0  0  0  0  0  0  0  0
    2.5740    0.2074    0.9355 H   0  0  0  0  0  0  0  0  0  0  0  0
   -0.1605    0.6088   -1.6919 H   0  0  0  0  0  0  0  0  0  0  0  0
    1.1795    2.0164    0.2092 H   0  0  0  0  0  0  0  0  0  0  0  0
   -0.4767    2.4214   -0.3252 H   0  0  0  0  0  0  0  0  0  0  0  0
   -0.2958    1.5506    1.2147 H   0  0  0  0  0  0  0  0  0  0  0  0
  1  2  1  0
  2  3  2  0
  3  4  1  0
  4  5  1  0
  5  6  1  0
  5  7  1  0
  7  8  1  0
  7  2  1  0
  1  9  1  0
  1 10  1  0
  1 11  1  0
  3 12  1  0
  4 13  1  0
  4 14  1  0
  5 15  1  0
  6 16  1  0
  6 17  1  0
  6 18  1  0
  7 19  1  0
  8 20  1  0
  8 21  1  0
  8 22  1  0
M  END
