
     RDKit          3D

 21 22  0  0  0  0  0  0  0  0999 V2000
    2.6116   -0.2261    0.4536 C   0  0  0  0  0  0  0  0  0  0  0  0
    1.2164    0.2016    0.1252 C   0  0  0  0  0  0  0  0  0  0  0  0
    0.4608    0.9078    0.9249 C   0  0  0  0  0  0  0  0  0  0  0  0
   -0.9015    1.2962    0.5442 C   0  0  0  0  0  0  0  0  0  0  0  0
   -1.6125    0.2944   -0.3039 C   0  0  0  0  0  0  0  0  0  0  0  0
   -1.9308   -0.9575    0.4880 C   0  0  0  0  0  0  0  0  0  0  0  0
   -0.9621   -1.6669   -0.2210 O   0  0  0  0  0  0  0  0  0  0  0  0
   -0.7560   -0.6116   -1.1031 C   0  0  0  0  0  0  0  0  0  0  0  0
    0.6890   -0.2131   -1.1883 C   0  0  0  0  0  0  0  0  0  0  0  0
    2.9168    0.0662    1.4628 H   0  0  0  0  0  0  0  0  0  0  0  0
    2.6009   -1.3399    0.4222 H   0  0  0  0  0  0  0  0  0  0  0  0
    3.2981    0.0999   -0.3452 H   0  0  0  0  0  0  0  0  0  0  0  0
    0.8639    1.2010    1.8771 H   0  0  0  0  0  0  0  0  0  0  0  0
   -0.9165    2.2733   -0.0237 H   0  0  0  0  0  0  0  0  0  0  0  0
   -1.4728    1.5045    1.4729 H   0  0  0  0  0  0  0  0  0  0  0  0
   -2.4510    0.7117   -0.8948 H   0  0  0  0  0  0  0  0  0  0  0  0
   -1.6097   -0.9048    1.5682 H   0  0  0  0  0  0  0  0  0  0  0  0
   -2.9656   -1.3330    0.3629 H   0  0  0  0  0  0  0  0  0  0  0  0
   -1.1548   -0.8161   -2.1208 H   0  0  0  0  0  0  0  0  0  0  0  0
    1.2488   -1.0940   -1.6095 H   0  0  0  0  0  0  0  0  0  0  0  0
    0.8269    0.6065   -1.8921 H   0  0  0  0  0  0  0  0  0  0  0  0
  1  2  1  0
  2  3  2  0
  3  4  1  0
  4  5  1  0
  5  6  1  0
  6  7  1  0
  7  8  1  0
  8  9  1  0
  9  2  1  0
  8  5  1  0
  1 10  1  0
  1 11  1  0
  1 12  1  0
  3 13  1  0
  4 14  1  0
  4 15  1  0
  5 16  1  0
  6 17  1  0
  6 18  1  0
  8 19  1  0
  9 20  1  0
  9 21  1  0
M  END
