
     RDKit          3D

 23 23  0  0  0  0  0  0  0  0999 V2000
   -3.2087    0.1974   -0.6259 C   0  0  0  0  0  0  0  0  0  0  0  0
   -1.7990   -0.1699   -0.3533 C   0  0  0  0  0  0  0  0  0  0  0  0
   -1.2875   -1.3827   -0.3623 C   0  0  0  0  0  0  0  0  0  0  0  0
    0.1757   -1.3480   -0.0379 C   0  0  0  0  0  0  0  0  0  0  0  0
    0.5023    0.0755    0.2717 C   0  0  0  0  0  0  0  0  0  0  0  0
    1.7121    0.5956   -0.4521 C   0  0  0  0  0  0  0  0  0  0  0  0
    2.9132   -0.2252   -0.0782 C   0  0  0  0  0  0  0  0  0  0  0  0
    1.9208    1.9096   -0.0327 O   0  0  0  0  0  0  0  0  0  0  0  0
   -0.7470    0.8335   -0.0222 C   0  0  0  0  0  0  0  0  0  0  0  0
   -3.4662    1.2043   -0.2542 H   0  0  0  0  0  0  0  0  0  0  0  0
   -3.9312   -0.5187   -0.1541 H   0  0  0  0  0  0  0  0  0  0  0  0
   -3.4415    0.1802   -1.7147 H   0  0  0  0  0  0  0  0  0  0  0  0
   -1.8006   -2.3157   -0.5680 H   0  0  0  0  0  0  0  0  0  0  0  0
    0.3162   -1.9925    0.8725 H   0  0  0  0  0  0  0  0  0  0  0  0
    0.7671   -1.7965   -0.8391 H   0  0  0  0  0  0  0  0  0  0  0  0
    0.7331    0.1677    1.3731 H   0  0  0  0  0  0  0  0  0  0  0  0
    1.5603    0.5870   -1.5596 H   0  0  0  0  0  0  0  0  0  0  0  0
    3.4194   -0.6655   -0.9703 H   0  0  0  0  0  0  0  0  0  0  0  0
    2.6611   -0.9944    0.6753 H   0  0  0  0  0  0  0  0  0  0  0  0
    3.7085    0.4137    0.4075 H   0  0  0  0  0  0  0  0  0  0  0  0
    1.0647    2.3063    0.2826 H   0  0  0  0  0  0  0  0  0  0  0  0
   -1.0898    1.4039    0.8855 H   0  0  0  0  0  0  0  0  0  0  0  0
   -0.6830    1.5342   -0.8574 H   0  0  0  0  0  0  0  0  0  0  0  0
  1  2  1  0
  2  3  2  0
  3  4  1  0
  4  5  1  0
  5  6  1  0
  6  7  1  0
  6  8  1  0
  5  9  1  0
  9  2  1  0
  1 10  1  0
  1 11  1  0
  1 12  1  0
  3 13  1  0
  4 14  1  0
  4 15  1  0
  5 16  1  0
  6 17  1  0
  7 18  1  0
  7 19  1  0
  7 20  1  0
  8 21  1  0
  9 22  1  0
  9 23  1  0
M  END
