
     RDKit          3D

 19 19  0  0  0  0  0  0  0  0999 V2000
    2.2167   -0.1384    0.1169 C   0  0  0  0  0  0  0  0  0  0  0  0
    0.7528   -0.3950    0.0108 C   0  0  0  0  0  0  0  0  0  0  0  0
    0.2082   -1.5579    0.3561 C   0  0  0  0  0  0  0  0  0  0  0  0
   -1.2689   -1.5040    0.1363 C   0  0  0  0  0  0  0  0  0  0  0  0
   -1.5978   -0.0604   -0.0616 C   0  0  0  0  0  0  0  0  0  0  0  0
   -0.2746    0.5489   -0.4688 C   0  0  0  0  0  0  0  0  0  0  0  0
   -0.1832    1.9093    0.1545 C   0  0  0  0  0  0  0  0  0  0  0  0
    2.7751   -0.6573   -0.6898 H   0  0  0  0  0  0  0  0  0  0  0  0
    2.5528   -0.5775    1.0742 H   0  0  0  0  0  0  0  0  0  0  0  0
    2.4652    0.9393    0.0387 H   0  0  0  0  0  0  0  0  0  0  0  0
    0.6941   -2.4501    0.7436 H   0  0  0  0  0  0  0  0  0  0  0  0
   -1.4785   -2.0530   -0.7974 H   0  0  0  0  0  0  0  0  0  0  0  0
   -1.7972   -1.9115    1.0175 H   0  0  0  0  0  0  0  0  0  0  0  0
   -1.9706    0.4305    0.8818 H   0  0  0  0  0  0  0  0  0  0  0  0
   -2.3162    0.0526   -0.8818 H   0  0  0  0  0  0  0  0  0  0  0  0
   -0.1764    0.5890   -1.5860 H   0  0  0  0  0  0  0  0  0  0  0  0
    0.7250    2.0622    0.7441 H   0  0  0  0  0  0  0  0  0  0  0  0
   -1.0472    2.1144    0.8517 H   0  0  0  0  0  0  0  0  0  0  0  0
   -0.2793    2.6589   -0.6827 H   0  0  0  0  0  0  0  0  0  0  0  0
  1  2  1  0
  2  3  2  0
  3  4  1  0
  4  5  1  0
  5  6  1  0
  6  7  1  0
  6  2  1  0
  1  8  1  0
  1  9  1  0
  1 10  1  0
  3 11  1  0
  4 12  1  0
  4 13  1  0
  5 14  1  0
  5 15  1  0
  6 16  1  0
  7 17  1  0
  7 18  1  0
  7 19  1  0
M  END
