
     RDKit          3D

 23 24  0  0  0  0  0  0  0  0999 V2000
    2.0822   -1.5941    0.3250 C   0  0  0  0  0  0  0  0  0  0  0  0
    0.8936   -0.7724   -0.0314 C   0  0  0  0  0  0  0  0  0  0  0  0
   -0.1080   -1.1681   -0.8098 C   0  0  0  0  0  0  0  0  0  0  0  0
   -1.1106   -0.0954   -0.9435 C   0  0  0  0  0  0  0  0  0  0  0  0
   -2.3509   -0.4112   -0.1311 C   0  0  0  0  0  0  0  0  0  0  0  0
   -1.8311    0.4341    1.0012 C   0  0  0  0  0  0  0  0  0  0  0  0
   -0.7675    0.9517    0.0893 C   0  0  0  0  0  0  0  0  0  0  0  0
    0.6467    0.6306    0.4358 C   0  0  0  0  0  0  0  0  0  0  0  0
    1.5458    1.5899   -0.3294 C   0  0  0  0  0  0  0  0  0  0  0  0
    1.7487   -2.6709    0.3842 H   0  0  0  0  0  0  0  0  0  0  0  0
    2.8578   -1.5768   -0.4662 H   0  0  0  0  0  0  0  0  0  0  0  0
    2.5079   -1.3311    1.3063 H   0  0  0  0  0  0  0  0  0  0  0  0
   -0.2010   -2.1352   -1.2906 H   0  0  0  0  0  0  0  0  0  0  0  0
   -1.2695    0.3352   -1.9296 H   0  0  0  0  0  0  0  0  0  0  0  0
   -2.4079   -1.4725    0.1984 H   0  0  0  0  0  0  0  0  0  0  0  0
   -3.2755   -0.0470   -0.6243 H   0  0  0  0  0  0  0  0  0  0  0  0
   -2.6206    1.1799    1.2880 H   0  0  0  0  0  0  0  0  0  0  0  0
   -1.4698   -0.1115    1.8916 H   0  0  0  0  0  0  0  0  0  0  0  0
   -0.9489    2.0039   -0.2454 H   0  0  0  0  0  0  0  0  0  0  0  0
    0.8680    0.7000    1.5133 H   0  0  0  0  0  0  0  0  0  0  0  0
    0.9671    2.4985   -0.6573 H   0  0  0  0  0  0  0  0  0  0  0  0
    1.8830    1.1078   -1.2720 H   0  0  0  0  0  0  0  0  0  0  0  0
    2.3606    1.9545    0.2974 H   0  0  0  0  0  0  0  0  0  0  0  0
  1  2  1  0
  2  3  2  0
  3  4  1  0
  4  5  1  0
  5  6  1  0
  6  7  1  0
  7  8  1  0
  8  9  1  0
  8  2  1  0
  7  4  1  0
  1 10  1  0
  1 11  1  0
  1 12  1  0
  3 13  1  0
  4 14  1  0
  5 15  1  0
  5 16  1  0
  6 17  1  0
  6 18  1  0
  7 19  1  0
  8 20  1  0
  9 21  1  0
  9 22  1  0
  9 23  1  0
M  END
