
     RDKit          3D

 19 20  0  0  0  0  0  0  0  0999 V2000
    2.6061    0.1817    0.2137 C   0  0  0  0  0  0  0  0  0  0  0  0
    1.1598   -0.0999   -0.0692 C   0  0  0  0  0  0  0  0  0  0  0  0
    0.3377    0.8085   -0.5424 C   0  0  0  0  0  0  0  0  0  0  0  0
   -1.0678    0.5001   -0.8082 C   0  0  0  0  0  0  0  0  0  0  0  0
   -2.1126    0.6287    0.2329 C   0  0  0  0  0  0  0  0  0  0  0  0
   -1.7986    1.1135    1.5000 O   0  0  0  0  0  0  0  0  0  0  0  0
   -1.4849   -0.7476   -0.0902 C   0  0  0  0  0  0  0  0  0  0  0  0
   -0.6078   -1.2501    0.8254 O   0  0  0  0  0  0  0  0  0  0  0  0
    0.6305   -1.4669    0.2057 C   0  0  0  0  0  0  0  0  0  0  0  0
    2.8711   -0.1944    1.2248 H   0  0  0  0  0  0  0  0  0  0  0  0
    3.2784   -0.3309   -0.4958 H   0  0  0  0  0  0  0  0  0  0  0  0
    2.8018    1.2568    0.1575 H   0  0  0  0  0  0  0  0  0  0  0  0
    0.7415    1.8025   -0.7301 H   0  0  0  0  0  0  0  0  0  0  0  0
   -1.3797    0.6559   -1.8668 H   0  0  0  0  0  0  0  0  0  0  0  0
   -3.1442    0.7621   -0.1464 H   0  0  0  0  0  0  0  0  0  0  0  0
   -2.4355    1.7805    1.8225 H   0  0  0  0  0  0  0  0  0  0  0  0
   -2.1634   -1.4601   -0.6350 H   0  0  0  0  0  0  0  0  0  0  0  0
    0.4430   -1.9647   -0.7512 H   0  0  0  0  0  0  0  0  0  0  0  0
    1.3245   -1.9758    0.8740 H   0  0  0  0  0  0  0  0  0  0  0  0
  1  2  1  0
  2  3  2  0
  3  4  1  0
  4  5  1  0
  5  6  1  0
  5  7  1  0
  7  8  1  0
  8  9  1  0
  9  2  1  0
  7  4  1  0
  1 10  1  0
  1 11  1  0
  1 12  1  0
  3 13  1  0
  4 14  1  0
  5 15  1  0
  6 16  1  0
  7 17  1  0
  9 18  1  0
  9 19  1  0
M  END
