
     RDKit          3D

 19 20  0  0  0  0  0  0  0  0999 V2000
    2.3951   -0.6507    0.2084 C   0  0  0  0  0  0  0  0  0  0  0  0
    1.0559   -0.1332   -0.1135 C   0  0  0  0  0  0  0  0  0  0  0  0
    0.7369    1.0896    0.2663 C   0  0  0  0  0  0  0  0  0  0  0  0
   -0.7064    1.4909    0.2644 C   0  0  0  0  0  0  0  0  0  0  0  0
   -1.5499    0.4429   -0.3886 C   0  0  0  0  0  0  0  0  0  0  0  0
   -1.7637   -0.7827    0.4348 C   0  0  0  0  0  0  0  0  0  0  0  0
   -0.7300   -1.6349    0.0412 O   0  0  0  0  0  0  0  0  0  0  0  0
    0.0523   -0.9265   -0.8451 C   0  0  0  0  0  0  0  0  0  0  0  0
   -0.8513   -0.0513   -1.4903 O   0  0  0  0  0  0  0  0  0  0  0  0
    3.0443   -0.6739   -0.7047 H   0  0  0  0  0  0  0  0  0  0  0  0
    2.3028   -1.6557    0.6640 H   0  0  0  0  0  0  0  0  0  0  0  0
    2.9083   -0.0039    0.9512 H   0  0  0  0  0  0  0  0  0  0  0  0
    1.4876    1.8109    0.5791 H   0  0  0  0  0  0  0  0  0  0  0  0
   -0.7700    2.4084   -0.3618 H   0  0  0  0  0  0  0  0  0  0  0  0
   -1.0547    1.7655    1.2785 H   0  0  0  0  0  0  0  0  0  0  0  0
   -2.4962    0.9127   -0.7321 H   0  0  0  0  0  0  0  0  0  0  0  0
   -2.7307   -1.2471    0.0826 H   0  0  0  0  0  0  0  0  0  0  0  0
   -1.8247   -0.6194    1.5050 H   0  0  0  0  0  0  0  0  0  0  0  0
    0.4943   -1.5418   -1.6397 H   0  0  0  0  0  0  0  0  0  0  0  0
  1  2  1  0
  2  3  2  0
  3  4  1  0
  4  5  1  0
  5  6  1  0
  6  7  1  0
  7  8  1  0
  8  9  1  0
  8  2  1  0
  9  5  1  0
  1 10  1  0
  1 11  1  0
  1 12  1  0
  3 13  1  0
  4 14  1  0
  4 15  1  0
  5 16  1  0
  6 17  1  0
  6 18  1  0
  8 19  1  0
M  END
