
     RDKit          3D

 17 18  0  0  0  0  0  0  0  0999 V2000
    2.4473    0.4193    0.5646 C   0  0  0  0  0  0  0  0  0  0  0  0
    1.0276    0.0089    0.4586 C   0  0  0  0  0  0  0  0  0  0  0  0
    0.5685   -1.0959   -0.1496 C   0  0  0  0  0  0  0  0  0  0  0  0
   -0.8946   -1.1773   -0.0571 C   0  0  0  0  0  0  0  0  0  0  0  0
   -1.5968   -0.6887   -1.1548 O   0  0  0  0  0  0  0  0  0  0  0  0
   -1.9803    0.4718   -0.5352 C   0  0  0  0  0  0  0  0  0  0  0  0
   -1.3263    0.0424    0.7308 C   0  0  0  0  0  0  0  0  0  0  0  0
   -0.0905    0.7558    1.0071 C   0  0  0  0  0  0  0  0  0  0  0  0
    0.0223    1.8393    1.6163 O   0  0  0  0  0  0  0  0  0  0  0  0
    3.0009    0.2641   -0.3949 H   0  0  0  0  0  0  0  0  0  0  0  0
    2.9948   -0.1622    1.3443 H   0  0  0  0  0  0  0  0  0  0  0  0
    2.5182    1.4918    0.7979 H   0  0  0  0  0  0  0  0  0  0  0  0
    1.1882   -1.8305   -0.6428 H   0  0  0  0  0  0  0  0  0  0  0  0
   -1.2969   -2.1245    0.3244 H   0  0  0  0  0  0  0  0  0  0  0  0
   -3.0668    0.6225   -0.3834 H   0  0  0  0  0  0  0  0  0  0  0  0
   -1.5260    1.3555   -1.0316 H   0  0  0  0  0  0  0  0  0  0  0  0
   -1.9897   -0.1924    1.5829 H   0  0  0  0  0  0  0  0  0  0  0  0
  1  2  1  0
  2  3  2  0
  3  4  1  0
  4  5  1  0
  5  6  1  0
  6  7  1  0
  7  8  1  0
  8  9  2  0
  8  2  1  0
  7  4  1  0
  1 10  1  0
  1 11  1  0
  1 12  1  0
  3 13  1  0
  4 14  1  0
  6 15  1  0
  6 16  1  0
  7 17  1  0
M  END
