
     RDKit          3D

 19 20  0  0  0  0  0  0  0  0999 V2000
   -2.4912   -1.2138   -0.3079 C   0  0  0  0  0  0  0  0  0  0  0  0
   -1.2273   -0.5392    0.1348 C   0  0  0  0  0  0  0  0  0  0  0  0
   -0.0229   -0.6054   -0.3993 C   0  0  0  0  0  0  0  0  0  0  0  0
    0.8817    0.2225    0.3823 C   0  0  0  0  0  0  0  0  0  0  0  0
    1.3356    1.5138   -0.3608 C   0  0  0  0  0  0  0  0  0  0  0  0
    2.2824    0.4573    0.0820 C   0  0  0  0  0  0  0  0  0  0  0  0
    2.8691   -0.2902   -0.9246 O   0  0  0  0  0  0  0  0  0  0  0  0
    0.2727    0.4181    1.5903 O   0  0  0  0  0  0  0  0  0  0  0  0
   -1.1134    0.3658    1.3184 C   0  0  0  0  0  0  0  0  0  0  0  0
   -2.6003   -2.1625    0.2201 H   0  0  0  0  0  0  0  0  0  0  0  0
   -3.3157   -0.5119   -0.0721 H   0  0  0  0  0  0  0  0  0  0  0  0
   -2.5181   -1.3898   -1.3886 H   0  0  0  0  0  0  0  0  0  0  0  0
    0.2287   -1.1847   -1.2730 H   0  0  0  0  0  0  0  0  0  0  0  0
    1.0568    1.6223   -1.4066 H   0  0  0  0  0  0  0  0  0  0  0  0
    1.2316    2.4531    0.2446 H   0  0  0  0  0  0  0  0  0  0  0  0
    2.9602    0.7055    0.9323 H   0  0  0  0  0  0  0  0  0  0  0  0
    3.3498   -1.0835   -0.5399 H   0  0  0  0  0  0  0  0  0  0  0  0
   -1.6587   -0.1392    2.1531 H   0  0  0  0  0  0  0  0  0  0  0  0
   -1.5210    1.3619    1.0771 H   0  0  0  0  0  0  0  0  0  0  0  0
  1  2  1  0
  2  3  2  0
  3  4  1  0
  4  5  1  0
  5  6  1  0
  6  7  1  0
  4  8  1  0
  8  9  1  0
  9  2  1  0
  6  4  1  0
  1 10  1  0
  1 11  1  0
  1 12  1  0
  3 13  1  0
  5 14  1  0
  5 15  1  0
  6 16  1  0
  7 17  1  0
  9 18  1  0
  9 19  1  0
M  END
