
     RDKit          3D

 23 23  0  0  0  0  0  0  0  0999 V2000
    2.4541    1.0502   -0.0251 C   0  0  0  0  0  0  0  0  0  0  0  0
    1.3382    0.0570   -0.1249 C   0  0  0  0  0  0  0  0  0  0  0  0
    0.2986    0.3583   -0.8837 C   0  0  0  0  0  0  0  0  0  0  0  0
   -0.9253   -0.4676   -1.1362 C   0  0  0  0  0  0  0  0  0  0  0  0
   -1.6737   -0.5047    0.2052 C   0  0  0  0  0  0  0  0  0  0  0  0
   -2.2403    0.9133    0.3675 C   0  0  0  0  0  0  0  0  0  0  0  0
   -0.6550   -0.7511    1.3013 C   0  0  0  0  0  0  0  0  0  0  0  0
    0.2630   -1.7175    0.9892 O   0  0  0  0  0  0  0  0  0  0  0  0
    1.5223   -1.2010    0.6632 C   0  0  0  0  0  0  0  0  0  0  0  0
    3.3436    0.5175    0.3591 H   0  0  0  0  0  0  0  0  0  0  0  0
    2.1810    1.8082    0.7597 H   0  0  0  0  0  0  0  0  0  0  0  0
    2.6214    1.5981   -0.9493 H   0  0  0  0  0  0  0  0  0  0  0  0
    0.3526    1.3325   -1.3815 H   0  0  0  0  0  0  0  0  0  0  0  0
   -0.5822   -1.5156   -1.3639 H   0  0  0  0  0  0  0  0  0  0  0  0
   -1.5549   -0.0392   -1.9105 H   0  0  0  0  0  0  0  0  0  0  0  0
   -2.4601   -1.2596    0.1741 H   0  0  0  0  0  0  0  0  0  0  0  0
   -2.7344    1.0355    1.3347 H   0  0  0  0  0  0  0  0  0  0  0  0
   -1.3525    1.5868    0.3242 H   0  0  0  0  0  0  0  0  0  0  0  0
   -2.8800    1.1201   -0.5051 H   0  0  0  0  0  0  0  0  0  0  0  0
   -0.1992    0.2123    1.6476 H   0  0  0  0  0  0  0  0  0  0  0  0
   -1.2378   -1.1244    2.1893 H   0  0  0  0  0  0  0  0  0  0  0  0
    1.9527   -1.9433   -0.0712 H   0  0  0  0  0  0  0  0  0  0  0  0
    2.1679   -1.0658    1.5390 H   0  0  0  0  0  0  0  0  0  0  0  0
  1  2  1  0
  2  3  2  0
  3  4  1  0
  4  5  1  0
  5  6  1  0
  5  7  1  0
  7  8  1  0
  8  9  1  0
  9  2  1  0
  1 10  1  0
  1 11  1  0
  1 12  1  0
  3 13  1  0
  4 14  1  0
  4 15  1  0
  5 16  1  0
  6 17  1  0
  6 18  1  0
  6 19  1  0
  7 20  1  0
  7 21  1  0
  9 22  1  0
  9 23  1  0
M  END
