
     RDKit          3D

 21 22  0  0  0  0  0  0  0  0999 V2000
   -1.4254    1.8279   -0.3842 C   0  0  0  0  0  0  0  0  0  0  0  0
   -0.3476    0.8443   -0.1815 C   0  0  0  0  0  0  0  0  0  0  0  0
    0.8530    1.2514    0.1551 C   0  0  0  0  0  0  0  0  0  0  0  0
    1.9832    0.3202    0.3751 C   0  0  0  0  0  0  0  0  0  0  0  0
    1.8310   -0.9781   -0.3303 C   0  0  0  0  0  0  0  0  0  0  0  0
    1.2369   -1.9939    0.4770 O   0  0  0  0  0  0  0  0  0  0  0  0
    0.5258   -1.4520   -0.6155 C   0  0  0  0  0  0  0  0  0  0  0  0
   -0.6560   -0.5977   -0.3664 C   0  0  0  0  0  0  0  0  0  0  0  0
   -1.5130   -1.0679    0.7939 C   0  0  0  0  0  0  0  0  0  0  0  0
   -1.0632    2.8112   -0.7241 H   0  0  0  0  0  0  0  0  0  0  0  0
   -1.9390    1.9639    0.5899 H   0  0  0  0  0  0  0  0  0  0  0  0
   -2.1223    1.4469   -1.1566 H   0  0  0  0  0  0  0  0  0  0  0  0
    1.0336    2.3091    0.2793 H   0  0  0  0  0  0  0  0  0  0  0  0
    2.0855    0.1708    1.4810 H   0  0  0  0  0  0  0  0  0  0  0  0
    2.9081    0.8329   -0.0223 H   0  0  0  0  0  0  0  0  0  0  0  0
    2.6895   -1.3267   -0.9766 H   0  0  0  0  0  0  0  0  0  0  0  0
    0.4133   -2.2230   -1.4295 H   0  0  0  0  0  0  0  0  0  0  0  0
   -1.3343   -0.6303   -1.2673 H   0  0  0  0  0  0  0  0  0  0  0  0
   -2.5982   -0.9754    0.5675 H   0  0  0  0  0  0  0  0  0  0  0  0
   -1.2253   -2.1050    1.0405 H   0  0  0  0  0  0  0  0  0  0  0  0
   -1.3354   -0.4287    1.6951 H   0  0  0  0  0  0  0  0  0  0  0  0
  1  2  1  0
  2  3  2  0
  3  4  1  0
  4  5  1  0
  5  6  1  0
  6  7  1  0
  7  8  1  0
  8  9  1  0
  8  2  1  0
  7  5  1  0
  1 10  1  0
  1 11  1  0
  1 12  1  0
  3 13  1  0
  4 14  1  0
  4 15  1  0
  5 16  1  0
  7 17  1  0
  8 18  1  0
  9 19  1  0
  9 20  1  0
  9 21  1  0
M  END
