
     RDKit          3D

 21 21  0  0  0  0  0  0  0  0999 V2000
   -2.6404    0.6455    0.1742 C   0  0  0  0  0  0  0  0  0  0  0  0
   -1.2615    0.2062   -0.1488 C   0  0  0  0  0  0  0  0  0  0  0  0
   -1.0847   -1.1059   -0.0672 C   0  0  0  0  0  0  0  0  0  0  0  0
    0.1101   -1.9106   -0.3055 C   0  0  0  0  0  0  0  0  0  0  0  0
    1.3009   -1.3524    0.0576 O   0  0  0  0  0  0  0  0  0  0  0  0
    1.3597   -0.0094    0.1869 C   0  0  0  0  0  0  0  0  0  0  0  0
    2.8240    0.3880    0.3756 C   0  0  0  0  0  0  0  0  0  0  0  0
    0.8914    0.7144   -0.8987 O   0  0  0  0  0  0  0  0  0  0  0  0
   -0.3041    1.3051   -0.5110 C   0  0  0  0  0  0  0  0  0  0  0  0
   -2.9362    1.5545   -0.3907 H   0  0  0  0  0  0  0  0  0  0  0  0
   -2.7706    0.8487    1.2570 H   0  0  0  0  0  0  0  0  0  0  0  0
   -3.3703   -0.1646   -0.0965 H   0  0  0  0  0  0  0  0  0  0  0  0
   -1.9700   -1.6616    0.2210 H   0  0  0  0  0  0  0  0  0  0  0  0
    0.2094   -2.2309   -1.3816 H   0  0  0  0  0  0  0  0  0  0  0  0
    0.0016   -2.8608    0.2592 H   0  0  0  0  0  0  0  0  0  0  0  0
    0.8413    0.2823    1.1432 H   0  0  0  0  0  0  0  0  0  0  0  0
    3.4786   -0.5181    0.4502 H   0  0  0  0  0  0  0  0  0  0  0  0
    2.9744    1.0180    1.2618 H   0  0  0  0  0  0  0  0  0  0  0  0
    3.2093    0.9553   -0.4969 H   0  0  0  0  0  0  0  0  0  0  0  0
   -0.1716    1.9803    0.3651 H   0  0  0  0  0  0  0  0  0  0  0  0
   -0.6915    1.9160   -1.3626 H   0  0  0  0  0  0  0  0  0  0  0  0
  1  2  1  0
  2  3  2  0
  3  4  1  0
  4  5  1  0
  5  6  1  0
  6  7  1  0
  6  8  1  0
  8  9  1  0
  9  2  1  0
  1 10  1  0
  1 11  1  0
  1 12  1  0
  3 13  1  0
  4 14  1  0
  4 15  1  0
  6 16  1  0
  7 17  1  0
  7 18  1  0
  7 19  1  0
  9 20  1  0
  9 21  1  0
M  END
