
     RDKit          3D

 23 23  0  0  0  0  0  0  0  0999 V2000
    2.1173    0.3288    1.0873 C   0  0  0  0  0  0  0  0  0  0  0  0
    0.9757    0.4537    0.1568 C   0  0  0  0  0  0  0  0  0  0  0  0
    0.8937    1.2906   -0.8464 C   0  0  0  0  0  0  0  0  0  0  0  0
   -0.4271    1.1187   -1.5626 C   0  0  0  0  0  0  0  0  0  0  0  0
   -1.2774    0.5716   -0.4022 C   0  0  0  0  0  0  0  0  0  0  0  0
   -2.3950   -0.0842   -0.8650 O   0  0  0  0  0  0  0  0  0  0  0  0
   -0.2480   -0.3545    0.2040 C   0  0  0  0  0  0  0  0  0  0  0  0
   -0.6305   -0.7552    1.6128 C   0  0  0  0  0  0  0  0  0  0  0  0
   -0.0231   -1.5671   -0.6743 C   0  0  0  0  0  0  0  0  0  0  0  0
    2.7855   -0.5273    0.8075 H   0  0  0  0  0  0  0  0  0  0  0  0
    1.7405    0.0851    2.1172 H   0  0  0  0  0  0  0  0  0  0  0  0
    2.6754    1.2780    1.1016 H   0  0  0  0  0  0  0  0  0  0  0  0
    1.6130    2.0365   -1.1943 H   0  0  0  0  0  0  0  0  0  0  0  0
   -0.8305    2.0624   -1.9203 H   0  0  0  0  0  0  0  0  0  0  0  0
   -0.3761    0.3083   -2.3035 H   0  0  0  0  0  0  0  0  0  0  0  0
   -1.4752    1.3980    0.2783 H   0  0  0  0  0  0  0  0  0  0  0  0
   -3.2370    0.4153   -0.6633 H   0  0  0  0  0  0  0  0  0  0  0  0
    0.2296   -1.2844    2.0673 H   0  0  0  0  0  0  0  0  0  0  0  0
   -1.5109   -1.4204    1.5242 H   0  0  0  0  0  0  0  0  0  0  0  0
   -0.8471    0.1680    2.1656 H   0  0  0  0  0  0  0  0  0  0  0  0
    0.5328   -2.3071   -0.0683 H   0  0  0  0  0  0  0  0  0  0  0  0
    0.6513   -1.2562   -1.4981 H   0  0  0  0  0  0  0  0  0  0  0  0
   -0.9368   -1.9585   -1.1244 H   0  0  0  0  0  0  0  0  0  0  0  0
  1  2  1  0
  2  3  2  0
  3  4  1  0
  4  5  1  0
  5  6  1  0
  5  7  1  0
  7  8  1  0
  7  9  1  0
  7  2  1  0
  1 10  1  0
  1 11  1  0
  1 12  1  0
  3 13  1  0
  4 14  1  0
  4 15  1  0
  5 16  1  0
  6 17  1  0
  8 18  1  0
  8 19  1  0
  8 20  1  0
  9 21  1  0
  9 22  1  0
  9 23  1  0
M  END
