
     RDKit          3D

 21 22  0  0  0  0  0  0  0  0999 V2000
   -2.0114    1.6549   -0.0665 C   0  0  0  0  0  0  0  0  0  0  0  0
   -1.0859    0.5009    0.0969 C   0  0  0  0  0  0  0  0  0  0  0  0
    0.2233    0.5525    0.0115 C   0  0  0  0  0  0  0  0  0  0  0  0
    1.6641    0.8879   -0.1352 C   0  0  0  0  0  0  0  0  0  0  0  0
    2.3110    0.8172    1.0800 O   0  0  0  0  0  0  0  0  0  0  0  0
    1.7511   -0.5164   -0.7875 C   0  0  0  0  0  0  0  0  0  0  0  0
    0.7465   -0.8558    0.2863 C   0  0  0  0  0  0  0  0  0  0  0  0
   -0.4114   -1.7399   -0.1013 C   0  0  0  0  0  0  0  0  0  0  0  0
   -1.5890   -0.8919    0.3654 C   0  0  0  0  0  0  0  0  0  0  0  0
   -3.0211    1.3457   -0.3890 H   0  0  0  0  0  0  0  0  0  0  0  0
   -2.1409    2.2187    0.8817 H   0  0  0  0  0  0  0  0  0  0  0  0
   -1.6348    2.3778   -0.8092 H   0  0  0  0  0  0  0  0  0  0  0  0
    1.9140    1.7042   -0.8046 H   0  0  0  0  0  0  0  0  0  0  0  0
    3.2186    1.1579    1.0932 H   0  0  0  0  0  0  0  0  0  0  0  0
    1.2932   -0.4669   -1.7876 H   0  0  0  0  0  0  0  0  0  0  0  0
    2.7346   -0.9788   -0.7060 H   0  0  0  0  0  0  0  0  0  0  0  0
    1.1573   -0.9869    1.2856 H   0  0  0  0  0  0  0  0  0  0  0  0
   -0.4608   -1.9797   -1.1641 H   0  0  0  0  0  0  0  0  0  0  0  0
   -0.3871   -2.6183    0.5762 H   0  0  0  0  0  0  0  0  0  0  0  0
   -2.4249   -1.1283   -0.3338 H   0  0  0  0  0  0  0  0  0  0  0  0
   -1.8464   -1.0547    1.4080 H   0  0  0  0  0  0  0  0  0  0  0  0
  1  2  1  0
  2  3  2  0
  3  4  1  0
  4  5  1  0
  4  6  1  0
  6  7  1  0
  7  8  1  0
  8  9  1  0
  9  2  1  0
  7  3  1  0
  1 10  1  0
  1 11  1  0
  1 12  1  0
  4 13  1  0
  5 14  1  0
  6 15  1  0
  6 16  1  0
  7 17  1  0
  8 18  1  0
  8 19  1  0
  9 20  1  0
  9 21  1  0
M  END
