
     RDKit          3D

 20 20  0  0  0  0  0  0  0  0999 V2000
   -2.8089   -0.3251    0.3933 C   0  0  0  0  0  0  0  0  0  0  0  0
   -1.3621   -0.2854    0.1794 C   0  0  0  0  0  0  0  0  0  0  0  0
   -0.5364   -1.3305    0.2665 C   0  0  0  0  0  0  0  0  0  0  0  0
    0.8936   -1.0714    0.0119 C   0  0  0  0  0  0  0  0  0  0  0  0
    1.3177    0.2256    0.6314 C   0  0  0  0  0  0  0  0  0  0  0  0
    2.4838    0.8619   -0.0933 C   0  0  0  0  0  0  0  0  0  0  0  0
    0.3297    1.1618    0.7819 O   0  0  0  0  0  0  0  0  0  0  0  0
   -0.6877    1.0136   -0.1703 C   0  0  0  0  0  0  0  0  0  0  0  0
   -3.2946    0.2785   -0.4260 H   0  0  0  0  0  0  0  0  0  0  0  0
   -3.0959    0.2140    1.3367 H   0  0  0  0  0  0  0  0  0  0  0  0
   -3.2361   -1.3278    0.3368 H   0  0  0  0  0  0  0  0  0  0  0  0
   -0.9630   -2.2918    0.5157 H   0  0  0  0  0  0  0  0  0  0  0  0
    1.0424   -1.0568   -1.1077 H   0  0  0  0  0  0  0  0  0  0  0  0
    1.5082   -1.9171    0.3770 H   0  0  0  0  0  0  0  0  0  0  0  0
    1.6877   -0.0255    1.6690 H   0  0  0  0  0  0  0  0  0  0  0  0
    3.2080    1.2792    0.6360 H   0  0  0  0  0  0  0  0  0  0  0  0
    2.9684    0.1650   -0.8017 H   0  0  0  0  0  0  0  0  0  0  0  0
    2.1040    1.7445   -0.6699 H   0  0  0  0  0  0  0  0  0  0  0  0
   -0.1874    0.8308   -1.1594 H   0  0  0  0  0  0  0  0  0  0  0  0
   -1.3715    1.8565   -0.1931 H   0  0  0  0  0  0  0  0  0  0  0  0
  1  2  1  0
  2  3  2  0
  3  4  1  0
  4  5  1  0
  5  6  1  0
  5  7  1  0
  7  8  1  0
  8  2  1  0
  1  9  1  0
  1 10  1  0
  1 11  1  0
  3 12  1  0
  4 13  1  0
  4 14  1  0
  5 15  1  0
  6 16  1  0
  6 17  1  0
  6 18  1  0
  8 19  1  0
  8 20  1  0
M  END
