
     RDKit          3D

 19 19  0  0  0  0  0  0  0  0999 V2000
    2.5791   -0.5876    0.0142 C   0  0  0  0  0  0  0  0  0  0  0  0
    1.1595   -0.1813   -0.1083 C   0  0  0  0  0  0  0  0  0  0  0  0
    0.2334   -1.1179   -0.0359 C   0  0  0  0  0  0  0  0  0  0  0  0
   -1.2377   -1.0791   -0.1152 C   0  0  0  0  0  0  0  0  0  0  0  0
   -1.6564   -1.0132   -1.4661 O   0  0  0  0  0  0  0  0  0  0  0  0
   -1.8655    0.0650    0.5861 C   0  0  0  0  0  0  0  0  0  0  0  0
   -1.4490    1.3176    0.6523 C   0  0  0  0  0  0  0  0  0  0  0  0
   -0.2500    1.8762    0.0388 C   0  0  0  0  0  0  0  0  0  0  0  0
    0.8904    1.2484   -0.2994 C   0  0  0  0  0  0  0  0  0  0  0  0
    3.2133   -0.1922   -0.8016 H   0  0  0  0  0  0  0  0  0  0  0  0
    2.9419   -0.1572    0.9863 H   0  0  0  0  0  0  0  0  0  0  0  0
    2.6366   -1.6742    0.1212 H   0  0  0  0  0  0  0  0  0  0  0  0
    0.6545   -2.1249    0.1135 H   0  0  0  0  0  0  0  0  0  0  0  0
   -1.6621   -2.0049    0.3203 H   0  0  0  0  0  0  0  0  0  0  0  0
   -2.6388   -0.9664   -1.4728 H   0  0  0  0  0  0  0  0  0  0  0  0
   -2.8123   -0.1577    1.1285 H   0  0  0  0  0  0  0  0  0  0  0  0
   -2.0881    1.9873    1.2346 H   0  0  0  0  0  0  0  0  0  0  0  0
   -0.3139    2.9302   -0.1557 H   0  0  0  0  0  0  0  0  0  0  0  0
    1.6650    1.8320   -0.7409 H   0  0  0  0  0  0  0  0  0  0  0  0
  1  2  1  0
  2  3  2  0
  3  4  1  0
  4  5  1  0
  4  6  1  0
  6  7  2  0
  7  8  1  0
  8  9  2  0
  9  2  1  0
  1 10  1  0
  1 11  1  0
  1 12  1  0
  3 13  1  0
  4 14  1  0
  5 15  1  0
  6 16  1  0
  7 17  1  0
  8 18  1  0
  9 19  1  0
M  END
