
     RDKit          3D

 21 21  0  0  0  0  0  0  0  0999 V2000
   -1.8173    1.0227    0.8758 C   0  0  0  0  0  0  0  0  0  0  0  0
   -0.5495    0.6215    0.2207 C   0  0  0  0  0  0  0  0  0  0  0  0
    0.4923    1.4633    0.1134 C   0  0  0  0  0  0  0  0  0  0  0  0
    1.6112    0.7711   -0.5892 C   0  0  0  0  0  0  0  0  0  0  0  0
    2.8452    1.1883   -0.1696 O   0  0  0  0  0  0  0  0  0  0  0  0
    1.3174   -0.6816   -0.2266 C   0  0  0  0  0  0  0  0  0  0  0  0
   -0.1937   -0.6847   -0.4025 C   0  0  0  0  0  0  0  0  0  0  0  0
   -0.8504   -1.8525    0.2422 C   0  0  0  0  0  0  0  0  0  0  0  0
   -0.4897   -0.6230   -1.7651 O   0  0  0  0  0  0  0  0  0  0  0  0
   -2.6626    0.4453    0.4653 H   0  0  0  0  0  0  0  0  0  0  0  0
   -1.7468    0.9602    1.9881 H   0  0  0  0  0  0  0  0  0  0  0  0
   -2.0467    2.1008    0.6272 H   0  0  0  0  0  0  0  0  0  0  0  0
    0.5759    2.4891    0.4574 H   0  0  0  0  0  0  0  0  0  0  0  0
    1.5026    0.8525   -1.6880 H   0  0  0  0  0  0  0  0  0  0  0  0
    3.1315    0.8025    0.6720 H   0  0  0  0  0  0  0  0  0  0  0  0
    1.8182   -1.3928   -0.8939 H   0  0  0  0  0  0  0  0  0  0  0  0
    1.5038   -0.8628    0.8482 H   0  0  0  0  0  0  0  0  0  0  0  0
   -0.8418   -2.6981   -0.4888 H   0  0  0  0  0  0  0  0  0  0  0  0
   -1.9261   -1.6205    0.4078 H   0  0  0  0  0  0  0  0  0  0  0  0
   -0.3307   -2.1693    1.1684 H   0  0  0  0  0  0  0  0  0  0  0  0
   -1.3427   -0.1322   -1.8628 H   0  0  0  0  0  0  0  0  0  0  0  0
  1  2  1  0
  2  3  2  0
  3  4  1  0
  4  5  1  0
  4  6  1  0
  6  7  1  0
  7  8  1  0
  7  9  1  0
  7  2  1  0
  1 10  1  0
  1 11  1  0
  1 12  1  0
  3 13  1  0
  4 14  1  0
  5 15  1  0
  6 16  1  0
  6 17  1  0
  8 18  1  0
  8 19  1  0
  8 20  1  0
  9 21  1  0
M  END
