
     RDKit          3D

 25 25  0  0  0  0  0  0  0  0999 V2000
    1.7847   -1.9276    0.2454 C   0  0  0  0  0  0  0  0  0  0  0  0
    1.1212   -0.6039    0.4008 C   0  0  0  0  0  0  0  0  0  0  0  0
    1.5525    0.4831    1.0188 C   0  0  0  0  0  0  0  0  0  0  0  0
    0.5331    1.5808    0.9104 C   0  0  0  0  0  0  0  0  0  0  0  0
   -0.0686    1.1702   -0.4409 C   0  0  0  0  0  0  0  0  0  0  0  0
   -1.3103    1.8753   -0.7714 C   0  0  0  0  0  0  0  0  0  0  0  0
   -0.2245   -0.3044   -0.1511 C   0  0  0  0  0  0  0  0  0  0  0  0
   -0.5407   -1.1018   -1.3851 C   0  0  0  0  0  0  0  0  0  0  0  0
   -1.2242   -0.5501    0.9594 C   0  0  0  0  0  0  0  0  0  0  0  0
    2.0727   -2.1251   -0.8235 H   0  0  0  0  0  0  0  0  0  0  0  0
    1.0356   -2.7387    0.4767 H   0  0  0  0  0  0  0  0  0  0  0  0
    2.6888   -2.0274    0.8610 H   0  0  0  0  0  0  0  0  0  0  0  0
    2.4990    0.5668    1.5261 H   0  0  0  0  0  0  0  0  0  0  0  0
    0.9743    2.5727    0.8741 H   0  0  0  0  0  0  0  0  0  0  0  0
   -0.2004    1.4560    1.7276 H   0  0  0  0  0  0  0  0  0  0  0  0
    0.7222    1.3015   -1.1830 H   0  0  0  0  0  0  0  0  0  0  0  0
   -1.3424    2.8766   -0.2928 H   0  0  0  0  0  0  0  0  0  0  0  0
   -2.2533    1.3415   -0.5737 H   0  0  0  0  0  0  0  0  0  0  0  0
   -1.3194    2.0843   -1.8814 H   0  0  0  0  0  0  0  0  0  0  0  0
   -0.7046   -0.4586   -2.2858 H   0  0  0  0  0  0  0  0  0  0  0  0
   -1.5096   -1.6293   -1.2253 H   0  0  0  0  0  0  0  0  0  0  0  0
    0.2164   -1.8477   -1.6480 H   0  0  0  0  0  0  0  0  0  0  0  0
   -0.7369   -0.8769    1.9063 H   0  0  0  0  0  0  0  0  0  0  0  0
   -1.8965    0.2911    1.1382 H   0  0  0  0  0  0  0  0  0  0  0  0
   -1.8693   -1.4083    0.6170 H   0  0  0  0  0  0  0  0  0  0  0  0
  1  2  1  0
  2  3  2  0
  3  4  1  0
  4  5  1  0
  5  6  1  0
  5  7  1  0
  7  8  1  0
  7  9  1  0
  7  2  1  0
  1 10  1  0
  1 11  1  0
  1 12  1  0
  3 13  1  0
  4 14  1  0
  4 15  1  0
  5 16  1  0
  6 17  1  0
  6 18  1  0
  6 19  1  0
  8 20  1  0
  8 21  1  0
  8 22  1  0
  9 23  1  0
  9 24  1  0
  9 25  1  0
M  END
