
     RDKit          3D

 17 18  0  0  0  0  0  0  0  0999 V2000
    2.2728   -0.0350   -0.2254 C   0  0  0  0  0  0  0  0  0  0  0  0
    0.7973    0.2653   -0.0814 C   0  0  0  0  0  0  0  0  0  0  0  0
    0.2845    1.3171    0.5098 C   0  0  0  0  0  0  0  0  0  0  0  0
   -1.1711    1.3316    0.4907 C   0  0  0  0  0  0  0  0  0  0  0  0
   -1.9773    2.0503    1.1429 O   0  0  0  0  0  0  0  0  0  0  0  0
   -1.5319    0.2662   -0.5108 C   0  0  0  0  0  0  0  0  0  0  0  0
   -2.2301   -0.7599    0.1312 O   0  0  0  0  0  0  0  0  0  0  0  0
   -1.0162   -1.4156    0.4354 C   0  0  0  0  0  0  0  0  0  0  0  0
   -0.3057   -0.5858   -0.5881 C   0  0  0  0  0  0  0  0  0  0  0  0
    2.6024   -0.5039    0.7114 H   0  0  0  0  0  0  0  0  0  0  0  0
    2.4135   -0.7170   -1.0933 H   0  0  0  0  0  0  0  0  0  0  0  0
    2.8387    0.8939   -0.4673 H   0  0  0  0  0  0  0  0  0  0  0  0
    0.8731    2.1064    0.9718 H   0  0  0  0  0  0  0  0  0  0  0  0
   -1.9596    0.6353   -1.4439 H   0  0  0  0  0  0  0  0  0  0  0  0
   -0.6687   -1.2864    1.4645 H   0  0  0  0  0  0  0  0  0  0  0  0
   -1.1104   -2.4849    0.1103 H   0  0  0  0  0  0  0  0  0  0  0  0
   -0.1115   -1.0777   -1.5578 H   0  0  0  0  0  0  0  0  0  0  0  0
  1  2  1  0
  2  3  2  0
  3  4  1  0
  4  5  2  0
  4  6  1  0
  6  7  1  0
  7  8  1  0
  8  9  1  0
  9  2  1  0
  9  6  1  0
  1 10  1  0
  1 11  1  0
  1 12  1  0
  3 13  1  0
  6 14  1  0
  8 15  1  0
  8 16  1  0
  9 17  1  0
M  END
