
     RDKit          3D

 23 23  0  0  0  0  0  0  0  0999 V2000
   -0.0521    2.5613   -0.0128 C   0  0  0  0  0  0  0  0  0  0  0  0
   -0.2795    1.0746    0.1011 C   0  0  0  0  0  0  0  0  0  0  0  0
   -1.4025    0.6198    0.6515 C   0  0  0  0  0  0  0  0  0  0  0  0
   -1.6378   -0.8610    0.7693 C   0  0  0  0  0  0  0  0  0  0  0  0
   -1.2269   -1.4674   -0.5514 C   0  0  0  0  0  0  0  0  0  0  0  0
    0.1504   -1.1250   -0.9814 C   0  0  0  0  0  0  0  0  0  0  0  0
    0.7339    0.1092   -0.3926 C   0  0  0  0  0  0  0  0  0  0  0  0
    1.7232   -0.1953    0.7149 C   0  0  0  0  0  0  0  0  0  0  0  0
    2.6961   -1.1003    0.2956 O   0  0  0  0  0  0  0  0  0  0  0  0
   -0.4739    3.0471    0.8881 H   0  0  0  0  0  0  0  0  0  0  0  0
   -0.5345    2.9092   -0.9514 H   0  0  0  0  0  0  0  0  0  0  0  0
    1.0360    2.7329   -0.1311 H   0  0  0  0  0  0  0  0  0  0  0  0
   -2.1125    1.3548    0.9976 H   0  0  0  0  0  0  0  0  0  0  0  0
   -2.7262   -1.0505    0.8809 H   0  0  0  0  0  0  0  0  0  0  0  0
   -1.0893   -1.3122    1.5986 H   0  0  0  0  0  0  0  0  0  0  0  0
   -1.3049   -2.5698   -0.4363 H   0  0  0  0  0  0  0  0  0  0  0  0
   -1.9936   -1.2103   -1.3398 H   0  0  0  0  0  0  0  0  0  0  0  0
    0.1510   -1.0972   -2.1110 H   0  0  0  0  0  0  0  0  0  0  0  0
    0.8470   -1.9723   -0.7382 H   0  0  0  0  0  0  0  0  0  0  0  0
    1.3268    0.6251   -1.1977 H   0  0  0  0  0  0  0  0  0  0  0  0
    1.2197   -0.6597    1.5907 H   0  0  0  0  0  0  0  0  0  0  0  0
    2.2485    0.7001    1.0665 H   0  0  0  0  0  0  0  0  0  0  0  0
    2.7010   -1.1132   -0.7114 H   0  0  0  0  0  0  0  0  0  0  0  0
  1  2  1  0
  2  3  2  0
  3  4  1  0
  4  5  1  0
  5  6  1  0
  6  7  1  0
  7  8  1  0
  8  9  1  0
  7  2  1  0
  1 10  1  0
  1 11  1  0
  1 12  1  0
  3 13  1  0
  4 14  1  0
  4 15  1  0
  5 16  1  0
  5 17  1  0
  6 18  1  0
  6 19  1  0
  7 20  1  0
  8 21  1  0
  8 22  1  0
  9 23  1  0
M  END
