
     RDKit          3D

 17 18  0  0  0  0  0  0  0  0999 V2000
    2.3568    0.2915    0.1050 C   0  0  0  0  0  0  0  0  0  0  0  0
    0.8832    0.0186    0.1222 C   0  0  0  0  0  0  0  0  0  0  0  0
    0.0320    0.8064    0.7592 C   0  0  0  0  0  0  0  0  0  0  0  0
   -1.3474    0.3190    0.6215 C   0  0  0  0  0  0  0  0  0  0  0  0
   -2.1196    0.8405   -0.5071 C   0  0  0  0  0  0  0  0  0  0  0  0
   -2.7233    1.9174   -0.7179 O   0  0  0  0  0  0  0  0  0  0  0  0
   -1.9414   -0.3015   -1.2720 O   0  0  0  0  0  0  0  0  0  0  0  0
   -1.2510   -0.9155   -0.1995 C   0  0  0  0  0  0  0  0  0  0  0  0
    0.1914   -1.1176   -0.5384 C   0  0  0  0  0  0  0  0  0  0  0  0
    2.8234    0.1081    1.0810 H   0  0  0  0  0  0  0  0  0  0  0  0
    2.5813    1.3428   -0.1667 H   0  0  0  0  0  0  0  0  0  0  0  0
    2.8425   -0.3344   -0.6750 H   0  0  0  0  0  0  0  0  0  0  0  0
    0.3098    1.7180    1.3265 H   0  0  0  0  0  0  0  0  0  0  0  0
   -1.8886    0.2407    1.5866 H   0  0  0  0  0  0  0  0  0  0  0  0
   -1.7539   -1.8138    0.2158 H   0  0  0  0  0  0  0  0  0  0  0  0
    0.4041   -1.0611   -1.6260 H   0  0  0  0  0  0  0  0  0  0  0  0
    0.6007   -2.0591   -0.1153 H   0  0  0  0  0  0  0  0  0  0  0  0
  1  2  1  0
  2  3  2  0
  3  4  1  0
  4  5  1  0
  5  6  2  0
  5  7  1  0
  7  8  1  0
  8  9  1  0
  9  2  1  0
  8  4  1  0
  1 10  1  0
  1 11  1  0
  1 12  1  0
  3 13  1  0
  4 14  1  0
  8 15  1  0
  9 16  1  0
  9 17  1  0
M  END
