
     RDKit          3D

 19 20  0  0  0  0  0  0  0  0999 V2000
    2.6188    0.2206   -0.0955 C   0  0  0  0  0  0  0  0  0  0  0  0
    1.1387    0.0395   -0.2321 C   0  0  0  0  0  0  0  0  0  0  0  0
    0.3442    1.0319   -0.6032 C   0  0  0  0  0  0  0  0  0  0  0  0
   -1.0482    0.7032   -0.6897 C   0  0  0  0  0  0  0  0  0  0  0  0
   -2.1885    0.9509    0.1007 C   0  0  0  0  0  0  0  0  0  0  0  0
   -1.3343    0.0095    0.6975 C   0  0  0  0  0  0  0  0  0  0  0  0
   -0.9217   -1.3847    0.3968 C   0  0  0  0  0  0  0  0  0  0  0  0
    0.5289   -1.2831    0.0603 C   0  0  0  0  0  0  0  0  0  0  0  0
    1.2512   -2.2930    0.0180 O   0  0  0  0  0  0  0  0  0  0  0  0
    2.8197    0.1104    1.0088 H   0  0  0  0  0  0  0  0  0  0  0  0
    3.1824   -0.5550   -0.6197 H   0  0  0  0  0  0  0  0  0  0  0  0
    2.8684    1.2471   -0.3507 H   0  0  0  0  0  0  0  0  0  0  0  0
    0.7492    1.9826   -0.8113 H   0  0  0  0  0  0  0  0  0  0  0  0
   -1.2292    0.0584   -1.6087 H   0  0  0  0  0  0  0  0  0  0  0  0
   -2.2995    1.9599    0.5802 H   0  0  0  0  0  0  0  0  0  0  0  0
   -3.1911    0.6270   -0.2711 H   0  0  0  0  0  0  0  0  0  0  0  0
   -0.6997    0.3826    1.5619 H   0  0  0  0  0  0  0  0  0  0  0  0
   -1.0817   -2.0014    1.3072 H   0  0  0  0  0  0  0  0  0  0  0  0
   -1.5076   -1.8063   -0.4495 H   0  0  0  0  0  0  0  0  0  0  0  0
  1  2  1  0
  2  3  2  0
  3  4  1  0
  4  5  1  0
  5  6  1  0
  6  7  1  0
  7  8  1  0
  8  9  2  0
  8  2  1  0
  6  4  1  0
  1 10  1  0
  1 11  1  0
  1 12  1  0
  3 13  1  0
  4 14  1  0
  5 15  1  0
  5 16  1  0
  6 17  1  0
  7 18  1  0
  7 19  1  0
M  END
