
     RDKit          3D

 19 21  0  0  0  0  0  0  0  0999 V2000
   -2.5655    0.1358   -0.3737 C   0  0  0  0  0  0  0  0  0  0  0  0
   -1.1320   -0.1125   -0.0133 C   0  0  0  0  0  0  0  0  0  0  0  0
   -0.4486   -1.1821   -0.3900 C   0  0  0  0  0  0  0  0  0  0  0  0
    0.9516   -1.1051    0.1461 C   0  0  0  0  0  0  0  0  0  0  0  0
    1.7710   -0.5220   -0.9119 C   0  0  0  0  0  0  0  0  0  0  0  0
    1.8153    0.7899   -0.7295 C   0  0  0  0  0  0  0  0  0  0  0  0
    1.0472    1.2198    0.4472 C   0  0  0  0  0  0  0  0  0  0  0  0
   -0.2957    0.7766    0.7962 C   0  0  0  0  0  0  0  0  0  0  0  0
    0.8525   -0.0614    1.1950 C   0  0  0  0  0  0  0  0  0  0  0  0
   -2.8772   -0.5140   -1.2074 H   0  0  0  0  0  0  0  0  0  0  0  0
   -2.7309    1.1806   -0.6908 H   0  0  0  0  0  0  0  0  0  0  0  0
   -3.2451   -0.1021    0.4921 H   0  0  0  0  0  0  0  0  0  0  0  0
   -0.8656   -1.9781   -0.9952 H   0  0  0  0  0  0  0  0  0  0  0  0
    1.3069   -2.0881    0.4971 H   0  0  0  0  0  0  0  0  0  0  0  0
    2.2411   -1.1175   -1.6930 H   0  0  0  0  0  0  0  0  0  0  0  0
    2.3681    1.4457   -1.3956 H   0  0  0  0  0  0  0  0  0  0  0  0
    1.4817    2.0340    1.0672 H   0  0  0  0  0  0  0  0  0  0  0  0
   -0.8529    1.3999    1.5391 H   0  0  0  0  0  0  0  0  0  0  0  0
    1.1781   -0.1994    2.2204 H   0  0  0  0  0  0  0  0  0  0  0  0
  1  2  1  0
  2  3  2  0
  3  4  1  0
  4  5  1  0
  5  6  2  0
  6  7  1  0
  7  8  1  0
  8  9  1  0
  8  2  1  0
  9  4  1  0
  9  7  1  0
  1 10  1  0
  1 11  1  0
  1 12  1  0
  3 13  1  0
  4 14  1  0
  5 15  1  0
  6 16  1  0
  7 17  1  0
  8 18  1  0
  9 19  1  0
M  END
