
     RDKit          3D

 21 21  0  0  0  0  0  0  0  0999 V2000
   -1.2699    1.6428   -0.2160 C   0  0  0  0  0  0  0  0  0  0  0  0
   -0.1731    0.6675    0.0712 C   0  0  0  0  0  0  0  0  0  0  0  0
   -0.2821   -0.6423   -0.0917 C   0  0  0  0  0  0  0  0  0  0  0  0
   -1.5186   -1.3477   -0.5857 C   0  0  0  0  0  0  0  0  0  0  0  0
   -2.0008   -2.2527    0.3414 O   0  0  0  0  0  0  0  0  0  0  0  0
    1.0113   -1.3360    0.2688 C   0  0  0  0  0  0  0  0  0  0  0  0
    1.9939   -0.1740   -0.0030 C   0  0  0  0  0  0  0  0  0  0  0  0
    1.1879    0.9350    0.5859 C   0  0  0  0  0  0  0  0  0  0  0  0
    1.6470    2.1986    0.2846 O   0  0  0  0  0  0  0  0  0  0  0  0
   -1.6354    1.5652   -1.2626 H   0  0  0  0  0  0  0  0  0  0  0  0
   -2.1280    1.3741    0.4298 H   0  0  0  0  0  0  0  0  0  0  0  0
   -0.9415    2.6625   -0.0277 H   0  0  0  0  0  0  0  0  0  0  0  0
   -2.2882   -0.6198   -0.8662 H   0  0  0  0  0  0  0  0  0  0  0  0
   -1.2425   -1.9291   -1.4924 H   0  0  0  0  0  0  0  0  0  0  0  0
   -2.3755   -1.7423    1.1113 H   0  0  0  0  0  0  0  0  0  0  0  0
    1.0344   -1.6327    1.3301 H   0  0  0  0  0  0  0  0  0  0  0  0
    1.2157   -2.1916   -0.3949 H   0  0  0  0  0  0  0  0  0  0  0  0
    2.9272   -0.3796    0.5500 H   0  0  0  0  0  0  0  0  0  0  0  0
    2.1366   -0.0975   -1.0952 H   0  0  0  0  0  0  0  0  0  0  0  0
    1.2214    0.8142    1.6908 H   0  0  0  0  0  0  0  0  0  0  0  0
    1.4802    2.4854   -0.6285 H   0  0  0  0  0  0  0  0  0  0  0  0
  1  2  1  0
  2  3  2  0
  3  4  1  0
  4  5  1  0
  3  6  1  0
  6  7  1  0
  7  8  1  0
  8  9  1  0
  8  2  1  0
  1 10  1  0
  1 11  1  0
  1 12  1  0
  4 13  1  0
  4 14  1  0
  5 15  1  0
  6 16  1  0
  6 17  1  0
  7 18  1  0
  7 19  1  0
  8 20  1  0
  9 21  1  0
M  END
