
     RDKit          3D

 19 20  0  0  0  0  0  0  0  0999 V2000
    2.4584    0.0452    0.0547 C   0  0  0  0  0  0  0  0  0  0  0  0
    0.9899    0.0216    0.2681 C   0  0  0  0  0  0  0  0  0  0  0  0
    0.3146    0.0753    1.4171 C   0  0  0  0  0  0  0  0  0  0  0  0
   -1.0939   -0.0252    0.9857 C   0  0  0  0  0  0  0  0  0  0  0  0
   -1.0111   -1.0941   -0.0864 C   0  0  0  0  0  0  0  0  0  0  0  0
   -0.0791   -0.0673   -0.7456 C   0  0  0  0  0  0  0  0  0  0  0  0
    0.1538   -0.1328   -2.0313 O   0  0  0  0  0  0  0  0  0  0  0  0
   -1.0760    0.9572   -0.1969 C   0  0  0  0  0  0  0  0  0  0  0  0
   -2.2891    0.9911   -0.8212 O   0  0  0  0  0  0  0  0  0  0  0  0
    2.9279    0.9654    0.5091 H   0  0  0  0  0  0  0  0  0  0  0  0
    2.9728   -0.8160    0.5212 H   0  0  0  0  0  0  0  0  0  0  0  0
    2.6741    0.0935   -1.0179 H   0  0  0  0  0  0  0  0  0  0  0  0
    0.6407    0.1682    2.4432 H   0  0  0  0  0  0  0  0  0  0  0  0
   -1.8931    0.0032    1.6564 H   0  0  0  0  0  0  0  0  0  0  0  0
   -1.9308   -1.1710   -0.7102 H   0  0  0  0  0  0  0  0  0  0  0  0
   -0.5169   -2.0213    0.1895 H   0  0  0  0  0  0  0  0  0  0  0  0
    0.3523   -1.0570   -2.3393 H   0  0  0  0  0  0  0  0  0  0  0  0
   -0.5993    1.9184    0.0378 H   0  0  0  0  0  0  0  0  0  0  0  0
   -2.9950    1.1455   -0.1339 H   0  0  0  0  0  0  0  0  0  0  0  0
  1  2  1  0
  2  3  2  0
  3  4  1  0
  4  5  1  0
  5  6  1  0
  6  7  1  0
  6  8  1  0
  8  9  1  0
  6  2  1  0
  8  4  1  0
  1 10  1  0
  1 11  1  0
  1 12  1  0
  3 13  1  0
  4 14  1  0
  5 15  1  0
  5 16  1  0
  7 17  1  0
  8 18  1  0
  9 19  1  0
M  END
