
     RDKit          3D

 21 22  0  0  0  0  0  0  0  0999 V2000
    2.6092    0.1701    0.0617 C   0  0  0  0  0  0  0  0  0  0  0  0
    1.1235    0.0013   -0.0788 C   0  0  0  0  0  0  0  0  0  0  0  0
    0.3593    1.0947   -0.1186 C   0  0  0  0  0  0  0  0  0  0  0  0
   -1.1019    0.8674    0.0392 C   0  0  0  0  0  0  0  0  0  0  0  0
   -1.8931    1.9664    0.1615 O   0  0  0  0  0  0  0  0  0  0  0  0
   -1.2641   -0.2134    1.0923 C   0  0  0  0  0  0  0  0  0  0  0  0
   -0.9897   -1.2180   -0.0082 C   0  0  0  0  0  0  0  0  0  0  0  0
    0.4932   -1.3478   -0.1735 C   0  0  0  0  0  0  0  0  0  0  0  0
   -1.5037   -0.1617   -0.9933 C   0  0  0  0  0  0  0  0  0  0  0  0
    2.8369    0.6922    1.0332 H   0  0  0  0  0  0  0  0  0  0  0  0
    2.9216    0.8701   -0.7299 H   0  0  0  0  0  0  0  0  0  0  0  0
    3.1192   -0.7932    0.0038 H   0  0  0  0  0  0  0  0  0  0  0  0
    0.7519    2.0966   -0.2559 H   0  0  0  0  0  0  0  0  0  0  0  0
   -1.3182    2.7729    0.1992 H   0  0  0  0  0  0  0  0  0  0  0  0
   -2.2649   -0.2641    1.5428 H   0  0  0  0  0  0  0  0  0  0  0  0
   -0.4457   -0.1849    1.8426 H   0  0  0  0  0  0  0  0  0  0  0  0
   -1.5687   -2.1335    0.0248 H   0  0  0  0  0  0  0  0  0  0  0  0
    0.8728   -2.0405    0.6011 H   0  0  0  0  0  0  0  0  0  0  0  0
    0.6965   -1.8265   -1.1499 H   0  0  0  0  0  0  0  0  0  0  0  0
   -0.8555   -0.1342   -1.8995 H   0  0  0  0  0  0  0  0  0  0  0  0
   -2.5785   -0.2138   -1.1944 H   0  0  0  0  0  0  0  0  0  0  0  0
  1  2  1  0
  2  3  2  0
  3  4  1  0
  4  5  1  0
  4  6  1  0
  6  7  1  0
  7  8  1  0
  7  9  1  0
  8  2  1  0
  9  4  1  0
  1 10  1  0
  1 11  1  0
  1 12  1  0
  3 13  1  0
  5 14  1  0
  6 15  1  0
  6 16  1  0
  7 17  1  0
  8 18  1  0
  8 19  1  0
  9 20  1  0
  9 21  1  0
M  END
