
     RDKit          3D

 23 24  0  0  0  0  0  0  0  0999 V2000
    2.6054   -0.8069   -0.3149 C   0  0  0  0  0  0  0  0  0  0  0  0
    1.1199   -0.7423   -0.3413 C   0  0  0  0  0  0  0  0  0  0  0  0
    0.3550   -1.8208   -0.2080 C   0  0  0  0  0  0  0  0  0  0  0  0
   -1.0829   -1.4371   -0.2760 C   0  0  0  0  0  0  0  0  0  0  0  0
   -1.0505    0.0293    0.0270 C   0  0  0  0  0  0  0  0  0  0  0  0
   -2.2769    0.8075   -0.2049 C   0  0  0  0  0  0  0  0  0  0  0  0
   -1.6898    0.6409    1.1786 C   0  0  0  0  0  0  0  0  0  0  0  0
    0.2896    0.4598   -0.5100 C   0  0  0  0  0  0  0  0  0  0  0  0
    0.8540    1.6412    0.2462 C   0  0  0  0  0  0  0  0  0  0  0  0
    3.0574   -0.0244   -0.9445 H   0  0  0  0  0  0  0  0  0  0  0  0
    2.9650   -0.6151    0.7284 H   0  0  0  0  0  0  0  0  0  0  0  0
    2.9746   -1.8343   -0.5648 H   0  0  0  0  0  0  0  0  0  0  0  0
    0.6856   -2.8443   -0.0688 H   0  0  0  0  0  0  0  0  0  0  0  0
   -1.7273   -2.0296    0.3765 H   0  0  0  0  0  0  0  0  0  0  0  0
   -1.3636   -1.5304   -1.3668 H   0  0  0  0  0  0  0  0  0  0  0  0
   -2.1497    1.7847   -0.7237 H   0  0  0  0  0  0  0  0  0  0  0  0
   -3.2544    0.2717   -0.3416 H   0  0  0  0  0  0  0  0  0  0  0  0
   -1.2112    1.5629    1.6151 H   0  0  0  0  0  0  0  0  0  0  0  0
   -2.2652    0.0822    1.9371 H   0  0  0  0  0  0  0  0  0  0  0  0
    0.1256    0.7266   -1.5833 H   0  0  0  0  0  0  0  0  0  0  0  0
    0.2897    2.5516    0.0198 H   0  0  0  0  0  0  0  0  0  0  0  0
    1.9377    1.7310   -0.0037 H   0  0  0  0  0  0  0  0  0  0  0  0
    0.8120    1.3957    1.3235 H   0  0  0  0  0  0  0  0  0  0  0  0
  1  2  1  0
  2  3  2  0
  3  4  1  0
  4  5  1  0
  5  6  1  0
  6  7  1  0
  5  8  1  0
  8  9  1  0
  8  2  1  0
  7  5  1  0
  1 10  1  0
  1 11  1  0
  1 12  1  0
  3 13  1  0
  4 14  1  0
  4 15  1  0
  6 16  1  0
  6 17  1  0
  7 18  1  0
  7 19  1  0
  8 20  1  0
  9 21  1  0
  9 22  1  0
  9 23  1  0
M  END
