
     RDKit          3D

 21 21  0  0  0  0  0  0  0  0999 V2000
    2.7885   -0.2333   -0.0659 C   0  0  0  0  0  0  0  0  0  0  0  0
    1.3039   -0.1381   -0.1185 C   0  0  0  0  0  0  0  0  0  0  0  0
    0.6457   -1.2707    0.0524 C   0  0  0  0  0  0  0  0  0  0  0  0
   -0.6794   -1.8602    0.1168 C   0  0  0  0  0  0  0  0  0  0  0  0
   -1.8266   -0.9899   -0.0689 C   0  0  0  0  0  0  0  0  0  0  0  0
   -2.1748    0.2812    0.0781 C   0  0  0  0  0  0  0  0  0  0  0  0
   -1.5638    1.5230    0.5214 C   0  0  0  0  0  0  0  0  0  0  0  0
   -0.2929    1.8694   -0.1070 C   0  0  0  0  0  0  0  0  0  0  0  0
    0.8205    1.2250   -0.3556 C   0  0  0  0  0  0  0  0  0  0  0  0
    3.0963   -0.9149    0.7766 H   0  0  0  0  0  0  0  0  0  0  0  0
    3.1865   -0.6344   -1.0242 H   0  0  0  0  0  0  0  0  0  0  0  0
    3.1862    0.7836    0.0631 H   0  0  0  0  0  0  0  0  0  0  0  0
    1.3968   -2.0657    0.2026 H   0  0  0  0  0  0  0  0  0  0  0  0
   -0.8060   -2.7498   -0.5694 H   0  0  0  0  0  0  0  0  0  0  0  0
   -0.7875   -2.3293    1.1421 H   0  0  0  0  0  0  0  0  0  0  0  0
   -2.6710   -1.5566   -0.4456 H   0  0  0  0  0  0  0  0  0  0  0  0
   -3.2044    0.4201   -0.2171 H   0  0  0  0  0  0  0  0  0  0  0  0
   -1.4601    1.5474    1.6497 H   0  0  0  0  0  0  0  0  0  0  0  0
   -2.2796    2.3606    0.3136 H   0  0  0  0  0  0  0  0  0  0  0  0
   -0.2383    2.8881   -0.4530 H   0  0  0  0  0  0  0  0  0  0  0  0
    1.5601    1.8448   -0.8538 H   0  0  0  0  0  0  0  0  0  0  0  0
  1  2  1  0
  2  3  2  3
  3  4  1  0
  4  5  1  0
  5  6  2  3
  6  7  1  0
  7  8  1  0
  8  9  2  3
  9  2  1  0
  1 10  1  0
  1 11  1  0
  1 12  1  0
  3 13  1  0
  4 14  1  0
  4 15  1  0
  5 16  1  0
  6 17  1  0
  7 18  1  0
  7 19  1  0
  8 20  1  0
  9 21  1  0
M  END
