
     RDKit          3D

 19 20  0  0  0  0  0  0  0  0999 V2000
   -2.1096    1.2570    0.1801 C   0  0  0  0  0  0  0  0  0  0  0  0
   -1.1526    0.1424    0.0998 C   0  0  0  0  0  0  0  0  0  0  0  0
    0.1200    0.2527   -0.2292 C   0  0  0  0  0  0  0  0  0  0  0  0
    1.2876    1.0695   -0.6315 C   0  0  0  0  0  0  0  0  0  0  0  0
    2.4042    0.3304    0.0700 C   0  0  0  0  0  0  0  0  0  0  0  0
    2.0200   -0.9223    0.3334 C   0  0  0  0  0  0  0  0  0  0  0  0
    0.6538   -1.1601   -0.1425 C   0  0  0  0  0  0  0  0  0  0  0  0
   -0.1869   -1.7552    0.8144 O   0  0  0  0  0  0  0  0  0  0  0  0
   -1.4148   -1.2875    0.3547 C   0  0  0  0  0  0  0  0  0  0  0  0
   -2.6419    1.2891    1.1739 H   0  0  0  0  0  0  0  0  0  0  0  0
   -2.8891    1.2260   -0.6126 H   0  0  0  0  0  0  0  0  0  0  0  0
   -1.6002    2.2383    0.0768 H   0  0  0  0  0  0  0  0  0  0  0  0
    1.5002    0.9537   -1.7135 H   0  0  0  0  0  0  0  0  0  0  0  0
    1.2322    2.1120   -0.3046 H   0  0  0  0  0  0  0  0  0  0  0  0
    3.3629    0.7760    0.3106 H   0  0  0  0  0  0  0  0  0  0  0  0
    2.7043   -1.6221    0.8460 H   0  0  0  0  0  0  0  0  0  0  0  0
    0.5664   -1.6078   -1.1333 H   0  0  0  0  0  0  0  0  0  0  0  0
   -1.6432   -1.8390   -0.6019 H   0  0  0  0  0  0  0  0  0  0  0  0
   -2.2134   -1.4534    1.1094 H   0  0  0  0  0  0  0  0  0  0  0  0
  1  2  1  0
  2  3  2  0
  3  4  1  0
  4  5  1  0
  5  6  2  0
  6  7  1  0
  7  8  1  0
  8  9  1  0
  9  2  1  0
  7  3  1  0
  1 10  1  0
  1 11  1  0
  1 12  1  0
  4 13  1  0
  4 14  1  0
  5 15  1  0
  6 16  1  0
  7 17  1  0
  9 18  1  0
  9 19  1  0
M  END
