
     RDKit          3D

 21 21  0  0  0  0  0  0  0  0999 V2000
    2.5387   -0.4242    0.3483 C   0  0  0  0  0  0  0  0  0  0  0  0
    1.1154   -0.1302    0.0222 C   0  0  0  0  0  0  0  0  0  0  0  0
    0.3061   -1.1688    0.1564 C   0  0  0  0  0  0  0  0  0  0  0  0
   -1.0840   -1.5509    0.0153 C   0  0  0  0  0  0  0  0  0  0  0  0
   -2.0901   -0.4505    0.0769 C   0  0  0  0  0  0  0  0  0  0  0  0
   -2.0152    0.4587   -0.9451 O   0  0  0  0  0  0  0  0  0  0  0  0
   -1.2743    1.5665   -0.4951 C   0  0  0  0  0  0  0  0  0  0  0  0
   -0.0885    1.5050   -1.2473 O   0  0  0  0  0  0  0  0  0  0  0  0
    0.9434    1.2669   -0.3781 C   0  0  0  0  0  0  0  0  0  0  0  0
    2.6362   -1.1689    1.1723 H   0  0  0  0  0  0  0  0  0  0  0  0
    3.1219   -0.7128   -0.5461 H   0  0  0  0  0  0  0  0  0  0  0  0
    3.0305    0.5072    0.7399 H   0  0  0  0  0  0  0  0  0  0  0  0
    0.8999   -2.0326    0.4889 H   0  0  0  0  0  0  0  0  0  0  0  0
   -1.3389   -2.2695    0.8312 H   0  0  0  0  0  0  0  0  0  0  0  0
   -1.2646   -2.1304   -0.9373 H   0  0  0  0  0  0  0  0  0  0  0  0
   -3.0987   -0.9314   -0.0023 H   0  0  0  0  0  0  0  0  0  0  0  0
   -2.0757    0.0425    1.0778 H   0  0  0  0  0  0  0  0  0  0  0  0
   -1.8123    2.5216   -0.6738 H   0  0  0  0  0  0  0  0  0  0  0  0
   -1.0745    1.5157    0.5937 H   0  0  0  0  0  0  0  0  0  0  0  0
    1.8704    1.7089   -0.8489 H   0  0  0  0  0  0  0  0  0  0  0  0
    0.7544    1.8771    0.5511 H   0  0  0  0  0  0  0  0  0  0  0  0
  1  2  1  0
  2  3  2  3
  3  4  1  0
  4  5  1  0
  5  6  1  0
  6  7  1  0
  7  8  1  0
  8  9  1  0
  9  2  1  0
  1 10  1  0
  1 11  1  0
  1 12  1  0
  3 13  1  0
  4 14  1  0
  4 15  1  0
  5 16  1  0
  5 17  1  0
  7 18  1  0
  7 19  1  0
  9 20  1  0
  9 21  1  0
M  END
