
     RDKit          3D

 16 17  0  0  0  0  0  0  0  0999 V2000
    1.9793   -0.5034    0.1531 C   0  0  0  0  0  0  0  0  0  0  0  0
    0.5326   -0.2289   -0.0319 C   0  0  0  0  0  0  0  0  0  0  0  0
   -0.3382   -0.9514   -0.7133 C   0  0  0  0  0  0  0  0  0  0  0  0
   -1.6150   -0.3072   -0.6257 C   0  0  0  0  0  0  0  0  0  0  0  0
   -2.5864   -0.1820    0.2211 O   0  0  0  0  0  0  0  0  0  0  0  0
   -1.4932    0.1025    0.8612 C   0  0  0  0  0  0  0  0  0  0  0  0
   -0.2676    0.9228    0.5713 C   0  0  0  0  0  0  0  0  0  0  0  0
   -0.4301    1.9647   -0.2831 O   0  0  0  0  0  0  0  0  0  0  0  0
    2.3896   -0.8349   -0.8223 H   0  0  0  0  0  0  0  0  0  0  0  0
    2.0815   -1.3486    0.8679 H   0  0  0  0  0  0  0  0  0  0  0  0
    2.5086    0.3859    0.5238 H   0  0  0  0  0  0  0  0  0  0  0  0
   -0.1089   -1.8709   -1.2418 H   0  0  0  0  0  0  0  0  0  0  0  0
   -1.6352    0.5588   -1.3726 H   0  0  0  0  0  0  0  0  0  0  0  0
   -1.1839   -0.7466    1.5547 H   0  0  0  0  0  0  0  0  0  0  0  0
    0.2100    1.2113    1.5002 H   0  0  0  0  0  0  0  0  0  0  0  0
   -0.0429    1.8280   -1.1627 H   0  0  0  0  0  0  0  0  0  0  0  0
  1  2  1  0
  2  3  2  0
  3  4  1  0
  4  5  1  0
  5  6  1  0
  6  7  1  0
  7  8  1  0
  7  2  1  0
  6  4  1  0
  1  9  1  0
  1 10  1  0
  1 11  1  0
  3 12  1  0
  4 13  1  0
  6 14  1  0
  7 15  1  0
  8 16  1  0
M  END
