
     RDKit          3D

 23 24  0  0  0  0  0  0  0  0999 V2000
    2.7160    0.9788    0.5190 C   0  0  0  0  0  0  0  0  0  0  0  0
    1.4665    0.2246    0.2007 C   0  0  0  0  0  0  0  0  0  0  0  0
    1.5689   -1.0233   -0.1625 C   0  0  0  0  0  0  0  0  0  0  0  0
    0.4195   -1.8731   -0.5017 C   0  0  0  0  0  0  0  0  0  0  0  0
   -0.8924   -1.2231   -0.5151 C   0  0  0  0  0  0  0  0  0  0  0  0
   -1.0150    0.1508   -0.0180 C   0  0  0  0  0  0  0  0  0  0  0  0
   -2.3247    0.5020    0.7241 C   0  0  0  0  0  0  0  0  0  0  0  0
   -2.1665    0.9888   -0.6442 C   0  0  0  0  0  0  0  0  0  0  0  0
    0.1882    0.9100    0.3080 C   0  0  0  0  0  0  0  0  0  0  0  0
    2.5472    1.4767    1.4841 H   0  0  0  0  0  0  0  0  0  0  0  0
    3.5911    0.3080    0.6251 H   0  0  0  0  0  0  0  0  0  0  0  0
    2.8483    1.7619   -0.2486 H   0  0  0  0  0  0  0  0  0  0  0  0
    2.5587   -1.4849   -0.2252 H   0  0  0  0  0  0  0  0  0  0  0  0
    0.4606   -2.7613    0.1960 H   0  0  0  0  0  0  0  0  0  0  0  0
    0.6511   -2.3277   -1.5102 H   0  0  0  0  0  0  0  0  0  0  0  0
   -1.6079   -1.8746    0.0744 H   0  0  0  0  0  0  0  0  0  0  0  0
   -1.3288   -1.2578   -1.5587 H   0  0  0  0  0  0  0  0  0  0  0  0
   -2.2583    1.1798    1.5732 H   0  0  0  0  0  0  0  0  0  0  0  0
   -3.0318   -0.3532    0.8799 H   0  0  0  0  0  0  0  0  0  0  0  0
   -2.7472    0.5056   -1.4423 H   0  0  0  0  0  0  0  0  0  0  0  0
   -1.9828    2.0645   -0.7791 H   0  0  0  0  0  0  0  0  0  0  0  0
    0.0990    1.2972    1.3661 H   0  0  0  0  0  0  0  0  0  0  0  0
    0.2403    1.8301   -0.3448 H   0  0  0  0  0  0  0  0  0  0  0  0
  1  2  1  0
  2  3  2  0
  3  4  1  0
  4  5  1  0
  5  6  1  0
  6  7  1  0
  7  8  1  0
  6  9  1  0
  9  2  1  0
  8  6  1  0
  1 10  1  0
  1 11  1  0
  1 12  1  0
  3 13  1  0
  4 14  1  0
  4 15  1  0
  5 16  1  0
  5 17  1  0
  7 18  1  0
  7 19  1  0
  8 20  1  0
  8 21  1  0
  9 22  1  0
  9 23  1  0
M  END
