
     RDKit          3D

 16 17  0  0  0  0  0  0  0  0999 V2000
   -2.2012   -0.0459   -0.3325 C   0  0  0  0  0  0  0  0  0  0  0  0
   -0.7401   -0.2333   -0.1385 C   0  0  0  0  0  0  0  0  0  0  0  0
   -0.0261   -1.2268   -0.6973 C   0  0  0  0  0  0  0  0  0  0  0  0
    1.3533   -1.1239   -0.3112 C   0  0  0  0  0  0  0  0  0  0  0  0
    2.3057   -1.7968   -0.6974 O   0  0  0  0  0  0  0  0  0  0  0  0
    1.4269   -0.0253    0.6686 C   0  0  0  0  0  0  0  0  0  0  0  0
    1.2888    1.3357    0.1220 C   0  0  0  0  0  0  0  0  0  0  0  0
    0.1071    0.6435    0.6859 C   0  0  0  0  0  0  0  0  0  0  0  0
   -2.4115    0.8476   -0.9618 H   0  0  0  0  0  0  0  0  0  0  0  0
   -2.6552    0.1119    0.6895 H   0  0  0  0  0  0  0  0  0  0  0  0
   -2.6885   -0.9516   -0.7459 H   0  0  0  0  0  0  0  0  0  0  0  0
   -0.4681   -1.9771   -1.3410 H   0  0  0  0  0  0  0  0  0  0  0  0
    1.8987   -0.2130    1.6583 H   0  0  0  0  0  0  0  0  0  0  0  0
    1.6778    2.1878    0.7082 H   0  0  0  0  0  0  0  0  0  0  0  0
    1.4129    1.4864   -0.9756 H   0  0  0  0  0  0  0  0  0  0  0  0
   -0.2806    0.9808    1.6687 H   0  0  0  0  0  0  0  0  0  0  0  0
  1  2  1  0
  2  3  2  0
  3  4  1  0
  4  5  2  0
  4  6  1  0
  6  7  1  0
  7  8  1  0
  8  2  1  0
  8  6  1  0
  1  9  1  0
  1 10  1  0
  1 11  1  0
  3 12  1  0
  6 13  1  0
  7 14  1  0
  7 15  1  0
  8 16  1  0
M  END
