
     RDKit          3D

 20 20  0  0  0  0  0  0  0  0999 V2000
    2.1586    0.4955    0.2743 C   0  0  0  0  0  0  0  0  0  0  0  0
    0.8190   -0.1102    0.0809 C   0  0  0  0  0  0  0  0  0  0  0  0
   -0.3229    0.5618    0.0167 C   0  0  0  0  0  0  0  0  0  0  0  0
   -0.5167    2.0371    0.1207 C   0  0  0  0  0  0  0  0  0  0  0  0
   -1.4454   -0.3952   -0.1803 C   0  0  0  0  0  0  0  0  0  0  0  0
   -1.9364   -0.8947    1.0178 O   0  0  0  0  0  0  0  0  0  0  0  0
   -0.7329   -1.5317   -0.8817 C   0  0  0  0  0  0  0  0  0  0  0  0
    0.5711   -1.5677   -0.0714 C   0  0  0  0  0  0  0  0  0  0  0  0
    2.9753   -0.2205    0.2291 H   0  0  0  0  0  0  0  0  0  0  0  0
    2.1902    1.0492    1.2461 H   0  0  0  0  0  0  0  0  0  0  0  0
    2.3615    1.2538   -0.5379 H   0  0  0  0  0  0  0  0  0  0  0  0
   -1.4311    2.2761    0.7013 H   0  0  0  0  0  0  0  0  0  0  0  0
   -0.6688    2.5007   -0.8828 H   0  0  0  0  0  0  0  0  0  0  0  0
    0.3749    2.5396    0.5595 H   0  0  0  0  0  0  0  0  0  0  0  0
   -2.2387    0.0026   -0.8328 H   0  0  0  0  0  0  0  0  0  0  0  0
   -2.2041   -0.1673    1.6440 H   0  0  0  0  0  0  0  0  0  0  0  0
   -0.4385   -1.1944   -1.8922 H   0  0  0  0  0  0  0  0  0  0  0  0
   -1.2652   -2.4775   -0.8441 H   0  0  0  0  0  0  0  0  0  0  0  0
    0.4206   -2.0775    0.8926 H   0  0  0  0  0  0  0  0  0  0  0  0
    1.3295   -2.0799   -0.6598 H   0  0  0  0  0  0  0  0  0  0  0  0
  1  2  1  0
  2  3  2  0
  3  4  1  0
  3  5  1  0
  5  6  1  0
  5  7  1  0
  7  8  1  0
  8  2  1  0
  1  9  1  0
  1 10  1  0
  1 11  1  0
  4 12  1  0
  4 13  1  0
  4 14  1  0
  5 15  1  0
  6 16  1  0
  7 17  1  0
  7 18  1  0
  8 19  1  0
  8 20  1  0
M  END
