
     RDKit          3D

 21 22  0  0  0  0  0  0  0  0999 V2000
   -2.8395    0.3207    0.0944 C   0  0  0  0  0  0  0  0  0  0  0  0
   -1.3892    0.2847    0.3773 C   0  0  0  0  0  0  0  0  0  0  0  0
   -0.6146    1.2873   -0.0310 C   0  0  0  0  0  0  0  0  0  0  0  0
    0.8386    1.1780    0.2926 C   0  0  0  0  0  0  0  0  0  0  0  0
    1.3589   -0.1649   -0.1069 C   0  0  0  0  0  0  0  0  0  0  0  0
    0.5474   -1.2803    0.4581 C   0  0  0  0  0  0  0  0  0  0  0  0
   -0.7322   -0.8364    1.1105 C   0  0  0  0  0  0  0  0  0  0  0  0
    2.8600   -0.2724   -0.1653 C   0  0  0  0  0  0  0  0  0  0  0  0
    2.0426   -0.3245   -1.3125 O   0  0  0  0  0  0  0  0  0  0  0  0
   -3.1877    1.3718    0.0898 H   0  0  0  0  0  0  0  0  0  0  0  0
   -3.4129   -0.2065    0.8968 H   0  0  0  0  0  0  0  0  0  0  0  0
   -3.0601   -0.0937   -0.9176 H   0  0  0  0  0  0  0  0  0  0  0  0
   -1.0452    2.1180   -0.5640 H   0  0  0  0  0  0  0  0  0  0  0  0
    1.4404    1.9810   -0.1680 H   0  0  0  0  0  0  0  0  0  0  0  0
    0.9200    1.3145    1.3983 H   0  0  0  0  0  0  0  0  0  0  0  0
    1.1650   -1.7671    1.2605 H   0  0  0  0  0  0  0  0  0  0  0  0
    0.3325   -2.0626   -0.3245 H   0  0  0  0  0  0  0  0  0  0  0  0
   -1.4107   -1.7139    1.1449 H   0  0  0  0  0  0  0  0  0  0  0  0
   -0.5438   -0.5683    2.1821 H   0  0  0  0  0  0  0  0  0  0  0  0
    3.4780    0.6556   -0.0807 H   0  0  0  0  0  0  0  0  0  0  0  0
    3.2523   -1.2210    0.2370 H   0  0  0  0  0  0  0  0  0  0  0  0
  1  2  1  0
  2  3  2  0
  3  4  1  0
  4  5  1  0
  5  6  1  0
  6  7  1  0
  5  8  1  0
  8  9  1  0
  7  2  1  0
  9  5  1  0
  1 10  1  0
  1 11  1  0
  1 12  1  0
  3 13  1  0
  4 14  1  0
  4 15  1  0
  6 16  1  0
  6 17  1  0
  7 18  1  0
  7 19  1  0
  8 20  1  0
  8 21  1  0
M  END
