
     RDKit          3D

 17 18  0  0  0  0  0  0  0  0999 V2000
    2.4242   -0.1297   -0.0991 C   0  0  0  0  0  0  0  0  0  0  0  0
    0.9401   -0.1016   -0.1102 C   0  0  0  0  0  0  0  0  0  0  0  0
    0.2284   -1.2083   -0.2590 C   0  0  0  0  0  0  0  0  0  0  0  0
   -1.2553   -1.1853   -0.2709 C   0  0  0  0  0  0  0  0  0  0  0  0
   -1.8691   -0.3460   -1.2279 O   0  0  0  0  0  0  0  0  0  0  0  0
   -1.9218   -0.0681    0.1800 C   0  0  0  0  0  0  0  0  0  0  0  0
   -1.1820    1.1732    0.5358 C   0  0  0  0  0  0  0  0  0  0  0  0
    0.2189    1.1716    0.0457 C   0  0  0  0  0  0  0  0  0  0  0  0
    0.7788    2.2517   -0.2320 O   0  0  0  0  0  0  0  0  0  0  0  0
    2.8400    0.3836    0.7978 H   0  0  0  0  0  0  0  0  0  0  0  0
    2.8406    0.3161   -1.0232 H   0  0  0  0  0  0  0  0  0  0  0  0
    2.7658   -1.1798   -0.0329 H   0  0  0  0  0  0  0  0  0  0  0  0
    0.7712   -2.1371   -0.3726 H   0  0  0  0  0  0  0  0  0  0  0  0
   -1.7351   -2.1909   -0.2412 H   0  0  0  0  0  0  0  0  0  0  0  0
   -2.9383   -0.1288    0.6468 H   0  0  0  0  0  0  0  0  0  0  0  0
   -1.1779    1.3533    1.6283 H   0  0  0  0  0  0  0  0  0  0  0  0
   -1.7286    2.0263    0.0346 H   0  0  0  0  0  0  0  0  0  0  0  0
  1  2  1  0
  2  3  2  0
  3  4  1  0
  4  5  1  0
  5  6  1  0
  6  7  1  0
  7  8  1  0
  8  9  2  0
  8  2  1  0
  6  4  1  0
  1 10  1  0
  1 11  1  0
  1 12  1  0
  3 13  1  0
  4 14  1  0
  6 15  1  0
  7 16  1  0
  7 17  1  0
M  END
