
     RDKit          3D

 23 23  0  0  0  0  0  0  0  0999 V2000
    0.7084    2.1832   -0.0057 C   0  0  0  0  0  0  0  0  0  0  0  0
   -0.0209    0.9027   -0.0223 C   0  0  0  0  0  0  0  0  0  0  0  0
    0.6147   -0.2472   -0.2568 C   0  0  0  0  0  0  0  0  0  0  0  0
    2.1015   -0.2519   -0.5101 C   0  0  0  0  0  0  0  0  0  0  0  0
    2.7544   -1.0326    0.4593 O   0  0  0  0  0  0  0  0  0  0  0  0
   -0.0522   -1.5675   -0.2884 C   0  0  0  0  0  0  0  0  0  0  0  0
   -1.4887   -1.5421    0.0846 C   0  0  0  0  0  0  0  0  0  0  0  0
   -2.1964   -0.2745   -0.3177 C   0  0  0  0  0  0  0  0  0  0  0  0
   -1.4892    0.9198    0.2294 C   0  0  0  0  0  0  0  0  0  0  0  0
    1.2986    2.3613   -0.9268 H   0  0  0  0  0  0  0  0  0  0  0  0
    1.3400    2.2106    0.9121 H   0  0  0  0  0  0  0  0  0  0  0  0
    0.0136    3.0420    0.0815 H   0  0  0  0  0  0  0  0  0  0  0  0
    2.5147    0.7702   -0.5451 H   0  0  0  0  0  0  0  0  0  0  0  0
    2.3431   -0.7242   -1.4855 H   0  0  0  0  0  0  0  0  0  0  0  0
    3.7131   -0.7816    0.4576 H   0  0  0  0  0  0  0  0  0  0  0  0
    0.0498   -1.9509   -1.3408 H   0  0  0  0  0  0  0  0  0  0  0  0
    0.4619   -2.3177    0.3635 H   0  0  0  0  0  0  0  0  0  0  0  0
   -1.9987   -2.3778   -0.4646 H   0  0  0  0  0  0  0  0  0  0  0  0
   -1.6307   -1.7346    1.1542 H   0  0  0  0  0  0  0  0  0  0  0  0
   -3.2124   -0.3047    0.1275 H   0  0  0  0  0  0  0  0  0  0  0  0
   -2.2084   -0.2096   -1.4206 H   0  0  0  0  0  0  0  0  0  0  0  0
   -1.9021    1.8262   -0.2980 H   0  0  0  0  0  0  0  0  0  0  0  0
   -1.7142    1.1011    1.3079 H   0  0  0  0  0  0  0  0  0  0  0  0
  1  2  1  0
  2  3  2  0
  3  4  1  0
  4  5  1  0
  3  6  1  0
  6  7  1  0
  7  8  1  0
  8  9  1  0
  9  2  1  0
  1 10  1  0
  1 11  1  0
  1 12  1  0
  4 13  1  0
  4 14  1  0
  5 15  1  0
  6 16  1  0
  6 17  1  0
  7 18  1  0
  7 19  1  0
  8 20  1  0
  8 21  1  0
  9 22  1  0
  9 23  1  0
M  END
