
     RDKit          3D

 21 22  0  0  0  0  0  0  0  0999 V2000
    2.6734   -0.3041   -0.5036 C   0  0  0  0  0  0  0  0  0  0  0  0
    1.2480   -0.2521   -0.1069 C   0  0  0  0  0  0  0  0  0  0  0  0
    0.2177   -0.9176   -0.6302 C   0  0  0  0  0  0  0  0  0  0  0  0
   -0.9674   -0.4701    0.1389 C   0  0  0  0  0  0  0  0  0  0  0  0
   -2.1064   -1.3932    0.1443 C   0  0  0  0  0  0  0  0  0  0  0  0
   -1.2872    0.9526   -0.2521 C   0  0  0  0  0  0  0  0  0  0  0  0
   -0.1030    1.7047    0.3760 C   0  0  0  0  0  0  0  0  0  0  0  0
    0.6742    0.5743    0.9811 C   0  0  0  0  0  0  0  0  0  0  0  0
   -0.3852   -0.2625    1.4124 O   0  0  0  0  0  0  0  0  0  0  0  0
    3.3478   -0.5765    0.3293 H   0  0  0  0  0  0  0  0  0  0  0  0
    2.8202   -0.9933   -1.3599 H   0  0  0  0  0  0  0  0  0  0  0  0
    2.9397    0.7349   -0.8477 H   0  0  0  0  0  0  0  0  0  0  0  0
    0.3135   -1.6221   -1.4479 H   0  0  0  0  0  0  0  0  0  0  0  0
   -1.9945   -2.1886    0.9095 H   0  0  0  0  0  0  0  0  0  0  0  0
   -2.1835   -1.8960   -0.8453 H   0  0  0  0  0  0  0  0  0  0  0  0
   -3.0598   -0.8554    0.2978 H   0  0  0  0  0  0  0  0  0  0  0  0
   -2.2456    1.3067    0.1244 H   0  0  0  0  0  0  0  0  0  0  0  0
   -1.1940    1.0033   -1.3683 H   0  0  0  0  0  0  0  0  0  0  0  0
   -0.5157    2.3889    1.1448 H   0  0  0  0  0  0  0  0  0  0  0  0
    0.4507    2.2264   -0.4155 H   0  0  0  0  0  0  0  0  0  0  0  0
    1.3571    0.8395    1.7713 H   0  0  0  0  0  0  0  0  0  0  0  0
  1  2  1  0
  2  3  2  0
  3  4  1  0
  4  5  1  0
  4  6  1  0
  6  7  1  0
  7  8  1  0
  8  9  1  0
  8  2  1  0
  9  4  1  0
  1 10  1  0
  1 11  1  0
  1 12  1  0
  3 13  1  0
  5 14  1  0
  5 15  1  0
  5 16  1  0
  6 17  1  0
  6 18  1  0
  7 19  1  0
  7 20  1  0
  8 21  1  0
M  END
