
     RDKit          3D

 21 22  0  0  0  0  0  0  0  0999 V2000
    2.6056    0.2990    0.1042 C   0  0  0  0  0  0  0  0  0  0  0  0
    1.1818    0.4501   -0.3162 C   0  0  0  0  0  0  0  0  0  0  0  0
    0.3975    1.5058   -0.2822 C   0  0  0  0  0  0  0  0  0  0  0  0
   -0.9497    1.0686   -0.6925 C   0  0  0  0  0  0  0  0  0  0  0  0
   -1.6611    0.5445    0.5501 C   0  0  0  0  0  0  0  0  0  0  0  0
   -1.6728   -0.9583    0.5298 C   0  0  0  0  0  0  0  0  0  0  0  0
   -0.3125   -1.4761    0.2033 C   0  0  0  0  0  0  0  0  0  0  0  0
    0.3511   -0.6656   -0.8903 C   0  0  0  0  0  0  0  0  0  0  0  0
   -0.6545    0.0220   -1.5755 O   0  0  0  0  0  0  0  0  0  0  0  0
    2.8254    0.9562    0.9786 H   0  0  0  0  0  0  0  0  0  0  0  0
    3.2350    0.6337   -0.7200 H   0  0  0  0  0  0  0  0  0  0  0  0
    2.7851   -0.7478    0.4092 H   0  0  0  0  0  0  0  0  0  0  0  0
    0.6960    2.4911   -0.0062 H   0  0  0  0  0  0  0  0  0  0  0  0
   -1.5440    1.8639   -1.1695 H   0  0  0  0  0  0  0  0  0  0  0  0
   -1.1155    0.8540    1.4860 H   0  0  0  0  0  0  0  0  0  0  0  0
   -2.6726    0.9803    0.6414 H   0  0  0  0  0  0  0  0  0  0  0  0
   -2.4253   -1.3117   -0.2132 H   0  0  0  0  0  0  0  0  0  0  0  0
   -1.9678   -1.2995    1.5439 H   0  0  0  0  0  0  0  0  0  0  0  0
   -0.4327   -2.5400   -0.1296 H   0  0  0  0  0  0  0  0  0  0  0  0
    0.3438   -1.4010    1.0974 H   0  0  0  0  0  0  0  0  0  0  0  0
    0.9871   -1.2693   -1.5488 H   0  0  0  0  0  0  0  0  0  0  0  0
  1  2  1  0
  2  3  2  0
  3  4  1  0
  4  5  1  0
  5  6  1  0
  6  7  1  0
  7  8  1  0
  8  9  1  0
  8  2  1  0
  9  4  1  0
  1 10  1  0
  1 11  1  0
  1 12  1  0
  3 13  1  0
  4 14  1  0
  5 15  1  0
  5 16  1  0
  6 17  1  0
  6 18  1  0
  7 19  1  0
  7 20  1  0
  8 21  1  0
M  END
