
     RDKit          3D

 18 19  0  0  0  0  0  0  0  0999 V2000
    1.7344   -1.2601    0.0367 C   0  0  0  0  0  0  0  0  0  0  0  0
    0.8779   -0.0485    0.0591 C   0  0  0  0  0  0  0  0  0  0  0  0
    1.1448    1.2194    0.3855 C   0  0  0  0  0  0  0  0  0  0  0  0
   -0.1939    1.8582    0.0863 C   0  0  0  0  0  0  0  0  0  0  0  0
   -1.1452    0.9417    0.7779 C   0  0  0  0  0  0  0  0  0  0  0  0
   -0.5683    0.0395   -0.2999 C   0  0  0  0  0  0  0  0  0  0  0  0
   -1.2882   -1.1185   -0.7398 C   0  0  0  0  0  0  0  0  0  0  0  0
   -0.5491    1.2023   -1.1062 O   0  0  0  0  0  0  0  0  0  0  0  0
    1.4629   -1.9251   -0.8354 H   0  0  0  0  0  0  0  0  0  0  0  0
    1.6181   -1.8833    0.9576 H   0  0  0  0  0  0  0  0  0  0  0  0
    2.8063   -1.0215   -0.0908 H   0  0  0  0  0  0  0  0  0  0  0  0
    2.0520    1.6810    0.7593 H   0  0  0  0  0  0  0  0  0  0  0  0
   -0.2753    2.9050    0.1469 H   0  0  0  0  0  0  0  0  0  0  0  0
   -2.1938    1.2271    0.5571 H   0  0  0  0  0  0  0  0  0  0  0  0
   -0.9134    0.6609    1.8068 H   0  0  0  0  0  0  0  0  0  0  0  0
   -2.2973   -1.1779   -0.2383 H   0  0  0  0  0  0  0  0  0  0  0  0
   -1.4933   -1.2242   -1.8280 H   0  0  0  0  0  0  0  0  0  0  0  0
   -0.7783   -2.0761   -0.4346 H   0  0  0  0  0  0  0  0  0  0  0  0
  1  2  1  0
  2  3  2  0
  3  4  1  0
  4  5  1  0
  5  6  1  0
  6  7  1  0
  6  8  1  0
  6  2  1  0
  8  4  1  0
  1  9  1  0
  1 10  1  0
  1 11  1  0
  3 12  1  0
  4 13  1  0
  5 14  1  0
  5 15  1  0
  7 16  1  0
  7 17  1  0
  7 18  1  0
M  END
