
     RDKit          3D

 23 24  0  0  0  0  0  0  0  0999 V2000
   -3.0570    0.4048    0.8841 C   0  0  0  0  0  0  0  0  0  0  0  0
   -1.6655   -0.0218    0.4617 C   0  0  0  0  0  0  0  0  0  0  0  0
   -0.6120   -0.1345    1.2399 C   0  0  0  0  0  0  0  0  0  0  0  0
    0.6056   -0.5721    0.5370 C   0  0  0  0  0  0  0  0  0  0  0  0
    1.3917    0.5025   -0.1833 C   0  0  0  0  0  0  0  0  0  0  0  0
    2.8161    0.5148    0.3496 C   0  0  0  0  0  0  0  0  0  0  0  0
    1.2104   -0.3277   -1.4414 C   0  0  0  0  0  0  0  0  0  0  0  0
    0.0451   -1.0490   -0.7918 C   0  0  0  0  0  0  0  0  0  0  0  0
   -1.2776   -0.3797   -0.9205 C   0  0  0  0  0  0  0  0  0  0  0  0
   -3.5168    0.9069    0.0179 H   0  0  0  0  0  0  0  0  0  0  0  0
   -2.9444    1.0770    1.7530 H   0  0  0  0  0  0  0  0  0  0  0  0
   -3.6804   -0.4939    1.1053 H   0  0  0  0  0  0  0  0  0  0  0  0
   -0.6500    0.0807    2.3121 H   0  0  0  0  0  0  0  0  0  0  0  0
    1.2095   -1.3547    1.0110 H   0  0  0  0  0  0  0  0  0  0  0  0
    0.9434    1.4982   -0.2104 H   0  0  0  0  0  0  0  0  0  0  0  0
    2.7596    0.3426    1.4551 H   0  0  0  0  0  0  0  0  0  0  0  0
    3.2961    1.5066    0.2229 H   0  0  0  0  0  0  0  0  0  0  0  0
    3.4114   -0.3121   -0.0836 H   0  0  0  0  0  0  0  0  0  0  0  0
    0.9607    0.2886   -2.3181 H   0  0  0  0  0  0  0  0  0  0  0  0
    2.0658   -1.0150   -1.5597 H   0  0  0  0  0  0  0  0  0  0  0  0
    0.0106   -2.1310   -0.9358 H   0  0  0  0  0  0  0  0  0  0  0  0
   -2.0582   -1.0813   -1.3286 H   0  0  0  0  0  0  0  0  0  0  0  0
   -1.2641    0.5191   -1.5763 H   0  0  0  0  0  0  0  0  0  0  0  0
  1  2  1  0
  2  3  2  0
  3  4  1  0
  4  5  1  0
  5  6  1  0
  5  7  1  0
  7  8  1  0
  8  9  1  0
  9  2  1  0
  8  4  1  0
  1 10  1  0
  1 11  1  0
  1 12  1  0
  3 13  1  0
  4 14  1  0
  5 15  1  0
  6 16  1  0
  6 17  1  0
  6 18  1  0
  7 19  1  0
  7 20  1  0
  8 21  1  0
  9 22  1  0
  9 23  1  0
M  END
