
     RDKit          3D

 21 23  0  0  0  0  0  0  0  0999 V2000
   -2.5146    0.7406   -0.6251 C   0  0  0  0  0  0  0  0  0  0  0  0
   -1.3026    0.2017    0.0263 C   0  0  0  0  0  0  0  0  0  0  0  0
   -0.8695    0.2852    1.2919 C   0  0  0  0  0  0  0  0  0  0  0  0
    0.4229   -0.4760    1.2355 C   0  0  0  0  0  0  0  0  0  0  0  0
   -0.0625   -1.6953    0.4292 C   0  0  0  0  0  0  0  0  0  0  0  0
   -0.2493   -0.5951   -0.6372 C   0  0  0  0  0  0  0  0  0  0  0  0
    0.9857   -0.0326   -0.0559 C   0  0  0  0  0  0  0  0  0  0  0  0
    1.5952    1.2368   -0.2419 C   0  0  0  0  0  0  0  0  0  0  0  0
    2.3164   -0.1076   -0.5455 C   0  0  0  0  0  0  0  0  0  0  0  0
   -2.2487    1.1990   -1.6132 H   0  0  0  0  0  0  0  0  0  0  0  0
   -2.9988    1.5416   -0.0365 H   0  0  0  0  0  0  0  0  0  0  0  0
   -3.2726   -0.0610   -0.8362 H   0  0  0  0  0  0  0  0  0  0  0  0
   -1.3360    0.7769    2.1355 H   0  0  0  0  0  0  0  0  0  0  0  0
    0.9814   -0.6379    2.1039 H   0  0  0  0  0  0  0  0  0  0  0  0
   -0.9964   -2.1196    0.8014 H   0  0  0  0  0  0  0  0  0  0  0  0
    0.7524   -2.3958    0.2055 H   0  0  0  0  0  0  0  0  0  0  0  0
   -0.3377   -0.8974   -1.6411 H   0  0  0  0  0  0  0  0  0  0  0  0
    2.0366    1.7587    0.6533 H   0  0  0  0  0  0  0  0  0  0  0  0
    1.4635    1.9318   -1.0879 H   0  0  0  0  0  0  0  0  0  0  0  0
    2.4779   -0.2672   -1.6485 H   0  0  0  0  0  0  0  0  0  0  0  0
    3.1567   -0.3868    0.0865 H   0  0  0  0  0  0  0  0  0  0  0  0
  1  2  1  0
  2  3  2  0
  3  4  1  0
  4  5  1  0
  5  6  1  0
  6  7  1  0
  7  8  1  0
  8  9  1  0
  6  2  1  0
  9  7  1  0
  7  4  1  0
  1 10  1  0
  1 11  1  0
  1 12  1  0
  3 13  1  0
  4 14  1  0
  5 15  1  0
  5 16  1  0
  6 17  1  0
  8 18  1  0
  8 19  1  0
  9 20  1  0
  9 21  1  0
M  END
