
     RDKit          3D

 23 23  0  0  0  0  0  0  0  0999 V2000
    1.2509   -1.4686   -2.5508 C   0  0  0  0  0  0  0  0  0  0  0  0
    0.8418   -0.7796   -1.2593 C   0  0  0  0  0  0  0  0  0  0  0  0
    0.7325    0.5275   -1.1005 C   0  0  0  0  0  0  0  0  0  0  0  0
    0.3152    0.8581    0.2851 C   0  0  0  0  0  0  0  0  0  0  0  0
   -1.1208    1.2406    0.4234 C   0  0  0  0  0  0  0  0  0  0  0  0
   -1.3643    1.5427    1.9080 C   0  0  0  0  0  0  0  0  0  0  0  0
   -1.9368    0.1989    0.0079 O   0  0  0  0  0  0  0  0  0  0  0  0
    0.6782   -0.4030    1.0681 C   0  0  0  0  0  0  0  0  0  0  0  0
    0.4904   -1.4477    0.0073 C   0  0  0  0  0  0  0  0  0  0  0  0
    0.6817   -1.0291   -3.3958 H   0  0  0  0  0  0  0  0  0  0  0  0
    0.9366   -2.5272   -2.4703 H   0  0  0  0  0  0  0  0  0  0  0  0
    2.3481   -1.4140   -2.6854 H   0  0  0  0  0  0  0  0  0  0  0  0
    0.9132    1.2883   -1.8518 H   0  0  0  0  0  0  0  0  0  0  0  0
    0.9573    1.7042    0.6489 H   0  0  0  0  0  0  0  0  0  0  0  0
   -1.3334    2.1702   -0.1295 H   0  0  0  0  0  0  0  0  0  0  0  0
   -0.4010    1.7540    2.4160 H   0  0  0  0  0  0  0  0  0  0  0  0
   -2.0927    2.3776    2.0108 H   0  0  0  0  0  0  0  0  0  0  0  0
   -1.7520    0.5961    2.3402 H   0  0  0  0  0  0  0  0  0  0  0  0
   -2.3624   -0.2736    0.7916 H   0  0  0  0  0  0  0  0  0  0  0  0
   -0.0323   -0.5055    1.9099 H   0  0  0  0  0  0  0  0  0  0  0  0
    1.7422   -0.3483    1.4370 H   0  0  0  0  0  0  0  0  0  0  0  0
    1.1063   -2.3575    0.1937 H   0  0  0  0  0  0  0  0  0  0  0  0
   -0.5987   -1.7040   -0.0045 H   0  0  0  0  0  0  0  0  0  0  0  0
  1  2  1  0
  2  3  2  0
  3  4  1  0
  4  5  1  0
  5  6  1  0
  5  7  1  0
  4  8  1  0
  8  9  1  0
  9  2  1  0
  1 10  1  0
  1 11  1  0
  1 12  1  0
  3 13  1  0
  4 14  1  0
  5 15  1  0
  6 16  1  0
  6 17  1  0
  6 18  1  0
  7 19  1  0
  8 20  1  0
  8 21  1  0
  9 22  1  0
  9 23  1  0
M  END
