
     RDKit          3D

 17 17  0  0  0  0  0  0  0  0999 V2000
    2.4858   -0.2688   -0.2263 C   0  0  0  0  0  0  0  0  0  0  0  0
    1.0445   -0.1929    0.0412 C   0  0  0  0  0  0  0  0  0  0  0  0
    0.5246    1.0012    0.3497 C   0  0  0  0  0  0  0  0  0  0  0  0
   -0.8526    1.3640    0.6581 C   0  0  0  0  0  0  0  0  0  0  0  0
   -1.9578    0.7331    0.3206 C   0  0  0  0  0  0  0  0  0  0  0  0
   -2.0718   -0.5152   -0.4652 C   0  0  0  0  0  0  0  0  0  0  0  0
   -1.1422   -1.5218   -0.0497 O   0  0  0  0  0  0  0  0  0  0  0  0
    0.2644   -1.4207   -0.0448 C   0  0  0  0  0  0  0  0  0  0  0  0
    0.8894   -2.5031   -0.1229 O   0  0  0  0  0  0  0  0  0  0  0  0
    2.7729   -1.3016   -0.4248 H   0  0  0  0  0  0  0  0  0  0  0  0
    2.7745    0.4309   -1.0630 H   0  0  0  0  0  0  0  0  0  0  0  0
    3.0037    0.1458    0.6869 H   0  0  0  0  0  0  0  0  0  0  0  0
    1.2234    1.8259    0.3776 H   0  0  0  0  0  0  0  0  0  0  0  0
   -1.0421    2.2631    1.2384 H   0  0  0  0  0  0  0  0  0  0  0  0
   -2.9138    1.1794    0.6584 H   0  0  0  0  0  0  0  0  0  0  0  0
   -1.9162   -0.2608   -1.5359 H   0  0  0  0  0  0  0  0  0  0  0  0
   -3.0870   -0.9586   -0.3983 H   0  0  0  0  0  0  0  0  0  0  0  0
  1  2  1  0
  2  3  2  0
  3  4  1  0
  4  5  2  0
  5  6  1  0
  6  7  1  0
  7  8  1  0
  8  9  2  0
  8  2  1  0
  1 10  1  0
  1 11  1  0
  1 12  1  0
  3 13  1  0
  4 14  1  0
  5 15  1  0
  6 16  1  0
  6 17  1  0
M  END
