
     RDKit          3D

 21 22  0  0  0  0  0  0  0  0999 V2000
    2.3311    1.3310    0.1065 C   0  0  0  0  0  0  0  0  0  0  0  0
    1.4046    0.1861    0.0349 C   0  0  0  0  0  0  0  0  0  0  0  0
    0.0860    0.2883   -0.0260 C   0  0  0  0  0  0  0  0  0  0  0  0
   -1.0880    1.1734   -0.0611 C   0  0  0  0  0  0  0  0  0  0  0  0
   -2.2882    0.3044    0.1648 C   0  0  0  0  0  0  0  0  0  0  0  0
   -1.7603   -1.0400    0.5391 C   0  0  0  0  0  0  0  0  0  0  0  0
   -0.3953   -1.1397   -0.0863 C   0  0  0  0  0  0  0  0  0  0  0  0
    0.5611   -1.7731    0.6686 O   0  0  0  0  0  0  0  0  0  0  0  0
    1.7277   -1.2891    0.0214 C   0  0  0  0  0  0  0  0  0  0  0  0
    3.2096    1.0947    0.7418 H   0  0  0  0  0  0  0  0  0  0  0  0
    2.5896    1.6224   -0.9212 H   0  0  0  0  0  0  0  0  0  0  0  0
    1.8204    2.2074    0.5767 H   0  0  0  0  0  0  0  0  0  0  0  0
   -1.0540    1.9764    0.7103 H   0  0  0  0  0  0  0  0  0  0  0  0
   -1.1230    1.7122   -1.0404 H   0  0  0  0  0  0  0  0  0  0  0  0
   -2.9000    0.7175    1.0074 H   0  0  0  0  0  0  0  0  0  0  0  0
   -2.9364    0.2665   -0.7381 H   0  0  0  0  0  0  0  0  0  0  0  0
   -2.4465   -1.8286    0.1835 H   0  0  0  0  0  0  0  0  0  0  0  0
   -1.6464   -1.0713    1.6393 H   0  0  0  0  0  0  0  0  0  0  0  0
   -0.4012   -1.5372   -1.0944 H   0  0  0  0  0  0  0  0  0  0  0  0
    1.6772   -1.6856   -0.9974 H   0  0  0  0  0  0  0  0  0  0  0  0
    2.6321   -1.5159    0.5782 H   0  0  0  0  0  0  0  0  0  0  0  0
  1  2  1  0
  2  3  2  0
  3  4  1  0
  4  5  1  0
  5  6  1  0
  6  7  1  0
  7  8  1  0
  8  9  1  0
  9  2  1  0
  7  3  1  0
  1 10  1  0
  1 11  1  0
  1 12  1  0
  4 13  1  0
  4 14  1  0
  5 15  1  0
  5 16  1  0
  6 17  1  0
  6 18  1  0
  7 19  1  0
  9 20  1  0
  9 21  1  0
M  END
