
     RDKit          3D

 19 20  0  0  0  0  0  0  0  0999 V2000
   -2.2801   -0.7512    0.0376 C   0  0  0  0  0  0  0  0  0  0  0  0
   -0.9090   -0.2527   -0.2464 C   0  0  0  0  0  0  0  0  0  0  0  0
   -0.1247   -0.6909   -1.2260 C   0  0  0  0  0  0  0  0  0  0  0  0
    1.1882    0.0599   -1.1888 C   0  0  0  0  0  0  0  0  0  0  0  0
    1.2010    0.4963    0.2404 C   0  0  0  0  0  0  0  0  0  0  0  0
    1.9228   -0.4600    1.1757 C   0  0  0  0  0  0  0  0  0  0  0  0
    2.2710    0.8984    0.9238 O   0  0  0  0  0  0  0  0  0  0  0  0
   -0.2120    0.8136    0.5257 C   0  0  0  0  0  0  0  0  0  0  0  0
   -0.5306    2.0220   -0.1176 O   0  0  0  0  0  0  0  0  0  0  0  0
   -2.2517   -1.8433    0.2462 H   0  0  0  0  0  0  0  0  0  0  0  0
   -2.8918   -0.5399   -0.8600 H   0  0  0  0  0  0  0  0  0  0  0  0
   -2.6912   -0.2741    0.9422 H   0  0  0  0  0  0  0  0  0  0  0  0
   -0.3056   -1.4466   -1.9682 H   0  0  0  0  0  0  0  0  0  0  0  0
    2.0298   -0.5784   -1.4643 H   0  0  0  0  0  0  0  0  0  0  0  0
    1.0379    0.9233   -1.8874 H   0  0  0  0  0  0  0  0  0  0  0  0
    1.3733   -0.6928    2.0910 H   0  0  0  0  0  0  0  0  0  0  0  0
    2.6160   -1.1856    0.7213 H   0  0  0  0  0  0  0  0  0  0  0  0
   -0.4985    0.8279    1.5887 H   0  0  0  0  0  0  0  0  0  0  0  0
   -0.9449    2.6743    0.4660 H   0  0  0  0  0  0  0  0  0  0  0  0
  1  2  1  0
  2  3  2  0
  3  4  1  0
  4  5  1  0
  5  6  1  0
  6  7  1  0
  5  8  1  0
  8  9  1  0
  8  2  1  0
  7  5  1  0
  1 10  1  0
  1 11  1  0
  1 12  1  0
  3 13  1  0
  4 14  1  0
  4 15  1  0
  6 16  1  0
  6 17  1  0
  8 18  1  0
  9 19  1  0
M  END
