
     RDKit          3D

 21 23  0  0  0  0  0  0  0  0999 V2000
    1.8842    1.5220    0.6670 C   0  0  0  0  0  0  0  0  0  0  0  0
    0.9219    0.5525    0.1185 C   0  0  0  0  0  0  0  0  0  0  0  0
   -0.3247    0.9491    0.0060 C   0  0  0  0  0  0  0  0  0  0  0  0
   -1.7146    1.3272   -0.1431 C   0  0  0  0  0  0  0  0  0  0  0  0
   -2.0720   -0.2221   -0.1684 C   0  0  0  0  0  0  0  0  0  0  0  0
   -1.1101   -1.1729    0.3428 C   0  0  0  0  0  0  0  0  0  0  0  0
    0.1539   -1.8610    0.1034 C   0  0  0  0  0  0  0  0  0  0  0  0
    1.2830   -0.8920   -0.2296 C   0  0  0  0  0  0  0  0  0  0  0  0
   -0.9083   -0.2298   -0.8504 C   0  0  0  0  0  0  0  0  0  0  0  0
    2.1127    1.4070    1.7239 H   0  0  0  0  0  0  0  0  0  0  0  0
    1.5840    2.5712    0.4043 H   0  0  0  0  0  0  0  0  0  0  0  0
    2.8430    1.3798    0.0850 H   0  0  0  0  0  0  0  0  0  0  0  0
   -2.2290    1.8110    0.7066 H   0  0  0  0  0  0  0  0  0  0  0  0
   -1.9628    1.8142   -1.0881 H   0  0  0  0  0  0  0  0  0  0  0  0
   -3.0650   -0.4377   -0.5846 H   0  0  0  0  0  0  0  0  0  0  0  0
   -1.0415   -0.8419    1.4190 H   0  0  0  0  0  0  0  0  0  0  0  0
    0.1073   -2.6115   -0.7586 H   0  0  0  0  0  0  0  0  0  0  0  0
    0.4070   -2.5177    0.9652 H   0  0  0  0  0  0  0  0  0  0  0  0
    2.1555   -1.1618    0.3729 H   0  0  0  0  0  0  0  0  0  0  0  0
    1.5673   -0.9389   -1.2968 H   0  0  0  0  0  0  0  0  0  0  0  0
   -0.5918   -0.4466   -1.7952 H   0  0  0  0  0  0  0  0  0  0  0  0
  1  2  1  0
  2  3  2  0
  3  4  1  0
  4  5  1  0
  5  6  1  0
  6  7  1  0
  7  8  1  0
  6  9  1  0
  8  2  1  0
  9  3  1  0
  9  5  1  0
  1 10  1  0
  1 11  1  0
  1 12  1  0
  4 13  1  0
  4 14  1  0
  5 15  1  0
  6 16  1  0
  7 17  1  0
  7 18  1  0
  8 19  1  0
  8 20  1  0
  9 21  1  0
M  END
