
     RDKit          3D

 18 18  0  0  0  0  0  0  0  0999 V2000
    2.5691    0.4082   -0.1287 C   0  0  0  0  0  0  0  0  0  0  0  0
    1.1498   -0.0845   -0.0568 C   0  0  0  0  0  0  0  0  0  0  0  0
    0.6438   -1.0693   -0.7420 C   0  0  0  0  0  0  0  0  0  0  0  0
   -0.7863   -1.2380   -0.3815 C   0  0  0  0  0  0  0  0  0  0  0  0
   -1.1156   -0.1662    0.6013 C   0  0  0  0  0  0  0  0  0  0  0  0
   -2.0940    0.8650    0.0375 C   0  0  0  0  0  0  0  0  0  0  0  0
    0.1752    0.5277    0.8278 C   0  0  0  0  0  0  0  0  0  0  0  0
    0.3139    1.4629    1.6517 O   0  0  0  0  0  0  0  0  0  0  0  0
    3.1089   -0.1188   -0.9312 H   0  0  0  0  0  0  0  0  0  0  0  0
    3.0897    0.1810    0.8254 H   0  0  0  0  0  0  0  0  0  0  0  0
    2.4872    1.5035   -0.3167 H   0  0  0  0  0  0  0  0  0  0  0  0
    1.1602   -1.6832   -1.4652 H   0  0  0  0  0  0  0  0  0  0  0  0
   -1.4133   -1.2340   -1.2863 H   0  0  0  0  0  0  0  0  0  0  0  0
   -0.8536   -2.2277    0.1447 H   0  0  0  0  0  0  0  0  0  0  0  0
   -1.4831   -0.5396    1.5675 H   0  0  0  0  0  0  0  0  0  0  0  0
   -2.7092    1.2629    0.8538 H   0  0  0  0  0  0  0  0  0  0  0  0
   -2.6928    0.4247   -0.7966 H   0  0  0  0  0  0  0  0  0  0  0  0
   -1.5500    1.7253   -0.4047 H   0  0  0  0  0  0  0  0  0  0  0  0
  1  2  1  0
  2  3  2  0
  3  4  1  0
  4  5  1  0
  5  6  1  0
  5  7  1  0
  7  8  2  0
  7  2  1  0
  1  9  1  0
  1 10  1  0
  1 11  1  0
  3 12  1  0
  4 13  1  0
  4 14  1  0
  5 15  1  0
  6 16  1  0
  6 17  1  0
  6 18  1  0
M  END
