
     RDKit          3D

 16 16  0  0  0  0  0  0  0  0999 V2000
    1.9075    0.1952   -0.3056 C   0  0  0  0  0  0  0  0  0  0  0  0
    0.5014   -0.2416   -0.0793 C   0  0  0  0  0  0  0  0  0  0  0  0
    0.1350   -1.4483    0.3392 C   0  0  0  0  0  0  0  0  0  0  0  0
   -1.3535   -1.4116    0.4146 C   0  0  0  0  0  0  0  0  0  0  0  0
   -1.5697   -0.0702    0.7280 O   0  0  0  0  0  0  0  0  0  0  0  0
   -0.7666    0.5434   -0.2627 C   0  0  0  0  0  0  0  0  0  0  0  0
   -0.6000    1.9689    0.0229 C   0  0  0  0  0  0  0  0  0  0  0  0
   -1.1148    2.4718    0.9968 O   0  0  0  0  0  0  0  0  0  0  0  0
    1.9157    1.2959   -0.5186 H   0  0  0  0  0  0  0  0  0  0  0  0
    2.5316    0.0034    0.6079 H   0  0  0  0  0  0  0  0  0  0  0  0
    2.3661   -0.3201   -1.1852 H   0  0  0  0  0  0  0  0  0  0  0  0
    0.8357   -2.2446    0.5599 H   0  0  0  0  0  0  0  0  0  0  0  0
   -1.8102   -1.5667   -0.5930 H   0  0  0  0  0  0  0  0  0  0  0  0
   -1.7573   -2.1044    1.1657 H   0  0  0  0  0  0  0  0  0  0  0  0
   -1.2061    0.3391   -1.2575 H   0  0  0  0  0  0  0  0  0  0  0  0
   -0.0148    2.5899   -0.6331 H   0  0  0  0  0  0  0  0  0  0  0  0
  1  2  1  0
  2  3  2  0
  3  4  1  0
  4  5  1  0
  5  6  1  0
  6  7  1  0
  7  8  2  0
  6  2  1  0
  1  9  1  0
  1 10  1  0
  1 11  1  0
  3 12  1  0
  4 13  1  0
  4 14  1  0
  6 15  1  0
  7 16  1  0
M  END
