
     RDKit          3D

 23 24  0  0  0  0  0  0  0  0999 V2000
    3.0475    0.1849   -0.2606 C   0  0  0  0  0  0  0  0  0  0  0  0
    1.5443    0.1639   -0.1024 C   0  0  0  0  0  0  0  0  0  0  0  0
    0.8403    1.1196    0.4628 C   0  0  0  0  0  0  0  0  0  0  0  0
   -0.5973    0.8330    0.4786 C   0  0  0  0  0  0  0  0  0  0  0  0
   -1.3977    1.7294   -0.4306 C   0  0  0  0  0  0  0  0  0  0  0  0
   -0.6696   -0.6050    0.1134 C   0  0  0  0  0  0  0  0  0  0  0  0
   -1.3383   -1.5121    1.0610 C   0  0  0  0  0  0  0  0  0  0  0  0
   -1.9273   -1.2671   -0.2911 C   0  0  0  0  0  0  0  0  0  0  0  0
    0.6274   -0.9101   -0.5461 C   0  0  0  0  0  0  0  0  0  0  0  0
    3.3395    0.5327   -1.2703 H   0  0  0  0  0  0  0  0  0  0  0  0
    3.5217    0.8290    0.4933 H   0  0  0  0  0  0  0  0  0  0  0  0
    3.4173   -0.8325   -0.1433 H   0  0  0  0  0  0  0  0  0  0  0  0
    1.2513    2.0597    0.8949 H   0  0  0  0  0  0  0  0  0  0  0  0
   -0.9612    0.9711    1.5242 H   0  0  0  0  0  0  0  0  0  0  0  0
   -2.4501    1.3977   -0.3730 H   0  0  0  0  0  0  0  0  0  0  0  0
   -1.0027    1.6957   -1.4646 H   0  0  0  0  0  0  0  0  0  0  0  0
   -1.3607    2.7591   -0.0267 H   0  0  0  0  0  0  0  0  0  0  0  0
   -1.9226   -1.0665    1.9194 H   0  0  0  0  0  0  0  0  0  0  0  0
   -0.8033   -2.4539    1.2809 H   0  0  0  0  0  0  0  0  0  0  0  0
   -2.8912   -0.7247   -0.3624 H   0  0  0  0  0  0  0  0  0  0  0  0
   -1.8355   -2.1423   -0.9831 H   0  0  0  0  0  0  0  0  0  0  0  0
    1.0194   -1.9248   -0.3262 H   0  0  0  0  0  0  0  0  0  0  0  0
    0.5490   -0.8368   -1.6481 H   0  0  0  0  0  0  0  0  0  0  0  0
  1  2  1  0
  2  3  2  0
  3  4  1  0
  4  5  1  0
  4  6  1  0
  6  7  1  0
  7  8  1  0
  6  9  1  0
  9  2  1  0
  8  6  1  0
  1 10  1  0
  1 11  1  0
  1 12  1  0
  3 13  1  0
  4 14  1  0
  5 15  1  0
  5 16  1  0
  5 17  1  0
  7 18  1  0
  7 19  1  0
  8 20  1  0
  8 21  1  0
  9 22  1  0
  9 23  1  0
M  END
