
     RDKit          3D

 21 22  0  0  0  0  0  0  0  0999 V2000
    2.3215   -0.0153    0.7286 C   0  0  0  0  0  0  0  0  0  0  0  0
    1.0688    0.0287   -0.0542 C   0  0  0  0  0  0  0  0  0  0  0  0
    0.4483    1.1524   -0.4017 C   0  0  0  0  0  0  0  0  0  0  0  0
   -0.7916    0.7165   -1.1886 C   0  0  0  0  0  0  0  0  0  0  0  0
   -1.7395    1.6941   -1.2197 O   0  0  0  0  0  0  0  0  0  0  0  0
   -1.0783   -0.4293   -0.2676 C   0  0  0  0  0  0  0  0  0  0  0  0
   -1.2010    0.1342    1.1675 C   0  0  0  0  0  0  0  0  0  0  0  0
   -0.8277   -1.8073   -0.2964 C   0  0  0  0  0  0  0  0  0  0  0  0
    0.3288   -1.0785   -0.5973 C   0  0  0  0  0  0  0  0  0  0  0  0
    2.1686    0.0205    1.8174 H   0  0  0  0  0  0  0  0  0  0  0  0
    3.0243    0.8100    0.4816 H   0  0  0  0  0  0  0  0  0  0  0  0
    2.9114   -0.9575    0.5398 H   0  0  0  0  0  0  0  0  0  0  0  0
    0.7179    2.1881   -0.1982 H   0  0  0  0  0  0  0  0  0  0  0  0
   -0.3892    0.4035   -2.1695 H   0  0  0  0  0  0  0  0  0  0  0  0
   -1.5453    2.5017   -0.7174 H   0  0  0  0  0  0  0  0  0  0  0  0
   -1.9028   -0.5830    1.6866 H   0  0  0  0  0  0  0  0  0  0  0  0
   -0.2262    0.0782    1.6721 H   0  0  0  0  0  0  0  0  0  0  0  0
   -1.6894    1.1021    1.1845 H   0  0  0  0  0  0  0  0  0  0  0  0
   -0.8309   -2.4253    0.6334 H   0  0  0  0  0  0  0  0  0  0  0  0
   -1.3647   -2.4023   -1.0935 H   0  0  0  0  0  0  0  0  0  0  0  0
    0.5971   -1.1315   -1.7076 H   0  0  0  0  0  0  0  0  0  0  0  0
  1  2  1  0
  2  3  2  0
  3  4  1  0
  4  5  1  0
  4  6  1  0
  6  7  1  0
  6  8  1  0
  8  9  1  0
  9  2  1  0
  9  6  1  0
  1 10  1  0
  1 11  1  0
  1 12  1  0
  3 13  1  0
  4 14  1  0
  5 15  1  0
  7 16  1  0
  7 17  1  0
  7 18  1  0
  8 19  1  0
  8 20  1  0
  9 21  1  0
M  END
