
     RDKit          3D

 21 21  0  0  0  0  0  0  0  0999 V2000
    2.6253    0.5990   -0.2653 C   0  0  0  0  0  0  0  0  0  0  0  0
    1.1778    0.3105   -0.0838 C   0  0  0  0  0  0  0  0  0  0  0  0
    0.1986    1.1326   -0.4382 C   0  0  0  0  0  0  0  0  0  0  0  0
   -1.2216    0.8309   -0.2514 C   0  0  0  0  0  0  0  0  0  0  0  0
   -1.6255    1.4236    0.9562 O   0  0  0  0  0  0  0  0  0  0  0  0
   -1.5765   -0.6123   -0.2446 C   0  0  0  0  0  0  0  0  0  0  0  0
   -2.4849   -0.9317    0.7911 O   0  0  0  0  0  0  0  0  0  0  0  0
   -0.4340   -1.5581   -0.1295 C   0  0  0  0  0  0  0  0  0  0  0  0
    0.7882   -0.9818    0.5347 C   0  0  0  0  0  0  0  0  0  0  0  0
    2.7616    1.5692   -0.8094 H   0  0  0  0  0  0  0  0  0  0  0  0
    3.1510    0.6292    0.7288 H   0  0  0  0  0  0  0  0  0  0  0  0
    3.0515   -0.2427   -0.8518 H   0  0  0  0  0  0  0  0  0  0  0  0
    0.4994    2.0868   -0.8954 H   0  0  0  0  0  0  0  0  0  0  0  0
   -1.7965    1.3910   -1.0470 H   0  0  0  0  0  0  0  0  0  0  0  0
   -1.1849    2.3164    0.9929 H   0  0  0  0  0  0  0  0  0  0  0  0
   -2.1230   -0.8338   -1.2083 H   0  0  0  0  0  0  0  0  0  0  0  0
   -3.1731   -0.2251    0.8768 H   0  0  0  0  0  0  0  0  0  0  0  0
   -0.1262   -1.9413   -1.1309 H   0  0  0  0  0  0  0  0  0  0  0  0
   -0.7002   -2.4829    0.4621 H   0  0  0  0  0  0  0  0  0  0  0  0
    1.6062   -1.7070    0.3975 H   0  0  0  0  0  0  0  0  0  0  0  0
    0.5869   -0.7724    1.6157 H   0  0  0  0  0  0  0  0  0  0  0  0
  1  2  1  0
  2  3  2  0
  3  4  1  0
  4  5  1  0
  4  6  1  0
  6  7  1  0
  6  8  1  0
  8  9  1  0
  9  2  1  0
  1 10  1  0
  1 11  1  0
  1 12  1  0
  3 13  1  0
  4 14  1  0
  5 15  1  0
  6 16  1  0
  7 17  1  0
  8 18  1  0
  8 19  1  0
  9 20  1  0
  9 21  1  0
M  END
