
     RDKit          3D

 21 21  0  0  0  0  0  0  0  0999 V2000
    2.5261   -0.3448   -0.4013 C   0  0  0  0  0  0  0  0  0  0  0  0
    1.1228   -0.1268    0.0170 C   0  0  0  0  0  0  0  0  0  0  0  0
    0.3835   -1.2371    0.1323 C   0  0  0  0  0  0  0  0  0  0  0  0
   -1.0403   -1.3507    0.5279 C   0  0  0  0  0  0  0  0  0  0  0  0
   -1.9601   -0.5998   -0.3614 C   0  0  0  0  0  0  0  0  0  0  0  0
   -1.6388    0.8061   -0.5933 C   0  0  0  0  0  0  0  0  0  0  0  0
   -0.6097    1.5973   -0.3639 C   0  0  0  0  0  0  0  0  0  0  0  0
    0.6604    1.2465    0.2669 C   0  0  0  0  0  0  0  0  0  0  0  0
    0.5791    1.5145    1.6509 O   0  0  0  0  0  0  0  0  0  0  0  0
    2.8670   -1.3574   -0.1697 H   0  0  0  0  0  0  0  0  0  0  0  0
    3.2394    0.3664    0.0265 H   0  0  0  0  0  0  0  0  0  0  0  0
    2.5359   -0.2586   -1.5243 H   0  0  0  0  0  0  0  0  0  0  0  0
    0.9322   -2.1428   -0.1017 H   0  0  0  0  0  0  0  0  0  0  0  0
   -1.3055   -2.4276    0.4680 H   0  0  0  0  0  0  0  0  0  0  0  0
   -1.1962   -1.0801    1.6077 H   0  0  0  0  0  0  0  0  0  0  0  0
   -2.9832   -0.6391    0.1018 H   0  0  0  0  0  0  0  0  0  0  0  0
   -2.0700   -1.1730   -1.3194 H   0  0  0  0  0  0  0  0  0  0  0  0
   -2.4625    1.3476   -1.0845 H   0  0  0  0  0  0  0  0  0  0  0  0
   -0.6851    2.6514   -0.6720 H   0  0  0  0  0  0  0  0  0  0  0  0
    1.4602    1.9356   -0.1065 H   0  0  0  0  0  0  0  0  0  0  0  0
   -0.3553    1.2726    1.8992 H   0  0  0  0  0  0  0  0  0  0  0  0
  1  2  1  0
  2  3  2  0
  3  4  1  0
  4  5  1  0
  5  6  1  0
  6  7  2  0
  7  8  1  0
  8  9  1  0
  8  2  1  0
  1 10  1  0
  1 11  1  0
  1 12  1  0
  3 13  1  0
  4 14  1  0
  4 15  1  0
  5 16  1  0
  5 17  1  0
  6 18  1  0
  7 19  1  0
  8 20  1  0
  9 21  1  0
M  END
