
     RDKit          3D

 25 25  0  0  0  0  0  0  0  0999 V2000
    1.8582    1.5544   -0.1262 C   0  0  0  0  0  0  0  0  0  0  0  0
    0.5980    0.7134   -0.1258 C   0  0  0  0  0  0  0  0  0  0  0  0
    0.8710   -0.5436    0.1897 C   0  0  0  0  0  0  0  0  0  0  0  0
    2.2842   -0.9205    0.4788 C   0  0  0  0  0  0  0  0  0  0  0  0
   -0.0799   -1.6493    0.2941 C   0  0  0  0  0  0  0  0  0  0  0  0
   -1.2504   -1.3487   -0.6155 C   0  0  0  0  0  0  0  0  0  0  0  0
   -2.1462   -0.4346    0.1840 C   0  0  0  0  0  0  0  0  0  0  0  0
   -1.9103    1.0002   -0.0259 C   0  0  0  0  0  0  0  0  0  0  0  0
   -0.5953    1.4544   -0.4651 C   0  0  0  0  0  0  0  0  0  0  0  0
    2.7102    1.0259   -0.5417 H   0  0  0  0  0  0  0  0  0  0  0  0
    2.0663    1.7602    0.9444 H   0  0  0  0  0  0  0  0  0  0  0  0
    1.6805    2.5341   -0.6105 H   0  0  0  0  0  0  0  0  0  0  0  0
    2.7529   -0.1507    1.1218 H   0  0  0  0  0  0  0  0  0  0  0  0
    2.8613   -1.1295   -0.4431 H   0  0  0  0  0  0  0  0  0  0  0  0
    2.2964   -1.8572    1.0726 H   0  0  0  0  0  0  0  0  0  0  0  0
   -0.4807   -1.7884    1.3367 H   0  0  0  0  0  0  0  0  0  0  0  0
    0.3668   -2.6279    0.0237 H   0  0  0  0  0  0  0  0  0  0  0  0
   -0.8930   -0.8910   -1.5572 H   0  0  0  0  0  0  0  0  0  0  0  0
   -1.7506   -2.3219   -0.8159 H   0  0  0  0  0  0  0  0  0  0  0  0
   -3.1895   -0.6992   -0.0866 H   0  0  0  0  0  0  0  0  0  0  0  0
   -2.0674   -0.6896    1.2712 H   0  0  0  0  0  0  0  0  0  0  0  0
   -2.6969    1.3718   -0.7522 H   0  0  0  0  0  0  0  0  0  0  0  0
   -2.2063    1.5239    0.9344 H   0  0  0  0  0  0  0  0  0  0  0  0
   -0.6196    1.5950   -1.5893 H   0  0  0  0  0  0  0  0  0  0  0  0
   -0.4597    2.5187   -0.0964 H   0  0  0  0  0  0  0  0  0  0  0  0
  1  2  1  0
  2  3  2  0
  3  4  1  0
  3  5  1  0
  5  6  1  0
  6  7  1  0
  7  8  1  0
  8  9  1  0
  9  2  1  0
  1 10  1  0
  1 11  1  0
  1 12  1  0
  4 13  1  0
  4 14  1  0
  4 15  1  0
  5 16  1  0
  5 17  1  0
  6 18  1  0
  6 19  1  0
  7 20  1  0
  7 21  1  0
  8 22  1  0
  8 23  1  0
  9 24  1  0
  9 25  1  0
M  END
