
     RDKit          3D

 18 19  0  0  0  0  0  0  0  0999 V2000
    2.4120    0.1811    0.0349 C   0  0  0  0  0  0  0  0  0  0  0  0
    0.9416    0.2717    0.1040 C   0  0  0  0  0  0  0  0  0  0  0  0
    0.1945    1.1758   -0.5022 C   0  0  0  0  0  0  0  0  0  0  0  0
   -1.2449    0.9616   -0.2082 C   0  0  0  0  0  0  0  0  0  0  0  0
   -2.0521    1.0398   -1.3180 O   0  0  0  0  0  0  0  0  0  0  0  0
   -1.3354   -0.3432    0.5269 C   0  0  0  0  0  0  0  0  0  0  0  0
   -0.7488   -1.5789   -0.0084 C   0  0  0  0  0  0  0  0  0  0  0  0
    0.0721   -0.6516    0.8746 C   0  0  0  0  0  0  0  0  0  0  0  0
    2.8776    1.0674    0.5458 H   0  0  0  0  0  0  0  0  0  0  0  0
    2.8260   -0.7038    0.5247 H   0  0  0  0  0  0  0  0  0  0  0  0
    2.7982    0.1854   -1.0075 H   0  0  0  0  0  0  0  0  0  0  0  0
    0.5742    1.9684   -1.1299 H   0  0  0  0  0  0  0  0  0  0  0  0
   -1.5488    1.7977    0.4842 H   0  0  0  0  0  0  0  0  0  0  0  0
   -2.5432    0.2222   -1.5304 H   0  0  0  0  0  0  0  0  0  0  0  0
   -2.1142   -0.4007    1.3228 H   0  0  0  0  0  0  0  0  0  0  0  0
   -1.0216   -2.5220    0.4803 H   0  0  0  0  0  0  0  0  0  0  0  0
   -0.4582   -1.6864   -1.0724 H   0  0  0  0  0  0  0  0  0  0  0  0
    0.3710   -0.9844    1.8789 H   0  0  0  0  0  0  0  0  0  0  0  0
  1  2  1  0
  2  3  2  0
  3  4  1  0
  4  5  1  0
  4  6  1  0
  6  7  1  0
  7  8  1  0
  8  2  1  0
  8  6  1  0
  1  9  1  0
  1 10  1  0
  1 11  1  0
  3 12  1  0
  4 13  1  0
  5 14  1  0
  6 15  1  0
  7 16  1  0
  7 17  1  0
  8 18  1  0
M  END
