
     RDKit          3D

 21 22  0  0  0  0  0  0  0  0999 V2000
   -0.9475    1.6697    0.4673 C   0  0  0  0  0  0  0  0  0  0  0  0
   -1.0714    0.2698    0.0632 C   0  0  0  0  0  0  0  0  0  0  0  0
   -0.1027   -0.5109   -0.3535 C   0  0  0  0  0  0  0  0  0  0  0  0
    1.3176   -0.2584   -0.5379 C   0  0  0  0  0  0  0  0  0  0  0  0
    2.2671   -0.2203    0.6444 C   0  0  0  0  0  0  0  0  0  0  0  0
    2.0277    0.9861   -0.2786 C   0  0  0  0  0  0  0  0  0  0  0  0
   -0.7459   -1.8500   -0.6395 C   0  0  0  0  0  0  0  0  0  0  0  0
   -2.1027   -1.5248   -0.8428 O   0  0  0  0  0  0  0  0  0  0  0  0
   -2.3677   -0.5104    0.0669 C   0  0  0  0  0  0  0  0  0  0  0  0
   -0.5583    2.3347   -0.3315 H   0  0  0  0  0  0  0  0  0  0  0  0
   -0.4059    1.7365    1.4252 H   0  0  0  0  0  0  0  0  0  0  0  0
   -1.9867    2.0719    0.6607 H   0  0  0  0  0  0  0  0  0  0  0  0
    1.7713   -0.8823   -1.3757 H   0  0  0  0  0  0  0  0  0  0  0  0
    3.2568   -0.6701    0.5987 H   0  0  0  0  0  0  0  0  0  0  0  0
    1.7470   -0.2531    1.6149 H   0  0  0  0  0  0  0  0  0  0  0  0
    2.9111    1.2555   -0.9348 H   0  0  0  0  0  0  0  0  0  0  0  0
    1.6809    1.8450    0.2889 H   0  0  0  0  0  0  0  0  0  0  0  0
   -0.5934   -2.4961    0.2251 H   0  0  0  0  0  0  0  0  0  0  0  0
   -0.3878   -2.2895   -1.5676 H   0  0  0  0  0  0  0  0  0  0  0  0
   -3.1926    0.1574   -0.2881 H   0  0  0  0  0  0  0  0  0  0  0  0
   -2.5171   -0.8608    1.0946 H   0  0  0  0  0  0  0  0  0  0  0  0
  1  2  1  0
  2  3  2  0
  3  4  1  0
  4  5  1  0
  5  6  1  0
  3  7  1  0
  7  8  1  0
  8  9  1  0
  9  2  1  0
  6  4  1  0
  1 10  1  0
  1 11  1  0
  1 12  1  0
  4 13  1  0
  5 14  1  0
  5 15  1  0
  6 16  1  0
  6 17  1  0
  7 18  1  0
  7 19  1  0
  9 20  1  0
  9 21  1  0
M  END
