
     RDKit          3D

 21 21  0  0  0  0  0  0  0  0999 V2000
    2.7971   -0.3956    0.3486 C   0  0  0  0  0  0  0  0  0  0  0  0
    1.3483   -0.1127    0.2011 C   0  0  0  0  0  0  0  0  0  0  0  0
    0.7863    1.0738    0.3348 C   0  0  0  0  0  0  0  0  0  0  0  0
   -0.6821    0.9710    0.1162 C   0  0  0  0  0  0  0  0  0  0  0  0
   -1.1491    2.0866   -0.7089 C   0  0  0  0  0  0  0  0  0  0  0  0
   -0.4860    2.4862   -1.6348 O   0  0  0  0  0  0  0  0  0  0  0  0
   -0.9321   -0.3861   -0.4903 C   0  0  0  0  0  0  0  0  0  0  0  0
   -2.1075   -1.0532    0.2196 C   0  0  0  0  0  0  0  0  0  0  0  0
    0.3002   -1.1457   -0.1251 C   0  0  0  0  0  0  0  0  0  0  0  0
    3.0868   -1.1388   -0.4325 H   0  0  0  0  0  0  0  0  0  0  0  0
    3.4096    0.5234    0.1779 H   0  0  0  0  0  0  0  0  0  0  0  0
    3.0612   -0.7778    1.3609 H   0  0  0  0  0  0  0  0  0  0  0  0
    1.2696    2.0128    0.5673 H   0  0  0  0  0  0  0  0  0  0  0  0
   -1.1438    0.9643    1.1455 H   0  0  0  0  0  0  0  0  0  0  0  0
   -2.0896    2.5569   -0.4921 H   0  0  0  0  0  0  0  0  0  0  0  0
   -1.0813   -0.3517   -1.5846 H   0  0  0  0  0  0  0  0  0  0  0  0
   -3.0255   -0.9459   -0.3540 H   0  0  0  0  0  0  0  0  0  0  0  0
   -1.9235   -2.1363    0.3600 H   0  0  0  0  0  0  0  0  0  0  0  0
   -2.2766   -0.6073    1.2276 H   0  0  0  0  0  0  0  0  0  0  0  0
    0.6853   -1.7758   -0.9648 H   0  0  0  0  0  0  0  0  0  0  0  0
    0.1526   -1.8481    0.7275 H   0  0  0  0  0  0  0  0  0  0  0  0
  1  2  1  0
  2  3  2  0
  3  4  1  0
  4  5  1  0
  5  6  2  0
  4  7  1  0
  7  8  1  0
  7  9  1  0
  9  2  1  0
  1 10  1  0
  1 11  1  0
  1 12  1  0
  3 13  1  0
  4 14  1  0
  5 15  1  0
  7 16  1  0
  8 17  1  0
  8 18  1  0
  8 19  1  0
  9 20  1  0
  9 21  1  0
M  END
