
     RDKit          3D

 23 23  0  0  0  0  0  0  0  0999 V2000
    2.6634   -0.1889   -0.4857 C   0  0  0  0  0  0  0  0  0  0  0  0
    1.1964   -0.4136   -0.3122 C   0  0  0  0  0  0  0  0  0  0  0  0
    0.1822    0.4057   -0.5403 C   0  0  0  0  0  0  0  0  0  0  0  0
    0.3181    1.7873   -1.0425 C   0  0  0  0  0  0  0  0  0  0  0  0
   -1.0400   -0.3310   -0.1994 C   0  0  0  0  0  0  0  0  0  0  0  0
   -2.1786   -0.0960   -1.1411 C   0  0  0  0  0  0  0  0  0  0  0  0
   -1.4484    0.0851    1.2014 C   0  0  0  0  0  0  0  0  0  0  0  0
   -0.6756   -1.6688   -0.1383 O   0  0  0  0  0  0  0  0  0  0  0  0
    0.6618   -1.7293    0.1918 C   0  0  0  0  0  0  0  0  0  0  0  0
    3.1583   -1.1156   -0.7695 H   0  0  0  0  0  0  0  0  0  0  0  0
    2.7751    0.6352   -1.2299 H   0  0  0  0  0  0  0  0  0  0  0  0
    3.0463    0.2383    0.4785 H   0  0  0  0  0  0  0  0  0  0  0  0
    0.6318    2.5071   -0.2517 H   0  0  0  0  0  0  0  0  0  0  0  0
    1.1718    1.7851   -1.7783 H   0  0  0  0  0  0  0  0  0  0  0  0
   -0.5631    2.1376   -1.6118 H   0  0  0  0  0  0  0  0  0  0  0  0
   -2.5707    0.9215   -1.0254 H   0  0  0  0  0  0  0  0  0  0  0  0
   -1.9338   -0.3542   -2.1731 H   0  0  0  0  0  0  0  0  0  0  0  0
   -3.0068   -0.7851   -0.8303 H   0  0  0  0  0  0  0  0  0  0  0  0
   -2.2026   -0.5819    1.6239 H   0  0  0  0  0  0  0  0  0  0  0  0
   -1.7479    1.1415    1.1470 H   0  0  0  0  0  0  0  0  0  0  0  0
   -0.5253   -0.0341    1.8325 H   0  0  0  0  0  0  0  0  0  0  0  0
    1.2187   -2.5129   -0.3607 H   0  0  0  0  0  0  0  0  0  0  0  0
    0.8689   -1.8330    1.2582 H   0  0  0  0  0  0  0  0  0  0  0  0
  1  2  1  0
  2  3  2  0
  3  4  1  0
  3  5  1  0
  5  6  1  0
  5  7  1  0
  5  8  1  0
  8  9  1  0
  9  2  1  0
  1 10  1  0
  1 11  1  0
  1 12  1  0
  4 13  1  0
  4 14  1  0
  4 15  1  0
  6 16  1  0
  6 17  1  0
  6 18  1  0
  7 19  1  0
  7 20  1  0
  7 21  1  0
  9 22  1  0
  9 23  1  0
M  END
