
     RDKit          3D

 23 24  0  0  0  0  0  0  0  0999 V2000
   -2.8496    0.7119   -0.2818 C   0  0  0  0  0  0  0  0  0  0  0  0
   -1.4992    0.1984    0.0013 C   0  0  0  0  0  0  0  0  0  0  0  0
   -0.6015    0.9715    0.5556 C   0  0  0  0  0  0  0  0  0  0  0  0
    0.7873    0.5900    0.8949 C   0  0  0  0  0  0  0  0  0  0  0  0
    1.7306    1.1241   -0.1916 C   0  0  0  0  0  0  0  0  0  0  0  0
    2.5036   -0.1843    0.0248 C   0  0  0  0  0  0  0  0  0  0  0  0
    1.1638   -0.7851    0.4261 C   0  0  0  0  0  0  0  0  0  0  0  0
    0.3326   -1.2932   -0.6994 C   0  0  0  0  0  0  0  0  0  0  0  0
   -1.1322   -1.2169   -0.3411 C   0  0  0  0  0  0  0  0  0  0  0  0
   -3.5265   -0.0391   -0.7058 H   0  0  0  0  0  0  0  0  0  0  0  0
   -2.7555    1.6051   -0.9340 H   0  0  0  0  0  0  0  0  0  0  0  0
   -3.3496    1.0843    0.6536 H   0  0  0  0  0  0  0  0  0  0  0  0
   -0.8905    1.9950    0.7951 H   0  0  0  0  0  0  0  0  0  0  0  0
    1.0750    0.8582    1.9127 H   0  0  0  0  0  0  0  0  0  0  0  0
    2.2873    2.0183    0.0771 H   0  0  0  0  0  0  0  0  0  0  0  0
    1.2203    1.1598   -1.1667 H   0  0  0  0  0  0  0  0  0  0  0  0
    2.9630   -0.5993   -0.8633 H   0  0  0  0  0  0  0  0  0  0  0  0
    3.1339   -0.0605    0.9230 H   0  0  0  0  0  0  0  0  0  0  0  0
    1.3211   -1.5448    1.2132 H   0  0  0  0  0  0  0  0  0  0  0  0
    0.5662   -2.3797   -0.8267 H   0  0  0  0  0  0  0  0  0  0  0  0
    0.5408   -0.8207   -1.6731 H   0  0  0  0  0  0  0  0  0  0  0  0
   -1.2756   -1.8098    0.5801 H   0  0  0  0  0  0  0  0  0  0  0  0
   -1.7454   -1.5833   -1.1900 H   0  0  0  0  0  0  0  0  0  0  0  0
  1  2  1  0
  2  3  2  0
  3  4  1  0
  4  5  1  0
  5  6  1  0
  6  7  1  0
  7  8  1  0
  8  9  1  0
  9  2  1  0
  7  4  1  0
  1 10  1  0
  1 11  1  0
  1 12  1  0
  3 13  1  0
  4 14  1  0
  5 15  1  0
  5 16  1  0
  6 17  1  0
  6 18  1  0
  7 19  1  0
  8 20  1  0
  8 21  1  0
  9 22  1  0
  9 23  1  0
M  END
