
     RDKit          3D

 21 23  0  0  0  0  0  0  0  0999 V2000
   -2.9436    0.0738   -0.0584 C   0  0  0  0  0  0  0  0  0  0  0  0
   -1.4811   -0.2453    0.0689 C   0  0  0  0  0  0  0  0  0  0  0  0
   -0.7617   -0.0699    1.1619 C   0  0  0  0  0  0  0  0  0  0  0  0
    0.6475   -0.4841    0.9537 C   0  0  0  0  0  0  0  0  0  0  0  0
    0.7589   -0.7287   -0.5348 C   0  0  0  0  0  0  0  0  0  0  0  0
   -0.6449   -0.7992   -1.0059 C   0  0  0  0  0  0  0  0  0  0  0  0
    1.4331    0.6051   -0.6563 C   0  0  0  0  0  0  0  0  0  0  0  0
    2.7763    0.6791   -0.0025 C   0  0  0  0  0  0  0  0  0  0  0  0
    1.5592    0.6768    0.8190 C   0  0  0  0  0  0  0  0  0  0  0  0
   -3.5236   -0.4492    0.7314 H   0  0  0  0  0  0  0  0  0  0  0  0
   -3.3255   -0.2206   -1.0356 H   0  0  0  0  0  0  0  0  0  0  0  0
   -3.0413    1.1803    0.0310 H   0  0  0  0  0  0  0  0  0  0  0  0
   -1.1349    0.3218    2.0911 H   0  0  0  0  0  0  0  0  0  0  0  0
    1.0137   -1.3027    1.5956 H   0  0  0  0  0  0  0  0  0  0  0  0
    1.3992   -1.6073   -0.7969 H   0  0  0  0  0  0  0  0  0  0  0  0
   -0.9442   -1.8427   -1.2386 H   0  0  0  0  0  0  0  0  0  0  0  0
   -0.7552   -0.2278   -1.9667 H   0  0  0  0  0  0  0  0  0  0  0  0
    1.0279    1.4105   -1.2610 H   0  0  0  0  0  0  0  0  0  0  0  0
    3.4075   -0.2221   -0.1377 H   0  0  0  0  0  0  0  0  0  0  0  0
    3.2794    1.6605   -0.1140 H   0  0  0  0  0  0  0  0  0  0  0  0
    1.2532    1.5917    1.3558 H   0  0  0  0  0  0  0  0  0  0  0  0
  1  2  1  0
  2  3  2  0
  3  4  1  0
  4  5  1  0
  5  6  1  0
  5  7  1  0
  7  8  1  0
  8  9  1  0
  6  2  1  0
  9  7  1  0
  9  4  1  0
  1 10  1  0
  1 11  1  0
  1 12  1  0
  3 13  1  0
  4 14  1  0
  5 15  1  0
  6 16  1  0
  6 17  1  0
  7 18  1  0
  8 19  1  0
  8 20  1  0
  9 21  1  0
M  END
