
     RDKit          3D

 20 21  0  0  0  0  0  0  0  0999 V2000
    2.7779    0.1875    0.0151 C   0  0  0  0  0  0  0  0  0  0  0  0
    1.3057    0.2857   -0.0991 C   0  0  0  0  0  0  0  0  0  0  0  0
    0.6163    1.3802   -0.2545 C   0  0  0  0  0  0  0  0  0  0  0  0
   -0.8395    1.0908   -0.3293 C   0  0  0  0  0  0  0  0  0  0  0  0
   -1.4495    0.6646    0.9479 C   0  0  0  0  0  0  0  0  0  0  0  0
   -0.9641   -0.3510   -0.0177 C   0  0  0  0  0  0  0  0  0  0  0  0
   -1.9838   -1.2000   -0.7701 C   0  0  0  0  0  0  0  0  0  0  0  0
    0.4143   -0.8766   -0.0536 C   0  0  0  0  0  0  0  0  0  0  0  0
    3.1565   -0.1050   -0.9978 H   0  0  0  0  0  0  0  0  0  0  0  0
    3.0472   -0.6437    0.7247 H   0  0  0  0  0  0  0  0  0  0  0  0
    3.2218    1.1454    0.3263 H   0  0  0  0  0  0  0  0  0  0  0  0
    1.0230    2.3784   -0.3229 H   0  0  0  0  0  0  0  0  0  0  0  0
   -1.4182    1.5625   -1.1368 H   0  0  0  0  0  0  0  0  0  0  0  0
   -0.9310    0.9184    1.8721 H   0  0  0  0  0  0  0  0  0  0  0  0
   -2.5571    0.7672    1.0027 H   0  0  0  0  0  0  0  0  0  0  0  0
   -2.8720   -0.6148   -1.0707 H   0  0  0  0  0  0  0  0  0  0  0  0
   -2.2673   -2.0481   -0.1004 H   0  0  0  0  0  0  0  0  0  0  0  0
   -1.4936   -1.5667   -1.6792 H   0  0  0  0  0  0  0  0  0  0  0  0
    0.5553   -1.4008   -1.0480 H   0  0  0  0  0  0  0  0  0  0  0  0
    0.6580   -1.5741    0.7812 H   0  0  0  0  0  0  0  0  0  0  0  0
  1  2  1  0
  2  3  2  0
  3  4  1  0
  4  5  1  0
  5  6  1  0
  6  7  1  0
  6  8  1  0
  8  2  1  0
  6  4  1  0
  1  9  1  0
  1 10  1  0
  1 11  1  0
  3 12  1  0
  4 13  1  0
  5 14  1  0
  5 15  1  0
  7 16  1  0
  7 17  1  0
  7 18  1  0
  8 19  1  0
  8 20  1  0
M  END
