
     RDKit          3D

 19 19  0  0  0  0  0  0  0  0999 V2000
    2.4764    0.5128    0.2604 C   0  0  0  0  0  0  0  0  0  0  0  0
    1.0103    0.5945    0.1254 C   0  0  0  0  0  0  0  0  0  0  0  0
    0.4296    1.6771   -0.3396 C   0  0  0  0  0  0  0  0  0  0  0  0
   -1.0354    1.7688   -0.4822 C   0  0  0  0  0  0  0  0  0  0  0  0
   -1.5398    2.8085   -0.9197 O   0  0  0  0  0  0  0  0  0  0  0  0
   -1.7430    0.6181   -0.0891 O   0  0  0  0  0  0  0  0  0  0  0  0
   -1.0375   -0.5993   -0.3097 C   0  0  0  0  0  0  0  0  0  0  0  0
   -1.9056   -1.8001    0.0114 C   0  0  0  0  0  0  0  0  0  0  0  0
    0.1973   -0.5532    0.5520 C   0  0  0  0  0  0  0  0  0  0  0  0
    2.7121    0.5469    1.3404 H   0  0  0  0  0  0  0  0  0  0  0  0
    2.8415   -0.4893   -0.0990 H   0  0  0  0  0  0  0  0  0  0  0  0
    3.0037    1.2847   -0.3250 H   0  0  0  0  0  0  0  0  0  0  0  0
    1.0384    2.5447   -0.6339 H   0  0  0  0  0  0  0  0  0  0  0  0
   -0.7780   -0.6568   -1.3826 H   0  0  0  0  0  0  0  0  0  0  0  0
   -2.4294   -2.1123   -0.8967 H   0  0  0  0  0  0  0  0  0  0  0  0
   -1.2114   -2.6179    0.2983 H   0  0  0  0  0  0  0  0  0  0  0  0
   -2.6065   -1.5537    0.8560 H   0  0  0  0  0  0  0  0  0  0  0  0
   -0.1458   -0.4466    1.6200 H   0  0  0  0  0  0  0  0  0  0  0  0
    0.7231   -1.5271    0.4136 H   0  0  0  0  0  0  0  0  0  0  0  0
  1  2  1  0
  2  3  2  0
  3  4  1  0
  4  5  2  0
  4  6  1  0
  6  7  1  0
  7  8  1  0
  7  9  1  0
  9  2  1  0
  1 10  1  0
  1 11  1  0
  1 12  1  0
  3 13  1  0
  7 14  1  0
  8 15  1  0
  8 16  1  0
  8 17  1  0
  9 18  1  0
  9 19  1  0
M  END
