
     RDKit          3D

 17 18  0  0  0  0  0  0  0  0999 V2000
    1.7708   -0.7228    0.0395 C   0  0  0  0  0  0  0  0  0  0  0  0
    0.6893    0.2606   -0.1649 C   0  0  0  0  0  0  0  0  0  0  0  0
    0.8739    1.4549   -0.6891 C   0  0  0  0  0  0  0  0  0  0  0  0
   -0.4071    2.1453   -0.7365 C   0  0  0  0  0  0  0  0  0  0  0  0
   -0.6262    3.3118   -1.1750 O   0  0  0  0  0  0  0  0  0  0  0  0
   -1.3604    1.2942   -0.2115 O   0  0  0  0  0  0  0  0  0  0  0  0
   -0.7247    0.1164    0.1548 C   0  0  0  0  0  0  0  0  0  0  0  0
   -1.2148   -0.7423    1.2529 C   0  0  0  0  0  0  0  0  0  0  0  0
   -1.3303   -1.2037   -0.1768 C   0  0  0  0  0  0  0  0  0  0  0  0
    2.0761   -0.7986    1.1213 H   0  0  0  0  0  0  0  0  0  0  0  0
    2.6934   -0.4765   -0.5148 H   0  0  0  0  0  0  0  0  0  0  0  0
    1.4157   -1.6918   -0.3409 H   0  0  0  0  0  0  0  0  0  0  0  0
    1.8213    1.8965   -1.0450 H   0  0  0  0  0  0  0  0  0  0  0  0
   -2.1467   -0.3835    1.7632 H   0  0  0  0  0  0  0  0  0  0  0  0
   -0.5409   -1.2996    1.9133 H   0  0  0  0  0  0  0  0  0  0  0  0
   -0.6591   -2.0396   -0.5026 H   0  0  0  0  0  0  0  0  0  0  0  0
   -2.3300   -1.1211   -0.6879 H   0  0  0  0  0  0  0  0  0  0  0  0
  1  2  1  0
  2  3  2  0
  3  4  1  0
  4  5  2  0
  4  6  1  0
  6  7  1  0
  7  8  1  0
  8  9  1  0
  7  2  1  0
  9  7  1  0
  1 10  1  0
  1 11  1  0
  1 12  1  0
  3 13  1  0
  8 14  1  0
  8 15  1  0
  9 16  1  0
  9 17  1  0
M  END
