
     RDKit          3D

 19 21  0  0  0  0  0  0  0  0999 V2000
    2.5743   -0.6034   -0.3552 C   0  0  0  0  0  0  0  0  0  0  0  0
    1.1295   -0.3548   -0.0733 C   0  0  0  0  0  0  0  0  0  0  0  0
    0.4856   -0.7785    0.9940 C   0  0  0  0  0  0  0  0  0  0  0  0
   -0.9383   -0.3679    0.9798 C   0  0  0  0  0  0  0  0  0  0  0  0
   -1.8596   -0.8438   -0.0941 C   0  0  0  0  0  0  0  0  0  0  0  0
   -1.1279    0.4036   -0.3267 C   0  0  0  0  0  0  0  0  0  0  0  0
   -1.5565    1.5879    0.5267 C   0  0  0  0  0  0  0  0  0  0  0  0
   -1.2972    0.7811    1.6500 O   0  0  0  0  0  0  0  0  0  0  0  0
    0.2213    0.4028   -0.9555 C   0  0  0  0  0  0  0  0  0  0  0  0
    2.7124   -1.1612   -1.3136 H   0  0  0  0  0  0  0  0  0  0  0  0
    3.0771    0.3995   -0.4316 H   0  0  0  0  0  0  0  0  0  0  0  0
    3.0496   -1.1317    0.4797 H   0  0  0  0  0  0  0  0  0  0  0  0
    0.9268   -1.3522    1.7846 H   0  0  0  0  0  0  0  0  0  0  0  0
   -1.5878   -1.7109   -0.7137 H   0  0  0  0  0  0  0  0  0  0  0  0
   -2.9456   -0.7355    0.1653 H   0  0  0  0  0  0  0  0  0  0  0  0
   -2.6504    1.7734    0.3973 H   0  0  0  0  0  0  0  0  0  0  0  0
   -0.9405    2.4829    0.4423 H   0  0  0  0  0  0  0  0  0  0  0  0
    0.1352   -0.1804   -1.9192 H   0  0  0  0  0  0  0  0  0  0  0  0
    0.5920    1.3891   -1.2364 H   0  0  0  0  0  0  0  0  0  0  0  0
  1  2  1  0
  2  3  2  0
  3  4  1  0
  4  5  1  0
  5  6  1  0
  6  7  1  0
  7  8  1  0
  6  9  1  0
  9  2  1  0
  6  4  1  0
  8  4  1  0
  1 10  1  0
  1 11  1  0
  1 12  1  0
  3 13  1  0
  5 14  1  0
  5 15  1  0
  7 16  1  0
  7 17  1  0
  9 18  1  0
  9 19  1  0
M  END
