
     RDKit          3D

 19 20  0  0  0  0  0  0  0  0999 V2000
    2.4643   -0.1416   -0.5053 C   0  0  0  0  0  0  0  0  0  0  0  0
    0.9823   -0.0928   -0.2428 C   0  0  0  0  0  0  0  0  0  0  0  0
    0.0670   -0.8094   -0.8776 C   0  0  0  0  0  0  0  0  0  0  0  0
   -1.2971   -0.5123   -0.3665 C   0  0  0  0  0  0  0  0  0  0  0  0
   -1.7595   -1.6968    0.4059 C   0  0  0  0  0  0  0  0  0  0  0  0
   -1.4206   -2.8172    0.0944 O   0  0  0  0  0  0  0  0  0  0  0  0
   -1.1320    0.6192    0.5831 C   0  0  0  0  0  0  0  0  0  0  0  0
   -0.5537    1.9224    0.2113 C   0  0  0  0  0  0  0  0  0  0  0  0
    0.3112    0.7646    0.7639 C   0  0  0  0  0  0  0  0  0  0  0  0
    2.9820    0.4720    0.2328 H   0  0  0  0  0  0  0  0  0  0  0  0
    2.8518   -1.1775   -0.4449 H   0  0  0  0  0  0  0  0  0  0  0  0
    2.6278    0.3137   -1.5138 H   0  0  0  0  0  0  0  0  0  0  0  0
    0.3225   -1.5284   -1.6816 H   0  0  0  0  0  0  0  0  0  0  0  0
   -1.9993   -0.2864   -1.2035 H   0  0  0  0  0  0  0  0  0  0  0  0
   -2.4044   -1.5279    1.2499 H   0  0  0  0  0  0  0  0  0  0  0  0
   -1.8495    0.6117    1.4319 H   0  0  0  0  0  0  0  0  0  0  0  0
   -0.2770    2.1930   -0.8063 H   0  0  0  0  0  0  0  0  0  0  0  0
   -0.7080    2.7566    0.9224 H   0  0  0  0  0  0  0  0  0  0  0  0
    0.7921    0.9370    1.7466 H   0  0  0  0  0  0  0  0  0  0  0  0
  1  2  1  0
  2  3  2  0
  3  4  1  0
  4  5  1  0
  5  6  2  0
  4  7  1  0
  7  8  1  0
  8  9  1  0
  9  2  1  0
  9  7  1  0
  1 10  1  0
  1 11  1  0
  1 12  1  0
  3 13  1  0
  4 14  1  0
  5 15  1  0
  7 16  1  0
  8 17  1  0
  8 18  1  0
  9 19  1  0
M  END
