
     RDKit          3D

 23 23  0  0  0  0  0  0  0  0999 V2000
   -2.7195   -0.0154   -0.0809 C   0  0  0  0  0  0  0  0  0  0  0  0
   -1.3297   -0.6170   -0.2644 C   0  0  0  0  0  0  0  0  0  0  0  0
   -0.4319    0.3648   -0.9169 C   0  0  0  0  0  0  0  0  0  0  0  0
    0.9450    0.4680   -0.3961 C   0  0  0  0  0  0  0  0  0  0  0  0
    1.2261    1.8836    0.1373 C   0  0  0  0  0  0  0  0  0  0  0  0
    1.3621   -0.5200    0.6218 C   0  0  0  0  0  0  0  0  0  0  0  0
    2.5659   -1.1776    0.2697 O   0  0  0  0  0  0  0  0  0  0  0  0
    0.3702   -1.5815    0.9441 C   0  0  0  0  0  0  0  0  0  0  0  0
   -0.9197   -1.0735    0.9637 O   0  0  0  0  0  0  0  0  0  0  0  0
   -3.1729   -0.3259    0.8819 H   0  0  0  0  0  0  0  0  0  0  0  0
   -2.5802    1.1044   -0.0471 H   0  0  0  0  0  0  0  0  0  0  0  0
   -3.3693   -0.2067   -0.9547 H   0  0  0  0  0  0  0  0  0  0  0  0
   -1.4996   -1.5288   -0.9122 H   0  0  0  0  0  0  0  0  0  0  0  0
   -0.9148    1.3872   -0.8691 H   0  0  0  0  0  0  0  0  0  0  0  0
   -0.4476    0.1369   -2.0257 H   0  0  0  0  0  0  0  0  0  0  0  0
    1.6596    0.3720   -1.2688 H   0  0  0  0  0  0  0  0  0  0  0  0
    2.3015    2.0401    0.2533 H   0  0  0  0  0  0  0  0  0  0  0  0
    0.6535    2.0064    1.0845 H   0  0  0  0  0  0  0  0  0  0  0  0
    0.8369    2.5942   -0.6092 H   0  0  0  0  0  0  0  0  0  0  0  0
    1.6180   -0.0046    1.5946 H   0  0  0  0  0  0  0  0  0  0  0  0
    2.7962   -0.8723   -0.6519 H   0  0  0  0  0  0  0  0  0  0  0  0
    0.4786   -2.4642    0.2720 H   0  0  0  0  0  0  0  0  0  0  0  0
    0.5715   -1.9699    1.9744 H   0  0  0  0  0  0  0  0  0  0  0  0
  1  2  1  0
  2  3  1  0
  3  4  1  0
  4  5  1  0
  4  6  1  0
  6  7  1  0
  6  8  1  0
  8  9  1  0
  9  2  1  0
  1 10  1  0
  1 11  1  0
  1 12  1  0
  2 13  1  0
  3 14  1  0
  3 15  1  0
  4 16  1  0
  5 17  1  0
  5 18  1  0
  5 19  1  0
  6 20  1  0
  7 21  1  0
  8 22  1  0
  8 23  1  0
M  END
