
     RDKit          3D

 23 24  0  0  0  0  0  0  0  0999 V2000
   -1.4666    1.8995   -0.0680 C   0  0  0  0  0  0  0  0  0  0  0  0
   -0.8164    0.5800   -0.4549 C   0  0  0  0  0  0  0  0  0  0  0  0
    0.6829    0.8577   -0.5525 C   0  0  0  0  0  0  0  0  0  0  0  0
    1.3632   -0.4258   -0.2756 C   0  0  0  0  0  0  0  0  0  0  0  0
    2.8470   -0.3843   -0.0997 C   0  0  0  0  0  0  0  0  0  0  0  0
    0.8137   -1.6478   -0.5344 O   0  0  0  0  0  0  0  0  0  0  0  0
    0.4752   -1.1158    0.6993 C   0  0  0  0  0  0  0  0  0  0  0  0
   -0.8718   -0.4107    0.6670 C   0  0  0  0  0  0  0  0  0  0  0  0
   -1.9327   -1.4536    0.3387 C   0  0  0  0  0  0  0  0  0  0  0  0
   -2.5277    1.7869    0.1897 H   0  0  0  0  0  0  0  0  0  0  0  0
   -1.2520    2.6450   -0.8421 H   0  0  0  0  0  0  0  0  0  0  0  0
   -0.9463    2.2292    0.8663 H   0  0  0  0  0  0  0  0  0  0  0  0
   -1.1525    0.2046   -1.4200 H   0  0  0  0  0  0  0  0  0  0  0  0
    0.8988    1.5522    0.3116 H   0  0  0  0  0  0  0  0  0  0  0  0
    0.9049    1.3293   -1.5108 H   0  0  0  0  0  0  0  0  0  0  0  0
    3.2303    0.6671   -0.1232 H   0  0  0  0  0  0  0  0  0  0  0  0
    3.0997   -0.7698    0.9066 H   0  0  0  0  0  0  0  0  0  0  0  0
    3.3846   -0.9327   -0.9000 H   0  0  0  0  0  0  0  0  0  0  0  0
    0.8752   -1.5063    1.6283 H   0  0  0  0  0  0  0  0  0  0  0  0
   -1.1207    0.0697    1.6293 H   0  0  0  0  0  0  0  0  0  0  0  0
   -1.7155   -2.4167    0.8653 H   0  0  0  0  0  0  0  0  0  0  0  0
   -2.9474   -1.0841    0.6045 H   0  0  0  0  0  0  0  0  0  0  0  0
   -1.8259   -1.6736   -0.7407 H   0  0  0  0  0  0  0  0  0  0  0  0
  1  2  1  0
  2  3  1  0
  3  4  1  0
  4  5  1  0
  4  6  1  0
  6  7  1  0
  7  8  1  0
  8  9  1  0
  8  2  1  0
  7  4  1  0
  1 10  1  0
  1 11  1  0
  1 12  1  0
  2 13  1  0
  3 14  1  0
  3 15  1  0
  5 16  1  0
  5 17  1  0
  5 18  1  0
  7 19  1  0
  8 20  1  0
  9 21  1  0
  9 22  1  0
  9 23  1  0
M  END
