
     RDKit          3D

 19 19  0  0  0  0  0  0  0  0999 V2000
   -0.6620    1.7917   -0.2737 C   0  0  0  0  0  0  0  0  0  0  0  0
   -0.6174    0.3507   -0.7563 C   0  0  0  0  0  0  0  0  0  0  0  0
   -1.7740   -0.4161   -0.2906 C   0  0  0  0  0  0  0  0  0  0  0  0
   -2.9348   -0.2700   -0.6055 O   0  0  0  0  0  0  0  0  0  0  0  0
   -1.2989   -1.4468    0.6677 C   0  0  0  0  0  0  0  0  0  0  0  0
    0.1795   -1.2773    0.7032 C   0  0  0  0  0  0  0  0  0  0  0  0
    0.5718   -0.2853   -0.0807 C   0  0  0  0  0  0  0  0  0  0  0  0
    1.9574    0.2194   -0.3371 C   0  0  0  0  0  0  0  0  0  0  0  0
    2.9060   -0.4848    0.3666 O   0  0  0  0  0  0  0  0  0  0  0  0
   -0.8225    1.8304    0.8172 H   0  0  0  0  0  0  0  0  0  0  0  0
   -1.5022    2.2753   -0.8473 H   0  0  0  0  0  0  0  0  0  0  0  0
    0.2481    2.3249   -0.5518 H   0  0  0  0  0  0  0  0  0  0  0  0
   -0.4945    0.3533   -1.8585 H   0  0  0  0  0  0  0  0  0  0  0  0
   -1.6012   -2.4781    0.3690 H   0  0  0  0  0  0  0  0  0  0  0  0
   -1.7557   -1.2481    1.6633 H   0  0  0  0  0  0  0  0  0  0  0  0
    0.8364   -1.8894    1.2948 H   0  0  0  0  0  0  0  0  0  0  0  0
    2.1500    0.0246   -1.4296 H   0  0  0  0  0  0  0  0  0  0  0  0
    1.9609    1.2966   -0.1391 H   0  0  0  0  0  0  0  0  0  0  0  0
    2.6531   -0.6711    1.2882 H   0  0  0  0  0  0  0  0  0  0  0  0
  1  2  1  0
  2  3  1  0
  3  4  2  0
  3  5  1  0
  5  6  1  0
  6  7  2  0
  7  8  1  0
  8  9  1  0
  7  2  1  0
  1 10  1  0
  1 11  1  0
  1 12  1  0
  2 13  1  0
  5 14  1  0
  5 15  1  0
  6 16  1  0
  8 17  1  0
  8 18  1  0
  9 19  1  0
M  END
