
     RDKit          3D

 23 24  0  0  0  0  0  0  0  0999 V2000
   -1.9990    1.2454   -0.1359 C   0  0  0  0  0  0  0  0  0  0  0  0
   -1.2618    0.0157   -0.4921 C   0  0  0  0  0  0  0  0  0  0  0  0
   -1.2412   -1.0173    0.6480 C   0  0  0  0  0  0  0  0  0  0  0  0
    0.2003   -1.4733    0.7531 C   0  0  0  0  0  0  0  0  0  0  0  0
    0.6297   -1.2914   -0.7125 C   0  0  0  0  0  0  0  0  0  0  0  0
    0.1982    0.1908   -0.7494 C   0  0  0  0  0  0  0  0  0  0  0  0
    0.9198    0.6337    0.5256 C   0  0  0  0  0  0  0  0  0  0  0  0
    2.3597    0.9558    0.1463 C   0  0  0  0  0  0  0  0  0  0  0  0
    0.9051   -0.4587    1.3780 O   0  0  0  0  0  0  0  0  0  0  0  0
   -1.4460    2.0031    0.4161 H   0  0  0  0  0  0  0  0  0  0  0  0
   -2.9278    0.9393    0.4306 H   0  0  0  0  0  0  0  0  0  0  0  0
   -2.3863    1.7044   -1.0919 H   0  0  0  0  0  0  0  0  0  0  0  0
   -1.7107   -0.4522   -1.4028 H   0  0  0  0  0  0  0  0  0  0  0  0
   -1.8250   -1.9180    0.3364 H   0  0  0  0  0  0  0  0  0  0  0  0
   -1.5857   -0.5804    1.5946 H   0  0  0  0  0  0  0  0  0  0  0  0
    0.3531   -2.4569    1.1308 H   0  0  0  0  0  0  0  0  0  0  0  0
    1.6979   -1.4073   -0.8494 H   0  0  0  0  0  0  0  0  0  0  0  0
   -0.0169   -1.8814   -1.3633 H   0  0  0  0  0  0  0  0  0  0  0  0
    0.4935    0.7030   -1.6356 H   0  0  0  0  0  0  0  0  0  0  0  0
    0.4689    1.5413    0.9493 H   0  0  0  0  0  0  0  0  0  0  0  0
    2.3473    1.5307   -0.7773 H   0  0  0  0  0  0  0  0  0  0  0  0
    2.8951    1.4572    0.9668 H   0  0  0  0  0  0  0  0  0  0  0  0
    2.9317    0.0164   -0.0652 H   0  0  0  0  0  0  0  0  0  0  0  0
  1  2  1  0
  2  3  1  0
  3  4  1  0
  4  5  1  0
  5  6  1  0
  6  7  1  0
  7  8  1  0
  7  9  1  0
  6  2  1  0
  9  4  1  0
  1 10  1  0
  1 11  1  0
  1 12  1  0
  2 13  1  0
  3 14  1  0
  3 15  1  0
  4 16  1  0
  5 17  1  0
  5 18  1  0
  6 19  1  0
  7 20  1  0
  8 21  1  0
  8 22  1  0
  8 23  1  0
M  END
