
     RDKit          3D

 19 20  0  0  0  0  0  0  0  0999 V2000
   -1.2079   -1.2906    0.6037 C   0  0  0  0  0  0  0  0  0  0  0  0
   -0.5301    0.0685    0.7467 C   0  0  0  0  0  0  0  0  0  0  0  0
   -1.3377    1.1800    0.0892 C   0  0  0  0  0  0  0  0  0  0  0  0
   -0.4051    1.1211   -1.1292 C   0  0  0  0  0  0  0  0  0  0  0  0
    0.4708    0.2293   -0.3650 C   0  0  0  0  0  0  0  0  0  0  0  0
    0.8891   -0.9501   -0.9449 O   0  0  0  0  0  0  0  0  0  0  0  0
    1.9926   -0.8901   -0.0593 C   0  0  0  0  0  0  0  0  0  0  0  0
    1.8195    0.5729   -0.0433 C   0  0  0  0  0  0  0  0  0  0  0  0
    2.5015    1.5373    0.1495 O   0  0  0  0  0  0  0  0  0  0  0  0
   -1.3391   -1.7834    1.5858 H   0  0  0  0  0  0  0  0  0  0  0  0
   -0.6093   -1.9851   -0.0233 H   0  0  0  0  0  0  0  0  0  0  0  0
   -2.2190   -1.1549    0.1627 H   0  0  0  0  0  0  0  0  0  0  0  0
   -0.1597    0.2977    1.7520 H   0  0  0  0  0  0  0  0  0  0  0  0
   -1.3252    2.1376    0.6130 H   0  0  0  0  0  0  0  0  0  0  0  0
   -2.3631    0.8454   -0.1763 H   0  0  0  0  0  0  0  0  0  0  0  0
   -0.8974    0.6544   -2.0169 H   0  0  0  0  0  0  0  0  0  0  0  0
    0.0550    2.0935   -1.3747 H   0  0  0  0  0  0  0  0  0  0  0  0
    1.7481   -1.3971    0.9155 H   0  0  0  0  0  0  0  0  0  0  0  0
    2.9170   -1.2866   -0.4853 H   0  0  0  0  0  0  0  0  0  0  0  0
  1  2  1  0
  2  3  1  0
  3  4  1  0
  4  5  1  0
  5  6  1  0
  6  7  1  0
  7  8  1  0
  8  9  2  0
  5  2  1  0
  8  5  1  0
  1 10  1  0
  1 11  1  0
  1 12  1  0
  2 13  1  0
  3 14  1  0
  3 15  1  0
  4 16  1  0
  4 17  1  0
  7 18  1  0
  7 19  1  0
M  END
