
     RDKit          3D

 20 21  0  0  0  0  0  0  0  0999 V2000
   -2.2817   -0.3813    0.8198 C   0  0  0  0  0  0  0  0  0  0  0  0
   -1.1556   -0.0872   -0.0886 C   0  0  0  0  0  0  0  0  0  0  0  0
   -0.4619    1.2532    0.2429 C   0  0  0  0  0  0  0  0  0  0  0  0
    0.8875    0.8988   -0.2711 C   0  0  0  0  0  0  0  0  0  0  0  0
    2.0846    0.4500    0.2920 C   0  0  0  0  0  0  0  0  0  0  0  0
    3.0737   -0.1298   -0.5371 O   0  0  0  0  0  0  0  0  0  0  0  0
    1.0087   -0.3481    0.6989 C   0  0  0  0  0  0  0  0  0  0  0  0
   -0.0286   -1.1348    0.0019 C   0  0  0  0  0  0  0  0  0  0  0  0
   -2.1892    0.0764    1.8034 H   0  0  0  0  0  0  0  0  0  0  0  0
   -3.2181    0.0482    0.3606 H   0  0  0  0  0  0  0  0  0  0  0  0
   -2.4519   -1.4756    0.8412 H   0  0  0  0  0  0  0  0  0  0  0  0
   -1.4147   -0.0097   -1.1594 H   0  0  0  0  0  0  0  0  0  0  0  0
   -0.4931    1.3515    1.3616 H   0  0  0  0  0  0  0  0  0  0  0  0
   -0.9530    2.0921   -0.2504 H   0  0  0  0  0  0  0  0  0  0  0  0
    0.7536    0.6376   -1.3701 H   0  0  0  0  0  0  0  0  0  0  0  0
    2.6073    1.1159    1.0395 H   0  0  0  0  0  0  0  0  0  0  0  0
    3.6904   -0.6918   -0.0251 H   0  0  0  0  0  0  0  0  0  0  0  0
    0.6537   -0.1624    1.7628 H   0  0  0  0  0  0  0  0  0  0  0  0
    0.2495   -1.5200   -0.9776 H   0  0  0  0  0  0  0  0  0  0  0  0
   -0.3614   -1.9829    0.6328 H   0  0  0  0  0  0  0  0  0  0  0  0
  1  2  1  0
  2  3  1  0
  3  4  1  0
  4  5  1  0
  5  6  1  0
  5  7  1  0
  7  8  1  0
  8  2  1  0
  7  4  1  0
  1  9  1  0
  1 10  1  0
  1 11  1  0
  2 12  1  0
  3 13  1  0
  3 14  1  0
  4 15  1  0
  5 16  1  0
  6 17  1  0
  7 18  1  0
  8 19  1  0
  8 20  1  0
M  END
