
     RDKit          3D

 21 23  0  0  0  0  0  0  0  0999 V2000
    2.1386   -0.6971   -0.1135 C   0  0  0  0  0  0  0  0  0  0  0  0
    0.7722   -0.4319   -0.6291 C   0  0  0  0  0  0  0  0  0  0  0  0
   -0.3378   -1.0061    0.1803 C   0  0  0  0  0  0  0  0  0  0  0  0
   -1.6454   -0.5906   -0.4769 C   0  0  0  0  0  0  0  0  0  0  0  0
   -1.4662    0.9333   -0.4534 C   0  0  0  0  0  0  0  0  0  0  0  0
   -0.5839    1.3510   -1.4511 O   0  0  0  0  0  0  0  0  0  0  0  0
    0.4665    1.0679   -0.5641 C   0  0  0  0  0  0  0  0  0  0  0  0
   -0.4577    1.2421    0.5910 C   0  0  0  0  0  0  0  0  0  0  0  0
   -0.3665   -0.0451    1.3789 C   0  0  0  0  0  0  0  0  0  0  0  0
    2.5521   -1.6633   -0.4547 H   0  0  0  0  0  0  0  0  0  0  0  0
    2.8099    0.1272   -0.4819 H   0  0  0  0  0  0  0  0  0  0  0  0
    2.2259   -0.6724    0.9899 H   0  0  0  0  0  0  0  0  0  0  0  0
    0.7407   -0.7429   -1.7020 H   0  0  0  0  0  0  0  0  0  0  0  0
   -0.2736   -2.0367    0.4521 H   0  0  0  0  0  0  0  0  0  0  0  0
   -1.7547   -0.9793   -1.4880 H   0  0  0  0  0  0  0  0  0  0  0  0
   -2.4484   -0.8754    0.2258 H   0  0  0  0  0  0  0  0  0  0  0  0
   -2.3984    1.4957   -0.3628 H   0  0  0  0  0  0  0  0  0  0  0  0
    1.3256    1.7246   -0.6519 H   0  0  0  0  0  0  0  0  0  0  0  0
   -0.4876    2.1663    1.1218 H   0  0  0  0  0  0  0  0  0  0  0  0
    0.5168   -0.1280    2.0016 H   0  0  0  0  0  0  0  0  0  0  0  0
   -1.3279   -0.2391    1.8880 H   0  0  0  0  0  0  0  0  0  0  0  0
  1  2  1  0
  2  3  1  0
  3  4  1  0
  4  5  1  0
  5  6  1  0
  6  7  1  0
  7  8  1  0
  8  9  1  0
  7  2  1  0
  9  3  1  0
  8  5  1  0
  1 10  1  0
  1 11  1  0
  1 12  1  0
  2 13  1  0
  3 14  1  0
  4 15  1  0
  4 16  1  0
  5 17  1  0
  7 18  1  0
  8 19  1  0
  9 20  1  0
  9 21  1  0
M  END
