
     RDKit          3D

 21 21  0  0  0  0  0  0  0  0999 V2000
   -2.5730    0.9912   -0.2520 C   0  0  0  0  0  0  0  0  0  0  0  0
   -1.2698    0.3299   -0.6249 C   0  0  0  0  0  0  0  0  0  0  0  0
   -0.9895   -0.9672    0.0353 C   0  0  0  0  0  0  0  0  0  0  0  0
   -1.8637   -1.4884    1.1399 C   0  0  0  0  0  0  0  0  0  0  0  0
   -0.1933    0.2652    0.3929 C   0  0  0  0  0  0  0  0  0  0  0  0
    1.2071    0.2151   -0.0239 C   0  0  0  0  0  0  0  0  0  0  0  0
    2.3746    0.1557   -0.3598 C   0  0  0  0  0  0  0  0  0  0  0  0
    3.7850    0.1051   -0.7760 C   0  0  0  0  0  0  0  0  0  0  0  0
    4.3897    1.3382   -0.4882 O   0  0  0  0  0  0  0  0  0  0  0  0
   -3.3825    0.6121   -0.8960 H   0  0  0  0  0  0  0  0  0  0  0  0
   -2.7483    0.8006    0.8283 H   0  0  0  0  0  0  0  0  0  0  0  0
   -2.5491    2.0942   -0.3885 H   0  0  0  0  0  0  0  0  0  0  0  0
   -1.0238    0.4450   -1.7081 H   0  0  0  0  0  0  0  0  0  0  0  0
   -0.5088   -1.7297   -0.6180 H   0  0  0  0  0  0  0  0  0  0  0  0
   -1.6221   -2.5595    1.3033 H   0  0  0  0  0  0  0  0  0  0  0  0
   -2.9461   -1.4073    0.9220 H   0  0  0  0  0  0  0  0  0  0  0  0
   -1.6560   -0.9859    2.1167 H   0  0  0  0  0  0  0  0  0  0  0  0
   -0.3900    0.7582    1.3615 H   0  0  0  0  0  0  0  0  0  0  0  0
    3.7874   -0.1080   -1.8508 H   0  0  0  0  0  0  0  0  0  0  0  0
    4.3501   -0.6588   -0.1763 H   0  0  0  0  0  0  0  0  0  0  0  0
    3.8221    1.7944    0.2033 H   0  0  0  0  0  0  0  0  0  0  0  0
  1  2  1  0
  2  3  1  0
  3  4  1  0
  3  5  1  0
  5  6  1  0
  6  7  3  0
  7  8  1  0
  8  9  1  0
  5  2  1  0
  1 10  1  0
  1 11  1  0
  1 12  1  0
  2 13  1  0
  3 14  1  0
  4 15  1  0
  4 16  1  0
  4 17  1  0
  5 18  1  0
  8 19  1  0
  8 20  1  0
  9 21  1  0
M  END
