
     RDKit          3D

 25 26  0  0  0  0  0  0  0  0999 V2000
    2.2181    0.5391   -0.6730 C   0  0  0  0  0  0  0  0  0  0  0  0
    1.1102    0.3191    0.2664 C   0  0  0  0  0  0  0  0  0  0  0  0
   -0.2340    0.8843   -0.0722 C   0  0  0  0  0  0  0  0  0  0  0  0
   -0.5918    2.2025   -0.1862 C   0  0  0  0  0  0  0  0  0  0  0  0
   -0.3500   -0.1990   -1.0997 C   0  0  0  0  0  0  0  0  0  0  0  0
    0.2443   -0.8902    0.0854 C   0  0  0  0  0  0  0  0  0  0  0  0
    0.5898   -2.2083    0.2230 C   0  0  0  0  0  0  0  0  0  0  0  0
   -0.7486   -0.1187    0.9260 C   0  0  0  0  0  0  0  0  0  0  0  0
   -2.1744   -0.5237    0.7986 C   0  0  0  0  0  0  0  0  0  0  0  0
    1.9704    1.1426   -1.5710 H   0  0  0  0  0  0  0  0  0  0  0  0
    2.7372   -0.4188   -0.9585 H   0  0  0  0  0  0  0  0  0  0  0  0
    3.0218    1.1287   -0.1426 H   0  0  0  0  0  0  0  0  0  0  0  0
    1.3263    0.5038    1.3476 H   0  0  0  0  0  0  0  0  0  0  0  0
    0.2439    2.8636   -0.5336 H   0  0  0  0  0  0  0  0  0  0  0  0
   -1.4027    2.3631   -0.9559 H   0  0  0  0  0  0  0  0  0  0  0  0
   -0.9431    2.6560    0.7643 H   0  0  0  0  0  0  0  0  0  0  0  0
    0.2923   -0.0209   -1.9608 H   0  0  0  0  0  0  0  0  0  0  0  0
   -1.3699   -0.4703   -1.3875 H   0  0  0  0  0  0  0  0  0  0  0  0
    0.3773   -2.8243   -0.7010 H   0  0  0  0  0  0  0  0  0  0  0  0
    0.0699   -2.7537    1.0378 H   0  0  0  0  0  0  0  0  0  0  0  0
    1.6800   -2.3863    0.4100 H   0  0  0  0  0  0  0  0  0  0  0  0
   -0.3846    0.1153    1.9298 H   0  0  0  0  0  0  0  0  0  0  0  0
   -2.2638   -1.6191    0.5944 H   0  0  0  0  0  0  0  0  0  0  0  0
   -2.6653   -0.3669    1.7851 H   0  0  0  0  0  0  0  0  0  0  0  0
   -2.7534    0.0821    0.0737 H   0  0  0  0  0  0  0  0  0  0  0  0
  1  2  1  0
  2  3  1  0
  3  4  1  0
  3  5  1  0
  5  6  1  0
  6  7  1  0
  6  8  1  0
  8  9  1  0
  6  2  1  0
  8  3  1  0
  1 10  1  0
  1 11  1  0
  1 12  1  0
  2 13  1  0
  4 14  1  0
  4 15  1  0
  4 16  1  0
  5 17  1  0
  5 18  1  0
  7 19  1  0
  7 20  1  0
  7 21  1  0
  8 22  1  0
  9 23  1  0
  9 24  1  0
  9 25  1  0
M  END
