
     RDKit          3D

 21 22  0  0  0  0  0  0  0  0999 V2000
    2.8540    0.1049   -0.0817 C   0  0  0  0  0  0  0  0  0  0  0  0
    1.5668    0.5740   -0.7218 C   0  0  0  0  0  0  0  0  0  0  0  0
    0.5315   -0.4900   -0.9513 C   0  0  0  0  0  0  0  0  0  0  0  0
   -0.1311    0.2104    0.1610 C   0  0  0  0  0  0  0  0  0  0  0  0
   -0.6374   -0.5383    1.3271 C   0  0  0  0  0  0  0  0  0  0  0  0
   -1.5429    0.2718    0.4459 C   0  0  0  0  0  0  0  0  0  0  0  0
   -2.5854   -0.4482   -0.3945 C   0  0  0  0  0  0  0  0  0  0  0  0
   -2.0740    1.4048    1.1050 O   0  0  0  0  0  0  0  0  0  0  0  0
    0.7638    1.2268    0.2293 O   0  0  0  0  0  0  0  0  0  0  0  0
    2.7064   -0.1169    0.9842 H   0  0  0  0  0  0  0  0  0  0  0  0
    3.6235    0.8834   -0.2062 H   0  0  0  0  0  0  0  0  0  0  0  0
    3.2135   -0.8026   -0.6118 H   0  0  0  0  0  0  0  0  0  0  0  0
    1.7152    1.1844   -1.6408 H   0  0  0  0  0  0  0  0  0  0  0  0
    0.0476   -0.4989   -1.9388 H   0  0  0  0  0  0  0  0  0  0  0  0
    0.9368   -1.4823   -0.6111 H   0  0  0  0  0  0  0  0  0  0  0  0
   -0.6131   -1.6339    1.2499 H   0  0  0  0  0  0  0  0  0  0  0  0
   -0.3045   -0.1140    2.3139 H   0  0  0  0  0  0  0  0  0  0  0  0
   -2.1460   -0.9695   -1.2582 H   0  0  0  0  0  0  0  0  0  0  0  0
   -3.3368    0.2923   -0.7489 H   0  0  0  0  0  0  0  0  0  0  0  0
   -3.1627   -1.1901    0.2066 H   0  0  0  0  0  0  0  0  0  0  0  0
   -1.4250    2.1320    1.1423 H   0  0  0  0  0  0  0  0  0  0  0  0
  1  2  1  0
  2  3  1  0
  3  4  1  0
  4  5  1  0
  5  6  1  0
  6  7  1  0
  6  8  1  0
  4  9  1  0
  9  2  1  0
  6  4  1  0
  1 10  1  0
  1 11  1  0
  1 12  1  0
  2 13  1  0
  3 14  1  0
  3 15  1  0
  5 16  1  0
  5 17  1  0
  7 18  1  0
  7 19  1  0
  7 20  1  0
  8 21  1  0
M  END
