
     RDKit          3D

 19 19  0  0  0  0  0  0  0  0999 V2000
    2.3713    0.1356   -0.2489 C   0  0  0  0  0  0  0  0  0  0  0  0
    1.0361   -0.0479    0.3891 C   0  0  0  0  0  0  0  0  0  0  0  0
    0.1192   -0.9805   -0.4151 C   0  0  0  0  0  0  0  0  0  0  0  0
   -1.0286   -0.0712    0.0167 C   0  0  0  0  0  0  0  0  0  0  0  0
   -1.6298   -0.4668    1.3057 C   0  0  0  0  0  0  0  0  0  0  0  0
   -1.0712   -0.4349    2.3774 O   0  0  0  0  0  0  0  0  0  0  0  0
   -2.0163    0.2343   -1.0198 C   0  0  0  0  0  0  0  0  0  0  0  0
   -2.3753    1.3843   -1.2027 O   0  0  0  0  0  0  0  0  0  0  0  0
    0.0188    1.0451    0.1311 C   0  0  0  0  0  0  0  0  0  0  0  0
    2.7354    1.1734   -0.2227 H   0  0  0  0  0  0  0  0  0  0  0  0
    2.4037   -0.2934   -1.2655 H   0  0  0  0  0  0  0  0  0  0  0  0
    3.1191   -0.4573    0.3545 H   0  0  0  0  0  0  0  0  0  0  0  0
    1.0745   -0.2725    1.4618 H   0  0  0  0  0  0  0  0  0  0  0  0
    0.0810   -1.9779    0.0299 H   0  0  0  0  0  0  0  0  0  0  0  0
    0.3664   -0.9018   -1.4791 H   0  0  0  0  0  0  0  0  0  0  0  0
   -2.6649   -0.8201    1.3100 H   0  0  0  0  0  0  0  0  0  0  0  0
   -2.4613   -0.5196   -1.6530 H   0  0  0  0  0  0  0  0  0  0  0  0
    0.1379    1.5714   -0.8392 H   0  0  0  0  0  0  0  0  0  0  0  0
   -0.2160    1.6998    0.9697 H   0  0  0  0  0  0  0  0  0  0  0  0
  1  2  1  0
  2  3  1  0
  3  4  1  0
  4  5  1  0
  5  6  2  0
  4  7  1  0
  7  8  2  0
  4  9  1  0
  9  2  1  0
  1 10  1  0
  1 11  1  0
  1 12  1  0
  2 13  1  0
  3 14  1  0
  3 15  1  0
  5 16  1  0
  7 17  1  0
  9 18  1  0
  9 19  1  0
M  END
