
     RDKit          3D

 21 22  0  0  0  0  0  0  0  0999 V2000
    2.3808    0.6330    0.2436 C   0  0  0  0  0  0  0  0  0  0  0  0
    1.0802    0.3442   -0.5129 C   0  0  0  0  0  0  0  0  0  0  0  0
    0.9889   -1.0905   -0.9393 C   0  0  0  0  0  0  0  0  0  0  0  0
   -0.3162   -1.3206   -1.3685 O   0  0  0  0  0  0  0  0  0  0  0  0
   -1.2062   -1.3107   -0.3243 C   0  0  0  0  0  0  0  0  0  0  0  0
   -1.2234   -0.0478    0.4369 C   0  0  0  0  0  0  0  0  0  0  0  0
   -2.5474    0.6723    0.7004 C   0  0  0  0  0  0  0  0  0  0  0  0
   -1.9213   -0.0964    1.6673 O   0  0  0  0  0  0  0  0  0  0  0  0
   -0.0392    0.8206    0.3287 C   0  0  0  0  0  0  0  0  0  0  0  0
    2.1599    0.7778    1.3387 H   0  0  0  0  0  0  0  0  0  0  0  0
    3.1174   -0.1579    0.1327 H   0  0  0  0  0  0  0  0  0  0  0  0
    2.8332    1.5936   -0.0829 H   0  0  0  0  0  0  0  0  0  0  0  0
    1.1772    0.9426   -1.4675 H   0  0  0  0  0  0  0  0  0  0  0  0
    1.2831   -1.8172   -0.1880 H   0  0  0  0  0  0  0  0  0  0  0  0
    1.6326   -1.2314   -1.8574 H   0  0  0  0  0  0  0  0  0  0  0  0
   -2.2325   -1.4580   -0.7745 H   0  0  0  0  0  0  0  0  0  0  0  0
   -1.0892   -2.2020    0.3566 H   0  0  0  0  0  0  0  0  0  0  0  0
   -3.4665    0.2637    0.2325 H   0  0  0  0  0  0  0  0  0  0  0  0
   -2.5218    1.7862    0.7920 H   0  0  0  0  0  0  0  0  0  0  0  0
    0.2918    1.0855    1.3768 H   0  0  0  0  0  0  0  0  0  0  0  0
   -0.3812    1.8130   -0.0909 H   0  0  0  0  0  0  0  0  0  0  0  0
  1  2  1  0
  2  3  1  0
  3  4  1  0
  4  5  1  0
  5  6  1  0
  6  7  1  0
  7  8  1  0
  6  9  1  0
  9  2  1  0
  8  6  1  0
  1 10  1  0
  1 11  1  0
  1 12  1  0
  2 13  1  0
  3 14  1  0
  3 15  1  0
  5 16  1  0
  5 17  1  0
  7 18  1  0
  7 19  1  0
  9 20  1  0
  9 21  1  0
M  END
