
     RDKit          3D

 17 17  0  0  0  0  0  0  0  0999 V2000
   -1.9959    0.9954   -0.1109 C   0  0  0  0  0  0  0  0  0  0  0  0
   -0.6603    0.4198   -0.4548 C   0  0  0  0  0  0  0  0  0  0  0  0
   -0.4482   -0.9968   -0.7403 C   0  0  0  0  0  0  0  0  0  0  0  0
   -0.0724   -0.5018    0.5949 C   0  0  0  0  0  0  0  0  0  0  0  0
    1.3606   -0.1794    0.9603 C   0  0  0  0  0  0  0  0  0  0  0  0
    2.2348   -0.2724   -0.2174 C   0  0  0  0  0  0  0  0  0  0  0  0
    2.7603    0.7183   -0.7362 O   0  0  0  0  0  0  0  0  0  0  0  0
   -2.8581    0.4265   -0.4650 H   0  0  0  0  0  0  0  0  0  0  0  0
   -2.0965    2.0540   -0.4733 H   0  0  0  0  0  0  0  0  0  0  0  0
   -2.1152    1.0430    0.9977 H   0  0  0  0  0  0  0  0  0  0  0  0
    0.0210    1.1183   -1.0130 H   0  0  0  0  0  0  0  0  0  0  0  0
   -1.3271   -1.6717   -0.7913 H   0  0  0  0  0  0  0  0  0  0  0  0
    0.3673   -1.3128   -1.4047 H   0  0  0  0  0  0  0  0  0  0  0  0
   -0.7012   -0.8055    1.4453 H   0  0  0  0  0  0  0  0  0  0  0  0
    1.3647    0.9116    1.2537 H   0  0  0  0  0  0  0  0  0  0  0  0
    1.6989   -0.7083    1.8558 H   0  0  0  0  0  0  0  0  0  0  0  0
    2.4675   -1.2382   -0.7009 H   0  0  0  0  0  0  0  0  0  0  0  0
  1  2  1  0
  2  3  1  0
  3  4  1  0
  4  5  1  0
  5  6  1  0
  6  7  2  0
  4  2  1  0
  1  8  1  0
  1  9  1  0
  1 10  1  0
  2 11  1  0
  3 12  1  0
  3 13  1  0
  4 14  1  0
  5 15  1  0
  5 16  1  0
  6 17  1  0
M  END
