
     RDKit          3D

 23 24  0  0  0  0  0  0  0  0999 V2000
    2.5702    0.0003   -0.0322 C   0  0  0  0  0  0  0  0  0  0  0  0
    1.1264   -0.3739    0.0126 C   0  0  0  0  0  0  0  0  0  0  0  0
    0.5218   -0.5474   -1.3786 C   0  0  0  0  0  0  0  0  0  0  0  0
   -0.9490   -0.5625   -1.0987 C   0  0  0  0  0  0  0  0  0  0  0  0
   -1.7656    0.6484   -1.0081 C   0  0  0  0  0  0  0  0  0  0  0  0
   -1.1306    0.1840    0.2230 C   0  0  0  0  0  0  0  0  0  0  0  0
   -1.8062   -0.6029    1.2798 C   0  0  0  0  0  0  0  0  0  0  0  0
    0.2466    0.7637    0.5414 C   0  0  0  0  0  0  0  0  0  0  0  0
    0.4222    0.9743    1.8892 O   0  0  0  0  0  0  0  0  0  0  0  0
    3.0946   -0.7233   -0.6854 H   0  0  0  0  0  0  0  0  0  0  0  0
    2.9922   -0.1090    0.9735 H   0  0  0  0  0  0  0  0  0  0  0  0
    2.7044    1.0348   -0.3592 H   0  0  0  0  0  0  0  0  0  0  0  0
    0.9222   -1.2975    0.5581 H   0  0  0  0  0  0  0  0  0  0  0  0
    0.8660   -1.5071   -1.8025 H   0  0  0  0  0  0  0  0  0  0  0  0
    0.8087    0.2672   -2.0630 H   0  0  0  0  0  0  0  0  0  0  0  0
   -1.4530   -1.5347   -1.2319 H   0  0  0  0  0  0  0  0  0  0  0  0
   -1.4001    1.6469   -1.3924 H   0  0  0  0  0  0  0  0  0  0  0  0
   -2.8512    0.5306   -1.1931 H   0  0  0  0  0  0  0  0  0  0  0  0
   -2.8992   -0.4492    1.3330 H   0  0  0  0  0  0  0  0  0  0  0  0
   -1.6144   -1.6869    1.2124 H   0  0  0  0  0  0  0  0  0  0  0  0
   -1.3930   -0.2713    2.2730 H   0  0  0  0  0  0  0  0  0  0  0  0
    0.3986    1.6653   -0.0725 H   0  0  0  0  0  0  0  0  0  0  0  0
    0.5885    1.9502    2.0218 H   0  0  0  0  0  0  0  0  0  0  0  0
  1  2  1  0
  2  3  1  0
  3  4  1  0
  4  5  1  0
  5  6  1  0
  6  7  1  0
  6  8  1  0
  8  9  1  0
  8  2  1  0
  6  4  1  0
  1 10  1  0
  1 11  1  0
  1 12  1  0
  2 13  1  0
  3 14  1  0
  3 15  1  0
  4 16  1  0
  5 17  1  0
  5 18  1  0
  7 19  1  0
  7 20  1  0
  7 21  1  0
  8 22  1  0
  9 23  1  0
M  END
