
     RDKit          3D

 21 24  0  0  0  0  0  0  0  0999 V2000
    2.9015    0.2171    0.4165 C   0  0  0  0  0  0  0  0  0  0  0  0
    1.4543    0.4395    0.0755 C   0  0  0  0  0  0  0  0  0  0  0  0
    0.6704   -0.7401   -0.3705 C   0  0  0  0  0  0  0  0  0  0  0  0
   -0.7260   -0.5611   -0.8925 C   0  0  0  0  0  0  0  0  0  0  0  0
   -1.6770   -0.8012    0.2463 C   0  0  0  0  0  0  0  0  0  0  0  0
   -2.5407    0.2603   -0.3704 C   0  0  0  0  0  0  0  0  0  0  0  0
   -1.1484    0.8143   -0.4887 C   0  0  0  0  0  0  0  0  0  0  0  0
   -0.9513    0.3240    0.9200 C   0  0  0  0  0  0  0  0  0  0  0  0
    0.4766   -0.1086    1.0519 C   0  0  0  0  0  0  0  0  0  0  0  0
    3.2038    0.9976    1.1530 H   0  0  0  0  0  0  0  0  0  0  0  0
    3.0296   -0.7634    0.9495 H   0  0  0  0  0  0  0  0  0  0  0  0
    3.5683    0.2515   -0.4539 H   0  0  0  0  0  0  0  0  0  0  0  0
    1.2221    1.3853   -0.4273 H   0  0  0  0  0  0  0  0  0  0  0  0
    1.1602   -1.7093   -0.4129 H   0  0  0  0  0  0  0  0  0  0  0  0
   -0.9747   -0.9308   -1.8665 H   0  0  0  0  0  0  0  0  0  0  0  0
   -1.9585   -1.6761    0.6349 H   0  0  0  0  0  0  0  0  0  0  0  0
   -3.1198    0.8730    0.3601 H   0  0  0  0  0  0  0  0  0  0  0  0
   -3.0479   -0.0300   -1.2861 H   0  0  0  0  0  0  0  0  0  0  0  0
   -0.8692    1.6925   -0.8722 H   0  0  0  0  0  0  0  0  0  0  0  0
   -1.4241    0.8502    1.7248 H   0  0  0  0  0  0  0  0  0  0  0  0
    0.7506   -0.7845    1.8586 H   0  0  0  0  0  0  0  0  0  0  0  0
  1  2  1  0
  2  3  1  0
  3  4  1  0
  4  5  1  0
  5  6  1  0
  6  7  1  0
  7  8  1  0
  8  9  1  0
  9  2  1  0
  9  3  1  0
  7  4  1  0
  8  5  1  0
  1 10  1  0
  1 11  1  0
  1 12  1  0
  2 13  1  0
  3 14  1  0
  4 15  1  0
  5 16  1  0
  6 17  1  0
  6 18  1  0
  7 19  1  0
  8 20  1  0
  9 21  1  0
M  END
