
     RDKit          3D

 15 15  0  0  0  0  0  0  0  0999 V2000
   -2.1250    0.5905    0.2224 C   0  0  0  0  0  0  0  0  0  0  0  0
   -1.0654   -0.4503   -0.1088 C   0  0  0  0  0  0  0  0  0  0  0  0
    0.1170   -0.3278    0.7529 C   0  0  0  0  0  0  0  0  0  0  0  0
    1.1884   -0.1468   -0.0345 C   0  0  0  0  0  0  0  0  0  0  0  0
    2.5695    0.0210    0.4194 C   0  0  0  0  0  0  0  0  0  0  0  0
    2.8176    0.0009    1.6268 O   0  0  0  0  0  0  0  0  0  0  0  0
    0.7652   -0.1425   -1.4235 C   0  0  0  0  0  0  0  0  0  0  0  0
    1.5438    0.0086   -2.4326 O   0  0  0  0  0  0  0  0  0  0  0  0
   -0.6031   -0.3281   -1.4374 O   0  0  0  0  0  0  0  0  0  0  0  0
   -3.1203    0.1207    0.0633 H   0  0  0  0  0  0  0  0  0  0  0  0
   -2.0014    1.5019   -0.4015 H   0  0  0  0  0  0  0  0  0  0  0  0
   -2.0339    0.8372    1.2925 H   0  0  0  0  0  0  0  0  0  0  0  0
   -1.5200   -1.4705   -0.0330 H   0  0  0  0  0  0  0  0  0  0  0  0
    0.1347   -0.3726    1.8134 H   0  0  0  0  0  0  0  0  0  0  0  0
    3.3330    0.1579   -0.3195 H   0  0  0  0  0  0  0  0  0  0  0  0
  1  2  1  0
  2  3  1  0
  3  4  2  0
  4  5  1  0
  5  6  2  0
  4  7  1  0
  7  8  2  0
  7  9  1  0
  9  2  1  0
  1 10  1  0
  1 11  1  0
  1 12  1  0
  2 13  1  0
  3 14  1  0
  5 15  1  0
M  END
