
     RDKit          3D

 23 23  0  0  0  0  0  0  0  0999 V2000
   -1.4762    1.7489    0.1442 C   0  0  0  0  0  0  0  0  0  0  0  0
   -0.2014    1.0077    0.2999 C   0  0  0  0  0  0  0  0  0  0  0  0
    0.5029    0.7797   -1.0452 C   0  0  0  0  0  0  0  0  0  0  0  0
    1.6552   -0.1062   -0.5482 C   0  0  0  0  0  0  0  0  0  0  0  0
    2.5158    0.6619    0.2351 O   0  0  0  0  0  0  0  0  0  0  0  0
    0.9005   -1.0951    0.3178 C   0  0  0  0  0  0  0  0  0  0  0  0
    0.6064   -2.1924   -0.4981 O   0  0  0  0  0  0  0  0  0  0  0  0
   -0.3629   -0.4176    0.7639 C   0  0  0  0  0  0  0  0  0  0  0  0
   -1.5732   -1.0743    0.1495 C   0  0  0  0  0  0  0  0  0  0  0  0
   -2.2391    1.5342    0.8893 H   0  0  0  0  0  0  0  0  0  0  0  0
   -1.2726    2.8510    0.2025 H   0  0  0  0  0  0  0  0  0  0  0  0
   -1.8807    1.5707   -0.8651 H   0  0  0  0  0  0  0  0  0  0  0  0
    0.5513    1.5074    0.9424 H   0  0  0  0  0  0  0  0  0  0  0  0
    0.8500    1.7117   -1.4791 H   0  0  0  0  0  0  0  0  0  0  0  0
   -0.1459    0.1656   -1.6984 H   0  0  0  0  0  0  0  0  0  0  0  0
    2.1527   -0.6205   -1.3756 H   0  0  0  0  0  0  0  0  0  0  0  0
    2.5372    0.3976    1.1758 H   0  0  0  0  0  0  0  0  0  0  0  0
    1.5263   -1.4209    1.1718 H   0  0  0  0  0  0  0  0  0  0  0  0
    1.3882   -2.7463   -0.6661 H   0  0  0  0  0  0  0  0  0  0  0  0
   -0.4096   -0.3875    1.8784 H   0  0  0  0  0  0  0  0  0  0  0  0
   -1.2989   -1.8722   -0.5880 H   0  0  0  0  0  0  0  0  0  0  0  0
   -2.2339   -0.3809   -0.3836 H   0  0  0  0  0  0  0  0  0  0  0  0
   -2.0922   -1.6221    0.9766 H   0  0  0  0  0  0  0  0  0  0  0  0
  1  2  1  0
  2  3  1  0
  3  4  1  0
  4  5  1  0
  4  6  1  0
  6  7  1  0
  6  8  1  0
  8  9  1  0
  8  2  1  0
  1 10  1  0
  1 11  1  0
  1 12  1  0
  2 13  1  0
  3 14  1  0
  3 15  1  0
  4 16  1  0
  5 17  1  0
  6 18  1  0
  7 19  1  0
  8 20  1  0
  9 21  1  0
  9 22  1  0
  9 23  1  0
M  END
