
     RDKit          3D

 23 23  0  0  0  0  0  0  0  0999 V2000
   -0.5391    2.0150    0.2328 C   0  0  0  0  0  0  0  0  0  0  0  0
   -0.0891    0.6445   -0.1406 C   0  0  0  0  0  0  0  0  0  0  0  0
    0.8267   -0.0574    0.8021 C   0  0  0  0  0  0  0  0  0  0  0  0
    2.2519   -0.2234    0.3185 C   0  0  0  0  0  0  0  0  0  0  0  0
    2.3148   -0.9502   -0.8510 O   0  0  0  0  0  0  0  0  0  0  0  0
    0.0560   -1.3505    0.5007 C   0  0  0  0  0  0  0  0  0  0  0  0
   -1.0922   -0.4677    0.0497 C   0  0  0  0  0  0  0  0  0  0  0  0
   -1.7564   -0.8687   -1.2256 C   0  0  0  0  0  0  0  0  0  0  0  0
   -2.0027   -0.2947    1.0625 O   0  0  0  0  0  0  0  0  0  0  0  0
   -0.1756    2.7594   -0.5364 H   0  0  0  0  0  0  0  0  0  0  0  0
   -1.6451    2.1283    0.2314 H   0  0  0  0  0  0  0  0  0  0  0  0
   -0.1014    2.2806    1.2350 H   0  0  0  0  0  0  0  0  0  0  0  0
    0.3000    0.6081   -1.1967 H   0  0  0  0  0  0  0  0  0  0  0  0
    0.7638    0.2362    1.8502 H   0  0  0  0  0  0  0  0  0  0  0  0
    2.8477   -0.7089    1.1104 H   0  0  0  0  0  0  0  0  0  0  0  0
    2.6799    0.7912    0.1533 H   0  0  0  0  0  0  0  0  0  0  0  0
    2.8197   -0.4480   -1.5650 H   0  0  0  0  0  0  0  0  0  0  0  0
   -0.1382   -1.9332    1.4166 H   0  0  0  0  0  0  0  0  0  0  0  0
    0.5116   -1.9534   -0.2949 H   0  0  0  0  0  0  0  0  0  0  0  0
   -1.0279   -1.0946   -2.0304 H   0  0  0  0  0  0  0  0  0  0  0  0
   -2.4800   -1.6892   -1.0592 H   0  0  0  0  0  0  0  0  0  0  0  0
   -2.3620    0.0058   -1.5762 H   0  0  0  0  0  0  0  0  0  0  0  0
   -1.9623    0.5708    1.5129 H   0  0  0  0  0  0  0  0  0  0  0  0
  1  2  1  0
  2  3  1  0
  3  4  1  0
  4  5  1  0
  3  6  1  0
  6  7  1  0
  7  8  1  0
  7  9  1  0
  7  2  1  0
  1 10  1  0
  1 11  1  0
  1 12  1  0
  2 13  1  0
  3 14  1  0
  4 15  1  0
  4 16  1  0
  5 17  1  0
  6 18  1  0
  6 19  1  0
  8 20  1  0
  8 21  1  0
  8 22  1  0
  9 23  1  0
M  END
