
     RDKit          3D

 25 25  0  0  0  0  0  0  0  0999 V2000
    2.4277    0.2075   -0.3608 C   0  0  0  0  0  0  0  0  0  0  0  0
    1.0674   -0.3405   -0.5983 C   0  0  0  0  0  0  0  0  0  0  0  0
    0.6808   -1.4789    0.2874 C   0  0  0  0  0  0  0  0  0  0  0  0
   -0.8213   -1.3530    0.5404 C   0  0  0  0  0  0  0  0  0  0  0  0
   -1.2215   -0.2722   -0.4136 C   0  0  0  0  0  0  0  0  0  0  0  0
   -2.5275    0.3567   -0.1607 C   0  0  0  0  0  0  0  0  0  0  0  0
   -0.0397    0.6799   -0.2858 C   0  0  0  0  0  0  0  0  0  0  0  0
    0.1389    1.1691    1.1313 C   0  0  0  0  0  0  0  0  0  0  0  0
   -0.0605    1.6867   -1.2156 O   0  0  0  0  0  0  0  0  0  0  0  0
    3.0590   -0.6305    0.0553 H   0  0  0  0  0  0  0  0  0  0  0  0
    2.8995    0.5767   -1.2982 H   0  0  0  0  0  0  0  0  0  0  0  0
    2.4080    1.0571    0.3489 H   0  0  0  0  0  0  0  0  0  0  0  0
    0.8782   -0.6391   -1.6630 H   0  0  0  0  0  0  0  0  0  0  0  0
    1.2673   -1.4298    1.2107 H   0  0  0  0  0  0  0  0  0  0  0  0
    0.8705   -2.4791   -0.1624 H   0  0  0  0  0  0  0  0  0  0  0  0
   -0.9203   -1.0473    1.6002 H   0  0  0  0  0  0  0  0  0  0  0  0
   -1.3403   -2.2960    0.3322 H   0  0  0  0  0  0  0  0  0  0  0  0
   -1.1716   -0.6875   -1.4364 H   0  0  0  0  0  0  0  0  0  0  0  0
   -3.2771   -0.4334    0.0528 H   0  0  0  0  0  0  0  0  0  0  0  0
   -2.8730    0.8442   -1.1201 H   0  0  0  0  0  0  0  0  0  0  0  0
   -2.5472    1.0802    0.6714 H   0  0  0  0  0  0  0  0  0  0  0  0
   -0.7851    1.4616    1.6255 H   0  0  0  0  0  0  0  0  0  0  0  0
    0.6438    0.4260    1.7845 H   0  0  0  0  0  0  0  0  0  0  0  0
    0.8000    2.0586    1.1051 H   0  0  0  0  0  0  0  0  0  0  0  0
    0.4439    1.4832   -2.0305 H   0  0  0  0  0  0  0  0  0  0  0  0
  1  2  1  0
  2  3  1  0
  3  4  1  0
  4  5  1  0
  5  6  1  0
  5  7  1  0
  7  8  1  0
  7  9  1  0
  7  2  1  0
  1 10  1  0
  1 11  1  0
  1 12  1  0
  2 13  1  0
  3 14  1  0
  3 15  1  0
  4 16  1  0
  4 17  1  0
  5 18  1  0
  6 19  1  0
  6 20  1  0
  6 21  1  0
  8 22  1  0
  8 23  1  0
  8 24  1  0
  9 25  1  0
M  END
