
     RDKit          3D

 25 25  0  0  0  0  0  0  0  0999 V2000
   -2.3510   -0.7700    0.4488 C   0  0  0  0  0  0  0  0  0  0  0  0
   -1.1144   -0.8821   -0.4153 C   0  0  0  0  0  0  0  0  0  0  0  0
   -0.6226    0.4407   -0.9088 C   0  0  0  0  0  0  0  0  0  0  0  0
   -0.3752    1.4539    0.1447 C   0  0  0  0  0  0  0  0  0  0  0  0
    1.0460    2.0296    0.0923 C   0  0  0  0  0  0  0  0  0  0  0  0
    2.0614    0.8953    0.0313 C   0  0  0  0  0  0  0  0  0  0  0  0
    1.5540   -0.1392    0.7944 O   0  0  0  0  0  0  0  0  0  0  0  0
    1.3185   -1.2879    0.0640 C   0  0  0  0  0  0  0  0  0  0  0  0
   -0.1082   -1.7019    0.2988 C   0  0  0  0  0  0  0  0  0  0  0  0
   -2.4238   -1.7321    1.0207 H   0  0  0  0  0  0  0  0  0  0  0  0
   -3.2739   -0.7544   -0.1909 H   0  0  0  0  0  0  0  0  0  0  0  0
   -2.3127    0.0568    1.1579 H   0  0  0  0  0  0  0  0  0  0  0  0
   -1.4385   -1.4649   -1.3281 H   0  0  0  0  0  0  0  0  0  0  0  0
   -1.4083    0.8182   -1.6260 H   0  0  0  0  0  0  0  0  0  0  0  0
    0.2927    0.2805   -1.4833 H   0  0  0  0  0  0  0  0  0  0  0  0
   -0.5756    1.1261    1.1760 H   0  0  0  0  0  0  0  0  0  0  0  0
   -1.0413    2.3524   -0.0152 H   0  0  0  0  0  0  0  0  0  0  0  0
    1.1687    2.7468   -0.7273 H   0  0  0  0  0  0  0  0  0  0  0  0
    1.2077    2.5277    1.0717 H   0  0  0  0  0  0  0  0  0  0  0  0
    2.2561    0.5959   -1.0266 H   0  0  0  0  0  0  0  0  0  0  0  0
    3.0238    1.1981    0.4864 H   0  0  0  0  0  0  0  0  0  0  0  0
    1.9601   -2.0890    0.5133 H   0  0  0  0  0  0  0  0  0  0  0  0
    1.5951   -1.2192   -0.9955 H   0  0  0  0  0  0  0  0  0  0  0  0
   -0.1769   -2.7827    0.0085 H   0  0  0  0  0  0  0  0  0  0  0  0
   -0.2618   -1.6988    1.4081 H   0  0  0  0  0  0  0  0  0  0  0  0
  1  2  1  0
  2  3  1  0
  3  4  1  0
  4  5  1  0
  5  6  1  0
  6  7  1  0
  7  8  1  0
  8  9  1  0
  9  2  1  0
  1 10  1  0
  1 11  1  0
  1 12  1  0
  2 13  1  0
  3 14  1  0
  3 15  1  0
  4 16  1  0
  4 17  1  0
  5 18  1  0
  5 19  1  0
  6 20  1  0
  6 21  1  0
  8 22  1  0
  8 23  1  0
  9 24  1  0
  9 25  1  0
M  END
