
     RDKit          2D

 23 25  0  0  0  0  0  0  0  0999 V2000
    2.1213    1.0607    0.0000 C   0  0  0  0  0  0  0  0  0  0  0  0
    1.0607    0.0000    0.0000 C   0  0  0  0  0  0  0  0  0  0  0  0
   -0.0000   -1.0607    0.0000 C   0  0  0  0  0  0  0  0  0  0  0  0
   -0.6786    0.7964    0.0000 C   0  0  0  0  0  0  0  0  0  0  0  0
   -0.6810    2.3972    0.0000 C   0  0  0  0  0  0  0  0  0  0  0  0
   -2.1625    2.1625    0.0000 C   0  0  0  0  0  0  0  0  0  0  0  0
   -2.3972    0.6810    0.0000 C   0  0  0  0  0  0  0  0  0  0  0  0
   -1.0607    0.0000    0.0000 C   0  0  0  0  0  0  0  0  0  0  0  0
    0.0000    1.0607    0.0000 C   0  0  0  0  0  0  0  0  0  0  0  0
    3.1820    2.1213    0.0000 H   0  0  0  0  0  0  0  0  0  0  0  0
    3.1820    0.0000    0.0000 H   0  0  0  0  0  0  0  0  0  0  0  0
    1.3488    2.3465    0.0000 H   0  0  0  0  0  0  0  0  0  0  0  0
    1.8918   -1.0638    0.0000 H   0  0  0  0  0  0  0  0  0  0  0  0
   -0.0000   -2.5607    0.0000 H   0  0  0  0  0  0  0  0  0  0  0  0
    0.0786    0.4849    0.0000 H   0  0  0  0  0  0  0  0  0  0  0  0
    1.2132    1.6826    0.0000 H   0  0  0  0  0  0  0  0  0  0  0  0
    0.0000    3.7337    0.0000 H   0  0  0  0  0  0  0  0  0  0  0  0
   -2.2410    3.6605    0.0000 H   0  0  0  0  0  0  0  0  0  0  0  0
   -3.6605    2.2410    0.0000 H   0  0  0  0  0  0  0  0  0  0  0  0
   -3.8461    1.0692    0.0000 H   0  0  0  0  0  0  0  0  0  0  0  0
   -2.9347   -0.7194    0.0000 H   0  0  0  0  0  0  0  0  0  0  0  0
   -1.9423   -1.2135    0.0000 H   0  0  0  0  0  0  0  0  0  0  0  0
    0.9641    2.2098    0.0000 H   0  0  0  0  0  0  0  0  0  0  0  0
  1  2  1  0
  2  3  1  0
  3  4  1  0
  4  5  1  0
  5  6  1  0
  6  7  1  0
  7  8  1  0
  8  9  1  0
  9  2  1  0
  8  3  1  0
  9  5  1  0
  1 10  1  0
  1 11  1  0
  1 12  1  0
  2 13  1  0
  3 14  1  0
  4 15  1  0
  4 16  1  0
  5 17  1  0
  6 18  1  0
  6 19  1  0
  7 20  1  0
  7 21  1  0
  8 22  1  0
  9 23  1  0
M  END
