
     RDKit          3D

 18 20  0  0  0  0  0  0  0  0999 V2000
    2.1889   -0.1119    0.5296 C   0  0  0  0  0  0  0  0  0  0  0  0
    0.8214    0.5574    0.4460 C   0  0  0  0  0  0  0  0  0  0  0  0
   -0.2136   -0.4906    0.8812 C   0  0  0  0  0  0  0  0  0  0  0  0
   -1.4342    0.0309    1.2238 O   0  0  0  0  0  0  0  0  0  0  0  0
   -2.1082    0.4294    0.1044 C   0  0  0  0  0  0  0  0  0  0  0  0
   -1.2288    0.1529   -1.0982 C   0  0  0  0  0  0  0  0  0  0  0  0
    0.1983    0.5088   -0.9223 C   0  0  0  0  0  0  0  0  0  0  0  0
   -0.2988   -0.8404   -0.5713 C   0  0  0  0  0  0  0  0  0  0  0  0
    2.9990    0.5468    0.2230 H   0  0  0  0  0  0  0  0  0  0  0  0
    2.3278   -0.3952    1.5927 H   0  0  0  0  0  0  0  0  0  0  0  0
    2.1312   -1.0395   -0.0754 H   0  0  0  0  0  0  0  0  0  0  0  0
    0.7305    1.5257    0.9140 H   0  0  0  0  0  0  0  0  0  0  0  0
    0.1823   -1.2600    1.5451 H   0  0  0  0  0  0  0  0  0  0  0  0
   -3.0778   -0.1170    0.0242 H   0  0  0  0  0  0  0  0  0  0  0  0
   -2.3697    1.5072    0.0907 H   0  0  0  0  0  0  0  0  0  0  0  0
   -1.6293    0.0225   -2.0864 H   0  0  0  0  0  0  0  0  0  0  0  0
    0.7687    0.7324   -1.8205 H   0  0  0  0  0  0  0  0  0  0  0  0
    0.0125   -1.7592   -1.0005 H   0  0  0  0  0  0  0  0  0  0  0  0
  1  2  1  0
  2  3  1  0
  3  4  1  0
  4  5  1  0
  5  6  1  0
  6  7  1  0
  7  8  1  0
  7  2  1  0
  8  3  1  0
  8  6  1  0
  1  9  1  0
  1 10  1  0
  1 11  1  0
  2 12  1  0
  3 13  1  0
  5 14  1  0
  5 15  1  0
  6 16  1  0
  7 17  1  0
  8 18  1  0
M  END
