
     RDKit          3D

 23 24  0  0  0  0  0  0  0  0999 V2000
    2.7980   -0.3294   -0.1424 C   0  0  0  0  0  0  0  0  0  0  0  0
    1.3726   -0.1087   -0.6066 C   0  0  0  0  0  0  0  0  0  0  0  0
    0.9929    1.2849   -0.2211 C   0  0  0  0  0  0  0  0  0  0  0  0
   -0.3685    1.5903   -0.4086 O   0  0  0  0  0  0  0  0  0  0  0  0
   -1.0089    0.4430   -0.6964 C   0  0  0  0  0  0  0  0  0  0  0  0
   -1.9839   -0.3251   -0.0149 C   0  0  0  0  0  0  0  0  0  0  0  0
   -3.0667    0.3360    0.8511 C   0  0  0  0  0  0  0  0  0  0  0  0
   -0.6900   -0.4501    0.5477 C   0  0  0  0  0  0  0  0  0  0  0  0
    0.5271   -1.1748    0.1073 C   0  0  0  0  0  0  0  0  0  0  0  0
    3.0107    0.2905    0.7749 H   0  0  0  0  0  0  0  0  0  0  0  0
    2.9431   -1.3865    0.2017 H   0  0  0  0  0  0  0  0  0  0  0  0
    3.5175   -0.1173   -0.9590 H   0  0  0  0  0  0  0  0  0  0  0  0
    1.3285   -0.3269   -1.6694 H   0  0  0  0  0  0  0  0  0  0  0  0
    1.3303    1.5269    0.7905 H   0  0  0  0  0  0  0  0  0  0  0  0
    1.5334    1.9662   -0.9129 H   0  0  0  0  0  0  0  0  0  0  0  0
   -0.6745    0.0509   -1.7030 H   0  0  0  0  0  0  0  0  0  0  0  0
   -2.4295   -1.2151   -0.5384 H   0  0  0  0  0  0  0  0  0  0  0  0
   -3.6278   -0.4463    1.4100 H   0  0  0  0  0  0  0  0  0  0  0  0
   -2.5844    1.0643    1.5379 H   0  0  0  0  0  0  0  0  0  0  0  0
   -3.8104    0.8587    0.2179 H   0  0  0  0  0  0  0  0  0  0  0  0
   -0.4952    0.0928    1.5191 H   0  0  0  0  0  0  0  0  0  0  0  0
    1.0707   -1.6022    0.9750 H   0  0  0  0  0  0  0  0  0  0  0  0
    0.3148   -2.0223   -0.5770 H   0  0  0  0  0  0  0  0  0  0  0  0
  1  2  1  0
  2  3  1  0
  3  4  1  0
  4  5  1  0
  5  6  1  0
  6  7  1  0
  6  8  1  0
  8  9  1  0
  9  2  1  0
  8  5  1  0
  1 10  1  0
  1 11  1  0
  1 12  1  0
  2 13  1  0
  3 14  1  0
  3 15  1  0
  5 16  1  0
  6 17  1  0
  7 18  1  0
  7 19  1  0
  7 20  1  0
  8 21  1  0
  9 22  1  0
  9 23  1  0
M  END
