
     RDKit          3D

 19 20  0  0  0  0  0  0  0  0999 V2000
    2.5625    0.4731   -0.2652 C   0  0  0  0  0  0  0  0  0  0  0  0
    1.3971   -0.1033    0.5532 C   0  0  0  0  0  0  0  0  0  0  0  0
    0.2945   -0.6504   -0.1350 C   0  0  0  0  0  0  0  0  0  0  0  0
   -0.9720   -1.2670    0.2802 C   0  0  0  0  0  0  0  0  0  0  0  0
   -2.0707   -0.2393   -0.0513 C   0  0  0  0  0  0  0  0  0  0  0  0
   -1.5464    0.9224   -0.8117 C   0  0  0  0  0  0  0  0  0  0  0  0
   -2.1609    1.2848   -1.8413 O   0  0  0  0  0  0  0  0  0  0  0  0
   -0.3941    1.5310   -0.3164 O   0  0  0  0  0  0  0  0  0  0  0  0
    0.2510    0.7254    0.6246 C   0  0  0  0  0  0  0  0  0  0  0  0
    3.2844   -0.2952   -0.5454 H   0  0  0  0  0  0  0  0  0  0  0  0
    3.0456    1.2169    0.4268 H   0  0  0  0  0  0  0  0  0  0  0  0
    2.1708    1.0725   -1.1078 H   0  0  0  0  0  0  0  0  0  0  0  0
    1.7808   -0.5659    1.4826 H   0  0  0  0  0  0  0  0  0  0  0  0
    0.3413   -0.5952   -1.2653 H   0  0  0  0  0  0  0  0  0  0  0  0
   -1.2283   -2.1671   -0.3369 H   0  0  0  0  0  0  0  0  0  0  0  0
   -1.0536   -1.5697    1.3311 H   0  0  0  0  0  0  0  0  0  0  0  0
   -2.4649    0.1899    0.9165 H   0  0  0  0  0  0  0  0  0  0  0  0
   -2.9353   -0.7101   -0.5343 H   0  0  0  0  0  0  0  0  0  0  0  0
   -0.3018    0.7471    1.5955 H   0  0  0  0  0  0  0  0  0  0  0  0
  1  2  1  0
  2  3  1  0
  3  4  1  0
  4  5  1  0
  5  6  1  0
  6  7  2  0
  6  8  1  0
  8  9  1  0
  9  2  1  0
  9  3  1  0
  1 10  1  0
  1 11  1  0
  1 12  1  0
  2 13  1  0
  3 14  1  0
  4 15  1  0
  4 16  1  0
  5 17  1  0
  5 18  1  0
  9 19  1  0
M  END
