
     RDKit          3D

 21 22  0  0  0  0  0  0  0  0999 V2000
   -2.0272   -1.0055    0.0237 C   0  0  0  0  0  0  0  0  0  0  0  0
   -0.7849   -0.3532   -0.4756 C   0  0  0  0  0  0  0  0  0  0  0  0
    0.3564   -1.3751   -0.5864 C   0  0  0  0  0  0  0  0  0  0  0  0
    1.5834   -0.7809   -0.6904 O   0  0  0  0  0  0  0  0  0  0  0  0
    2.0855   -0.2575    0.4817 C   0  0  0  0  0  0  0  0  0  0  0  0
    1.9545    1.1525    0.5174 O   0  0  0  0  0  0  0  0  0  0  0  0
    0.8390    1.4423   -0.2167 C   0  0  0  0  0  0  0  0  0  0  0  0
   -0.3484    2.1260    0.2281 C   0  0  0  0  0  0  0  0  0  0  0  0
   -0.3243    0.6987    0.4741 C   0  0  0  0  0  0  0  0  0  0  0  0
   -2.2334   -1.9961   -0.4632 H   0  0  0  0  0  0  0  0  0  0  0  0
   -2.0623   -1.1230    1.1244 H   0  0  0  0  0  0  0  0  0  0  0  0
   -2.8951   -0.3451   -0.2645 H   0  0  0  0  0  0  0  0  0  0  0  0
   -0.9584    0.0343   -1.4996 H   0  0  0  0  0  0  0  0  0  0  0  0
    0.2888   -2.1219    0.2301 H   0  0  0  0  0  0  0  0  0  0  0  0
    0.1655   -1.9317   -1.5312 H   0  0  0  0  0  0  0  0  0  0  0  0
    1.6890   -0.7256    1.3972 H   0  0  0  0  0  0  0  0  0  0  0  0
    3.1993   -0.4375    0.4798 H   0  0  0  0  0  0  0  0  0  0  0  0
    0.9713    1.2738   -1.3150 H   0  0  0  0  0  0  0  0  0  0  0  0
   -0.3386    2.7893    1.1425 H   0  0  0  0  0  0  0  0  0  0  0  0
   -0.9912    2.5967   -0.5651 H   0  0  0  0  0  0  0  0  0  0  0  0
   -0.1690    0.3397    1.5087 H   0  0  0  0  0  0  0  0  0  0  0  0
  1  2  1  0
  2  3  1  0
  3  4  1  0
  4  5  1  0
  5  6  1  0
  6  7  1  0
  7  8  1  0
  8  9  1  0
  9  2  1  0
  9  7  1  0
  1 10  1  0
  1 11  1  0
  1 12  1  0
  2 13  1  0
  3 14  1  0
  3 15  1  0
  5 16  1  0
  5 17  1  0
  7 18  1  0
  8 19  1  0
  8 20  1  0
  9 21  1  0
M  END
