
     RDKit          3D

 19 19  0  0  0  0  0  0  0  0999 V2000
   -0.3680    2.0538   -0.1207 C   0  0  0  0  0  0  0  0  0  0  0  0
   -0.0886    0.6269    0.3519 C   0  0  0  0  0  0  0  0  0  0  0  0
    1.0690   -0.0262   -0.3784 C   0  0  0  0  0  0  0  0  0  0  0  0
    2.1017   -0.4480    0.5971 C   0  0  0  0  0  0  0  0  0  0  0  0
    2.6362   -1.5430    0.4561 O   0  0  0  0  0  0  0  0  0  0  0  0
    0.1731   -1.1282   -0.8870 C   0  0  0  0  0  0  0  0  0  0  0  0
   -0.9948   -0.4120   -0.2454 C   0  0  0  0  0  0  0  0  0  0  0  0
   -1.7641   -1.2197    0.7243 C   0  0  0  0  0  0  0  0  0  0  0  0
   -2.5878   -2.0003    0.2561 O   0  0  0  0  0  0  0  0  0  0  0  0
   -1.1346    2.0088   -0.9104 H   0  0  0  0  0  0  0  0  0  0  0  0
    0.5946    2.4086   -0.5603 H   0  0  0  0  0  0  0  0  0  0  0  0
   -0.6633    2.7064    0.7081 H   0  0  0  0  0  0  0  0  0  0  0  0
   -0.0167    0.6271    1.4491 H   0  0  0  0  0  0  0  0  0  0  0  0
    1.4930    0.5374   -1.2115 H   0  0  0  0  0  0  0  0  0  0  0  0
    2.3598    0.2261    1.4152 H   0  0  0  0  0  0  0  0  0  0  0  0
    0.4284   -2.0990   -0.4501 H   0  0  0  0  0  0  0  0  0  0  0  0
    0.0862   -1.1956   -1.9942 H   0  0  0  0  0  0  0  0  0  0  0  0
   -1.6846    0.0347   -0.9999 H   0  0  0  0  0  0  0  0  0  0  0  0
   -1.6395   -1.1576    1.8001 H   0  0  0  0  0  0  0  0  0  0  0  0
  1  2  1  0
  2  3  1  0
  3  4  1  0
  4  5  2  0
  3  6  1  0
  6  7  1  0
  7  8  1  0
  8  9  2  0
  7  2  1  0
  1 10  1  0
  1 11  1  0
  1 12  1  0
  2 13  1  0
  3 14  1  0
  4 15  1  0
  6 16  1  0
  6 17  1  0
  7 18  1  0
  8 19  1  0
M  END
