
     RDKit          3D

 21 22  0  0  0  0  0  0  0  0999 V2000
    1.0476   -1.0088    1.4556 C   0  0  0  0  0  0  0  0  0  0  0  0
    0.8548    0.2049    0.6450 C   0  0  0  0  0  0  0  0  0  0  0  0
    1.7069    0.2803   -0.5990 C   0  0  0  0  0  0  0  0  0  0  0  0
    1.0078    1.3478   -1.3662 C   0  0  0  0  0  0  0  0  0  0  0  0
   -0.2648    1.4082   -0.9933 C   0  0  0  0  0  0  0  0  0  0  0  0
   -0.5245    0.3730    0.0674 C   0  0  0  0  0  0  0  0  0  0  0  0
   -1.1657   -0.8364   -0.5129 C   0  0  0  0  0  0  0  0  0  0  0  0
   -2.3553   -0.2397    0.2046 C   0  0  0  0  0  0  0  0  0  0  0  0
   -1.5421    0.6405    0.9273 O   0  0  0  0  0  0  0  0  0  0  0  0
    0.1173   -1.5955    1.6518 H   0  0  0  0  0  0  0  0  0  0  0  0
    1.4141   -0.7203    2.4848 H   0  0  0  0  0  0  0  0  0  0  0  0
    1.8208   -1.7128    1.0734 H   0  0  0  0  0  0  0  0  0  0  0  0
    1.0773    1.1262    1.2345 H   0  0  0  0  0  0  0  0  0  0  0  0
    2.7310    0.5835   -0.3011 H   0  0  0  0  0  0  0  0  0  0  0  0
    1.7044   -0.6694   -1.1719 H   0  0  0  0  0  0  0  0  0  0  0  0
    1.4342    1.9957   -2.1191 H   0  0  0  0  0  0  0  0  0  0  0  0
   -1.0164    2.0847   -1.3753 H   0  0  0  0  0  0  0  0  0  0  0  0
   -1.3385   -0.8149   -1.6216 H   0  0  0  0  0  0  0  0  0  0  0  0
   -0.8559   -1.8199   -0.1300 H   0  0  0  0  0  0  0  0  0  0  0  0
   -2.8091   -0.9737    0.8738 H   0  0  0  0  0  0  0  0  0  0  0  0
   -3.0437    0.3465   -0.4279 H   0  0  0  0  0  0  0  0  0  0  0  0
  1  2  1  0
  2  3  1  0
  3  4  1  0
  4  5  2  0
  5  6  1  0
  6  7  1  0
  7  8  1  0
  8  9  1  0
  6  2  1  0
  9  6  1  0
  1 10  1  0
  1 11  1  0
  1 12  1  0
  2 13  1  0
  3 14  1  0
  3 15  1  0
  4 16  1  0
  5 17  1  0
  7 18  1  0
  7 19  1  0
  8 20  1  0
  8 21  1  0
M  END
