
     RDKit          3D

 19 21  0  0  0  0  0  0  0  0999 V2000
    2.0884   -0.4481    0.3592 C   0  0  0  0  0  0  0  0  0  0  0  0
    0.7628   -0.4855   -0.4102 C   0  0  0  0  0  0  0  0  0  0  0  0
   -0.2587   -1.0478    0.5525 C   0  0  0  0  0  0  0  0  0  0  0  0
   -1.5443   -1.1426   -0.2171 C   0  0  0  0  0  0  0  0  0  0  0  0
   -2.0018    0.0311   -0.6601 C   0  0  0  0  0  0  0  0  0  0  0  0
   -1.1239    1.1842   -0.4731 C   0  0  0  0  0  0  0  0  0  0  0  0
   -0.3258    1.1847    0.7696 C   0  0  0  0  0  0  0  0  0  0  0  0
   -0.4246    0.0004    1.4409 O   0  0  0  0  0  0  0  0  0  0  0  0
    0.3176    0.9239   -0.5712 C   0  0  0  0  0  0  0  0  0  0  0  0
    2.8717    0.0238   -0.2448 H   0  0  0  0  0  0  0  0  0  0  0  0
    2.3503   -1.4247    0.7623 H   0  0  0  0  0  0  0  0  0  0  0  0
    1.9033    0.2259    1.2297 H   0  0  0  0  0  0  0  0  0  0  0  0
    0.8411   -1.0624   -1.3378 H   0  0  0  0  0  0  0  0  0  0  0  0
    0.0327   -1.9762    1.0285 H   0  0  0  0  0  0  0  0  0  0  0  0
   -2.0568   -2.0778   -0.3982 H   0  0  0  0  0  0  0  0  0  0  0  0
   -2.9656    0.1610   -1.1370 H   0  0  0  0  0  0  0  0  0  0  0  0
   -1.4635    2.1447   -0.9316 H   0  0  0  0  0  0  0  0  0  0  0  0
    0.0130    2.1012    1.2530 H   0  0  0  0  0  0  0  0  0  0  0  0
    0.9840    1.6841   -1.0148 H   0  0  0  0  0  0  0  0  0  0  0  0
  1  2  1  0
  2  3  1  0
  3  4  1  0
  4  5  2  0
  5  6  1  0
  6  7  1  0
  7  8  1  0
  7  9  1  0
  9  2  1  0
  8  3  1  0
  9  6  1  0
  1 10  1  0
  1 11  1  0
  1 12  1  0
  2 13  1  0
  3 14  1  0
  4 15  1  0
  5 16  1  0
  6 17  1  0
  7 18  1  0
  9 19  1  0
M  END
