
     RDKit          3D

 23 23  0  0  0  0  0  0  0  0999 V2000
   -2.4648   -0.4157    0.1471 C   0  0  0  0  0  0  0  0  0  0  0  0
   -0.9860   -0.2008    0.5051 C   0  0  0  0  0  0  0  0  0  0  0  0
   -0.2408   -1.3586   -0.0303 C   0  0  0  0  0  0  0  0  0  0  0  0
    1.2171   -1.1881   -0.2042 C   0  0  0  0  0  0  0  0  0  0  0  0
    1.7476    0.1245    0.3688 C   0  0  0  0  0  0  0  0  0  0  0  0
    3.0700    0.2650   -0.0663 O   0  0  0  0  0  0  0  0  0  0  0  0
    0.9186    1.2088   -0.3310 C   0  0  0  0  0  0  0  0  0  0  0  0
   -0.5208    1.1395    0.0908 C   0  0  0  0  0  0  0  0  0  0  0  0
   -0.6775    2.1202    1.0988 O   0  0  0  0  0  0  0  0  0  0  0  0
   -3.0015    0.5276    0.0316 H   0  0  0  0  0  0  0  0  0  0  0  0
   -2.9207   -1.1000    0.8937 H   0  0  0  0  0  0  0  0  0  0  0  0
   -2.5161   -0.9765   -0.8305 H   0  0  0  0  0  0  0  0  0  0  0  0
   -0.9472   -0.2510    1.6275 H   0  0  0  0  0  0  0  0  0  0  0  0
   -0.7121   -1.6477   -1.0135 H   0  0  0  0  0  0  0  0  0  0  0  0
   -0.4533   -2.2400    0.6444 H   0  0  0  0  0  0  0  0  0  0  0  0
    1.4923   -1.1559   -1.2963 H   0  0  0  0  0  0  0  0  0  0  0  0
    1.8031   -2.0402    0.2083 H   0  0  0  0  0  0  0  0  0  0  0  0
    1.6445    0.1669    1.4594 H   0  0  0  0  0  0  0  0  0  0  0  0
    3.4257   -0.5781   -0.4377 H   0  0  0  0  0  0  0  0  0  0  0  0
    0.9527    0.9307   -1.4165 H   0  0  0  0  0  0  0  0  0  0  0  0
    1.3720    2.2075   -0.1752 H   0  0  0  0  0  0  0  0  0  0  0  0
   -1.1877    1.4885   -0.7517 H   0  0  0  0  0  0  0  0  0  0  0  0
   -1.0149    2.9734    0.7202 H   0  0  0  0  0  0  0  0  0  0  0  0
  1  2  1  0
  2  3  1  0
  3  4  1  0
  4  5  1  0
  5  6  1  0
  5  7  1  0
  7  8  1  0
  8  9  1  0
  8  2  1  0
  1 10  1  0
  1 11  1  0
  1 12  1  0
  2 13  1  0
  3 14  1  0
  3 15  1  0
  4 16  1  0
  4 17  1  0
  5 18  1  0
  6 19  1  0
  7 20  1  0
  7 21  1  0
  8 22  1  0
  9 23  1  0
M  END
