
     RDKit          3D

 21 23  0  0  0  0  0  0  0  0999 V2000
    2.3954    0.6295   -0.1074 C   0  0  0  0  0  0  0  0  0  0  0  0
    1.1186    0.1435   -0.7080 C   0  0  0  0  0  0  0  0  0  0  0  0
    0.7954   -1.2209   -0.1134 C   0  0  0  0  0  0  0  0  0  0  0  0
   -0.6742   -1.3368   -0.4745 C   0  0  0  0  0  0  0  0  0  0  0  0
   -1.1265   -0.0011    0.1338 C   0  0  0  0  0  0  0  0  0  0  0  0
   -2.5368    0.3939    0.1105 C   0  0  0  0  0  0  0  0  0  0  0  0
   -0.1905    0.1713    1.2380 C   0  0  0  0  0  0  0  0  0  0  0  0
    0.7323   -0.9012    1.2226 O   0  0  0  0  0  0  0  0  0  0  0  0
   -0.0093    0.9262   -0.0386 C   0  0  0  0  0  0  0  0  0  0  0  0
    2.3784    1.7519   -0.0104 H   0  0  0  0  0  0  0  0  0  0  0  0
    3.3051    0.3222   -0.6569 H   0  0  0  0  0  0  0  0  0  0  0  0
    2.4444    0.2528    0.9416 H   0  0  0  0  0  0  0  0  0  0  0  0
    1.0668    0.1632   -1.7899 H   0  0  0  0  0  0  0  0  0  0  0  0
    1.4202   -2.0195   -0.4165 H   0  0  0  0  0  0  0  0  0  0  0  0
   -0.8471   -1.3535   -1.5507 H   0  0  0  0  0  0  0  0  0  0  0  0
   -1.0953   -2.1852    0.0807 H   0  0  0  0  0  0  0  0  0  0  0  0
   -3.2080   -0.1749    0.7811 H   0  0  0  0  0  0  0  0  0  0  0  0
   -2.9435    0.2176   -0.9271 H   0  0  0  0  0  0  0  0  0  0  0  0
   -2.6066    1.4953    0.2537 H   0  0  0  0  0  0  0  0  0  0  0  0
   -0.3552    0.7290    2.1463 H   0  0  0  0  0  0  0  0  0  0  0  0
   -0.0638    1.9967   -0.1151 H   0  0  0  0  0  0  0  0  0  0  0  0
  1  2  1  0
  2  3  1  0
  3  4  1  0
  4  5  1  0
  5  6  1  0
  5  7  1  0
  7  8  1  0
  7  9  1  0
  9  2  1  0
  8  3  1  0
  9  5  1  0
  1 10  1  0
  1 11  1  0
  1 12  1  0
  2 13  1  0
  3 14  1  0
  4 15  1  0
  4 16  1  0
  6 17  1  0
  6 18  1  0
  6 19  1  0
  7 20  1  0
  9 21  1  0
M  END
