
     RDKit          3D

 17 18  0  0  0  0  0  0  0  0999 V2000
    1.6221    1.0807   -0.0428 C   0  0  0  0  0  0  0  0  0  0  0  0
    1.1434   -0.3368   -0.2229 C   0  0  0  0  0  0  0  0  0  0  0  0
   -0.1129   -0.4994   -0.9823 C   0  0  0  0  0  0  0  0  0  0  0  0
   -0.9163    0.6064   -1.1320 O   0  0  0  0  0  0  0  0  0  0  0  0
   -1.6474    0.8016    0.0219 C   0  0  0  0  0  0  0  0  0  0  0  0
   -1.0831   -0.0680    1.0676 C   0  0  0  0  0  0  0  0  0  0  0  0
   -1.4703   -0.0617    2.2190 O   0  0  0  0  0  0  0  0  0  0  0  0
   -0.0385   -0.8729    0.4567 C   0  0  0  0  0  0  0  0  0  0  0  0
   -0.0362   -2.2350    0.7740 O   0  0  0  0  0  0  0  0  0  0  0  0
    2.3814    1.2674   -0.8525 H   0  0  0  0  0  0  0  0  0  0  0  0
    2.1411    1.2363    0.9019 H   0  0  0  0  0  0  0  0  0  0  0  0
    0.7990    1.8110   -0.2371 H   0  0  0  0  0  0  0  0  0  0  0  0
    1.9481   -1.0482   -0.4652 H   0  0  0  0  0  0  0  0  0  0  0  0
   -0.2424   -1.3583   -1.6895 H   0  0  0  0  0  0  0  0  0  0  0  0
   -1.5728    1.8599    0.3947 H   0  0  0  0  0  0  0  0  0  0  0  0
   -2.7216    0.6243   -0.1810 H   0  0  0  0  0  0  0  0  0  0  0  0
   -0.1936   -2.8072   -0.0305 H   0  0  0  0  0  0  0  0  0  0  0  0
  1  2  1  0
  2  3  1  0
  3  4  1  0
  4  5  1  0
  5  6  1  0
  6  7  2  0
  6  8  1  0
  8  9  1  0
  8  2  1  0
  8  3  1  0
  1 10  1  0
  1 11  1  0
  1 12  1  0
  2 13  1  0
  3 14  1  0
  5 15  1  0
  5 16  1  0
  9 17  1  0
M  END
