
     RDKit          3D

 19 21  0  0  0  0  0  0  0  0999 V2000
    2.4198    0.7035    0.2407 C   0  0  0  0  0  0  0  0  0  0  0  0
    0.8972    0.5554    0.0886 C   0  0  0  0  0  0  0  0  0  0  0  0
    0.2874   -0.3847   -0.8565 C   0  0  0  0  0  0  0  0  0  0  0  0
   -0.6835   -1.4947   -0.6613 C   0  0  0  0  0  0  0  0  0  0  0  0
   -1.9043   -1.5648   -0.1999 O   0  0  0  0  0  0  0  0  0  0  0  0
   -1.1780   -0.7148    0.5737 C   0  0  0  0  0  0  0  0  0  0  0  0
   -1.8646    0.6415    0.3907 C   0  0  0  0  0  0  0  0  0  0  0  0
   -1.8579    1.0645   -0.9115 O   0  0  0  0  0  0  0  0  0  0  0  0
    0.3397   -0.6340    0.6667 C   0  0  0  0  0  0  0  0  0  0  0  0
    2.8609   -0.3062    0.2734 H   0  0  0  0  0  0  0  0  0  0  0  0
    2.7817    1.2235   -0.6680 H   0  0  0  0  0  0  0  0  0  0  0  0
    2.6417    1.3044    1.1165 H   0  0  0  0  0  0  0  0  0  0  0  0
    0.4166    1.5350    0.3303 H   0  0  0  0  0  0  0  0  0  0  0  0
    1.1147   -0.7677   -1.5316 H   0  0  0  0  0  0  0  0  0  0  0  0
   -0.1368   -2.4347   -0.2902 H   0  0  0  0  0  0  0  0  0  0  0  0
   -2.9434    0.5642    0.7270 H   0  0  0  0  0  0  0  0  0  0  0  0
   -1.4261    1.3472    1.1244 H   0  0  0  0  0  0  0  0  0  0  0  0
   -2.6625    0.8754   -1.4258 H   0  0  0  0  0  0  0  0  0  0  0  0
    0.8978   -1.5132    1.0128 H   0  0  0  0  0  0  0  0  0  0  0  0
  1  2  1  0
  2  3  1  0
  3  4  1  0
  4  5  1  0
  5  6  1  0
  6  7  1  0
  7  8  1  0
  6  9  1  0
  9  2  1  0
  9  3  1  0
  6  4  1  0
  1 10  1  0
  1 11  1  0
  1 12  1  0
  2 13  1  0
  3 14  1  0
  4 15  1  0
  7 16  1  0
  7 17  1  0
  8 18  1  0
  9 19  1  0
M  END
