
     RDKit          3D

 18 19  0  0  0  0  0  0  0  0999 V2000
   -1.6631   -0.4466   -0.7561 C   0  0  0  0  0  0  0  0  0  0  0  0
   -0.1749   -0.4124   -0.7364 C   0  0  0  0  0  0  0  0  0  0  0  0
    0.3940   -0.9248    0.5995 C   0  0  0  0  0  0  0  0  0  0  0  0
    1.8118   -0.4272    0.4070 C   0  0  0  0  0  0  0  0  0  0  0  0
    1.7000    0.7566   -0.2835 O   0  0  0  0  0  0  0  0  0  0  0  0
    0.3484    1.0147   -0.4702 C   0  0  0  0  0  0  0  0  0  0  0  0
   -0.2632    1.1911    0.8967 C   0  0  0  0  0  0  0  0  0  0  0  0
   -0.2409   -0.0712    1.4882 O   0  0  0  0  0  0  0  0  0  0  0  0
   -1.9876   -1.2474   -1.4810 H   0  0  0  0  0  0  0  0  0  0  0  0
   -2.0620   -0.7149    0.2207 H   0  0  0  0  0  0  0  0  0  0  0  0
   -2.1103    0.5030   -1.1710 H   0  0  0  0  0  0  0  0  0  0  0  0
    0.3238   -0.8786   -1.5807 H   0  0  0  0  0  0  0  0  0  0  0  0
    0.2708   -1.9635    0.7583 H   0  0  0  0  0  0  0  0  0  0  0  0
    2.3614   -0.3313    1.3653 H   0  0  0  0  0  0  0  0  0  0  0  0
    2.3112   -1.1599   -0.2800 H   0  0  0  0  0  0  0  0  0  0  0  0
    0.0879    1.7209   -1.2157 H   0  0  0  0  0  0  0  0  0  0  0  0
    0.2433    1.9526    1.5099 H   0  0  0  0  0  0  0  0  0  0  0  0
   -1.3506    1.4389    0.7290 H   0  0  0  0  0  0  0  0  0  0  0  0
  1  2  1  0
  2  3  1  0
  3  4  1  0
  4  5  1  0
  5  6  1  0
  6  7  1  0
  7  8  1  0
  6  2  1  0
  8  3  1  0
  1  9  1  0
  1 10  1  0
  1 11  1  0
  2 12  1  0
  3 13  1  0
  4 14  1  0
  4 15  1  0
  6 16  1  0
  7 17  1  0
  7 18  1  0
M  END
