
     RDKit          3D

 23 24  0  0  0  0  0  0  0  0999 V2000
    2.6810    0.4409   -0.0743 C   0  0  0  0  0  0  0  0  0  0  0  0
    1.2669    0.8931    0.2241 C   0  0  0  0  0  0  0  0  0  0  0  0
    0.5937    0.1724    1.3854 C   0  0  0  0  0  0  0  0  0  0  0  0
    0.1287   -0.0524    0.0077 C   0  0  0  0  0  0  0  0  0  0  0  0
    0.5637   -1.3547   -0.6795 C   0  0  0  0  0  0  0  0  0  0  0  0
   -1.1945    0.4478   -0.4914 C   0  0  0  0  0  0  0  0  0  0  0  0
   -2.1557   -0.7111   -0.6183 C   0  0  0  0  0  0  0  0  0  0  0  0
   -3.1660    0.0541   -0.0969 O   0  0  0  0  0  0  0  0  0  0  0  0
   -2.1947    0.9049    0.4815 C   0  0  0  0  0  0  0  0  0  0  0  0
    3.3708    1.1907    0.3540 H   0  0  0  0  0  0  0  0  0  0  0  0
    2.8910    0.4040   -1.1629 H   0  0  0  0  0  0  0  0  0  0  0  0
    2.8910   -0.5705    0.3705 H   0  0  0  0  0  0  0  0  0  0  0  0
    1.0974    1.9749    0.1302 H   0  0  0  0  0  0  0  0  0  0  0  0
    0.0561    0.7780    2.1223 H   0  0  0  0  0  0  0  0  0  0  0  0
    1.1698   -0.6678    1.8752 H   0  0  0  0  0  0  0  0  0  0  0  0
   -0.2895   -1.8551   -1.1745 H   0  0  0  0  0  0  0  0  0  0  0  0
    1.2861   -1.0566   -1.4767 H   0  0  0  0  0  0  0  0  0  0  0  0
    0.9938   -2.0694    0.0348 H   0  0  0  0  0  0  0  0  0  0  0  0
   -1.1545    1.0694   -1.4002 H   0  0  0  0  0  0  0  0  0  0  0  0
   -2.2486   -1.0233   -1.6762 H   0  0  0  0  0  0  0  0  0  0  0  0
   -1.9429   -1.5756    0.0364 H   0  0  0  0  0  0  0  0  0  0  0  0
   -2.5508    1.9604    0.2926 H   0  0  0  0  0  0  0  0  0  0  0  0
   -2.0926    0.6460    1.5362 H   0  0  0  0  0  0  0  0  0  0  0  0
  1  2  1  0
  2  3  1  0
  3  4  1  0
  4  5  1  0
  4  6  1  0
  6  7  1  0
  7  8  1  0
  8  9  1  0
  4  2  1  0
  9  6  1  0
  1 10  1  0
  1 11  1  0
  1 12  1  0
  2 13  1  0
  3 14  1  0
  3 15  1  0
  5 16  1  0
  5 17  1  0
  5 18  1  0
  6 19  1  0
  7 20  1  0
  7 21  1  0
  9 22  1  0
  9 23  1  0
M  END
