
     RDKit          3D

 21 21  0  0  0  0  0  0  0  0999 V2000
    2.4708   -0.2676    0.7259 C   0  0  0  0  0  0  0  0  0  0  0  0
    1.3204    0.0131   -0.2133 C   0  0  0  0  0  0  0  0  0  0  0  0
    0.6785    1.3443    0.0241 C   0  0  0  0  0  0  0  0  0  0  0  0
   -0.7102    1.1433   -0.5322 C   0  0  0  0  0  0  0  0  0  0  0  0
   -1.0143   -0.3212   -0.4360 C   0  0  0  0  0  0  0  0  0  0  0  0
   -2.1362   -0.6296    0.5197 C   0  0  0  0  0  0  0  0  0  0  0  0
   -1.2385   -0.8810   -1.7018 O   0  0  0  0  0  0  0  0  0  0  0  0
    0.2403   -0.9715    0.0785 C   0  0  0  0  0  0  0  0  0  0  0  0
    0.3091   -2.0665    0.6106 O   0  0  0  0  0  0  0  0  0  0  0  0
    2.8495   -1.2896    0.4472 H   0  0  0  0  0  0  0  0  0  0  0  0
    2.0478   -0.3413    1.7430 H   0  0  0  0  0  0  0  0  0  0  0  0
    3.2781    0.4718    0.6546 H   0  0  0  0  0  0  0  0  0  0  0  0
    1.6413   -0.0990   -1.2569 H   0  0  0  0  0  0  0  0  0  0  0  0
    1.1403    2.1693   -0.5544 H   0  0  0  0  0  0  0  0  0  0  0  0
    0.6361    1.6387    1.0731 H   0  0  0  0  0  0  0  0  0  0  0  0
   -1.4171    1.7719    0.0443 H   0  0  0  0  0  0  0  0  0  0  0  0
   -0.7183    1.4352   -1.6092 H   0  0  0  0  0  0  0  0  0  0  0  0
   -2.8728    0.1866    0.5561 H   0  0  0  0  0  0  0  0  0  0  0  0
   -2.6222   -1.5839    0.1808 H   0  0  0  0  0  0  0  0  0  0  0  0
   -1.6770   -0.8076    1.5320 H   0  0  0  0  0  0  0  0  0  0  0  0
   -2.2055   -0.9152   -1.8861 H   0  0  0  0  0  0  0  0  0  0  0  0
  1  2  1  0
  2  3  1  0
  3  4  1  0
  4  5  1  0
  5  6  1  0
  5  7  1  0
  5  8  1  0
  8  9  2  0
  8  2  1  0
  1 10  1  0
  1 11  1  0
  1 12  1  0
  2 13  1  0
  3 14  1  0
  3 15  1  0
  4 16  1  0
  4 17  1  0
  6 18  1  0
  6 19  1  0
  6 20  1  0
  7 21  1  0
M  END
