
     RDKit          3D

 22 22  0  0  0  0  0  0  0  0999 V2000
   -2.1394   -0.1541    0.7626 C   0  0  0  0  0  0  0  0  0  0  0  0
   -0.7236   -0.5962    0.5597 C   0  0  0  0  0  0  0  0  0  0  0  0
   -0.5691   -1.1848   -0.8115 C   0  0  0  0  0  0  0  0  0  0  0  0
    0.6511   -0.8315   -1.3129 O   0  0  0  0  0  0  0  0  0  0  0  0
    1.2603    0.0679   -0.4828 C   0  0  0  0  0  0  0  0  0  0  0  0
    2.4367   -0.6568    0.1850 C   0  0  0  0  0  0  0  0  0  0  0  0
    0.2672    0.5304    0.5430 C   0  0  0  0  0  0  0  0  0  0  0  0
   -0.3190    1.8395    0.0941 C   0  0  0  0  0  0  0  0  0  0  0  0
   -2.3529    0.1520    1.8056 H   0  0  0  0  0  0  0  0  0  0  0  0
   -2.4527    0.5991    0.0112 H   0  0  0  0  0  0  0  0  0  0  0  0
   -2.7891   -1.0466    0.5754 H   0  0  0  0  0  0  0  0  0  0  0  0
   -0.4555   -1.3368    1.3158 H   0  0  0  0  0  0  0  0  0  0  0  0
   -0.7573   -2.2713   -0.7653 H   0  0  0  0  0  0  0  0  0  0  0  0
   -1.3503   -0.7684   -1.5121 H   0  0  0  0  0  0  0  0  0  0  0  0
    1.6307    0.9159   -1.0837 H   0  0  0  0  0  0  0  0  0  0  0  0
    2.8295   -0.0607    1.0247 H   0  0  0  0  0  0  0  0  0  0  0  0
    3.1971   -0.8026   -0.6126 H   0  0  0  0  0  0  0  0  0  0  0  0
    2.1059   -1.6696    0.4903 H   0  0  0  0  0  0  0  0  0  0  0  0
    0.7617    0.6840    1.5198 H   0  0  0  0  0  0  0  0  0  0  0  0
   -1.1768    2.1769    0.6727 H   0  0  0  0  0  0  0  0  0  0  0  0
    0.4780    2.6072    0.2072 H   0  0  0  0  0  0  0  0  0  0  0  0
   -0.5326    1.8064   -1.0139 H   0  0  0  0  0  0  0  0  0  0  0  0
  1  2  1  0
  2  3  1  0
  3  4  1  0
  4  5  1  0
  5  6  1  0
  5  7  1  0
  7  8  1  0
  7  2  1  0
  1  9  1  0
  1 10  1  0
  1 11  1  0
  2 12  1  0
  3 13  1  0
  3 14  1  0
  5 15  1  0
  6 16  1  0
  6 17  1  0
  6 18  1  0
  7 19  1  0
  8 20  1  0
  8 21  1  0
  8 22  1  0
M  END
