
     RDKit          3D

 23 24  0  0  0  0  0  0  0  0999 V2000
    2.9018    0.4578   -0.8253 C   0  0  0  0  0  0  0  0  0  0  0  0
    1.5411    0.5960   -0.1938 C   0  0  0  0  0  0  0  0  0  0  0  0
    1.5700    0.0068    1.2095 C   0  0  0  0  0  0  0  0  0  0  0  0
    0.1258   -0.2927    1.4129 C   0  0  0  0  0  0  0  0  0  0  0  0
   -0.4744   -0.4803    0.2411 C   0  0  0  0  0  0  0  0  0  0  0  0
   -1.9011   -0.7943    0.0804 C   0  0  0  0  0  0  0  0  0  0  0  0
   -2.8500    0.1814    0.7916 C   0  0  0  0  0  0  0  0  0  0  0  0
   -2.8309    0.0584   -0.6696 C   0  0  0  0  0  0  0  0  0  0  0  0
    0.5138   -0.3235   -0.8616 C   0  0  0  0  0  0  0  0  0  0  0  0
    3.6335    0.9357   -0.1519 H   0  0  0  0  0  0  0  0  0  0  0  0
    2.9219    0.9736   -1.7900 H   0  0  0  0  0  0  0  0  0  0  0  0
    3.0967   -0.6451   -0.9435 H   0  0  0  0  0  0  0  0  0  0  0  0
    1.1971    1.6302   -0.1443 H   0  0  0  0  0  0  0  0  0  0  0  0
    1.9689    0.7260    1.9417 H   0  0  0  0  0  0  0  0  0  0  0  0
    2.1125   -0.9641    1.2301 H   0  0  0  0  0  0  0  0  0  0  0  0
   -0.3341   -0.3421    2.3935 H   0  0  0  0  0  0  0  0  0  0  0  0
   -2.1485   -1.8644    0.1846 H   0  0  0  0  0  0  0  0  0  0  0  0
   -2.4202    1.0910    1.2440 H   0  0  0  0  0  0  0  0  0  0  0  0
   -3.6347   -0.2832    1.4236 H   0  0  0  0  0  0  0  0  0  0  0  0
   -3.6802   -0.4453   -1.1746 H   0  0  0  0  0  0  0  0  0  0  0  0
   -2.4769    0.9494   -1.2395 H   0  0  0  0  0  0  0  0  0  0  0  0
    1.0724   -1.2832   -1.0430 H   0  0  0  0  0  0  0  0  0  0  0  0
    0.0954    0.1119   -1.7679 H   0  0  0  0  0  0  0  0  0  0  0  0
  1  2  1  0
  2  3  1  0
  3  4  1  0
  4  5  2  0
  5  6  1  0
  6  7  1  0
  7  8  1  0
  5  9  1  0
  9  2  1  0
  8  6  1  0
  1 10  1  0
  1 11  1  0
  1 12  1  0
  2 13  1  0
  3 14  1  0
  3 15  1  0
  4 16  1  0
  6 17  1  0
  7 18  1  0
  7 19  1  0
  8 20  1  0
  8 21  1  0
  9 22  1  0
  9 23  1  0
M  END
