
     RDKit          3D

 21 22  0  0  0  0  0  0  0  0999 V2000
   -2.2251   -0.7533    0.5090 C   0  0  0  0  0  0  0  0  0  0  0  0
   -1.0676   -0.6374   -0.4148 C   0  0  0  0  0  0  0  0  0  0  0  0
   -0.8589    0.7782   -0.8499 C   0  0  0  0  0  0  0  0  0  0  0  0
   -1.5421    1.6582   -0.0198 O   0  0  0  0  0  0  0  0  0  0  0  0
    0.6151    1.0089   -0.8021 C   0  0  0  0  0  0  0  0  0  0  0  0
    1.2388   -0.2626   -0.2140 C   0  0  0  0  0  0  0  0  0  0  0  0
    2.6110   -0.0137    0.3384 C   0  0  0  0  0  0  0  0  0  0  0  0
    1.1522   -1.4334   -0.9806 O   0  0  0  0  0  0  0  0  0  0  0  0
    0.2430   -1.0919    0.1741 C   0  0  0  0  0  0  0  0  0  0  0  0
   -2.8983   -1.6159    0.2253 H   0  0  0  0  0  0  0  0  0  0  0  0
   -2.8997    0.1471    0.4079 H   0  0  0  0  0  0  0  0  0  0  0  0
   -1.9881   -0.8897    1.5611 H   0  0  0  0  0  0  0  0  0  0  0  0
   -1.3180   -1.2391   -1.3387 H   0  0  0  0  0  0  0  0  0  0  0  0
   -1.1796    0.9369   -1.9187 H   0  0  0  0  0  0  0  0  0  0  0  0
   -0.9119    1.9622    0.6804 H   0  0  0  0  0  0  0  0  0  0  0  0
    1.0742    1.3004   -1.7439 H   0  0  0  0  0  0  0  0  0  0  0  0
    0.8427    1.8111   -0.0455 H   0  0  0  0  0  0  0  0  0  0  0  0
    3.2838    0.1556   -0.5542 H   0  0  0  0  0  0  0  0  0  0  0  0
    2.5651    0.9557    0.9001 H   0  0  0  0  0  0  0  0  0  0  0  0
    2.9926   -0.8075    0.9833 H   0  0  0  0  0  0  0  0  0  0  0  0
    0.2707   -1.9697    0.8391 H   0  0  0  0  0  0  0  0  0  0  0  0
  1  2  1  0
  2  3  1  0
  3  4  1  0
  3  5  1  0
  5  6  1  0
  6  7  1  0
  6  8  1  0
  8  9  1  0
  9  2  1  0
  9  6  1  0
  1 10  1  0
  1 11  1  0
  1 12  1  0
  2 13  1  0
  3 14  1  0
  4 15  1  0
  5 16  1  0
  5 17  1  0
  7 18  1  0
  7 19  1  0
  7 20  1  0
  9 21  1  0
M  END
