
     RDKit          3D

 23 24  0  0  0  0  0  0  0  0999 V2000
   -0.7055    2.1427    0.4980 C   0  0  0  0  0  0  0  0  0  0  0  0
   -0.3265    0.7458    0.8862 C   0  0  0  0  0  0  0  0  0  0  0  0
   -0.8414   -0.2485   -0.1230 C   0  0  0  0  0  0  0  0  0  0  0  0
   -2.1588   -0.6063   -0.3161 C   0  0  0  0  0  0  0  0  0  0  0  0
    0.0002    0.3736   -1.0316 O   0  0  0  0  0  0  0  0  0  0  0  0
    0.8307    0.2445    0.0923 C   0  0  0  0  0  0  0  0  0  0  0  0
    2.1438    0.6688    0.1673 C   0  0  0  0  0  0  0  0  0  0  0  0
    0.3034   -1.1343    0.2305 C   0  0  0  0  0  0  0  0  0  0  0  0
    0.7623   -2.0656   -0.8608 C   0  0  0  0  0  0  0  0  0  0  0  0
   -0.5790    2.8830    1.3181 H   0  0  0  0  0  0  0  0  0  0  0  0
   -0.1259    2.4870   -0.3926 H   0  0  0  0  0  0  0  0  0  0  0  0
   -1.7701    2.1463    0.1788 H   0  0  0  0  0  0  0  0  0  0  0  0
   -0.4074    0.4649    1.9299 H   0  0  0  0  0  0  0  0  0  0  0  0
   -2.8154   -0.4067    0.5824 H   0  0  0  0  0  0  0  0  0  0  0  0
   -2.3214   -1.6964   -0.5269 H   0  0  0  0  0  0  0  0  0  0  0  0
   -2.6619   -0.0190   -1.1393 H   0  0  0  0  0  0  0  0  0  0  0  0
    2.8902   -0.1259   -0.0455 H   0  0  0  0  0  0  0  0  0  0  0  0
    2.4192    1.0505    1.1926 H   0  0  0  0  0  0  0  0  0  0  0  0
    2.3910    1.5022   -0.5344 H   0  0  0  0  0  0  0  0  0  0  0  0
    0.2499   -1.5668    1.2484 H   0  0  0  0  0  0  0  0  0  0  0  0
    1.8838   -1.9774   -0.9157 H   0  0  0  0  0  0  0  0  0  0  0  0
    0.3475   -1.7536   -1.8368 H   0  0  0  0  0  0  0  0  0  0  0  0
    0.4913   -3.1089   -0.6016 H   0  0  0  0  0  0  0  0  0  0  0  0
  1  2  1  0
  2  3  1  0
  3  4  1  0
  3  5  1  0
  5  6  1  0
  6  7  1  0
  6  8  1  0
  8  9  1  0
  6  2  1  0
  8  3  1  0
  1 10  1  0
  1 11  1  0
  1 12  1  0
  2 13  1  0
  4 14  1  0
  4 15  1  0
  4 16  1  0
  7 17  1  0
  7 18  1  0
  7 19  1  0
  8 20  1  0
  9 21  1  0
  9 22  1  0
  9 23  1  0
M  END
