
     RDKit          3D

 21 23  0  0  0  0  0  0  0  0999 V2000
   -1.9705   -0.4856   -0.7818 C   0  0  0  0  0  0  0  0  0  0  0  0
   -1.2194    0.3263    0.1296 C   0  0  0  0  0  0  0  0  0  0  0  0
    0.0306    1.0679   -0.3789 C   0  0  0  0  0  0  0  0  0  0  0  0
    0.2483    1.1920    1.1354 C   0  0  0  0  0  0  0  0  0  0  0  0
   -0.2157   -0.2757    1.0949 C   0  0  0  0  0  0  0  0  0  0  0  0
    0.7663   -1.1505    0.3876 C   0  0  0  0  0  0  0  0  0  0  0  0
    2.0047   -0.4639   -0.0754 C   0  0  0  0  0  0  0  0  0  0  0  0
    1.0086    0.1352   -1.0027 C   0  0  0  0  0  0  0  0  0  0  0  0
    0.4279   -1.1590   -0.9908 O   0  0  0  0  0  0  0  0  0  0  0  0
   -1.8562   -1.5861   -0.7433 H   0  0  0  0  0  0  0  0  0  0  0  0
   -1.7875   -0.1523   -1.8481 H   0  0  0  0  0  0  0  0  0  0  0  0
   -3.0679   -0.3214   -0.6374 H   0  0  0  0  0  0  0  0  0  0  0  0
   -1.8287    1.0785    0.6887 H   0  0  0  0  0  0  0  0  0  0  0  0
   -0.1771    2.0081   -0.8860 H   0  0  0  0  0  0  0  0  0  0  0  0
    1.2357    1.3800    1.4770 H   0  0  0  0  0  0  0  0  0  0  0  0
   -0.5427    1.8274    1.5617 H   0  0  0  0  0  0  0  0  0  0  0  0
   -0.6210   -0.6339    2.0419 H   0  0  0  0  0  0  0  0  0  0  0  0
    0.8788   -2.1646    0.8164 H   0  0  0  0  0  0  0  0  0  0  0  0
    2.5778    0.1381    0.5888 H   0  0  0  0  0  0  0  0  0  0  0  0
    2.6517   -1.1828   -0.6240 H   0  0  0  0  0  0  0  0  0  0  0  0
    1.4560    0.4222   -1.9535 H   0  0  0  0  0  0  0  0  0  0  0  0
  1  2  1  0
  2  3  1  0
  3  4  1  0
  4  5  1  0
  5  6  1  0
  6  7  1  0
  7  8  1  0
  8  9  1  0
  5  2  1  0
  9  6  1  0
  8  3  1  0
  1 10  1  0
  1 11  1  0
  1 12  1  0
  2 13  1  0
  3 14  1  0
  4 15  1  0
  4 16  1  0
  5 17  1  0
  6 18  1  0
  7 19  1  0
  7 20  1  0
  8 21  1  0
M  END
