
     RDKit          3D

 21 22  0  0  0  0  0  0  0  0999 V2000
   -0.8586   -1.9873   -0.4208 C   0  0  0  0  0  0  0  0  0  0  0  0
   -0.4523   -0.5377   -0.5636 C   0  0  0  0  0  0  0  0  0  0  0  0
   -0.4305    0.1163    0.8083 C   0  0  0  0  0  0  0  0  0  0  0  0
   -1.2786    1.3703    0.7815 C   0  0  0  0  0  0  0  0  0  0  0  0
   -0.7574    2.2499   -0.1688 O   0  0  0  0  0  0  0  0  0  0  0  0
    1.0316    0.3391    0.6603 C   0  0  0  0  0  0  0  0  0  0  0  0
    1.9658   -0.7215    0.2571 C   0  0  0  0  0  0  0  0  0  0  0  0
    0.9986   -0.2767   -0.7748 C   0  0  0  0  0  0  0  0  0  0  0  0
    1.4178    0.5645   -1.8009 O   0  0  0  0  0  0  0  0  0  0  0  0
   -1.8686   -2.0144    0.0572 H   0  0  0  0  0  0  0  0  0  0  0  0
   -0.9041   -2.5178   -1.3832 H   0  0  0  0  0  0  0  0  0  0  0  0
   -0.1786   -2.4780    0.3183 H   0  0  0  0  0  0  0  0  0  0  0  0
   -1.0646   -0.0199   -1.3175 H   0  0  0  0  0  0  0  0  0  0  0  0
   -0.6933   -0.5376    1.6436 H   0  0  0  0  0  0  0  0  0  0  0  0
   -2.2898    1.0491    0.4185 H   0  0  0  0  0  0  0  0  0  0  0  0
   -1.3970    1.8229    1.7662 H   0  0  0  0  0  0  0  0  0  0  0  0
   -1.3996    3.0031   -0.2284 H   0  0  0  0  0  0  0  0  0  0  0  0
    1.3737    1.3843    0.6936 H   0  0  0  0  0  0  0  0  0  0  0  0
    1.8823   -1.7595    0.5854 H   0  0  0  0  0  0  0  0  0  0  0  0
    3.0155   -0.3977    0.0822 H   0  0  0  0  0  0  0  0  0  0  0  0
    1.8876    1.3487   -1.4143 H   0  0  0  0  0  0  0  0  0  0  0  0
  1  2  1  0
  2  3  1  0
  3  4  1  0
  4  5  1  0
  3  6  1  0
  6  7  1  0
  7  8  1  0
  8  9  1  0
  8  2  1  0
  8  6  1  0
  1 10  1  0
  1 11  1  0
  1 12  1  0
  2 13  1  0
  3 14  1  0
  4 15  1  0
  4 16  1  0
  5 17  1  0
  6 18  1  0
  7 19  1  0
  7 20  1  0
  9 21  1  0
M  END
