
     RDKit          3D

 17 18  0  0  0  0  0  0  0  0999 V2000
    1.9120   -0.2286    0.0463 C   0  0  0  0  0  0  0  0  0  0  0  0
    0.5511   -0.6449   -0.4201 C   0  0  0  0  0  0  0  0  0  0  0  0
   -0.2087    0.5341   -0.9664 C   0  0  0  0  0  0  0  0  0  0  0  0
   -0.1441    1.0780    0.3996 C   0  0  0  0  0  0  0  0  0  0  0  0
    0.0716    2.1050    0.9778 O   0  0  0  0  0  0  0  0  0  0  0  0
   -0.4920   -0.3501    0.6185 C   0  0  0  0  0  0  0  0  0  0  0  0
   -0.6867   -0.9305    1.7122 O   0  0  0  0  0  0  0  0  0  0  0  0
   -1.4588   -0.1728   -0.5216 C   0  0  0  0  0  0  0  0  0  0  0  0
   -2.4836    0.7416   -0.2833 O   0  0  0  0  0  0  0  0  0  0  0  0
    1.9508    0.0184    1.1230 H   0  0  0  0  0  0  0  0  0  0  0  0
    2.2240    0.7092   -0.4881 H   0  0  0  0  0  0  0  0  0  0  0  0
    2.6951   -1.0089   -0.1270 H   0  0  0  0  0  0  0  0  0  0  0  0
    0.4654   -1.5797   -0.9716 H   0  0  0  0  0  0  0  0  0  0  0  0
   -0.0520    1.0080   -1.8326 H   0  0  0  0  0  0  0  0  0  0  0  0
   -0.3561   -1.8517    1.7877 H   0  0  0  0  0  0  0  0  0  0  0  0
   -1.7304   -1.0806   -1.0636 H   0  0  0  0  0  0  0  0  0  0  0  0
   -2.2576    1.6535   -0.6113 H   0  0  0  0  0  0  0  0  0  0  0  0
  1  2  1  0
  2  3  1  0
  3  4  1  0
  4  5  2  0
  4  6  1  0
  6  7  1  0
  6  8  1  0
  8  9  1  0
  6  2  1  0
  8  3  1  0
  1 10  1  0
  1 11  1  0
  1 12  1  0
  2 13  1  0
  3 14  1  0
  7 15  1  0
  8 16  1  0
  9 17  1  0
M  END
