
     RDKit          3D

 23 24  0  0  0  0  0  0  0  0999 V2000
    2.8764    0.4368    0.5110 C   0  0  0  0  0  0  0  0  0  0  0  0
    1.8337   -0.2428   -0.3233 C   0  0  0  0  0  0  0  0  0  0  0  0
    0.7065    0.6811   -0.7970 C   0  0  0  0  0  0  0  0  0  0  0  0
   -0.2593   -0.3890   -0.4365 C   0  0  0  0  0  0  0  0  0  0  0  0
   -1.5333    0.0262    0.2335 C   0  0  0  0  0  0  0  0  0  0  0  0
   -2.4645   -1.1209    0.5685 C   0  0  0  0  0  0  0  0  0  0  0  0
   -2.0594    1.3639    0.2266 C   0  0  0  0  0  0  0  0  0  0  0  0
   -1.2804    0.9476    1.3162 O   0  0  0  0  0  0  0  0  0  0  0  0
    0.7842   -0.9328    0.5458 C   0  0  0  0  0  0  0  0  0  0  0  0
    3.4976   -0.3252    0.9901 H   0  0  0  0  0  0  0  0  0  0  0  0
    3.5279    1.0750   -0.1023 H   0  0  0  0  0  0  0  0  0  0  0  0
    2.3433    1.0079    1.3107 H   0  0  0  0  0  0  0  0  0  0  0  0
    2.2104   -0.9021   -1.1197 H   0  0  0  0  0  0  0  0  0  0  0  0
    0.8646    0.8781   -1.8792 H   0  0  0  0  0  0  0  0  0  0  0  0
    0.6424    1.6315   -0.2586 H   0  0  0  0  0  0  0  0  0  0  0  0
   -0.3759   -1.1273   -1.2556 H   0  0  0  0  0  0  0  0  0  0  0  0
   -2.1149   -1.6669    1.4867 H   0  0  0  0  0  0  0  0  0  0  0  0
   -3.5161   -0.7638    0.7364 H   0  0  0  0  0  0  0  0  0  0  0  0
   -2.4771   -1.7931   -0.2869 H   0  0  0  0  0  0  0  0  0  0  0  0
   -1.6632    2.1721   -0.4229 H   0  0  0  0  0  0  0  0  0  0  0  0
   -3.1244    1.5106    0.4955 H   0  0  0  0  0  0  0  0  0  0  0  0
    0.6849   -0.4517    1.5591 H   0  0  0  0  0  0  0  0  0  0  0  0
    0.8965   -2.0153    0.5406 H   0  0  0  0  0  0  0  0  0  0  0  0
  1  2  1  0
  2  3  1  0
  3  4  1  0
  4  5  1  0
  5  6  1  0
  5  7  1  0
  7  8  1  0
  4  9  1  0
  9  2  1  0
  8  5  1  0
  1 10  1  0
  1 11  1  0
  1 12  1  0
  2 13  1  0
  3 14  1  0
  3 15  1  0
  4 16  1  0
  6 17  1  0
  6 18  1  0
  6 19  1  0
  7 20  1  0
  7 21  1  0
  9 22  1  0
  9 23  1  0
M  END
