
     RDKit          3D

 21 23  0  0  0  0  0  0  0  0999 V2000
    2.7438    0.0269    0.2684 C   0  0  0  0  0  0  0  0  0  0  0  0
    1.5226    0.0148   -0.6322 C   0  0  0  0  0  0  0  0  0  0  0  0
    0.4819   -0.8753   -0.3662 C   0  0  0  0  0  0  0  0  0  0  0  0
   -0.5409   -1.1528    0.6758 C   0  0  0  0  0  0  0  0  0  0  0  0
   -1.8546   -0.5809    0.1299 C   0  0  0  0  0  0  0  0  0  0  0  0
   -2.0151    0.8792    0.3502 C   0  0  0  0  0  0  0  0  0  0  0  0
   -0.9955    0.9119   -0.8121 C   0  0  0  0  0  0  0  0  0  0  0  0
   -1.6995   -0.2408   -1.2414 O   0  0  0  0  0  0  0  0  0  0  0  0
    0.3246    0.6978   -0.2605 C   0  0  0  0  0  0  0  0  0  0  0  0
    2.8952   -0.9621    0.7752 H   0  0  0  0  0  0  0  0  0  0  0  0
    2.6484    0.8550    1.0303 H   0  0  0  0  0  0  0  0  0  0  0  0
    3.6954    0.2349   -0.2575 H   0  0  0  0  0  0  0  0  0  0  0  0
    1.8423    0.2182   -1.7008 H   0  0  0  0  0  0  0  0  0  0  0  0
    0.0419   -1.3296   -1.3191 H   0  0  0  0  0  0  0  0  0  0  0  0
   -0.3246   -0.6938    1.6672 H   0  0  0  0  0  0  0  0  0  0  0  0
   -0.7306   -2.2458    0.7929 H   0  0  0  0  0  0  0  0  0  0  0  0
   -2.7341   -1.2220    0.3157 H   0  0  0  0  0  0  0  0  0  0  0  0
   -1.6195    1.2901    1.2897 H   0  0  0  0  0  0  0  0  0  0  0  0
   -2.9603    1.2549   -0.0136 H   0  0  0  0  0  0  0  0  0  0  0  0
   -1.1428    1.7922   -1.4780 H   0  0  0  0  0  0  0  0  0  0  0  0
    0.4213    1.1271    0.7861 H   0  0  0  0  0  0  0  0  0  0  0  0
  1  2  1  0
  2  3  1  0
  3  4  1  0
  4  5  1  0
  5  6  1  0
  6  7  1  0
  7  8  1  0
  7  9  1  0
  9  2  1  0
  9  3  1  0
  8  5  1  0
  1 10  1  0
  1 11  1  0
  1 12  1  0
  2 13  1  0
  3 14  1  0
  4 15  1  0
  4 16  1  0
  5 17  1  0
  6 18  1  0
  6 19  1  0
  7 20  1  0
  9 21  1  0
M  END
