
     RDKit          3D

 21 22  0  0  0  0  0  0  0  0999 V2000
   -1.8939    1.6037    0.1196 C   0  0  0  0  0  0  0  0  0  0  0  0
   -1.1625    0.3219    0.4123 C   0  0  0  0  0  0  0  0  0  0  0  0
   -1.6104   -0.8593   -0.4655 C   0  0  0  0  0  0  0  0  0  0  0  0
   -0.2240   -1.3366   -0.2667 C   0  0  0  0  0  0  0  0  0  0  0  0
    0.8972   -2.0049   -0.0913 C   0  0  0  0  0  0  0  0  0  0  0  0
    2.0689   -1.0558    0.0111 C   0  0  0  0  0  0  0  0  0  0  0  0
    1.4148    0.2781    0.3681 C   0  0  0  0  0  0  0  0  0  0  0  0
    2.2353    1.2892   -0.1068 O   0  0  0  0  0  0  0  0  0  0  0  0
    0.1175    0.1523   -0.3638 C   0  0  0  0  0  0  0  0  0  0  0  0
   -1.7022    1.9819   -0.9066 H   0  0  0  0  0  0  0  0  0  0  0  0
   -2.9974    1.4853    0.2148 H   0  0  0  0  0  0  0  0  0  0  0  0
   -1.5936    2.3274    0.9048 H   0  0  0  0  0  0  0  0  0  0  0  0
   -1.0993    0.1004    1.4782 H   0  0  0  0  0  0  0  0  0  0  0  0
   -2.4101   -1.4592   -0.0350 H   0  0  0  0  0  0  0  0  0  0  0  0
   -1.7395   -0.4936   -1.4985 H   0  0  0  0  0  0  0  0  0  0  0  0
    1.0231   -3.0851   -0.0222 H   0  0  0  0  0  0  0  0  0  0  0  0
    2.6404   -0.9944   -0.9323 H   0  0  0  0  0  0  0  0  0  0  0  0
    2.7279   -1.3166    0.8618 H   0  0  0  0  0  0  0  0  0  0  0  0
    1.2083    0.3674    1.4387 H   0  0  0  0  0  0  0  0  0  0  0  0
    2.0350    2.1751    0.2650 H   0  0  0  0  0  0  0  0  0  0  0  0
    0.0645    0.5229   -1.3857 H   0  0  0  0  0  0  0  0  0  0  0  0
  1  2  1  0
  2  3  1  0
  3  4  1  0
  4  5  2  0
  5  6  1  0
  6  7  1  0
  7  8  1  0
  7  9  1  0
  9  2  1  0
  9  4  1  0
  1 10  1  0
  1 11  1  0
  1 12  1  0
  2 13  1  0
  3 14  1  0
  3 15  1  0
  5 16  1  0
  6 17  1  0
  6 18  1  0
  7 19  1  0
  8 20  1  0
  9 21  1  0
M  END
