
     RDKit          3D

 19 20  0  0  0  0  0  0  0  0999 V2000
    2.0882   -0.6136    0.0422 C   0  0  0  0  0  0  0  0  0  0  0  0
    0.7360   -0.0533    0.3668 C   0  0  0  0  0  0  0  0  0  0  0  0
    0.4442    1.2354   -0.3737 C   0  0  0  0  0  0  0  0  0  0  0  0
   -1.0783    1.2984   -0.1891 C   0  0  0  0  0  0  0  0  0  0  0  0
   -1.4345   -0.0893   -0.7169 C   0  0  0  0  0  0  0  0  0  0  0  0
   -2.4474   -0.7299    0.0421 O   0  0  0  0  0  0  0  0  0  0  0  0
   -1.4567   -1.0859    0.9499 C   0  0  0  0  0  0  0  0  0  0  0  0
   -1.4446   -1.4093    2.1634 O   0  0  0  0  0  0  0  0  0  0  0  0
   -0.3807   -0.9423   -0.0625 C   0  0  0  0  0  0  0  0  0  0  0  0
    2.3134   -1.3956    0.8033 H   0  0  0  0  0  0  0  0  0  0  0  0
    2.0548   -1.0971   -0.9397 H   0  0  0  0  0  0  0  0  0  0  0  0
    2.8646    0.1672    0.1404 H   0  0  0  0  0  0  0  0  0  0  0  0
    0.6146    0.1683    1.4538 H   0  0  0  0  0  0  0  0  0  0  0  0
    0.5945    1.0869   -1.4659 H   0  0  0  0  0  0  0  0  0  0  0  0
    0.9493    2.1056    0.0340 H   0  0  0  0  0  0  0  0  0  0  0  0
   -1.2638    1.2978    0.8937 H   0  0  0  0  0  0  0  0  0  0  0  0
   -1.5365    2.1029   -0.7516 H   0  0  0  0  0  0  0  0  0  0  0  0
   -1.5072   -0.1780   -1.7999 H   0  0  0  0  0  0  0  0  0  0  0  0
   -0.1099   -1.8682   -0.5901 H   0  0  0  0  0  0  0  0  0  0  0  0
  1  2  1  0
  2  3  1  0
  3  4  1  0
  4  5  1  0
  5  6  1  0
  6  7  1  0
  7  8  2  0
  7  9  1  0
  9  2  1  0
  9  5  1  0
  1 10  1  0
  1 11  1  0
  1 12  1  0
  2 13  1  0
  3 14  1  0
  3 15  1  0
  4 16  1  0
  4 17  1  0
  5 18  1  0
  9 19  1  0
M  END
