
     RDKit          3D

 18 19  0  0  0  0  0  0  0  0999 V2000
    1.9535   -0.6558    0.1194 C   0  0  0  0  0  0  0  0  0  0  0  0
    0.7348   -0.2872   -0.7244 C   0  0  0  0  0  0  0  0  0  0  0  0
    0.5779    1.1907   -0.6611 C   0  0  0  0  0  0  0  0  0  0  0  0
   -0.4890    1.5323    0.0136 C   0  0  0  0  0  0  0  0  0  0  0  0
   -1.1824    0.3147    0.4884 C   0  0  0  0  0  0  0  0  0  0  0  0
   -1.5166    0.2324    1.8382 O   0  0  0  0  0  0  0  0  0  0  0  0
   -1.8556   -0.5183   -0.5290 C   0  0  0  0  0  0  0  0  0  0  0  0
   -0.4937   -0.8638   -0.0729 C   0  0  0  0  0  0  0  0  0  0  0  0
    2.4850    0.2483    0.4718 H   0  0  0  0  0  0  0  0  0  0  0  0
    2.6217   -1.3535   -0.4310 H   0  0  0  0  0  0  0  0  0  0  0  0
    1.6379   -1.2126    1.0388 H   0  0  0  0  0  0  0  0  0  0  0  0
    0.8321   -0.6601   -1.7616 H   0  0  0  0  0  0  0  0  0  0  0  0
    1.2802    1.8686   -1.1279 H   0  0  0  0  0  0  0  0  0  0  0  0
   -0.8035    2.5534    0.1892 H   0  0  0  0  0  0  0  0  0  0  0  0
   -0.7499    0.6589    2.3354 H   0  0  0  0  0  0  0  0  0  0  0  0
   -2.6580   -1.2222   -0.2122 H   0  0  0  0  0  0  0  0  0  0  0  0
   -2.0514   -0.0404   -1.4970 H   0  0  0  0  0  0  0  0  0  0  0  0
   -0.3231   -1.7854    0.5222 H   0  0  0  0  0  0  0  0  0  0  0  0
  1  2  1  0
  2  3  1  0
  3  4  2  0
  4  5  1  0
  5  6  1  0
  5  7  1  0
  7  8  1  0
  8  2  1  0
  8  5  1  0
  1  9  1  0
  1 10  1  0
  1 11  1  0
  2 12  1  0
  3 13  1  0
  4 14  1  0
  6 15  1  0
  7 16  1  0
  7 17  1  0
  8 18  1  0
M  END
