
     RDKit          3D

 21 22  0  0  0  0  0  0  0  0999 V2000
    3.0609    0.3799   -0.0895 C   0  0  0  0  0  0  0  0  0  0  0  0
    1.7761   -0.2119   -0.5495 C   0  0  0  0  0  0  0  0  0  0  0  0
    0.6057    0.7781   -0.6007 C   0  0  0  0  0  0  0  0  0  0  0  0
   -0.0979   -0.5380   -0.3275 C   0  0  0  0  0  0  0  0  0  0  0  0
   -1.3787   -0.4471    0.4318 C   0  0  0  0  0  0  0  0  0  0  0  0
   -1.8831    0.9032    0.8944 C   0  0  0  0  0  0  0  0  0  0  0  0
   -2.4778   -1.3583   -0.1125 C   0  0  0  0  0  0  0  0  0  0  0  0
   -1.8235   -1.5784    1.0886 O   0  0  0  0  0  0  0  0  0  0  0  0
    1.0330   -0.8827    0.4501 O   0  0  0  0  0  0  0  0  0  0  0  0
    2.8937    1.3791    0.3595 H   0  0  0  0  0  0  0  0  0  0  0  0
    3.6472   -0.2943    0.5748 H   0  0  0  0  0  0  0  0  0  0  0  0
    3.6958    0.5483   -1.0066 H   0  0  0  0  0  0  0  0  0  0  0  0
    1.8049   -0.8600   -1.4448 H   0  0  0  0  0  0  0  0  0  0  0  0
    0.4286    1.2282   -1.5768 H   0  0  0  0  0  0  0  0  0  0  0  0
    0.6825    1.4573    0.2680 H   0  0  0  0  0  0  0  0  0  0  0  0
   -0.1466   -1.1189   -1.2774 H   0  0  0  0  0  0  0  0  0  0  0  0
   -2.6708    0.7364    1.6590 H   0  0  0  0  0  0  0  0  0  0  0  0
   -2.3548    1.4779    0.0706 H   0  0  0  0  0  0  0  0  0  0  0  0
   -1.0679    1.4672    1.3657 H   0  0  0  0  0  0  0  0  0  0  0  0
   -2.2157   -2.0908   -0.9016 H   0  0  0  0  0  0  0  0  0  0  0  0
   -3.5117   -0.9753   -0.1313 H   0  0  0  0  0  0  0  0  0  0  0  0
  1  2  1  0
  2  3  1  0
  3  4  1  0
  4  5  1  0
  5  6  1  0
  5  7  1  0
  7  8  1  0
  4  9  1  0
  9  2  1  0
  8  5  1  0
  1 10  1  0
  1 11  1  0
  1 12  1  0
  2 13  1  0
  3 14  1  0
  3 15  1  0
  4 16  1  0
  6 17  1  0
  6 18  1  0
  6 19  1  0
  7 20  1  0
  7 21  1  0
M  END
