
     RDKit          3D

 20 20  0  0  0  0  0  0  0  0999 V2000
    2.2661    0.8060   -0.3578 C   0  0  0  0  0  0  0  0  0  0  0  0
    0.9013    0.3492    0.0101 C   0  0  0  0  0  0  0  0  0  0  0  0
    0.9896   -1.1457    0.3360 C   0  0  0  0  0  0  0  0  0  0  0  0
   -0.3786   -1.5245    0.8634 C   0  0  0  0  0  0  0  0  0  0  0  0
   -1.1366   -0.3361    0.8947 O   0  0  0  0  0  0  0  0  0  0  0  0
   -1.2718    0.0700   -0.4403 C   0  0  0  0  0  0  0  0  0  0  0  0
   -2.2822    1.2137   -0.4251 C   0  0  0  0  0  0  0  0  0  0  0  0
   -0.0469    0.4851   -0.9766 O   0  0  0  0  0  0  0  0  0  0  0  0
    2.8028   -0.0042   -0.9236 H   0  0  0  0  0  0  0  0  0  0  0  0
    2.8491    0.9272    0.6018 H   0  0  0  0  0  0  0  0  0  0  0  0
    2.3198    1.7723   -0.8690 H   0  0  0  0  0  0  0  0  0  0  0  0
    0.5482    0.9301    0.8919 H   0  0  0  0  0  0  0  0  0  0  0  0
    1.1780   -1.6784   -0.6087 H   0  0  0  0  0  0  0  0  0  0  0  0
    1.7868   -1.2454    1.0815 H   0  0  0  0  0  0  0  0  0  0  0  0
   -0.3305   -1.9884    1.8533 H   0  0  0  0  0  0  0  0  0  0  0  0
   -0.8882   -2.2464    0.1908 H   0  0  0  0  0  0  0  0  0  0  0  0
   -1.7355   -0.7468   -1.0009 H   0  0  0  0  0  0  0  0  0  0  0  0
   -2.4916    1.5714   -1.4475 H   0  0  0  0  0  0  0  0  0  0  0  0
   -3.1888    0.7977    0.0792 H   0  0  0  0  0  0  0  0  0  0  0  0
   -1.8911    1.9931    0.2468 H   0  0  0  0  0  0  0  0  0  0  0  0
  1  2  1  0
  2  3  1  0
  3  4  1  0
  4  5  1  0
  5  6  1  0
  6  7  1  0
  6  8  1  0
  8  2  1  0
  1  9  1  0
  1 10  1  0
  1 11  1  0
  2 12  1  0
  3 13  1  0
  3 14  1  0
  4 15  1  0
  4 16  1  0
  6 17  1  0
  7 18  1  0
  7 19  1  0
  7 20  1  0
M  END
