
     RDKit          3D

 21 22  0  0  0  0  0  0  0  0999 V2000
    2.3491   -0.5348    0.0605 C   0  0  0  0  0  0  0  0  0  0  0  0
    0.9661   -0.2686   -0.4472 C   0  0  0  0  0  0  0  0  0  0  0  0
    0.5413    1.1445   -0.5843 C   0  0  0  0  0  0  0  0  0  0  0  0
   -0.6652    0.8516    0.2618 C   0  0  0  0  0  0  0  0  0  0  0  0
   -0.8884    1.7424    1.2906 O   0  0  0  0  0  0  0  0  0  0  0  0
   -1.8915    0.3864   -0.4882 C   0  0  0  0  0  0  0  0  0  0  0  0
   -1.6876   -0.9433   -0.8216 O   0  0  0  0  0  0  0  0  0  0  0  0
   -1.0325   -1.5382    0.2596 C   0  0  0  0  0  0  0  0  0  0  0  0
   -0.0444   -0.4600    0.6687 C   0  0  0  0  0  0  0  0  0  0  0  0
    3.0297   -0.5659   -0.8041 H   0  0  0  0  0  0  0  0  0  0  0  0
    2.6655    0.1414    0.8647 H   0  0  0  0  0  0  0  0  0  0  0  0
    2.3410   -1.5853    0.4753 H   0  0  0  0  0  0  0  0  0  0  0  0
    0.7745   -0.8516   -1.3646 H   0  0  0  0  0  0  0  0  0  0  0  0
    0.2944    1.4262   -1.6499 H   0  0  0  0  0  0  0  0  0  0  0  0
    1.2028    1.9293   -0.1824 H   0  0  0  0  0  0  0  0  0  0  0  0
   -1.3816    2.5134    0.9591 H   0  0  0  0  0  0  0  0  0  0  0  0
   -2.7379    0.4304    0.2450 H   0  0  0  0  0  0  0  0  0  0  0  0
   -2.0958    0.9653   -1.3936 H   0  0  0  0  0  0  0  0  0  0  0  0
   -1.6953   -1.8522    1.0606 H   0  0  0  0  0  0  0  0  0  0  0  0
   -0.3993   -2.4029   -0.0878 H   0  0  0  0  0  0  0  0  0  0  0  0
    0.3550   -0.5279    1.6778 H   0  0  0  0  0  0  0  0  0  0  0  0
  1  2  1  0
  2  3  1  0
  3  4  1  0
  4  5  1  0
  4  6  1  0
  6  7  1  0
  7  8  1  0
  8  9  1  0
  9  2  1  0
  9  4  1  0
  1 10  1  0
  1 11  1  0
  1 12  1  0
  2 13  1  0
  3 14  1  0
  3 15  1  0
  5 16  1  0
  6 17  1  0
  6 18  1  0
  8 19  1  0
  8 20  1  0
  9 21  1  0
M  END
