
     RDKit          3D

 23 24  0  0  0  0  0  0  0  0999 V2000
   -1.6237    2.0829    0.1405 C   0  0  0  0  0  0  0  0  0  0  0  0
   -0.8844    0.8828   -0.4128 C   0  0  0  0  0  0  0  0  0  0  0  0
    0.2412    0.2749    0.3114 C   0  0  0  0  0  0  0  0  0  0  0  0
    1.3772   -0.3966   -0.4254 C   0  0  0  0  0  0  0  0  0  0  0  0
    2.5000   -0.9970    0.4470 C   0  0  0  0  0  0  0  0  0  0  0  0
    2.7248    0.1659   -0.4635 C   0  0  0  0  0  0  0  0  0  0  0  0
   -1.0910   -0.3785    0.3595 C   0  0  0  0  0  0  0  0  0  0  0  0
   -1.3839   -1.5836   -0.5035 C   0  0  0  0  0  0  0  0  0  0  0  0
   -1.7202   -0.3844    1.5791 O   0  0  0  0  0  0  0  0  0  0  0  0
   -1.9641    1.9043    1.1857 H   0  0  0  0  0  0  0  0  0  0  0  0
   -2.5234    2.2517   -0.4954 H   0  0  0  0  0  0  0  0  0  0  0  0
   -0.9384    2.9356    0.1383 H   0  0  0  0  0  0  0  0  0  0  0  0
   -0.8525    0.8592   -1.5104 H   0  0  0  0  0  0  0  0  0  0  0  0
    0.5761    0.8401    1.2119 H   0  0  0  0  0  0  0  0  0  0  0  0
    1.0753   -1.0340   -1.2860 H   0  0  0  0  0  0  0  0  0  0  0  0
    2.8259   -2.0096    0.1954 H   0  0  0  0  0  0  0  0  0  0  0  0
    2.4391   -0.7372    1.5437 H   0  0  0  0  0  0  0  0  0  0  0  0
    3.3598   -0.0531   -1.3674 H   0  0  0  0  0  0  0  0  0  0  0  0
    2.9250    1.1548    0.0008 H   0  0  0  0  0  0  0  0  0  0  0  0
   -0.5903   -2.3585   -0.4295 H   0  0  0  0  0  0  0  0  0  0  0  0
   -2.3711   -2.0012   -0.2179 H   0  0  0  0  0  0  0  0  0  0  0  0
   -1.4573   -1.3279   -1.5856 H   0  0  0  0  0  0  0  0  0  0  0  0
   -2.6438   -0.0907    1.5841 H   0  0  0  0  0  0  0  0  0  0  0  0
  1  2  1  0
  2  3  1  0
  3  4  1  0
  4  5  1  0
  5  6  1  0
  3  7  1  0
  7  8  1  0
  7  9  1  0
  7  2  1  0
  6  4  1  0
  1 10  1  0
  1 11  1  0
  1 12  1  0
  2 13  1  0
  3 14  1  0
  4 15  1  0
  5 16  1  0
  5 17  1  0
  6 18  1  0
  6 19  1  0
  8 20  1  0
  8 21  1  0
  8 22  1  0
  9 23  1  0
M  END
