
     RDKit          3D

 21 23  0  0  0  0  0  0  0  0999 V2000
    2.6141   -0.1209    0.2193 C   0  0  0  0  0  0  0  0  0  0  0  0
    1.2199   -0.5978   -0.2058 C   0  0  0  0  0  0  0  0  0  0  0  0
    0.3899    0.5087   -0.7374 C   0  0  0  0  0  0  0  0  0  0  0  0
   -0.9530    0.2857   -1.3480 C   0  0  0  0  0  0  0  0  0  0  0  0
   -1.3855   -1.1215   -0.9423 C   0  0  0  0  0  0  0  0  0  0  0  0
   -1.2979   -0.5380    0.4674 C   0  0  0  0  0  0  0  0  0  0  0  0
   -1.8563    0.7356   -0.1886 C   0  0  0  0  0  0  0  0  0  0  0  0
    0.1281   -0.1720    0.6540 C   0  0  0  0  0  0  0  0  0  0  0  0
    0.4088    0.5798    1.7757 O   0  0  0  0  0  0  0  0  0  0  0  0
    3.1881   -0.9113    0.7034 H   0  0  0  0  0  0  0  0  0  0  0  0
    3.0918    0.2351   -0.7381 H   0  0  0  0  0  0  0  0  0  0  0  0
    2.5166    0.7973    0.8561 H   0  0  0  0  0  0  0  0  0  0  0  0
    1.2661   -1.5495   -0.7557 H   0  0  0  0  0  0  0  0  0  0  0  0
    0.6852    1.5605   -0.6370 H   0  0  0  0  0  0  0  0  0  0  0  0
   -1.1898    0.6298   -2.3185 H   0  0  0  0  0  0  0  0  0  0  0  0
   -0.6934   -1.9214   -1.1728 H   0  0  0  0  0  0  0  0  0  0  0  0
   -2.4125   -1.2919   -1.2955 H   0  0  0  0  0  0  0  0  0  0  0  0
   -1.8736   -0.9862    1.2344 H   0  0  0  0  0  0  0  0  0  0  0  0
   -1.4409    1.6196    0.3362 H   0  0  0  0  0  0  0  0  0  0  0  0
   -2.9191    0.7201   -0.3973 H   0  0  0  0  0  0  0  0  0  0  0  0
    0.5132    1.5382    1.6179 H   0  0  0  0  0  0  0  0  0  0  0  0
  1  2  1  0
  2  3  1  0
  3  4  1  0
  4  5  1  0
  5  6  1  0
  6  7  1  0
  6  8  1  0
  8  9  1  0
  8  2  1  0
  8  3  1  0
  7  4  1  0
  1 10  1  0
  1 11  1  0
  1 12  1  0
  2 13  1  0
  3 14  1  0
  4 15  1  0
  5 16  1  0
  5 17  1  0
  6 18  1  0
  7 19  1  0
  7 20  1  0
  9 21  1  0
M  END
