
     RDKit          3D

 21 21  0  0  0  0  0  0  0  0999 V2000
   -2.2435   -1.4662    0.1005 C   0  0  0  0  0  0  0  0  0  0  0  0
   -1.1524   -0.4638    0.2477 C   0  0  0  0  0  0  0  0  0  0  0  0
   -1.5612    0.8847   -0.2868 C   0  0  0  0  0  0  0  0  0  0  0  0
   -0.7598    1.9370   -0.3244 C   0  0  0  0  0  0  0  0  0  0  0  0
    0.6461    2.0563    0.1166 C   0  0  0  0  0  0  0  0  0  0  0  0
    1.4162    1.0087    0.3708 C   0  0  0  0  0  0  0  0  0  0  0  0
    1.1633   -0.4561    0.3077 C   0  0  0  0  0  0  0  0  0  0  0  0
    2.3363   -1.0463   -0.4886 C   0  0  0  0  0  0  0  0  0  0  0  0
    0.0253   -0.7880   -0.3783 O   0  0  0  0  0  0  0  0  0  0  0  0
   -1.8803   -2.5032   -0.0770 H   0  0  0  0  0  0  0  0  0  0  0  0
   -2.8459   -1.4463    1.0540 H   0  0  0  0  0  0  0  0  0  0  0  0
   -2.8905   -1.2148   -0.7654 H   0  0  0  0  0  0  0  0  0  0  0  0
   -0.9400   -0.2732    1.3394 H   0  0  0  0  0  0  0  0  0  0  0  0
   -2.5700    0.9907   -0.6596 H   0  0  0  0  0  0  0  0  0  0  0  0
   -1.1735    2.8361   -0.7286 H   0  0  0  0  0  0  0  0  0  0  0  0
    1.0522    3.0522    0.2332 H   0  0  0  0  0  0  0  0  0  0  0  0
    2.4106    1.2579    0.6808 H   0  0  0  0  0  0  0  0  0  0  0  0
    1.2119   -0.8887    1.3256 H   0  0  0  0  0  0  0  0  0  0  0  0
    2.0999   -2.0876   -0.7240 H   0  0  0  0  0  0  0  0  0  0  0  0
    3.2464   -0.8986    0.1133 H   0  0  0  0  0  0  0  0  0  0  0  0
    2.4088   -0.4906   -1.4570 H   0  0  0  0  0  0  0  0  0  0  0  0
  1  2  1  0
  2  3  1  0
  3  4  2  0
  4  5  1  0
  5  6  2  0
  6  7  1  0
  7  8  1  0
  7  9  1  0
  9  2  1  0
  1 10  1  0
  1 11  1  0
  1 12  1  0
  2 13  1  0
  3 14  1  0
  4 15  1  0
  5 16  1  0
  6 17  1  0
  7 18  1  0
  8 19  1  0
  8 20  1  0
  8 21  1  0
M  END
