
     RDKit          3D

 23 24  0  0  0  0  0  0  0  0999 V2000
   -1.1877    0.4619    1.4702 C   0  0  0  0  0  0  0  0  0  0  0  0
   -0.7346    0.8043    0.1199 C   0  0  0  0  0  0  0  0  0  0  0  0
    0.6845    1.2322   -0.0980 C   0  0  0  0  0  0  0  0  0  0  0  0
    0.6213    1.5143   -1.6053 C   0  0  0  0  0  0  0  0  0  0  0  0
   -0.1136    0.3623   -1.9937 O   0  0  0  0  0  0  0  0  0  0  0  0
   -0.3164   -0.3328   -0.8025 C   0  0  0  0  0  0  0  0  0  0  0  0
   -1.0298   -1.5729   -0.7818 C   0  0  0  0  0  0  0  0  0  0  0  0
    1.0597   -0.2259   -0.1724 C   0  0  0  0  0  0  0  0  0  0  0  0
    1.3089   -0.9571    1.0747 C   0  0  0  0  0  0  0  0  0  0  0  0
   -0.6956    1.0592    2.2910 H   0  0  0  0  0  0  0  0  0  0  0  0
   -1.1666   -0.6086    1.7450 H   0  0  0  0  0  0  0  0  0  0  0  0
   -2.2774    0.7552    1.5608 H   0  0  0  0  0  0  0  0  0  0  0  0
   -1.4178    1.4965   -0.4503 H   0  0  0  0  0  0  0  0  0  0  0  0
    1.1782    1.8983    0.5333 H   0  0  0  0  0  0  0  0  0  0  0  0
    1.6512    1.4809   -2.0172 H   0  0  0  0  0  0  0  0  0  0  0  0
    0.0908    2.4365   -1.8314 H   0  0  0  0  0  0  0  0  0  0  0  0
   -1.6444   -1.7649   -1.6983 H   0  0  0  0  0  0  0  0  0  0  0  0
   -0.3843   -2.4579   -0.6151 H   0  0  0  0  0  0  0  0  0  0  0  0
   -1.7817   -1.5952    0.0608 H   0  0  0  0  0  0  0  0  0  0  0  0
    1.8219   -0.4041   -0.9783 H   0  0  0  0  0  0  0  0  0  0  0  0
    1.2059   -0.3749    2.0142 H   0  0  0  0  0  0  0  0  0  0  0  0
    2.3907   -1.2908    1.0740 H   0  0  0  0  0  0  0  0  0  0  0  0
    0.7368   -1.9167    1.1003 H   0  0  0  0  0  0  0  0  0  0  0  0
  1  2  1  0
  2  3  1  0
  3  4  1  0
  4  5  1  0
  5  6  1  0
  6  7  1  0
  6  8  1  0
  8  9  1  0
  6  2  1  0
  8  3  1  0
  1 10  1  0
  1 11  1  0
  1 12  1  0
  2 13  1  0
  3 14  1  0
  4 15  1  0
  4 16  1  0
  7 17  1  0
  7 18  1  0
  7 19  1  0
  8 20  1  0
  9 21  1  0
  9 22  1  0
  9 23  1  0
M  END
