
     RDKit          3D

 19 19  0  0  0  0  0  0  0  0999 V2000
    2.1388    0.1147   -0.0101 C   0  0  0  0  0  0  0  0  0  0  0  0
    0.7007    0.1957    0.4169 C   0  0  0  0  0  0  0  0  0  0  0  0
    0.0841    1.5106    0.1784 C   0  0  0  0  0  0  0  0  0  0  0  0
    0.6633    2.5309   -0.0373 O   0  0  0  0  0  0  0  0  0  0  0  0
   -1.3662    1.2934    0.2628 C   0  0  0  0  0  0  0  0  0  0  0  0
   -1.5226    0.0058   -0.5362 C   0  0  0  0  0  0  0  0  0  0  0  0
   -0.1912   -0.7081   -0.4378 C   0  0  0  0  0  0  0  0  0  0  0  0
   -0.3295   -2.0439    0.1789 C   0  0  0  0  0  0  0  0  0  0  0  0
   -0.3240   -3.0508   -0.4847 O   0  0  0  0  0  0  0  0  0  0  0  0
    2.6748    1.0539    0.2511 H   0  0  0  0  0  0  0  0  0  0  0  0
    2.2267   -0.0990   -1.0889 H   0  0  0  0  0  0  0  0  0  0  0  0
    2.6087   -0.7035    0.6018 H   0  0  0  0  0  0  0  0  0  0  0  0
    0.5487   -0.0985    1.4759 H   0  0  0  0  0  0  0  0  0  0  0  0
   -1.9707    2.1105   -0.1701 H   0  0  0  0  0  0  0  0  0  0  0  0
   -1.6124    1.1208    1.3412 H   0  0  0  0  0  0  0  0  0  0  0  0
   -1.7426    0.3377   -1.5860 H   0  0  0  0  0  0  0  0  0  0  0  0
   -2.3441   -0.6139   -0.1589 H   0  0  0  0  0  0  0  0  0  0  0  0
    0.1994   -0.8011   -1.4631 H   0  0  0  0  0  0  0  0  0  0  0  0
   -0.4419   -2.1552    1.2661 H   0  0  0  0  0  0  0  0  0  0  0  0
  1  2  1  0
  2  3  1  0
  3  4  2  0
  3  5  1  0
  5  6  1  0
  6  7  1  0
  7  8  1  0
  8  9  2  0
  7  2  1  0
  1 10  1  0
  1 11  1  0
  1 12  1  0
  2 13  1  0
  5 14  1  0
  5 15  1  0
  6 16  1  0
  6 17  1  0
  7 18  1  0
  8 19  1  0
M  END
