
     RDKit          3D

 21 23  0  0  0  0  0  0  0  0999 V2000
    2.5058    0.4461   -0.1138 C   0  0  0  0  0  0  0  0  0  0  0  0
    1.6941   -0.6597    0.4994 C   0  0  0  0  0  0  0  0  0  0  0  0
    0.8194   -1.4969   -0.4090 C   0  0  0  0  0  0  0  0  0  0  0  0
    0.2457   -0.5771    0.6817 C   0  0  0  0  0  0  0  0  0  0  0  0
   -0.5753    0.5710    0.2160 C   0  0  0  0  0  0  0  0  0  0  0  0
   -2.0659    0.4733    0.5332 C   0  0  0  0  0  0  0  0  0  0  0  0
   -2.4145    0.9874   -0.8152 C   0  0  0  0  0  0  0  0  0  0  0  0
   -1.5926    1.6242   -1.6819 O   0  0  0  0  0  0  0  0  0  0  0  0
   -1.0307    0.4530   -1.2334 C   0  0  0  0  0  0  0  0  0  0  0  0
    1.9730    1.3933   -0.2079 H   0  0  0  0  0  0  0  0  0  0  0  0
    2.8887    0.1773   -1.1406 H   0  0  0  0  0  0  0  0  0  0  0  0
    3.4364    0.6521    0.4795 H   0  0  0  0  0  0  0  0  0  0  0  0
    2.2566   -1.2777    1.2492 H   0  0  0  0  0  0  0  0  0  0  0  0
    0.7298   -1.2203   -1.4556 H   0  0  0  0  0  0  0  0  0  0  0  0
    0.7134   -2.5769   -0.2113 H   0  0  0  0  0  0  0  0  0  0  0  0
   -0.2036   -1.1109    1.5731 H   0  0  0  0  0  0  0  0  0  0  0  0
   -0.2155    1.5811    0.4606 H   0  0  0  0  0  0  0  0  0  0  0  0
   -2.4197   -0.5741    0.6593 H   0  0  0  0  0  0  0  0  0  0  0  0
   -2.3073    1.0828    1.4037 H   0  0  0  0  0  0  0  0  0  0  0  0
   -3.3175    0.5465   -1.2897 H   0  0  0  0  0  0  0  0  0  0  0  0
   -1.1203   -0.4946   -1.7379 H   0  0  0  0  0  0  0  0  0  0  0  0
  1  2  1  0
  2  3  1  0
  3  4  1  0
  4  5  1  0
  5  6  1  0
  6  7  1  0
  7  8  1  0
  8  9  1  0
  4  2  1  0
  9  5  1  0
  9  7  1  0
  1 10  1  0
  1 11  1  0
  1 12  1  0
  2 13  1  0
  3 14  1  0
  3 15  1  0
  4 16  1  0
  5 17  1  0
  6 18  1  0
  6 19  1  0
  7 20  1  0
  9 21  1  0
M  END
