
     RDKit          3D

 19 19  0  0  0  0  0  0  0  0999 V2000
   -2.4552    0.0912   -0.1142 C   0  0  0  0  0  0  0  0  0  0  0  0
   -1.2398   -0.0457   -0.9882 C   0  0  0  0  0  0  0  0  0  0  0  0
   -0.4761    1.2791   -1.0999 C   0  0  0  0  0  0  0  0  0  0  0  0
    0.7086    0.8024   -1.7093 O   0  0  0  0  0  0  0  0  0  0  0  0
    1.0966   -0.2636   -0.9205 C   0  0  0  0  0  0  0  0  0  0  0  0
    1.8710    0.2710    0.1480 O   0  0  0  0  0  0  0  0  0  0  0  0
    3.1633   -0.1771    0.3909 C   0  0  0  0  0  0  0  0  0  0  0  0
    3.5989   -1.0725   -0.3827 O   0  0  0  0  0  0  0  0  0  0  0  0
   -0.1728   -0.9136   -0.3980 C   0  0  0  0  0  0  0  0  0  0  0  0
   -3.1217   -0.7746   -0.3619 H   0  0  0  0  0  0  0  0  0  0  0  0
   -2.2368    0.1052    0.9580 H   0  0  0  0  0  0  0  0  0  0  0  0
   -3.0054    0.9964   -0.4447 H   0  0  0  0  0  0  0  0  0  0  0  0
   -1.5710   -0.3434   -1.9892 H   0  0  0  0  0  0  0  0  0  0  0  0
   -0.9924    2.0157   -1.7005 H   0  0  0  0  0  0  0  0  0  0  0  0
   -0.1796    1.5992   -0.0894 H   0  0  0  0  0  0  0  0  0  0  0  0
    1.6884   -1.0190   -1.4414 H   0  0  0  0  0  0  0  0  0  0  0  0
    3.7727    0.2242    1.2094 H   0  0  0  0  0  0  0  0  0  0  0  0
   -0.2037   -0.8013    0.6978 H   0  0  0  0  0  0  0  0  0  0  0  0
   -0.2449   -1.9737   -0.7055 H   0  0  0  0  0  0  0  0  0  0  0  0
  1  2  1  0
  2  3  1  0
  3  4  1  0
  4  5  1  0
  5  6  1  0
  6  7  1  0
  7  8  2  0
  5  9  1  0
  9  2  1  0
  1 10  1  0
  1 11  1  0
  1 12  1  0
  2 13  1  0
  3 14  1  0
  3 15  1  0
  5 16  1  0
  7 17  1  0
  9 18  1  0
  9 19  1  0
M  END
