
     RDKit          3D

 21 21  0  0  0  0  0  0  0  0999 V2000
   -2.2267   -0.2439    0.0099 C   0  0  0  0  0  0  0  0  0  0  0  0
   -0.7517   -0.2179    0.2243 C   0  0  0  0  0  0  0  0  0  0  0  0
   -0.1091   -1.3449   -0.5546 C   0  0  0  0  0  0  0  0  0  0  0  0
    1.3116   -1.3939   -0.1559 C   0  0  0  0  0  0  0  0  0  0  0  0
    1.9676   -2.4191   -0.2243 O   0  0  0  0  0  0  0  0  0  0  0  0
    1.9988   -0.1767    0.3496 C   0  0  0  0  0  0  0  0  0  0  0  0
    1.3427    1.0918   -0.0506 C   0  0  0  0  0  0  0  0  0  0  0  0
   -0.1367    1.1125   -0.0267 C   0  0  0  0  0  0  0  0  0  0  0  0
   -0.6639    1.7289   -1.1765 O   0  0  0  0  0  0  0  0  0  0  0  0
   -2.5582    0.3029   -0.9044 H   0  0  0  0  0  0  0  0  0  0  0  0
   -2.7003    0.2057    0.9304 H   0  0  0  0  0  0  0  0  0  0  0  0
   -2.6052   -1.2734   -0.0533 H   0  0  0  0  0  0  0  0  0  0  0  0
   -0.5748   -0.4656    1.3113 H   0  0  0  0  0  0  0  0  0  0  0  0
   -0.5958   -2.2903   -0.1853 H   0  0  0  0  0  0  0  0  0  0  0  0
   -0.2701   -1.2676   -1.6402 H   0  0  0  0  0  0  0  0  0  0  0  0
    3.0193   -0.1924   -0.1134 H   0  0  0  0  0  0  0  0  0  0  0  0
    2.1214   -0.2587    1.4685 H   0  0  0  0  0  0  0  0  0  0  0  0
    1.6693    1.3199   -1.1073 H   0  0  0  0  0  0  0  0  0  0  0  0
    1.7859    1.9099    0.5895 H   0  0  0  0  0  0  0  0  0  0  0  0
   -0.4531    1.7880    0.8218 H   0  0  0  0  0  0  0  0  0  0  0  0
   -1.5712    2.0847   -1.0177 H   0  0  0  0  0  0  0  0  0  0  0  0
  1  2  1  0
  2  3  1  0
  3  4  1  0
  4  5  2  0
  4  6  1  0
  6  7  1  0
  7  8  1  0
  8  9  1  0
  8  2  1  0
  1 10  1  0
  1 11  1  0
  1 12  1  0
  2 13  1  0
  3 14  1  0
  3 15  1  0
  6 16  1  0
  6 17  1  0
  7 18  1  0
  7 19  1  0
  8 20  1  0
  9 21  1  0
M  END
