
     RDKit          3D

 21 21  0  0  0  0  0  0  0  0999 V2000
    2.2926    0.7071   -0.1255 C   0  0  0  0  0  0  0  0  0  0  0  0
    0.9609    0.4156    0.4395 C   0  0  0  0  0  0  0  0  0  0  0  0
    0.6964   -0.9720    0.9479 C   0  0  0  0  0  0  0  0  0  0  0  0
    0.0571   -0.5915   -0.2800 C   0  0  0  0  0  0  0  0  0  0  0  0
    0.6777   -1.0230   -1.5270 C   0  0  0  0  0  0  0  0  0  0  0  0
    1.1665   -2.2059   -1.5565 O   0  0  0  0  0  0  0  0  0  0  0  0
   -1.3504   -0.0336   -0.4584 C   0  0  0  0  0  0  0  0  0  0  0  0
   -2.0377    0.3446    0.7942 C   0  0  0  0  0  0  0  0  0  0  0  0
   -3.3382    0.8065    0.4650 O   0  0  0  0  0  0  0  0  0  0  0  0
    2.2660    1.5619   -0.8481 H   0  0  0  0  0  0  0  0  0  0  0  0
    2.7532   -0.1639   -0.6079 H   0  0  0  0  0  0  0  0  0  0  0  0
    2.9616    1.0802    0.7129 H   0  0  0  0  0  0  0  0  0  0  0  0
    0.5162    1.2403    1.0010 H   0  0  0  0  0  0  0  0  0  0  0  0
    0.2294   -1.0406    1.9583 H   0  0  0  0  0  0  0  0  0  0  0  0
    1.5951   -1.6884    0.8942 H   0  0  0  0  0  0  0  0  0  0  0  0
    0.7817   -0.4569   -2.4162 H   0  0  0  0  0  0  0  0  0  0  0  0
   -1.9350   -0.9043   -0.9082 H   0  0  0  0  0  0  0  0  0  0  0  0
   -1.3491    0.7238   -1.2517 H   0  0  0  0  0  0  0  0  0  0  0  0
   -1.4871    1.0880    1.4106 H   0  0  0  0  0  0  0  0  0  0  0  0
   -2.1805   -0.5592    1.3842 H   0  0  0  0  0  0  0  0  0  0  0  0
   -3.2764    1.6715   -0.0284 H   0  0  0  0  0  0  0  0  0  0  0  0
  1  2  1  0
  2  3  1  0
  3  4  1  0
  4  5  1  0
  5  6  2  0
  4  7  1  0
  7  8  1  0
  8  9  1  0
  4  2  1  0
  1 10  1  0
  1 11  1  0
  1 12  1  0
  2 13  1  0
  3 14  1  0
  3 15  1  0
  5 16  1  0
  7 17  1  0
  7 18  1  0
  8 19  1  0
  8 20  1  0
  9 21  1  0
M  END
