
     RDKit          3D

 23 23  0  0  0  0  0  0  0  0999 V2000
   -1.2453   -1.6212    0.3478 C   0  0  0  0  0  0  0  0  0  0  0  0
   -0.7788   -0.4596   -0.4638 C   0  0  0  0  0  0  0  0  0  0  0  0
   -1.5859    0.7584   -0.0268 C   0  0  0  0  0  0  0  0  0  0  0  0
   -1.2067    1.8997   -0.7143 O   0  0  0  0  0  0  0  0  0  0  0  0
    0.0965    2.2025   -0.2803 C   0  0  0  0  0  0  0  0  0  0  0  0
    1.0724    1.1786   -0.7795 C   0  0  0  0  0  0  0  0  0  0  0  0
    0.6870   -0.2282   -0.4336 C   0  0  0  0  0  0  0  0  0  0  0  0
    1.3482   -0.6825    0.8567 C   0  0  0  0  0  0  0  0  0  0  0  0
    1.1432   -2.0497    1.0359 O   0  0  0  0  0  0  0  0  0  0  0  0
   -2.3659   -1.6715    0.2276 H   0  0  0  0  0  0  0  0  0  0  0  0
   -1.0823   -1.4582    1.4370 H   0  0  0  0  0  0  0  0  0  0  0  0
   -0.8749   -2.5991   -0.0074 H   0  0  0  0  0  0  0  0  0  0  0  0
   -1.0997   -0.6519   -1.5286 H   0  0  0  0  0  0  0  0  0  0  0  0
   -2.6408    0.5401   -0.3280 H   0  0  0  0  0  0  0  0  0  0  0  0
   -1.5807    0.8881    1.0716 H   0  0  0  0  0  0  0  0  0  0  0  0
    0.0834    2.1443    0.8232 H   0  0  0  0  0  0  0  0  0  0  0  0
    0.3631    3.1797   -0.6821 H   0  0  0  0  0  0  0  0  0  0  0  0
    2.0719    1.4528   -0.3800 H   0  0  0  0  0  0  0  0  0  0  0  0
    1.1485    1.2966   -1.8846 H   0  0  0  0  0  0  0  0  0  0  0  0
    1.1434   -0.8848   -1.2333 H   0  0  0  0  0  0  0  0  0  0  0  0
    2.4564   -0.5686    0.6815 H   0  0  0  0  0  0  0  0  0  0  0  0
    1.0641   -0.0750    1.7145 H   0  0  0  0  0  0  0  0  0  0  0  0
    1.7828   -2.5903    0.5465 H   0  0  0  0  0  0  0  0  0  0  0  0
  1  2  1  0
  2  3  1  0
  3  4  1  0
  4  5  1  0
  5  6  1  0
  6  7  1  0
  7  8  1  0
  8  9  1  0
  7  2  1  0
  1 10  1  0
  1 11  1  0
  1 12  1  0
  2 13  1  0
  3 14  1  0
  3 15  1  0
  5 16  1  0
  5 17  1  0
  6 18  1  0
  6 19  1  0
  7 20  1  0
  8 21  1  0
  8 22  1  0
  9 23  1  0
M  END
