
     RDKit          3D

 19 20  0  0  0  0  0  0  0  0999 V2000
   -2.2389    0.6947   -0.5408 C   0  0  0  0  0  0  0  0  0  0  0  0
   -1.1689    0.1275    0.3379 C   0  0  0  0  0  0  0  0  0  0  0  0
   -0.9667   -1.3680    0.0622 C   0  0  0  0  0  0  0  0  0  0  0  0
    0.2821   -1.6495    0.4089 C   0  0  0  0  0  0  0  0  0  0  0  0
    0.8759   -0.4320    0.8892 C   0  0  0  0  0  0  0  0  0  0  0  0
    1.4585    0.7320    0.3814 C   0  0  0  0  0  0  0  0  0  0  0  0
    2.6886    0.6277   -0.4842 C   0  0  0  0  0  0  0  0  0  0  0  0
    2.8181   -0.2964   -1.2928 O   0  0  0  0  0  0  0  0  0  0  0  0
    0.1977    0.4994   -0.1704 C   0  0  0  0  0  0  0  0  0  0  0  0
   -2.1133    0.2407   -1.5559 H   0  0  0  0  0  0  0  0  0  0  0  0
   -3.2395    0.5484   -0.1211 H   0  0  0  0  0  0  0  0  0  0  0  0
   -2.0441    1.8040   -0.6086 H   0  0  0  0  0  0  0  0  0  0  0  0
   -1.3266    0.2742    1.4035 H   0  0  0  0  0  0  0  0  0  0  0  0
   -1.7464   -1.9927   -0.3374 H   0  0  0  0  0  0  0  0  0  0  0  0
    0.7167   -2.6267    0.3244 H   0  0  0  0  0  0  0  0  0  0  0  0
    0.5057   -0.3070    1.9680 H   0  0  0  0  0  0  0  0  0  0  0  0
    1.5573    1.6475    1.0399 H   0  0  0  0  0  0  0  0  0  0  0  0
    3.5098    1.3309   -0.4549 H   0  0  0  0  0  0  0  0  0  0  0  0
    0.2339    0.1451   -1.2494 H   0  0  0  0  0  0  0  0  0  0  0  0
  1  2  1  0
  2  3  1  0
  3  4  2  0
  4  5  1  0
  5  6  1  0
  6  7  1  0
  7  8  2  0
  6  9  1  0
  9  2  1  0
  9  5  1  0
  1 10  1  0
  1 11  1  0
  1 12  1  0
  2 13  1  0
  3 14  1  0
  4 15  1  0
  5 16  1  0
  6 17  1  0
  7 18  1  0
  9 19  1  0
M  END
