
     RDKit          3D

 21 21  0  0  0  0  0  0  0  0999 V2000
   -1.1406    1.5776   -1.1098 C   0  0  0  0  0  0  0  0  0  0  0  0
   -0.3157    0.3513   -0.9046 C   0  0  0  0  0  0  0  0  0  0  0  0
    0.7615    0.3020    0.1252 C   0  0  0  0  0  0  0  0  0  0  0  0
    2.0046   -0.5056   -0.1922 C   0  0  0  0  0  0  0  0  0  0  0  0
    2.9069   -0.4519    0.8609 O   0  0  0  0  0  0  0  0  0  0  0  0
   -0.5205   -0.3243    0.4352 C   0  0  0  0  0  0  0  0  0  0  0  0
   -0.7668   -1.8011    0.3179 C   0  0  0  0  0  0  0  0  0  0  0  0
   -1.3771    0.3709    1.4422 C   0  0  0  0  0  0  0  0  0  0  0  0
   -1.2787    1.5840    1.6404 O   0  0  0  0  0  0  0  0  0  0  0  0
   -0.7548    2.4077   -0.4834 H   0  0  0  0  0  0  0  0  0  0  0  0
   -1.0589    1.8891   -2.1715 H   0  0  0  0  0  0  0  0  0  0  0  0
   -2.2289    1.4262   -0.8848 H   0  0  0  0  0  0  0  0  0  0  0  0
   -0.1397   -0.2631   -1.7956 H   0  0  0  0  0  0  0  0  0  0  0  0
    0.9899    1.2799    0.5881 H   0  0  0  0  0  0  0  0  0  0  0  0
    1.7713   -1.5290   -0.5167 H   0  0  0  0  0  0  0  0  0  0  0  0
    2.5111    0.0171   -1.0555 H   0  0  0  0  0  0  0  0  0  0  0  0
    3.4825    0.3474    0.8234 H   0  0  0  0  0  0  0  0  0  0  0  0
   -0.6823   -2.3326    1.2998 H   0  0  0  0  0  0  0  0  0  0  0  0
   -1.8557   -1.9156    0.0395 H   0  0  0  0  0  0  0  0  0  0  0  0
   -0.2026   -2.2787   -0.4866 H   0  0  0  0  0  0  0  0  0  0  0  0
   -2.1053   -0.1512    2.0281 H   0  0  0  0  0  0  0  0  0  0  0  0
  1  2  1  0
  2  3  1  0
  3  4  1  0
  4  5  1  0
  3  6  1  0
  6  7  1  0
  6  8  1  0
  8  9  2  0
  6  2  1  0
  1 10  1  0
  1 11  1  0
  1 12  1  0
  2 13  1  0
  3 14  1  0
  4 15  1  0
  4 16  1  0
  5 17  1  0
  7 18  1  0
  7 19  1  0
  7 20  1  0
  8 21  1  0
M  END
