
     RDKit          3D

 21 22  0  0  0  0  0  0  0  0999 V2000
    2.9072    0.5390    0.5503 C   0  0  0  0  0  0  0  0  0  0  0  0
    1.7328    0.3537   -0.3527 C   0  0  0  0  0  0  0  0  0  0  0  0
    1.4323   -1.1256   -0.6085 C   0  0  0  0  0  0  0  0  0  0  0  0
    0.1552   -0.9694   -1.1896 O   0  0  0  0  0  0  0  0  0  0  0  0
   -0.4278    0.0990   -0.5562 C   0  0  0  0  0  0  0  0  0  0  0  0
   -1.6042   -0.4219    0.2458 C   0  0  0  0  0  0  0  0  0  0  0  0
   -2.4453    0.4941    1.0483 C   0  0  0  0  0  0  0  0  0  0  0  0
   -2.9778    0.0278   -0.2728 C   0  0  0  0  0  0  0  0  0  0  0  0
    0.5227    0.7222    0.2284 O   0  0  0  0  0  0  0  0  0  0  0  0
    2.8454   -0.1836    1.3812 H   0  0  0  0  0  0  0  0  0  0  0  0
    2.9286    1.5896    0.8786 H   0  0  0  0  0  0  0  0  0  0  0  0
    3.8195    0.3238   -0.0223 H   0  0  0  0  0  0  0  0  0  0  0  0
    1.8146    0.8678   -1.3163 H   0  0  0  0  0  0  0  0  0  0  0  0
    2.1452   -1.5969   -1.2706 H   0  0  0  0  0  0  0  0  0  0  0  0
    1.2659   -1.6205    0.3589 H   0  0  0  0  0  0  0  0  0  0  0  0
   -0.7809    0.8766   -1.2949 H   0  0  0  0  0  0  0  0  0  0  0  0
   -1.5664   -1.5133    0.5249 H   0  0  0  0  0  0  0  0  0  0  0  0
   -2.9069    0.0180    1.9582 H   0  0  0  0  0  0  0  0  0  0  0  0
   -2.0924    1.5302    1.1353 H   0  0  0  0  0  0  0  0  0  0  0  0
   -3.7867   -0.7188   -0.2855 H   0  0  0  0  0  0  0  0  0  0  0  0
   -2.9809    0.7085   -1.1405 H   0  0  0  0  0  0  0  0  0  0  0  0
  1  2  1  0
  2  3  1  0
  3  4  1  0
  4  5  1  0
  5  6  1  0
  6  7  1  0
  7  8  1  0
  5  9  1  0
  9  2  1  0
  8  6  1  0
  1 10  1  0
  1 11  1  0
  1 12  1  0
  2 13  1  0
  3 14  1  0
  3 15  1  0
  5 16  1  0
  6 17  1  0
  7 18  1  0
  7 19  1  0
  8 20  1  0
  8 21  1  0
M  END
