
     RDKit          3D

 15 16  0  0  0  0  0  0  0  0999 V2000
   -1.6832   -0.0338    0.7255 C   0  0  0  0  0  0  0  0  0  0  0  0
   -0.9270    0.2181   -0.5534 C   0  0  0  0  0  0  0  0  0  0  0  0
    0.1445    1.2187   -0.3355 C   0  0  0  0  0  0  0  0  0  0  0  0
    0.1473    2.3953   -0.0730 O   0  0  0  0  0  0  0  0  0  0  0  0
    1.1462    0.1898   -0.5701 C   0  0  0  0  0  0  0  0  0  0  0  0
    2.1094   -0.2060    0.4856 C   0  0  0  0  0  0  0  0  0  0  0  0
    2.8725   -1.1234    0.2651 O   0  0  0  0  0  0  0  0  0  0  0  0
    1.1170   -0.4658   -1.7703 O   0  0  0  0  0  0  0  0  0  0  0  0
    0.1130   -0.8240   -0.8964 C   0  0  0  0  0  0  0  0  0  0  0  0
   -2.2439    0.8887    0.9639 H   0  0  0  0  0  0  0  0  0  0  0  0
   -2.3958   -0.8445    0.5851 H   0  0  0  0  0  0  0  0  0  0  0  0
   -1.0238   -0.2977    1.5735 H   0  0  0  0  0  0  0  0  0  0  0  0
   -1.6251    0.4229   -1.3774 H   0  0  0  0  0  0  0  0  0  0  0  0
    2.1636    0.2806    1.4356 H   0  0  0  0  0  0  0  0  0  0  0  0
    0.0853   -1.8191   -0.4580 H   0  0  0  0  0  0  0  0  0  0  0  0
  1  2  1  0
  2  3  1  0
  3  4  2  0
  3  5  1  0
  5  6  1  0
  6  7  2  0
  5  8  1  0
  8  9  1  0
  9  2  1  0
  9  5  1  0
  1 10  1  0
  1 11  1  0
  1 12  1  0
  2 13  1  0
  6 14  1  0
  9 15  1  0
M  END
