
     RDKit          3D

 25 26  0  0  0  0  0  0  0  0999 V2000
    2.3962   -1.1139   -0.0801 C   0  0  0  0  0  0  0  0  0  0  0  0
    1.9326    0.1776    0.5442 C   0  0  0  0  0  0  0  0  0  0  0  0
    0.4812    0.2298    1.0645 C   0  0  0  0  0  0  0  0  0  0  0  0
   -0.3040   -1.0030    0.7927 C   0  0  0  0  0  0  0  0  0  0  0  0
   -1.6622   -0.8547    0.2634 C   0  0  0  0  0  0  0  0  0  0  0  0
   -2.1259    0.5091   -0.1149 C   0  0  0  0  0  0  0  0  0  0  0  0
   -1.2567    1.2863   -1.0123 C   0  0  0  0  0  0  0  0  0  0  0  0
    0.1050    0.6408   -1.2638 C   0  0  0  0  0  0  0  0  0  0  0  0
    0.9229    1.0192   -0.0743 C   0  0  0  0  0  0  0  0  0  0  0  0
    2.2333   -1.9728    0.6217 H   0  0  0  0  0  0  0  0  0  0  0  0
    1.9055   -1.2897   -1.0628 H   0  0  0  0  0  0  0  0  0  0  0  0
    3.4762   -0.9904   -0.3007 H   0  0  0  0  0  0  0  0  0  0  0  0
    2.6591    0.6400    1.2136 H   0  0  0  0  0  0  0  0  0  0  0  0
    0.3056    0.7470    2.0174 H   0  0  0  0  0  0  0  0  0  0  0  0
    0.2632   -1.7241    0.1303 H   0  0  0  0  0  0  0  0  0  0  0  0
   -0.3233   -1.5611    1.7804 H   0  0  0  0  0  0  0  0  0  0  0  0
   -1.8493   -1.5239   -0.6252 H   0  0  0  0  0  0  0  0  0  0  0  0
   -2.4177   -1.2352    1.0181 H   0  0  0  0  0  0  0  0  0  0  0  0
   -3.1184    0.3928   -0.6186 H   0  0  0  0  0  0  0  0  0  0  0  0
   -2.3702    1.0900    0.8241 H   0  0  0  0  0  0  0  0  0  0  0  0
   -1.0959    2.3159   -0.5743 H   0  0  0  0  0  0  0  0  0  0  0  0
   -1.6835    1.4791   -2.0226 H   0  0  0  0  0  0  0  0  0  0  0  0
   -0.0590   -0.4199   -1.4042 H   0  0  0  0  0  0  0  0  0  0  0  0
    0.5564    1.0375   -2.2019 H   0  0  0  0  0  0  0  0  0  0  0  0
    1.0290    2.1234    0.0623 H   0  0  0  0  0  0  0  0  0  0  0  0
  1  2  1  0
  2  3  1  0
  3  4  1  0
  4  5  1  0
  5  6  1  0
  6  7  1  0
  7  8  1  0
  8  9  1  0
  9  2  1  0
  9  3  1  0
  1 10  1  0
  1 11  1  0
  1 12  1  0
  2 13  1  0
  3 14  1  0
  4 15  1  0
  4 16  1  0
  5 17  1  0
  5 18  1  0
  6 19  1  0
  6 20  1  0
  7 21  1  0
  7 22  1  0
  8 23  1  0
  8 24  1  0
  9 25  1  0
M  END
