
     RDKit          3D

 21 23  0  0  0  0  0  0  0  0999 V2000
   -2.1944   -0.8726   -0.1246 C   0  0  0  0  0  0  0  0  0  0  0  0
   -0.7288   -0.5290    0.0535 C   0  0  0  0  0  0  0  0  0  0  0  0
   -0.6323    0.9835    0.1421 C   0  0  0  0  0  0  0  0  0  0  0  0
    0.3904    1.7043    0.8716 C   0  0  0  0  0  0  0  0  0  0  0  0
    0.8314    1.1632   -0.4046 C   0  0  0  0  0  0  0  0  0  0  0  0
    1.3254   -0.2220   -0.6144 C   0  0  0  0  0  0  0  0  0  0  0  0
    1.8081   -0.8954    0.6358 C   0  0  0  0  0  0  0  0  0  0  0  0
    1.1847   -1.0742   -1.6017 O   0  0  0  0  0  0  0  0  0  0  0  0
   -0.0129   -0.7326   -1.2363 C   0  0  0  0  0  0  0  0  0  0  0  0
   -2.5033   -0.4307   -1.1146 H   0  0  0  0  0  0  0  0  0  0  0  0
   -2.7370   -0.3126    0.6821 H   0  0  0  0  0  0  0  0  0  0  0  0
   -2.3852   -1.9438   -0.0683 H   0  0  0  0  0  0  0  0  0  0  0  0
   -0.3067   -1.0433    0.9117 H   0  0  0  0  0  0  0  0  0  0  0  0
   -1.4105    1.5178   -0.4725 H   0  0  0  0  0  0  0  0  0  0  0  0
    0.2222    2.8229    0.9014 H   0  0  0  0  0  0  0  0  0  0  0  0
    0.6711    1.3480    1.8671 H   0  0  0  0  0  0  0  0  0  0  0  0
    0.9165    1.8632   -1.2761 H   0  0  0  0  0  0  0  0  0  0  0  0
    2.9386   -0.8596    0.5929 H   0  0  0  0  0  0  0  0  0  0  0  0
    1.5282   -0.4592    1.5814 H   0  0  0  0  0  0  0  0  0  0  0  0
    1.5727   -1.9835    0.6888 H   0  0  0  0  0  0  0  0  0  0  0  0
   -0.4784   -0.0445   -2.0151 H   0  0  0  0  0  0  0  0  0  0  0  0
  1  2  1  0
  2  3  1  0
  3  4  1  0
  4  5  1  0
  5  6  1  0
  6  7  1  0
  6  8  1  0
  8  9  1  0
  9  2  1  0
  5  3  1  0
  9  6  1  0
  1 10  1  0
  1 11  1  0
  1 12  1  0
  2 13  1  0
  3 14  1  0
  4 15  1  0
  4 16  1  0
  5 17  1  0
  7 18  1  0
  7 19  1  0
  7 20  1  0
  9 21  1  0
M  END
