
     RDKit          3D

 23 23  0  0  0  0  0  0  0  0999 V2000
   -2.1639   -0.4532    0.5389 C   0  0  0  0  0  0  0  0  0  0  0  0
   -1.2492   -0.2144   -0.6482 C   0  0  0  0  0  0  0  0  0  0  0  0
   -0.9849    1.2445   -0.7638 C   0  0  0  0  0  0  0  0  0  0  0  0
    0.0331    1.7685    0.1933 C   0  0  0  0  0  0  0  0  0  0  0  0
    1.1349    0.8209    0.4663 C   0  0  0  0  0  0  0  0  0  0  0  0
    2.1779    1.2676    0.9364 O   0  0  0  0  0  0  0  0  0  0  0  0
    1.0773   -0.6267    0.2164 C   0  0  0  0  0  0  0  0  0  0  0  0
    2.4293   -1.0112   -0.3995 C   0  0  0  0  0  0  0  0  0  0  0  0
   -0.0467   -1.0826   -0.6255 C   0  0  0  0  0  0  0  0  0  0  0  0
   -1.9089   -1.4611    0.9411 H   0  0  0  0  0  0  0  0  0  0  0  0
   -3.2380   -0.4430    0.2515 H   0  0  0  0  0  0  0  0  0  0  0  0
   -2.0484    0.3177    1.3253 H   0  0  0  0  0  0  0  0  0  0  0  0
   -1.8591   -0.5100   -1.5534 H   0  0  0  0  0  0  0  0  0  0  0  0
   -1.9513    1.7783   -0.5515 H   0  0  0  0  0  0  0  0  0  0  0  0
   -0.7295    1.5255   -1.8119 H   0  0  0  0  0  0  0  0  0  0  0  0
    0.4882    2.6856   -0.2802 H   0  0  0  0  0  0  0  0  0  0  0  0
   -0.3758    2.0922    1.1628 H   0  0  0  0  0  0  0  0  0  0  0  0
    1.0227   -1.1253    1.2283 H   0  0  0  0  0  0  0  0  0  0  0  0
    2.6484   -0.3049   -1.2254 H   0  0  0  0  0  0  0  0  0  0  0  0
    2.4719   -2.0611   -0.6843 H   0  0  0  0  0  0  0  0  0  0  0  0
    3.1749   -0.8192    0.4103 H   0  0  0  0  0  0  0  0  0  0  0  0
    0.2809   -1.2957   -1.6850 H   0  0  0  0  0  0  0  0  0  0  0  0
   -0.3836   -2.0923   -0.2452 H   0  0  0  0  0  0  0  0  0  0  0  0
  1  2  1  0
  2  3  1  0
  3  4  1  0
  4  5  1  0
  5  6  2  0
  5  7  1  0
  7  8  1  0
  7  9  1  0
  9  2  1  0
  1 10  1  0
  1 11  1  0
  1 12  1  0
  2 13  1  0
  3 14  1  0
  3 15  1  0
  4 16  1  0
  4 17  1  0
  7 18  1  0
  8 19  1  0
  8 20  1  0
  8 21  1  0
  9 22  1  0
  9 23  1  0
M  END
