
     RDKit          3D

 21 21  0  0  0  0  0  0  0  0999 V2000
   -2.4028    1.3208    0.1539 C   0  0  0  0  0  0  0  0  0  0  0  0
   -1.4018    0.2679    0.5495 C   0  0  0  0  0  0  0  0  0  0  0  0
   -1.0347   -0.6726   -0.5926 C   0  0  0  0  0  0  0  0  0  0  0  0
   -0.9753   -1.9919   -0.2248 O   0  0  0  0  0  0  0  0  0  0  0  0
   -0.0398    0.3283   -0.0038 C   0  0  0  0  0  0  0  0  0  0  0  0
    1.1144   -0.2843    0.7106 C   0  0  0  0  0  0  0  0  0  0  0  0
    0.8719   -1.6442    0.8545 O   0  0  0  0  0  0  0  0  0  0  0  0
    2.4320   -0.0741    0.0084 C   0  0  0  0  0  0  0  0  0  0  0  0
    2.6959    1.2830   -0.1480 O   0  0  0  0  0  0  0  0  0  0  0  0
   -2.5496    1.3947   -0.9323 H   0  0  0  0  0  0  0  0  0  0  0  0
   -2.1278    2.3019    0.5821 H   0  0  0  0  0  0  0  0  0  0  0  0
   -3.3886    1.0456    0.5905 H   0  0  0  0  0  0  0  0  0  0  0  0
   -1.5102   -0.1322    1.5640 H   0  0  0  0  0  0  0  0  0  0  0  0
   -1.4340   -0.4708   -1.6019 H   0  0  0  0  0  0  0  0  0  0  0  0
   -1.4484   -2.1787    0.6264 H   0  0  0  0  0  0  0  0  0  0  0  0
    0.2494    1.1589   -0.7155 H   0  0  0  0  0  0  0  0  0  0  0  0
    1.1262    0.1432    1.7485 H   0  0  0  0  0  0  0  0  0  0  0  0
    1.4863   -2.2180    0.3700 H   0  0  0  0  0  0  0  0  0  0  0  0
    3.2290   -0.4617    0.7094 H   0  0  0  0  0  0  0  0  0  0  0  0
    2.5206   -0.6638   -0.9016 H   0  0  0  0  0  0  0  0  0  0  0  0
    2.5872    1.5479   -1.0850 H   0  0  0  0  0  0  0  0  0  0  0  0
  1  2  1  0
  2  3  1  0
  3  4  1  0
  3  5  1  0
  5  6  1  0
  6  7  1  0
  6  8  1  0
  8  9  1  0
  5  2  1  0
  1 10  1  0
  1 11  1  0
  1 12  1  0
  2 13  1  0
  3 14  1  0
  4 15  1  0
  5 16  1  0
  6 17  1  0
  7 18  1  0
  8 19  1  0
  8 20  1  0
  9 21  1  0
M  END
