
     RDKit          3D

 21 23  0  0  0  0  0  0  0  0999 V2000
    0.2196    1.7904    0.5223 C   0  0  0  0  0  0  0  0  0  0  0  0
    0.3367    0.6897   -0.4887 C   0  0  0  0  0  0  0  0  0  0  0  0
   -0.7300   -0.3430   -0.4979 C   0  0  0  0  0  0  0  0  0  0  0  0
   -1.8990   -0.3907    0.3316 C   0  0  0  0  0  0  0  0  0  0  0  0
   -1.9796   -0.2591   -1.2112 C   0  0  0  0  0  0  0  0  0  0  0  0
    0.2998   -1.4057   -0.6364 C   0  0  0  0  0  0  0  0  0  0  0  0
    1.3033   -0.4056   -0.1673 C   0  0  0  0  0  0  0  0  0  0  0  0
    2.1954   -0.4754    0.8584 C   0  0  0  0  0  0  0  0  0  0  0  0
    2.5948   -0.3959   -0.5727 O   0  0  0  0  0  0  0  0  0  0  0  0
    1.0010    1.7236    1.3043 H   0  0  0  0  0  0  0  0  0  0  0  0
    0.3771    2.8016    0.0426 H   0  0  0  0  0  0  0  0  0  0  0  0
   -0.7480    1.8391    1.0177 H   0  0  0  0  0  0  0  0  0  0  0  0
    0.4686    1.1170   -1.5244 H   0  0  0  0  0  0  0  0  0  0  0  0
   -2.2915   -1.3615    0.6979 H   0  0  0  0  0  0  0  0  0  0  0  0
   -2.2607    0.4725    0.9156 H   0  0  0  0  0  0  0  0  0  0  0  0
   -2.2671    0.7726   -1.5763 H   0  0  0  0  0  0  0  0  0  0  0  0
   -2.3827   -1.0991   -1.7739 H   0  0  0  0  0  0  0  0  0  0  0  0
    0.2496   -2.2711    0.0220 H   0  0  0  0  0  0  0  0  0  0  0  0
    0.4091   -1.7383   -1.7016 H   0  0  0  0  0  0  0  0  0  0  0  0
    2.5732    0.3880    1.4316 H   0  0  0  0  0  0  0  0  0  0  0  0
    2.5305   -1.4490    1.3219 H   0  0  0  0  0  0  0  0  0  0  0  0
  1  2  1  0
  2  3  1  0
  3  4  1  0
  4  5  1  0
  3  6  1  0
  6  7  1  0
  7  8  1  0
  8  9  1  0
  7  2  1  0
  5  3  1  0
  9  7  1  0
  1 10  1  0
  1 11  1  0
  1 12  1  0
  2 13  1  0
  4 14  1  0
  4 15  1  0
  5 16  1  0
  5 17  1  0
  6 18  1  0
  6 19  1  0
  8 20  1  0
  8 21  1  0
M  END
