
     RDKit          3D

 21 21  0  0  0  0  0  0  0  0999 V2000
    1.8092   -0.9484   -0.1359 C   0  0  0  0  0  0  0  0  0  0  0  0
    0.8044    0.0744   -0.6230 C   0  0  0  0  0  0  0  0  0  0  0  0
   -0.4260   -0.6427   -1.0597 C   0  0  0  0  0  0  0  0  0  0  0  0
   -1.3019   -1.0501    0.1197 C   0  0  0  0  0  0  0  0  0  0  0  0
   -1.8093    0.2884    0.6628 C   0  0  0  0  0  0  0  0  0  0  0  0
   -0.6137    0.9294    1.2411 C   0  0  0  0  0  0  0  0  0  0  0  0
   -0.6454    1.2994    2.3867 O   0  0  0  0  0  0  0  0  0  0  0  0
    0.5949    1.1141    0.4356 C   0  0  0  0  0  0  0  0  0  0  0  0
    0.5479    2.4164   -0.0993 O   0  0  0  0  0  0  0  0  0  0  0  0
    2.7691   -0.9016   -0.6958 H   0  0  0  0  0  0  0  0  0  0  0  0
    1.4276   -1.9850   -0.1909 H   0  0  0  0  0  0  0  0  0  0  0  0
    2.0365   -0.7728    0.9499 H   0  0  0  0  0  0  0  0  0  0  0  0
    1.2548    0.5392   -1.5432 H   0  0  0  0  0  0  0  0  0  0  0  0
   -1.0017   -0.1093   -1.8403 H   0  0  0  0  0  0  0  0  0  0  0  0
   -0.1073   -1.6145   -1.5319 H   0  0  0  0  0  0  0  0  0  0  0  0
   -0.6542   -1.5228    0.8570 H   0  0  0  0  0  0  0  0  0  0  0  0
   -2.1211   -1.6835   -0.2247 H   0  0  0  0  0  0  0  0  0  0  0  0
   -2.5968    0.1316    1.4255 H   0  0  0  0  0  0  0  0  0  0  0  0
   -2.2678    0.8899   -0.1584 H   0  0  0  0  0  0  0  0  0  0  0  0
    1.5247    1.1246    1.0790 H   0  0  0  0  0  0  0  0  0  0  0  0
    0.7762    2.4235   -1.0542 H   0  0  0  0  0  0  0  0  0  0  0  0
  1  2  1  0
  2  3  1  0
  3  4  1  0
  4  5  1  0
  5  6  1  0
  6  7  2  0
  6  8  1  0
  8  9  1  0
  8  2  1  0
  1 10  1  0
  1 11  1  0
  1 12  1  0
  2 13  1  0
  3 14  1  0
  3 15  1  0
  4 16  1  0
  4 17  1  0
  5 18  1  0
  5 19  1  0
  8 20  1  0
  9 21  1  0
M  END
