
     RDKit          3D

 25 26  0  0  0  0  0  0  0  0999 V2000
    3.2897    0.2674   -0.1160 C   0  0  0  0  0  0  0  0  0  0  0  0
    1.8175    0.5110   -0.2419 C   0  0  0  0  0  0  0  0  0  0  0  0
    0.9738   -0.5301   -0.8347 C   0  0  0  0  0  0  0  0  0  0  0  0
   -0.4263   -0.3056   -1.2766 C   0  0  0  0  0  0  0  0  0  0  0  0
   -1.2678   -0.0129   -0.0637 C   0  0  0  0  0  0  0  0  0  0  0  0
   -2.0939    1.2365   -0.2136 C   0  0  0  0  0  0  0  0  0  0  0  0
   -2.1667   -1.1648    0.3192 C   0  0  0  0  0  0  0  0  0  0  0  0
   -0.3074    0.2002    1.0916 C   0  0  0  0  0  0  0  0  0  0  0  0
    0.9730   -0.4152    0.6303 C   0  0  0  0  0  0  0  0  0  0  0  0
    3.8733    0.5175   -1.0114 H   0  0  0  0  0  0  0  0  0  0  0  0
    3.6496    0.9208    0.7323 H   0  0  0  0  0  0  0  0  0  0  0  0
    3.5074   -0.7753    0.2209 H   0  0  0  0  0  0  0  0  0  0  0  0
    1.5482    1.5950   -0.2651 H   0  0  0  0  0  0  0  0  0  0  0  0
    1.5151   -1.3867   -1.3110 H   0  0  0  0  0  0  0  0  0  0  0  0
   -0.8212   -1.2753   -1.7011 H   0  0  0  0  0  0  0  0  0  0  0  0
   -0.5383    0.4369   -2.0837 H   0  0  0  0  0  0  0  0  0  0  0  0
   -1.4619    2.1215   -0.4080 H   0  0  0  0  0  0  0  0  0  0  0  0
   -2.8824    1.1565   -0.9773 H   0  0  0  0  0  0  0  0  0  0  0  0
   -2.5993    1.4140    0.7599 H   0  0  0  0  0  0  0  0  0  0  0  0
   -3.0292   -0.7266    0.8648 H   0  0  0  0  0  0  0  0  0  0  0  0
   -1.6349   -1.8447    1.0047 H   0  0  0  0  0  0  0  0  0  0  0  0
   -2.5616   -1.7244   -0.5278 H   0  0  0  0  0  0  0  0  0  0  0  0
   -0.1701    1.2916    1.3087 H   0  0  0  0  0  0  0  0  0  0  0  0
   -0.6506   -0.2855    2.0101 H   0  0  0  0  0  0  0  0  0  0  0  0
    1.4639   -1.2217    1.1898 H   0  0  0  0  0  0  0  0  0  0  0  0
  1  2  1  0
  2  3  1  0
  3  4  1  0
  4  5  1  0
  5  6  1  0
  5  7  1  0
  5  8  1  0
  8  9  1  0
  9  2  1  0
  9  3  1  0
  1 10  1  0
  1 11  1  0
  1 12  1  0
  2 13  1  0
  3 14  1  0
  4 15  1  0
  4 16  1  0
  6 17  1  0
  6 18  1  0
  6 19  1  0
  7 20  1  0
  7 21  1  0
  7 22  1  0
  8 23  1  0
  8 24  1  0
  9 25  1  0
M  END
