
     RDKit          3D

 21 22  0  0  0  0  0  0  0  0999 V2000
    1.3533    1.3558   -0.1121 C   0  0  0  0  0  0  0  0  0  0  0  0
    0.9664    0.2048    0.7332 C   0  0  0  0  0  0  0  0  0  0  0  0
    1.8340   -1.0525    0.5594 C   0  0  0  0  0  0  0  0  0  0  0  0
    0.6577   -1.7861    0.8447 O   0  0  0  0  0  0  0  0  0  0  0  0
   -0.0352   -0.7496    0.2926 C   0  0  0  0  0  0  0  0  0  0  0  0
   -0.4865   -0.8327   -1.0965 C   0  0  0  0  0  0  0  0  0  0  0  0
   -1.7398   -1.2905   -0.6251 O   0  0  0  0  0  0  0  0  0  0  0  0
   -1.4608   -0.5811    0.5681 C   0  0  0  0  0  0  0  0  0  0  0  0
   -2.0468    0.7843    0.4862 C   0  0  0  0  0  0  0  0  0  0  0  0
    2.4198    1.2638   -0.4729 H   0  0  0  0  0  0  0  0  0  0  0  0
    0.7501    1.5301   -1.0033 H   0  0  0  0  0  0  0  0  0  0  0  0
    1.3809    2.2719    0.5507 H   0  0  0  0  0  0  0  0  0  0  0  0
    0.9156    0.4002    1.8453 H   0  0  0  0  0  0  0  0  0  0  0  0
    2.0930   -1.2417   -0.5113 H   0  0  0  0  0  0  0  0  0  0  0  0
    2.6357   -1.1613    1.2854 H   0  0  0  0  0  0  0  0  0  0  0  0
   -0.6386    0.1449   -1.5710 H   0  0  0  0  0  0  0  0  0  0  0  0
    0.0740   -1.5797   -1.6841 H   0  0  0  0  0  0  0  0  0  0  0  0
   -1.8906   -1.1294    1.4527 H   0  0  0  0  0  0  0  0  0  0  0  0
   -2.2113    1.2786    1.4590 H   0  0  0  0  0  0  0  0  0  0  0  0
   -3.0719    0.6883    0.0270 H   0  0  0  0  0  0  0  0  0  0  0  0
   -1.4991    1.4817   -0.1668 H   0  0  0  0  0  0  0  0  0  0  0  0
  1  2  1  0
  2  3  1  0
  3  4  1  0
  4  5  1  0
  5  6  1  0
  6  7  1  0
  7  8  1  0
  8  9  1  0
  5  2  1  0
  8  5  1  0
  1 10  1  0
  1 11  1  0
  1 12  1  0
  2 13  1  0
  3 14  1  0
  3 15  1  0
  6 16  1  0
  6 17  1  0
  8 18  1  0
  9 19  1  0
  9 20  1  0
  9 21  1  0
M  END
