
     RDKit          3D

 21 21  0  0  0  0  0  0  0  0999 V2000
   -1.3136    1.3564    0.3718 C   0  0  0  0  0  0  0  0  0  0  0  0
   -1.1199   -0.1246    0.4114 C   0  0  0  0  0  0  0  0  0  0  0  0
   -1.1158   -0.7895   -0.9671 C   0  0  0  0  0  0  0  0  0  0  0  0
   -0.0208   -1.6789   -0.4461 C   0  0  0  0  0  0  0  0  0  0  0  0
    0.2441   -0.6567    0.6255 C   0  0  0  0  0  0  0  0  0  0  0  0
    1.4160    0.2070    0.3986 C   0  0  0  0  0  0  0  0  0  0  0  0
    1.3743    1.3300    1.2493 O   0  0  0  0  0  0  0  0  0  0  0  0
    1.6839    0.6506   -0.9722 C   0  0  0  0  0  0  0  0  0  0  0  0
    1.8234   -0.0630   -1.9442 O   0  0  0  0  0  0  0  0  0  0  0  0
   -2.3984    1.5913    0.3366 H   0  0  0  0  0  0  0  0  0  0  0  0
   -0.9087    1.7152   -0.6198 H   0  0  0  0  0  0  0  0  0  0  0  0
   -0.8911    1.8987    1.2122 H   0  0  0  0  0  0  0  0  0  0  0  0
   -1.8666   -0.6370    1.0522 H   0  0  0  0  0  0  0  0  0  0  0  0
   -0.9062   -0.1312   -1.8042 H   0  0  0  0  0  0  0  0  0  0  0  0
   -2.0914   -1.3208   -1.1757 H   0  0  0  0  0  0  0  0  0  0  0  0
    0.8197   -1.9227   -1.0774 H   0  0  0  0  0  0  0  0  0  0  0  0
   -0.5176   -2.6090   -0.0160 H   0  0  0  0  0  0  0  0  0  0  0  0
    0.3440   -1.1621    1.6258 H   0  0  0  0  0  0  0  0  0  0  0  0
    2.3294   -0.3626    0.7353 H   0  0  0  0  0  0  0  0  0  0  0  0
    1.3390    0.9792    2.1963 H   0  0  0  0  0  0  0  0  0  0  0  0
    1.7763    1.7296   -1.1925 H   0  0  0  0  0  0  0  0  0  0  0  0
  1  2  1  0
  2  3  1  0
  3  4  1  0
  4  5  1  0
  5  6  1  0
  6  7  1  0
  6  8  1  0
  8  9  2  0
  5  2  1  0
  1 10  1  0
  1 11  1  0
  1 12  1  0
  2 13  1  0
  3 14  1  0
  3 15  1  0
  4 16  1  0
  4 17  1  0
  5 18  1  0
  6 19  1  0
  7 20  1  0
  8 21  1  0
M  END
