
     RDKit          3D

 23 24  0  0  0  0  0  0  0  0999 V2000
    2.5119   -0.5536    0.2937 C   0  0  0  0  0  0  0  0  0  0  0  0
    1.2775   -0.1232   -0.4572 C   0  0  0  0  0  0  0  0  0  0  0  0
    1.3231    1.4143   -0.5245 C   0  0  0  0  0  0  0  0  0  0  0  0
    0.2159    1.8522    0.2518 O   0  0  0  0  0  0  0  0  0  0  0  0
   -0.6968    0.9528   -0.1022 C   0  0  0  0  0  0  0  0  0  0  0  0
   -1.9372    0.7421    0.6355 C   0  0  0  0  0  0  0  0  0  0  0  0
   -2.2867   -0.6393    0.0436 C   0  0  0  0  0  0  0  0  0  0  0  0
   -0.9352   -1.3376   -0.1449 C   0  0  0  0  0  0  0  0  0  0  0  0
    0.0424   -0.3461    0.3083 C   0  0  0  0  0  0  0  0  0  0  0  0
    3.4376   -0.2055   -0.1980 H   0  0  0  0  0  0  0  0  0  0  0  0
    2.5198   -1.6633    0.3229 H   0  0  0  0  0  0  0  0  0  0  0  0
    2.4321   -0.1940    1.3378 H   0  0  0  0  0  0  0  0  0  0  0  0
    1.2661   -0.5631   -1.4695 H   0  0  0  0  0  0  0  0  0  0  0  0
    1.0769    1.6815   -1.5603 H   0  0  0  0  0  0  0  0  0  0  0  0
    2.2645    1.8129   -0.1468 H   0  0  0  0  0  0  0  0  0  0  0  0
   -0.8693    0.9294   -1.1854 H   0  0  0  0  0  0  0  0  0  0  0  0
   -2.7268    1.4644    0.4267 H   0  0  0  0  0  0  0  0  0  0  0  0
   -1.7995    0.5811    1.7244 H   0  0  0  0  0  0  0  0  0  0  0  0
   -2.9679   -1.1957    0.6717 H   0  0  0  0  0  0  0  0  0  0  0  0
   -2.6596   -0.4176   -0.9788 H   0  0  0  0  0  0  0  0  0  0  0  0
   -0.7808   -1.6467   -1.1884 H   0  0  0  0  0  0  0  0  0  0  0  0
   -0.9619   -2.2179    0.5531 H   0  0  0  0  0  0  0  0  0  0  0  0
    0.2537   -0.3271    1.3865 H   0  0  0  0  0  0  0  0  0  0  0  0
  1  2  1  0
  2  3  1  0
  3  4  1  0
  4  5  1  0
  5  6  1  0
  6  7  1  0
  7  8  1  0
  8  9  1  0
  9  2  1  0
  9  5  1  0
  1 10  1  0
  1 11  1  0
  1 12  1  0
  2 13  1  0
  3 14  1  0
  3 15  1  0
  5 16  1  0
  6 17  1  0
  6 18  1  0
  7 19  1  0
  7 20  1  0
  8 21  1  0
  8 22  1  0
  9 23  1  0
M  END
