
     RDKit          3D

 21 22  0  0  0  0  0  0  0  0999 V2000
    2.2621   -0.1185    0.4290 C   0  0  0  0  0  0  0  0  0  0  0  0
    1.0576   -0.1429   -0.5219 C   0  0  0  0  0  0  0  0  0  0  0  0
    0.1567   -1.2972   -0.2026 C   0  0  0  0  0  0  0  0  0  0  0  0
   -1.3001   -1.0116   -0.4764 C   0  0  0  0  0  0  0  0  0  0  0  0
   -1.9069   -0.5247    0.7783 C   0  0  0  0  0  0  0  0  0  0  0  0
   -1.7074    0.7757    0.8270 C   0  0  0  0  0  0  0  0  0  0  0  0
   -1.0810    1.1485   -0.4694 C   0  0  0  0  0  0  0  0  0  0  0  0
    0.4036    1.1961   -0.4153 C   0  0  0  0  0  0  0  0  0  0  0  0
   -1.4598    0.1027   -1.3123 O   0  0  0  0  0  0  0  0  0  0  0  0
    2.6058   -1.1338    0.6757 H   0  0  0  0  0  0  0  0  0  0  0  0
    1.8517    0.3274    1.3783 H   0  0  0  0  0  0  0  0  0  0  0  0
    3.0378    0.5426    0.0198 H   0  0  0  0  0  0  0  0  0  0  0  0
    1.5110   -0.3176   -1.5398 H   0  0  0  0  0  0  0  0  0  0  0  0
    0.2895   -1.5749    0.8848 H   0  0  0  0  0  0  0  0  0  0  0  0
    0.4781   -2.1871   -0.7880 H   0  0  0  0  0  0  0  0  0  0  0  0
   -1.8278   -1.8804   -0.9152 H   0  0  0  0  0  0  0  0  0  0  0  0
   -2.4137   -1.1084    1.5134 H   0  0  0  0  0  0  0  0  0  0  0  0
   -1.9320    1.4847    1.6209 H   0  0  0  0  0  0  0  0  0  0  0  0
   -1.4806    2.1209   -0.7688 H   0  0  0  0  0  0  0  0  0  0  0  0
    0.7640    1.8542   -1.2426 H   0  0  0  0  0  0  0  0  0  0  0  0
    0.6916    1.7441    0.5251 H   0  0  0  0  0  0  0  0  0  0  0  0
  1  2  1  0
  2  3  1  0
  3  4  1  0
  4  5  1  0
  5  6  2  0
  6  7  1  0
  7  8  1  0
  7  9  1  0
  8  2  1  0
  9  4  1  0
  1 10  1  0
  1 11  1  0
  1 12  1  0
  2 13  1  0
  3 14  1  0
  3 15  1  0
  4 16  1  0
  5 17  1  0
  6 18  1  0
  7 19  1  0
  8 20  1  0
  8 21  1  0
M  END
