
     RDKit          3D

 14 15  0  0  0  0  0  0  0  0999 V2000
    1.7011   -0.1089   -0.1515 C   0  0  0  0  0  0  0  0  0  0  0  0
    0.3621    0.5046   -0.5566 C   0  0  0  0  0  0  0  0  0  0  0  0
   -0.7399   -0.3411   -1.0267 C   0  0  0  0  0  0  0  0  0  0  0  0
   -1.0663   -1.5640   -0.4000 O   0  0  0  0  0  0  0  0  0  0  0  0
   -0.8984   -1.1530    0.9111 C   0  0  0  0  0  0  0  0  0  0  0  0
   -0.9179   -1.7884    1.9878 O   0  0  0  0  0  0  0  0  0  0  0  0
   -0.7150    0.2061    0.4378 C   0  0  0  0  0  0  0  0  0  0  0  0
   -1.5999    1.2212    0.7329 O   0  0  0  0  0  0  0  0  0  0  0  0
    2.4568   -0.0244   -0.9443 H   0  0  0  0  0  0  0  0  0  0  0  0
    2.0399    0.4786    0.7259 H   0  0  0  0  0  0  0  0  0  0  0  0
    1.5560   -1.1485    0.2169 H   0  0  0  0  0  0  0  0  0  0  0  0
    0.4201    1.5230   -0.9304 H   0  0  0  0  0  0  0  0  0  0  0  0
   -1.5194    0.1136   -1.6461 H   0  0  0  0  0  0  0  0  0  0  0  0
   -1.0793    2.0811    0.6433 H   0  0  0  0  0  0  0  0  0  0  0  0
  1  2  1  0
  2  3  1  0
  3  4  1  0
  4  5  1  0
  5  6  2  0
  5  7  1  0
  7  8  1  0
  7  2  1  0
  7  3  1  0
  1  9  1  0
  1 10  1  0
  1 11  1  0
  2 12  1  0
  3 13  1  0
  8 14  1  0
M  END
