
     RDKit          3D

 23 23  0  0  0  0  0  0  0  0999 V2000
    2.3895   -0.2885   -0.2709 C   0  0  0  0  0  0  0  0  0  0  0  0
    0.9302   -0.5491   -0.3159 C   0  0  0  0  0  0  0  0  0  0  0  0
    0.4393   -1.0762    0.9973 C   0  0  0  0  0  0  0  0  0  0  0  0
   -0.8649   -1.2021    1.1396 C   0  0  0  0  0  0  0  0  0  0  0  0
   -1.7523   -0.8264    0.0251 C   0  0  0  0  0  0  0  0  0  0  0  0
   -3.0883   -0.7147    0.4591 O   0  0  0  0  0  0  0  0  0  0  0  0
   -1.3342    0.3699   -0.7367 C   0  0  0  0  0  0  0  0  0  0  0  0
    0.1236    0.6498   -0.7614 C   0  0  0  0  0  0  0  0  0  0  0  0
    0.4938    1.8980    0.0085 C   0  0  0  0  0  0  0  0  0  0  0  0
    2.6807    0.6572    0.2122 H   0  0  0  0  0  0  0  0  0  0  0  0
    2.8742   -1.1064    0.3129 H   0  0  0  0  0  0  0  0  0  0  0  0
    2.8533   -0.3269   -1.2910 H   0  0  0  0  0  0  0  0  0  0  0  0
    0.7414   -1.3613   -1.0563 H   0  0  0  0  0  0  0  0  0  0  0  0
    1.1401   -1.3408    1.7928 H   0  0  0  0  0  0  0  0  0  0  0  0
   -1.3085   -1.5740    2.0520 H   0  0  0  0  0  0  0  0  0  0  0  0
   -1.7504   -1.7039   -0.6869 H   0  0  0  0  0  0  0  0  0  0  0  0
   -3.0600   -0.6722    1.4332 H   0  0  0  0  0  0  0  0  0  0  0  0
   -1.8498    1.2673   -0.2898 H   0  0  0  0  0  0  0  0  0  0  0  0
   -1.7598    0.3008   -1.7728 H   0  0  0  0  0  0  0  0  0  0  0  0
    0.4297    0.8438   -1.8168 H   0  0  0  0  0  0  0  0  0  0  0  0
    1.3559    2.4383   -0.4522 H   0  0  0  0  0  0  0  0  0  0  0  0
   -0.3884    2.5998   -0.0413 H   0  0  0  0  0  0  0  0  0  0  0  0
    0.7051    1.7177    1.0593 H   0  0  0  0  0  0  0  0  0  0  0  0
  1  2  1  0
  2  3  1  0
  3  4  2  0
  4  5  1  0
  5  6  1  0
  5  7  1  0
  7  8  1  0
  8  9  1  0
  8  2  1  0
  1 10  1  0
  1 11  1  0
  1 12  1  0
  2 13  1  0
  3 14  1  0
  4 15  1  0
  5 16  1  0
  6 17  1  0
  7 18  1  0
  7 19  1  0
  8 20  1  0
  9 21  1  0
  9 22  1  0
  9 23  1  0
M  END
