
     RDKit          3D

 27 27  0  0  0  0  0  0  0  0999 V2000
    3.1050    0.7086    0.1006 C   0  0  0  0  0  0  0  0  0  0  0  0
    1.8857    0.0548   -0.5177 C   0  0  0  0  0  0  0  0  0  0  0  0
    2.0041   -1.4473   -0.6149 C   0  0  0  0  0  0  0  0  0  0  0  0
    0.9734   -0.7656    0.2807 C   0  0  0  0  0  0  0  0  0  0  0  0
   -0.4390   -1.0170   -0.0861 C   0  0  0  0  0  0  0  0  0  0  0  0
   -1.3542    0.1343   -0.1979 C   0  0  0  0  0  0  0  0  0  0  0  0
   -1.0185    1.1808   -1.2072 C   0  0  0  0  0  0  0  0  0  0  0  0
   -1.6093    0.8206    1.1414 C   0  0  0  0  0  0  0  0  0  0  0  0
   -2.7262   -0.4427   -0.5912 C   0  0  0  0  0  0  0  0  0  0  0  0
    3.0024    0.8316    1.1986 H   0  0  0  0  0  0  0  0  0  0  0  0
    4.0022    0.0899   -0.1015 H   0  0  0  0  0  0  0  0  0  0  0  0
    3.3107    1.7128   -0.3164 H   0  0  0  0  0  0  0  0  0  0  0  0
    1.5483    0.5784   -1.4225 H   0  0  0  0  0  0  0  0  0  0  0  0
    1.6871   -1.8997   -1.5498 H   0  0  0  0  0  0  0  0  0  0  0  0
    2.8327   -1.9667   -0.1016 H   0  0  0  0  0  0  0  0  0  0  0  0
    1.2004   -0.8310    1.4008 H   0  0  0  0  0  0  0  0  0  0  0  0
   -0.4951   -1.5740   -1.0528 H   0  0  0  0  0  0  0  0  0  0  0  0
   -0.8774   -1.7076    0.6801 H   0  0  0  0  0  0  0  0  0  0  0  0
   -1.9685    1.7481   -1.4310 H   0  0  0  0  0  0  0  0  0  0  0  0
   -0.6887    0.7283   -2.1694 H   0  0  0  0  0  0  0  0  0  0  0  0
   -0.2912    1.9400   -0.8352 H   0  0  0  0  0  0  0  0  0  0  0  0
   -1.8797    0.0510    1.8912 H   0  0  0  0  0  0  0  0  0  0  0  0
   -2.4719    1.5029    1.0123 H   0  0  0  0  0  0  0  0  0  0  0  0
   -0.7051    1.3609    1.4921 H   0  0  0  0  0  0  0  0  0  0  0  0
   -3.5163    0.2917   -0.3452 H   0  0  0  0  0  0  0  0  0  0  0  0
   -2.6792   -0.6986   -1.6640 H   0  0  0  0  0  0  0  0  0  0  0  0
   -2.8320   -1.3845   -0.0104 H   0  0  0  0  0  0  0  0  0  0  0  0
  1  2  1  0
  2  3  1  0
  3  4  1  0
  4  5  1  0
  5  6  1  0
  6  7  1  0
  6  8  1  0
  6  9  1  0
  4  2  1  0
  1 10  1  0
  1 11  1  0
  1 12  1  0
  2 13  1  0
  3 14  1  0
  3 15  1  0
  4 16  1  0
  5 17  1  0
  5 18  1  0
  7 19  1  0
  7 20  1  0
  7 21  1  0
  8 22  1  0
  8 23  1  0
  8 24  1  0
  9 25  1  0
  9 26  1  0
  9 27  1  0
M  END
