
     RDKit          3D

 23 24  0  0  0  0  0  0  0  0999 V2000
   -2.4633    0.8702   -0.1972 C   0  0  0  0  0  0  0  0  0  0  0  0
   -1.2378    0.3935    0.5645 C   0  0  0  0  0  0  0  0  0  0  0  0
   -1.0843   -1.1468    0.7129 C   0  0  0  0  0  0  0  0  0  0  0  0
   -0.2539   -0.3571   -0.1442 C   0  0  0  0  0  0  0  0  0  0  0  0
   -0.0522   -0.4873   -1.5921 C   0  0  0  0  0  0  0  0  0  0  0  0
    1.2744   -0.9069   -1.3298 O   0  0  0  0  0  0  0  0  0  0  0  0
    1.2027   -0.2157   -0.1379 C   0  0  0  0  0  0  0  0  0  0  0  0
    1.8423   -0.8783    1.0547 C   0  0  0  0  0  0  0  0  0  0  0  0
    1.7595    1.1953   -0.2887 C   0  0  0  0  0  0  0  0  0  0  0  0
   -3.3137    0.9961    0.4857 H   0  0  0  0  0  0  0  0  0  0  0  0
   -2.2173    1.8638   -0.6029 H   0  0  0  0  0  0  0  0  0  0  0  0
   -2.7176    0.1400   -1.0019 H   0  0  0  0  0  0  0  0  0  0  0  0
   -0.9892    0.9989    1.4468 H   0  0  0  0  0  0  0  0  0  0  0  0
   -1.9331   -1.7468    0.2975 H   0  0  0  0  0  0  0  0  0  0  0  0
   -0.7994   -1.4662    1.7386 H   0  0  0  0  0  0  0  0  0  0  0  0
   -0.6840   -1.2610   -2.0466 H   0  0  0  0  0  0  0  0  0  0  0  0
    0.0138    0.4547   -2.1903 H   0  0  0  0  0  0  0  0  0  0  0  0
    1.7389   -0.1578    1.9075 H   0  0  0  0  0  0  0  0  0  0  0  0
    2.9242   -1.0348    0.9158 H   0  0  0  0  0  0  0  0  0  0  0  0
    1.3250   -1.8466    1.2698 H   0  0  0  0  0  0  0  0  0  0  0  0
    2.8511    1.1403   -0.5000 H   0  0  0  0  0  0  0  0  0  0  0  0
    1.2090    1.7715   -1.0697 H   0  0  0  0  0  0  0  0  0  0  0  0
    1.6048    1.6808    0.7077 H   0  0  0  0  0  0  0  0  0  0  0  0
  1  2  1  0
  2  3  1  0
  3  4  1  0
  4  5  1  0
  5  6  1  0
  6  7  1  0
  7  8  1  0
  7  9  1  0
  4  2  1  0
  7  4  1  0
  1 10  1  0
  1 11  1  0
  1 12  1  0
  2 13  1  0
  3 14  1  0
  3 15  1  0
  5 16  1  0
  5 17  1  0
  8 18  1  0
  8 19  1  0
  8 20  1  0
  9 21  1  0
  9 22  1  0
  9 23  1  0
M  END
