
     RDKit          3D

 23 24  0  0  0  0  0  0  0  0999 V2000
    1.7242    0.3885    1.0687 C   0  0  0  0  0  0  0  0  0  0  0  0
    1.2278   -0.5299   -0.0000 C   0  0  0  0  0  0  0  0  0  0  0  0
    0.5800    0.0408   -1.1917 C   0  0  0  0  0  0  0  0  0  0  0  0
   -0.0415    1.3826   -1.0286 C   0  0  0  0  0  0  0  0  0  0  0  0
   -1.3398    1.2967   -0.3222 C   0  0  0  0  0  0  0  0  0  0  0  0
   -1.7572    0.3736    0.5154 C   0  0  0  0  0  0  0  0  0  0  0  0
   -0.9433   -0.6623    1.2546 C   0  0  0  0  0  0  0  0  0  0  0  0
    0.0078   -1.3316    0.2938 C   0  0  0  0  0  0  0  0  0  0  0  0
   -0.4192   -1.0981   -1.1457 C   0  0  0  0  0  0  0  0  0  0  0  0
    0.9988    1.0946    1.4536 H   0  0  0  0  0  0  0  0  0  0  0  0
    2.6612    0.8618    0.6937 H   0  0  0  0  0  0  0  0  0  0  0  0
    2.0533   -0.2592    1.9255 H   0  0  0  0  0  0  0  0  0  0  0  0
    2.0744   -1.2029   -0.3100 H   0  0  0  0  0  0  0  0  0  0  0  0
    1.1618   -0.0454   -2.1443 H   0  0  0  0  0  0  0  0  0  0  0  0
    0.5838    2.0994   -0.4545 H   0  0  0  0  0  0  0  0  0  0  0  0
   -0.2556    1.8062   -2.0445 H   0  0  0  0  0  0  0  0  0  0  0  0
   -2.0136    2.1064   -0.5379 H   0  0  0  0  0  0  0  0  0  0  0  0
   -2.8274    0.3774    0.6796 H   0  0  0  0  0  0  0  0  0  0  0  0
   -1.6354   -1.4405    1.6346 H   0  0  0  0  0  0  0  0  0  0  0  0
   -0.4402   -0.1915    2.1151 H   0  0  0  0  0  0  0  0  0  0  0  0
    0.2227   -2.3699    0.5613 H   0  0  0  0  0  0  0  0  0  0  0  0
   -0.1601   -1.9700   -1.7712 H   0  0  0  0  0  0  0  0  0  0  0  0
   -1.4625   -0.7270   -1.2452 H   0  0  0  0  0  0  0  0  0  0  0  0
  1  2  1  0
  2  3  1  0
  3  4  1  0
  4  5  1  0
  5  6  2  0
  6  7  1  0
  7  8  1  0
  8  9  1  0
  8  2  1  0
  9  3  1  0
  1 10  1  0
  1 11  1  0
  1 12  1  0
  2 13  1  0
  3 14  1  0
  4 15  1  0
  4 16  1  0
  5 17  1  0
  6 18  1  0
  7 19  1  0
  7 20  1  0
  8 21  1  0
  9 22  1  0
  9 23  1  0
M  END
