
     RDKit          3D

 19 20  0  0  0  0  0  0  0  0999 V2000
    1.8722   -0.4597   -0.7818 C   0  0  0  0  0  0  0  0  0  0  0  0
    0.9032   -0.4308    0.3863 C   0  0  0  0  0  0  0  0  0  0  0  0
    0.5400    0.9579    0.8231 C   0  0  0  0  0  0  0  0  0  0  0  0
   -0.1160    1.1009   -0.4967 C   0  0  0  0  0  0  0  0  0  0  0  0
   -0.2220    1.8917   -1.3843 O   0  0  0  0  0  0  0  0  0  0  0  0
   -0.5256   -0.2548   -0.0516 C   0  0  0  0  0  0  0  0  0  0  0  0
   -1.3337   -1.1418   -0.7047 C   0  0  0  0  0  0  0  0  0  0  0  0
   -0.7626    0.3845    1.2969 C   0  0  0  0  0  0  0  0  0  0  0  0
   -1.7747    1.3074    1.2250 O   0  0  0  0  0  0  0  0  0  0  0  0
    1.3074   -0.7430   -1.7001 H   0  0  0  0  0  0  0  0  0  0  0  0
    2.3344    0.5415   -0.9644 H   0  0  0  0  0  0  0  0  0  0  0  0
    2.6346   -1.2554   -0.6307 H   0  0  0  0  0  0  0  0  0  0  0  0
    1.0681   -1.1717    1.1653 H   0  0  0  0  0  0  0  0  0  0  0  0
    1.1213    1.6269    1.2875 H   0  0  0  0  0  0  0  0  0  0  0  0
   -1.4889   -0.9128   -1.8031 H   0  0  0  0  0  0  0  0  0  0  0  0
   -1.0041   -2.2220   -0.6528 H   0  0  0  0  0  0  0  0  0  0  0  0
   -2.3918   -1.1802   -0.3046 H   0  0  0  0  0  0  0  0  0  0  0  0
   -0.7312   -0.2818    2.1651 H   0  0  0  0  0  0  0  0  0  0  0  0
   -1.4305    2.2431    1.1256 H   0  0  0  0  0  0  0  0  0  0  0  0
  1  2  1  0
  2  3  1  0
  3  4  1  0
  4  5  2  0
  4  6  1  0
  6  7  1  0
  6  8  1  0
  8  9  1  0
  6  2  1  0
  8  3  1  0
  1 10  1  0
  1 11  1  0
  1 12  1  0
  2 13  1  0
  3 14  1  0
  7 15  1  0
  7 16  1  0
  7 17  1  0
  8 18  1  0
  9 19  1  0
M  END
