
     RDKit          3D

 21 21  0  0  0  0  0  0  0  0999 V2000
   -1.1467    1.7894   -0.2222 C   0  0  0  0  0  0  0  0  0  0  0  0
   -0.9191    0.3346   -0.5902 C   0  0  0  0  0  0  0  0  0  0  0  0
   -1.8419   -0.4997    0.2526 C   0  0  0  0  0  0  0  0  0  0  0  0
   -1.0123   -1.5304    0.9370 C   0  0  0  0  0  0  0  0  0  0  0  0
    0.3845   -1.1431    0.6195 C   0  0  0  0  0  0  0  0  0  0  0  0
    0.4492   -0.1178   -0.2232 C   0  0  0  0  0  0  0  0  0  0  0  0
    1.7371    0.4567   -0.7140 C   0  0  0  0  0  0  0  0  0  0  0  0
    2.9216   -0.2656   -0.1253 C   0  0  0  0  0  0  0  0  0  0  0  0
    3.5151    0.2963    0.7938 O   0  0  0  0  0  0  0  0  0  0  0  0
   -1.2835    1.8818    0.8869 H   0  0  0  0  0  0  0  0  0  0  0  0
   -2.1101    2.0625   -0.6862 H   0  0  0  0  0  0  0  0  0  0  0  0
   -0.3827    2.4519   -0.6285 H   0  0  0  0  0  0  0  0  0  0  0  0
   -1.0655    0.1674   -1.6662 H   0  0  0  0  0  0  0  0  0  0  0  0
   -2.3419    0.1292    1.0559 H   0  0  0  0  0  0  0  0  0  0  0  0
   -2.6359   -0.9110   -0.4170 H   0  0  0  0  0  0  0  0  0  0  0  0
   -1.2030   -1.5714    2.0333 H   0  0  0  0  0  0  0  0  0  0  0  0
   -1.2290   -2.5283    0.4635 H   0  0  0  0  0  0  0  0  0  0  0  0
    1.2424   -1.6513    1.0406 H   0  0  0  0  0  0  0  0  0  0  0  0
    1.8070    1.5564   -0.5398 H   0  0  0  0  0  0  0  0  0  0  0  0
    1.8502    0.3159   -1.8132 H   0  0  0  0  0  0  0  0  0  0  0  0
    3.2644   -1.2233   -0.4572 H   0  0  0  0  0  0  0  0  0  0  0  0
  1  2  1  0
  2  3  1  0
  3  4  1  0
  4  5  1  0
  5  6  2  0
  6  7  1  0
  7  8  1  0
  8  9  2  0
  6  2  1  0
  1 10  1  0
  1 11  1  0
  1 12  1  0
  2 13  1  0
  3 14  1  0
  3 15  1  0
  4 16  1  0
  4 17  1  0
  5 18  1  0
  7 19  1  0
  7 20  1  0
  8 21  1  0
M  END
