
     RDKit          3D

 21 22  0  0  0  0  0  0  0  0999 V2000
    1.0657    1.7557    0.0834 C   0  0  0  0  0  0  0  0  0  0  0  0
    0.3377    0.6200   -0.5727 C   0  0  0  0  0  0  0  0  0  0  0  0
    0.9995   -0.6854   -0.6675 C   0  0  0  0  0  0  0  0  0  0  0  0
    2.0483   -1.0573    0.2741 C   0  0  0  0  0  0  0  0  0  0  0  0
    2.5038   -0.3775    1.1675 O   0  0  0  0  0  0  0  0  0  0  0  0
   -0.3269   -1.3299   -0.2442 C   0  0  0  0  0  0  0  0  0  0  0  0
   -0.7361   -1.0346    1.1304 C   0  0  0  0  0  0  0  0  0  0  0  0
   -0.8365    0.0712    0.1660 C   0  0  0  0  0  0  0  0  0  0  0  0
   -2.2122    0.4616   -0.3009 C   0  0  0  0  0  0  0  0  0  0  0  0
    0.8132    2.7544   -0.3815 H   0  0  0  0  0  0  0  0  0  0  0  0
    0.6849    1.8246    1.1301 H   0  0  0  0  0  0  0  0  0  0  0  0
    2.1506    1.6772    0.0701 H   0  0  0  0  0  0  0  0  0  0  0  0
    0.0032    0.9635   -1.5977 H   0  0  0  0  0  0  0  0  0  0  0  0
    1.2778   -1.0301   -1.7059 H   0  0  0  0  0  0  0  0  0  0  0  0
    2.4756   -2.0514    0.1727 H   0  0  0  0  0  0  0  0  0  0  0  0
   -0.9062   -1.8909   -0.9663 H   0  0  0  0  0  0  0  0  0  0  0  0
    0.0725   -0.9708    1.8942 H   0  0  0  0  0  0  0  0  0  0  0  0
   -1.6684   -1.4444    1.5182 H   0  0  0  0  0  0  0  0  0  0  0  0
   -2.7630   -0.3393   -0.7896 H   0  0  0  0  0  0  0  0  0  0  0  0
   -2.8113    0.7511    0.6074 H   0  0  0  0  0  0  0  0  0  0  0  0
   -2.1723    1.3324   -0.9878 H   0  0  0  0  0  0  0  0  0  0  0  0
  1  2  1  0
  2  3  1  0
  3  4  1  0
  4  5  2  0
  3  6  1  0
  6  7  1  0
  7  8  1  0
  8  9  1  0
  8  2  1  0
  8  6  1  0
  1 10  1  0
  1 11  1  0
  1 12  1  0
  2 13  1  0
  3 14  1  0
  4 15  1  0
  6 16  1  0
  7 17  1  0
  7 18  1  0
  9 19  1  0
  9 20  1  0
  9 21  1  0
M  END
