
     RDKit          3D

 25 26  0  0  0  0  0  0  0  0999 V2000
   -2.4274   -0.2978   -1.0062 C   0  0  0  0  0  0  0  0  0  0  0  0
   -0.9714   -0.1236   -0.6914 C   0  0  0  0  0  0  0  0  0  0  0  0
   -0.5395   -1.0398    0.4321 C   0  0  0  0  0  0  0  0  0  0  0  0
    0.8435   -1.5154    0.1632 C   0  0  0  0  0  0  0  0  0  0  0  0
    1.9109   -0.4842    0.3822 C   0  0  0  0  0  0  0  0  0  0  0  0
    1.7621    0.7470   -0.4417 C   0  0  0  0  0  0  0  0  0  0  0  0
    0.6651    1.6645   -0.0645 C   0  0  0  0  0  0  0  0  0  0  0  0
   -0.6465    1.0341    0.2274 C   0  0  0  0  0  0  0  0  0  0  0  0
   -0.6223    0.1093    1.3993 C   0  0  0  0  0  0  0  0  0  0  0  0
   -2.5232   -0.9029   -1.9475 H   0  0  0  0  0  0  0  0  0  0  0  0
   -2.9614    0.6665   -1.1378 H   0  0  0  0  0  0  0  0  0  0  0  0
   -2.9744   -0.8925   -0.2287 H   0  0  0  0  0  0  0  0  0  0  0  0
   -0.3043   -0.0961   -1.5655 H   0  0  0  0  0  0  0  0  0  0  0  0
   -1.2453   -1.8587    0.5882 H   0  0  0  0  0  0  0  0  0  0  0  0
    0.9407   -1.9765   -0.8426 H   0  0  0  0  0  0  0  0  0  0  0  0
    1.0601   -2.3469    0.8859 H   0  0  0  0  0  0  0  0  0  0  0  0
    2.8701   -0.9764    0.0367 H   0  0  0  0  0  0  0  0  0  0  0  0
    2.0766   -0.2812    1.4586 H   0  0  0  0  0  0  0  0  0  0  0  0
    1.7343    0.4425   -1.5106 H   0  0  0  0  0  0  0  0  0  0  0  0
    2.7222    1.3230   -0.3325 H   0  0  0  0  0  0  0  0  0  0  0  0
    0.9587    2.2941    0.8097 H   0  0  0  0  0  0  0  0  0  0  0  0
    0.5137    2.3869   -0.9036 H   0  0  0  0  0  0  0  0  0  0  0  0
   -1.4686    1.7743    0.1973 H   0  0  0  0  0  0  0  0  0  0  0  0
   -1.5830    0.1302    1.9831 H   0  0  0  0  0  0  0  0  0  0  0  0
    0.2094    0.2197    2.1090 H   0  0  0  0  0  0  0  0  0  0  0  0
  1  2  1  0
  2  3  1  0
  3  4  1  0
  4  5  1  0
  5  6  1  0
  6  7  1  0
  7  8  1  0
  8  9  1  0
  8  2  1  0
  9  3  1  0
  1 10  1  0
  1 11  1  0
  1 12  1  0
  2 13  1  0
  3 14  1  0
  4 15  1  0
  4 16  1  0
  5 17  1  0
  5 18  1  0
  6 19  1  0
  6 20  1  0
  7 21  1  0
  7 22  1  0
  8 23  1  0
  9 24  1  0
  9 25  1  0
M  END
