
     RDKit          3D

 22 23  0  0  0  0  0  0  0  0999 V2000
   -1.7898   -0.8125   -0.6291 C   0  0  0  0  0  0  0  0  0  0  0  0
   -0.9207    0.0024    0.2616 C   0  0  0  0  0  0  0  0  0  0  0  0
   -0.6040    1.4083   -0.2241 C   0  0  0  0  0  0  0  0  0  0  0  0
    0.1132    2.2315    0.7640 C   0  0  0  0  0  0  0  0  0  0  0  0
    0.8937    1.1696    0.1182 C   0  0  0  0  0  0  0  0  0  0  0  0
    0.5625   -0.2678    0.1583 C   0  0  0  0  0  0  0  0  0  0  0  0
    0.8368   -0.9257   -1.2010 C   0  0  0  0  0  0  0  0  0  0  0  0
    1.0648   -1.0824    1.3023 C   0  0  0  0  0  0  0  0  0  0  0  0
   -1.6403   -0.6203   -1.6990 H   0  0  0  0  0  0  0  0  0  0  0  0
   -1.6043   -1.8914   -0.3864 H   0  0  0  0  0  0  0  0  0  0  0  0
   -2.8477   -0.6293   -0.3393 H   0  0  0  0  0  0  0  0  0  0  0  0
   -1.2964    0.0600    1.3026 H   0  0  0  0  0  0  0  0  0  0  0  0
   -0.7674    1.6857   -1.2613 H   0  0  0  0  0  0  0  0  0  0  0  0
    0.3184    3.2662    0.4938 H   0  0  0  0  0  0  0  0  0  0  0  0
   -0.2523    2.1263    1.8252 H   0  0  0  0  0  0  0  0  0  0  0  0
    1.6317    1.4844   -0.6386 H   0  0  0  0  0  0  0  0  0  0  0  0
    0.1940   -1.8011   -1.3458 H   0  0  0  0  0  0  0  0  0  0  0  0
    0.6894   -0.1598   -2.0064 H   0  0  0  0  0  0  0  0  0  0  0  0
    1.9006   -1.1974   -1.2289 H   0  0  0  0  0  0  0  0  0  0  0  0
    0.3019   -1.0922    2.1320 H   0  0  0  0  0  0  0  0  0  0  0  0
    1.1581   -2.1456    0.9321 H   0  0  0  0  0  0  0  0  0  0  0  0
    2.0577   -0.8089    1.6699 H   0  0  0  0  0  0  0  0  0  0  0  0
  1  2  1  0
  2  3  1  0
  3  4  1  0
  4  5  1  0
  5  6  1  0
  6  7  1  0
  6  8  1  0
  6  2  1  0
  5  3  1  0
  1  9  1  0
  1 10  1  0
  1 11  1  0
  2 12  1  0
  3 13  1  0
  4 14  1  0
  4 15  1  0
  5 16  1  0
  7 17  1  0
  7 18  1  0
  7 19  1  0
  8 20  1  0
  8 21  1  0
  8 22  1  0
M  END
