
     RDKit          3D

 20 21  0  0  0  0  0  0  0  0999 V2000
    2.5835    0.1592    0.1864 C   0  0  0  0  0  0  0  0  0  0  0  0
    1.1122    0.4089    0.0293 C   0  0  0  0  0  0  0  0  0  0  0  0
    0.2948   -0.7073   -0.5171 C   0  0  0  0  0  0  0  0  0  0  0  0
    0.5116   -1.3576    0.6950 O   0  0  0  0  0  0  0  0  0  0  0  0
    0.2199   -0.0588    1.1118 C   0  0  0  0  0  0  0  0  0  0  0  0
   -0.9081   -0.1015    0.1282 C   0  0  0  0  0  0  0  0  0  0  0  0
   -1.9708   -1.1181    0.3474 C   0  0  0  0  0  0  0  0  0  0  0  0
   -1.3174    1.2565   -0.3075 C   0  0  0  0  0  0  0  0  0  0  0  0
    3.0506    0.8268    0.9171 H   0  0  0  0  0  0  0  0  0  0  0  0
    2.8259   -0.8825    0.4347 H   0  0  0  0  0  0  0  0  0  0  0  0
    3.0609    0.4077   -0.8059 H   0  0  0  0  0  0  0  0  0  0  0  0
    0.9274    1.3795   -0.4336 H   0  0  0  0  0  0  0  0  0  0  0  0
    0.3509   -1.1278   -1.4323 H   0  0  0  0  0  0  0  0  0  0  0  0
    0.1724    0.2524    2.0713 H   0  0  0  0  0  0  0  0  0  0  0  0
   -2.1357   -1.6440   -0.6368 H   0  0  0  0  0  0  0  0  0  0  0  0
   -2.9151   -0.7497    0.7339 H   0  0  0  0  0  0  0  0  0  0  0  0
   -1.5423   -1.9171    1.0103 H   0  0  0  0  0  0  0  0  0  0  0  0
   -0.8420    2.0771    0.3041 H   0  0  0  0  0  0  0  0  0  0  0  0
   -2.4198    1.4180   -0.1609 H   0  0  0  0  0  0  0  0  0  0  0  0
   -1.0590    1.4782   -1.3555 H   0  0  0  0  0  0  0  0  0  0  0  0
  1  2  1  0
  2  3  1  0
  3  4  1  0
  4  5  1  0
  5  6  1  0
  6  7  1  0
  6  8  1  0
  5  2  1  0
  6  3  1  0
  1  9  1  0
  1 10  1  0
  1 11  1  0
  2 12  1  0
  3 13  1  0
  5 14  1  0
  7 15  1  0
  7 16  1  0
  7 17  1  0
  8 18  1  0
  8 19  1  0
  8 20  1  0
M  END
