
     RDKit          3D

 21 22  0  0  0  0  0  0  0  0999 V2000
    2.1349    0.2716   -0.1600 C   0  0  0  0  0  0  0  0  0  0  0  0
    0.8084   -0.3385   -0.4213 C   0  0  0  0  0  0  0  0  0  0  0  0
    0.2385   -1.0491    0.8213 C   0  0  0  0  0  0  0  0  0  0  0  0
   -1.1116   -1.4460    0.2761 C   0  0  0  0  0  0  0  0  0  0  0  0
   -1.5145   -0.2487   -0.6012 C   0  0  0  0  0  0  0  0  0  0  0  0
   -0.3237    0.6831   -0.4673 C   0  0  0  0  0  0  0  0  0  0  0  0
   -0.2088    1.6421   -1.3876 O   0  0  0  0  0  0  0  0  0  0  0  0
   -0.2971    1.1272    0.9839 C   0  0  0  0  0  0  0  0  0  0  0  0
    0.1098    0.0240    1.6889 O   0  0  0  0  0  0  0  0  0  0  0  0
    2.0833    1.2902    0.2414 H   0  0  0  0  0  0  0  0  0  0  0  0
    2.7418    0.2067   -1.0956 H   0  0  0  0  0  0  0  0  0  0  0  0
    2.6808   -0.3877    0.5766 H   0  0  0  0  0  0  0  0  0  0  0  0
    0.7789   -1.0391   -1.2607 H   0  0  0  0  0  0  0  0  0  0  0  0
    0.8561   -1.8475    1.1752 H   0  0  0  0  0  0  0  0  0  0  0  0
   -1.8553   -1.6303    1.0614 H   0  0  0  0  0  0  0  0  0  0  0  0
   -0.9985   -2.3475   -0.3701 H   0  0  0  0  0  0  0  0  0  0  0  0
   -2.4211    0.1966   -0.1592 H   0  0  0  0  0  0  0  0  0  0  0  0
   -1.6417   -0.5898   -1.6391 H   0  0  0  0  0  0  0  0  0  0  0  0
   -1.0797    2.0230   -1.6067 H   0  0  0  0  0  0  0  0  0  0  0  0
   -1.3423    1.4429    1.2234 H   0  0  0  0  0  0  0  0  0  0  0  0
    0.3616    2.0168    1.1206 H   0  0  0  0  0  0  0  0  0  0  0  0
  1  2  1  0
  2  3  1  0
  3  4  1  0
  4  5  1  0
  5  6  1  0
  6  7  1  0
  6  8  1  0
  8  9  1  0
  6  2  1  0
  9  3  1  0
  1 10  1  0
  1 11  1  0
  1 12  1  0
  2 13  1  0
  3 14  1  0
  4 15  1  0
  4 16  1  0
  5 17  1  0
  5 18  1  0
  7 19  1  0
  8 20  1  0
  8 21  1  0
M  END
