
     RDKit          3D

 23 23  0  0  0  0  0  0  0  0999 V2000
    2.4360   -0.7194   -0.4072 C   0  0  0  0  0  0  0  0  0  0  0  0
    1.1516   -0.3672    0.2544 C   0  0  0  0  0  0  0  0  0  0  0  0
   -0.0027   -1.3456   -0.0050 C   0  0  0  0  0  0  0  0  0  0  0  0
   -0.9064   -0.1040    0.0445 C   0  0  0  0  0  0  0  0  0  0  0  0
   -1.2280    0.3262    1.4445 C   0  0  0  0  0  0  0  0  0  0  0  0
   -2.0591   -0.2544   -0.8935 C   0  0  0  0  0  0  0  0  0  0  0  0
    0.2915    0.6546   -0.5035 C   0  0  0  0  0  0  0  0  0  0  0  0
    0.4635    2.0222    0.0021 C   0  0  0  0  0  0  0  0  0  0  0  0
   -0.1340    2.9234   -0.5691 O   0  0  0  0  0  0  0  0  0  0  0  0
    2.4486   -0.3056   -1.4409 H   0  0  0  0  0  0  0  0  0  0  0  0
    3.2578   -0.1846    0.1453 H   0  0  0  0  0  0  0  0  0  0  0  0
    2.6990   -1.7910   -0.3651 H   0  0  0  0  0  0  0  0  0  0  0  0
    1.2653   -0.1203    1.3173 H   0  0  0  0  0  0  0  0  0  0  0  0
    0.0402   -1.6977   -1.0424 H   0  0  0  0  0  0  0  0  0  0  0  0
   -0.1813   -2.0703    0.7846 H   0  0  0  0  0  0  0  0  0  0  0  0
   -1.0005    1.4145    1.5145 H   0  0  0  0  0  0  0  0  0  0  0  0
   -2.3108    0.1578    1.6046 H   0  0  0  0  0  0  0  0  0  0  0  0
   -0.6184   -0.2563    2.1860 H   0  0  0  0  0  0  0  0  0  0  0  0
   -2.9515   -0.5457   -0.2723 H   0  0  0  0  0  0  0  0  0  0  0  0
   -2.3069    0.6578   -1.4619 H   0  0  0  0  0  0  0  0  0  0  0  0
   -1.9321   -1.1159   -1.6067 H   0  0  0  0  0  0  0  0  0  0  0  0
    0.4719    0.5181   -1.5881 H   0  0  0  0  0  0  0  0  0  0  0  0
    1.1063    2.2034    0.8578 H   0  0  0  0  0  0  0  0  0  0  0  0
  1  2  1  0
  2  3  1  0
  3  4  1  0
  4  5  1  0
  4  6  1  0
  4  7  1  0
  7  8  1  0
  8  9  2  0
  7  2  1  0
  1 10  1  0
  1 11  1  0
  1 12  1  0
  2 13  1  0
  3 14  1  0
  3 15  1  0
  5 16  1  0
  5 17  1  0
  5 18  1  0
  6 19  1  0
  6 20  1  0
  6 21  1  0
  7 22  1  0
  8 23  1  0
M  END
