
     RDKit          3D

 21 23  0  0  0  0  0  0  0  0999 V2000
   -2.1922    0.7069    0.7827 C   0  0  0  0  0  0  0  0  0  0  0  0
   -1.5593   -0.6160    0.5143 C   0  0  0  0  0  0  0  0  0  0  0  0
   -1.5448   -0.9180   -0.9617 C   0  0  0  0  0  0  0  0  0  0  0  0
   -0.0585   -0.8415   -0.9893 C   0  0  0  0  0  0  0  0  0  0  0  0
   -0.0738   -0.6954    0.5639 C   0  0  0  0  0  0  0  0  0  0  0  0
    0.7131    0.1974   -0.2843 C   0  0  0  0  0  0  0  0  0  0  0  0
    2.2032    0.1105   -0.3837 C   0  0  0  0  0  0  0  0  0  0  0  0
    2.9330    1.2156    0.3688 C   0  0  0  0  0  0  0  0  0  0  0  0
    2.9858   -0.1343    0.7187 O   0  0  0  0  0  0  0  0  0  0  0  0
   -2.3016    1.3315   -0.1523 H   0  0  0  0  0  0  0  0  0  0  0  0
   -3.2618    0.5020    1.0847 H   0  0  0  0  0  0  0  0  0  0  0  0
   -1.7557    1.2806    1.6015 H   0  0  0  0  0  0  0  0  0  0  0  0
   -2.0043   -1.4259    1.1562 H   0  0  0  0  0  0  0  0  0  0  0  0
   -2.0387   -0.1597   -1.5920 H   0  0  0  0  0  0  0  0  0  0  0  0
   -1.9509   -1.9167   -1.2008 H   0  0  0  0  0  0  0  0  0  0  0  0
    0.4933   -1.7143   -1.3891 H   0  0  0  0  0  0  0  0  0  0  0  0
    0.4191   -1.5398    1.0904 H   0  0  0  0  0  0  0  0  0  0  0  0
    0.3248    1.2458   -0.4234 H   0  0  0  0  0  0  0  0  0  0  0  0
    2.5708   -0.1431   -1.4012 H   0  0  0  0  0  0  0  0  0  0  0  0
    2.3422    1.8410    1.0836 H   0  0  0  0  0  0  0  0  0  0  0  0
    3.7564    1.6736   -0.1871 H   0  0  0  0  0  0  0  0  0  0  0  0
  1  2  1  0
  2  3  1  0
  3  4  1  0
  4  5  1  0
  5  6  1  0
  6  7  1  0
  7  8  1  0
  8  9  1  0
  5  2  1  0
  9  7  1  0
  6  4  1  0
  1 10  1  0
  1 11  1  0
  1 12  1  0
  2 13  1  0
  3 14  1  0
  3 15  1  0
  4 16  1  0
  5 17  1  0
  6 18  1  0
  7 19  1  0
  8 20  1  0
  8 21  1  0
M  END
