
     RDKit          3D

 20 20  0  0  0  0  0  0  0  0999 V2000
   -2.3488    0.6079    0.4422 C   0  0  0  0  0  0  0  0  0  0  0  0
   -1.1852    0.3397   -0.4484 C   0  0  0  0  0  0  0  0  0  0  0  0
   -0.9738   -1.1619   -0.6920 C   0  0  0  0  0  0  0  0  0  0  0  0
    0.3487   -1.3208   -1.0070 O   0  0  0  0  0  0  0  0  0  0  0  0
    1.0562   -0.2205   -0.6130 C   0  0  0  0  0  0  0  0  0  0  0  0
    2.3400   -0.5567    0.1126 C   0  0  0  0  0  0  0  0  0  0  0  0
    2.9747    0.6363    0.4658 O   0  0  0  0  0  0  0  0  0  0  0  0
    0.1523    0.6455    0.2383 C   0  0  0  0  0  0  0  0  0  0  0  0
   -2.9670    1.4845    0.0932 H   0  0  0  0  0  0  0  0  0  0  0  0
   -2.1018    0.7068    1.5097 H   0  0  0  0  0  0  0  0  0  0  0  0
   -3.0568   -0.2674    0.3757 H   0  0  0  0  0  0  0  0  0  0  0  0
   -1.2318    0.8674   -1.4095 H   0  0  0  0  0  0  0  0  0  0  0  0
   -1.6830   -1.4542   -1.4693 H   0  0  0  0  0  0  0  0  0  0  0  0
   -1.2160   -1.6363    0.3046 H   0  0  0  0  0  0  0  0  0  0  0  0
    1.3313    0.3877   -1.5005 H   0  0  0  0  0  0  0  0  0  0  0  0
    2.1747   -1.2102    0.9889 H   0  0  0  0  0  0  0  0  0  0  0  0
    3.0387   -1.0913   -0.5615 H   0  0  0  0  0  0  0  0  0  0  0  0
    2.8186    1.3212   -0.2282 H   0  0  0  0  0  0  0  0  0  0  0  0
    0.1267    0.2186    1.2622 H   0  0  0  0  0  0  0  0  0  0  0  0
    0.4023    1.7037    0.2078 H   0  0  0  0  0  0  0  0  0  0  0  0
  1  2  1  0
  2  3  1  0
  3  4  1  0
  4  5  1  0
  5  6  1  0
  6  7  1  0
  5  8  1  0
  8  2  1  0
  1  9  1  0
  1 10  1  0
  1 11  1  0
  2 12  1  0
  3 13  1  0
  3 14  1  0
  5 15  1  0
  6 16  1  0
  6 17  1  0
  7 18  1  0
  8 19  1  0
  8 20  1  0
M  END
