
     RDKit          3D

 19 20  0  0  0  0  0  0  0  0999 V2000
    1.6156   -1.0408    0.2063 C   0  0  0  0  0  0  0  0  0  0  0  0
    0.4794   -0.2881    0.8303 C   0  0  0  0  0  0  0  0  0  0  0  0
    0.5834    1.1859    0.5866 C   0  0  0  0  0  0  0  0  0  0  0  0
   -0.9226    1.2003    0.6950 C   0  0  0  0  0  0  0  0  0  0  0  0
   -0.6260   -0.0134   -0.1513 C   0  0  0  0  0  0  0  0  0  0  0  0
   -1.5168   -0.8947   -0.6889 C   0  0  0  0  0  0  0  0  0  0  0  0
    0.3614    0.8668   -0.8659 C   0  0  0  0  0  0  0  0  0  0  0  0
    2.4913   -0.3895   -0.0389 H   0  0  0  0  0  0  0  0  0  0  0  0
    1.2365   -1.5708   -0.7122 H   0  0  0  0  0  0  0  0  0  0  0  0
    2.0193   -1.8143    0.9061 H   0  0  0  0  0  0  0  0  0  0  0  0
    0.1290   -0.6166    1.8057 H   0  0  0  0  0  0  0  0  0  0  0  0
    1.2232    1.8399    0.9809 H   0  0  0  0  0  0  0  0  0  0  0  0
   -1.3255    1.0020    1.6897 H   0  0  0  0  0  0  0  0  0  0  0  0
   -1.3393    2.0384    0.1259 H   0  0  0  0  0  0  0  0  0  0  0  0
   -1.2517   -1.2671   -1.7102 H   0  0  0  0  0  0  0  0  0  0  0  0
   -2.5645   -0.5053   -0.8024 H   0  0  0  0  0  0  0  0  0  0  0  0
   -1.6515   -1.8404   -0.0856 H   0  0  0  0  0  0  0  0  0  0  0  0
    1.1574    0.3557   -1.3980 H   0  0  0  0  0  0  0  0  0  0  0  0
   -0.0986    1.7521   -1.3730 H   0  0  0  0  0  0  0  0  0  0  0  0
  1  2  1  0
  2  3  1  0
  3  4  1  0
  4  5  1  0
  5  6  1  0
  5  7  1  0
  5  2  1  0
  7  3  1  0
  1  8  1  0
  1  9  1  0
  1 10  1  0
  2 11  1  0
  3 12  1  0
  4 13  1  0
  4 14  1  0
  6 15  1  0
  6 16  1  0
  6 17  1  0
  7 18  1  0
  7 19  1  0
M  END
