
     RDKit          3D

 19 20  0  0  0  0  0  0  0  0999 V2000
    0.5620    1.7617   -0.2211 C   0  0  0  0  0  0  0  0  0  0  0  0
    0.4694    0.2786   -0.5591 C   0  0  0  0  0  0  0  0  0  0  0  0
    0.6905   -0.5789    0.6674 C   0  0  0  0  0  0  0  0  0  0  0  0
    2.0593   -1.1148    0.7417 C   0  0  0  0  0  0  0  0  0  0  0  0
    2.9933   -0.3580    0.8253 O   0  0  0  0  0  0  0  0  0  0  0  0
   -0.1848   -1.6323    0.5790 O   0  0  0  0  0  0  0  0  0  0  0  0
   -1.2622   -1.2652   -0.1804 C   0  0  0  0  0  0  0  0  0  0  0  0
   -2.0021   -0.0326    0.1879 C   0  0  0  0  0  0  0  0  0  0  0  0
   -0.9755   -0.0092   -0.8848 C   0  0  0  0  0  0  0  0  0  0  0  0
    0.5606    1.9264    0.8876 H   0  0  0  0  0  0  0  0  0  0  0  0
    1.4655    2.1682   -0.7067 H   0  0  0  0  0  0  0  0  0  0  0  0
   -0.3066    2.3303   -0.6127 H   0  0  0  0  0  0  0  0  0  0  0  0
    1.1207   -0.0046   -1.3959 H   0  0  0  0  0  0  0  0  0  0  0  0
    0.4678    0.0226    1.5999 H   0  0  0  0  0  0  0  0  0  0  0  0
    2.2291   -2.1663    0.7220 H   0  0  0  0  0  0  0  0  0  0  0  0
   -1.7833   -2.0983   -0.6957 H   0  0  0  0  0  0  0  0  0  0  0  0
   -3.0574    0.1042   -0.1297 H   0  0  0  0  0  0  0  0  0  0  0  0
   -1.7659    0.5141    1.1177 H   0  0  0  0  0  0  0  0  0  0  0  0
   -1.2804    0.1541   -1.9424 H   0  0  0  0  0  0  0  0  0  0  0  0
  1  2  1  0
  2  3  1  0
  3  4  1  0
  4  5  2  0
  3  6  1  0
  6  7  1  0
  7  8  1  0
  8  9  1  0
  9  2  1  0
  9  7  1  0
  1 10  1  0
  1 11  1  0
  1 12  1  0
  2 13  1  0
  3 14  1  0
  4 15  1  0
  7 16  1  0
  8 17  1  0
  8 18  1  0
  9 19  1  0
M  END
