
     RDKit          3D

 21 23  0  0  0  0  0  0  0  0999 V2000
    2.5581   -0.2730   -0.3861 C   0  0  0  0  0  0  0  0  0  0  0  0
    1.2063   -0.3875    0.3023 C   0  0  0  0  0  0  0  0  0  0  0  0
    0.1217   -0.6061   -0.7629 C   0  0  0  0  0  0  0  0  0  0  0  0
   -1.0496    0.0645   -0.1306 C   0  0  0  0  0  0  0  0  0  0  0  0
   -2.0667   -0.7554    0.5557 C   0  0  0  0  0  0  0  0  0  0  0  0
   -2.3970    0.0655   -0.6847 C   0  0  0  0  0  0  0  0  0  0  0  0
   -0.4449    1.2819    0.5129 C   0  0  0  0  0  0  0  0  0  0  0  0
   -0.0959    1.1003    1.8433 O   0  0  0  0  0  0  0  0  0  0  0  0
    0.9149    0.9455    0.9248 C   0  0  0  0  0  0  0  0  0  0  0  0
    2.5851    0.6164   -1.0280 H   0  0  0  0  0  0  0  0  0  0  0  0
    3.3179   -0.1395    0.4163 H   0  0  0  0  0  0  0  0  0  0  0  0
    2.8356   -1.1862   -0.9296 H   0  0  0  0  0  0  0  0  0  0  0  0
    1.2575   -1.2204    1.0100 H   0  0  0  0  0  0  0  0  0  0  0  0
   -0.0200   -1.6737   -0.9863 H   0  0  0  0  0  0  0  0  0  0  0  0
    0.4773   -0.0439   -1.6536 H   0  0  0  0  0  0  0  0  0  0  0  0
   -2.4562   -0.4336    1.5340 H   0  0  0  0  0  0  0  0  0  0  0  0
   -2.1386   -1.8444    0.3935 H   0  0  0  0  0  0  0  0  0  0  0  0
   -3.0178    0.9815   -0.4544 H   0  0  0  0  0  0  0  0  0  0  0  0
   -2.7041   -0.4552   -1.6029 H   0  0  0  0  0  0  0  0  0  0  0  0
   -0.6185    2.2858    0.1046 H   0  0  0  0  0  0  0  0  0  0  0  0
    1.7350    1.6775    1.0218 H   0  0  0  0  0  0  0  0  0  0  0  0
  1  2  1  0
  2  3  1  0
  3  4  1  0
  4  5  1  0
  5  6  1  0
  4  7  1  0
  7  8  1  0
  8  9  1  0
  9  2  1  0
  6  4  1  0
  9  7  1  0
  1 10  1  0
  1 11  1  0
  1 12  1  0
  2 13  1  0
  3 14  1  0
  3 15  1  0
  5 16  1  0
  5 17  1  0
  6 18  1  0
  6 19  1  0
  7 20  1  0
  9 21  1  0
M  END
