
     RDKit          3D

 21 22  0  0  0  0  0  0  0  0999 V2000
    2.2791    0.9295    0.2718 C   0  0  0  0  0  0  0  0  0  0  0  0
    1.0875    0.2210   -0.3064 C   0  0  0  0  0  0  0  0  0  0  0  0
    1.1123   -1.2381   -0.0707 C   0  0  0  0  0  0  0  0  0  0  0  0
    2.0455   -1.9794    0.1182 O   0  0  0  0  0  0  0  0  0  0  0  0
   -0.3083   -1.6596   -0.1099 C   0  0  0  0  0  0  0  0  0  0  0  0
   -0.9739   -0.5782    0.6925 C   0  0  0  0  0  0  0  0  0  0  0  0
   -2.1908    0.0423    0.0692 C   0  0  0  0  0  0  0  0  0  0  0  0
   -1.2503    0.9695   -0.7066 C   0  0  0  0  0  0  0  0  0  0  0  0
   -0.1967    0.6496    0.3300 C   0  0  0  0  0  0  0  0  0  0  0  0
    1.9045    1.6810    0.9967 H   0  0  0  0  0  0  0  0  0  0  0  0
    2.9974    0.2724    0.7681 H   0  0  0  0  0  0  0  0  0  0  0  0
    2.8170    1.4722   -0.5459 H   0  0  0  0  0  0  0  0  0  0  0  0
    1.0680    0.3555   -1.4273 H   0  0  0  0  0  0  0  0  0  0  0  0
   -0.4686   -2.6739    0.2792 H   0  0  0  0  0  0  0  0  0  0  0  0
   -0.6307   -1.5702   -1.1823 H   0  0  0  0  0  0  0  0  0  0  0  0
   -1.0543   -0.8171    1.7592 H   0  0  0  0  0  0  0  0  0  0  0  0
   -2.8046   -0.6100   -0.5588 H   0  0  0  0  0  0  0  0  0  0  0  0
   -2.7322    0.6520    0.8158 H   0  0  0  0  0  0  0  0  0  0  0  0
   -1.0181    0.5137   -1.6714 H   0  0  0  0  0  0  0  0  0  0  0  0
   -1.5542    2.0264   -0.7016 H   0  0  0  0  0  0  0  0  0  0  0  0
   -0.1285    1.3412    1.1805 H   0  0  0  0  0  0  0  0  0  0  0  0
  1  2  1  0
  2  3  1  0
  3  4  2  0
  3  5  1  0
  5  6  1  0
  6  7  1  0
  7  8  1  0
  8  9  1  0
  9  2  1  0
  9  6  1  0
  1 10  1  0
  1 11  1  0
  1 12  1  0
  2 13  1  0
  5 14  1  0
  5 15  1  0
  6 16  1  0
  7 17  1  0
  7 18  1  0
  8 19  1  0
  8 20  1  0
  9 21  1  0
M  END
