
     RDKit          3D

 23 24  0  0  0  0  0  0  0  0999 V2000
    2.3729   -0.4245    0.1112 C   0  0  0  0  0  0  0  0  0  0  0  0
    1.6222    0.7624   -0.4550 C   0  0  0  0  0  0  0  0  0  0  0  0
    1.1931    1.7727    0.6033 C   0  0  0  0  0  0  0  0  0  0  0  0
    0.2061    0.9981   -0.1761 C   0  0  0  0  0  0  0  0  0  0  0  0
   -0.5896   -0.1119    0.4179 C   0  0  0  0  0  0  0  0  0  0  0  0
   -0.1688   -0.5932    1.6510 O   0  0  0  0  0  0  0  0  0  0  0  0
   -0.8035   -1.2127   -0.6164 C   0  0  0  0  0  0  0  0  0  0  0  0
   -2.2694   -1.1784   -0.3301 C   0  0  0  0  0  0  0  0  0  0  0  0
   -2.0975    0.1127    0.4334 C   0  0  0  0  0  0  0  0  0  0  0  0
    2.1156   -0.6328    1.1568 H   0  0  0  0  0  0  0  0  0  0  0  0
    3.4645   -0.1459    0.0230 H   0  0  0  0  0  0  0  0  0  0  0  0
    2.2101   -1.2879   -0.5646 H   0  0  0  0  0  0  0  0  0  0  0  0
    2.0571    1.1357   -1.4029 H   0  0  0  0  0  0  0  0  0  0  0  0
    1.4325    2.8059    0.3301 H   0  0  0  0  0  0  0  0  0  0  0  0
    1.3778    1.5382    1.6682 H   0  0  0  0  0  0  0  0  0  0  0  0
   -0.3580    1.5769   -0.9649 H   0  0  0  0  0  0  0  0  0  0  0  0
   -0.4313    0.0421    2.3362 H   0  0  0  0  0  0  0  0  0  0  0  0
   -0.3500   -2.1875   -0.3131 H   0  0  0  0  0  0  0  0  0  0  0  0
   -0.4799   -0.9686   -1.6338 H   0  0  0  0  0  0  0  0  0  0  0  0
   -2.6532   -2.0186    0.2727 H   0  0  0  0  0  0  0  0  0  0  0  0
   -2.9055   -1.0655   -1.2456 H   0  0  0  0  0  0  0  0  0  0  0  0
   -2.4157    0.9872   -0.1670 H   0  0  0  0  0  0  0  0  0  0  0  0
   -2.5296    0.0956    1.4577 H   0  0  0  0  0  0  0  0  0  0  0  0
  1  2  1  0
  2  3  1  0
  3  4  1  0
  4  5  1  0
  5  6  1  0
  5  7  1  0
  7  8  1  0
  8  9  1  0
  4  2  1  0
  9  5  1  0
  1 10  1  0
  1 11  1  0
  1 12  1  0
  2 13  1  0
  3 14  1  0
  3 15  1  0
  4 16  1  0
  6 17  1  0
  7 18  1  0
  7 19  1  0
  8 20  1  0
  8 21  1  0
  9 22  1  0
  9 23  1  0
M  END
