
     RDKit          3D

 25 25  0  0  0  0  0  0  0  0999 V2000
   -0.0889   -2.1954    0.2578 C   0  0  0  0  0  0  0  0  0  0  0  0
    0.3626   -0.8755   -0.3483 C   0  0  0  0  0  0  0  0  0  0  0  0
    1.7548   -0.5085    0.0716 C   0  0  0  0  0  0  0  0  0  0  0  0
    1.9703    0.9607    0.1154 C   0  0  0  0  0  0  0  0  0  0  0  0
    1.1136    1.8505   -0.3268 C   0  0  0  0  0  0  0  0  0  0  0  0
   -0.1729    1.4128   -0.9201 C   0  0  0  0  0  0  0  0  0  0  0  0
   -0.6355    0.2248   -0.0761 C   0  0  0  0  0  0  0  0  0  0  0  0
   -1.9857   -0.1737   -0.5807 C   0  0  0  0  0  0  0  0  0  0  0  0
   -0.7146    0.6218    1.3593 C   0  0  0  0  0  0  0  0  0  0  0  0
   -0.1527   -2.1378    1.3624 H   0  0  0  0  0  0  0  0  0  0  0  0
   -1.0175   -2.5079   -0.2175 H   0  0  0  0  0  0  0  0  0  0  0  0
    0.6913   -2.9416   -0.0091 H   0  0  0  0  0  0  0  0  0  0  0  0
    0.3778   -1.0289   -1.4484 H   0  0  0  0  0  0  0  0  0  0  0  0
    2.0231   -0.9628    1.0498 H   0  0  0  0  0  0  0  0  0  0  0  0
    2.5110   -0.9036   -0.6692 H   0  0  0  0  0  0  0  0  0  0  0  0
    2.9061    1.3023    0.5460 H   0  0  0  0  0  0  0  0  0  0  0  0
    1.3120    2.9090   -0.2748 H   0  0  0  0  0  0  0  0  0  0  0  0
   -0.9328    2.2195   -0.9123 H   0  0  0  0  0  0  0  0  0  0  0  0
   -0.0605    1.0146   -1.9521 H   0  0  0  0  0  0  0  0  0  0  0  0
   -2.5820    0.7804   -0.6842 H   0  0  0  0  0  0  0  0  0  0  0  0
   -2.5340   -0.8664    0.0556 H   0  0  0  0  0  0  0  0  0  0  0  0
   -1.8582   -0.5396   -1.6273 H   0  0  0  0  0  0  0  0  0  0  0  0
   -1.0383    1.7003    1.3850 H   0  0  0  0  0  0  0  0  0  0  0  0
    0.2317    0.5702    1.9105 H   0  0  0  0  0  0  0  0  0  0  0  0
   -1.4809    0.0747    1.9334 H   0  0  0  0  0  0  0  0  0  0  0  0
  1  2  1  0
  2  3  1  0
  3  4  1  0
  4  5  2  0
  5  6  1  0
  6  7  1  0
  7  8  1  0
  7  9  1  0
  7  2  1  0
  1 10  1  0
  1 11  1  0
  1 12  1  0
  2 13  1  0
  3 14  1  0
  3 15  1  0
  4 16  1  0
  5 17  1  0
  6 18  1  0
  6 19  1  0
  8 20  1  0
  8 21  1  0
  8 22  1  0
  9 23  1  0
  9 24  1  0
  9 25  1  0
M  END
