
     RDKit          3D

 18 18  0  0  0  0  0  0  0  0999 V2000
   -2.0299    0.2359    0.3100 C   0  0  0  0  0  0  0  0  0  0  0  0
   -0.6817    0.4958   -0.3288 C   0  0  0  0  0  0  0  0  0  0  0  0
   -0.2241   -0.7911   -0.9628 C   0  0  0  0  0  0  0  0  0  0  0  0
    1.0797   -0.7389   -1.4284 O   0  0  0  0  0  0  0  0  0  0  0  0
    1.8998   -0.7212   -0.2730 C   0  0  0  0  0  0  0  0  0  0  0  0
    1.6351    0.5748    0.3623 C   0  0  0  0  0  0  0  0  0  0  0  0
    2.5319    1.3505    0.4999 O   0  0  0  0  0  0  0  0  0  0  0  0
    0.2691    0.8602    0.8030 C   0  0  0  0  0  0  0  0  0  0  0  0
   -2.3171   -0.8425    0.2508 H   0  0  0  0  0  0  0  0  0  0  0  0
   -2.8377    0.8167   -0.2086 H   0  0  0  0  0  0  0  0  0  0  0  0
   -2.0698    0.5093    1.3697 H   0  0  0  0  0  0  0  0  0  0  0  0
   -0.7949    1.3084   -1.0559 H   0  0  0  0  0  0  0  0  0  0  0  0
   -0.9272   -1.0644   -1.7837 H   0  0  0  0  0  0  0  0  0  0  0  0
   -0.2894   -1.5913   -0.1819 H   0  0  0  0  0  0  0  0  0  0  0  0
    2.9659   -0.8461   -0.5428 H   0  0  0  0  0  0  0  0  0  0  0  0
    1.6404   -1.5862    0.3893 H   0  0  0  0  0  0  0  0  0  0  0  0
    0.0277    0.1301    1.6306 H   0  0  0  0  0  0  0  0  0  0  0  0
    0.1220    1.9000    1.1502 H   0  0  0  0  0  0  0  0  0  0  0  0
  1  2  1  0
  2  3  1  0
  3  4  1  0
  4  5  1  0
  5  6  1  0
  6  7  2  0
  6  8  1  0
  8  2  1  0
  1  9  1  0
  1 10  1  0
  1 11  1  0
  2 12  1  0
  3 13  1  0
  3 14  1  0
  5 15  1  0
  5 16  1  0
  8 17  1  0
  8 18  1  0
M  END
