
     RDKit          3D

 19 19  0  0  0  0  0  0  0  0999 V2000
    2.1646   -0.7154    0.0643 C   0  0  0  0  0  0  0  0  0  0  0  0
    0.7927   -0.1456    0.3051 C   0  0  0  0  0  0  0  0  0  0  0  0
    0.6734    1.2642   -0.1281 C   0  0  0  0  0  0  0  0  0  0  0  0
   -0.4774    1.9170   -0.2257 C   0  0  0  0  0  0  0  0  0  0  0  0
   -1.8371    1.4481    0.0498 C   0  0  0  0  0  0  0  0  0  0  0  0
   -2.7726    2.2568   -0.2122 O   0  0  0  0  0  0  0  0  0  0  0  0
   -2.1395    0.1958    0.5694 O   0  0  0  0  0  0  0  0  0  0  0  0
   -1.5812   -1.0329    0.2296 C   0  0  0  0  0  0  0  0  0  0  0  0
   -0.2145   -1.0518   -0.2844 C   0  0  0  0  0  0  0  0  0  0  0  0
    2.4094   -1.4422    0.8697 H   0  0  0  0  0  0  0  0  0  0  0  0
    2.8979    0.1167    0.1806 H   0  0  0  0  0  0  0  0  0  0  0  0
    2.2590   -1.2449   -0.8920 H   0  0  0  0  0  0  0  0  0  0  0  0
    0.6536   -0.1334    1.4264 H   0  0  0  0  0  0  0  0  0  0  0  0
    1.5665    1.8184   -0.3866 H   0  0  0  0  0  0  0  0  0  0  0  0
   -0.4242    2.9622   -0.5602 H   0  0  0  0  0  0  0  0  0  0  0  0
   -1.6941   -1.7245    1.1173 H   0  0  0  0  0  0  0  0  0  0  0  0
   -2.2601   -1.4979   -0.5430 H   0  0  0  0  0  0  0  0  0  0  0  0
   -0.2058   -0.8882   -1.4037 H   0  0  0  0  0  0  0  0  0  0  0  0
    0.1894   -2.1026   -0.1763 H   0  0  0  0  0  0  0  0  0  0  0  0
  1  2  1  0
  2  3  1  0
  3  4  2  0
  4  5  1  0
  5  6  2  0
  5  7  1  0
  7  8  1  0
  8  9  1  0
  9  2  1  0
  1 10  1  0
  1 11  1  0
  1 12  1  0
  2 13  1  0
  3 14  1  0
  4 15  1  0
  8 16  1  0
  8 17  1  0
  9 18  1  0
  9 19  1  0
M  END
