
     RDKit          3D

 23 24  0  0  0  0  0  0  0  0999 V2000
    2.8857   -0.2001   -0.0970 C   0  0  0  0  0  0  0  0  0  0  0  0
    1.4731    0.2996    0.1577 C   0  0  0  0  0  0  0  0  0  0  0  0
    0.5717   -0.8232    0.6317 C   0  0  0  0  0  0  0  0  0  0  0  0
   -0.7250   -0.4960   -0.0442 C   0  0  0  0  0  0  0  0  0  0  0  0
   -1.6809   -1.5708   -0.2385 C   0  0  0  0  0  0  0  0  0  0  0  0
   -2.0017   -0.4010    0.6590 C   0  0  0  0  0  0  0  0  0  0  0  0
   -0.3957    0.5516   -1.0449 C   0  0  0  0  0  0  0  0  0  0  0  0
   -1.0337    1.8912   -0.6546 C   0  0  0  0  0  0  0  0  0  0  0  0
    0.9731    0.7600   -1.0335 O   0  0  0  0  0  0  0  0  0  0  0  0
    3.0287   -1.2471    0.2013 H   0  0  0  0  0  0  0  0  0  0  0  0
    3.5828    0.5026    0.4065 H   0  0  0  0  0  0  0  0  0  0  0  0
    3.1515   -0.1487   -1.1838 H   0  0  0  0  0  0  0  0  0  0  0  0
    1.4612    1.0647    0.9763 H   0  0  0  0  0  0  0  0  0  0  0  0
    0.4437   -0.8556    1.7148 H   0  0  0  0  0  0  0  0  0  0  0  0
    0.9687   -1.8137    0.2980 H   0  0  0  0  0  0  0  0  0  0  0  0
   -2.2551   -1.7604   -1.1476 H   0  0  0  0  0  0  0  0  0  0  0  0
   -1.4988   -2.5157    0.3528 H   0  0  0  0  0  0  0  0  0  0  0  0
   -2.7748    0.2728    0.2337 H   0  0  0  0  0  0  0  0  0  0  0  0
   -2.0227   -0.5147    1.7472 H   0  0  0  0  0  0  0  0  0  0  0  0
   -0.7428    0.3456   -2.0689 H   0  0  0  0  0  0  0  0  0  0  0  0
   -2.0639    1.9779   -0.9982 H   0  0  0  0  0  0  0  0  0  0  0  0
   -0.4328    2.7262   -1.1024 H   0  0  0  0  0  0  0  0  0  0  0  0
   -0.9123    1.9551    0.4515 H   0  0  0  0  0  0  0  0  0  0  0  0
  1  2  1  0
  2  3  1  0
  3  4  1  0
  4  5  1  0
  5  6  1  0
  4  7  1  0
  7  8  1  0
  7  9  1  0
  9  2  1  0
  6  4  1  0
  1 10  1  0
  1 11  1  0
  1 12  1  0
  2 13  1  0
  3 14  1  0
  3 15  1  0
  5 16  1  0
  5 17  1  0
  6 18  1  0
  6 19  1  0
  7 20  1  0
  8 21  1  0
  8 22  1  0
  8 23  1  0
M  END
