
     RDKit          3D

 21 23  0  0  0  0  0  0  0  0999 V2000
   -0.8876    2.0303   -0.5455 C   0  0  0  0  0  0  0  0  0  0  0  0
   -0.3852    0.7960    0.1075 C   0  0  0  0  0  0  0  0  0  0  0  0
   -1.2939   -0.3869    0.0017 C   0  0  0  0  0  0  0  0  0  0  0  0
   -1.0897   -1.4362    1.1208 C   0  0  0  0  0  0  0  0  0  0  0  0
   -0.4781   -1.6081   -0.1912 C   0  0  0  0  0  0  0  0  0  0  0  0
    0.9048   -1.1580   -0.5274 C   0  0  0  0  0  0  0  0  0  0  0  0
    1.8446   -1.2196    0.4835 O   0  0  0  0  0  0  0  0  0  0  0  0
    2.0514    0.1489    0.4326 C   0  0  0  0  0  0  0  0  0  0  0  0
    0.9001    0.3419   -0.5185 C   0  0  0  0  0  0  0  0  0  0  0  0
   -0.6760    2.0972   -1.6227 H   0  0  0  0  0  0  0  0  0  0  0  0
   -0.3931    2.9079   -0.0623 H   0  0  0  0  0  0  0  0  0  0  0  0
   -1.9664    2.1183   -0.3661 H   0  0  0  0  0  0  0  0  0  0  0  0
   -0.2267    0.9832    1.2077 H   0  0  0  0  0  0  0  0  0  0  0  0
   -2.2577   -0.3446   -0.4955 H   0  0  0  0  0  0  0  0  0  0  0  0
   -0.5586   -1.0884    2.0195 H   0  0  0  0  0  0  0  0  0  0  0  0
   -1.9876   -2.0653    1.3358 H   0  0  0  0  0  0  0  0  0  0  0  0
   -0.8513   -2.4466   -0.8430 H   0  0  0  0  0  0  0  0  0  0  0  0
    1.3056   -1.5516   -1.4648 H   0  0  0  0  0  0  0  0  0  0  0  0
    2.9861    0.4922   -0.0282 H   0  0  0  0  0  0  0  0  0  0  0  0
    1.9195    0.5816    1.4424 H   0  0  0  0  0  0  0  0  0  0  0  0
    1.1398    0.8078   -1.4862 H   0  0  0  0  0  0  0  0  0  0  0  0
  1  2  1  0
  2  3  1  0
  3  4  1  0
  4  5  1  0
  5  6  1  0
  6  7  1  0
  7  8  1  0
  8  9  1  0
  9  2  1  0
  5  3  1  0
  9  6  1  0
  1 10  1  0
  1 11  1  0
  1 12  1  0
  2 13  1  0
  3 14  1  0
  4 15  1  0
  4 16  1  0
  5 17  1  0
  6 18  1  0
  8 19  1  0
  8 20  1  0
  9 21  1  0
M  END
