
     RDKit          3D

 17 18  0  0  0  0  0  0  0  0999 V2000
   -1.9003    0.7393    0.2445 C   0  0  0  0  0  0  0  0  0  0  0  0
   -1.1683   -0.3092   -0.5590 C   0  0  0  0  0  0  0  0  0  0  0  0
   -0.6892   -1.5630    0.0598 C   0  0  0  0  0  0  0  0  0  0  0  0
    0.2690   -0.4782   -0.2034 C   0  0  0  0  0  0  0  0  0  0  0  0
    0.8946    0.2935    0.8632 C   0  0  0  0  0  0  0  0  0  0  0  0
    2.0478    0.7300    0.4121 C   0  0  0  0  0  0  0  0  0  0  0  0
    2.2518    0.2817   -0.9559 C   0  0  0  0  0  0  0  0  0  0  0  0
    3.2751    0.5366   -1.6811 O   0  0  0  0  0  0  0  0  0  0  0  0
    1.1345   -0.4486   -1.2725 O   0  0  0  0  0  0  0  0  0  0  0  0
   -1.1916    1.4409    0.7342 H   0  0  0  0  0  0  0  0  0  0  0  0
   -2.5264    1.3746   -0.4324 H   0  0  0  0  0  0  0  0  0  0  0  0
   -2.6081    0.2707    0.9598 H   0  0  0  0  0  0  0  0  0  0  0  0
   -1.4688   -0.3876   -1.6243 H   0  0  0  0  0  0  0  0  0  0  0  0
   -0.6564   -2.4997   -0.5222 H   0  0  0  0  0  0  0  0  0  0  0  0
   -0.8546   -1.7679    1.1583 H   0  0  0  0  0  0  0  0  0  0  0  0
    0.4433    0.4520    1.8472 H   0  0  0  0  0  0  0  0  0  0  0  0
    2.7478    1.3349    0.9717 H   0  0  0  0  0  0  0  0  0  0  0  0
  1  2  1  0
  2  3  1  0
  3  4  1  0
  4  5  1  0
  5  6  2  0
  6  7  1  0
  7  8  2  0
  7  9  1  0
  4  2  1  0
  9  4  1  0
  1 10  1  0
  1 11  1  0
  1 12  1  0
  2 13  1  0
  3 14  1  0
  3 15  1  0
  5 16  1  0
  6 17  1  0
M  END
