
     RDKit          3D

 23 24  0  0  0  0  0  0  0  0999 V2000
   -1.5765    1.5890   -0.3071 C   0  0  0  0  0  0  0  0  0  0  0  0
   -0.6253    0.4809   -0.5544 C   0  0  0  0  0  0  0  0  0  0  0  0
   -1.1662   -0.8906   -0.2958 C   0  0  0  0  0  0  0  0  0  0  0  0
    0.1102   -1.7188   -0.4496 C   0  0  0  0  0  0  0  0  0  0  0  0
    0.5189   -0.9729    0.8204 C   0  0  0  0  0  0  0  0  0  0  0  0
   -0.9626   -1.1363    1.2063 C   0  0  0  0  0  0  0  0  0  0  0  0
    0.5337    0.4626    0.4635 C   0  0  0  0  0  0  0  0  0  0  0  0
    1.7924    0.9809   -0.1239 C   0  0  0  0  0  0  0  0  0  0  0  0
    2.2362    0.2561   -1.2210 O   0  0  0  0  0  0  0  0  0  0  0  0
   -2.5468    1.1675    0.0021 H   0  0  0  0  0  0  0  0  0  0  0  0
   -1.1865    2.2871    0.4718 H   0  0  0  0  0  0  0  0  0  0  0  0
   -1.7366    2.1364   -1.2605 H   0  0  0  0  0  0  0  0  0  0  0  0
   -0.2105    0.4878   -1.5890 H   0  0  0  0  0  0  0  0  0  0  0  0
   -2.0538   -1.2359   -0.7453 H   0  0  0  0  0  0  0  0  0  0  0  0
    0.6202   -1.4234   -1.3615 H   0  0  0  0  0  0  0  0  0  0  0  0
   -0.0601   -2.7853   -0.2762 H   0  0  0  0  0  0  0  0  0  0  0  0
    1.2389   -1.4145    1.4542 H   0  0  0  0  0  0  0  0  0  0  0  0
   -1.2238   -2.1487    1.5004 H   0  0  0  0  0  0  0  0  0  0  0  0
   -1.2598   -0.3068    1.8458 H   0  0  0  0  0  0  0  0  0  0  0  0
    0.2283    1.1089    1.2945 H   0  0  0  0  0  0  0  0  0  0  0  0
    1.5952    2.0495   -0.4333 H   0  0  0  0  0  0  0  0  0  0  0  0
    2.5562    1.0314    0.6504 H   0  0  0  0  0  0  0  0  0  0  0  0
    3.1782   -0.0049   -1.0919 H   0  0  0  0  0  0  0  0  0  0  0  0
  1  2  1  0
  2  3  1  0
  3  4  1  0
  4  5  1  0
  5  6  1  0
  5  7  1  0
  7  8  1  0
  8  9  1  0
  7  2  1  0
  6  3  1  0
  1 10  1  0
  1 11  1  0
  1 12  1  0
  2 13  1  0
  3 14  1  0
  4 15  1  0
  4 16  1  0
  5 17  1  0
  6 18  1  0
  6 19  1  0
  7 20  1  0
  8 21  1  0
  8 22  1  0
  9 23  1  0
M  END
