
     RDKit          3D

 23 25  0  0  0  0  0  0  0  0999 V2000
    2.3747   -0.7178   -0.1978 C   0  0  0  0  0  0  0  0  0  0  0  0
    0.9477   -0.7413    0.0948 C   0  0  0  0  0  0  0  0  0  0  0  0
   -0.0434   -0.8594   -1.0169 C   0  0  0  0  0  0  0  0  0  0  0  0
    0.2707    0.5786   -1.3453 C   0  0  0  0  0  0  0  0  0  0  0  0
    0.1848    0.5454    0.1704 C   0  0  0  0  0  0  0  0  0  0  0  0
    0.3974    1.6038    1.0135 C   0  0  0  0  0  0  0  0  0  0  0  0
   -1.0023   -0.2845   -0.0516 C   0  0  0  0  0  0  0  0  0  0  0  0
   -2.3591    0.0695   -0.2328 C   0  0  0  0  0  0  0  0  0  0  0  0
   -1.8608   -0.9291    0.8643 C   0  0  0  0  0  0  0  0  0  0  0  0
    2.6843   -0.5257   -1.2278 H   0  0  0  0  0  0  0  0  0  0  0  0
    2.8286   -1.6951    0.1068 H   0  0  0  0  0  0  0  0  0  0  0  0
    2.8809    0.0412    0.4566 H   0  0  0  0  0  0  0  0  0  0  0  0
    0.6939   -1.4023    0.9385 H   0  0  0  0  0  0  0  0  0  0  0  0
   -0.1571   -1.6117   -1.6709 H   0  0  0  0  0  0  0  0  0  0  0  0
    1.2319    0.7997   -1.7778 H   0  0  0  0  0  0  0  0  0  0  0  0
   -0.5356    1.1795   -1.7612 H   0  0  0  0  0  0  0  0  0  0  0  0
   -0.3253    1.7025    1.8513 H   0  0  0  0  0  0  0  0  0  0  0  0
    1.4083    1.5951    1.5187 H   0  0  0  0  0  0  0  0  0  0  0  0
    0.3746    2.6110    0.5053 H   0  0  0  0  0  0  0  0  0  0  0  0
   -2.9578   -0.4376   -1.0362 H   0  0  0  0  0  0  0  0  0  0  0  0
   -2.8651    0.9796    0.1351 H   0  0  0  0  0  0  0  0  0  0  0  0
   -2.1939   -1.9713    0.7639 H   0  0  0  0  0  0  0  0  0  0  0  0
   -1.9774   -0.5300    1.8994 H   0  0  0  0  0  0  0  0  0  0  0  0
  1  2  1  0
  2  3  1  0
  3  4  1  0
  4  5  1  0
  5  6  1  0
  5  7  1  0
  7  8  1  0
  8  9  1  0
  5  2  1  0
  9  7  1  0
  7  3  1  0
  1 10  1  0
  1 11  1  0
  1 12  1  0
  2 13  1  0
  3 14  1  0
  4 15  1  0
  4 16  1  0
  6 17  1  0
  6 18  1  0
  6 19  1  0
  8 20  1  0
  8 21  1  0
  9 22  1  0
  9 23  1  0
M  END
