
     RDKit          3D

 17 18  0  0  0  0  0  0  0  0999 V2000
   -2.1914   -0.4840   -0.0120 C   0  0  0  0  0  0  0  0  0  0  0  0
   -1.0580    0.3558   -0.4904 C   0  0  0  0  0  0  0  0  0  0  0  0
    0.1593   -0.4222   -0.9978 C   0  0  0  0  0  0  0  0  0  0  0  0
    0.9637    0.3271    0.0415 C   0  0  0  0  0  0  0  0  0  0  0  0
    2.2840   -0.1543    0.4914 C   0  0  0  0  0  0  0  0  0  0  0  0
    0.8391    1.7407    0.0737 O   0  0  0  0  0  0  0  0  0  0  0  0
   -0.1215    0.8654    0.6169 C   0  0  0  0  0  0  0  0  0  0  0  0
   -3.0932    0.1638    0.0490 H   0  0  0  0  0  0  0  0  0  0  0  0
   -2.4305   -1.3232   -0.7106 H   0  0  0  0  0  0  0  0  0  0  0  0
   -2.0358   -0.8803    1.0152 H   0  0  0  0  0  0  0  0  0  0  0  0
   -1.3440    1.1529   -1.2167 H   0  0  0  0  0  0  0  0  0  0  0  0
    0.0440   -1.4733   -0.7575 H   0  0  0  0  0  0  0  0  0  0  0  0
    0.4223   -0.1798   -2.0496 H   0  0  0  0  0  0  0  0  0  0  0  0
    2.4082   -0.2300    1.5962 H   0  0  0  0  0  0  0  0  0  0  0  0
    3.0695    0.5945    0.1741 H   0  0  0  0  0  0  0  0  0  0  0  0
    2.6026   -1.1032   -0.0242 H   0  0  0  0  0  0  0  0  0  0  0  0
   -0.5184    1.0501    1.6083 H   0  0  0  0  0  0  0  0  0  0  0  0
  1  2  1  0
  2  3  1  0
  3  4  1  0
  4  5  1  0
  4  6  1  0
  6  7  1  0
  7  2  1  0
  7  4  1  0
  1  8  1  0
  1  9  1  0
  1 10  1  0
  2 11  1  0
  3 12  1  0
  3 13  1  0
  5 14  1  0
  5 15  1  0
  5 16  1  0
  7 17  1  0
M  END
