
     RDKit          3D

 20 21  0  0  0  0  0  0  0  0999 V2000
    2.0542   -0.5349    0.1693 C   0  0  0  0  0  0  0  0  0  0  0  0
    0.8363    0.2716    0.3322 C   0  0  0  0  0  0  0  0  0  0  0  0
   -0.3685   -0.5385    0.8363 C   0  0  0  0  0  0  0  0  0  0  0  0
   -1.4059    0.5738    0.8366 C   0  0  0  0  0  0  0  0  0  0  0  0
   -1.0748    1.3247   -0.4635 C   0  0  0  0  0  0  0  0  0  0  0  0
    0.1569    0.6226   -1.0032 C   0  0  0  0  0  0  0  0  0  0  0  0
   -0.1997   -0.6424   -1.4813 O   0  0  0  0  0  0  0  0  0  0  0  0
   -0.6309   -1.3791   -0.3809 C   0  0  0  0  0  0  0  0  0  0  0  0
    2.9487    0.1490    0.2586 H   0  0  0  0  0  0  0  0  0  0  0  0
    2.2142   -1.2976    0.9711 H   0  0  0  0  0  0  0  0  0  0  0  0
    2.0964   -1.0354   -0.8075 H   0  0  0  0  0  0  0  0  0  0  0  0
    0.9261    1.2060    0.8812 H   0  0  0  0  0  0  0  0  0  0  0  0
   -0.2161   -1.0377    1.7583 H   0  0  0  0  0  0  0  0  0  0  0  0
   -1.1860    1.2006    1.7208 H   0  0  0  0  0  0  0  0  0  0  0  0
   -2.4110    0.1573    0.8162 H   0  0  0  0  0  0  0  0  0  0  0  0
   -1.9180    1.3168   -1.1646 H   0  0  0  0  0  0  0  0  0  0  0  0
   -0.7403    2.3725   -0.2048 H   0  0  0  0  0  0  0  0  0  0  0  0
    0.7695    1.1981   -1.6605 H   0  0  0  0  0  0  0  0  0  0  0  0
   -1.7252   -1.5513   -0.4459 H   0  0  0  0  0  0  0  0  0  0  0  0
   -0.1258   -2.3763   -0.3390 H   0  0  0  0  0  0  0  0  0  0  0  0
  1  2  1  0
  2  3  1  0
  3  4  1  0
  4  5  1  0
  5  6  1  0
  6  7  1  0
  7  8  1  0
  6  2  1  0
  8  3  1  0
  1  9  1  0
  1 10  1  0
  1 11  1  0
  2 12  1  0
  3 13  1  0
  4 14  1  0
  4 15  1  0
  5 16  1  0
  5 17  1  0
  6 18  1  0
  8 19  1  0
  8 20  1  0
M  END
