
     RDKit          2D

 19 22  0  0  0  0  0  0  0  0999 V2000
   -4.8976    2.0711    0.0000 C   0  0  0  0  0  0  0  0  0  0  0  0
   -3.4204    1.8107    0.0000 C   0  0  0  0  0  0  0  0  0  0  0  0
   -3.4204    0.3107    0.0000 C   0  0  0  0  0  0  0  0  0  0  0  0
   -2.1213    1.0607    0.0000 C   0  0  0  0  0  0  0  0  0  0  0  0
   -1.0607    2.1213    0.0000 C   0  0  0  0  0  0  0  0  0  0  0  0
   -0.0000   -1.0607    0.0000 C   0  0  0  0  0  0  0  0  0  0  0  0
    1.0607    0.0000    0.0000 O   0  0  0  0  0  0  0  0  0  0  0  0
    0.0000    1.0607    0.0000 C   0  0  0  0  0  0  0  0  0  0  0  0
   -1.0607    0.0000    0.0000 C   0  0  0  0  0  0  0  0  0  0  0  0
   -6.3748    2.3316    0.0000 H   0  0  0  0  0  0  0  0  0  0  0  0
   -5.2923    0.7801    0.0000 H   0  0  0  0  0  0  0  0  0  0  0  0
   -4.6371    3.5483    0.0000 H   0  0  0  0  0  0  0  0  0  0  0  0
   -2.9073    3.2202    0.0000 H   0  0  0  0  0  0  0  0  0  0  0  0
   -3.0830   -1.1509    0.0000 H   0  0  0  0  0  0  0  0  0  0  0  0
   -4.7114   -0.0841    0.0000 H   0  0  0  0  0  0  0  0  0  0  0  0
   -1.0607    3.6213    0.0000 H   0  0  0  0  0  0  0  0  0  0  0  0
   -0.0000   -2.5607    0.0000 H   0  0  0  0  0  0  0  0  0  0  0  0
    1.0607    2.1213    0.0000 H   0  0  0  0  0  0  0  0  0  0  0  0
   -1.9841   -1.1820    0.0000 H   0  0  0  0  0  0  0  0  0  0  0  0
  1  2  1  0
  2  3  1  0
  3  4  1  0
  4  5  1  0
  5  6  1  0
  6  7  1  0
  7  8  1  0
  8  9  1  0
  4  2  1  0
  8  5  1  0
  9  4  1  0
  9  6  1  0
  1 10  1  0
  1 11  1  0
  1 12  1  0
  2 13  1  0
  3 14  1  0
  3 15  1  0
  5 16  1  0
  6 17  1  0
  8 18  1  0
  9 19  1  0
M  END
