
     RDKit          3D

 23 25  0  0  0  0  0  0  0  0999 V2000
    2.1636    1.2794    0.6786 C   0  0  0  0  0  0  0  0  0  0  0  0
    1.3556    0.2110    0.0103 C   0  0  0  0  0  0  0  0  0  0  0  0
    1.0850   -0.9764    0.8767 C   0  0  0  0  0  0  0  0  0  0  0  0
   -0.3330   -1.3941    0.4614 C   0  0  0  0  0  0  0  0  0  0  0  0
   -0.7663   -1.1835   -0.9288 C   0  0  0  0  0  0  0  0  0  0  0  0
   -0.3399   -0.0304   -1.7647 C   0  0  0  0  0  0  0  0  0  0  0  0
    0.0072    0.7202   -0.4833 C   0  0  0  0  0  0  0  0  0  0  0  0
   -0.9978   -0.1358    0.2007 C   0  0  0  0  0  0  0  0  0  0  0  0
   -2.4006    0.2117    0.3982 C   0  0  0  0  0  0  0  0  0  0  0  0
    1.8138    2.3135    0.4025 H   0  0  0  0  0  0  0  0  0  0  0  0
    2.1689    1.1995    1.7848 H   0  0  0  0  0  0  0  0  0  0  0  0
    3.2405    1.2631    0.3631 H   0  0  0  0  0  0  0  0  0  0  0  0
    1.9688   -0.1573   -0.8622 H   0  0  0  0  0  0  0  0  0  0  0  0
    1.7984   -1.7927    0.7755 H   0  0  0  0  0  0  0  0  0  0  0  0
    0.9871   -0.6021    1.9278 H   0  0  0  0  0  0  0  0  0  0  0  0
   -0.8201   -2.1910    1.0213 H   0  0  0  0  0  0  0  0  0  0  0  0
   -1.6322   -1.7387   -1.2849 H   0  0  0  0  0  0  0  0  0  0  0  0
    0.4991   -0.1906   -2.4446 H   0  0  0  0  0  0  0  0  0  0  0  0
   -1.1768    0.5435   -2.2631 H   0  0  0  0  0  0  0  0  0  0  0  0
   -0.1288    1.7917   -0.5008 H   0  0  0  0  0  0  0  0  0  0  0  0
   -2.7510    0.9615   -0.3654 H   0  0  0  0  0  0  0  0  0  0  0  0
   -2.6962    0.5918    1.3835 H   0  0  0  0  0  0  0  0  0  0  0  0
   -3.0452   -0.6945    0.2157 H   0  0  0  0  0  0  0  0  0  0  0  0
  1  2  1  0
  2  3  1  0
  3  4  1  0
  4  5  1  0
  5  6  1  0
  6  7  1  0
  7  8  1  0
  8  9  1  0
  7  2  1  0
  8  4  1  0
  8  5  1  0
  1 10  1  0
  1 11  1  0
  1 12  1  0
  2 13  1  0
  3 14  1  0
  3 15  1  0
  4 16  1  0
  5 17  1  0
  6 18  1  0
  6 19  1  0
  7 20  1  0
  9 21  1  0
  9 22  1  0
  9 23  1  0
M  END
