
     RDKit          3D

 19 20  0  0  0  0  0  0  0  0999 V2000
   -2.2910    0.4259    0.0100 C   0  0  0  0  0  0  0  0  0  0  0  0
   -0.8171    0.5652   -0.1525 C   0  0  0  0  0  0  0  0  0  0  0  0
   -0.2412    0.2175   -1.4571 C   0  0  0  0  0  0  0  0  0  0  0  0
   -0.4792    0.5596   -2.6041 O   0  0  0  0  0  0  0  0  0  0  0  0
    0.7260   -0.7024   -0.7951 C   0  0  0  0  0  0  0  0  0  0  0  0
    2.0457   -0.0869   -0.4209 C   0  0  0  0  0  0  0  0  0  0  0  0
    2.1420   -0.0744    0.9443 O   0  0  0  0  0  0  0  0  0  0  0  0
    0.8996   -0.1516    1.4989 C   0  0  0  0  0  0  0  0  0  0  0  0
   -0.0790   -0.5847    0.4637 C   0  0  0  0  0  0  0  0  0  0  0  0
   -2.8111    1.4234   -0.0236 H   0  0  0  0  0  0  0  0  0  0  0  0
   -2.7699   -0.2768   -0.6939 H   0  0  0  0  0  0  0  0  0  0  0  0
   -2.5100    0.0330    1.0466 H   0  0  0  0  0  0  0  0  0  0  0  0
   -0.4805    1.5701    0.1641 H   0  0  0  0  0  0  0  0  0  0  0  0
    0.7902   -1.6921   -1.2563 H   0  0  0  0  0  0  0  0  0  0  0  0
    2.1918    0.9151   -0.8264 H   0  0  0  0  0  0  0  0  0  0  0  0
    2.8591   -0.7303   -0.8162 H   0  0  0  0  0  0  0  0  0  0  0  0
    0.6112    0.8765    1.8482 H   0  0  0  0  0  0  0  0  0  0  0  0
    0.8596   -0.7823    2.4201 H   0  0  0  0  0  0  0  0  0  0  0  0
   -0.6462   -1.5046    0.6503 H   0  0  0  0  0  0  0  0  0  0  0  0
  1  2  1  0
  2  3  1  0
  3  4  2  0
  3  5  1  0
  5  6  1  0
  6  7  1  0
  7  8  1  0
  8  9  1  0
  9  2  1  0
  9  5  1  0
  1 10  1  0
  1 11  1  0
  1 12  1  0
  2 13  1  0
  5 14  1  0
  6 15  1  0
  6 16  1  0
  8 17  1  0
  8 18  1  0
  9 19  1  0
M  END
