
     RDKit          3D

 27 27  0  0  0  0  0  0  0  0999 V2000
    2.8719    0.1390   -0.0374 C   0  0  0  0  0  0  0  0  0  0  0  0
    1.4087    0.0715    0.2689 C   0  0  0  0  0  0  0  0  0  0  0  0
    0.7230   -1.1082   -0.4005 C   0  0  0  0  0  0  0  0  0  0  0  0
   -0.6037   -1.2343    0.3054 C   0  0  0  0  0  0  0  0  0  0  0  0
   -1.2330   -2.5753    0.1463 C   0  0  0  0  0  0  0  0  0  0  0  0
   -1.4600   -0.0877   -0.1268 C   0  0  0  0  0  0  0  0  0  0  0  0
   -0.7506    1.1559   -0.4571 C   0  0  0  0  0  0  0  0  0  0  0  0
   -1.5514    2.3204    0.1493 C   0  0  0  0  0  0  0  0  0  0  0  0
    0.6513    1.3097   -0.0601 C   0  0  0  0  0  0  0  0  0  0  0  0
    3.1651   -0.8736   -0.4430 H   0  0  0  0  0  0  0  0  0  0  0  0
    3.4866    0.2438    0.8977 H   0  0  0  0  0  0  0  0  0  0  0  0
    3.1667    0.9443   -0.7070 H   0  0  0  0  0  0  0  0  0  0  0  0
    1.2957   -0.1137    1.3763 H   0  0  0  0  0  0  0  0  0  0  0  0
    1.3278   -2.0284   -0.3398 H   0  0  0  0  0  0  0  0  0  0  0  0
    0.6284   -0.8495   -1.4700 H   0  0  0  0  0  0  0  0  0  0  0  0
   -0.4009   -1.0903    1.4054 H   0  0  0  0  0  0  0  0  0  0  0  0
   -0.7324   -3.2759    0.8743 H   0  0  0  0  0  0  0  0  0  0  0  0
   -2.2886   -2.5196    0.4693 H   0  0  0  0  0  0  0  0  0  0  0  0
   -1.2220   -2.9756   -0.8794 H   0  0  0  0  0  0  0  0  0  0  0  0
   -2.2258    0.0610    0.6928 H   0  0  0  0  0  0  0  0  0  0  0  0
   -2.0823   -0.4613   -0.9940 H   0  0  0  0  0  0  0  0  0  0  0  0
   -0.8325    1.3237   -1.5718 H   0  0  0  0  0  0  0  0  0  0  0  0
   -2.6366    2.1562   -0.0246 H   0  0  0  0  0  0  0  0  0  0  0  0
   -1.2832    3.2787   -0.2904 H   0  0  0  0  0  0  0  0  0  0  0  0
   -1.4163    2.3443    1.2531 H   0  0  0  0  0  0  0  0  0  0  0  0
    1.2443    1.8414   -0.8643 H   0  0  0  0  0  0  0  0  0  0  0  0
    0.7495    2.0037    0.8274 H   0  0  0  0  0  0  0  0  0  0  0  0
  1  2  1  0
  2  3  1  0
  3  4  1  0
  4  5  1  0
  4  6  1  0
  6  7  1  0
  7  8  1  0
  7  9  1  0
  9  2  1  0
  1 10  1  0
  1 11  1  0
  1 12  1  0
  2 13  1  0
  3 14  1  0
  3 15  1  0
  4 16  1  0
  5 17  1  0
  5 18  1  0
  5 19  1  0
  6 20  1  0
  6 21  1  0
  7 22  1  0
  8 23  1  0
  8 24  1  0
  8 25  1  0
  9 26  1  0
  9 27  1  0
M  END
