
     RDKit          3D

 23 24  0  0  0  0  0  0  0  0999 V2000
   -1.3187   -1.6169    0.5444 C   0  0  0  0  0  0  0  0  0  0  0  0
   -0.5030   -0.3912    0.8356 C   0  0  0  0  0  0  0  0  0  0  0  0
   -1.1188    0.9253    0.5190 C   0  0  0  0  0  0  0  0  0  0  0  0
   -1.0904    1.5243   -0.8340 C   0  0  0  0  0  0  0  0  0  0  0  0
    0.2149    1.2862   -0.2062 C   0  0  0  0  0  0  0  0  0  0  0  0
    0.9590    2.2582    0.4092 O   0  0  0  0  0  0  0  0  0  0  0  0
    0.6583   -0.1485   -0.1047 C   0  0  0  0  0  0  0  0  0  0  0  0
    1.9997   -0.3424    0.5830 C   0  0  0  0  0  0  0  0  0  0  0  0
    0.4987   -0.8614   -1.4119 C   0  0  0  0  0  0  0  0  0  0  0  0
   -0.6375   -2.4886    0.3715 H   0  0  0  0  0  0  0  0  0  0  0  0
   -2.0532   -1.4846   -0.2610 H   0  0  0  0  0  0  0  0  0  0  0  0
   -1.8936   -1.8803    1.4633 H   0  0  0  0  0  0  0  0  0  0  0  0
   -0.1522   -0.4019    1.9049 H   0  0  0  0  0  0  0  0  0  0  0  0
   -1.3926    1.6019    1.3720 H   0  0  0  0  0  0  0  0  0  0  0  0
   -1.3530    0.8103   -1.6672 H   0  0  0  0  0  0  0  0  0  0  0  0
   -1.5582    2.5061   -0.9392 H   0  0  0  0  0  0  0  0  0  0  0  0
    0.4353    3.0864    0.5666 H   0  0  0  0  0  0  0  0  0  0  0  0
    2.7999    0.2439    0.1025 H   0  0  0  0  0  0  0  0  0  0  0  0
    2.2600   -1.4167    0.4783 H   0  0  0  0  0  0  0  0  0  0  0  0
    1.8400   -0.0572    1.6472 H   0  0  0  0  0  0  0  0  0  0  0  0
    1.2678   -1.6620   -1.5723 H   0  0  0  0  0  0  0  0  0  0  0  0
    0.6139   -0.1415   -2.2512 H   0  0  0  0  0  0  0  0  0  0  0  0
   -0.4762   -1.3496   -1.5498 H   0  0  0  0  0  0  0  0  0  0  0  0
  1  2  1  0
  2  3  1  0
  3  4  1  0
  4  5  1  0
  5  6  1  0
  5  7  1  0
  7  8  1  0
  7  9  1  0
  7  2  1  0
  5  3  1  0
  1 10  1  0
  1 11  1  0
  1 12  1  0
  2 13  1  0
  3 14  1  0
  4 15  1  0
  4 16  1  0
  6 17  1  0
  8 18  1  0
  8 19  1  0
  8 20  1  0
  9 21  1  0
  9 22  1  0
  9 23  1  0
M  END
