
     RDKit          3D

 21 21  0  0  0  0  0  0  0  0999 V2000
    2.3390    0.5101    0.0776 C   0  0  0  0  0  0  0  0  0  0  0  0
    1.1426   -0.3180    0.3934 C   0  0  0  0  0  0  0  0  0  0  0  0
    0.3030   -0.6239   -0.8552 C   0  0  0  0  0  0  0  0  0  0  0  0
    0.5233   -1.8997   -1.3123 O   0  0  0  0  0  0  0  0  0  0  0  0
   -0.9062   -0.4310    0.0291 C   0  0  0  0  0  0  0  0  0  0  0  0
   -2.0487    0.3192   -0.5836 C   0  0  0  0  0  0  0  0  0  0  0  0
   -1.2036   -1.5903    0.7010 O   0  0  0  0  0  0  0  0  0  0  0  0
   -0.0439    0.5403    0.8484 C   0  0  0  0  0  0  0  0  0  0  0  0
    0.0315    1.7821    0.2536 O   0  0  0  0  0  0  0  0  0  0  0  0
    1.9978    1.3953   -0.5048 H   0  0  0  0  0  0  0  0  0  0  0  0
    2.7576    0.8919    1.0280 H   0  0  0  0  0  0  0  0  0  0  0  0
    3.0537   -0.1089   -0.4938 H   0  0  0  0  0  0  0  0  0  0  0  0
    1.2908   -1.2335    0.9735 H   0  0  0  0  0  0  0  0  0  0  0  0
    0.3619    0.1843   -1.6166 H   0  0  0  0  0  0  0  0  0  0  0  0
    0.1087   -2.5406   -0.7018 H   0  0  0  0  0  0  0  0  0  0  0  0
   -2.4820   -0.1622   -1.4646 H   0  0  0  0  0  0  0  0  0  0  0  0
   -1.6695    1.3451   -0.8566 H   0  0  0  0  0  0  0  0  0  0  0  0
   -2.7983    0.4953    0.2126 H   0  0  0  0  0  0  0  0  0  0  0  0
   -2.0121   -1.5359    1.2469 H   0  0  0  0  0  0  0  0  0  0  0  0
   -0.2705    0.4928    1.9109 H   0  0  0  0  0  0  0  0  0  0  0  0
   -0.4751    2.4876    0.7000 H   0  0  0  0  0  0  0  0  0  0  0  0
  1  2  1  0
  2  3  1  0
  3  4  1  0
  3  5  1  0
  5  6  1  0
  5  7  1  0
  5  8  1  0
  8  9  1  0
  8  2  1  0
  1 10  1  0
  1 11  1  0
  1 12  1  0
  2 13  1  0
  3 14  1  0
  4 15  1  0
  6 16  1  0
  6 17  1  0
  6 18  1  0
  7 19  1  0
  8 20  1  0
  9 21  1  0
M  END
