
     RDKit          3D

 21 22  0  0  0  0  0  0  0  0999 V2000
   -2.5591   -0.5413    0.0207 C   0  0  0  0  0  0  0  0  0  0  0  0
   -1.2650    0.0329    0.4967 C   0  0  0  0  0  0  0  0  0  0  0  0
   -0.9057    1.3388   -0.1721 C   0  0  0  0  0  0  0  0  0  0  0  0
    0.4544    1.4492    0.1893 O   0  0  0  0  0  0  0  0  0  0  0  0
    1.0137    0.2087    0.0433 C   0  0  0  0  0  0  0  0  0  0  0  0
    2.1175   -0.1616    0.9867 C   0  0  0  0  0  0  0  0  0  0  0  0
    2.9763   -0.4585   -0.0789 O   0  0  0  0  0  0  0  0  0  0  0  0
    2.0712    0.1198   -0.9937 C   0  0  0  0  0  0  0  0  0  0  0  0
   -0.0754   -0.8162    0.0203 C   0  0  0  0  0  0  0  0  0  0  0  0
   -2.4668   -0.9837   -0.9855 H   0  0  0  0  0  0  0  0  0  0  0  0
   -3.3566    0.2084    0.0972 H   0  0  0  0  0  0  0  0  0  0  0  0
   -2.8325   -1.3714    0.7049 H   0  0  0  0  0  0  0  0  0  0  0  0
   -1.1990    0.1266    1.5869 H   0  0  0  0  0  0  0  0  0  0  0  0
   -1.4751    2.1936    0.1733 H   0  0  0  0  0  0  0  0  0  0  0  0
   -0.9189    1.1960   -1.2827 H   0  0  0  0  0  0  0  0  0  0  0  0
    2.4365    0.6688    1.6353 H   0  0  0  0  0  0  0  0  0  0  0  0
    1.9083   -1.0813    1.5592 H   0  0  0  0  0  0  0  0  0  0  0  0
    2.4706    1.1488   -1.2352 H   0  0  0  0  0  0  0  0  0  0  0  0
    1.8572   -0.4934   -1.8679 H   0  0  0  0  0  0  0  0  0  0  0  0
   -0.2886   -1.1587   -1.0159 H   0  0  0  0  0  0  0  0  0  0  0  0
    0.0370   -1.6254    0.7427 H   0  0  0  0  0  0  0  0  0  0  0  0
  1  2  1  0
  2  3  1  0
  3  4  1  0
  4  5  1  0
  5  6  1  0
  6  7  1  0
  7  8  1  0
  5  9  1  0
  9  2  1  0
  8  5  1  0
  1 10  1  0
  1 11  1  0
  1 12  1  0
  2 13  1  0
  3 14  1  0
  3 15  1  0
  6 16  1  0
  6 17  1  0
  8 18  1  0
  8 19  1  0
  9 20  1  0
  9 21  1  0
M  END
