
     RDKit          3D

 24 24  0  0  0  0  0  0  0  0999 V2000
    2.9947   -0.2929    0.3005 C   0  0  0  0  0  0  0  0  0  0  0  0
    1.5114   -0.3666    0.5290 C   0  0  0  0  0  0  0  0  0  0  0  0
    0.7384    0.8833    0.1492 C   0  0  0  0  0  0  0  0  0  0  0  0
   -0.1416    0.0776   -0.7540 C   0  0  0  0  0  0  0  0  0  0  0  0
   -1.5802   -0.0372   -0.3600 C   0  0  0  0  0  0  0  0  0  0  0  0
   -2.1881    1.3531   -0.3086 C   0  0  0  0  0  0  0  0  0  0  0  0
   -1.8027   -0.7376    0.9410 C   0  0  0  0  0  0  0  0  0  0  0  0
    0.7310   -1.1003   -0.5503 C   0  0  0  0  0  0  0  0  0  0  0  0
    3.2621    0.5313   -0.4020 H   0  0  0  0  0  0  0  0  0  0  0  0
    3.5302   -0.1340    1.2478 H   0  0  0  0  0  0  0  0  0  0  0  0
    3.3003   -1.2781   -0.1494 H   0  0  0  0  0  0  0  0  0  0  0  0
    1.3017   -0.7049    1.5589 H   0  0  0  0  0  0  0  0  0  0  0  0
    0.2354    1.3654    1.0160 H   0  0  0  0  0  0  0  0  0  0  0  0
    1.4196    1.5808   -0.3865 H   0  0  0  0  0  0  0  0  0  0  0  0
   -0.0777    0.4527   -1.8113 H   0  0  0  0  0  0  0  0  0  0  0  0
   -2.1100   -0.6044   -1.1474 H   0  0  0  0  0  0  0  0  0  0  0  0
   -2.6876    1.5650    0.6492 H   0  0  0  0  0  0  0  0  0  0  0  0
   -1.4162    2.1264   -0.5733 H   0  0  0  0  0  0  0  0  0  0  0  0
   -2.9776    1.4760   -1.1008 H   0  0  0  0  0  0  0  0  0  0  0  0
   -1.3248   -1.7185    0.9622 H   0  0  0  0  0  0  0  0  0  0  0  0
   -2.9121   -0.9331    1.0162 H   0  0  0  0  0  0  0  0  0  0  0  0
   -1.5213   -0.1639    1.8287 H   0  0  0  0  0  0  0  0  0  0  0  0
    1.4343   -1.2950   -1.4128 H   0  0  0  0  0  0  0  0  0  0  0  0
    0.2807   -2.0451   -0.2535 H   0  0  0  0  0  0  0  0  0  0  0  0
  1  2  1  0
  2  3  1  0
  3  4  1  0
  4  5  1  0
  5  6  1  0
  5  7  1  0
  4  8  1  0
  8  2  1  0
  1  9  1  0
  1 10  1  0
  1 11  1  0
  2 12  1  0
  3 13  1  0
  3 14  1  0
  4 15  1  0
  5 16  1  0
  6 17  1  0
  6 18  1  0
  6 19  1  0
  7 20  1  0
  7 21  1  0
  7 22  1  0
  8 23  1  0
  8 24  1  0
M  END
