
     RDKit          3D

 23 24  0  0  0  0  0  0  0  0999 V2000
    2.7971    0.4338    0.2845 C   0  0  0  0  0  0  0  0  0  0  0  0
    1.4014    0.0871    0.7227 C   0  0  0  0  0  0  0  0  0  0  0  0
    0.9434   -1.3767    0.5798 C   0  0  0  0  0  0  0  0  0  0  0  0
    0.3667   -0.2792   -0.1837 C   0  0  0  0  0  0  0  0  0  0  0  0
    0.3845   -0.3535   -1.5390 O   0  0  0  0  0  0  0  0  0  0  0  0
   -0.9895   -0.6932   -1.4671 C   0  0  0  0  0  0  0  0  0  0  0  0
   -1.0379    0.1470   -0.1983 C   0  0  0  0  0  0  0  0  0  0  0  0
   -1.9573   -0.3420    0.8652 C   0  0  0  0  0  0  0  0  0  0  0  0
   -1.2622    1.5922   -0.5658 C   0  0  0  0  0  0  0  0  0  0  0  0
    3.1136   -0.1147   -0.6047 H   0  0  0  0  0  0  0  0  0  0  0  0
    2.8144    1.5523    0.1417 H   0  0  0  0  0  0  0  0  0  0  0  0
    3.4990    0.2203    1.1355 H   0  0  0  0  0  0  0  0  0  0  0  0
    1.1290    0.5298    1.7089 H   0  0  0  0  0  0  0  0  0  0  0  0
    0.4289   -1.8426    1.4161 H   0  0  0  0  0  0  0  0  0  0  0  0
    1.6973   -2.0202    0.0440 H   0  0  0  0  0  0  0  0  0  0  0  0
   -1.5912   -0.3003   -2.3083 H   0  0  0  0  0  0  0  0  0  0  0  0
   -1.0958   -1.7865   -1.2782 H   0  0  0  0  0  0  0  0  0  0  0  0
   -2.0783    0.4410    1.6209 H   0  0  0  0  0  0  0  0  0  0  0  0
   -2.9678   -0.4955    0.4077 H   0  0  0  0  0  0  0  0  0  0  0  0
   -1.6335   -1.2936    1.3121 H   0  0  0  0  0  0  0  0  0  0  0  0
   -2.3152    1.8659   -0.3641 H   0  0  0  0  0  0  0  0  0  0  0  0
   -0.5302    2.2534   -0.0630 H   0  0  0  0  0  0  0  0  0  0  0  0
   -1.1165    1.7753   -1.6669 H   0  0  0  0  0  0  0  0  0  0  0  0
  1  2  1  0
  2  3  1  0
  3  4  1  0
  4  5  1  0
  5  6  1  0
  6  7  1  0
  7  8  1  0
  7  9  1  0
  4  2  1  0
  7  4  1  0
  1 10  1  0
  1 11  1  0
  1 12  1  0
  2 13  1  0
  3 14  1  0
  3 15  1  0
  6 16  1  0
  6 17  1  0
  8 18  1  0
  8 19  1  0
  8 20  1  0
  9 21  1  0
  9 22  1  0
  9 23  1  0
M  END
