
     RDKit          3D

 23 24  0  0  0  0  0  0  0  0999 V2000
   -2.8635   -0.0450    0.3112 C   0  0  0  0  0  0  0  0  0  0  0  0
   -1.6011   -0.3532   -0.4274 C   0  0  0  0  0  0  0  0  0  0  0  0
   -1.0617    0.8651   -1.1833 C   0  0  0  0  0  0  0  0  0  0  0  0
    0.2668    0.4981   -1.3502 O   0  0  0  0  0  0  0  0  0  0  0  0
    0.7079   -0.0351   -0.1642 C   0  0  0  0  0  0  0  0  0  0  0  0
    1.8224   -1.0199   -0.3535 C   0  0  0  0  0  0  0  0  0  0  0  0
    2.8070   -0.0089    0.2083 C   0  0  0  0  0  0  0  0  0  0  0  0
    1.6201    0.8127    0.6689 C   0  0  0  0  0  0  0  0  0  0  0  0
   -0.4836   -0.5162    0.6123 C   0  0  0  0  0  0  0  0  0  0  0  0
   -2.9699   -0.7203    1.1942 H   0  0  0  0  0  0  0  0  0  0  0  0
   -3.7648   -0.1867   -0.3034 H   0  0  0  0  0  0  0  0  0  0  0  0
   -2.7652    0.9941    0.7145 H   0  0  0  0  0  0  0  0  0  0  0  0
   -1.6368   -1.2494   -1.0536 H   0  0  0  0  0  0  0  0  0  0  0  0
   -1.1014    1.7148   -0.4808 H   0  0  0  0  0  0  0  0  0  0  0  0
   -1.5655    1.0335   -2.1289 H   0  0  0  0  0  0  0  0  0  0  0  0
    2.0256   -1.2284   -1.4301 H   0  0  0  0  0  0  0  0  0  0  0  0
    1.7869   -1.9413    0.2364 H   0  0  0  0  0  0  0  0  0  0  0  0
    3.4418   -0.3812    1.0336 H   0  0  0  0  0  0  0  0  0  0  0  0
    3.3948    0.5408   -0.5693 H   0  0  0  0  0  0  0  0  0  0  0  0
    1.4651    0.6892    1.7530 H   0  0  0  0  0  0  0  0  0  0  0  0
    1.6111    1.8669    0.3016 H   0  0  0  0  0  0  0  0  0  0  0  0
   -0.7288    0.2108    1.4308 H   0  0  0  0  0  0  0  0  0  0  0  0
   -0.4071   -1.5404    0.9800 H   0  0  0  0  0  0  0  0  0  0  0  0
  1  2  1  0
  2  3  1  0
  3  4  1  0
  4  5  1  0
  5  6  1  0
  6  7  1  0
  7  8  1  0
  5  9  1  0
  9  2  1  0
  8  5  1  0
  1 10  1  0
  1 11  1  0
  1 12  1  0
  2 13  1  0
  3 14  1  0
  3 15  1  0
  6 16  1  0
  6 17  1  0
  7 18  1  0
  7 19  1  0
  8 20  1  0
  8 21  1  0
  9 22  1  0
  9 23  1  0
M  END
