
     RDKit          3D

 21 23  0  0  0  0  0  0  0  0999 V2000
    2.3050    0.2667    0.0950 C   0  0  0  0  0  0  0  0  0  0  0  0
    1.0482    0.0127   -0.7450 C   0  0  0  0  0  0  0  0  0  0  0  0
    0.3519   -1.2336   -0.2039 C   0  0  0  0  0  0  0  0  0  0  0  0
   -0.9972   -1.5418   -0.7668 C   0  0  0  0  0  0  0  0  0  0  0  0
   -0.8093   -0.3964    0.1719 C   0  0  0  0  0  0  0  0  0  0  0  0
   -1.4461   -0.4527    1.5161 C   0  0  0  0  0  0  0  0  0  0  0  0
   -0.1264    0.8044   -0.3399 C   0  0  0  0  0  0  0  0  0  0  0  0
   -0.7074    1.9319   -0.8376 C   0  0  0  0  0  0  0  0  0  0  0  0
    0.0747    1.9392    0.3917 O   0  0  0  0  0  0  0  0  0  0  0  0
    3.0744   -0.4714   -0.1871 H   0  0  0  0  0  0  0  0  0  0  0  0
    2.0439    0.1178    1.1672 H   0  0  0  0  0  0  0  0  0  0  0  0
    2.6768    1.2874   -0.0404 H   0  0  0  0  0  0  0  0  0  0  0  0
    1.3043   -0.0685   -1.8042 H   0  0  0  0  0  0  0  0  0  0  0  0
    0.8720   -1.8942    0.4814 H   0  0  0  0  0  0  0  0  0  0  0  0
   -1.4392   -2.4934   -0.4080 H   0  0  0  0  0  0  0  0  0  0  0  0
   -1.1968   -1.2339   -1.8234 H   0  0  0  0  0  0  0  0  0  0  0  0
   -2.4415    0.0721    1.4453 H   0  0  0  0  0  0  0  0  0  0  0  0
   -0.8863    0.0586    2.3098 H   0  0  0  0  0  0  0  0  0  0  0  0
   -1.6599   -1.4685    1.8398 H   0  0  0  0  0  0  0  0  0  0  0  0
   -0.2803    2.5587   -1.6482 H   0  0  0  0  0  0  0  0  0  0  0  0
   -1.7606    2.2049   -0.6136 H   0  0  0  0  0  0  0  0  0  0  0  0
  1  2  1  0
  2  3  1  0
  3  4  1  0
  4  5  1  0
  5  6  1  0
  5  7  1  0
  7  8  1  0
  8  9  1  0
  7  2  1  0
  5  3  1  0
  9  7  1  0
  1 10  1  0
  1 11  1  0
  1 12  1  0
  2 13  1  0
  3 14  1  0
  4 15  1  0
  4 16  1  0
  6 17  1  0
  6 18  1  0
  6 19  1  0
  8 20  1  0
  8 21  1  0
M  END
