
     RDKit          3D

 21 23  0  0  0  0  0  0  0  0999 V2000
    2.3790   -0.6535    0.1632 C   0  0  0  0  0  0  0  0  0  0  0  0
    1.1680   -0.3777   -0.7424 C   0  0  0  0  0  0  0  0  0  0  0  0
    0.5990    0.9228   -0.3244 C   0  0  0  0  0  0  0  0  0  0  0  0
   -0.8928    1.0354   -0.4425 C   0  0  0  0  0  0  0  0  0  0  0  0
   -1.6576    0.9555    0.8869 C   0  0  0  0  0  0  0  0  0  0  0  0
   -1.8323   -0.5419    0.5720 C   0  0  0  0  0  0  0  0  0  0  0  0
   -0.6999   -1.3694    0.2037 C   0  0  0  0  0  0  0  0  0  0  0  0
    0.2996   -1.4678   -0.7238 O   0  0  0  0  0  0  0  0  0  0  0  0
   -1.4035   -0.3455   -0.6750 C   0  0  0  0  0  0  0  0  0  0  0  0
    2.1657   -0.2643    1.2010 H   0  0  0  0  0  0  0  0  0  0  0  0
    2.5620   -1.7453    0.2140 H   0  0  0  0  0  0  0  0  0  0  0  0
    3.2793   -0.1205   -0.2012 H   0  0  0  0  0  0  0  0  0  0  0  0
    1.6064   -0.3605   -1.7836 H   0  0  0  0  0  0  0  0  0  0  0  0
    0.8838    1.2387    0.7150 H   0  0  0  0  0  0  0  0  0  0  0  0
    1.0304    1.7181   -0.9922 H   0  0  0  0  0  0  0  0  0  0  0  0
   -1.2849    1.7355   -1.1768 H   0  0  0  0  0  0  0  0  0  0  0  0
   -2.5866    1.5166    0.9195 H   0  0  0  0  0  0  0  0  0  0  0  0
   -0.9548    1.0486    1.7263 H   0  0  0  0  0  0  0  0  0  0  0  0
   -2.7325   -1.0523    0.9129 H   0  0  0  0  0  0  0  0  0  0  0  0
   -0.0837   -1.1664    1.1248 H   0  0  0  0  0  0  0  0  0  0  0  0
   -1.8447   -0.7061   -1.5774 H   0  0  0  0  0  0  0  0  0  0  0  0
  1  2  1  0
  2  3  1  0
  3  4  1  0
  4  5  1  0
  5  6  1  0
  6  7  1  0
  7  8  1  0
  7  9  1  0
  8  2  1  0
  9  4  1  0
  9  6  1  0
  1 10  1  0
  1 11  1  0
  1 12  1  0
  2 13  1  0
  3 14  1  0
  3 15  1  0
  4 16  1  0
  5 17  1  0
  5 18  1  0
  6 19  1  0
  7 20  1  0
  9 21  1  0
M  END
