
     RDKit          3D

 19 20  0  0  0  0  0  0  0  0999 V2000
   -2.5563   -0.7584   -0.1348 C   0  0  0  0  0  0  0  0  0  0  0  0
   -1.2526   -0.2911    0.4822 C   0  0  0  0  0  0  0  0  0  0  0  0
   -1.0482    1.1221   -0.0022 C   0  0  0  0  0  0  0  0  0  0  0  0
    0.2021    1.5637    0.0429 C   0  0  0  0  0  0  0  0  0  0  0  0
    1.2360    0.6373    0.5547 C   0  0  0  0  0  0  0  0  0  0  0  0
    1.9846   -0.1046   -0.5034 C   0  0  0  0  0  0  0  0  0  0  0  0
    3.3473   -0.2258   -0.2778 O   0  0  0  0  0  0  0  0  0  0  0  0
    0.9984   -0.7913    0.3631 C   0  0  0  0  0  0  0  0  0  0  0  0
   -0.2437   -1.0797   -0.1237 O   0  0  0  0  0  0  0  0  0  0  0  0
   -3.3868   -0.4195    0.4852 H   0  0  0  0  0  0  0  0  0  0  0  0
   -2.5390   -1.8828   -0.1993 H   0  0  0  0  0  0  0  0  0  0  0  0
   -2.5966   -0.3609   -1.1854 H   0  0  0  0  0  0  0  0  0  0  0  0
   -1.2280   -0.3687    1.5689 H   0  0  0  0  0  0  0  0  0  0  0  0
   -1.8537    1.7446   -0.3639 H   0  0  0  0  0  0  0  0  0  0  0  0
    0.4739    2.5712   -0.2821 H   0  0  0  0  0  0  0  0  0  0  0  0
    1.7635    0.9927    1.4675 H   0  0  0  0  0  0  0  0  0  0  0  0
    1.6955    0.0351   -1.5660 H   0  0  0  0  0  0  0  0  0  0  0  0
    3.5601   -0.8581    0.4685 H   0  0  0  0  0  0  0  0  0  0  0  0
    1.4435   -1.5257    1.0732 H   0  0  0  0  0  0  0  0  0  0  0  0
  1  2  1  0
  2  3  1  0
  3  4  2  0
  4  5  1  0
  5  6  1  0
  6  7  1  0
  6  8  1  0
  8  9  1  0
  9  2  1  0
  8  5  1  0
  1 10  1  0
  1 11  1  0
  1 12  1  0
  2 13  1  0
  3 14  1  0
  4 15  1  0
  5 16  1  0
  6 17  1  0
  7 18  1  0
  8 19  1  0
M  END
