
     RDKit          3D

 21 21  0  0  0  0  0  0  0  0999 V2000
   -1.8181   -1.4656    0.3632 C   0  0  0  0  0  0  0  0  0  0  0  0
   -0.6342   -0.4891    0.3518 C   0  0  0  0  0  0  0  0  0  0  0  0
   -1.1826    0.8274   -0.1470 C   0  0  0  0  0  0  0  0  0  0  0  0
   -0.2541    1.9423    0.0013 C   0  0  0  0  0  0  0  0  0  0  0  0
    1.0540    1.9439    0.1533 C   0  0  0  0  0  0  0  0  0  0  0  0
    1.9217    0.7818    0.2118 C   0  0  0  0  0  0  0  0  0  0  0  0
    3.0090    1.0239    0.8339 O   0  0  0  0  0  0  0  0  0  0  0  0
    1.7952   -0.5877   -0.2942 C   0  0  0  0  0  0  0  0  0  0  0  0
    0.4111   -1.0693   -0.5267 C   0  0  0  0  0  0  0  0  0  0  0  0
   -1.7728   -2.1318    1.2488 H   0  0  0  0  0  0  0  0  0  0  0  0
   -1.8043   -2.0478   -0.5987 H   0  0  0  0  0  0  0  0  0  0  0  0
   -2.7881   -0.9116    0.3573 H   0  0  0  0  0  0  0  0  0  0  0  0
   -0.2542   -0.3985    1.3666 H   0  0  0  0  0  0  0  0  0  0  0  0
   -2.0814    1.0535    0.4919 H   0  0  0  0  0  0  0  0  0  0  0  0
   -1.5696    0.7075   -1.1786 H   0  0  0  0  0  0  0  0  0  0  0  0
   -0.7663    2.9169   -0.0227 H   0  0  0  0  0  0  0  0  0  0  0  0
    1.5009    2.9313    0.2411 H   0  0  0  0  0  0  0  0  0  0  0  0
    2.3816   -1.2547    0.4036 H   0  0  0  0  0  0  0  0  0  0  0  0
    2.3273   -0.6107   -1.2916 H   0  0  0  0  0  0  0  0  0  0  0  0
    0.4118   -2.1865   -0.3531 H   0  0  0  0  0  0  0  0  0  0  0  0
    0.1130   -0.9754   -1.6121 H   0  0  0  0  0  0  0  0  0  0  0  0
  1  2  1  0
  2  3  1  0
  3  4  1  0
  4  5  2  0
  5  6  1  0
  6  7  2  0
  6  8  1  0
  8  9  1  0
  9  2  1  0
  1 10  1  0
  1 11  1  0
  1 12  1  0
  2 13  1  0
  3 14  1  0
  3 15  1  0
  4 16  1  0
  5 17  1  0
  8 18  1  0
  8 19  1  0
  9 20  1  0
  9 21  1  0
M  END
