
     RDKit          3D

 19 20  0  0  0  0  0  0  0  0999 V2000
    1.9739    0.9996    0.5247 C   0  0  0  0  0  0  0  0  0  0  0  0
    1.3044    0.0532   -0.4441 C   0  0  0  0  0  0  0  0  0  0  0  0
    0.4559   -0.9399    0.0628 C   0  0  0  0  0  0  0  0  0  0  0  0
   -0.8767   -0.9614    0.7425 C   0  0  0  0  0  0  0  0  0  0  0  0
   -1.7416   -1.0190   -0.5354 C   0  0  0  0  0  0  0  0  0  0  0  0
   -0.9028   -0.5228   -1.5696 O   0  0  0  0  0  0  0  0  0  0  0  0
   -0.0419    0.2560   -0.8554 C   0  0  0  0  0  0  0  0  0  0  0  0
   -0.7422    1.3772   -0.1610 C   0  0  0  0  0  0  0  0  0  0  0  0
   -0.1844    2.2100    0.5367 O   0  0  0  0  0  0  0  0  0  0  0  0
    3.0403    0.6462    0.6769 H   0  0  0  0  0  0  0  0  0  0  0  0
    2.0787    1.9787    0.0398 H   0  0  0  0  0  0  0  0  0  0  0  0
    1.5392    0.9991    1.5266 H   0  0  0  0  0  0  0  0  0  0  0  0
    2.0166   -0.1814   -1.2932 H   0  0  0  0  0  0  0  0  0  0  0  0
    0.5462   -1.9433   -0.4667 H   0  0  0  0  0  0  0  0  0  0  0  0
   -1.0131   -1.8855    1.3257 H   0  0  0  0  0  0  0  0  0  0  0  0
   -1.1080   -0.0597    1.3264 H   0  0  0  0  0  0  0  0  0  0  0  0
   -1.8766   -2.0842   -0.7584 H   0  0  0  0  0  0  0  0  0  0  0  0
   -2.6533   -0.4355   -0.4346 H   0  0  0  0  0  0  0  0  0  0  0  0
   -1.8147    1.5127   -0.2438 H   0  0  0  0  0  0  0  0  0  0  0  0
  1  2  1  0
  2  3  1  0
  3  4  1  0
  4  5  1  0
  5  6  1  0
  6  7  1  0
  7  8  1  0
  8  9  2  0
  7  2  1  0
  7  3  1  0
  1 10  1  0
  1 11  1  0
  1 12  1  0
  2 13  1  0
  3 14  1  0
  4 15  1  0
  4 16  1  0
  5 17  1  0
  5 18  1  0
  8 19  1  0
M  END
