
     RDKit          3D

 21 22  0  0  0  0  0  0  0  0999 V2000
    2.3009   -0.1766    0.3064 C   0  0  0  0  0  0  0  0  0  0  0  0
    0.9253   -0.5481   -0.1593 C   0  0  0  0  0  0  0  0  0  0  0  0
    0.0339   -1.0842    0.9406 C   0  0  0  0  0  0  0  0  0  0  0  0
   -0.7393    0.1950    0.8849 C   0  0  0  0  0  0  0  0  0  0  0  0
   -1.4473    0.4811   -0.4452 C   0  0  0  0  0  0  0  0  0  0  0  0
   -2.1153   -0.7403   -0.9798 C   0  0  0  0  0  0  0  0  0  0  0  0
    0.0085    0.6159   -0.2980 C   0  0  0  0  0  0  0  0  0  0  0  0
    0.5860    1.9626   -0.2996 C   0  0  0  0  0  0  0  0  0  0  0  0
    0.2692    2.7607   -1.1540 O   0  0  0  0  0  0  0  0  0  0  0  0
    2.5758    0.7989   -0.1383 H   0  0  0  0  0  0  0  0  0  0  0  0
    2.3826   -0.1328    1.4259 H   0  0  0  0  0  0  0  0  0  0  0  0
    3.0526   -0.9077   -0.1016 H   0  0  0  0  0  0  0  0  0  0  0  0
    0.9431   -1.2741   -0.9973 H   0  0  0  0  0  0  0  0  0  0  0  0
   -0.6213   -1.9348    0.6408 H   0  0  0  0  0  0  0  0  0  0  0  0
    0.5077   -1.2191    1.9136 H   0  0  0  0  0  0  0  0  0  0  0  0
   -0.9563    0.7954    1.7536 H   0  0  0  0  0  0  0  0  0  0  0  0
   -2.0253    1.4057   -0.5226 H   0  0  0  0  0  0  0  0  0  0  0  0
   -2.6676   -1.2267   -0.1227 H   0  0  0  0  0  0  0  0  0  0  0  0
   -2.8933   -0.5332   -1.7473 H   0  0  0  0  0  0  0  0  0  0  0  0
   -1.4209   -1.5167   -1.3504 H   0  0  0  0  0  0  0  0  0  0  0  0
    1.3011    2.2791    0.4501 H   0  0  0  0  0  0  0  0  0  0  0  0
  1  2  1  0
  2  3  1  0
  3  4  1  0
  4  5  1  0
  5  6  1  0
  5  7  1  0
  7  8  1  0
  8  9  2  0
  7  2  1  0
  7  4  1  0
  1 10  1  0
  1 11  1  0
  1 12  1  0
  2 13  1  0
  3 14  1  0
  3 15  1  0
  4 16  1  0
  5 17  1  0
  6 18  1  0
  6 19  1  0
  6 20  1  0
  8 21  1  0
M  END
