
     RDKit          3D

 21 22  0  0  0  0  0  0  0  0999 V2000
    2.2426    0.6467    0.1591 C   0  0  0  0  0  0  0  0  0  0  0  0
    0.8887    0.4575   -0.4257 C   0  0  0  0  0  0  0  0  0  0  0  0
    0.6816   -0.8621   -1.1064 C   0  0  0  0  0  0  0  0  0  0  0  0
   -0.8255   -1.0563   -0.8571 C   0  0  0  0  0  0  0  0  0  0  0  0
   -0.7672   -0.9217    0.6736 C   0  0  0  0  0  0  0  0  0  0  0  0
   -0.1139    0.4625    0.7347 C   0  0  0  0  0  0  0  0  0  0  0  0
   -1.0801    1.3796    0.4272 O   0  0  0  0  0  0  0  0  0  0  0  0
   -2.0288    0.8778   -0.4349 C   0  0  0  0  0  0  0  0  0  0  0  0
   -1.5509   -0.0091   -1.3670 O   0  0  0  0  0  0  0  0  0  0  0  0
    2.5774   -0.2121    0.7845 H   0  0  0  0  0  0  0  0  0  0  0  0
    3.0051    0.9448   -0.5770 H   0  0  0  0  0  0  0  0  0  0  0  0
    2.1737    1.5110    0.8827 H   0  0  0  0  0  0  0  0  0  0  0  0
    0.6942    1.2833   -1.1334 H   0  0  0  0  0  0  0  0  0  0  0  0
    0.9333   -0.8872   -2.1598 H   0  0  0  0  0  0  0  0  0  0  0  0
    1.1672   -1.6798   -0.5187 H   0  0  0  0  0  0  0  0  0  0  0  0
   -1.1601   -2.0453   -1.1701 H   0  0  0  0  0  0  0  0  0  0  0  0
   -1.7519   -0.9444    1.1288 H   0  0  0  0  0  0  0  0  0  0  0  0
   -0.0793   -1.7044    1.0639 H   0  0  0  0  0  0  0  0  0  0  0  0
    0.3644    0.5667    1.6997 H   0  0  0  0  0  0  0  0  0  0  0  0
   -2.8804    0.4632    0.1765 H   0  0  0  0  0  0  0  0  0  0  0  0
   -2.4901    1.7290   -1.0001 H   0  0  0  0  0  0  0  0  0  0  0  0
  1  2  1  0
  2  3  1  0
  3  4  1  0
  4  5  1  0
  5  6  1  0
  6  7  1  0
  7  8  1  0
  8  9  1  0
  6  2  1  0
  9  4  1  0
  1 10  1  0
  1 11  1  0
  1 12  1  0
  2 13  1  0
  3 14  1  0
  3 15  1  0
  4 16  1  0
  5 17  1  0
  5 18  1  0
  6 19  1  0
  8 20  1  0
  8 21  1  0
M  END
