
     RDKit          3D

 21 21  0  0  0  0  0  0  0  0999 V2000
   -1.4071   -1.1593   -0.8041 C   0  0  0  0  0  0  0  0  0  0  0  0
   -1.0455   -0.0448    0.0999 C   0  0  0  0  0  0  0  0  0  0  0  0
   -0.9181    1.3233   -0.5099 C   0  0  0  0  0  0  0  0  0  0  0  0
    0.3127    1.5456    0.3588 C   0  0  0  0  0  0  0  0  0  0  0  0
    0.3572    0.0444    0.5897 C   0  0  0  0  0  0  0  0  0  0  0  0
    0.5225   -0.3420    2.0074 C   0  0  0  0  0  0  0  0  0  0  0  0
   -0.1740   -1.2261    2.4636 O   0  0  0  0  0  0  0  0  0  0  0  0
    1.4199   -0.5973   -0.2576 C   0  0  0  0  0  0  0  0  0  0  0  0
    1.4953   -0.0663   -1.5363 O   0  0  0  0  0  0  0  0  0  0  0  0
   -2.5264   -1.3061   -0.7512 H   0  0  0  0  0  0  0  0  0  0  0  0
   -1.2229   -0.9411   -1.8954 H   0  0  0  0  0  0  0  0  0  0  0  0
   -0.9731   -2.1330   -0.5038 H   0  0  0  0  0  0  0  0  0  0  0  0
   -1.7539    0.0018    0.9764 H   0  0  0  0  0  0  0  0  0  0  0  0
   -0.7110    1.3544   -1.5972 H   0  0  0  0  0  0  0  0  0  0  0  0
   -1.7537    1.9980   -0.2679 H   0  0  0  0  0  0  0  0  0  0  0  0
    0.1088    2.1452    1.2649 H   0  0  0  0  0  0  0  0  0  0  0  0
    1.1442    1.9592   -0.2301 H   0  0  0  0  0  0  0  0  0  0  0  0
    1.2432    0.1367    2.6515 H   0  0  0  0  0  0  0  0  0  0  0  0
    2.4040   -0.3544    0.2392 H   0  0  0  0  0  0  0  0  0  0  0  0
    1.3381   -1.7031   -0.2600 H   0  0  0  0  0  0  0  0  0  0  0  0
    2.1398   -0.6350   -2.0380 H   0  0  0  0  0  0  0  0  0  0  0  0
  1  2  1  0
  2  3  1  0
  3  4  1  0
  4  5  1  0
  5  6  1  0
  6  7  2  0
  5  8  1  0
  8  9  1  0
  5  2  1  0
  1 10  1  0
  1 11  1  0
  1 12  1  0
  2 13  1  0
  3 14  1  0
  3 15  1  0
  4 16  1  0
  4 17  1  0
  6 18  1  0
  8 19  1  0
  8 20  1  0
  9 21  1  0
M  END
