
     RDKit          3D

 23 24  0  0  0  0  0  0  0  0999 V2000
    0.5804    2.0503    0.0429 C   0  0  0  0  0  0  0  0  0  0  0  0
    0.7116    0.6220   -0.3831 C   0  0  0  0  0  0  0  0  0  0  0  0
    1.7791   -0.1214    0.3759 C   0  0  0  0  0  0  0  0  0  0  0  0
    2.4443   -1.1814   -0.2734 O   0  0  0  0  0  0  0  0  0  0  0  0
    1.3377   -1.4815    0.4923 C   0  0  0  0  0  0  0  0  0  0  0  0
    0.0453   -1.6234   -0.2549 C   0  0  0  0  0  0  0  0  0  0  0  0
   -0.5168   -0.1983   -0.1582 C   0  0  0  0  0  0  0  0  0  0  0  0
   -1.1644    0.0064    1.1669 C   0  0  0  0  0  0  0  0  0  0  0  0
   -1.5391   -0.0648   -1.2514 C   0  0  0  0  0  0  0  0  0  0  0  0
    1.0206    2.7067   -0.7278 H   0  0  0  0  0  0  0  0  0  0  0  0
    1.0735    2.2541    1.0214 H   0  0  0  0  0  0  0  0  0  0  0  0
   -0.4840    2.3068    0.1253 H   0  0  0  0  0  0  0  0  0  0  0  0
    0.9759    0.5249   -1.4717 H   0  0  0  0  0  0  0  0  0  0  0  0
    2.4327    0.4269    1.0705 H   0  0  0  0  0  0  0  0  0  0  0  0
    1.4220   -2.0035    1.4520 H   0  0  0  0  0  0  0  0  0  0  0  0
   -0.6667   -2.3260    0.1986 H   0  0  0  0  0  0  0  0  0  0  0  0
    0.2122   -1.8429   -1.3278 H   0  0  0  0  0  0  0  0  0  0  0  0
   -0.5673    0.5453    1.9031 H   0  0  0  0  0  0  0  0  0  0  0  0
   -1.4174   -1.0036    1.5823 H   0  0  0  0  0  0  0  0  0  0  0  0
   -2.1577    0.5070    1.0180 H   0  0  0  0  0  0  0  0  0  0  0  0
   -2.5393    0.2144   -0.8234 H   0  0  0  0  0  0  0  0  0  0  0  0
   -1.2577    0.7085   -1.9856 H   0  0  0  0  0  0  0  0  0  0  0  0
   -1.7250   -1.0264   -1.7919 H   0  0  0  0  0  0  0  0  0  0  0  0
  1  2  1  0
  2  3  1  0
  3  4  1  0
  4  5  1  0
  5  6  1  0
  6  7  1  0
  7  8  1  0
  7  9  1  0
  7  2  1  0
  5  3  1  0
  1 10  1  0
  1 11  1  0
  1 12  1  0
  2 13  1  0
  3 14  1  0
  5 15  1  0
  6 16  1  0
  6 17  1  0
  8 18  1  0
  8 19  1  0
  8 20  1  0
  9 21  1  0
  9 22  1  0
  9 23  1  0
M  END
