
     RDKit          3D

 21 22  0  0  0  0  0  0  0  0999 V2000
   -2.3376   -0.5983   -0.0062 C   0  0  0  0  0  0  0  0  0  0  0  0
   -0.9337   -0.2884   -0.5417 C   0  0  0  0  0  0  0  0  0  0  0  0
   -0.8413    1.2126   -0.4938 C   0  0  0  0  0  0  0  0  0  0  0  0
    0.1286    2.0427   -0.1461 C   0  0  0  0  0  0  0  0  0  0  0  0
    1.4605    1.6418    0.3155 C   0  0  0  0  0  0  0  0  0  0  0  0
    2.0625    0.4367    0.2613 C   0  0  0  0  0  0  0  0  0  0  0  0
    1.4320   -0.7415   -0.3082 C   0  0  0  0  0  0  0  0  0  0  0  0
    0.9445   -1.9277    0.3132 C   0  0  0  0  0  0  0  0  0  0  0  0
    0.0466   -0.8168    0.4240 C   0  0  0  0  0  0  0  0  0  0  0  0
   -2.3816   -0.0823    0.9956 H   0  0  0  0  0  0  0  0  0  0  0  0
   -2.5002   -1.6695    0.1327 H   0  0  0  0  0  0  0  0  0  0  0  0
   -3.0387   -0.1007   -0.6863 H   0  0  0  0  0  0  0  0  0  0  0  0
   -0.8340   -0.6669   -1.5679 H   0  0  0  0  0  0  0  0  0  0  0  0
   -1.7459    1.6975   -0.8052 H   0  0  0  0  0  0  0  0  0  0  0  0
   -0.0786    3.1129   -0.2074 H   0  0  0  0  0  0  0  0  0  0  0  0
    2.0355    2.4542    0.7676 H   0  0  0  0  0  0  0  0  0  0  0  0
    3.0597    0.3961    0.6735 H   0  0  0  0  0  0  0  0  0  0  0  0
    1.3874   -0.6910   -1.4333 H   0  0  0  0  0  0  0  0  0  0  0  0
    1.4468   -2.2908    1.2422 H   0  0  0  0  0  0  0  0  0  0  0  0
    0.7104   -2.8045   -0.3500 H   0  0  0  0  0  0  0  0  0  0  0  0
   -0.0229   -0.3162    1.4207 H   0  0  0  0  0  0  0  0  0  0  0  0
  1  2  1  0
  2  3  1  0
  3  4  2  0
  4  5  1  0
  5  6  2  0
  6  7  1  0
  7  8  1  0
  8  9  1  0
  9  2  1  0
  9  7  1  0
  1 10  1  0
  1 11  1  0
  1 12  1  0
  2 13  1  0
  3 14  1  0
  4 15  1  0
  5 16  1  0
  6 17  1  0
  7 18  1  0
  8 19  1  0
  8 20  1  0
  9 21  1  0
M  END
