
     RDKit          3D

 16 18  0  0  0  0  0  0  0  0999 V2000
    2.1280   -0.1200    0.1251 C   0  0  0  0  0  0  0  0  0  0  0  0
    0.7434    0.5302    0.2847 C   0  0  0  0  0  0  0  0  0  0  0  0
   -0.4466   -0.2079    0.5431 C   0  0  0  0  0  0  0  0  0  0  0  0
   -1.8456   -0.0696    0.0834 C   0  0  0  0  0  0  0  0  0  0  0  0
   -2.3995   -0.3585   -1.1621 O   0  0  0  0  0  0  0  0  0  0  0  0
   -1.1419   -0.7394   -1.1089 C   0  0  0  0  0  0  0  0  0  0  0  0
   -0.1117    0.3794   -0.8806 C   0  0  0  0  0  0  0  0  0  0  0  0
   -0.6435    1.6237   -1.2208 O   0  0  0  0  0  0  0  0  0  0  0  0
    2.9032    0.6430    0.0237 H   0  0  0  0  0  0  0  0  0  0  0  0
    2.2664   -0.7144    1.0627 H   0  0  0  0  0  0  0  0  0  0  0  0
    2.1321   -0.8552   -0.7006 H   0  0  0  0  0  0  0  0  0  0  0  0
    0.8566    1.4793    0.8838 H   0  0  0  0  0  0  0  0  0  0  0  0
   -0.1921   -1.3211    0.6214 H   0  0  0  0  0  0  0  0  0  0  0  0
   -2.5237   -0.6593    0.7755 H   0  0  0  0  0  0  0  0  0  0  0  0
   -0.7771   -1.7572   -0.8831 H   0  0  0  0  0  0  0  0  0  0  0  0
   -0.9479    2.1471   -0.4584 H   0  0  0  0  0  0  0  0  0  0  0  0
  1  2  1  0
  2  3  1  0
  3  4  1  0
  4  5  1  0
  5  6  1  0
  6  7  1  0
  7  8  1  0
  7  2  1  0
  7  3  1  0
  6  4  1  0
  1  9  1  0
  1 10  1  0
  1 11  1  0
  2 12  1  0
  3 13  1  0
  4 14  1  0
  6 15  1  0
  8 16  1  0
M  END
