
     RDKit          3D

 19 19  0  0  0  0  0  0  0  0999 V2000
   -2.2906    0.7095   -0.3206 C   0  0  0  0  0  0  0  0  0  0  0  0
   -1.2128   -0.0518    0.4293 C   0  0  0  0  0  0  0  0  0  0  0  0
   -0.8777   -1.4594   -0.0643 C   0  0  0  0  0  0  0  0  0  0  0  0
    0.0137   -0.3274   -0.4219 C   0  0  0  0  0  0  0  0  0  0  0  0
    1.3162   -0.1617    0.3195 C   0  0  0  0  0  0  0  0  0  0  0  0
    1.3766    1.2611    0.7991 C   0  0  0  0  0  0  0  0  0  0  0  0
    1.1477    1.5343    1.9592 O   0  0  0  0  0  0  0  0  0  0  0  0
    2.4726   -0.4268   -0.5521 C   0  0  0  0  0  0  0  0  0  0  0  0
    2.7316    0.3137   -1.4630 O   0  0  0  0  0  0  0  0  0  0  0  0
   -1.8219    1.6147   -0.7895 H   0  0  0  0  0  0  0  0  0  0  0  0
   -2.6099    0.0738   -1.1790 H   0  0  0  0  0  0  0  0  0  0  0  0
   -3.1054    0.9531    0.3675 H   0  0  0  0  0  0  0  0  0  0  0  0
   -1.1009    0.1062    1.5007 H   0  0  0  0  0  0  0  0  0  0  0  0
   -1.5760   -1.9100   -0.7658 H   0  0  0  0  0  0  0  0  0  0  0  0
   -0.4937   -2.1734    0.7105 H   0  0  0  0  0  0  0  0  0  0  0  0
    0.0461    0.0302   -1.4640 H   0  0  0  0  0  0  0  0  0  0  0  0
    1.2743   -0.8419    1.1922 H   0  0  0  0  0  0  0  0  0  0  0  0
    1.6274    2.0520    0.1014 H   0  0  0  0  0  0  0  0  0  0  0  0
    3.0828   -1.2963   -0.3590 H   0  0  0  0  0  0  0  0  0  0  0  0
  1  2  1  0
  2  3  1  0
  3  4  1  0
  4  5  1  0
  5  6  1  0
  6  7  2  0
  5  8  1  0
  8  9  2  0
  4  2  1  0
  1 10  1  0
  1 11  1  0
  1 12  1  0
  2 13  1  0
  3 14  1  0
  3 15  1  0
  4 16  1  0
  5 17  1  0
  6 18  1  0
  8 19  1  0
M  END
