
     RDKit          3D

 23 23  0  0  0  0  0  0  0  0999 V2000
   -0.6672    1.9961   -0.5106 C   0  0  0  0  0  0  0  0  0  0  0  0
   -0.1809    0.9268    0.4369 C   0  0  0  0  0  0  0  0  0  0  0  0
    1.2978    0.9737    0.5815 C   0  0  0  0  0  0  0  0  0  0  0  0
    2.0619    0.1192   -0.0727 C   0  0  0  0  0  0  0  0  0  0  0  0
    1.5231   -0.9279   -0.9798 C   0  0  0  0  0  0  0  0  0  0  0  0
    0.1607   -0.8211   -1.1784 O   0  0  0  0  0  0  0  0  0  0  0  0
   -0.5387   -0.4631   -0.0303 C   0  0  0  0  0  0  0  0  0  0  0  0
   -0.1693   -1.4122    1.1180 C   0  0  0  0  0  0  0  0  0  0  0  0
   -2.0013   -0.6284   -0.3021 C   0  0  0  0  0  0  0  0  0  0  0  0
   -1.6568    2.3778   -0.1975 H   0  0  0  0  0  0  0  0  0  0  0  0
    0.0427    2.8641   -0.4116 H   0  0  0  0  0  0  0  0  0  0  0  0
   -0.6197    1.6888   -1.5648 H   0  0  0  0  0  0  0  0  0  0  0  0
   -0.6789    1.0850    1.4086 H   0  0  0  0  0  0  0  0  0  0  0  0
    1.7817    1.7028    1.2209 H   0  0  0  0  0  0  0  0  0  0  0  0
    3.1387    0.1600    0.0381 H   0  0  0  0  0  0  0  0  0  0  0  0
    2.0021   -0.7367   -1.9829 H   0  0  0  0  0  0  0  0  0  0  0  0
    1.8018   -1.9459   -0.6537 H   0  0  0  0  0  0  0  0  0  0  0  0
    0.6548   -0.9552    1.7275 H   0  0  0  0  0  0  0  0  0  0  0  0
   -1.0490   -1.4711    1.7858 H   0  0  0  0  0  0  0  0  0  0  0  0
    0.1901   -2.3747    0.7540 H   0  0  0  0  0  0  0  0  0  0  0  0
   -2.6546   -0.2468    0.5019 H   0  0  0  0  0  0  0  0  0  0  0  0
   -2.2082   -1.7227   -0.3978 H   0  0  0  0  0  0  0  0  0  0  0  0
   -2.2307   -0.1885   -1.2909 H   0  0  0  0  0  0  0  0  0  0  0  0
  1  2  1  0
  2  3  1  0
  3  4  2  0
  4  5  1  0
  5  6  1  0
  6  7  1  0
  7  8  1  0
  7  9  1  0
  7  2  1  0
  1 10  1  0
  1 11  1  0
  1 12  1  0
  2 13  1  0
  3 14  1  0
  4 15  1  0
  5 16  1  0
  5 17  1  0
  8 18  1  0
  8 19  1  0
  8 20  1  0
  9 21  1  0
  9 22  1  0
  9 23  1  0
M  END
