
     RDKit          3D

 21 22  0  0  0  0  0  0  0  0999 V2000
    2.3401    0.0605   -0.0177 C   0  0  0  0  0  0  0  0  0  0  0  0
    0.9276    0.1802   -0.5000 C   0  0  0  0  0  0  0  0  0  0  0  0
    0.2322   -1.1679   -0.6168 C   0  0  0  0  0  0  0  0  0  0  0  0
   -1.2416   -0.9096   -0.3352 C   0  0  0  0  0  0  0  0  0  0  0  0
   -1.4059   -0.6725    1.1631 C   0  0  0  0  0  0  0  0  0  0  0  0
   -0.3328    0.1546    1.5350 O   0  0  0  0  0  0  0  0  0  0  0  0
    0.0560    0.9838    0.4758 C   0  0  0  0  0  0  0  0  0  0  0  0
   -1.1715    1.3877   -0.3530 C   0  0  0  0  0  0  0  0  0  0  0  0
   -1.6877    0.2567   -0.9611 O   0  0  0  0  0  0  0  0  0  0  0  0
    2.6769    0.9435    0.5527 H   0  0  0  0  0  0  0  0  0  0  0  0
    2.4425   -0.8932    0.5138 H   0  0  0  0  0  0  0  0  0  0  0  0
    2.9924    0.0259   -0.9335 H   0  0  0  0  0  0  0  0  0  0  0  0
    0.8898    0.6954   -1.4905 H   0  0  0  0  0  0  0  0  0  0  0  0
    0.6130   -1.7888    0.2072 H   0  0  0  0  0  0  0  0  0  0  0  0
    0.3369   -1.6043   -1.6145 H   0  0  0  0  0  0  0  0  0  0  0  0
   -1.8191   -1.7792   -0.6497 H   0  0  0  0  0  0  0  0  0  0  0  0
   -2.3694   -0.1440    1.3691 H   0  0  0  0  0  0  0  0  0  0  0  0
   -1.4233   -1.6170    1.7315 H   0  0  0  0  0  0  0  0  0  0  0  0
    0.5901    1.8688    0.8549 H   0  0  0  0  0  0  0  0  0  0  0  0
   -0.7545    2.0554   -1.1592 H   0  0  0  0  0  0  0  0  0  0  0  0
   -1.8917    1.9641    0.2280 H   0  0  0  0  0  0  0  0  0  0  0  0
  1  2  1  0
  2  3  1  0
  3  4  1  0
  4  5  1  0
  5  6  1  0
  6  7  1  0
  7  8  1  0
  8  9  1  0
  7  2  1  0
  9  4  1  0
  1 10  1  0
  1 11  1  0
  1 12  1  0
  2 13  1  0
  3 14  1  0
  3 15  1  0
  4 16  1  0
  5 17  1  0
  5 18  1  0
  7 19  1  0
  8 20  1  0
  8 21  1  0
M  END
