
     RDKit          3D

 21 23  0  0  0  0  0  0  0  0999 V2000
   -2.4325   -0.1942   -1.2313 C   0  0  0  0  0  0  0  0  0  0  0  0
   -1.8517   -0.3580    0.1841 C   0  0  0  0  0  0  0  0  0  0  0  0
   -1.0251    0.6556    0.7267 C   0  0  0  0  0  0  0  0  0  0  0  0
    0.2319    0.4957    1.5934 C   0  0  0  0  0  0  0  0  0  0  0  0
    0.7621    0.0574    0.2256 C   0  0  0  0  0  0  0  0  0  0  0  0
    2.0491   -0.5820    0.1489 C   0  0  0  0  0  0  0  0  0  0  0  0
    2.2506    0.4814   -0.9208 C   0  0  0  0  0  0  0  0  0  0  0  0
    0.9427    0.9809   -0.7174 O   0  0  0  0  0  0  0  0  0  0  0  0
   -0.4914   -0.7689    0.2642 C   0  0  0  0  0  0  0  0  0  0  0  0
   -3.2093   -0.9211   -1.4430 H   0  0  0  0  0  0  0  0  0  0  0  0
   -2.8886    0.8186   -1.2460 H   0  0  0  0  0  0  0  0  0  0  0  0
   -1.6093   -0.2169   -1.9806 H   0  0  0  0  0  0  0  0  0  0  0  0
   -2.6657   -0.7675    0.8600 H   0  0  0  0  0  0  0  0  0  0  0  0
   -0.7683    1.4882   -0.0057 H   0  0  0  0  0  0  0  0  0  0  0  0
    0.2119   -0.3713    2.2567 H   0  0  0  0  0  0  0  0  0  0  0  0
    0.6005    1.4420    1.9704 H   0  0  0  0  0  0  0  0  0  0  0  0
    2.1657   -1.5984   -0.2512 H   0  0  0  0  0  0  0  0  0  0  0  0
    2.7131   -0.4401    1.0479 H   0  0  0  0  0  0  0  0  0  0  0  0
    3.0317    1.1974   -0.6556 H   0  0  0  0  0  0  0  0  0  0  0  0
    2.3051    0.0964   -1.9542 H   0  0  0  0  0  0  0  0  0  0  0  0
   -0.3227   -1.4951    1.1277 H   0  0  0  0  0  0  0  0  0  0  0  0
  1  2  1  0
  2  3  1  0
  3  4  1  0
  4  5  1  0
  5  6  1  0
  6  7  1  0
  7  8  1  0
  5  9  1  0
  9  2  1  0
  9  3  1  0
  8  5  1  0
  1 10  1  0
  1 11  1  0
  1 12  1  0
  2 13  1  0
  3 14  1  0
  4 15  1  0
  4 16  1  0
  6 17  1  0
  6 18  1  0
  7 19  1  0
  7 20  1  0
  9 21  1  0
M  END
