
     RDKit          3D

 21 23  0  0  0  0  0  0  0  0999 V2000
    2.0133   -1.0948   -0.4182 C   0  0  0  0  0  0  0  0  0  0  0  0
    0.9558   -0.0694   -0.5608 C   0  0  0  0  0  0  0  0  0  0  0  0
    0.8883    0.9109    0.5866 C   0  0  0  0  0  0  0  0  0  0  0  0
   -0.3820    1.6808    0.2364 C   0  0  0  0  0  0  0  0  0  0  0  0
   -1.2773    0.6411   -0.3780 C   0  0  0  0  0  0  0  0  0  0  0  0
   -2.0123   -0.1201    0.6839 C   0  0  0  0  0  0  0  0  0  0  0  0
   -1.2548   -0.6261    1.7152 O   0  0  0  0  0  0  0  0  0  0  0  0
   -1.0262   -1.2565    0.5195 C   0  0  0  0  0  0  0  0  0  0  0  0
   -0.4353   -0.5775   -0.6515 C   0  0  0  0  0  0  0  0  0  0  0  0
    2.9468   -0.7001   -0.9130 H   0  0  0  0  0  0  0  0  0  0  0  0
    1.7779   -2.0568   -0.8862 H   0  0  0  0  0  0  0  0  0  0  0  0
    2.3104   -1.2244    0.6583 H   0  0  0  0  0  0  0  0  0  0  0  0
    1.1540    0.5408   -1.4875 H   0  0  0  0  0  0  0  0  0  0  0  0
    1.7241    1.6155    0.5312 H   0  0  0  0  0  0  0  0  0  0  0  0
    0.8320    0.4223    1.5593 H   0  0  0  0  0  0  0  0  0  0  0  0
   -0.8552    2.0856    1.1539 H   0  0  0  0  0  0  0  0  0  0  0  0
   -0.1363    2.5014   -0.4642 H   0  0  0  0  0  0  0  0  0  0  0  0
   -1.8962    0.9549   -1.2258 H   0  0  0  0  0  0  0  0  0  0  0  0
   -3.0852   -0.2976    0.6314 H   0  0  0  0  0  0  0  0  0  0  0  0
   -1.5530   -2.2371    0.3281 H   0  0  0  0  0  0  0  0  0  0  0  0
   -0.6888   -1.0929   -1.6186 H   0  0  0  0  0  0  0  0  0  0  0  0
  1  2  1  0
  2  3  1  0
  3  4  1  0
  4  5  1  0
  5  6  1  0
  6  7  1  0
  7  8  1  0
  8  9  1  0
  9  2  1  0
  9  5  1  0
  8  6  1  0
  1 10  1  0
  1 11  1  0
  1 12  1  0
  2 13  1  0
  3 14  1  0
  3 15  1  0
  4 16  1  0
  4 17  1  0
  5 18  1  0
  6 19  1  0
  8 20  1  0
  9 21  1  0
M  END
