
     RDKit          3D

 18 20  0  0  0  0  0  0  0  0999 V2000
    2.0077   -0.2113   -0.0909 C   0  0  0  0  0  0  0  0  0  0  0  0
    0.6864    0.2759   -0.6971 C   0  0  0  0  0  0  0  0  0  0  0  0
    0.0522    1.3445    0.1688 C   0  0  0  0  0  0  0  0  0  0  0  0
   -1.2290    0.7476    0.7156 C   0  0  0  0  0  0  0  0  0  0  0  0
   -2.2200    0.5282   -0.2460 O   0  0  0  0  0  0  0  0  0  0  0  0
   -1.7094   -0.7210   -0.5646 C   0  0  0  0  0  0  0  0  0  0  0  0
   -0.2556   -0.9289   -0.6052 C   0  0  0  0  0  0  0  0  0  0  0  0
   -0.9348   -0.7115    0.6686 C   0  0  0  0  0  0  0  0  0  0  0  0
    2.8499    0.4133   -0.4230 H   0  0  0  0  0  0  0  0  0  0  0  0
    1.9842   -0.1752    1.0100 H   0  0  0  0  0  0  0  0  0  0  0  0
    2.1409   -1.2953   -0.3562 H   0  0  0  0  0  0  0  0  0  0  0  0
    0.8108    0.6361   -1.7141 H   0  0  0  0  0  0  0  0  0  0  0  0
   -0.1012    2.2923   -0.3555 H   0  0  0  0  0  0  0  0  0  0  0  0
    0.7219    1.4941    1.0468 H   0  0  0  0  0  0  0  0  0  0  0  0
   -1.5880    1.1468    1.6610 H   0  0  0  0  0  0  0  0  0  0  0  0
   -2.3531   -1.5709   -0.7703 H   0  0  0  0  0  0  0  0  0  0  0  0
    0.1414   -1.8843   -0.9431 H   0  0  0  0  0  0  0  0  0  0  0  0
   -1.0043   -1.3805    1.4952 H   0  0  0  0  0  0  0  0  0  0  0  0
  1  2  1  0
  2  3  1  0
  3  4  1  0
  4  5  1  0
  5  6  1  0
  6  7  1  0
  7  8  1  0
  7  2  1  0
  8  4  1  0
  8  6  1  0
  1  9  1  0
  1 10  1  0
  1 11  1  0
  2 12  1  0
  3 13  1  0
  3 14  1  0
  4 15  1  0
  6 16  1  0
  7 17  1  0
  8 18  1  0
M  END
