
     RDKit          3D

 21 22  0  0  0  0  0  0  0  0999 V2000
    2.8516    0.0469   -0.2234 C   0  0  0  0  0  0  0  0  0  0  0  0
    1.4949   -0.3639    0.2040 C   0  0  0  0  0  0  0  0  0  0  0  0
    0.7007    0.7470    0.8433 C   0  0  0  0  0  0  0  0  0  0  0  0
   -0.5782    0.6010    0.5884 C   0  0  0  0  0  0  0  0  0  0  0  0
   -2.0777    0.6821    0.4558 C   0  0  0  0  0  0  0  0  0  0  0  0
   -2.7106    0.0989    1.5342 O   0  0  0  0  0  0  0  0  0  0  0  0
   -1.9982   -0.2078   -0.7958 C   0  0  0  0  0  0  0  0  0  0  0  0
   -0.7189   -0.7055   -0.1935 C   0  0  0  0  0  0  0  0  0  0  0  0
    0.5466   -0.6139   -1.0002 C   0  0  0  0  0  0  0  0  0  0  0  0
    3.5066   -0.8599   -0.2596 H   0  0  0  0  0  0  0  0  0  0  0  0
    2.8340    0.5991   -1.1650 H   0  0  0  0  0  0  0  0  0  0  0  0
    3.2933    0.6813    0.5933 H   0  0  0  0  0  0  0  0  0  0  0  0
    1.4304   -1.2605    0.8387 H   0  0  0  0  0  0  0  0  0  0  0  0
    1.1338    1.5613    1.4375 H   0  0  0  0  0  0  0  0  0  0  0  0
   -2.4761    1.6725    0.2273 H   0  0  0  0  0  0  0  0  0  0  0  0
   -3.0516    0.8373    2.1171 H   0  0  0  0  0  0  0  0  0  0  0  0
   -1.9438    0.3257   -1.7428 H   0  0  0  0  0  0  0  0  0  0  0  0
   -2.7666   -1.0072   -0.7689 H   0  0  0  0  0  0  0  0  0  0  0  0
   -0.8068   -1.5851    0.4510 H   0  0  0  0  0  0  0  0  0  0  0  0
    0.5214    0.2856   -1.6265 H   0  0  0  0  0  0  0  0  0  0  0  0
    0.8155   -1.5350   -1.5147 H   0  0  0  0  0  0  0  0  0  0  0  0
  1  2  1  0
  2  3  1  0
  3  4  2  0
  4  5  1  0
  5  6  1  0
  5  7  1  0
  7  8  1  0
  8  9  1  0
  9  2  1  0
  8  4  1  0
  1 10  1  0
  1 11  1  0
  1 12  1  0
  2 13  1  0
  3 14  1  0
  5 15  1  0
  6 16  1  0
  7 17  1  0
  7 18  1  0
  8 19  1  0
  9 20  1  0
  9 21  1  0
M  END
