
     RDKit          3D

 21 22  0  0  0  0  0  0  0  0999 V2000
   -1.7145    1.4118    0.3265 C   0  0  0  0  0  0  0  0  0  0  0  0
   -1.0886    0.0389    0.5836 C   0  0  0  0  0  0  0  0  0  0  0  0
   -1.9160   -0.9364   -0.2588 C   0  0  0  0  0  0  0  0  0  0  0  0
   -0.9947   -1.9245   -0.5495 O   0  0  0  0  0  0  0  0  0  0  0  0
    0.1077   -1.1977   -1.0370 C   0  0  0  0  0  0  0  0  0  0  0  0
    0.2555   -0.0664   -0.0877 C   0  0  0  0  0  0  0  0  0  0  0  0
    0.7908    1.1482   -0.4779 O   0  0  0  0  0  0  0  0  0  0  0  0
    1.4218    0.3316    0.6141 C   0  0  0  0  0  0  0  0  0  0  0  0
    2.8338    0.0060    0.2718 C   0  0  0  0  0  0  0  0  0  0  0  0
   -2.1243    1.4430   -0.7110 H   0  0  0  0  0  0  0  0  0  0  0  0
   -0.8872    2.1551    0.3547 H   0  0  0  0  0  0  0  0  0  0  0  0
   -2.4865    1.6365    1.0902 H   0  0  0  0  0  0  0  0  0  0  0  0
   -1.0845   -0.2221    1.6428 H   0  0  0  0  0  0  0  0  0  0  0  0
   -2.1968   -0.4190   -1.1865 H   0  0  0  0  0  0  0  0  0  0  0  0
   -2.7725   -1.2770    0.3264 H   0  0  0  0  0  0  0  0  0  0  0  0
   -0.1655   -0.8922   -2.0636 H   0  0  0  0  0  0  0  0  0  0  0  0
    0.9668   -1.8984   -0.9983 H   0  0  0  0  0  0  0  0  0  0  0  0
    1.2809    0.8428    1.6119 H   0  0  0  0  0  0  0  0  0  0  0  0
    3.1370    0.3187   -0.7555 H   0  0  0  0  0  0  0  0  0  0  0  0
    3.0954   -1.0641    0.3519 H   0  0  0  0  0  0  0  0  0  0  0  0
    3.5413    0.5653    0.9519 H   0  0  0  0  0  0  0  0  0  0  0  0
  1  2  1  0
  2  3  1  0
  3  4  1  0
  4  5  1  0
  5  6  1  0
  6  7  1  0
  7  8  1  0
  8  9  1  0
  6  2  1  0
  8  6  1  0
  1 10  1  0
  1 11  1  0
  1 12  1  0
  2 13  1  0
  3 14  1  0
  3 15  1  0
  5 16  1  0
  5 17  1  0
  8 18  1  0
  9 19  1  0
  9 20  1  0
  9 21  1  0
M  END
