
     RDKit          3D

 21 23  0  0  0  0  0  0  0  0999 V2000
    2.0976   -0.3413    0.5359 C   0  0  0  0  0  0  0  0  0  0  0  0
    0.6448   -0.6528    0.5061 C   0  0  0  0  0  0  0  0  0  0  0  0
    0.1818   -1.2423   -0.8078 C   0  0  0  0  0  0  0  0  0  0  0  0
   -1.2204   -0.9991   -1.2689 C   0  0  0  0  0  0  0  0  0  0  0  0
   -2.2075   -0.7522   -0.1536 C   0  0  0  0  0  0  0  0  0  0  0  0
   -1.6654    0.0922    0.7105 C   0  0  0  0  0  0  0  0  0  0  0  0
   -0.2987    0.4878    0.2774 C   0  0  0  0  0  0  0  0  0  0  0  0
    0.1392    1.8576    0.5429 C   0  0  0  0  0  0  0  0  0  0  0  0
   -0.3091    0.1284   -1.1753 C   0  0  0  0  0  0  0  0  0  0  0  0
    2.5959   -1.0959    1.2098 H   0  0  0  0  0  0  0  0  0  0  0  0
    2.6062   -0.4334   -0.4466 H   0  0  0  0  0  0  0  0  0  0  0  0
    2.3490    0.6418    0.9627 H   0  0  0  0  0  0  0  0  0  0  0  0
    0.3104   -1.3362    1.3422 H   0  0  0  0  0  0  0  0  0  0  0  0
    0.9060   -1.7561   -1.4585 H   0  0  0  0  0  0  0  0  0  0  0  0
   -1.5810   -1.4792   -2.1636 H   0  0  0  0  0  0  0  0  0  0  0  0
   -3.2000   -1.1813   -0.0526 H   0  0  0  0  0  0  0  0  0  0  0  0
   -2.1102    0.4704    1.6151 H   0  0  0  0  0  0  0  0  0  0  0  0
   -0.7620    2.4738    0.8348 H   0  0  0  0  0  0  0  0  0  0  0  0
    0.8832    2.0144    1.3221 H   0  0  0  0  0  0  0  0  0  0  0  0
    0.5252    2.3812   -0.3755 H   0  0  0  0  0  0  0  0  0  0  0  0
    0.1151    0.7222   -1.9573 H   0  0  0  0  0  0  0  0  0  0  0  0
  1  2  1  0
  2  3  1  0
  3  4  1  0
  4  5  1  0
  5  6  2  0
  6  7  1  0
  7  8  1  0
  7  9  1  0
  7  2  1  0
  9  3  1  0
  9  4  1  0
  1 10  1  0
  1 11  1  0
  1 12  1  0
  2 13  1  0
  3 14  1  0
  4 15  1  0
  5 16  1  0
  6 17  1  0
  8 18  1  0
  8 19  1  0
  8 20  1  0
  9 21  1  0
M  END
