
     RDKit          3D

 23 23  0  0  0  0  0  0  0  0999 V2000
    1.3671    1.6170   -0.1856 C   0  0  0  0  0  0  0  0  0  0  0  0
    0.5619    0.4944    0.4014 C   0  0  0  0  0  0  0  0  0  0  0  0
    1.4135   -0.7407    0.4226 C   0  0  0  0  0  0  0  0  0  0  0  0
    0.5761   -1.8703   -0.1399 C   0  0  0  0  0  0  0  0  0  0  0  0
   -0.5278   -1.2102   -0.9279 C   0  0  0  0  0  0  0  0  0  0  0  0
   -0.6868    0.1792   -0.3467 C   0  0  0  0  0  0  0  0  0  0  0  0
   -1.0031    1.0489   -1.3531 O   0  0  0  0  0  0  0  0  0  0  0  0
   -1.8681    0.1742    0.6333 C   0  0  0  0  0  0  0  0  0  0  0  0
   -2.0435    1.4678    1.1257 O   0  0  0  0  0  0  0  0  0  0  0  0
    0.7582    2.4306   -0.6077 H   0  0  0  0  0  0  0  0  0  0  0  0
    2.0757    1.1773   -0.9234 H   0  0  0  0  0  0  0  0  0  0  0  0
    1.9900    2.0559    0.6217 H   0  0  0  0  0  0  0  0  0  0  0  0
    0.3286    0.7738    1.4525 H   0  0  0  0  0  0  0  0  0  0  0  0
    2.3538   -0.5925   -0.1496 H   0  0  0  0  0  0  0  0  0  0  0  0
    1.7195   -1.0313    1.4662 H   0  0  0  0  0  0  0  0  0  0  0  0
    0.2032   -2.5465    0.6391 H   0  0  0  0  0  0  0  0  0  0  0  0
    1.2008   -2.4574   -0.8235 H   0  0  0  0  0  0  0  0  0  0  0  0
   -1.4238   -1.8245   -0.8563 H   0  0  0  0  0  0  0  0  0  0  0  0
   -0.1878   -1.1227   -1.9962 H   0  0  0  0  0  0  0  0  0  0  0  0
   -0.3406    1.1247   -2.0678 H   0  0  0  0  0  0  0  0  0  0  0  0
   -2.8160   -0.0651    0.0779 H   0  0  0  0  0  0  0  0  0  0  0  0
   -1.7513   -0.5821    1.4131 H   0  0  0  0  0  0  0  0  0  0  0  0
   -1.8995    1.4992    2.1241 H   0  0  0  0  0  0  0  0  0  0  0  0
  1  2  1  0
  2  3  1  0
  3  4  1  0
  4  5  1  0
  5  6  1  0
  6  7  1  0
  6  8  1  0
  8  9  1  0
  6  2  1  0
  1 10  1  0
  1 11  1  0
  1 12  1  0
  2 13  1  0
  3 14  1  0
  3 15  1  0
  4 16  1  0
  4 17  1  0
  5 18  1  0
  5 19  1  0
  7 20  1  0
  8 21  1  0
  8 22  1  0
  9 23  1  0
M  END
