
     RDKit          3D

 25 26  0  0  0  0  0  0  0  0999 V2000
   -1.6092    1.6749   -0.0415 C   0  0  0  0  0  0  0  0  0  0  0  0
   -1.6946    0.3119    0.5323 C   0  0  0  0  0  0  0  0  0  0  0  0
   -2.1063   -0.7082   -0.5153 C   0  0  0  0  0  0  0  0  0  0  0  0
   -0.7828   -1.4326   -0.3299 C   0  0  0  0  0  0  0  0  0  0  0  0
   -0.4722   -0.4601    0.7836 C   0  0  0  0  0  0  0  0  0  0  0  0
    0.8603    0.1692    0.6892 C   0  0  0  0  0  0  0  0  0  0  0  0
    1.3309    0.7769   -0.5586 C   0  0  0  0  0  0  0  0  0  0  0  0
    2.6788    0.1021   -0.3293 C   0  0  0  0  0  0  0  0  0  0  0  0
    1.9092   -0.9135    0.4948 C   0  0  0  0  0  0  0  0  0  0  0  0
   -1.6755    1.6615   -1.1688 H   0  0  0  0  0  0  0  0  0  0  0  0
   -2.4832    2.3157    0.2707 H   0  0  0  0  0  0  0  0  0  0  0  0
   -0.7135    2.2487    0.2136 H   0  0  0  0  0  0  0  0  0  0  0  0
   -2.4727    0.2857    1.3517 H   0  0  0  0  0  0  0  0  0  0  0  0
   -2.2225   -0.2839   -1.5454 H   0  0  0  0  0  0  0  0  0  0  0  0
   -2.9413   -1.3551   -0.2573 H   0  0  0  0  0  0  0  0  0  0  0  0
   -0.8944   -2.4888   -0.0288 H   0  0  0  0  0  0  0  0  0  0  0  0
   -0.1607   -1.3563   -1.2303 H   0  0  0  0  0  0  0  0  0  0  0  0
   -0.5593   -1.0074    1.7625 H   0  0  0  0  0  0  0  0  0  0  0  0
    1.1282    0.7672    1.5782 H   0  0  0  0  0  0  0  0  0  0  0  0
    1.5146    1.8682   -0.5929 H   0  0  0  0  0  0  0  0  0  0  0  0
    0.9187    0.4412   -1.5168 H   0  0  0  0  0  0  0  0  0  0  0  0
    3.1335   -0.3093   -1.2515 H   0  0  0  0  0  0  0  0  0  0  0  0
    3.3628    0.6592    0.3330 H   0  0  0  0  0  0  0  0  0  0  0  0
    2.4219   -1.2362    1.4176 H   0  0  0  0  0  0  0  0  0  0  0  0
    1.5294   -1.7312   -0.1509 H   0  0  0  0  0  0  0  0  0  0  0  0
  1  2  1  0
  2  3  1  0
  3  4  1  0
  4  5  1  0
  5  6  1  0
  6  7  1  0
  7  8  1  0
  8  9  1  0
  5  2  1  0
  9  6  1  0
  1 10  1  0
  1 11  1  0
  1 12  1  0
  2 13  1  0
  3 14  1  0
  3 15  1  0
  4 16  1  0
  4 17  1  0
  5 18  1  0
  6 19  1  0
  7 20  1  0
  7 21  1  0
  8 22  1  0
  8 23  1  0
  9 24  1  0
  9 25  1  0
M  END
