
     RDKit          3D

 19 21  0  0  0  0  0  0  0  0999 V2000
    2.3291    0.2892    0.0747 C   0  0  0  0  0  0  0  0  0  0  0  0
    0.9054   -0.1058    0.2539 C   0  0  0  0  0  0  0  0  0  0  0  0
    0.4466   -1.3515   -0.4439 C   0  0  0  0  0  0  0  0  0  0  0  0
   -0.8171   -0.5931   -0.8251 C   0  0  0  0  0  0  0  0  0  0  0  0
   -1.9976   -0.6046    0.0767 C   0  0  0  0  0  0  0  0  0  0  0  0
   -1.8598    0.4004    1.0094 O   0  0  0  0  0  0  0  0  0  0  0  0
   -1.1506    1.4316    0.4521 C   0  0  0  0  0  0  0  0  0  0  0  0
   -0.1306    0.7225   -0.4266 C   0  0  0  0  0  0  0  0  0  0  0  0
   -0.5726    0.4558   -1.6927 O   0  0  0  0  0  0  0  0  0  0  0  0
    2.7718    0.0184   -0.8893 H   0  0  0  0  0  0  0  0  0  0  0  0
    2.4481    1.3759    0.3075 H   0  0  0  0  0  0  0  0  0  0  0  0
    2.9244   -0.2459    0.8679 H   0  0  0  0  0  0  0  0  0  0  0  0
    0.6773   -0.2044    1.3555 H   0  0  0  0  0  0  0  0  0  0  0  0
    1.0487   -1.5006   -1.3793 H   0  0  0  0  0  0  0  0  0  0  0  0
    0.3057   -2.2480    0.1547 H   0  0  0  0  0  0  0  0  0  0  0  0
   -2.0726   -1.5676    0.5802 H   0  0  0  0  0  0  0  0  0  0  0  0
   -2.9109   -0.4228   -0.5188 H   0  0  0  0  0  0  0  0  0  0  0  0
   -0.5967    2.0259    1.2105 H   0  0  0  0  0  0  0  0  0  0  0  0
   -1.7486    2.1246   -0.1675 H   0  0  0  0  0  0  0  0  0  0  0  0
  1  2  1  0
  2  3  1  0
  3  4  1  0
  4  5  1  0
  5  6  1  0
  6  7  1  0
  7  8  1  0
  8  9  1  0
  8  2  1  0
  8  4  1  0
  9  4  1  0
  1 10  1  0
  1 11  1  0
  1 12  1  0
  2 13  1  0
  3 14  1  0
  3 15  1  0
  5 16  1  0
  5 17  1  0
  7 18  1  0
  7 19  1  0
M  END
