
     RDKit          3D

 18 20  0  0  0  0  0  0  0  0999 V2000
   -2.1173   -0.4429    0.2254 C   0  0  0  0  0  0  0  0  0  0  0  0
   -0.7650   -0.2712   -0.3984 C   0  0  0  0  0  0  0  0  0  0  0  0
    0.3570   -0.5709    0.5858 C   0  0  0  0  0  0  0  0  0  0  0  0
    1.5999   -0.9950   -0.1819 C   0  0  0  0  0  0  0  0  0  0  0  0
    1.8298    0.0032   -1.0958 O   0  0  0  0  0  0  0  0  0  0  0  0
    1.2814    1.1862   -0.6095 C   0  0  0  0  0  0  0  0  0  0  0  0
   -0.2328    1.1229   -0.4943 C   0  0  0  0  0  0  0  0  0  0  0  0
    0.6021    0.9012    0.6664 C   0  0  0  0  0  0  0  0  0  0  0  0
   -2.8981    0.0811   -0.3943 H   0  0  0  0  0  0  0  0  0  0  0  0
   -2.3779   -1.5200    0.1598 H   0  0  0  0  0  0  0  0  0  0  0  0
   -2.1823   -0.1160    1.2640 H   0  0  0  0  0  0  0  0  0  0  0  0
   -0.6626   -0.8028   -1.3407 H   0  0  0  0  0  0  0  0  0  0  0  0
    0.1077   -1.1195    1.4723 H   0  0  0  0  0  0  0  0  0  0  0  0
    2.4186   -1.0605    0.5767 H   0  0  0  0  0  0  0  0  0  0  0  0
    1.4419   -1.9923   -0.6077 H   0  0  0  0  0  0  0  0  0  0  0  0
    1.7753    2.1408   -0.7678 H   0  0  0  0  0  0  0  0  0  0  0  0
   -0.8480    1.9930   -0.6293 H   0  0  0  0  0  0  0  0  0  0  0  0
    0.6702    1.4627    1.5693 H   0  0  0  0  0  0  0  0  0  0  0  0
  1  2  1  0
  2  3  1  0
  3  4  1  0
  4  5  1  0
  5  6  1  0
  6  7  1  0
  7  8  1  0
  7  2  1  0
  8  3  1  0
  8  6  1  0
  1  9  1  0
  1 10  1  0
  1 11  1  0
  2 12  1  0
  3 13  1  0
  4 14  1  0
  4 15  1  0
  6 16  1  0
  7 17  1  0
  8 18  1  0
M  END
