
     RDKit          3D

 19 21  0  0  0  0  0  0  0  0999 V2000
    2.1413   -0.6495    0.3854 C   0  0  0  0  0  0  0  0  0  0  0  0
    1.2788    0.3106   -0.3319 C   0  0  0  0  0  0  0  0  0  0  0  0
    0.5699    1.2978    0.5938 C   0  0  0  0  0  0  0  0  0  0  0  0
   -0.2579    1.9272   -0.3216 O   0  0  0  0  0  0  0  0  0  0  0  0
   -0.8951    0.8468   -0.9216 C   0  0  0  0  0  0  0  0  0  0  0  0
   -0.0087   -0.3337   -0.8717 C   0  0  0  0  0  0  0  0  0  0  0  0
   -0.9610   -0.1538    0.1969 C   0  0  0  0  0  0  0  0  0  0  0  0
   -2.2611   -0.8164    0.3703 C   0  0  0  0  0  0  0  0  0  0  0  0
   -0.3185    0.4795    1.2707 O   0  0  0  0  0  0  0  0  0  0  0  0
    3.1949   -0.5347    0.0022 H   0  0  0  0  0  0  0  0  0  0  0  0
    1.8929   -1.7148    0.2451 H   0  0  0  0  0  0  0  0  0  0  0  0
    2.2218   -0.3923    1.4760 H   0  0  0  0  0  0  0  0  0  0  0  0
    1.7556    0.8782   -1.1405 H   0  0  0  0  0  0  0  0  0  0  0  0
    1.2100    1.9123    1.1758 H   0  0  0  0  0  0  0  0  0  0  0  0
   -1.6930    0.9736   -1.6366 H   0  0  0  0  0  0  0  0  0  0  0  0
    0.0415   -1.1100   -1.6084 H   0  0  0  0  0  0  0  0  0  0  0  0
   -2.3963   -1.4001    1.2897 H   0  0  0  0  0  0  0  0  0  0  0  0
   -3.0688   -0.0283    0.3170 H   0  0  0  0  0  0  0  0  0  0  0  0
   -2.4461   -1.4925   -0.4905 H   0  0  0  0  0  0  0  0  0  0  0  0
  1  2  1  0
  2  3  1  0
  3  4  1  0
  4  5  1  0
  5  6  1  0
  6  7  1  0
  7  8  1  0
  7  9  1  0
  6  2  1  0
  9  3  1  0
  7  5  1  0
  1 10  1  0
  1 11  1  0
  1 12  1  0
  2 13  1  0
  3 14  1  0
  5 15  1  0
  6 16  1  0
  8 17  1  0
  8 18  1  0
  8 19  1  0
M  END
