
     RDKit          3D

 21 23  0  0  0  0  0  0  0  0999 V2000
   -1.7489   -0.0807    1.1504 C   0  0  0  0  0  0  0  0  0  0  0  0
   -1.3276   -0.2541   -0.2725 C   0  0  0  0  0  0  0  0  0  0  0  0
   -1.0481    1.0871   -0.9821 C   0  0  0  0  0  0  0  0  0  0  0  0
    0.1797    1.6578   -0.2429 C   0  0  0  0  0  0  0  0  0  0  0  0
    1.1373    0.8264    0.0858 C   0  0  0  0  0  0  0  0  0  0  0  0
    2.2320   -0.0189    0.4838 C   0  0  0  0  0  0  0  0  0  0  0  0
    1.0928   -1.1234    0.5114 C   0  0  0  0  0  0  0  0  0  0  0  0
    0.9967   -0.4531   -0.8925 C   0  0  0  0  0  0  0  0  0  0  0  0
   -0.1013   -1.1395   -0.2976 C   0  0  0  0  0  0  0  0  0  0  0  0
   -1.2642    0.7833    1.6492 H   0  0  0  0  0  0  0  0  0  0  0  0
   -1.4515   -0.9832    1.7340 H   0  0  0  0  0  0  0  0  0  0  0  0
   -2.8657   -0.0117    1.2494 H   0  0  0  0  0  0  0  0  0  0  0  0
   -2.1567   -0.6819   -0.8310 H   0  0  0  0  0  0  0  0  0  0  0  0
   -1.8877    1.7488   -0.8009 H   0  0  0  0  0  0  0  0  0  0  0  0
   -0.7861    1.0124   -2.0049 H   0  0  0  0  0  0  0  0  0  0  0  0
    0.2600    2.6722   -0.0033 H   0  0  0  0  0  0  0  0  0  0  0  0
    2.6990    0.0925    1.4617 H   0  0  0  0  0  0  0  0  0  0  0  0
    2.9315   -0.2509   -0.3293 H   0  0  0  0  0  0  0  0  0  0  0  0
    1.6561   -2.0737    0.5932 H   0  0  0  0  0  0  0  0  0  0  0  0
    1.8240   -0.6778   -1.4885 H   0  0  0  0  0  0  0  0  0  0  0  0
   -0.3716   -2.1314   -0.7733 H   0  0  0  0  0  0  0  0  0  0  0  0
  1  2  1  0
  2  3  1  0
  3  4  1  0
  4  5  2  0
  5  6  1  0
  6  7  1  0
  7  8  1  0
  8  9  1  0
  9  2  1  0
  8  5  1  0
  9  7  1  0
  1 10  1  0
  1 11  1  0
  1 12  1  0
  2 13  1  0
  3 14  1  0
  3 15  1  0
  4 16  1  0
  6 17  1  0
  6 18  1  0
  7 19  1  0
  8 20  1  0
  9 21  1  0
M  END
