
     RDKit          3D

 21 22  0  0  0  0  0  0  0  0999 V2000
   -3.3192    0.1020    0.4901 C   0  0  0  0  0  0  0  0  0  0  0  0
   -2.1197    0.3861   -0.4281 C   0  0  0  0  0  0  0  0  0  0  0  0
   -1.0480    1.1363    0.1193 C   0  0  0  0  0  0  0  0  0  0  0  0
   -0.0140    0.7183    0.9592 O   0  0  0  0  0  0  0  0  0  0  0  0
    0.5210    0.2433   -0.2696 C   0  0  0  0  0  0  0  0  0  0  0  0
    1.5885   -0.7919   -0.1014 C   0  0  0  0  0  0  0  0  0  0  0  0
    2.7150   -0.1382    0.7084 C   0  0  0  0  0  0  0  0  0  0  0  0
    3.7286   -1.0791    0.8836 O   0  0  0  0  0  0  0  0  0  0  0  0
   -0.8887   -0.3679   -0.3478 C   0  0  0  0  0  0  0  0  0  0  0  0
   -3.6876    1.0710    0.8781 H   0  0  0  0  0  0  0  0  0  0  0  0
   -4.1521   -0.3588   -0.0639 H   0  0  0  0  0  0  0  0  0  0  0  0
   -3.0169   -0.5279    1.3475 H   0  0  0  0  0  0  0  0  0  0  0  0
   -2.4923    0.5782   -1.4746 H   0  0  0  0  0  0  0  0  0  0  0  0
   -0.5942    1.8915   -0.5968 H   0  0  0  0  0  0  0  0  0  0  0  0
    0.7516    0.9959   -1.0146 H   0  0  0  0  0  0  0  0  0  0  0  0
    2.0256   -0.9777   -1.1048 H   0  0  0  0  0  0  0  0  0  0  0  0
    1.2567   -1.7255    0.3464 H   0  0  0  0  0  0  0  0  0  0  0  0
    3.1455    0.7086    0.1718 H   0  0  0  0  0  0  0  0  0  0  0  0
    2.3211    0.1620    1.6975 H   0  0  0  0  0  0  0  0  0  0  0  0
    4.2097   -0.9076    1.7230 H   0  0  0  0  0  0  0  0  0  0  0  0
   -0.9306   -1.1186    0.5052 H   0  0  0  0  0  0  0  0  0  0  0  0
  1  2  1  0
  2  3  1  0
  3  4  1  0
  4  5  1  0
  5  6  1  0
  6  7  1  0
  7  8  1  0
  5  9  1  0
  9  2  1  0
  9  3  1  0
  1 10  1  0
  1 11  1  0
  1 12  1  0
  2 13  1  0
  3 14  1  0
  5 15  1  0
  6 16  1  0
  6 17  1  0
  7 18  1  0
  7 19  1  0
  8 20  1  0
  9 21  1  0
M  END
