
     RDKit          3D

 18 18  0  0  0  0  0  0  0  0999 V2000
   -2.3865   -0.3024    0.1762 C   0  0  0  0  0  0  0  0  0  0  0  0
   -0.9853   -0.2605   -0.3844 C   0  0  0  0  0  0  0  0  0  0  0  0
    0.0643   -0.9573    0.4326 C   0  0  0  0  0  0  0  0  0  0  0  0
    0.6728    0.3737    0.7169 C   0  0  0  0  0  0  0  0  0  0  0  0
    2.0121    0.6519    0.0904 C   0  0  0  0  0  0  0  0  0  0  0  0
    2.9987   -0.2243    0.4656 O   0  0  0  0  0  0  0  0  0  0  0  0
   -0.3819    1.0745   -0.0817 C   0  0  0  0  0  0  0  0  0  0  0  0
   -0.6350    2.2151   -0.3597 O   0  0  0  0  0  0  0  0  0  0  0  0
   -2.9963    0.3916   -0.4684 H   0  0  0  0  0  0  0  0  0  0  0  0
   -2.8299   -1.2990    0.1686 H   0  0  0  0  0  0  0  0  0  0  0  0
   -2.3486    0.1543    1.1857 H   0  0  0  0  0  0  0  0  0  0  0  0
   -1.0135   -0.5173   -1.4615 H   0  0  0  0  0  0  0  0  0  0  0  0
   -0.3304   -1.5253    1.2754 H   0  0  0  0  0  0  0  0  0  0  0  0
    0.7412   -1.6022   -0.1818 H   0  0  0  0  0  0  0  0  0  0  0  0
    0.5765    0.6550    1.7840 H   0  0  0  0  0  0  0  0  0  0  0  0
    1.8536    0.6381   -1.0249 H   0  0  0  0  0  0  0  0  0  0  0  0
    2.2914    1.6927    0.3568 H   0  0  0  0  0  0  0  0  0  0  0  0
    2.6971   -1.1586    0.4572 H   0  0  0  0  0  0  0  0  0  0  0  0
  1  2  1  0
  2  3  1  0
  3  4  1  0
  4  5  1  0
  5  6  1  0
  4  7  1  0
  7  8  2  0
  7  2  1  0
  1  9  1  0
  1 10  1  0
  1 11  1  0
  2 12  1  0
  3 13  1  0
  3 14  1  0
  4 15  1  0
  5 16  1  0
  5 17  1  0
  6 18  1  0
M  END
