
     RDKit          3D

 21 22  0  0  0  0  0  0  0  0999 V2000
    2.3428   -0.4850   -0.0042 C   0  0  0  0  0  0  0  0  0  0  0  0
    0.9591   -0.0235    0.3627 C   0  0  0  0  0  0  0  0  0  0  0  0
    0.7806    1.4670    0.1958 C   0  0  0  0  0  0  0  0  0  0  0  0
   -0.5601    1.7741    0.3367 O   0  0  0  0  0  0  0  0  0  0  0  0
   -1.3814    0.9882   -0.4577 C   0  0  0  0  0  0  0  0  0  0  0  0
   -2.0958   -0.0834    0.3585 C   0  0  0  0  0  0  0  0  0  0  0  0
   -1.2075   -1.2758    0.1356 C   0  0  0  0  0  0  0  0  0  0  0  0
   -0.0228   -0.6985   -0.5683 C   0  0  0  0  0  0  0  0  0  0  0  0
   -0.5825    0.3078   -1.3627 O   0  0  0  0  0  0  0  0  0  0  0  0
    2.7359   -1.1801    0.7521 H   0  0  0  0  0  0  0  0  0  0  0  0
    3.0487    0.3653   -0.1851 H   0  0  0  0  0  0  0  0  0  0  0  0
    2.3403   -1.0517   -0.9788 H   0  0  0  0  0  0  0  0  0  0  0  0
    0.7454   -0.2942    1.4044 H   0  0  0  0  0  0  0  0  0  0  0  0
    1.1467    1.8472   -0.7637 H   0  0  0  0  0  0  0  0  0  0  0  0
    1.3536    1.9589    0.9944 H   0  0  0  0  0  0  0  0  0  0  0  0
   -2.1339    1.6158   -0.9810 H   0  0  0  0  0  0  0  0  0  0  0  0
   -2.0999    0.2644    1.4130 H   0  0  0  0  0  0  0  0  0  0  0  0
   -3.1154   -0.2745   -0.0004 H   0  0  0  0  0  0  0  0  0  0  0  0
   -1.7222   -1.9663   -0.5645 H   0  0  0  0  0  0  0  0  0  0  0  0
   -0.9679   -1.7730    1.0946 H   0  0  0  0  0  0  0  0  0  0  0  0
    0.4364   -1.4826   -1.1813 H   0  0  0  0  0  0  0  0  0  0  0  0
  1  2  1  0
  2  3  1  0
  3  4  1  0
  4  5  1  0
  5  6  1  0
  6  7  1  0
  7  8  1  0
  8  9  1  0
  8  2  1  0
  9  5  1  0
  1 10  1  0
  1 11  1  0
  1 12  1  0
  2 13  1  0
  3 14  1  0
  3 15  1  0
  5 16  1  0
  6 17  1  0
  6 18  1  0
  7 19  1  0
  7 20  1  0
  8 21  1  0
M  END
