
     RDKit          3D

 19 19  0  0  0  0  0  0  0  0999 V2000
    2.6288   -0.0425    0.2283 C   0  0  0  0  0  0  0  0  0  0  0  0
    1.2665   -0.2698   -0.3463 C   0  0  0  0  0  0  0  0  0  0  0  0
    0.2597    0.7809    0.1479 C   0  0  0  0  0  0  0  0  0  0  0  0
   -1.0125    0.0163   -0.2138 C   0  0  0  0  0  0  0  0  0  0  0  0
   -2.2397    0.6319    0.3407 C   0  0  0  0  0  0  0  0  0  0  0  0
   -1.0214   -0.1043   -1.6014 O   0  0  0  0  0  0  0  0  0  0  0  0
   -0.6715   -1.3017    0.3536 C   0  0  0  0  0  0  0  0  0  0  0  0
   -1.4697   -2.0980    0.8749 O   0  0  0  0  0  0  0  0  0  0  0  0
    0.6852   -1.4696    0.1924 O   0  0  0  0  0  0  0  0  0  0  0  0
    2.8083   -0.8101    1.0308 H   0  0  0  0  0  0  0  0  0  0  0  0
    2.7083    0.9370    0.7070 H   0  0  0  0  0  0  0  0  0  0  0  0
    3.3923   -0.2185   -0.5454 H   0  0  0  0  0  0  0  0  0  0  0  0
    1.2414   -0.3728   -1.4405 H   0  0  0  0  0  0  0  0  0  0  0  0
    0.4030    0.8645    1.2332 H   0  0  0  0  0  0  0  0  0  0  0  0
    0.3568    1.7176   -0.3933 H   0  0  0  0  0  0  0  0  0  0  0  0
   -2.9478   -0.0680    0.8012 H   0  0  0  0  0  0  0  0  0  0  0  0
   -2.7864    1.1320   -0.5120 H   0  0  0  0  0  0  0  0  0  0  0  0
   -1.9427    1.4632    1.0129 H   0  0  0  0  0  0  0  0  0  0  0  0
   -1.6587   -0.7881   -1.8704 H   0  0  0  0  0  0  0  0  0  0  0  0
  1  2  1  0
  2  3  1  0
  3  4  1  0
  4  5  1  0
  4  6  1  0
  4  7  1  0
  7  8  2  0
  7  9  1  0
  9  2  1  0
  1 10  1  0
  1 11  1  0
  1 12  1  0
  2 13  1  0
  3 14  1  0
  3 15  1  0
  5 16  1  0
  5 17  1  0
  5 18  1  0
  6 19  1  0
M  END
