
     RDKit          3D

 21 22  0  0  0  0  0  0  0  0999 V2000
   -2.3479   -0.3801    0.2679 C   0  0  0  0  0  0  0  0  0  0  0  0
   -0.9061   -0.5248    0.6504 C   0  0  0  0  0  0  0  0  0  0  0  0
    0.0556   -0.5387   -0.4991 C   0  0  0  0  0  0  0  0  0  0  0  0
   -0.3606   -0.2813   -1.7794 O   0  0  0  0  0  0  0  0  0  0  0  0
    1.3589   -1.2730   -0.2487 C   0  0  0  0  0  0  0  0  0  0  0  0
    2.1941   -0.1807    0.3827 C   0  0  0  0  0  0  0  0  0  0  0  0
    1.2556    0.4183    1.2384 O   0  0  0  0  0  0  0  0  0  0  0  0
    0.0806    0.5382    0.5192 C   0  0  0  0  0  0  0  0  0  0  0  0
   -0.2617    1.9447    0.1169 C   0  0  0  0  0  0  0  0  0  0  0  0
   -3.0329   -0.8946    0.9947 H   0  0  0  0  0  0  0  0  0  0  0  0
   -2.4832   -0.9653   -0.6887 H   0  0  0  0  0  0  0  0  0  0  0  0
   -2.6768    0.6438    0.0882 H   0  0  0  0  0  0  0  0  0  0  0  0
   -0.7392   -1.3003    1.4491 H   0  0  0  0  0  0  0  0  0  0  0  0
    0.4189   -0.4112   -2.3818 H   0  0  0  0  0  0  0  0  0  0  0  0
    1.1516   -2.0541    0.5016 H   0  0  0  0  0  0  0  0  0  0  0  0
    1.7577   -1.6517   -1.1870 H   0  0  0  0  0  0  0  0  0  0  0  0
    3.0095   -0.6532    0.9209 H   0  0  0  0  0  0  0  0  0  0  0  0
    2.4906    0.5049   -0.4277 H   0  0  0  0  0  0  0  0  0  0  0  0
   -0.3832    2.5875    1.0231 H   0  0  0  0  0  0  0  0  0  0  0  0
   -1.1634    2.0362   -0.4905 H   0  0  0  0  0  0  0  0  0  0  0  0
    0.5819    2.4354   -0.4503 H   0  0  0  0  0  0  0  0  0  0  0  0
  1  2  1  0
  2  3  1  0
  3  4  1  0
  3  5  1  0
  5  6  1  0
  6  7  1  0
  7  8  1  0
  8  9  1  0
  8  2  1  0
  8  3  1  0
  1 10  1  0
  1 11  1  0
  1 12  1  0
  2 13  1  0
  4 14  1  0
  5 15  1  0
  5 16  1  0
  6 17  1  0
  6 18  1  0
  9 19  1  0
  9 20  1  0
  9 21  1  0
M  END
