
     RDKit          3D

 21 22  0  0  0  0  0  0  0  0999 V2000
   -2.6482    0.1574   -0.8950 C   0  0  0  0  0  0  0  0  0  0  0  0
   -1.3838   -0.4435   -0.3599 C   0  0  0  0  0  0  0  0  0  0  0  0
   -1.3334   -0.4543    1.1100 C   0  0  0  0  0  0  0  0  0  0  0  0
   -0.2369    0.1088    1.5656 C   0  0  0  0  0  0  0  0  0  0  0  0
    0.6305    0.5918    0.4476 C   0  0  0  0  0  0  0  0  0  0  0  0
    1.9405   -0.1158    0.5438 C   0  0  0  0  0  0  0  0  0  0  0  0
    3.0173    0.1170   -0.3886 C   0  0  0  0  0  0  0  0  0  0  0  0
    3.0182    0.8350    0.9295 O   0  0  0  0  0  0  0  0  0  0  0  0
   -0.1403    0.2644   -0.8014 C   0  0  0  0  0  0  0  0  0  0  0  0
   -3.3484    0.3767   -0.0362 H   0  0  0  0  0  0  0  0  0  0  0  0
   -2.4819    1.0692   -1.4923 H   0  0  0  0  0  0  0  0  0  0  0  0
   -3.2124   -0.5907   -1.5144 H   0  0  0  0  0  0  0  0  0  0  0  0
   -1.3275   -1.5168   -0.6940 H   0  0  0  0  0  0  0  0  0  0  0  0
   -2.1170   -0.8811    1.7437 H   0  0  0  0  0  0  0  0  0  0  0  0
    0.0078    0.2104    2.6182 H   0  0  0  0  0  0  0  0  0  0  0  0
    0.7037    1.6931    0.5099 H   0  0  0  0  0  0  0  0  0  0  0  0
    2.0044   -1.0478    1.1675 H   0  0  0  0  0  0  0  0  0  0  0  0
    2.8815    0.8326   -1.2253 H   0  0  0  0  0  0  0  0  0  0  0  0
    3.8989   -0.5193   -0.4040 H   0  0  0  0  0  0  0  0  0  0  0  0
   -0.3915    1.1786   -1.3963 H   0  0  0  0  0  0  0  0  0  0  0  0
    0.5186   -0.4032   -1.4286 H   0  0  0  0  0  0  0  0  0  0  0  0
  1  2  1  0
  2  3  1  0
  3  4  2  0
  4  5  1  0
  5  6  1  0
  6  7  1  0
  7  8  1  0
  5  9  1  0
  9  2  1  0
  8  6  1  0
  1 10  1  0
  1 11  1  0
  1 12  1  0
  2 13  1  0
  3 14  1  0
  4 15  1  0
  5 16  1  0
  6 17  1  0
  7 18  1  0
  7 19  1  0
  9 20  1  0
  9 21  1  0
M  END
