
     RDKit          3D

 19 19  0  0  0  0  0  0  0  0999 V2000
   -2.0879    0.9131    0.5802 C   0  0  0  0  0  0  0  0  0  0  0  0
   -1.3607    0.1826   -0.5487 C   0  0  0  0  0  0  0  0  0  0  0  0
    0.0781    0.6611   -0.6609 C   0  0  0  0  0  0  0  0  0  0  0  0
    0.8227   -0.6350   -0.7308 C   0  0  0  0  0  0  0  0  0  0  0  0
    2.2715   -0.5120   -0.3417 C   0  0  0  0  0  0  0  0  0  0  0  0
    2.4610    0.0207    0.9083 O   0  0  0  0  0  0  0  0  0  0  0  0
    0.0923   -1.4615    0.1476 O   0  0  0  0  0  0  0  0  0  0  0  0
   -1.2484   -1.2355   -0.1237 C   0  0  0  0  0  0  0  0  0  0  0  0
   -2.2093   -2.0427   -0.0396 O   0  0  0  0  0  0  0  0  0  0  0  0
   -2.2310    1.9733    0.3714 H   0  0  0  0  0  0  0  0  0  0  0  0
   -1.6025    0.6914    1.5414 H   0  0  0  0  0  0  0  0  0  0  0  0
   -3.1114    0.4472    0.6080 H   0  0  0  0  0  0  0  0  0  0  0  0
   -1.8818    0.3208   -1.4962 H   0  0  0  0  0  0  0  0  0  0  0  0
    0.3405    1.2719    0.2259 H   0  0  0  0  0  0  0  0  0  0  0  0
    0.1690    1.2901   -1.5587 H   0  0  0  0  0  0  0  0  0  0  0  0
    0.7494   -1.0457   -1.7483 H   0  0  0  0  0  0  0  0  0  0  0  0
    2.7733    0.1075   -1.1117 H   0  0  0  0  0  0  0  0  0  0  0  0
    2.7040   -1.5464   -0.4125 H   0  0  0  0  0  0  0  0  0  0  0  0
    3.2710    0.5992    0.8980 H   0  0  0  0  0  0  0  0  0  0  0  0
  1  2  1  0
  2  3  1  0
  3  4  1  0
  4  5  1  0
  5  6  1  0
  4  7  1  0
  7  8  1  0
  8  9  2  0
  8  2  1  0
  1 10  1  0
  1 11  1  0
  1 12  1  0
  2 13  1  0
  3 14  1  0
  3 15  1  0
  4 16  1  0
  5 17  1  0
  5 18  1  0
  6 19  1  0
M  END
