
     RDKit          3D

 27 27  0  0  0  0  0  0  0  0999 V2000
    2.9292    0.5326    0.0550 C   0  0  0  0  0  0  0  0  0  0  0  0
    1.5185    0.3173   -0.5148 C   0  0  0  0  0  0  0  0  0  0  0  0
    1.2559   -1.1378   -0.5150 C   0  0  0  0  0  0  0  0  0  0  0  0
    0.0546   -1.5515    0.2901 C   0  0  0  0  0  0  0  0  0  0  0  0
   -1.0934   -0.6723   -0.2281 C   0  0  0  0  0  0  0  0  0  0  0  0
   -2.3632   -1.2643    0.2831 C   0  0  0  0  0  0  0  0  0  0  0  0
   -0.8245    0.6961    0.3569 C   0  0  0  0  0  0  0  0  0  0  0  0
   -1.8480    1.7096   -0.1759 C   0  0  0  0  0  0  0  0  0  0  0  0
    0.5556    1.1755    0.1977 C   0  0  0  0  0  0  0  0  0  0  0  0
    2.9266    0.3328    1.1572 H   0  0  0  0  0  0  0  0  0  0  0  0
    3.3144    1.5344   -0.1838 H   0  0  0  0  0  0  0  0  0  0  0  0
    3.5953   -0.2377   -0.3832 H   0  0  0  0  0  0  0  0  0  0  0  0
    1.6088    0.6493   -1.5913 H   0  0  0  0  0  0  0  0  0  0  0  0
    2.1300   -1.7438   -0.1356 H   0  0  0  0  0  0  0  0  0  0  0  0
    1.0893   -1.5445   -1.5559 H   0  0  0  0  0  0  0  0  0  0  0  0
   -0.1501   -2.6068    0.1294 H   0  0  0  0  0  0  0  0  0  0  0  0
    0.2235   -1.2868    1.3724 H   0  0  0  0  0  0  0  0  0  0  0  0
   -1.0364   -0.6547   -1.3206 H   0  0  0  0  0  0  0  0  0  0  0  0
   -2.8304   -0.7060    1.1112 H   0  0  0  0  0  0  0  0  0  0  0  0
   -2.2239   -2.3240    0.6451 H   0  0  0  0  0  0  0  0  0  0  0  0
   -3.1283   -1.3552   -0.5345 H   0  0  0  0  0  0  0  0  0  0  0  0
   -1.0796    0.6033    1.4546 H   0  0  0  0  0  0  0  0  0  0  0  0
   -2.8267    1.4407    0.2486 H   0  0  0  0  0  0  0  0  0  0  0  0
   -1.8153    1.7846   -1.2630 H   0  0  0  0  0  0  0  0  0  0  0  0
   -1.5042    2.6999    0.2310 H   0  0  0  0  0  0  0  0  0  0  0  0
    0.5217    2.1734   -0.3343 H   0  0  0  0  0  0  0  0  0  0  0  0
    1.0004    1.4359    1.2038 H   0  0  0  0  0  0  0  0  0  0  0  0
  1  2  1  0
  2  3  1  0
  3  4  1  0
  4  5  1  0
  5  6  1  0
  5  7  1  0
  7  8  1  0
  7  9  1  0
  9  2  1  0
  1 10  1  0
  1 11  1  0
  1 12  1  0
  2 13  1  0
  3 14  1  0
  3 15  1  0
  4 16  1  0
  4 17  1  0
  5 18  1  0
  6 19  1  0
  6 20  1  0
  6 21  1  0
  7 22  1  0
  8 23  1  0
  8 24  1  0
  8 25  1  0
  9 26  1  0
  9 27  1  0
M  END
