
     RDKit          3D

 25 25  0  0  0  0  0  0  0  0999 V2000
   -1.5370    1.4430    0.4917 C   0  0  0  0  0  0  0  0  0  0  0  0
   -0.8094    0.6101   -0.5220 C   0  0  0  0  0  0  0  0  0  0  0  0
    0.4585    1.2904   -0.8912 C   0  0  0  0  0  0  0  0  0  0  0  0
    1.6434    0.8996   -0.0594 C   0  0  0  0  0  0  0  0  0  0  0  0
    2.0179   -0.5494   -0.3033 C   0  0  0  0  0  0  0  0  0  0  0  0
    1.4094   -1.3489    0.8406 C   0  0  0  0  0  0  0  0  0  0  0  0
    0.0898   -0.9762    1.0545 O   0  0  0  0  0  0  0  0  0  0  0  0
   -0.6426   -0.8234   -0.0976 C   0  0  0  0  0  0  0  0  0  0  0  0
   -2.0408   -1.3787    0.1456 C   0  0  0  0  0  0  0  0  0  0  0  0
   -1.3115    2.5197    0.2448 H   0  0  0  0  0  0  0  0  0  0  0  0
   -1.1526    1.3057    1.5295 H   0  0  0  0  0  0  0  0  0  0  0  0
   -2.6391    1.3570    0.4318 H   0  0  0  0  0  0  0  0  0  0  0  0
   -1.4592    0.5875   -1.4447 H   0  0  0  0  0  0  0  0  0  0  0  0
    0.7440    1.1635   -1.9607 H   0  0  0  0  0  0  0  0  0  0  0  0
    0.3213    2.4015   -0.7457 H   0  0  0  0  0  0  0  0  0  0  0  0
    1.3975    1.0964    1.0100 H   0  0  0  0  0  0  0  0  0  0  0  0
    2.5074    1.5096   -0.4118 H   0  0  0  0  0  0  0  0  0  0  0  0
    3.1231   -0.6993   -0.2179 H   0  0  0  0  0  0  0  0  0  0  0  0
    1.7154   -0.9014   -1.2862 H   0  0  0  0  0  0  0  0  0  0  0  0
    1.5635   -2.4206    0.7409 H   0  0  0  0  0  0  0  0  0  0  0  0
    1.9770   -1.0193    1.7594 H   0  0  0  0  0  0  0  0  0  0  0  0
   -0.2409   -1.3885   -0.9644 H   0  0  0  0  0  0  0  0  0  0  0  0
   -1.9620   -2.2949    0.7760 H   0  0  0  0  0  0  0  0  0  0  0  0
   -2.6659   -0.6659    0.6956 H   0  0  0  0  0  0  0  0  0  0  0  0
   -2.5071   -1.7174   -0.8152 H   0  0  0  0  0  0  0  0  0  0  0  0
  1  2  1  0
  2  3  1  0
  3  4  1  0
  4  5  1  0
  5  6  1  0
  6  7  1  0
  7  8  1  0
  8  9  1  0
  8  2  1  0
  1 10  1  0
  1 11  1  0
  1 12  1  0
  2 13  1  0
  3 14  1  0
  3 15  1  0
  4 16  1  0
  4 17  1  0
  5 18  1  0
  5 19  1  0
  6 20  1  0
  6 21  1  0
  8 22  1  0
  9 23  1  0
  9 24  1  0
  9 25  1  0
M  END
