
     RDKit          3D

 21 22  0  0  0  0  0  0  0  0999 V2000
   -1.3921   -1.0609    0.6264 C   0  0  0  0  0  0  0  0  0  0  0  0
   -0.7461   -0.2119   -0.3997 C   0  0  0  0  0  0  0  0  0  0  0  0
   -1.2799    1.2216   -0.2974 C   0  0  0  0  0  0  0  0  0  0  0  0
   -0.0118    2.0184   -0.1119 C   0  0  0  0  0  0  0  0  0  0  0  0
    1.0298    1.2702   -0.6187 O   0  0  0  0  0  0  0  0  0  0  0  0
    0.7124   -0.0170   -0.2654 C   0  0  0  0  0  0  0  0  0  0  0  0
    1.4052   -0.6087    0.9108 C   0  0  0  0  0  0  0  0  0  0  0  0
    1.3924   -1.8493    0.2328 O   0  0  0  0  0  0  0  0  0  0  0  0
    1.5226   -1.1072   -0.9513 C   0  0  0  0  0  0  0  0  0  0  0  0
   -1.9985   -0.4378    1.3162 H   0  0  0  0  0  0  0  0  0  0  0  0
   -2.1185   -1.7562    0.1303 H   0  0  0  0  0  0  0  0  0  0  0  0
   -0.7214   -1.6947    1.2186 H   0  0  0  0  0  0  0  0  0  0  0  0
   -0.9601   -0.5551   -1.4454 H   0  0  0  0  0  0  0  0  0  0  0  0
   -1.9108    1.3331    0.6014 H   0  0  0  0  0  0  0  0  0  0  0  0
   -1.8274    1.5116   -1.2003 H   0  0  0  0  0  0  0  0  0  0  0  0
    0.1565    2.1870    0.9661 H   0  0  0  0  0  0  0  0  0  0  0  0
   -0.1463    2.9951   -0.6069 H   0  0  0  0  0  0  0  0  0  0  0  0
    0.8791   -0.6124    1.8737 H   0  0  0  0  0  0  0  0  0  0  0  0
    2.4720   -0.2662    0.9386 H   0  0  0  0  0  0  0  0  0  0  0  0
    2.5331   -0.7233   -1.1568 H   0  0  0  0  0  0  0  0  0  0  0  0
    1.0097   -1.6365   -1.7612 H   0  0  0  0  0  0  0  0  0  0  0  0
  1  2  1  0
  2  3  1  0
  3  4  1  0
  4  5  1  0
  5  6  1  0
  6  7  1  0
  7  8  1  0
  8  9  1  0
  6  2  1  0
  9  6  1  0
  1 10  1  0
  1 11  1  0
  1 12  1  0
  2 13  1  0
  3 14  1  0
  3 15  1  0
  4 16  1  0
  4 17  1  0
  7 18  1  0
  7 19  1  0
  9 20  1  0
  9 21  1  0
M  END
