
     RDKit          3D

 21 22  0  0  0  0  0  0  0  0999 V2000
   -2.2577   -0.4585    0.4007 C   0  0  0  0  0  0  0  0  0  0  0  0
   -0.9058   -0.4278   -0.2836 C   0  0  0  0  0  0  0  0  0  0  0  0
   -0.7530    0.8776   -1.0263 C   0  0  0  0  0  0  0  0  0  0  0  0
    0.1149    1.6592   -0.1248 C   0  0  0  0  0  0  0  0  0  0  0  0
    0.0853    2.8548    0.0198 O   0  0  0  0  0  0  0  0  0  0  0  0
    1.0321    0.7519    0.5791 C   0  0  0  0  0  0  0  0  0  0  0  0
    2.0206    0.0120   -0.2805 C   0  0  0  0  0  0  0  0  0  0  0  0
    1.4262   -1.2829    0.2350 C   0  0  0  0  0  0  0  0  0  0  0  0
    0.2192   -0.5130    0.7019 C   0  0  0  0  0  0  0  0  0  0  0  0
   -3.0291   -0.5056   -0.3870 H   0  0  0  0  0  0  0  0  0  0  0  0
   -2.4015    0.4761    0.9999 H   0  0  0  0  0  0  0  0  0  0  0  0
   -2.3772   -1.3334    1.0409 H   0  0  0  0  0  0  0  0  0  0  0  0
   -0.8340   -1.2922   -0.9623 H   0  0  0  0  0  0  0  0  0  0  0  0
   -0.2528    0.6702   -2.0150 H   0  0  0  0  0  0  0  0  0  0  0  0
   -1.7179    1.3592   -1.2468 H   0  0  0  0  0  0  0  0  0  0  0  0
    1.4868    1.1210    1.5105 H   0  0  0  0  0  0  0  0  0  0  0  0
    1.8859    0.1759   -1.3682 H   0  0  0  0  0  0  0  0  0  0  0  0
    3.0715    0.1962   -0.0038 H   0  0  0  0  0  0  0  0  0  0  0  0
    2.0595   -1.6774    1.0505 H   0  0  0  0  0  0  0  0  0  0  0  0
    1.2064   -1.9600   -0.5918 H   0  0  0  0  0  0  0  0  0  0  0  0
   -0.0794   -0.7034    1.7516 H   0  0  0  0  0  0  0  0  0  0  0  0
  1  2  1  0
  2  3  1  0
  3  4  1  0
  4  5  2  0
  4  6  1  0
  6  7  1  0
  7  8  1  0
  8  9  1  0
  9  2  1  0
  9  6  1  0
  1 10  1  0
  1 11  1  0
  1 12  1  0
  2 13  1  0
  3 14  1  0
  3 15  1  0
  6 16  1  0
  7 17  1  0
  7 18  1  0
  8 19  1  0
  8 20  1  0
  9 21  1  0
M  END
