
     RDKit          3D

 19 20  0  0  0  0  0  0  0  0999 V2000
    1.8067   -0.7315   -0.2297 C   0  0  0  0  0  0  0  0  0  0  0  0
    0.9544    0.2423    0.5336 C   0  0  0  0  0  0  0  0  0  0  0  0
   -0.2880   -0.1115    1.2032 C   0  0  0  0  0  0  0  0  0  0  0  0
   -0.8721   -1.4766    1.1570 C   0  0  0  0  0  0  0  0  0  0  0  0
   -1.2353   -2.2290    2.1002 O   0  0  0  0  0  0  0  0  0  0  0  0
   -0.9587   -1.8109   -0.1824 O   0  0  0  0  0  0  0  0  0  0  0  0
   -0.9521   -0.6327   -0.9858 C   0  0  0  0  0  0  0  0  0  0  0  0
   -0.4153    0.4612   -0.1275 C   0  0  0  0  0  0  0  0  0  0  0  0
   -0.6882    1.8824   -0.4509 C   0  0  0  0  0  0  0  0  0  0  0  0
    2.4932   -1.2304    0.4732 H   0  0  0  0  0  0  0  0  0  0  0  0
    1.2603   -1.4478   -0.8316 H   0  0  0  0  0  0  0  0  0  0  0  0
    2.4585   -0.1087   -0.9086 H   0  0  0  0  0  0  0  0  0  0  0  0
    1.5055    1.1175    0.9010 H   0  0  0  0  0  0  0  0  0  0  0  0
   -0.5389    0.4320    2.1389 H   0  0  0  0  0  0  0  0  0  0  0  0
   -2.0270   -0.4106   -1.1901 H   0  0  0  0  0  0  0  0  0  0  0  0
   -0.3675   -0.7572   -1.9052 H   0  0  0  0  0  0  0  0  0  0  0  0
   -1.6580    2.0512   -0.9485 H   0  0  0  0  0  0  0  0  0  0  0  0
    0.1038    2.2192   -1.1836 H   0  0  0  0  0  0  0  0  0  0  0  0
   -0.5813    2.5410    0.4368 H   0  0  0  0  0  0  0  0  0  0  0  0
  1  2  1  0
  2  3  1  0
  3  4  1  0
  4  5  2  0
  4  6  1  0
  6  7  1  0
  7  8  1  0
  8  9  1  0
  8  2  1  0
  8  3  1  0
  1 10  1  0
  1 11  1  0
  1 12  1  0
  2 13  1  0
  3 14  1  0
  7 15  1  0
  7 16  1  0
  9 17  1  0
  9 18  1  0
  9 19  1  0
M  END
