
     RDKit          3D

 21 22  0  0  0  0  0  0  0  0999 V2000
    1.7459    0.7805    0.6145 C   0  0  0  0  0  0  0  0  0  0  0  0
    0.6457    0.6241   -0.3884 C   0  0  0  0  0  0  0  0  0  0  0  0
    0.7552   -0.8025   -0.9444 C   0  0  0  0  0  0  0  0  0  0  0  0
    0.0204   -0.8213   -2.1279 O   0  0  0  0  0  0  0  0  0  0  0  0
    0.0933   -1.6321    0.1171 C   0  0  0  0  0  0  0  0  0  0  0  0
   -0.9827   -0.7582    0.7140 C   0  0  0  0  0  0  0  0  0  0  0  0
   -0.7162    0.6333    0.1774 C   0  0  0  0  0  0  0  0  0  0  0  0
   -1.6005    1.6720    0.4179 C   0  0  0  0  0  0  0  0  0  0  0  0
   -1.6906    1.0573   -0.8638 O   0  0  0  0  0  0  0  0  0  0  0  0
    2.7142    0.7104    0.0452 H   0  0  0  0  0  0  0  0  0  0  0  0
    1.7273   -0.0234    1.3823 H   0  0  0  0  0  0  0  0  0  0  0  0
    1.7302    1.7736    1.0705 H   0  0  0  0  0  0  0  0  0  0  0  0
    0.8127    1.3272   -1.2238 H   0  0  0  0  0  0  0  0  0  0  0  0
    1.7898   -1.0649   -1.1543 H   0  0  0  0  0  0  0  0  0  0  0  0
   -0.7300   -1.4379   -2.1123 H   0  0  0  0  0  0  0  0  0  0  0  0
   -0.3853   -2.5479   -0.2755 H   0  0  0  0  0  0  0  0  0  0  0  0
    0.8675   -1.9117    0.8843 H   0  0  0  0  0  0  0  0  0  0  0  0
   -0.9446   -0.7239    1.8236 H   0  0  0  0  0  0  0  0  0  0  0  0
   -1.9858   -1.1084    0.4164 H   0  0  0  0  0  0  0  0  0  0  0  0
   -2.5234    1.4839    1.0069 H   0  0  0  0  0  0  0  0  0  0  0  0
   -1.3433    2.7699    0.4201 H   0  0  0  0  0  0  0  0  0  0  0  0
  1  2  1  0
  2  3  1  0
  3  4  1  0
  3  5  1  0
  5  6  1  0
  6  7  1  0
  7  8  1  0
  8  9  1  0
  7  2  1  0
  9  7  1  0
  1 10  1  0
  1 11  1  0
  1 12  1  0
  2 13  1  0
  3 14  1  0
  4 15  1  0
  5 16  1  0
  5 17  1  0
  6 18  1  0
  6 19  1  0
  8 20  1  0
  8 21  1  0
M  END
