
     RDKit          3D

 21 22  0  0  0  0  0  0  0  0999 V2000
   -2.5038   -0.4843   -0.4524 C   0  0  0  0  0  0  0  0  0  0  0  0
   -1.3762   -0.0007    0.4445 C   0  0  0  0  0  0  0  0  0  0  0  0
   -0.8028    1.2852   -0.1421 C   0  0  0  0  0  0  0  0  0  0  0  0
    0.1716    0.4225   -0.9127 C   0  0  0  0  0  0  0  0  0  0  0  0
    1.5303    0.9699   -0.8370 C   0  0  0  0  0  0  0  0  0  0  0  0
    2.5096    0.2964   -0.2201 C   0  0  0  0  0  0  0  0  0  0  0  0
    2.0958   -1.0252    0.3648 C   0  0  0  0  0  0  0  0  0  0  0  0
    0.8784   -0.7552    1.0328 O   0  0  0  0  0  0  0  0  0  0  0  0
   -0.0929   -0.6817    0.0690 C   0  0  0  0  0  0  0  0  0  0  0  0
   -3.3693   -0.8289    0.1818 H   0  0  0  0  0  0  0  0  0  0  0  0
   -2.1718   -1.2973   -1.1322 H   0  0  0  0  0  0  0  0  0  0  0  0
   -2.8968    0.3445   -1.0795 H   0  0  0  0  0  0  0  0  0  0  0  0
   -1.6078    0.0908    1.5032 H   0  0  0  0  0  0  0  0  0  0  0  0
   -1.4979    1.8221   -0.8155 H   0  0  0  0  0  0  0  0  0  0  0  0
   -0.3335    1.8874    0.6493 H   0  0  0  0  0  0  0  0  0  0  0  0
   -0.2083    0.1522   -1.9159 H   0  0  0  0  0  0  0  0  0  0  0  0
    1.7272    1.9347   -1.2922 H   0  0  0  0  0  0  0  0  0  0  0  0
    3.5222    0.6748   -0.1482 H   0  0  0  0  0  0  0  0  0  0  0  0
    1.8599   -1.6709   -0.5194 H   0  0  0  0  0  0  0  0  0  0  0  0
    2.8489   -1.4544    1.0210 H   0  0  0  0  0  0  0  0  0  0  0  0
   -0.2824   -1.6819   -0.3742 H   0  0  0  0  0  0  0  0  0  0  0  0
  1  2  1  0
  2  3  1  0
  3  4  1  0
  4  5  1  0
  5  6  2  0
  6  7  1  0
  7  8  1  0
  8  9  1  0
  9  2  1  0
  9  4  1  0
  1 10  1  0
  1 11  1  0
  1 12  1  0
  2 13  1  0
  3 14  1  0
  3 15  1  0
  4 16  1  0
  5 17  1  0
  6 18  1  0
  7 19  1  0
  7 20  1  0
  9 21  1  0
M  END
