
     RDKit          3D

 25 25  0  0  0  0  0  0  0  0999 V2000
    3.1772    0.5856   -0.3818 C   0  0  0  0  0  0  0  0  0  0  0  0
    1.7792    0.0569   -0.5621 C   0  0  0  0  0  0  0  0  0  0  0  0
    1.6361   -1.1805    0.2987 C   0  0  0  0  0  0  0  0  0  0  0  0
    0.1589   -1.2486    0.4601 C   0  0  0  0  0  0  0  0  0  0  0  0
   -0.3579   -0.0368    0.3222 C   0  0  0  0  0  0  0  0  0  0  0  0
   -1.7886    0.3162    0.4127 C   0  0  0  0  0  0  0  0  0  0  0  0
   -2.2929    0.9440   -0.8812 C   0  0  0  0  0  0  0  0  0  0  0  0
   -2.6550   -0.8860    0.6904 C   0  0  0  0  0  0  0  0  0  0  0  0
    0.7310    0.9579    0.0528 C   0  0  0  0  0  0  0  0  0  0  0  0
    3.2342    1.6942   -0.4227 H   0  0  0  0  0  0  0  0  0  0  0  0
    3.8192    0.1961   -1.2024 H   0  0  0  0  0  0  0  0  0  0  0  0
    3.6266    0.1829    0.5622 H   0  0  0  0  0  0  0  0  0  0  0  0
    1.5063   -0.1536   -1.5949 H   0  0  0  0  0  0  0  0  0  0  0  0
    2.0455   -2.0854   -0.1862 H   0  0  0  0  0  0  0  0  0  0  0  0
    2.0655   -0.9954    1.3087 H   0  0  0  0  0  0  0  0  0  0  0  0
   -0.4453   -2.1276    0.6601 H   0  0  0  0  0  0  0  0  0  0  0  0
   -1.9204    1.0558    1.2262 H   0  0  0  0  0  0  0  0  0  0  0  0
   -1.5533    1.6907   -1.2427 H   0  0  0  0  0  0  0  0  0  0  0  0
   -2.4026    0.1281   -1.6461 H   0  0  0  0  0  0  0  0  0  0  0  0
   -3.2738    1.4002   -0.6444 H   0  0  0  0  0  0  0  0  0  0  0  0
   -2.1731   -1.4632    1.5324 H   0  0  0  0  0  0  0  0  0  0  0  0
   -3.6612   -0.5871    0.9977 H   0  0  0  0  0  0  0  0  0  0  0  0
   -2.6841   -1.5783   -0.1607 H   0  0  0  0  0  0  0  0  0  0  0  0
    0.3910    1.7549   -0.6177 H   0  0  0  0  0  0  0  0  0  0  0  0
    1.0374    1.3791    1.0184 H   0  0  0  0  0  0  0  0  0  0  0  0
  1  2  1  0
  2  3  1  0
  3  4  1  0
  4  5  2  0
  5  6  1  0
  6  7  1  0
  6  8  1  0
  5  9  1  0
  9  2  1  0
  1 10  1  0
  1 11  1  0
  1 12  1  0
  2 13  1  0
  3 14  1  0
  3 15  1  0
  4 16  1  0
  6 17  1  0
  7 18  1  0
  7 19  1  0
  7 20  1  0
  8 21  1  0
  8 22  1  0
  8 23  1  0
  9 24  1  0
  9 25  1  0
M  END
