
     RDKit          3D

 19 19  0  0  0  0  0  0  0  0999 V2000
   -1.5815    1.4388    1.1093 C   0  0  0  0  0  0  0  0  0  0  0  0
   -2.2125    0.3126    0.3377 C   0  0  0  0  0  0  0  0  0  0  0  0
   -1.8977    0.3545   -1.1493 C   0  0  0  0  0  0  0  0  0  0  0  0
   -1.4397   -0.7541   -0.2897 C   0  0  0  0  0  0  0  0  0  0  0  0
    0.0015   -0.8246   -0.0424 C   0  0  0  0  0  0  0  0  0  0  0  0
    1.2056   -0.8771    0.1824 C   0  0  0  0  0  0  0  0  0  0  0  0
    2.6472   -0.9262    0.4295 C   0  0  0  0  0  0  0  0  0  0  0  0
    3.3880   -0.5359   -0.7845 C   0  0  0  0  0  0  0  0  0  0  0  0
    4.6138   -0.5380   -0.7092 O   0  0  0  0  0  0  0  0  0  0  0  0
   -0.4992    1.4697    0.7865 H   0  0  0  0  0  0  0  0  0  0  0  0
   -1.6470    1.3301    2.2018 H   0  0  0  0  0  0  0  0  0  0  0  0
   -2.0719    2.3802    0.7903 H   0  0  0  0  0  0  0  0  0  0  0  0
   -3.2516    0.0901    0.6496 H   0  0  0  0  0  0  0  0  0  0  0  0
   -1.2331    1.1389   -1.5377 H   0  0  0  0  0  0  0  0  0  0  0  0
   -2.8061    0.2167   -1.7939 H   0  0  0  0  0  0  0  0  0  0  0  0
   -1.9805   -1.7285   -0.4685 H   0  0  0  0  0  0  0  0  0  0  0  0
    2.8969   -0.3069    1.3245 H   0  0  0  0  0  0  0  0  0  0  0  0
    2.9765   -1.9786    0.6781 H   0  0  0  0  0  0  0  0  0  0  0  0
    2.8913   -0.2617   -1.6943 H   0  0  0  0  0  0  0  0  0  0  0  0
  1  2  1  0
  2  3  1  0
  3  4  1  0
  4  5  1  0
  5  6  3  0
  6  7  1  0
  7  8  1  0
  8  9  2  0
  4  2  1  0
  1 10  1  0
  1 11  1  0
  1 12  1  0
  2 13  1  0
  3 14  1  0
  3 15  1  0
  4 16  1  0
  7 17  1  0
  7 18  1  0
  8 19  1  0
M  END
