
     RDKit          3D

 19 19  0  0  0  0  0  0  0  0999 V2000
   -2.3128    0.4113    0.3965 C   0  0  0  0  0  0  0  0  0  0  0  0
   -1.0147   -0.1518    0.9408 C   0  0  0  0  0  0  0  0  0  0  0  0
    0.0419    0.7012    1.4665 C   0  0  0  0  0  0  0  0  0  0  0  0
    0.2088    0.0309    0.1126 C   0  0  0  0  0  0  0  0  0  0  0  0
    1.0982   -1.1727    0.0031 C   0  0  0  0  0  0  0  0  0  0  0  0
    0.7226   -1.8630   -1.1613 O   0  0  0  0  0  0  0  0  0  0  0  0
    0.2318    0.9223   -0.9446 O   0  0  0  0  0  0  0  0  0  0  0  0
    1.3203    1.1453   -1.7397 C   0  0  0  0  0  0  0  0  0  0  0  0
    2.4196    0.5607   -1.5898 O   0  0  0  0  0  0  0  0  0  0  0  0
   -2.5629   -0.2038   -0.4938 H   0  0  0  0  0  0  0  0  0  0  0  0
   -2.2507    1.4849    0.1751 H   0  0  0  0  0  0  0  0  0  0  0  0
   -3.1270    0.2013    1.1367 H   0  0  0  0  0  0  0  0  0  0  0  0
   -1.1524   -1.1372    1.4276 H   0  0  0  0  0  0  0  0  0  0  0  0
    0.7156    0.2877    2.2646 H   0  0  0  0  0  0  0  0  0  0  0  0
   -0.0954    1.7907    1.5136 H   0  0  0  0  0  0  0  0  0  0  0  0
    2.1704   -0.9810   -0.0054 H   0  0  0  0  0  0  0  0  0  0  0  0
    0.8097   -1.8708    0.8349 H   0  0  0  0  0  0  0  0  0  0  0  0
    1.4886   -2.0252   -1.7615 H   0  0  0  0  0  0  0  0  0  0  0  0
    1.2883    1.8694   -2.5759 H   0  0  0  0  0  0  0  0  0  0  0  0
  1  2  1  0
  2  3  1  0
  3  4  1  0
  4  5  1  0
  5  6  1  0
  4  7  1  0
  7  8  1  0
  8  9  2  0
  4  2  1  0
  1 10  1  0
  1 11  1  0
  1 12  1  0
  2 13  1  0
  3 14  1  0
  3 15  1  0
  5 16  1  0
  5 17  1  0
  6 18  1  0
  8 19  1  0
M  END
