
     RDKit          3D

 20 21  0  0  0  0  0  0  0  0999 V2000
    1.7518    1.0827   -0.0274 C   0  0  0  0  0  0  0  0  0  0  0  0
    1.0044   -0.1167    0.4571 C   0  0  0  0  0  0  0  0  0  0  0  0
    1.1695   -1.3611   -0.4211 C   0  0  0  0  0  0  0  0  0  0  0  0
   -0.2828   -1.1761   -0.8646 C   0  0  0  0  0  0  0  0  0  0  0  0
   -0.4473   -0.1861    0.2125 C   0  0  0  0  0  0  0  0  0  0  0  0
   -1.4341   -0.1779    1.2636 C   0  0  0  0  0  0  0  0  0  0  0  0
   -1.3971    0.8895    0.1919 C   0  0  0  0  0  0  0  0  0  0  0  0
   -2.5150    0.8143   -0.6705 O   0  0  0  0  0  0  0  0  0  0  0  0
    2.1437    1.7235    0.8057 H   0  0  0  0  0  0  0  0  0  0  0  0
    1.1477    1.7459   -0.6942 H   0  0  0  0  0  0  0  0  0  0  0  0
    2.6045    0.6952   -0.6576 H   0  0  0  0  0  0  0  0  0  0  0  0
    1.2412   -0.3568    1.5280 H   0  0  0  0  0  0  0  0  0  0  0  0
    1.2327   -2.2936    0.1835 H   0  0  0  0  0  0  0  0  0  0  0  0
    1.9152   -1.2378   -1.2095 H   0  0  0  0  0  0  0  0  0  0  0  0
   -0.2634   -0.6702   -1.8709 H   0  0  0  0  0  0  0  0  0  0  0  0
   -0.8813   -2.0889   -0.8580 H   0  0  0  0  0  0  0  0  0  0  0  0
   -2.3036   -0.8461    1.3500 H   0  0  0  0  0  0  0  0  0  0  0  0
   -1.1291    0.2341    2.2697 H   0  0  0  0  0  0  0  0  0  0  0  0
   -1.1392    1.9244    0.4458 H   0  0  0  0  0  0  0  0  0  0  0  0
   -2.4176    1.4017   -1.4339 H   0  0  0  0  0  0  0  0  0  0  0  0
  1  2  1  0
  2  3  1  0
  3  4  1  0
  4  5  1  0
  5  6  1  0
  6  7  1  0
  7  8  1  0
  5  2  1  0
  7  5  1  0
  1  9  1  0
  1 10  1  0
  1 11  1  0
  2 12  1  0
  3 13  1  0
  3 14  1  0
  4 15  1  0
  4 16  1  0
  6 17  1  0
  6 18  1  0
  7 19  1  0
  8 20  1  0
M  END
