
     RDKit          3D

 23 24  0  0  0  0  0  0  0  0999 V2000
    2.9199    0.0719    0.2228 C   0  0  0  0  0  0  0  0  0  0  0  0
    1.5040    0.5801    0.1531 C   0  0  0  0  0  0  0  0  0  0  0  0
    0.8699    0.4418   -1.1758 C   0  0  0  0  0  0  0  0  0  0  0  0
   -0.5621    0.1913   -0.8784 C   0  0  0  0  0  0  0  0  0  0  0  0
   -1.7539   -0.0624   -1.4059 C   0  0  0  0  0  0  0  0  0  0  0  0
   -2.7730   -0.1900   -0.2938 C   0  0  0  0  0  0  0  0  0  0  0  0
   -1.8380   -0.7526    0.7952 C   0  0  0  0  0  0  0  0  0  0  0  0
   -0.7236    0.2530    0.6300 C   0  0  0  0  0  0  0  0  0  0  0  0
    0.6326   -0.2583    1.0656 C   0  0  0  0  0  0  0  0  0  0  0  0
    2.9646   -1.0164    0.1917 H   0  0  0  0  0  0  0  0  0  0  0  0
    3.3146    0.3863    1.2295 H   0  0  0  0  0  0  0  0  0  0  0  0
    3.5503    0.5660   -0.5232 H   0  0  0  0  0  0  0  0  0  0  0  0
    1.4799    1.6441    0.4529 H   0  0  0  0  0  0  0  0  0  0  0  0
    1.3310   -0.3722   -1.7712 H   0  0  0  0  0  0  0  0  0  0  0  0
    0.9266    1.3594   -1.7965 H   0  0  0  0  0  0  0  0  0  0  0  0
   -1.9152   -0.1536   -2.4734 H   0  0  0  0  0  0  0  0  0  0  0  0
   -3.5677   -0.8880   -0.5408 H   0  0  0  0  0  0  0  0  0  0  0  0
   -3.1317    0.8183    0.0020 H   0  0  0  0  0  0  0  0  0  0  0  0
   -1.4917   -1.7368    0.4868 H   0  0  0  0  0  0  0  0  0  0  0  0
   -2.3057   -0.7036    1.7858 H   0  0  0  0  0  0  0  0  0  0  0  0
   -0.9603    1.2529    0.9778 H   0  0  0  0  0  0  0  0  0  0  0  0
    0.8385   -0.1149    2.1253 H   0  0  0  0  0  0  0  0  0  0  0  0
    0.6910   -1.3164    0.7405 H   0  0  0  0  0  0  0  0  0  0  0  0
  1  2  1  0
  2  3  1  0
  3  4  1  0
  4  5  2  0
  5  6  1  0
  6  7  1  0
  7  8  1  0
  8  9  1  0
  9  2  1  0
  8  4  1  0
  1 10  1  0
  1 11  1  0
  1 12  1  0
  2 13  1  0
  3 14  1  0
  3 15  1  0
  5 16  1  0
  6 17  1  0
  6 18  1  0
  7 19  1  0
  7 20  1  0
  8 21  1  0
  9 22  1  0
  9 23  1  0
M  END
