
     RDKit          3D

 21 23  0  0  0  0  0  0  0  0999 V2000
   -2.1200   -1.1030   -0.3621 C   0  0  0  0  0  0  0  0  0  0  0  0
   -1.2711    0.0893   -0.1020 C   0  0  0  0  0  0  0  0  0  0  0  0
   -0.1777   -0.1178    0.9478 C   0  0  0  0  0  0  0  0  0  0  0  0
    0.0896    1.2013    1.5926 C   0  0  0  0  0  0  0  0  0  0  0  0
    0.7014    1.9855    0.7172 C   0  0  0  0  0  0  0  0  0  0  0  0
    0.9016    1.2850   -0.5755 C   0  0  0  0  0  0  0  0  0  0  0  0
   -0.1778    0.3799   -1.0927 C   0  0  0  0  0  0  0  0  0  0  0  0
    0.8069   -0.1337   -0.1611 C   0  0  0  0  0  0  0  0  0  0  0  0
    1.8121   -1.1547   -0.3907 C   0  0  0  0  0  0  0  0  0  0  0  0
   -2.2343   -1.6479    0.6208 H   0  0  0  0  0  0  0  0  0  0  0  0
   -1.7264   -1.8051   -1.1029 H   0  0  0  0  0  0  0  0  0  0  0  0
   -3.1738   -0.8332   -0.6414 H   0  0  0  0  0  0  0  0  0  0  0  0
   -1.8937    0.9915    0.0646 H   0  0  0  0  0  0  0  0  0  0  0  0
   -0.2854   -0.9753    1.5913 H   0  0  0  0  0  0  0  0  0  0  0  0
   -0.1903    1.4287    2.6098 H   0  0  0  0  0  0  0  0  0  0  0  0
    1.0063    2.9957    0.9318 H   0  0  0  0  0  0  0  0  0  0  0  0
    1.7676    1.5401   -1.2125 H   0  0  0  0  0  0  0  0  0  0  0  0
   -0.2761    0.1458   -2.1432 H   0  0  0  0  0  0  0  0  0  0  0  0
    1.6121   -1.9081   -1.1657 H   0  0  0  0  0  0  0  0  0  0  0  0
    2.7888   -0.6633   -0.6762 H   0  0  0  0  0  0  0  0  0  0  0  0
    2.0403   -1.7009    0.5502 H   0  0  0  0  0  0  0  0  0  0  0  0
  1  2  1  0
  2  3  1  0
  3  4  1  0
  4  5  2  0
  5  6  1  0
  6  7  1  0
  7  8  1  0
  8  9  1  0
  7  2  1  0
  8  3  1  0
  8  6  1  0
  1 10  1  0
  1 11  1  0
  1 12  1  0
  2 13  1  0
  3 14  1  0
  4 15  1  0
  5 16  1  0
  6 17  1  0
  7 18  1  0
  9 19  1  0
  9 20  1  0
  9 21  1  0
M  END
