
     RDKit          3D

 21 23  0  0  0  0  0  0  0  0999 V2000
   -1.0274   -2.1023    0.0211 C   0  0  0  0  0  0  0  0  0  0  0  0
   -0.8025   -0.7087   -0.4452 C   0  0  0  0  0  0  0  0  0  0  0  0
   -1.5681    0.2862    0.4275 C   0  0  0  0  0  0  0  0  0  0  0  0
   -1.7152    1.6838    0.2360 C   0  0  0  0  0  0  0  0  0  0  0  0
   -0.4691    1.2147   -0.2546 C   0  0  0  0  0  0  0  0  0  0  0  0
    0.3619    0.0264    0.2536 C   0  0  0  0  0  0  0  0  0  0  0  0
    1.6650   -0.0875   -0.4563 C   0  0  0  0  0  0  0  0  0  0  0  0
    2.8259    0.5879    0.1486 C   0  0  0  0  0  0  0  0  0  0  0  0
    2.2122    1.1199   -0.9886 O   0  0  0  0  0  0  0  0  0  0  0  0
   -0.9910   -2.1180    1.1286 H   0  0  0  0  0  0  0  0  0  0  0  0
   -2.0940   -2.3668   -0.2362 H   0  0  0  0  0  0  0  0  0  0  0  0
   -0.3985   -2.8575   -0.4521 H   0  0  0  0  0  0  0  0  0  0  0  0
   -0.8135   -0.5130   -1.5113 H   0  0  0  0  0  0  0  0  0  0  0  0
   -1.3104    0.0062    1.5017 H   0  0  0  0  0  0  0  0  0  0  0  0
   -1.6808    2.4118    1.1005 H   0  0  0  0  0  0  0  0  0  0  0  0
   -2.5456    2.0068   -0.4615 H   0  0  0  0  0  0  0  0  0  0  0  0
   -0.4395    1.1158   -1.3882 H   0  0  0  0  0  0  0  0  0  0  0  0
    0.3592   -0.0466    1.3372 H   0  0  0  0  0  0  0  0  0  0  0  0
    1.8855   -1.0136   -1.0212 H   0  0  0  0  0  0  0  0  0  0  0  0
    2.6823    1.1143    1.1158 H   0  0  0  0  0  0  0  0  0  0  0  0
    3.8636    0.2401   -0.0555 H   0  0  0  0  0  0  0  0  0  0  0  0
  1  2  1  0
  2  3  1  0
  3  4  1  0
  4  5  1  0
  5  6  1  0
  6  7  1  0
  7  8  1  0
  8  9  1  0
  6  2  1  0
  9  7  1  0
  5  3  1  0
  1 10  1  0
  1 11  1  0
  1 12  1  0
  2 13  1  0
  3 14  1  0
  4 15  1  0
  4 16  1  0
  5 17  1  0
  6 18  1  0
  7 19  1  0
  8 20  1  0
  8 21  1  0
M  END
