
     RDKit          3D

 21 22  0  0  0  0  0  0  0  0999 V2000
    2.9253   -0.2560   -0.3972 C   0  0  0  0  0  0  0  0  0  0  0  0
    1.8119    0.1125    0.5404 C   0  0  0  0  0  0  0  0  0  0  0  0
    0.6575    0.8655   -0.0783 C   0  0  0  0  0  0  0  0  0  0  0  0
    0.3732   -0.3131   -0.7554 O   0  0  0  0  0  0  0  0  0  0  0  0
    0.6169   -0.7779    0.5313 C   0  0  0  0  0  0  0  0  0  0  0  0
   -0.1830    0.3904    1.0188 C   0  0  0  0  0  0  0  0  0  0  0  0
   -1.6542    0.3550    0.8842 C   0  0  0  0  0  0  0  0  0  0  0  0
   -2.2057   -0.4898   -0.2079 C   0  0  0  0  0  0  0  0  0  0  0  0
   -3.6147   -0.3731   -0.1446 O   0  0  0  0  0  0  0  0  0  0  0  0
    3.1613   -1.3374   -0.3947 H   0  0  0  0  0  0  0  0  0  0  0  0
    3.8601    0.2651   -0.1052 H   0  0  0  0  0  0  0  0  0  0  0  0
    2.6029    0.0024   -1.4393 H   0  0  0  0  0  0  0  0  0  0  0  0
    2.1330    0.4614    1.5394 H   0  0  0  0  0  0  0  0  0  0  0  0
    0.7294    1.7823   -0.4987 H   0  0  0  0  0  0  0  0  0  0  0  0
    0.5532   -1.7325    0.8469 H   0  0  0  0  0  0  0  0  0  0  0  0
    0.1221    0.7954    2.0073 H   0  0  0  0  0  0  0  0  0  0  0  0
   -2.1236    0.0400    1.8396 H   0  0  0  0  0  0  0  0  0  0  0  0
   -2.0055    1.4085    0.6943 H   0  0  0  0  0  0  0  0  0  0  0  0
   -1.9050   -0.1680   -1.2248 H   0  0  0  0  0  0  0  0  0  0  0  0
   -1.9860   -1.5655   -0.0964 H   0  0  0  0  0  0  0  0  0  0  0  0
   -3.8690    0.5350    0.1635 H   0  0  0  0  0  0  0  0  0  0  0  0
  1  2  1  0
  2  3  1  0
  3  4  1  0
  4  5  1  0
  5  6  1  0
  6  7  1  0
  7  8  1  0
  8  9  1  0
  5  2  1  0
  6  3  1  0
  1 10  1  0
  1 11  1  0
  1 12  1  0
  2 13  1  0
  3 14  1  0
  5 15  1  0
  6 16  1  0
  7 17  1  0
  7 18  1  0
  8 19  1  0
  8 20  1  0
  9 21  1  0
M  END
