
     RDKit          3D

 19 20  0  0  0  0  0  0  0  0999 V2000
   -2.3308   -0.4597   -0.1375 C   0  0  0  0  0  0  0  0  0  0  0  0
   -1.0114    0.3097   -0.2862 C   0  0  0  0  0  0  0  0  0  0  0  0
    0.0127   -0.5724   -0.8686 C   0  0  0  0  0  0  0  0  0  0  0  0
    1.3564   -0.5663   -0.2642 C   0  0  0  0  0  0  0  0  0  0  0  0
    2.1734    0.6794   -0.1478 C   0  0  0  0  0  0  0  0  0  0  0  0
    1.5558    0.0106    1.0370 C   0  0  0  0  0  0  0  0  0  0  0  0
    0.5002    0.6959    1.6369 O   0  0  0  0  0  0  0  0  0  0  0  0
   -0.6996    0.8853    1.0185 C   0  0  0  0  0  0  0  0  0  0  0  0
   -1.5750    1.5828    1.5913 O   0  0  0  0  0  0  0  0  0  0  0  0
   -2.5862   -0.9279   -1.1098 H   0  0  0  0  0  0  0  0  0  0  0  0
   -2.0703   -1.3229    0.5419 H   0  0  0  0  0  0  0  0  0  0  0  0
   -3.1246    0.1619    0.2863 H   0  0  0  0  0  0  0  0  0  0  0  0
   -1.2726    1.1706   -0.9701 H   0  0  0  0  0  0  0  0  0  0  0  0
    0.1258   -0.3016   -1.9603 H   0  0  0  0  0  0  0  0  0  0  0  0
   -0.3555   -1.6329   -0.8956 H   0  0  0  0  0  0  0  0  0  0  0  0
    1.9796   -1.4747   -0.5201 H   0  0  0  0  0  0  0  0  0  0  0  0
    1.7832    1.6407   -0.5106 H   0  0  0  0  0  0  0  0  0  0  0  0
    3.2911    0.6231   -0.1991 H   0  0  0  0  0  0  0  0  0  0  0  0
    2.2477   -0.5018    1.7580 H   0  0  0  0  0  0  0  0  0  0  0  0
  1  2  1  0
  2  3  1  0
  3  4  1  0
  4  5  1  0
  5  6  1  0
  6  7  1  0
  7  8  1  0
  8  9  2  0
  8  2  1  0
  6  4  1  0
  1 10  1  0
  1 11  1  0
  1 12  1  0
  2 13  1  0
  3 14  1  0
  3 15  1  0
  4 16  1  0
  5 17  1  0
  5 18  1  0
  6 19  1  0
M  END
