
     RDKit          3D

 17 18  0  0  0  0  0  0  0  0999 V2000
    2.1436    0.0389   -0.4369 C   0  0  0  0  0  0  0  0  0  0  0  0
    0.9404    0.6250    0.2453 C   0  0  0  0  0  0  0  0  0  0  0  0
    0.4728   -0.3591    1.2934 C   0  0  0  0  0  0  0  0  0  0  0  0
    0.7520   -0.5819    2.4769 O   0  0  0  0  0  0  0  0  0  0  0  0
   -0.4447   -0.9077    0.2637 C   0  0  0  0  0  0  0  0  0  0  0  0
   -1.7447   -1.0013    0.7235 O   0  0  0  0  0  0  0  0  0  0  0  0
   -2.3642    0.2060    0.5295 C   0  0  0  0  0  0  0  0  0  0  0  0
   -1.3916    1.1333    0.1564 O   0  0  0  0  0  0  0  0  0  0  0  0
   -0.3746    0.4226   -0.4505 C   0  0  0  0  0  0  0  0  0  0  0  0
    2.0360   -1.0733   -0.4738 H   0  0  0  0  0  0  0  0  0  0  0  0
    3.0167    0.2221    0.2338 H   0  0  0  0  0  0  0  0  0  0  0  0
    2.3125    0.3899   -1.4518 H   0  0  0  0  0  0  0  0  0  0  0  0
    1.0879    1.5997    0.7467 H   0  0  0  0  0  0  0  0  0  0  0  0
   -0.0620   -1.7650   -0.3184 H   0  0  0  0  0  0  0  0  0  0  0  0
   -3.1394    0.1658   -0.2794 H   0  0  0  0  0  0  0  0  0  0  0  0
   -2.8693    0.4891    1.4876 H   0  0  0  0  0  0  0  0  0  0  0  0
   -0.3714    0.3959   -1.5392 H   0  0  0  0  0  0  0  0  0  0  0  0
  1  2  1  0
  2  3  1  0
  3  4  2  0
  3  5  1  0
  5  6  1  0
  6  7  1  0
  7  8  1  0
  8  9  1  0
  9  2  1  0
  9  5  1  0
  1 10  1  0
  1 11  1  0
  1 12  1  0
  2 13  1  0
  5 14  1  0
  7 15  1  0
  7 16  1  0
  9 17  1  0
M  END
