
     RDKit          3D

 21 21  0  0  0  0  0  0  0  0999 V2000
   -2.3199   -0.5147    0.3392 C   0  0  0  0  0  0  0  0  0  0  0  0
   -0.9643   -0.0498   -0.1190 C   0  0  0  0  0  0  0  0  0  0  0  0
    0.1139   -1.0040    0.4132 C   0  0  0  0  0  0  0  0  0  0  0  0
    1.2743   -1.0662   -0.5088 C   0  0  0  0  0  0  0  0  0  0  0  0
    2.2663    0.0330   -0.3613 C   0  0  0  0  0  0  0  0  0  0  0  0
    1.7627    1.3156   -0.3633 O   0  0  0  0  0  0  0  0  0  0  0  0
    0.5335    1.9009   -0.2472 C   0  0  0  0  0  0  0  0  0  0  0  0
    0.3155    3.0168   -0.7483 O   0  0  0  0  0  0  0  0  0  0  0  0
   -0.6211    1.3041    0.4529 C   0  0  0  0  0  0  0  0  0  0  0  0
   -3.0684   -0.5167   -0.4884 H   0  0  0  0  0  0  0  0  0  0  0  0
   -2.6918    0.0949    1.1751 H   0  0  0  0  0  0  0  0  0  0  0  0
   -2.2569   -1.5714    0.7070 H   0  0  0  0  0  0  0  0  0  0  0  0
   -0.9300   -0.0371   -1.2159 H   0  0  0  0  0  0  0  0  0  0  0  0
   -0.3857   -2.0130    0.4141 H   0  0  0  0  0  0  0  0  0  0  0  0
    0.3635   -0.7697    1.4487 H   0  0  0  0  0  0  0  0  0  0  0  0
    1.8164   -2.0333   -0.3195 H   0  0  0  0  0  0  0  0  0  0  0  0
    0.9072   -1.1018   -1.5546 H   0  0  0  0  0  0  0  0  0  0  0  0
    2.9845   -0.0494   -1.2242 H   0  0  0  0  0  0  0  0  0  0  0  0
    2.9121   -0.0982    0.5510 H   0  0  0  0  0  0  0  0  0  0  0  0
   -1.5415    1.9345    0.3312 H   0  0  0  0  0  0  0  0  0  0  0  0
   -0.4705    1.2255    1.5477 H   0  0  0  0  0  0  0  0  0  0  0  0
  1  2  1  0
  2  3  1  0
  3  4  1  0
  4  5  1  0
  5  6  1  0
  6  7  1  0
  7  8  2  0
  7  9  1  0
  9  2  1  0
  1 10  1  0
  1 11  1  0
  1 12  1  0
  2 13  1  0
  3 14  1  0
  3 15  1  0
  4 16  1  0
  4 17  1  0
  5 18  1  0
  5 19  1  0
  9 20  1  0
  9 21  1  0
M  END
