
     RDKit          3D

 21 22  0  0  0  0  0  0  0  0999 V2000
    2.2705    0.6934    0.3269 C   0  0  0  0  0  0  0  0  0  0  0  0
    1.0146    0.0946   -0.2796 C   0  0  0  0  0  0  0  0  0  0  0  0
    0.9115   -1.3899   -0.0310 C   0  0  0  0  0  0  0  0  0  0  0  0
   -0.2524   -1.8249   -0.6614 O   0  0  0  0  0  0  0  0  0  0  0  0
   -1.3740   -1.3794   -0.0192 C   0  0  0  0  0  0  0  0  0  0  0  0
   -1.4549    0.0994    0.1691 C   0  0  0  0  0  0  0  0  0  0  0  0
   -2.4730    0.4974    1.0553 O   0  0  0  0  0  0  0  0  0  0  0  0
   -1.2275    1.0575   -0.9376 C   0  0  0  0  0  0  0  0  0  0  0  0
   -0.1987    0.8322    0.1757 C   0  0  0  0  0  0  0  0  0  0  0  0
    2.4557    0.2235    1.2881 H   0  0  0  0  0  0  0  0  0  0  0  0
    2.0746    1.7968    0.3925 H   0  0  0  0  0  0  0  0  0  0  0  0
    3.1412    0.5902   -0.3791 H   0  0  0  0  0  0  0  0  0  0  0  0
    1.1514    0.2075   -1.3961 H   0  0  0  0  0  0  0  0  0  0  0  0
    0.9430   -1.6061    1.0401 H   0  0  0  0  0  0  0  0  0  0  0  0
    1.7545   -1.9061   -0.5415 H   0  0  0  0  0  0  0  0  0  0  0  0
   -1.4940   -1.8446    1.0008 H   0  0  0  0  0  0  0  0  0  0  0  0
   -2.2669   -1.7395   -0.5903 H   0  0  0  0  0  0  0  0  0  0  0  0
   -2.2112    1.2844    1.5598 H   0  0  0  0  0  0  0  0  0  0  0  0
   -1.6718    2.0535   -0.9045 H   0  0  0  0  0  0  0  0  0  0  0  0
   -1.0337    0.6500   -1.9320 H   0  0  0  0  0  0  0  0  0  0  0  0
   -0.0590    1.6101    0.9352 H   0  0  0  0  0  0  0  0  0  0  0  0
  1  2  1  0
  2  3  1  0
  3  4  1  0
  4  5  1  0
  5  6  1  0
  6  7  1  0
  6  8  1  0
  8  9  1  0
  9  2  1  0
  9  6  1  0
  1 10  1  0
  1 11  1  0
  1 12  1  0
  2 13  1  0
  3 14  1  0
  3 15  1  0
  5 16  1  0
  5 17  1  0
  7 18  1  0
  8 19  1  0
  8 20  1  0
  9 21  1  0
M  END
