
     RDKit          3D

 18 18  0  0  0  0  0  0  0  0999 V2000
    2.3088   -0.8675    0.2077 C   0  0  0  0  0  0  0  0  0  0  0  0
    1.1522   -0.1698   -0.4519 C   0  0  0  0  0  0  0  0  0  0  0  0
    0.8791    1.1675    0.1542 C   0  0  0  0  0  0  0  0  0  0  0  0
   -0.4382    1.3866    0.1622 C   0  0  0  0  0  0  0  0  0  0  0  0
   -1.1471    0.2041   -0.4419 C   0  0  0  0  0  0  0  0  0  0  0  0
   -2.4315   -0.0540    0.2937 C   0  0  0  0  0  0  0  0  0  0  0  0
   -0.1379   -0.8512   -0.2595 C   0  0  0  0  0  0  0  0  0  0  0  0
   -0.3177   -2.0062   -0.0105 O   0  0  0  0  0  0  0  0  0  0  0  0
    3.2373   -0.3390   -0.1600 H   0  0  0  0  0  0  0  0  0  0  0  0
    2.3689   -1.8842   -0.2283 H   0  0  0  0  0  0  0  0  0  0  0  0
    2.2419   -0.8572    1.2938 H   0  0  0  0  0  0  0  0  0  0  0  0
    1.3729   -0.0372   -1.5386 H   0  0  0  0  0  0  0  0  0  0  0  0
    1.5763    1.9014    0.5475 H   0  0  0  0  0  0  0  0  0  0  0  0
   -0.9918    2.2421    0.5227 H   0  0  0  0  0  0  0  0  0  0  0  0
   -1.3466    0.3509   -1.5168 H   0  0  0  0  0  0  0  0  0  0  0  0
   -2.3248    0.1445    1.3879 H   0  0  0  0  0  0  0  0  0  0  0  0
   -2.8360   -1.0474    0.1102 H   0  0  0  0  0  0  0  0  0  0  0  0
   -3.1659    0.7165   -0.0723 H   0  0  0  0  0  0  0  0  0  0  0  0
  1  2  1  0
  2  3  1  0
  3  4  2  0
  4  5  1  0
  5  6  1  0
  5  7  1  0
  7  8  2  0
  7  2  1  0
  1  9  1  0
  1 10  1  0
  1 11  1  0
  2 12  1  0
  3 13  1  0
  4 14  1  0
  5 15  1  0
  6 16  1  0
  6 17  1  0
  6 18  1  0
M  END
