
     RDKit          3D

 21 22  0  0  0  0  0  0  0  0999 V2000
    2.7785   -0.3654   -0.8245 C   0  0  0  0  0  0  0  0  0  0  0  0
    1.7236   -0.4657    0.2324 C   0  0  0  0  0  0  0  0  0  0  0  0
    1.0093    0.8499    0.5469 C   0  0  0  0  0  0  0  0  0  0  0  0
   -0.0457   -0.1773    0.8396 C   0  0  0  0  0  0  0  0  0  0  0  0
   -1.4679    0.2453    0.6901 C   0  0  0  0  0  0  0  0  0  0  0  0
   -1.9931    0.9961    1.7255 O   0  0  0  0  0  0  0  0  0  0  0  0
   -2.3759   -0.8927    0.2162 C   0  0  0  0  0  0  0  0  0  0  0  0
   -2.1495    0.3222   -0.6102 C   0  0  0  0  0  0  0  0  0  0  0  0
    0.4834   -0.9344   -0.2047 O   0  0  0  0  0  0  0  0  0  0  0  0
    3.0576   -1.4019   -1.1041 H   0  0  0  0  0  0  0  0  0  0  0  0
    3.6400    0.1813   -0.4487 H   0  0  0  0  0  0  0  0  0  0  0  0
    2.3862    0.1164   -1.7317 H   0  0  0  0  0  0  0  0  0  0  0  0
    2.0359   -0.9635    1.1504 H   0  0  0  0  0  0  0  0  0  0  0  0
    0.8774    1.4450   -0.3640 H   0  0  0  0  0  0  0  0  0  0  0  0
    1.4187    1.3914    1.4217 H   0  0  0  0  0  0  0  0  0  0  0  0
    0.1722   -0.6772    1.8074 H   0  0  0  0  0  0  0  0  0  0  0  0
   -1.6783    1.9165    1.7192 H   0  0  0  0  0  0  0  0  0  0  0  0
   -3.3336   -1.0432    0.7544 H   0  0  0  0  0  0  0  0  0  0  0  0
   -1.9313   -1.8148   -0.1570 H   0  0  0  0  0  0  0  0  0  0  0  0
   -3.0376    0.9932   -0.6863 H   0  0  0  0  0  0  0  0  0  0  0  0
   -1.5701    0.2786   -1.5422 H   0  0  0  0  0  0  0  0  0  0  0  0
  1  2  1  0
  2  3  1  0
  3  4  1  0
  4  5  1  0
  5  6  1  0
  5  7  1  0
  7  8  1  0
  4  9  1  0
  9  2  1  0
  8  5  1  0
  1 10  1  0
  1 11  1  0
  1 12  1  0
  2 13  1  0
  3 14  1  0
  3 15  1  0
  4 16  1  0
  6 17  1  0
  7 18  1  0
  7 19  1  0
  8 20  1  0
  8 21  1  0
M  END
