
     RDKit          3D

 21 21  0  0  0  0  0  0  0  0999 V2000
    1.9296   -0.7612   -0.3737 C   0  0  0  0  0  0  0  0  0  0  0  0
    1.3280    0.3941    0.3616 C   0  0  0  0  0  0  0  0  0  0  0  0
    0.4094   -0.0388    1.4523 C   0  0  0  0  0  0  0  0  0  0  0  0
   -0.7694   -0.5975    1.3716 C   0  0  0  0  0  0  0  0  0  0  0  0
   -1.5859   -0.9867    0.1829 C   0  0  0  0  0  0  0  0  0  0  0  0
   -1.8768    0.3100   -0.5731 C   0  0  0  0  0  0  0  0  0  0  0  0
   -0.5866    0.7200   -1.1960 C   0  0  0  0  0  0  0  0  0  0  0  0
   -0.5128    0.5060   -2.3776 O   0  0  0  0  0  0  0  0  0  0  0  0
    0.5685    1.3388   -0.5395 C   0  0  0  0  0  0  0  0  0  0  0  0
    1.3814   -1.7132   -0.1318 H   0  0  0  0  0  0  0  0  0  0  0  0
    2.0134   -0.6158   -1.4613 H   0  0  0  0  0  0  0  0  0  0  0  0
    2.9837   -0.9632   -0.0198 H   0  0  0  0  0  0  0  0  0  0  0  0
    2.1708    0.9900    0.7922 H   0  0  0  0  0  0  0  0  0  0  0  0
    0.7773    0.1375    2.4584 H   0  0  0  0  0  0  0  0  0  0  0  0
   -1.2454   -0.8210    2.3210 H   0  0  0  0  0  0  0  0  0  0  0  0
   -2.5111   -1.4766    0.4766 H   0  0  0  0  0  0  0  0  0  0  0  0
   -0.9881   -1.6285   -0.5131 H   0  0  0  0  0  0  0  0  0  0  0  0
   -2.6865    0.1735   -1.3180 H   0  0  0  0  0  0  0  0  0  0  0  0
   -2.2265    1.0314    0.1940 H   0  0  0  0  0  0  0  0  0  0  0  0
    1.2580    1.8526   -1.2421 H   0  0  0  0  0  0  0  0  0  0  0  0
    0.1691    2.1487    0.1352 H   0  0  0  0  0  0  0  0  0  0  0  0
  1  2  1  0
  2  3  1  0
  3  4  2  0
  4  5  1  0
  5  6  1  0
  6  7  1  0
  7  8  2  0
  7  9  1  0
  9  2  1  0
  1 10  1  0
  1 11  1  0
  1 12  1  0
  2 13  1  0
  3 14  1  0
  4 15  1  0
  5 16  1  0
  5 17  1  0
  6 18  1  0
  6 19  1  0
  9 20  1  0
  9 21  1  0
M  END
