
     RDKit          3D

 21 22  0  0  0  0  0  0  0  0999 V2000
   -1.8671   -0.3777    0.9115 C   0  0  0  0  0  0  0  0  0  0  0  0
   -1.0617    0.0282   -0.2750 C   0  0  0  0  0  0  0  0  0  0  0  0
   -0.4904   -1.0707   -1.1180 C   0  0  0  0  0  0  0  0  0  0  0  0
    0.7849   -0.2547   -1.1397 C   0  0  0  0  0  0  0  0  0  0  0  0
    1.5140   -0.1851    0.1189 C   0  0  0  0  0  0  0  0  0  0  0  0
    1.6113   -1.4158    0.9322 C   0  0  0  0  0  0  0  0  0  0  0  0
    2.6626   -1.7254    1.4646 O   0  0  0  0  0  0  0  0  0  0  0  0
    0.2745    0.5995    0.0419 C   0  0  0  0  0  0  0  0  0  0  0  0
    0.3877    2.0814   -0.0368 C   0  0  0  0  0  0  0  0  0  0  0  0
   -2.9354   -0.4755    0.5803 H   0  0  0  0  0  0  0  0  0  0  0  0
   -1.8580    0.4906    1.6338 H   0  0  0  0  0  0  0  0  0  0  0  0
   -1.4680   -1.2957    1.3556 H   0  0  0  0  0  0  0  0  0  0  0  0
   -1.6650    0.7194   -0.9314 H   0  0  0  0  0  0  0  0  0  0  0  0
   -0.9464   -1.1860   -2.1257 H   0  0  0  0  0  0  0  0  0  0  0  0
   -0.3795   -2.0194   -0.5553 H   0  0  0  0  0  0  0  0  0  0  0  0
    1.0011    0.3770   -2.0201 H   0  0  0  0  0  0  0  0  0  0  0  0
    2.4663    0.3945    0.0635 H   0  0  0  0  0  0  0  0  0  0  0  0
    0.7811   -2.0926    1.0977 H   0  0  0  0  0  0  0  0  0  0  0  0
    1.1075    2.4280    0.7576 H   0  0  0  0  0  0  0  0  0  0  0  0
   -0.5971    2.5149    0.2725 H   0  0  0  0  0  0  0  0  0  0  0  0
    0.6775    2.4652   -1.0283 H   0  0  0  0  0  0  0  0  0  0  0  0
  1  2  1  0
  2  3  1  0
  3  4  1  0
  4  5  1  0
  5  6  1  0
  6  7  2  0
  5  8  1  0
  8  9  1  0
  8  2  1  0
  8  4  1  0
  1 10  1  0
  1 11  1  0
  1 12  1  0
  2 13  1  0
  3 14  1  0
  3 15  1  0
  4 16  1  0
  5 17  1  0
  6 18  1  0
  9 19  1  0
  9 20  1  0
  9 21  1  0
M  END
