
     RDKit          3D

 21 22  0  0  0  0  0  0  0  0999 V2000
   -2.8689   -0.4263   -0.0045 C   0  0  0  0  0  0  0  0  0  0  0  0
   -1.3680   -0.3798    0.0140 C   0  0  0  0  0  0  0  0  0  0  0  0
   -0.9722    0.7721   -0.8801 C   0  0  0  0  0  0  0  0  0  0  0  0
    0.3272    1.0899   -0.8019 C   0  0  0  0  0  0  0  0  0  0  0  0
    1.1454    0.2842    0.1224 C   0  0  0  0  0  0  0  0  0  0  0  0
    2.6199    0.2561    0.0409 C   0  0  0  0  0  0  0  0  0  0  0  0
    1.8565   -0.8681   -0.5230 C   0  0  0  0  0  0  0  0  0  0  0  0
    0.4207    0.1279    1.4103 C   0  0  0  0  0  0  0  0  0  0  0  0
   -0.9220   -0.0896    1.2747 O   0  0  0  0  0  0  0  0  0  0  0  0
   -3.2560   -1.0135   -0.8794 H   0  0  0  0  0  0  0  0  0  0  0  0
   -3.2627    0.6015   -0.1450 H   0  0  0  0  0  0  0  0  0  0  0  0
   -3.2747   -0.8724    0.9244 H   0  0  0  0  0  0  0  0  0  0  0  0
   -0.9006   -1.3028   -0.3695 H   0  0  0  0  0  0  0  0  0  0  0  0
   -1.6744    1.2866   -1.5195 H   0  0  0  0  0  0  0  0  0  0  0  0
    0.7163    1.9007   -1.4010 H   0  0  0  0  0  0  0  0  0  0  0  0
    3.1480    0.0910    1.0144 H   0  0  0  0  0  0  0  0  0  0  0  0
    3.1809    0.9214   -0.6366 H   0  0  0  0  0  0  0  0  0  0  0  0
    1.7918   -1.8567   -0.0273 H   0  0  0  0  0  0  0  0  0  0  0  0
    1.8528   -0.9490   -1.6320 H   0  0  0  0  0  0  0  0  0  0  0  0
    0.8992   -0.6697    2.0395 H   0  0  0  0  0  0  0  0  0  0  0  0
    0.5407    1.0965    1.9792 H   0  0  0  0  0  0  0  0  0  0  0  0
  1  2  1  0
  2  3  1  0
  3  4  2  0
  4  5  1  0
  5  6  1  0
  6  7  1  0
  5  8  1  0
  8  9  1  0
  9  2  1  0
  7  5  1  0
  1 10  1  0
  1 11  1  0
  1 12  1  0
  2 13  1  0
  3 14  1  0
  4 15  1  0
  6 16  1  0
  6 17  1  0
  7 18  1  0
  7 19  1  0
  8 20  1  0
  8 21  1  0
M  END
