
     RDKit          3D

 20 20  0  0  0  0  0  0  0  0999 V2000
   -0.8749    1.9845   -0.0763 C   0  0  0  0  0  0  0  0  0  0  0  0
   -0.7277    0.6412   -0.7161 C   0  0  0  0  0  0  0  0  0  0  0  0
   -0.4112   -0.4677    0.2612 C   0  0  0  0  0  0  0  0  0  0  0  0
   -1.2266   -1.7337    0.1493 C   0  0  0  0  0  0  0  0  0  0  0  0
   -0.8464   -2.6750    1.0953 O   0  0  0  0  0  0  0  0  0  0  0  0
    0.5211   -0.0812   -0.8565 C   0  0  0  0  0  0  0  0  0  0  0  0
    1.8519    0.4653   -0.3778 C   0  0  0  0  0  0  0  0  0  0  0  0
    1.8408    0.7109    1.0055 O   0  0  0  0  0  0  0  0  0  0  0  0
   -0.5818    2.8313   -0.7185 H   0  0  0  0  0  0  0  0  0  0  0  0
   -1.9789    2.1309    0.1199 H   0  0  0  0  0  0  0  0  0  0  0  0
   -0.3944    2.0678    0.9104 H   0  0  0  0  0  0  0  0  0  0  0  0
   -1.5294    0.4445   -1.4855 H   0  0  0  0  0  0  0  0  0  0  0  0
   -0.1495   -0.2062    1.3130 H   0  0  0  0  0  0  0  0  0  0  0  0
   -1.1547   -2.1009   -0.8872 H   0  0  0  0  0  0  0  0  0  0  0  0
   -2.2817   -1.4355    0.4232 H   0  0  0  0  0  0  0  0  0  0  0  0
   -0.0894   -3.2372    0.7988 H   0  0  0  0  0  0  0  0  0  0  0  0
    0.5880   -0.8471   -1.6588 H   0  0  0  0  0  0  0  0  0  0  0  0
    2.1329    1.4090   -0.8660 H   0  0  0  0  0  0  0  0  0  0  0  0
    2.6271   -0.3143   -0.5409 H   0  0  0  0  0  0  0  0  0  0  0  0
    2.6849    0.4134    1.4319 H   0  0  0  0  0  0  0  0  0  0  0  0
  1  2  1  0
  2  3  1  0
  3  4  1  0
  4  5  1  0
  3  6  1  0
  6  7  1  0
  7  8  1  0
  6  2  1  0
  1  9  1  0
  1 10  1  0
  1 11  1  0
  2 12  1  0
  3 13  1  0
  4 14  1  0
  4 15  1  0
  5 16  1  0
  6 17  1  0
  7 18  1  0
  7 19  1  0
  8 20  1  0
M  END
