
     RDKit          3D

 23 24  0  0  0  0  0  0  0  0999 V2000
   -2.5293   -0.1192    0.4596 C   0  0  0  0  0  0  0  0  0  0  0  0
   -1.0058    0.0238    0.4933 C   0  0  0  0  0  0  0  0  0  0  0  0
   -0.4568    0.6549   -0.7540 C   0  0  0  0  0  0  0  0  0  0  0  0
    0.8834    1.2794   -0.5874 C   0  0  0  0  0  0  0  0  0  0  0  0
    1.6235    0.8254    0.6277 C   0  0  0  0  0  0  0  0  0  0  0  0
    1.8921   -0.6429    0.6739 C   0  0  0  0  0  0  0  0  0  0  0  0
    0.8619   -1.4782    0.7696 O   0  0  0  0  0  0  0  0  0  0  0  0
   -0.2859   -1.2483    0.1054 C   0  0  0  0  0  0  0  0  0  0  0  0
   -0.2154   -0.7623   -1.2876 C   0  0  0  0  0  0  0  0  0  0  0  0
   -2.9917    0.5911    1.1791 H   0  0  0  0  0  0  0  0  0  0  0  0
   -2.8056   -1.1328    0.8114 H   0  0  0  0  0  0  0  0  0  0  0  0
   -2.9143    0.1246   -0.5415 H   0  0  0  0  0  0  0  0  0  0  0  0
   -0.7093    0.4539    1.4473 H   0  0  0  0  0  0  0  0  0  0  0  0
   -1.1966    1.2312   -1.3086 H   0  0  0  0  0  0  0  0  0  0  0  0
    1.4989    1.0335   -1.4794 H   0  0  0  0  0  0  0  0  0  0  0  0
    0.7824    2.3703   -0.5567 H   0  0  0  0  0  0  0  0  0  0  0  0
    2.6377    1.3272    0.5825 H   0  0  0  0  0  0  0  0  0  0  0  0
    1.1777    1.2197    1.5690 H   0  0  0  0  0  0  0  0  0  0  0  0
    2.5650   -0.7907    1.5730 H   0  0  0  0  0  0  0  0  0  0  0  0
    2.5568   -0.8877   -0.1964 H   0  0  0  0  0  0  0  0  0  0  0  0
   -0.9894   -2.1034    0.1992 H   0  0  0  0  0  0  0  0  0  0  0  0
   -1.0844   -1.0923   -1.9265 H   0  0  0  0  0  0  0  0  0  0  0  0
    0.7051   -0.8772   -1.8527 H   0  0  0  0  0  0  0  0  0  0  0  0
  1  2  1  0
  2  3  1  0
  3  4  1  0
  4  5  1  0
  5  6  1  0
  6  7  1  0
  7  8  1  0
  8  9  1  0
  8  2  1  0
  9  3  1  0
  1 10  1  0
  1 11  1  0
  1 12  1  0
  2 13  1  0
  3 14  1  0
  4 15  1  0
  4 16  1  0
  5 17  1  0
  5 18  1  0
  6 19  1  0
  6 20  1  0
  8 21  1  0
  9 22  1  0
  9 23  1  0
M  END
