
     RDKit          3D

 21 22  0  0  0  0  0  0  0  0999 V2000
    2.7322    0.7936    0.1257 C   0  0  0  0  0  0  0  0  0  0  0  0
    1.2835    0.5378   -0.2680 C   0  0  0  0  0  0  0  0  0  0  0  0
    0.5055   -0.3508    0.7189 C   0  0  0  0  0  0  0  0  0  0  0  0
   -0.9087    0.0008    0.9997 C   0  0  0  0  0  0  0  0  0  0  0  0
   -1.6103    0.3742   -0.2725 C   0  0  0  0  0  0  0  0  0  0  0  0
   -2.9642    0.5169    0.0176 O   0  0  0  0  0  0  0  0  0  0  0  0
   -1.4005   -0.7132   -1.2731 C   0  0  0  0  0  0  0  0  0  0  0  0
   -0.1458   -1.1295   -1.4746 O   0  0  0  0  0  0  0  0  0  0  0  0
    0.8337   -0.8389   -0.6053 C   0  0  0  0  0  0  0  0  0  0  0  0
    2.7253    1.5893    0.9211 H   0  0  0  0  0  0  0  0  0  0  0  0
    3.2416   -0.1089    0.4755 H   0  0  0  0  0  0  0  0  0  0  0  0
    3.2484    1.2562   -0.7450 H   0  0  0  0  0  0  0  0  0  0  0  0
    0.7505    1.4344   -0.5669 H   0  0  0  0  0  0  0  0  0  0  0  0
    1.0891   -0.7391    1.6042 H   0  0  0  0  0  0  0  0  0  0  0  0
   -1.4209   -0.9318    1.3751 H   0  0  0  0  0  0  0  0  0  0  0  0
   -1.0259    0.7599    1.7785 H   0  0  0  0  0  0  0  0  0  0  0  0
   -1.2813    1.3235   -0.7112 H   0  0  0  0  0  0  0  0  0  0  0  0
   -3.4317   -0.3372   -0.0496 H   0  0  0  0  0  0  0  0  0  0  0  0
   -2.1154   -1.5473   -1.0064 H   0  0  0  0  0  0  0  0  0  0  0  0
   -1.8099   -0.3276   -2.2548 H   0  0  0  0  0  0  0  0  0  0  0  0
    1.7049   -1.5624   -0.6624 H   0  0  0  0  0  0  0  0  0  0  0  0
  1  2  1  0
  2  3  1  0
  3  4  1  0
  4  5  1  0
  5  6  1  0
  5  7  1  0
  7  8  1  0
  8  9  1  0
  9  2  1  0
  9  3  1  0
  1 10  1  0
  1 11  1  0
  1 12  1  0
  2 13  1  0
  3 14  1  0
  4 15  1  0
  4 16  1  0
  5 17  1  0
  6 18  1  0
  7 19  1  0
  7 20  1  0
  9 21  1  0
M  END
