
     RDKit          3D

 23 24  0  0  0  0  0  0  0  0999 V2000
   -1.1876   -1.5206   -0.3832 C   0  0  0  0  0  0  0  0  0  0  0  0
   -0.4609   -0.5353    0.5079 C   0  0  0  0  0  0  0  0  0  0  0  0
    0.9798   -0.3664    0.0083 C   0  0  0  0  0  0  0  0  0  0  0  0
    2.0000   -1.2532    0.4573 C   0  0  0  0  0  0  0  0  0  0  0  0
    0.7543   -0.0732   -1.4251 C   0  0  0  0  0  0  0  0  0  0  0  0
   -0.2912    0.7931   -1.3863 C   0  0  0  0  0  0  0  0  0  0  0  0
   -0.5613    0.9121    0.0552 C   0  0  0  0  0  0  0  0  0  0  0  0
   -1.5914    1.7618    0.5735 C   0  0  0  0  0  0  0  0  0  0  0  0
    0.8650    1.0398    0.6129 C   0  0  0  0  0  0  0  0  0  0  0  0
   -1.9701   -2.0855    0.1616 H   0  0  0  0  0  0  0  0  0  0  0  0
   -1.6981   -0.9496   -1.1728 H   0  0  0  0  0  0  0  0  0  0  0  0
   -0.4621   -2.2087   -0.8824 H   0  0  0  0  0  0  0  0  0  0  0  0
   -0.5545   -0.7090    1.5774 H   0  0  0  0  0  0  0  0  0  0  0  0
    2.8869   -0.7206    0.9049 H   0  0  0  0  0  0  0  0  0  0  0  0
    2.4503   -1.8849   -0.3573 H   0  0  0  0  0  0  0  0  0  0  0  0
    1.6518   -1.9604    1.2395 H   0  0  0  0  0  0  0  0  0  0  0  0
    1.2722   -0.4387   -2.3057 H   0  0  0  0  0  0  0  0  0  0  0  0
   -0.8046    1.2786   -2.1897 H   0  0  0  0  0  0  0  0  0  0  0  0
   -2.5351    1.2267    0.8010 H   0  0  0  0  0  0  0  0  0  0  0  0
   -1.2846    2.2321    1.5528 H   0  0  0  0  0  0  0  0  0  0  0  0
   -1.8121    2.5960   -0.1110 H   0  0  0  0  0  0  0  0  0  0  0  0
    0.9190    1.0655    1.7033 H   0  0  0  0  0  0  0  0  0  0  0  0
    1.4345    1.8002    0.0578 H   0  0  0  0  0  0  0  0  0  0  0  0
  1  2  1  0
  2  3  1  0
  3  4  1  0
  3  5  1  0
  5  6  2  0
  6  7  1  0
  7  8  1  0
  7  9  1  0
  7  2  1  0
  9  3  1  0
  1 10  1  0
  1 11  1  0
  1 12  1  0
  2 13  1  0
  4 14  1  0
  4 15  1  0
  4 16  1  0
  5 17  1  0
  6 18  1  0
  8 19  1  0
  8 20  1  0
  8 21  1  0
  9 22  1  0
  9 23  1  0
M  END
