
     RDKit          3D

 23 24  0  0  0  0  0  0  0  0999 V2000
   -2.3792    0.7428   -0.3386 C   0  0  0  0  0  0  0  0  0  0  0  0
   -1.6718   -0.5157    0.1057 C   0  0  0  0  0  0  0  0  0  0  0  0
   -0.6011   -0.9779   -0.7955 C   0  0  0  0  0  0  0  0  0  0  0  0
    0.3356    0.1281   -1.2868 C   0  0  0  0  0  0  0  0  0  0  0  0
    0.8380    0.1966    0.1515 C   0  0  0  0  0  0  0  0  0  0  0  0
    1.1070    1.5749    0.6661 C   0  0  0  0  0  0  0  0  0  0  0  0
    2.1255   -0.6340    0.2347 C   0  0  0  0  0  0  0  0  0  0  0  0
   -0.3406   -0.5254    0.6814 C   0  0  0  0  0  0  0  0  0  0  0  0
   -0.0192   -1.5790    1.5676 O   0  0  0  0  0  0  0  0  0  0  0  0
   -3.2421    0.9265    0.3489 H   0  0  0  0  0  0  0  0  0  0  0  0
   -2.8631    0.4829   -1.3251 H   0  0  0  0  0  0  0  0  0  0  0  0
   -1.7296    1.6122   -0.4195 H   0  0  0  0  0  0  0  0  0  0  0  0
   -2.3771   -1.3046    0.4510 H   0  0  0  0  0  0  0  0  0  0  0  0
   -0.3638   -2.0175   -0.9962 H   0  0  0  0  0  0  0  0  0  0  0  0
    1.0742   -0.1797   -2.0233 H   0  0  0  0  0  0  0  0  0  0  0  0
   -0.1827    1.0458   -1.6232 H   0  0  0  0  0  0  0  0  0  0  0  0
    0.7453    2.3816   -0.0064 H   0  0  0  0  0  0  0  0  0  0  0  0
    2.2125    1.7800    0.7841 H   0  0  0  0  0  0  0  0  0  0  0  0
    0.6999    1.7267    1.7054 H   0  0  0  0  0  0  0  0  0  0  0  0
    2.5148   -0.5879    1.2708 H   0  0  0  0  0  0  0  0  0  0  0  0
    2.8650   -0.2648   -0.5188 H   0  0  0  0  0  0  0  0  0  0  0  0
    1.9200   -1.6991   -0.0284 H   0  0  0  0  0  0  0  0  0  0  0  0
   -0.6676   -2.3126    1.3946 H   0  0  0  0  0  0  0  0  0  0  0  0
  1  2  1  0
  2  3  1  0
  3  4  1  0
  4  5  1  0
  5  6  1  0
  5  7  1  0
  5  8  1  0
  8  9  1  0
  8  2  1  0
  8  3  1  0
  1 10  1  0
  1 11  1  0
  1 12  1  0
  2 13  1  0
  3 14  1  0
  4 15  1  0
  4 16  1  0
  6 17  1  0
  6 18  1  0
  6 19  1  0
  7 20  1  0
  7 21  1  0
  7 22  1  0
  9 23  1  0
M  END
