
     RDKit          3D

 21 22  0  0  0  0  0  0  0  0999 V2000
    1.5629    0.4753    1.0317 C   0  0  0  0  0  0  0  0  0  0  0  0
    1.0813    0.1453   -0.3423 C   0  0  0  0  0  0  0  0  0  0  0  0
    1.1115   -1.3532   -0.5395 C   0  0  0  0  0  0  0  0  0  0  0  0
   -0.1424   -1.7999   -0.2166 O   0  0  0  0  0  0  0  0  0  0  0  0
   -1.0570   -0.8144   -0.4485 C   0  0  0  0  0  0  0  0  0  0  0  0
   -1.6960   -0.2407    0.8121 C   0  0  0  0  0  0  0  0  0  0  0  0
   -1.1235    1.1281    0.4795 C   0  0  0  0  0  0  0  0  0  0  0  0
   -0.3366    0.4908   -0.6131 C   0  0  0  0  0  0  0  0  0  0  0  0
   -0.5206    1.0876   -1.8568 O   0  0  0  0  0  0  0  0  0  0  0  0
    0.9367    0.1033    1.8474 H   0  0  0  0  0  0  0  0  0  0  0  0
    2.5627   -0.0354    1.1566 H   0  0  0  0  0  0  0  0  0  0  0  0
    1.7877    1.5599    1.1065 H   0  0  0  0  0  0  0  0  0  0  0  0
    1.7436    0.6422   -1.0689 H   0  0  0  0  0  0  0  0  0  0  0  0
    1.3570   -1.5574   -1.5943 H   0  0  0  0  0  0  0  0  0  0  0  0
    1.8877   -1.7558    0.1522 H   0  0  0  0  0  0  0  0  0  0  0  0
   -1.7807   -1.0010   -1.2767 H   0  0  0  0  0  0  0  0  0  0  0  0
   -2.7962   -0.3097    0.7713 H   0  0  0  0  0  0  0  0  0  0  0  0
   -1.3320   -0.6741    1.7520 H   0  0  0  0  0  0  0  0  0  0  0  0
   -1.9019    1.8468    0.1223 H   0  0  0  0  0  0  0  0  0  0  0  0
   -0.5475    1.6040    1.2850 H   0  0  0  0  0  0  0  0  0  0  0  0
   -0.7967    0.4583   -2.5599 H   0  0  0  0  0  0  0  0  0  0  0  0
  1  2  1  0
  2  3  1  0
  3  4  1  0
  4  5  1  0
  5  6  1  0
  6  7  1  0
  7  8  1  0
  8  9  1  0
  8  2  1  0
  8  5  1  0
  1 10  1  0
  1 11  1  0
  1 12  1  0
  2 13  1  0
  3 14  1  0
  3 15  1  0
  5 16  1  0
  6 17  1  0
  6 18  1  0
  7 19  1  0
  7 20  1  0
  9 21  1  0
M  END
