
     RDKit          3D

 20 21  0  0  0  0  0  0  0  0999 V2000
    1.9369   -0.4247   -0.4795 C   0  0  0  0  0  0  0  0  0  0  0  0
    1.4102    0.5430    0.5562 C   0  0  0  0  0  0  0  0  0  0  0  0
    0.1810    1.3262    0.3079 C   0  0  0  0  0  0  0  0  0  0  0  0
   -0.5930    1.2380   -0.9100 C   0  0  0  0  0  0  0  0  0  0  0  0
   -1.4658    0.2946   -1.1529 C   0  0  0  0  0  0  0  0  0  0  0  0
   -1.7157   -0.7709   -0.1571 C   0  0  0  0  0  0  0  0  0  0  0  0
   -0.5557   -1.0321    0.7629 C   0  0  0  0  0  0  0  0  0  0  0  0
    0.1180    0.2159    1.2368 C   0  0  0  0  0  0  0  0  0  0  0  0
    2.8235    0.0070   -0.9760 H   0  0  0  0  0  0  0  0  0  0  0  0
    2.2290   -1.3738   -0.0132 H   0  0  0  0  0  0  0  0  0  0  0  0
    1.1643   -0.5656   -1.2831 H   0  0  0  0  0  0  0  0  0  0  0  0
    2.1742    0.9800    1.2199 H   0  0  0  0  0  0  0  0  0  0  0  0
    0.1923    2.3732    0.7469 H   0  0  0  0  0  0  0  0  0  0  0  0
   -0.4617    1.9960   -1.6994 H   0  0  0  0  0  0  0  0  0  0  0  0
   -2.0451    0.2548   -2.0983 H   0  0  0  0  0  0  0  0  0  0  0  0
   -2.6391   -0.5303    0.4488 H   0  0  0  0  0  0  0  0  0  0  0  0
   -1.9845   -1.6914   -0.7170 H   0  0  0  0  0  0  0  0  0  0  0  0
   -0.9308   -1.6070    1.6350 H   0  0  0  0  0  0  0  0  0  0  0  0
    0.1674   -1.6964    0.2465 H   0  0  0  0  0  0  0  0  0  0  0  0
   -0.0057    0.4635    2.3256 H   0  0  0  0  0  0  0  0  0  0  0  0
  1  2  1  0
  2  3  1  0
  3  4  1  0
  4  5  2  0
  5  6  1  0
  6  7  1  0
  7  8  1  0
  8  2  1  0
  8  3  1  0
  1  9  1  0
  1 10  1  0
  1 11  1  0
  2 12  1  0
  3 13  1  0
  4 14  1  0
  5 15  1  0
  6 16  1  0
  6 17  1  0
  7 18  1  0
  7 19  1  0
  8 20  1  0
M  END
