
     RDKit          3D

 21 23  0  0  0  0  0  0  0  0999 V2000
    2.7114    0.5560    0.2887 C   0  0  0  0  0  0  0  0  0  0  0  0
    1.3885   -0.1712    0.3817 C   0  0  0  0  0  0  0  0  0  0  0  0
    0.8667   -0.9250   -0.8078 C   0  0  0  0  0  0  0  0  0  0  0  0
   -0.1538   -1.9481   -0.4860 C   0  0  0  0  0  0  0  0  0  0  0  0
   -1.2507   -1.3617   -0.0563 C   0  0  0  0  0  0  0  0  0  0  0  0
   -1.0905    0.0906   -0.0426 C   0  0  0  0  0  0  0  0  0  0  0  0
   -2.2918    0.8689   -0.3873 C   0  0  0  0  0  0  0  0  0  0  0  0
   -1.7111    0.9447    0.9932 C   0  0  0  0  0  0  0  0  0  0  0  0
    0.2645    0.3747   -0.5429 C   0  0  0  0  0  0  0  0  0  0  0  0
    3.3375    0.2113   -0.5420 H   0  0  0  0  0  0  0  0  0  0  0  0
    3.2846    0.4677    1.2349 H   0  0  0  0  0  0  0  0  0  0  0  0
    2.4560    1.6478    0.2046 H   0  0  0  0  0  0  0  0  0  0  0  0
    1.1059   -0.4513    1.4050 H   0  0  0  0  0  0  0  0  0  0  0  0
    1.5038   -1.0525   -1.6996 H   0  0  0  0  0  0  0  0  0  0  0  0
   -0.0295   -3.0576   -0.5865 H   0  0  0  0  0  0  0  0  0  0  0  0
   -2.1610   -1.9143    0.2486 H   0  0  0  0  0  0  0  0  0  0  0  0
   -3.2619    0.3340   -0.4423 H   0  0  0  0  0  0  0  0  0  0  0  0
   -2.1498    1.7031   -1.0952 H   0  0  0  0  0  0  0  0  0  0  0  0
   -1.1507    1.9093    1.1727 H   0  0  0  0  0  0  0  0  0  0  0  0
   -2.1927    0.4730    1.8445 H   0  0  0  0  0  0  0  0  0  0  0  0
    0.5248    1.3005   -1.0854 H   0  0  0  0  0  0  0  0  0  0  0  0
  1  2  1  0
  2  3  1  0
  3  4  1  0
  4  5  2  0
  5  6  1  0
  6  7  1  0
  7  8  1  0
  6  9  1  0
  9  2  1  0
  9  3  1  0
  8  6  1  0
  1 10  1  0
  1 11  1  0
  1 12  1  0
  2 13  1  0
  3 14  1  0
  4 15  1  0
  5 16  1  0
  7 17  1  0
  7 18  1  0
  8 19  1  0
  8 20  1  0
  9 21  1  0
M  END
