
     RDKit          3D

 19 20  0  0  0  0  0  0  0  0999 V2000
    2.4838    0.1872    0.3618 C   0  0  0  0  0  0  0  0  0  0  0  0
    1.3258    0.1163   -0.6192 C   0  0  0  0  0  0  0  0  0  0  0  0
    0.1205    0.7561   -0.2829 C   0  0  0  0  0  0  0  0  0  0  0  0
   -0.7271    0.8536    0.9225 C   0  0  0  0  0  0  0  0  0  0  0  0
   -2.0365    0.2098    0.5444 C   0  0  0  0  0  0  0  0  0  0  0  0
   -2.1571   -0.7291   -0.3806 C   0  0  0  0  0  0  0  0  0  0  0  0
   -0.9444   -1.1660   -1.0753 C   0  0  0  0  0  0  0  0  0  0  0  0
   -1.0465   -1.7893   -2.1587 O   0  0  0  0  0  0  0  0  0  0  0  0
    0.2842   -0.8095   -0.3969 C   0  0  0  0  0  0  0  0  0  0  0  0
    2.6768    1.2308    0.6887 H   0  0  0  0  0  0  0  0  0  0  0  0
    2.3040   -0.4883    1.2490 H   0  0  0  0  0  0  0  0  0  0  0  0
    3.4342   -0.1763   -0.0827 H   0  0  0  0  0  0  0  0  0  0  0  0
    1.7197    0.2177   -1.6727 H   0  0  0  0  0  0  0  0  0  0  0  0
   -0.4304    1.2535   -1.1418 H   0  0  0  0  0  0  0  0  0  0  0  0
   -0.3236    0.3569    1.8241 H   0  0  0  0  0  0  0  0  0  0  0  0
   -0.9598    1.9174    1.1324 H   0  0  0  0  0  0  0  0  0  0  0  0
   -2.9168    0.5746    1.0996 H   0  0  0  0  0  0  0  0  0  0  0  0
   -3.1516   -1.1497   -0.6009 H   0  0  0  0  0  0  0  0  0  0  0  0
    0.3448   -1.3657    0.5893 H   0  0  0  0  0  0  0  0  0  0  0  0
  1  2  1  0
  2  3  1  0
  3  4  1  0
  4  5  1  0
  5  6  2  0
  6  7  1  0
  7  8  2  0
  7  9  1  0
  9  2  1  0
  9  3  1  0
  1 10  1  0
  1 11  1  0
  1 12  1  0
  2 13  1  0
  3 14  1  0
  4 15  1  0
  4 16  1  0
  5 17  1  0
  6 18  1  0
  9 19  1  0
M  END
