
     RDKit          3D

 18 19  0  0  0  0  0  0  0  0999 V2000
   -1.6880    0.9403   -0.5591 C   0  0  0  0  0  0  0  0  0  0  0  0
   -1.2109   -0.5044   -0.3992 C   0  0  0  0  0  0  0  0  0  0  0  0
   -1.0134   -0.7474    1.0572 C   0  0  0  0  0  0  0  0  0  0  0  0
    0.2531   -0.7670    1.3748 C   0  0  0  0  0  0  0  0  0  0  0  0
    1.0575   -0.5391    0.1677 C   0  0  0  0  0  0  0  0  0  0  0  0
    2.1499    0.4779    0.1503 C   0  0  0  0  0  0  0  0  0  0  0  0
    1.0327   -1.5701   -0.7533 O   0  0  0  0  0  0  0  0  0  0  0  0
    0.1555   -0.5557   -1.0128 C   0  0  0  0  0  0  0  0  0  0  0  0
   -2.7232    1.0741   -0.2405 H   0  0  0  0  0  0  0  0  0  0  0  0
   -1.5384    1.1699   -1.6535 H   0  0  0  0  0  0  0  0  0  0  0  0
   -0.9512    1.5623   -0.0173 H   0  0  0  0  0  0  0  0  0  0  0  0
   -1.9468   -1.1631   -0.8608 H   0  0  0  0  0  0  0  0  0  0  0  0
   -1.8381   -0.8871    1.7446 H   0  0  0  0  0  0  0  0  0  0  0  0
    0.6629   -0.9236    2.3588 H   0  0  0  0  0  0  0  0  0  0  0  0
    2.4654    0.6783    1.1909 H   0  0  0  0  0  0  0  0  0  0  0  0
    1.7276    1.4234   -0.2486 H   0  0  0  0  0  0  0  0  0  0  0  0
    3.0177    0.2110   -0.4493 H   0  0  0  0  0  0  0  0  0  0  0  0
    0.3878    0.1203   -1.8500 H   0  0  0  0  0  0  0  0  0  0  0  0
  1  2  1  0
  2  3  1  0
  3  4  2  0
  4  5  1  0
  5  6  1  0
  5  7  1  0
  7  8  1  0
  8  2  1  0
  8  5  1  0
  1  9  1  0
  1 10  1  0
  1 11  1  0
  2 12  1  0
  3 13  1  0
  4 14  1  0
  6 15  1  0
  6 16  1  0
  6 17  1  0
  8 18  1  0
M  END
