
     RDKit          3D

 20 21  0  0  0  0  0  0  0  0999 V2000
   -1.0676    1.4982    0.6661 C   0  0  0  0  0  0  0  0  0  0  0  0
   -0.3902    0.7045   -0.3841 C   0  0  0  0  0  0  0  0  0  0  0  0
    1.1207    0.7375   -0.4004 C   0  0  0  0  0  0  0  0  0  0  0  0
    1.4608    0.3430    0.9980 C   0  0  0  0  0  0  0  0  0  0  0  0
    0.4937   -0.6763    1.2044 O   0  0  0  0  0  0  0  0  0  0  0  0
   -0.1263   -0.7674   -0.0179 C   0  0  0  0  0  0  0  0  0  0  0  0
   -1.1790   -1.7230   -0.2642 C   0  0  0  0  0  0  0  0  0  0  0  0
    1.0037   -0.6511   -1.0529 C   0  0  0  0  0  0  0  0  0  0  0  0
   -1.2891    0.8258    1.5299 H   0  0  0  0  0  0  0  0  0  0  0  0
   -0.5854    2.4373    0.9492 H   0  0  0  0  0  0  0  0  0  0  0  0
   -2.0868    1.7842    0.2712 H   0  0  0  0  0  0  0  0  0  0  0  0
   -0.8182    0.7289   -1.4034 H   0  0  0  0  0  0  0  0  0  0  0  0
    1.6362    1.4904   -0.9197 H   0  0  0  0  0  0  0  0  0  0  0  0
    2.4596   -0.1522    0.9780 H   0  0  0  0  0  0  0  0  0  0  0  0
    1.3865    1.1368    1.7408 H   0  0  0  0  0  0  0  0  0  0  0  0
   -1.1073   -2.1818   -1.2683 H   0  0  0  0  0  0  0  0  0  0  0  0
   -1.2612   -2.5028    0.5473 H   0  0  0  0  0  0  0  0  0  0  0  0
   -2.1821   -1.2058   -0.2517 H   0  0  0  0  0  0  0  0  0  0  0  0
    0.6505   -0.5698   -2.0779 H   0  0  0  0  0  0  0  0  0  0  0  0
    1.8814   -1.2564   -0.8443 H   0  0  0  0  0  0  0  0  0  0  0  0
  1  2  1  0
  2  3  1  0
  3  4  1  0
  4  5  1  0
  5  6  1  0
  6  7  1  0
  6  8  1  0
  6  2  1  0
  8  3  1  0
  1  9  1  0
  1 10  1  0
  1 11  1  0
  2 12  1  0
  3 13  1  0
  4 14  1  0
  4 15  1  0
  7 16  1  0
  7 17  1  0
  7 18  1  0
  8 19  1  0
  8 20  1  0
M  END
