
     RDKit          3D

 20 20  0  0  0  0  0  0  0  0999 V2000
    0.5426    1.6920   -0.6837 C   0  0  0  0  0  0  0  0  0  0  0  0
    0.3975    0.9760    0.6333 C   0  0  0  0  0  0  0  0  0  0  0  0
    0.5625   -0.4873    0.7363 C   0  0  0  0  0  0  0  0  0  0  0  0
    0.7756   -1.3617   -0.4527 C   0  0  0  0  0  0  0  0  0  0  0  0
    1.9221   -1.0447   -1.1747 O   0  0  0  0  0  0  0  0  0  0  0  0
   -0.8182    0.1517    0.8117 C   0  0  0  0  0  0  0  0  0  0  0  0
   -1.7412   -0.0058   -0.3681 C   0  0  0  0  0  0  0  0  0  0  0  0
   -1.4319    0.0244    2.0462 O   0  0  0  0  0  0  0  0  0  0  0  0
    1.4711    2.3048   -0.6416 H   0  0  0  0  0  0  0  0  0  0  0  0
   -0.3365    2.3320   -0.9013 H   0  0  0  0  0  0  0  0  0  0  0  0
    0.6809    0.9761   -1.5160 H   0  0  0  0  0  0  0  0  0  0  0  0
    0.7082    1.5858    1.5034 H   0  0  0  0  0  0  0  0  0  0  0  0
    1.0070   -0.8730    1.6854 H   0  0  0  0  0  0  0  0  0  0  0  0
   -0.0708   -1.3077   -1.1765 H   0  0  0  0  0  0  0  0  0  0  0  0
    0.8923   -2.4104   -0.1088 H   0  0  0  0  0  0  0  0  0  0  0  0
    2.7488   -1.4125   -0.7506 H   0  0  0  0  0  0  0  0  0  0  0  0
   -2.6613    0.5724   -0.1379 H   0  0  0  0  0  0  0  0  0  0  0  0
   -1.9672   -1.1051   -0.4526 H   0  0  0  0  0  0  0  0  0  0  0  0
   -1.2695    0.3554   -1.3111 H   0  0  0  0  0  0  0  0  0  0  0  0
   -1.4122   -0.9624    2.2596 H   0  0  0  0  0  0  0  0  0  0  0  0
  1  2  1  0
  2  3  1  0
  3  4  1  0
  4  5  1  0
  3  6  1  0
  6  7  1  0
  6  8  1  0
  6  2  1  0
  1  9  1  0
  1 10  1  0
  1 11  1  0
  2 12  1  0
  3 13  1  0
  4 14  1  0
  4 15  1  0
  5 16  1  0
  7 17  1  0
  7 18  1  0
  7 19  1  0
  8 20  1  0
M  END
