
     RDKit          3D

 20 21  0  0  0  0  0  0  0  0999 V2000
   -2.6984    0.5103   -0.4484 C   0  0  0  0  0  0  0  0  0  0  0  0
   -1.2850    0.2960   -0.0587 C   0  0  0  0  0  0  0  0  0  0  0  0
   -0.8816   -1.1685    0.1720 C   0  0  0  0  0  0  0  0  0  0  0  0
    0.3649   -0.5767   -0.3745 C   0  0  0  0  0  0  0  0  0  0  0  0
    1.6249   -1.1786   -0.5794 C   0  0  0  0  0  0  0  0  0  0  0  0
    1.4593   -0.0616    0.4752 C   0  0  0  0  0  0  0  0  0  0  0  0
    2.0502    1.2692    0.0655 C   0  0  0  0  0  0  0  0  0  0  0  0
   -0.3532    0.2829   -1.1265 O   0  0  0  0  0  0  0  0  0  0  0  0
   -3.2913   -0.4376   -0.5634 H   0  0  0  0  0  0  0  0  0  0  0  0
   -3.2083    1.0447    0.4044 H   0  0  0  0  0  0  0  0  0  0  0  0
   -2.8184    1.1709   -1.3200 H   0  0  0  0  0  0  0  0  0  0  0  0
   -0.8677    0.9199    0.7455 H   0  0  0  0  0  0  0  0  0  0  0  0
   -1.3750   -1.8544   -0.5602 H   0  0  0  0  0  0  0  0  0  0  0  0
   -0.9042   -1.4912    1.2096 H   0  0  0  0  0  0  0  0  0  0  0  0
    2.2719   -0.9436   -1.4474 H   0  0  0  0  0  0  0  0  0  0  0  0
    1.8527   -2.1689   -0.1204 H   0  0  0  0  0  0  0  0  0  0  0  0
    1.4164   -0.3485    1.5286 H   0  0  0  0  0  0  0  0  0  0  0  0
    1.6282    1.6094   -0.8989 H   0  0  0  0  0  0  0  0  0  0  0  0
    1.8760    2.0100    0.8534 H   0  0  0  0  0  0  0  0  0  0  0  0
    3.1387    1.1161   -0.0919 H   0  0  0  0  0  0  0  0  0  0  0  0
  1  2  1  0
  2  3  1  0
  3  4  1  0
  4  5  1  0
  5  6  1  0
  6  7  1  0
  4  8  1  0
  8  2  1  0
  6  4  1  0
  1  9  1  0
  1 10  1  0
  1 11  1  0
  2 12  1  0
  3 13  1  0
  3 14  1  0
  5 15  1  0
  5 16  1  0
  6 17  1  0
  7 18  1  0
  7 19  1  0
  7 20  1  0
M  END
