
     RDKit          3D

 20 22  0  0  0  0  0  0  0  0999 V2000
   -2.3196   -0.1633    0.2945 C   0  0  0  0  0  0  0  0  0  0  0  0
   -0.9835   -0.3793   -0.3117 C   0  0  0  0  0  0  0  0  0  0  0  0
   -0.1450    0.8919   -0.5180 C   0  0  0  0  0  0  0  0  0  0  0  0
    0.0660    0.8332    0.9825 C   0  0  0  0  0  0  0  0  0  0  0  0
    0.1010   -0.6624    0.7427 C   0  0  0  0  0  0  0  0  0  0  0  0
    1.2864   -0.8945   -0.1309 C   0  0  0  0  0  0  0  0  0  0  0  0
    2.3336    0.0978   -0.3630 C   0  0  0  0  0  0  0  0  0  0  0  0
    1.1001    0.3286   -1.1026 C   0  0  0  0  0  0  0  0  0  0  0  0
   -2.3232   -0.2086    1.4190 H   0  0  0  0  0  0  0  0  0  0  0  0
   -2.8404    0.7468   -0.0272 H   0  0  0  0  0  0  0  0  0  0  0  0
   -2.9716   -1.0347   -0.0086 H   0  0  0  0  0  0  0  0  0  0  0  0
   -0.9078   -1.0677   -1.1663 H   0  0  0  0  0  0  0  0  0  0  0  0
   -0.6317    1.7350   -0.9393 H   0  0  0  0  0  0  0  0  0  0  0  0
   -0.8117    1.1524    1.5767 H   0  0  0  0  0  0  0  0  0  0  0  0
    0.9704    1.2941    1.3720 H   0  0  0  0  0  0  0  0  0  0  0  0
   -0.1471   -1.3225    1.5319 H   0  0  0  0  0  0  0  0  0  0  0  0
    1.2857   -1.8859   -0.6466 H   0  0  0  0  0  0  0  0  0  0  0  0
    2.7044    0.7436    0.4585 H   0  0  0  0  0  0  0  0  0  0  0  0
    3.1966   -0.2731   -0.9899 H   0  0  0  0  0  0  0  0  0  0  0  0
    1.0374    0.0689   -2.1738 H   0  0  0  0  0  0  0  0  0  0  0  0
  1  2  1  0
  2  3  1  0
  3  4  1  0
  4  5  1  0
  5  6  1  0
  6  7  1  0
  7  8  1  0
  5  2  1  0
  8  6  1  0
  8  3  1  0
  1  9  1  0
  1 10  1  0
  1 11  1  0
  2 12  1  0
  3 13  1  0
  4 14  1  0
  4 15  1  0
  5 16  1  0
  6 17  1  0
  7 18  1  0
  7 19  1  0
  8 20  1  0
M  END
