
     RDKit          3D

 25 26  0  0  0  0  0  0  0  0999 V2000
    3.4700    0.5288    0.1617 C   0  0  0  0  0  0  0  0  0  0  0  0
    2.2379   -0.3052    0.3798 C   0  0  0  0  0  0  0  0  0  0  0  0
    1.6797   -0.9026   -0.9237 C   0  0  0  0  0  0  0  0  0  0  0  0
    0.9061    0.1164   -0.0812 C   0  0  0  0  0  0  0  0  0  0  0  0
   -0.2739   -0.3704    0.7105 C   0  0  0  0  0  0  0  0  0  0  0  0
   -1.5929    0.1071    0.1702 C   0  0  0  0  0  0  0  0  0  0  0  0
   -1.7890    1.6062    0.1192 C   0  0  0  0  0  0  0  0  0  0  0  0
   -2.7891   -0.6896    0.7092 C   0  0  0  0  0  0  0  0  0  0  0  0
   -2.3910   -0.7090   -0.7679 C   0  0  0  0  0  0  0  0  0  0  0  0
    3.7395    1.1624    1.0173 H   0  0  0  0  0  0  0  0  0  0  0  0
    3.3897    1.1319   -0.7802 H   0  0  0  0  0  0  0  0  0  0  0  0
    4.3102   -0.1948   -0.0485 H   0  0  0  0  0  0  0  0  0  0  0  0
    2.3192   -1.0284    1.2108 H   0  0  0  0  0  0  0  0  0  0  0  0
    2.0981   -0.5690   -1.8744 H   0  0  0  0  0  0  0  0  0  0  0  0
    1.3495   -1.9677   -0.8796 H   0  0  0  0  0  0  0  0  0  0  0  0
    0.7603    1.0911   -0.5730 H   0  0  0  0  0  0  0  0  0  0  0  0
   -0.2755   -1.4687    0.8440 H   0  0  0  0  0  0  0  0  0  0  0  0
   -0.1730    0.0697    1.7437 H   0  0  0  0  0  0  0  0  0  0  0  0
   -2.2262    1.8996   -0.8715 H   0  0  0  0  0  0  0  0  0  0  0  0
   -2.5415    1.9407    0.8795 H   0  0  0  0  0  0  0  0  0  0  0  0
   -0.8415    2.1549    0.2057 H   0  0  0  0  0  0  0  0  0  0  0  0
   -2.5834   -1.6457    1.2295 H   0  0  0  0  0  0  0  0  0  0  0  0
   -3.6873   -0.1466    0.9964 H   0  0  0  0  0  0  0  0  0  0  0  0
   -2.0166   -1.6487   -1.2026 H   0  0  0  0  0  0  0  0  0  0  0  0
   -3.0794   -0.1625   -1.4459 H   0  0  0  0  0  0  0  0  0  0  0  0
  1  2  1  0
  2  3  1  0
  3  4  1  0
  4  5  1  0
  5  6  1  0
  6  7  1  0
  6  8  1  0
  8  9  1  0
  4  2  1  0
  9  6  1  0
  1 10  1  0
  1 11  1  0
  1 12  1  0
  2 13  1  0
  3 14  1  0
  3 15  1  0
  4 16  1  0
  5 17  1  0
  5 18  1  0
  7 19  1  0
  7 20  1  0
  7 21  1  0
  8 22  1  0
  8 23  1  0
  9 24  1  0
  9 25  1  0
M  END
