
     RDKit          3D

 23 24  0  0  0  0  0  0  0  0999 V2000
    1.8358   -0.6631   -0.5757 C   0  0  0  0  0  0  0  0  0  0  0  0
    1.0809   -0.0824    0.5707 C   0  0  0  0  0  0  0  0  0  0  0  0
    0.0573   -0.9511    1.1797 C   0  0  0  0  0  0  0  0  0  0  0  0
   -1.3032   -0.9314    0.6249 C   0  0  0  0  0  0  0  0  0  0  0  0
   -1.6529   -1.1690   -0.7843 C   0  0  0  0  0  0  0  0  0  0  0  0
   -1.7306    0.2174   -0.1561 C   0  0  0  0  0  0  0  0  0  0  0  0
   -0.6935    1.1629   -0.6280 C   0  0  0  0  0  0  0  0  0  0  0  0
    0.4912    1.2785    0.2687 C   0  0  0  0  0  0  0  0  0  0  0  0
    1.4747    2.0023   -0.4059 O   0  0  0  0  0  0  0  0  0  0  0  0
    2.0605   -1.7115   -0.3628 H   0  0  0  0  0  0  0  0  0  0  0  0
    2.7968   -0.0746   -0.6719 H   0  0  0  0  0  0  0  0  0  0  0  0
    1.3483   -0.5559   -1.5579 H   0  0  0  0  0  0  0  0  0  0  0  0
    1.8687    0.1259    1.3603 H   0  0  0  0  0  0  0  0  0  0  0  0
   -0.0174   -0.6696    2.2755 H   0  0  0  0  0  0  0  0  0  0  0  0
    0.4047   -2.0259    1.2185 H   0  0  0  0  0  0  0  0  0  0  0  0
   -2.0767   -1.3420    1.3480 H   0  0  0  0  0  0  0  0  0  0  0  0
   -0.9069   -1.3605   -1.5750 H   0  0  0  0  0  0  0  0  0  0  0  0
   -2.6457   -1.5910   -1.0470 H   0  0  0  0  0  0  0  0  0  0  0  0
   -2.7605    0.6476    0.0251 H   0  0  0  0  0  0  0  0  0  0  0  0
   -1.1294    2.1847   -0.7430 H   0  0  0  0  0  0  0  0  0  0  0  0
   -0.3188    0.8725   -1.6421 H   0  0  0  0  0  0  0  0  0  0  0  0
    0.2285    1.7591    1.2260 H   0  0  0  0  0  0  0  0  0  0  0  0
    1.5882    2.8770    0.0523 H   0  0  0  0  0  0  0  0  0  0  0  0
  1  2  1  0
  2  3  1  0
  3  4  1  0
  4  5  1  0
  5  6  1  0
  6  7  1  0
  7  8  1  0
  8  9  1  0
  8  2  1  0
  6  4  1  0
  1 10  1  0
  1 11  1  0
  1 12  1  0
  2 13  1  0
  3 14  1  0
  3 15  1  0
  4 16  1  0
  5 17  1  0
  5 18  1  0
  6 19  1  0
  7 20  1  0
  7 21  1  0
  8 22  1  0
  9 23  1  0
M  END
