
     RDKit          3D

 23 24  0  0  0  0  0  0  0  0999 V2000
   -2.3243   -0.6621    0.0730 C   0  0  0  0  0  0  0  0  0  0  0  0
   -0.8793   -0.4655    0.4238 C   0  0  0  0  0  0  0  0  0  0  0  0
    0.0149   -1.6468    0.2623 C   0  0  0  0  0  0  0  0  0  0  0  0
    1.0400   -0.6223   -0.2397 C   0  0  0  0  0  0  0  0  0  0  0  0
    2.2160   -0.2857    0.5855 C   0  0  0  0  0  0  0  0  0  0  0  0
    0.7732   -0.1331   -1.5857 C   0  0  0  0  0  0  0  0  0  0  0  0
   -0.0621    0.3712   -0.4926 C   0  0  0  0  0  0  0  0  0  0  0  0
    0.0722    1.8064   -0.1124 C   0  0  0  0  0  0  0  0  0  0  0  0
   -1.2313    2.3555   -0.0818 O   0  0  0  0  0  0  0  0  0  0  0  0
   -2.7671   -1.3003    0.8856 H   0  0  0  0  0  0  0  0  0  0  0  0
   -2.4430   -1.0772   -0.9242 H   0  0  0  0  0  0  0  0  0  0  0  0
   -2.8235    0.3387    0.1930 H   0  0  0  0  0  0  0  0  0  0  0  0
   -0.8063   -0.0769    1.4735 H   0  0  0  0  0  0  0  0  0  0  0  0
   -0.3393   -2.3097   -0.5685 H   0  0  0  0  0  0  0  0  0  0  0  0
    0.3748   -2.1505    1.1556 H   0  0  0  0  0  0  0  0  0  0  0  0
    3.0622   -0.9375    0.3030 H   0  0  0  0  0  0  0  0  0  0  0  0
    2.5081    0.7805    0.5806 H   0  0  0  0  0  0  0  0  0  0  0  0
    1.9631   -0.5249    1.6609 H   0  0  0  0  0  0  0  0  0  0  0  0
    0.4024   -0.8989   -2.3218 H   0  0  0  0  0  0  0  0  0  0  0  0
    1.4866    0.5612   -2.0326 H   0  0  0  0  0  0  0  0  0  0  0  0
    0.5904    2.3413   -0.9322 H   0  0  0  0  0  0  0  0  0  0  0  0
    0.5984    1.9740    0.8388 H   0  0  0  0  0  0  0  0  0  0  0  0
   -1.4262    2.5625    0.8558 H   0  0  0  0  0  0  0  0  0  0  0  0
  1  2  1  0
  2  3  1  0
  3  4  1  0
  4  5  1  0
  4  6  1  0
  6  7  1  0
  7  8  1  0
  8  9  1  0
  7  2  1  0
  7  4  1  0
  1 10  1  0
  1 11  1  0
  1 12  1  0
  2 13  1  0
  3 14  1  0
  3 15  1  0
  5 16  1  0
  5 17  1  0
  5 18  1  0
  6 19  1  0
  6 20  1  0
  8 21  1  0
  8 22  1  0
  9 23  1  0
M  END
