
     RDKit          3D

 19 19  0  0  0  0  0  0  0  0999 V2000
   -2.5134   -0.2677   -0.4356 C   0  0  0  0  0  0  0  0  0  0  0  0
   -1.0205   -0.5084   -0.4819 C   0  0  0  0  0  0  0  0  0  0  0  0
   -0.4206    0.4344   -1.4288 C   0  0  0  0  0  0  0  0  0  0  0  0
    0.6363    0.9881   -0.9465 C   0  0  0  0  0  0  0  0  0  0  0  0
    0.9123    0.5017    0.4047 C   0  0  0  0  0  0  0  0  0  0  0  0
    1.8742   -0.5530    0.2831 O   0  0  0  0  0  0  0  0  0  0  0  0
    3.0717   -0.5141    0.9862 C   0  0  0  0  0  0  0  0  0  0  0  0
    3.2369    0.5096    1.7268 O   0  0  0  0  0  0  0  0  0  0  0  0
   -0.4309   -0.0682    0.8477 C   0  0  0  0  0  0  0  0  0  0  0  0
   -3.0301   -1.2423   -0.3707 H   0  0  0  0  0  0  0  0  0  0  0  0
   -2.8518    0.3168   -1.3156 H   0  0  0  0  0  0  0  0  0  0  0  0
   -2.8088    0.3330    0.4654 H   0  0  0  0  0  0  0  0  0  0  0  0
   -0.7956   -1.5628   -0.7157 H   0  0  0  0  0  0  0  0  0  0  0  0
   -0.8658    0.6101   -2.4260 H   0  0  0  0  0  0  0  0  0  0  0  0
    1.2565    1.7253   -1.4640 H   0  0  0  0  0  0  0  0  0  0  0  0
    1.2727    1.2804    1.1011 H   0  0  0  0  0  0  0  0  0  0  0  0
    3.8204   -1.3001    0.9136 H   0  0  0  0  0  0  0  0  0  0  0  0
   -1.0554    0.7006    1.3159 H   0  0  0  0  0  0  0  0  0  0  0  0
   -0.2880   -0.8963    1.5403 H   0  0  0  0  0  0  0  0  0  0  0  0
  1  2  1  0
  2  3  1  0
  3  4  2  0
  4  5  1  0
  5  6  1  0
  6  7  1  0
  7  8  2  0
  5  9  1  0
  9  2  1  0
  1 10  1  0
  1 11  1  0
  1 12  1  0
  2 13  1  0
  3 14  1  0
  4 15  1  0
  5 16  1  0
  7 17  1  0
  9 18  1  0
  9 19  1  0
M  END
