
     RDKit          3D

 21 22  0  0  0  0  0  0  0  0999 V2000
   -2.6599   -0.5612   -0.1990 C   0  0  0  0  0  0  0  0  0  0  0  0
   -1.1946   -0.2591   -0.4036 C   0  0  0  0  0  0  0  0  0  0  0  0
   -0.6218    0.6883    0.6371 C   0  0  0  0  0  0  0  0  0  0  0  0
    0.2944    1.6963    0.0971 C   0  0  0  0  0  0  0  0  0  0  0  0
    1.5991    1.5101   -0.0418 C   0  0  0  0  0  0  0  0  0  0  0  0
    2.1679    0.2134    0.3700 C   0  0  0  0  0  0  0  0  0  0  0  0
    1.2245   -0.8785   -0.0240 C   0  0  0  0  0  0  0  0  0  0  0  0
    1.1723   -0.9941   -1.4081 O   0  0  0  0  0  0  0  0  0  0  0  0
   -0.1635   -0.7063    0.5417 C   0  0  0  0  0  0  0  0  0  0  0  0
   -3.2155    0.3157   -0.6453 H   0  0  0  0  0  0  0  0  0  0  0  0
   -2.9489   -0.5483    0.8791 H   0  0  0  0  0  0  0  0  0  0  0  0
   -2.9858   -1.4983   -0.6633 H   0  0  0  0  0  0  0  0  0  0  0  0
   -0.9236   -0.1140   -1.4656 H   0  0  0  0  0  0  0  0  0  0  0  0
   -1.2527    0.9758    1.5002 H   0  0  0  0  0  0  0  0  0  0  0  0
   -0.1106    2.6486   -0.2073 H   0  0  0  0  0  0  0  0  0  0  0  0
    2.2093    2.3027   -0.4488 H   0  0  0  0  0  0  0  0  0  0  0  0
    3.1231    0.0542   -0.1687 H   0  0  0  0  0  0  0  0  0  0  0  0
    2.3281    0.1824    1.4830 H   0  0  0  0  0  0  0  0  0  0  0  0
    1.6811   -1.8451    0.3413 H   0  0  0  0  0  0  0  0  0  0  0  0
    0.6532   -1.8329   -1.5948 H   0  0  0  0  0  0  0  0  0  0  0  0
   -0.3759   -1.3498    1.4209 H   0  0  0  0  0  0  0  0  0  0  0  0
  1  2  1  0
  2  3  1  0
  3  4  1  0
  4  5  2  0
  5  6  1  0
  6  7  1  0
  7  8  1  0
  7  9  1  0
  9  2  1  0
  9  3  1  0
  1 10  1  0
  1 11  1  0
  1 12  1  0
  2 13  1  0
  3 14  1  0
  4 15  1  0
  5 16  1  0
  6 17  1  0
  6 18  1  0
  7 19  1  0
  8 20  1  0
  9 21  1  0
M  END
