
     RDKit          3D

 21 21  0  0  0  0  0  0  0  0999 V2000
   -1.9107    0.3500   -0.0236 C   0  0  0  0  0  0  0  0  0  0  0  0
   -0.5532    0.3285    0.6115 C   0  0  0  0  0  0  0  0  0  0  0  0
    0.4672    1.2694    0.0410 C   0  0  0  0  0  0  0  0  0  0  0  0
    0.0196    1.8601   -1.1250 O   0  0  0  0  0  0  0  0  0  0  0  0
    1.4052    0.1080   -0.1147 C   0  0  0  0  0  0  0  0  0  0  0  0
    2.4035    0.0114    0.8646 O   0  0  0  0  0  0  0  0  0  0  0  0
    0.2831   -0.8447    0.2344 C   0  0  0  0  0  0  0  0  0  0  0  0
   -0.1450   -1.6507   -0.9440 C   0  0  0  0  0  0  0  0  0  0  0  0
    0.5183   -1.6604    1.3337 O   0  0  0  0  0  0  0  0  0  0  0  0
   -2.3192   -0.6827    0.0307 H   0  0  0  0  0  0  0  0  0  0  0  0
   -1.8684    0.6206   -1.0908 H   0  0  0  0  0  0  0  0  0  0  0  0
   -2.6306    1.0120    0.4993 H   0  0  0  0  0  0  0  0  0  0  0  0
   -0.6464    0.4797    1.7165 H   0  0  0  0  0  0  0  0  0  0  0  0
    0.8621    2.0341    0.7509 H   0  0  0  0  0  0  0  0  0  0  0  0
    0.0793    2.8495   -1.0792 H   0  0  0  0  0  0  0  0  0  0  0  0
    1.7694    0.0273   -1.1496 H   0  0  0  0  0  0  0  0  0  0  0  0
    2.8513    0.8621    1.0365 H   0  0  0  0  0  0  0  0  0  0  0  0
   -0.9677   -2.3354   -0.6944 H   0  0  0  0  0  0  0  0  0  0  0  0
    0.7220   -2.2797   -1.2571 H   0  0  0  0  0  0  0  0  0  0  0  0
   -0.3745   -0.9825   -1.7790 H   0  0  0  0  0  0  0  0  0  0  0  0
    0.0345   -1.3765    2.1383 H   0  0  0  0  0  0  0  0  0  0  0  0
  1  2  1  0
  2  3  1  0
  3  4  1  0
  3  5  1  0
  5  6  1  0
  5  7  1  0
  7  8  1  0
  7  9  1  0
  7  2  1  0
  1 10  1  0
  1 11  1  0
  1 12  1  0
  2 13  1  0
  3 14  1  0
  4 15  1  0
  5 16  1  0
  6 17  1  0
  8 18  1  0
  8 19  1  0
  8 20  1  0
  9 21  1  0
M  END
