
     RDKit          3D

 21 22  0  0  0  0  0  0  0  0999 V2000
   -2.3812    0.5982   -0.6273 C   0  0  0  0  0  0  0  0  0  0  0  0
   -1.0712    0.5506    0.0516 C   0  0  0  0  0  0  0  0  0  0  0  0
   -1.0680   -0.2514    1.3399 C   0  0  0  0  0  0  0  0  0  0  0  0
    0.2855   -0.2854    1.6144 O   0  0  0  0  0  0  0  0  0  0  0  0
    0.9767   -0.4707    0.4576 C   0  0  0  0  0  0  0  0  0  0  0  0
    2.3030    0.2309    0.3698 C   0  0  0  0  0  0  0  0  0  0  0  0
    2.9731    0.0231   -0.8081 O   0  0  0  0  0  0  0  0  0  0  0  0
    0.5052   -1.4606   -0.4967 C   0  0  0  0  0  0  0  0  0  0  0  0
    0.0352   -0.0878   -0.7021 C   0  0  0  0  0  0  0  0  0  0  0  0
   -3.1599    0.1352    0.0278 H   0  0  0  0  0  0  0  0  0  0  0  0
   -2.6943    1.6785   -0.7216 H   0  0  0  0  0  0  0  0  0  0  0  0
   -2.4060    0.1919   -1.6535 H   0  0  0  0  0  0  0  0  0  0  0  0
   -0.7072    1.5799    0.3423 H   0  0  0  0  0  0  0  0  0  0  0  0
   -1.6052    0.2454    2.1539 H   0  0  0  0  0  0  0  0  0  0  0  0
   -1.4949   -1.2543    1.1662 H   0  0  0  0  0  0  0  0  0  0  0  0
    2.9027    0.0244    1.2813 H   0  0  0  0  0  0  0  0  0  0  0  0
    2.0748    1.3372    0.4200 H   0  0  0  0  0  0  0  0  0  0  0  0
    3.1433    0.8509   -1.3241 H   0  0  0  0  0  0  0  0  0  0  0  0
    1.1794   -1.8819   -1.2439 H   0  0  0  0  0  0  0  0  0  0  0  0
   -0.2247   -2.2250   -0.1023 H   0  0  0  0  0  0  0  0  0  0  0  0
    0.4336    0.4708   -1.5449 H   0  0  0  0  0  0  0  0  0  0  0  0
  1  2  1  0
  2  3  1  0
  3  4  1  0
  4  5  1  0
  5  6  1  0
  6  7  1  0
  5  8  1  0
  8  9  1  0
  9  2  1  0
  9  5  1  0
  1 10  1  0
  1 11  1  0
  1 12  1  0
  2 13  1  0
  3 14  1  0
  3 15  1  0
  6 16  1  0
  6 17  1  0
  7 18  1  0
  8 19  1  0
  8 20  1  0
  9 21  1  0
M  END
