
     RDKit          3D

 19 21  0  0  0  0  0  0  0  0999 V2000
   -1.7789   -0.9374   -0.7037 C   0  0  0  0  0  0  0  0  0  0  0  0
   -0.7849    0.2178   -0.8313 C   0  0  0  0  0  0  0  0  0  0  0  0
   -0.7409    1.0963    0.4238 C   0  0  0  0  0  0  0  0  0  0  0  0
   -1.6066    0.8178    1.4596 O   0  0  0  0  0  0  0  0  0  0  0  0
    0.3686    0.2453    0.0370 C   0  0  0  0  0  0  0  0  0  0  0  0
    1.7269    0.7139   -0.3274 C   0  0  0  0  0  0  0  0  0  0  0  0
    2.2763   -0.5427    0.3542 C   0  0  0  0  0  0  0  0  0  0  0  0
    1.9341   -0.7703    1.6660 O   0  0  0  0  0  0  0  0  0  0  0  0
    0.8649   -0.9199    0.8202 C   0  0  0  0  0  0  0  0  0  0  0  0
   -1.7145   -1.6207   -1.5644 H   0  0  0  0  0  0  0  0  0  0  0  0
   -1.5212   -1.4805    0.2438 H   0  0  0  0  0  0  0  0  0  0  0  0
   -2.7771   -0.4649   -0.5829 H   0  0  0  0  0  0  0  0  0  0  0  0
   -0.7880    0.7474   -1.8239 H   0  0  0  0  0  0  0  0  0  0  0  0
   -0.6286    2.1949    0.1920 H   0  0  0  0  0  0  0  0  0  0  0  0
   -2.2583    1.5701    1.5505 H   0  0  0  0  0  0  0  0  0  0  0  0
    1.9385    0.7264   -1.4028 H   0  0  0  0  0  0  0  0  0  0  0  0
    2.1102    1.6168    0.2160 H   0  0  0  0  0  0  0  0  0  0  0  0
    2.8392   -1.2661   -0.2409 H   0  0  0  0  0  0  0  0  0  0  0  0
    0.5403   -1.9442    0.5143 H   0  0  0  0  0  0  0  0  0  0  0  0
  1  2  1  0
  2  3  1  0
  3  4  1  0
  3  5  1  0
  5  6  1  0
  6  7  1  0
  7  8  1  0
  8  9  1  0
  5  2  1  0
  9  7  1  0
  9  5  1  0
  1 10  1  0
  1 11  1  0
  1 12  1  0
  2 13  1  0
  3 14  1  0
  4 15  1  0
  6 16  1  0
  6 17  1  0
  7 18  1  0
  9 19  1  0
M  END
