
     RDKit          3D

 21 21  0  0  0  0  0  0  0  0999 V2000
   -2.3600    0.0513    1.1600 C   0  0  0  0  0  0  0  0  0  0  0  0
   -1.3079    0.4058    0.1530 C   0  0  0  0  0  0  0  0  0  0  0  0
   -0.5307   -0.7733   -0.3730 C   0  0  0  0  0  0  0  0  0  0  0  0
    0.5306    0.2944   -0.4142 C   0  0  0  0  0  0  0  0  0  0  0  0
    0.6014    1.0513   -1.7116 C   0  0  0  0  0  0  0  0  0  0  0  0
    1.8717   -0.3165   -0.0452 C   0  0  0  0  0  0  0  0  0  0  0  0
    1.8516   -0.9011    1.3168 C   0  0  0  0  0  0  0  0  0  0  0  0
    1.9372   -0.1878    2.2950 O   0  0  0  0  0  0  0  0  0  0  0  0
   -0.1220    0.9293    0.6194 O   0  0  0  0  0  0  0  0  0  0  0  0
   -2.1858   -0.8830    1.7079 H   0  0  0  0  0  0  0  0  0  0  0  0
   -3.3223   -0.0801    0.6027 H   0  0  0  0  0  0  0  0  0  0  0  0
   -2.5089    0.9301    1.8280 H   0  0  0  0  0  0  0  0  0  0  0  0
   -1.7449    1.0895   -0.6083 H   0  0  0  0  0  0  0  0  0  0  0  0
   -0.3418   -1.4906    0.4256 H   0  0  0  0  0  0  0  0  0  0  0  0
   -0.8524   -1.1683   -1.3507 H   0  0  0  0  0  0  0  0  0  0  0  0
    0.9594    0.3205   -2.4925 H   0  0  0  0  0  0  0  0  0  0  0  0
    1.2839    1.9100   -1.5965 H   0  0  0  0  0  0  0  0  0  0  0  0
   -0.3593    1.4262   -2.0610 H   0  0  0  0  0  0  0  0  0  0  0  0
    2.6722    0.4488   -0.0837 H   0  0  0  0  0  0  0  0  0  0  0  0
    2.1675   -1.0875   -0.8041 H   0  0  0  0  0  0  0  0  0  0  0  0
    1.7607   -1.9691    1.4324 H   0  0  0  0  0  0  0  0  0  0  0  0
  1  2  1  0
  2  3  1  0
  3  4  1  0
  4  5  1  0
  4  6  1  0
  6  7  1  0
  7  8  2  0
  4  9  1  0
  9  2  1  0
  1 10  1  0
  1 11  1  0
  1 12  1  0
  2 13  1  0
  3 14  1  0
  3 15  1  0
  5 16  1  0
  5 17  1  0
  5 18  1  0
  6 19  1  0
  6 20  1  0
  7 21  1  0
M  END
