
     RDKit          3D

 21 21  0  0  0  0  0  0  0  0999 V2000
   -2.1755    1.3679   -0.9341 C   0  0  0  0  0  0  0  0  0  0  0  0
   -1.2349    0.2132   -0.7241 C   0  0  0  0  0  0  0  0  0  0  0  0
   -1.5332   -0.5458    0.5556 C   0  0  0  0  0  0  0  0  0  0  0  0
   -0.1525   -1.1685    0.8060 C   0  0  0  0  0  0  0  0  0  0  0  0
    0.7281   -0.0348    0.3239 C   0  0  0  0  0  0  0  0  0  0  0  0
    2.0672   -0.6019   -0.0842 C   0  0  0  0  0  0  0  0  0  0  0  0
    2.9737    0.4615   -0.5656 C   0  0  0  0  0  0  0  0  0  0  0  0
    4.0959    0.1483   -0.9304 O   0  0  0  0  0  0  0  0  0  0  0  0
    0.0687    0.6158   -0.6812 O   0  0  0  0  0  0  0  0  0  0  0  0
   -2.8463    1.1681   -1.8127 H   0  0  0  0  0  0  0  0  0  0  0  0
   -2.8146    1.5409   -0.0588 H   0  0  0  0  0  0  0  0  0  0  0  0
   -1.5811    2.2622   -1.2222 H   0  0  0  0  0  0  0  0  0  0  0  0
   -1.3896   -0.5408   -1.5512 H   0  0  0  0  0  0  0  0  0  0  0  0
   -1.7438    0.1303    1.4032 H   0  0  0  0  0  0  0  0  0  0  0  0
   -2.3072   -1.3201    0.4202 H   0  0  0  0  0  0  0  0  0  0  0  0
   -0.0528   -1.9876    0.0807 H   0  0  0  0  0  0  0  0  0  0  0  0
    0.0035   -1.4334    1.8458 H   0  0  0  0  0  0  0  0  0  0  0  0
    0.8283    0.6652    1.1910 H   0  0  0  0  0  0  0  0  0  0  0  0
    2.4953   -1.1003    0.7981 H   0  0  0  0  0  0  0  0  0  0  0  0
    1.8520   -1.3540   -0.8905 H   0  0  0  0  0  0  0  0  0  0  0  0
    2.7187    1.5138   -0.6219 H   0  0  0  0  0  0  0  0  0  0  0  0
  1  2  1  0
  2  3  1  0
  3  4  1  0
  4  5  1  0
  5  6  1  0
  6  7  1  0
  7  8  2  0
  5  9  1  0
  9  2  1  0
  1 10  1  0
  1 11  1  0
  1 12  1  0
  2 13  1  0
  3 14  1  0
  3 15  1  0
  4 16  1  0
  4 17  1  0
  5 18  1  0
  6 19  1  0
  6 20  1  0
  7 21  1  0
M  END
