
     RDKit          3D

 19 20  0  0  0  0  0  0  0  0999 V2000
   -1.9205    1.1586    0.2690 C   0  0  0  0  0  0  0  0  0  0  0  0
   -1.1287   -0.1224    0.3057 C   0  0  0  0  0  0  0  0  0  0  0  0
   -1.2512   -0.8896   -1.0147 C   0  0  0  0  0  0  0  0  0  0  0  0
    0.0086   -1.3277   -1.3661 O   0  0  0  0  0  0  0  0  0  0  0  0
    0.8672   -1.1260   -0.3251 C   0  0  0  0  0  0  0  0  0  0  0  0
    2.1592   -0.7863   -0.7164 O   0  0  0  0  0  0  0  0  0  0  0  0
    2.5830    0.1344    0.2377 C   0  0  0  0  0  0  0  0  0  0  0  0
    1.3461    0.8404    0.6673 C   0  0  0  0  0  0  0  0  0  0  0  0
    0.3246    0.0930    0.3382 C   0  0  0  0  0  0  0  0  0  0  0  0
   -1.4681    1.9209   -0.3916 H   0  0  0  0  0  0  0  0  0  0  0  0
   -2.9141    0.9133   -0.1599 H   0  0  0  0  0  0  0  0  0  0  0  0
   -2.0758    1.4952    1.3024 H   0  0  0  0  0  0  0  0  0  0  0  0
   -1.4781   -0.7323    1.1571 H   0  0  0  0  0  0  0  0  0  0  0  0
   -1.9981   -1.6764   -0.9025 H   0  0  0  0  0  0  0  0  0  0  0  0
   -1.5622   -0.1069   -1.7645 H   0  0  0  0  0  0  0  0  0  0  0  0
    0.8449   -1.9968    0.3448 H   0  0  0  0  0  0  0  0  0  0  0  0
    3.3022    0.8253   -0.2262 H   0  0  0  0  0  0  0  0  0  0  0  0
    3.0341   -0.4456    1.0684 H   0  0  0  0  0  0  0  0  0  0  0  0
    1.3270    1.8289    1.1763 H   0  0  0  0  0  0  0  0  0  0  0  0
  1  2  1  0
  2  3  1  0
  3  4  1  0
  4  5  1  0
  5  6  1  0
  6  7  1  0
  7  8  1  0
  8  9  2  0
  9  2  1  0
  9  5  1  0
  1 10  1  0
  1 11  1  0
  1 12  1  0
  2 13  1  0
  3 14  1  0
  3 15  1  0
  5 16  1  0
  7 17  1  0
  7 18  1  0
  8 19  1  0
M  END
