
     RDKit          3D

 21 21  0  0  0  0  0  0  0  0999 V2000
   -1.3419   -1.1982    0.5947 C   0  0  0  0  0  0  0  0  0  0  0  0
   -0.8560   -0.3688   -0.5502 C   0  0  0  0  0  0  0  0  0  0  0  0
   -1.6364    0.9545   -0.4676 C   0  0  0  0  0  0  0  0  0  0  0  0
   -0.7392    1.7553    0.4422 C   0  0  0  0  0  0  0  0  0  0  0  0
    0.3475    0.9470    0.7758 O   0  0  0  0  0  0  0  0  0  0  0  0
    0.5326    0.1737   -0.3343 C   0  0  0  0  0  0  0  0  0  0  0  0
    1.5543   -0.8975   -0.2167 C   0  0  0  0  0  0  0  0  0  0  0  0
    2.9092   -0.3635   -0.0063 C   0  0  0  0  0  0  0  0  0  0  0  0
    3.8343   -1.1592    0.1051 O   0  0  0  0  0  0  0  0  0  0  0  0
   -1.8784   -0.5883    1.3798 H   0  0  0  0  0  0  0  0  0  0  0  0
   -2.0847   -1.9653    0.2247 H   0  0  0  0  0  0  0  0  0  0  0  0
   -0.5765   -1.7616    1.1298 H   0  0  0  0  0  0  0  0  0  0  0  0
   -0.9873   -0.8435   -1.5358 H   0  0  0  0  0  0  0  0  0  0  0  0
   -2.6368    0.7616   -0.0318 H   0  0  0  0  0  0  0  0  0  0  0  0
   -1.7294    1.4066   -1.4643 H   0  0  0  0  0  0  0  0  0  0  0  0
   -1.2914    2.1066    1.3389 H   0  0  0  0  0  0  0  0  0  0  0  0
   -0.3190    2.6115   -0.1514 H   0  0  0  0  0  0  0  0  0  0  0  0
    0.8143    0.8336   -1.1743 H   0  0  0  0  0  0  0  0  0  0  0  0
    1.3667   -1.6659    0.5320 H   0  0  0  0  0  0  0  0  0  0  0  0
    1.5760   -1.4351   -1.2110 H   0  0  0  0  0  0  0  0  0  0  0  0
    3.1421    0.6966    0.0568 H   0  0  0  0  0  0  0  0  0  0  0  0
  1  2  1  0
  2  3  1  0
  3  4  1  0
  4  5  1  0
  5  6  1  0
  6  7  1  0
  7  8  1  0
  8  9  2  0
  6  2  1  0
  1 10  1  0
  1 11  1  0
  1 12  1  0
  2 13  1  0
  3 14  1  0
  3 15  1  0
  4 16  1  0
  4 17  1  0
  6 18  1  0
  7 19  1  0
  7 20  1  0
  8 21  1  0
M  END
