
     RDKit          3D

 23 24  0  0  0  0  0  0  0  0999 V2000
   -0.5518    1.7691    0.9526 C   0  0  0  0  0  0  0  0  0  0  0  0
   -0.7473    0.5895    0.0977 C   0  0  0  0  0  0  0  0  0  0  0  0
   -1.5477   -0.5277    0.7473 C   0  0  0  0  0  0  0  0  0  0  0  0
   -1.4871   -1.5760   -0.3676 C   0  0  0  0  0  0  0  0  0  0  0  0
   -0.0937   -1.4143   -0.9308 C   0  0  0  0  0  0  0  0  0  0  0  0
    0.4439   -0.1008   -0.4081 C   0  0  0  0  0  0  0  0  0  0  0  0
    1.4375    0.6826   -1.1716 C   0  0  0  0  0  0  0  0  0  0  0  0
    1.7838   -0.0770    0.1041 C   0  0  0  0  0  0  0  0  0  0  0  0
    2.2520    0.6862    1.1411 O   0  0  0  0  0  0  0  0  0  0  0  0
   -1.5054    1.9912    1.5049 H   0  0  0  0  0  0  0  0  0  0  0  0
    0.2375    1.7351    1.6910 H   0  0  0  0  0  0  0  0  0  0  0  0
   -0.3859    2.6643    0.2835 H   0  0  0  0  0  0  0  0  0  0  0  0
   -1.3655    0.9075   -0.7942 H   0  0  0  0  0  0  0  0  0  0  0  0
   -1.0156   -0.9244    1.6282 H   0  0  0  0  0  0  0  0  0  0  0  0
   -2.5943   -0.2795    0.9057 H   0  0  0  0  0  0  0  0  0  0  0  0
   -1.7097   -2.5800   -0.0100 H   0  0  0  0  0  0  0  0  0  0  0  0
   -2.2394   -1.2724   -1.1439 H   0  0  0  0  0  0  0  0  0  0  0  0
    0.5239   -2.2527   -0.4960 H   0  0  0  0  0  0  0  0  0  0  0  0
   -0.0929   -1.4591   -2.0389 H   0  0  0  0  0  0  0  0  0  0  0  0
    1.3719    1.8015   -1.0646 H   0  0  0  0  0  0  0  0  0  0  0  0
    1.8188    0.3248   -2.1350 H   0  0  0  0  0  0  0  0  0  0  0  0
    2.4332   -0.9769   -0.1075 H   0  0  0  0  0  0  0  0  0  0  0  0
    3.0338    0.2889    1.6119 H   0  0  0  0  0  0  0  0  0  0  0  0
  1  2  1  0
  2  3  1  0
  3  4  1  0
  4  5  1  0
  5  6  1  0
  6  7  1  0
  7  8  1  0
  8  9  1  0
  6  2  1  0
  8  6  1  0
  1 10  1  0
  1 11  1  0
  1 12  1  0
  2 13  1  0
  3 14  1  0
  3 15  1  0
  4 16  1  0
  4 17  1  0
  5 18  1  0
  5 19  1  0
  7 20  1  0
  7 21  1  0
  8 22  1  0
  9 23  1  0
M  END
