
     RDKit          3D

 22 23  0  0  0  0  0  0  0  0999 V2000
    1.3287    1.6317    0.2040 C   0  0  0  0  0  0  0  0  0  0  0  0
    0.7979    0.2890    0.5360 C   0  0  0  0  0  0  0  0  0  0  0  0
    1.4371   -0.8218   -0.3216 C   0  0  0  0  0  0  0  0  0  0  0  0
    0.1935   -1.5399   -0.7337 C   0  0  0  0  0  0  0  0  0  0  0  0
   -0.7555   -1.4444    0.4705 C   0  0  0  0  0  0  0  0  0  0  0  0
   -0.6335    0.0604    0.1761 C   0  0  0  0  0  0  0  0  0  0  0  0
   -1.6786    0.9348    0.6435 C   0  0  0  0  0  0  0  0  0  0  0  0
   -0.6397   -0.3849   -1.2876 C   0  0  0  0  0  0  0  0  0  0  0  0
    1.6388    1.7616   -0.8535 H   0  0  0  0  0  0  0  0  0  0  0  0
    2.2781    1.7762    0.7994 H   0  0  0  0  0  0  0  0  0  0  0  0
    0.6417    2.4110    0.5407 H   0  0  0  0  0  0  0  0  0  0  0  0
    0.9883   -0.0052    1.5778 H   0  0  0  0  0  0  0  0  0  0  0  0
    2.1543   -1.4108    0.2431 H   0  0  0  0  0  0  0  0  0  0  0  0
    1.8837   -0.3141   -1.2213 H   0  0  0  0  0  0  0  0  0  0  0  0
    0.2246   -2.4451   -1.2712 H   0  0  0  0  0  0  0  0  0  0  0  0
   -0.3114   -1.7060    1.4284 H   0  0  0  0  0  0  0  0  0  0  0  0
   -1.7486   -1.8085    0.2216 H   0  0  0  0  0  0  0  0  0  0  0  0
   -2.1498    0.5415    1.5913 H   0  0  0  0  0  0  0  0  0  0  0  0
   -1.3353    1.9473    0.8831 H   0  0  0  0  0  0  0  0  0  0  0  0
   -2.5327    0.9540   -0.0889 H   0  0  0  0  0  0  0  0  0  0  0  0
   -0.1170    0.2774   -1.9762 H   0  0  0  0  0  0  0  0  0  0  0  0
   -1.6648   -0.7044   -1.5615 H   0  0  0  0  0  0  0  0  0  0  0  0
  1  2  1  0
  2  3  1  0
  3  4  1  0
  4  5  1  0
  5  6  1  0
  6  7  1  0
  6  8  1  0
  6  2  1  0
  8  4  1  0
  1  9  1  0
  1 10  1  0
  1 11  1  0
  2 12  1  0
  3 13  1  0
  3 14  1  0
  4 15  1  0
  5 16  1  0
  5 17  1  0
  7 18  1  0
  7 19  1  0
  7 20  1  0
  8 21  1  0
  8 22  1  0
M  END
