
     RDKit          3D

 23 23  0  0  0  0  0  0  0  0999 V2000
   -2.4267    0.3939    1.0080 C   0  0  0  0  0  0  0  0  0  0  0  0
   -1.6391    0.5332   -0.2719 C   0  0  0  0  0  0  0  0  0  0  0  0
   -0.2026    0.8769    0.0137 C   0  0  0  0  0  0  0  0  0  0  0  0
    0.5829   -0.1422   -0.2639 C   0  0  0  0  0  0  0  0  0  0  0  0
    2.0604   -0.1865   -0.1131 C   0  0  0  0  0  0  0  0  0  0  0  0
    2.5858    1.1370    0.4216 C   0  0  0  0  0  0  0  0  0  0  0  0
    2.4451   -1.2380    0.7457 O   0  0  0  0  0  0  0  0  0  0  0  0
   -0.2121   -1.2973   -0.7687 C   0  0  0  0  0  0  0  0  0  0  0  0
   -1.5957   -0.7602   -1.0516 C   0  0  0  0  0  0  0  0  0  0  0  0
   -1.6781    0.3185    1.8428 H   0  0  0  0  0  0  0  0  0  0  0  0
   -3.1300    1.2403    1.1568 H   0  0  0  0  0  0  0  0  0  0  0  0
   -3.0446   -0.5307    1.0184 H   0  0  0  0  0  0  0  0  0  0  0  0
   -2.0848    1.3219   -0.8887 H   0  0  0  0  0  0  0  0  0  0  0  0
    0.0570    1.8645    0.3979 H   0  0  0  0  0  0  0  0  0  0  0  0
    2.5789   -0.3832   -1.0737 H   0  0  0  0  0  0  0  0  0  0  0  0
    2.4470    1.2087    1.5126 H   0  0  0  0  0  0  0  0  0  0  0  0
    2.0515    1.9532   -0.1203 H   0  0  0  0  0  0  0  0  0  0  0  0
    3.6645    1.2619    0.1880 H   0  0  0  0  0  0  0  0  0  0  0  0
    1.6579   -1.8258    0.8163 H   0  0  0  0  0  0  0  0  0  0  0  0
    0.2368   -1.6262   -1.7038 H   0  0  0  0  0  0  0  0  0  0  0  0
   -0.2479   -2.0640    0.0210 H   0  0  0  0  0  0  0  0  0  0  0  0
   -1.7404   -0.5737   -2.1409 H   0  0  0  0  0  0  0  0  0  0  0  0
   -2.3657   -1.4823   -0.7464 H   0  0  0  0  0  0  0  0  0  0  0  0
  1  2  1  0
  2  3  1  0
  3  4  2  0
  4  5  1  0
  5  6  1  0
  5  7  1  0
  4  8  1  0
  8  9  1  0
  9  2  1  0
  1 10  1  0
  1 11  1  0
  1 12  1  0
  2 13  1  0
  3 14  1  0
  5 15  1  0
  6 16  1  0
  6 17  1  0
  6 18  1  0
  7 19  1  0
  8 20  1  0
  8 21  1  0
  9 22  1  0
  9 23  1  0
M  END
