
     RDKit          3D

 23 24  0  0  0  0  0  0  0  0999 V2000
    2.2061   -1.0551   -0.1805 C   0  0  0  0  0  0  0  0  0  0  0  0
    1.9427    0.3567    0.2698 C   0  0  0  0  0  0  0  0  0  0  0  0
    1.9026    1.3504   -0.8533 C   0  0  0  0  0  0  0  0  0  0  0  0
    0.6981    1.0669    0.0721 C   0  0  0  0  0  0  0  0  0  0  0  0
   -0.5155    0.5292   -0.6062 C   0  0  0  0  0  0  0  0  0  0  0  0
   -1.1032   -0.6982    0.0338 C   0  0  0  0  0  0  0  0  0  0  0  0
   -1.5881   -0.7141    1.4168 C   0  0  0  0  0  0  0  0  0  0  0  0
   -2.6101   -0.6995    0.3216 C   0  0  0  0  0  0  0  0  0  0  0  0
   -3.2898    0.5064    0.1696 O   0  0  0  0  0  0  0  0  0  0  0  0
    3.2509   -1.0528   -0.6104 H   0  0  0  0  0  0  0  0  0  0  0  0
    1.5519   -1.4108   -0.9717 H   0  0  0  0  0  0  0  0  0  0  0  0
    2.2451   -1.7066    0.6938 H   0  0  0  0  0  0  0  0  0  0  0  0
    2.5982    0.6546    1.1149 H   0  0  0  0  0  0  0  0  0  0  0  0
    1.7929    1.0100   -1.9004 H   0  0  0  0  0  0  0  0  0  0  0  0
    2.3988    2.3206   -0.7567 H   0  0  0  0  0  0  0  0  0  0  0  0
    0.4799    1.9091    0.7787 H   0  0  0  0  0  0  0  0  0  0  0  0
   -1.3166    1.2978   -0.6424 H   0  0  0  0  0  0  0  0  0  0  0  0
   -0.2894    0.2927   -1.6677 H   0  0  0  0  0  0  0  0  0  0  0  0
   -0.7622   -1.6664   -0.3899 H   0  0  0  0  0  0  0  0  0  0  0  0
   -1.5369   -1.6866    1.9832 H   0  0  0  0  0  0  0  0  0  0  0  0
   -1.5242    0.1591    2.0881 H   0  0  0  0  0  0  0  0  0  0  0  0
   -3.2019   -1.5780    0.0784 H   0  0  0  0  0  0  0  0  0  0  0  0
   -3.3292    0.8146   -0.7655 H   0  0  0  0  0  0  0  0  0  0  0  0
  1  2  1  0
  2  3  1  0
  3  4  1  0
  4  5  1  0
  5  6  1  0
  6  7  1  0
  7  8  1  0
  8  9  1  0
  4  2  1  0
  8  6  1  0
  1 10  1  0
  1 11  1  0
  1 12  1  0
  2 13  1  0
  3 14  1  0
  3 15  1  0
  4 16  1  0
  5 17  1  0
  5 18  1  0
  6 19  1  0
  7 20  1  0
  7 21  1  0
  8 22  1  0
  9 23  1  0
M  END
