
     RDKit          3D

 21 22  0  0  0  0  0  0  0  0999 V2000
    1.5984   -1.2181    0.2026 C   0  0  0  0  0  0  0  0  0  0  0  0
    0.7458   -0.3002   -0.5902 C   0  0  0  0  0  0  0  0  0  0  0  0
    1.0387    1.1700   -0.4570 C   0  0  0  0  0  0  0  0  0  0  0  0
    1.8135    1.5234    0.6512 O   0  0  0  0  0  0  0  0  0  0  0  0
   -0.4173    1.3939   -0.1451 C   0  0  0  0  0  0  0  0  0  0  0  0
   -1.4799    0.8181   -1.0257 C   0  0  0  0  0  0  0  0  0  0  0  0
   -0.6415   -0.0497   -0.1335 C   0  0  0  0  0  0  0  0  0  0  0  0
   -1.2542   -0.7936    1.0011 C   0  0  0  0  0  0  0  0  0  0  0  0
   -1.2502   -2.1624    0.6655 O   0  0  0  0  0  0  0  0  0  0  0  0
    2.0079   -2.0467   -0.4322 H   0  0  0  0  0  0  0  0  0  0  0  0
    1.1257   -1.6781    1.0725 H   0  0  0  0  0  0  0  0  0  0  0  0
    2.5006   -0.6515    0.5434 H   0  0  0  0  0  0  0  0  0  0  0  0
    0.7537   -0.5757   -1.6799 H   0  0  0  0  0  0  0  0  0  0  0  0
    1.3470    1.6768   -1.3942 H   0  0  0  0  0  0  0  0  0  0  0  0
    1.5405    2.4574    0.8834 H   0  0  0  0  0  0  0  0  0  0  0  0
   -0.6986    2.0825    0.6481 H   0  0  0  0  0  0  0  0  0  0  0  0
   -2.5035    1.0666   -0.7632 H   0  0  0  0  0  0  0  0  0  0  0  0
   -1.2816    0.6641   -2.1081 H   0  0  0  0  0  0  0  0  0  0  0  0
   -0.7099   -0.6800    1.9576 H   0  0  0  0  0  0  0  0  0  0  0  0
   -2.2937   -0.4461    1.1496 H   0  0  0  0  0  0  0  0  0  0  0  0
   -1.9415   -2.2508   -0.0459 H   0  0  0  0  0  0  0  0  0  0  0  0
  1  2  1  0
  2  3  1  0
  3  4  1  0
  3  5  1  0
  5  6  1  0
  6  7  1  0
  7  8  1  0
  8  9  1  0
  7  2  1  0
  7  5  1  0
  1 10  1  0
  1 11  1  0
  1 12  1  0
  2 13  1  0
  3 14  1  0
  4 15  1  0
  5 16  1  0
  6 17  1  0
  6 18  1  0
  8 19  1  0
  8 20  1  0
  9 21  1  0
M  END
