
     RDKit          3D

 21 22  0  0  0  0  0  0  0  0999 V2000
   -2.3609    0.7786    0.7730 C   0  0  0  0  0  0  0  0  0  0  0  0
   -1.2203    0.5246   -0.1892 C   0  0  0  0  0  0  0  0  0  0  0  0
   -1.4638   -0.6196   -1.0734 C   0  0  0  0  0  0  0  0  0  0  0  0
   -0.3964   -1.3968   -1.0645 C   0  0  0  0  0  0  0  0  0  0  0  0
    0.6866   -0.9195   -0.2100 C   0  0  0  0  0  0  0  0  0  0  0  0
    1.4448   -1.8383    0.5306 O   0  0  0  0  0  0  0  0  0  0  0  0
    1.2883    0.4150   -0.4042 C   0  0  0  0  0  0  0  0  0  0  0  0
    2.5498    0.7754    0.3265 C   0  0  0  0  0  0  0  0  0  0  0  0
    0.0705    0.2501    0.4757 C   0  0  0  0  0  0  0  0  0  0  0  0
   -2.4576    0.0095    1.5466 H   0  0  0  0  0  0  0  0  0  0  0  0
   -2.1927    1.7898    1.2063 H   0  0  0  0  0  0  0  0  0  0  0  0
   -3.2929    0.8073    0.1975 H   0  0  0  0  0  0  0  0  0  0  0  0
   -1.1190    1.4730   -0.7773 H   0  0  0  0  0  0  0  0  0  0  0  0
   -2.4032   -0.7804   -1.6453 H   0  0  0  0  0  0  0  0  0  0  0  0
   -0.3617   -2.3231   -1.6660 H   0  0  0  0  0  0  0  0  0  0  0  0
    1.2722   -2.7464    0.1594 H   0  0  0  0  0  0  0  0  0  0  0  0
    1.1583    0.8695   -1.3903 H   0  0  0  0  0  0  0  0  0  0  0  0
    2.3236    1.0979    1.3679 H   0  0  0  0  0  0  0  0  0  0  0  0
    3.0304    1.6485   -0.1611 H   0  0  0  0  0  0  0  0  0  0  0  0
    3.2557   -0.0750    0.4203 H   0  0  0  0  0  0  0  0  0  0  0  0
    0.1883    0.2600    1.5776 H   0  0  0  0  0  0  0  0  0  0  0  0
  1  2  1  0
  2  3  1  0
  3  4  2  0
  4  5  1  0
  5  6  1  0
  5  7  1  0
  7  8  1  0
  7  9  1  0
  9  2  1  0
  9  5  1  0
  1 10  1  0
  1 11  1  0
  1 12  1  0
  2 13  1  0
  3 14  1  0
  4 15  1  0
  6 16  1  0
  7 17  1  0
  8 18  1  0
  8 19  1  0
  8 20  1  0
  9 21  1  0
M  END
