
     RDKit          3D

 19 20  0  0  0  0  0  0  0  0999 V2000
   -1.9921   -0.4007    0.4341 C   0  0  0  0  0  0  0  0  0  0  0  0
   -0.8573    0.1693   -0.4318 C   0  0  0  0  0  0  0  0  0  0  0  0
   -0.4864    1.5300   -0.0023 C   0  0  0  0  0  0  0  0  0  0  0  0
    0.8573    1.8007    0.1463 O   0  0  0  0  0  0  0  0  0  0  0  0
    1.8938    0.9667   -0.2141 C   0  0  0  0  0  0  0  0  0  0  0  0
    3.0565    1.3974   -0.2916 O   0  0  0  0  0  0  0  0  0  0  0  0
    1.5882   -0.4376   -0.5025 C   0  0  0  0  0  0  0  0  0  0  0  0
    1.0562   -1.2186    0.6558 C   0  0  0  0  0  0  0  0  0  0  0  0
    0.2075   -0.8470   -0.5044 C   0  0  0  0  0  0  0  0  0  0  0  0
   -1.5997   -0.8048    1.3859 H   0  0  0  0  0  0  0  0  0  0  0  0
   -2.4325   -1.2529   -0.1232 H   0  0  0  0  0  0  0  0  0  0  0  0
   -2.7057    0.4289    0.5627 H   0  0  0  0  0  0  0  0  0  0  0  0
   -1.3338    0.2507   -1.4475 H   0  0  0  0  0  0  0  0  0  0  0  0
   -0.9856    1.7277    0.9923 H   0  0  0  0  0  0  0  0  0  0  0  0
   -0.9223    2.3295   -0.6726 H   0  0  0  0  0  0  0  0  0  0  0  0
    2.3103   -0.9191   -1.2171 H   0  0  0  0  0  0  0  0  0  0  0  0
    1.4764   -2.2447    0.7434 H   0  0  0  0  0  0  0  0  0  0  0  0
    0.9231   -0.7403    1.6437 H   0  0  0  0  0  0  0  0  0  0  0  0
   -0.0540   -1.7352   -1.1570 H   0  0  0  0  0  0  0  0  0  0  0  0
  1  2  1  0
  2  3  1  0
  3  4  1  0
  4  5  1  0
  5  6  2  0
  5  7  1  0
  7  8  1  0
  8  9  1  0
  9  2  1  0
  9  7  1  0
  1 10  1  0
  1 11  1  0
  1 12  1  0
  2 13  1  0
  3 14  1  0
  3 15  1  0
  7 16  1  0
  8 17  1  0
  8 18  1  0
  9 19  1  0
M  END
