
     RDKit          3D

 25 25  0  0  0  0  0  0  0  0999 V2000
   -1.9656    0.9453   -0.6797 C   0  0  0  0  0  0  0  0  0  0  0  0
   -1.2498    0.5071    0.5540 C   0  0  0  0  0  0  0  0  0  0  0  0
   -1.2712   -0.9795    0.7697 C   0  0  0  0  0  0  0  0  0  0  0  0
   -0.8438   -1.7198   -0.4516 C   0  0  0  0  0  0  0  0  0  0  0  0
    0.4740   -2.0397   -0.5099 O   0  0  0  0  0  0  0  0  0  0  0  0
    1.3543   -1.1341   -0.0143 C   0  0  0  0  0  0  0  0  0  0  0  0
    1.0799    0.2953   -0.3599 C   0  0  0  0  0  0  0  0  0  0  0  0
    2.4260    1.0296   -0.2381 C   0  0  0  0  0  0  0  0  0  0  0  0
    0.1740    0.9746    0.6261 C   0  0  0  0  0  0  0  0  0  0  0  0
   -1.3936    0.8197   -1.6123 H   0  0  0  0  0  0  0  0  0  0  0  0
   -2.9409    0.3878   -0.7096 H   0  0  0  0  0  0  0  0  0  0  0  0
   -2.2172    2.0308   -0.5976 H   0  0  0  0  0  0  0  0  0  0  0  0
   -1.7822    0.9646    1.4272 H   0  0  0  0  0  0  0  0  0  0  0  0
   -2.2983   -1.2980    1.0839 H   0  0  0  0  0  0  0  0  0  0  0  0
   -0.6100   -1.2056    1.6206 H   0  0  0  0  0  0  0  0  0  0  0  0
   -1.4406   -2.6762   -0.4825 H   0  0  0  0  0  0  0  0  0  0  0  0
   -1.1149   -1.1919   -1.4084 H   0  0  0  0  0  0  0  0  0  0  0  0
    2.3725   -1.3812   -0.4379 H   0  0  0  0  0  0  0  0  0  0  0  0
    1.4745   -1.2190    1.0819 H   0  0  0  0  0  0  0  0  0  0  0  0
    0.7604    0.4287   -1.4077 H   0  0  0  0  0  0  0  0  0  0  0  0
    2.5974    1.2854    0.8496 H   0  0  0  0  0  0  0  0  0  0  0  0
    2.3303    2.0086   -0.7475 H   0  0  0  0  0  0  0  0  0  0  0  0
    3.2530    0.4099   -0.5973 H   0  0  0  0  0  0  0  0  0  0  0  0
    0.2821    2.0762    0.5909 H   0  0  0  0  0  0  0  0  0  0  0  0
    0.5499    0.6814    1.6504 H   0  0  0  0  0  0  0  0  0  0  0  0
  1  2  1  0
  2  3  1  0
  3  4  1  0
  4  5  1  0
  5  6  1  0
  6  7  1  0
  7  8  1  0
  7  9  1  0
  9  2  1  0
  1 10  1  0
  1 11  1  0
  1 12  1  0
  2 13  1  0
  3 14  1  0
  3 15  1  0
  4 16  1  0
  4 17  1  0
  6 18  1  0
  6 19  1  0
  7 20  1  0
  8 21  1  0
  8 22  1  0
  8 23  1  0
  9 24  1  0
  9 25  1  0
M  END
