
     RDKit          3D

 21 22  0  0  0  0  0  0  0  0999 V2000
    2.4466   -0.4989   -0.1586 C   0  0  0  0  0  0  0  0  0  0  0  0
    1.1045   -0.1700    0.4330 C   0  0  0  0  0  0  0  0  0  0  0  0
    0.5096    1.0944   -0.1204 C   0  0  0  0  0  0  0  0  0  0  0  0
   -0.9428    0.9720    0.3590 C   0  0  0  0  0  0  0  0  0  0  0  0
   -1.2866    1.6622    1.5090 O   0  0  0  0  0  0  0  0  0  0  0  0
   -1.9233    0.3913   -0.5533 C   0  0  0  0  0  0  0  0  0  0  0  0
   -1.2432   -0.4990    0.4044 C   0  0  0  0  0  0  0  0  0  0  0  0
   -1.9990   -1.0206    1.4547 O   0  0  0  0  0  0  0  0  0  0  0  0
    0.0479   -1.1951    0.0763 C   0  0  0  0  0  0  0  0  0  0  0  0
    3.1492    0.2905    0.0933 H   0  0  0  0  0  0  0  0  0  0  0  0
    2.3975   -0.7209   -1.2481 H   0  0  0  0  0  0  0  0  0  0  0  0
    2.7895   -1.4427    0.3220 H   0  0  0  0  0  0  0  0  0  0  0  0
    1.1962   -0.1044    1.5135 H   0  0  0  0  0  0  0  0  0  0  0  0
    0.5128    1.1122   -1.2261 H   0  0  0  0  0  0  0  0  0  0  0  0
    0.9456    2.0140    0.2743 H   0  0  0  0  0  0  0  0  0  0  0  0
   -0.7558    2.5047    1.5430 H   0  0  0  0  0  0  0  0  0  0  0  0
   -2.9890    0.6082   -0.3484 H   0  0  0  0  0  0  0  0  0  0  0  0
   -1.6420    0.2710   -1.6181 H   0  0  0  0  0  0  0  0  0  0  0  0
   -2.6393   -1.7203    1.1499 H   0  0  0  0  0  0  0  0  0  0  0  0
    0.2022   -2.0977    0.6764 H   0  0  0  0  0  0  0  0  0  0  0  0
    0.1193   -1.4512   -1.0130 H   0  0  0  0  0  0  0  0  0  0  0  0
  1  2  1  0
  2  3  1  0
  3  4  1  0
  4  5  1  0
  4  6  1  0
  6  7  1  0
  7  8  1  0
  7  9  1  0
  9  2  1  0
  7  4  1  0
  1 10  1  0
  1 11  1  0
  1 12  1  0
  2 13  1  0
  3 14  1  0
  3 15  1  0
  5 16  1  0
  6 17  1  0
  6 18  1  0
  8 19  1  0
  9 20  1  0
  9 21  1  0
M  END
