
     RDKit          3D

 20 21  0  0  0  0  0  0  0  0999 V2000
    2.2954   -0.7334    0.6719 C   0  0  0  0  0  0  0  0  0  0  0  0
    1.1755    0.1667    0.2681 C   0  0  0  0  0  0  0  0  0  0  0  0
    1.1414    0.4846   -1.2483 C   0  0  0  0  0  0  0  0  0  0  0  0
   -0.3422    0.6655   -1.0115 C   0  0  0  0  0  0  0  0  0  0  0  0
   -1.6186    0.9833   -0.9688 C   0  0  0  0  0  0  0  0  0  0  0  0
   -2.3858    0.1884    0.0417 C   0  0  0  0  0  0  0  0  0  0  0  0
   -1.2558   -0.2723    0.9692 C   0  0  0  0  0  0  0  0  0  0  0  0
   -0.1464   -0.4890   -0.0227 C   0  0  0  0  0  0  0  0  0  0  0  0
    1.9372   -1.7562    0.9173 H   0  0  0  0  0  0  0  0  0  0  0  0
    3.1003   -0.7469   -0.0942 H   0  0  0  0  0  0  0  0  0  0  0  0
    2.7434   -0.3270    1.6230 H   0  0  0  0  0  0  0  0  0  0  0  0
    1.0347    1.0683    0.8905 H   0  0  0  0  0  0  0  0  0  0  0  0
    1.3400   -0.4208   -1.8170 H   0  0  0  0  0  0  0  0  0  0  0  0
    1.6765    1.3878   -1.5279 H   0  0  0  0  0  0  0  0  0  0  0  0
   -2.0907    1.7387   -1.5902 H   0  0  0  0  0  0  0  0  0  0  0  0
   -3.0787    0.8531    0.6039 H   0  0  0  0  0  0  0  0  0  0  0  0
   -2.8960   -0.6740   -0.3821 H   0  0  0  0  0  0  0  0  0  0  0  0
   -0.9437    0.5020    1.6786 H   0  0  0  0  0  0  0  0  0  0  0  0
   -1.5672   -1.1591    1.5227 H   0  0  0  0  0  0  0  0  0  0  0  0
   -0.1193   -1.4596   -0.5243 H   0  0  0  0  0  0  0  0  0  0  0  0
  1  2  1  0
  2  3  1  0
  3  4  1  0
  4  5  2  0
  5  6  1  0
  6  7  1  0
  7  8  1  0
  8  2  1  0
  8  4  1  0
  1  9  1  0
  1 10  1  0
  1 11  1  0
  2 12  1  0
  3 13  1  0
  3 14  1  0
  5 15  1  0
  6 16  1  0
  6 17  1  0
  7 18  1  0
  7 19  1  0
  8 20  1  0
M  END
