
     RDKit          3D

 25 25  0  0  0  0  0  0  0  0999 V2000
   -1.7180    2.0308    0.0937 C   0  0  0  0  0  0  0  0  0  0  0  0
   -0.8566    0.7745   -0.0587 C   0  0  0  0  0  0  0  0  0  0  0  0
   -1.7001   -0.3960    0.3765 C   0  0  0  0  0  0  0  0  0  0  0  0
   -0.9142   -1.6710    0.2395 C   0  0  0  0  0  0  0  0  0  0  0  0
   -0.0027   -1.5733   -0.9397 C   0  0  0  0  0  0  0  0  0  0  0  0
    1.2031   -0.7354   -0.7400 C   0  0  0  0  0  0  0  0  0  0  0  0
    1.2474    0.0193    0.5491 C   0  0  0  0  0  0  0  0  0  0  0  0
    2.5634    0.8083    0.5594 C   0  0  0  0  0  0  0  0  0  0  0  0
    0.2435    0.9187    0.7355 O   0  0  0  0  0  0  0  0  0  0  0  0
   -1.5351    2.7403   -0.7510 H   0  0  0  0  0  0  0  0  0  0  0  0
   -2.7956    1.7430    0.0938 H   0  0  0  0  0  0  0  0  0  0  0  0
   -1.5082    2.5600    1.0395 H   0  0  0  0  0  0  0  0  0  0  0  0
   -0.5643    0.7391   -1.1203 H   0  0  0  0  0  0  0  0  0  0  0  0
   -2.6099   -0.4398   -0.2607 H   0  0  0  0  0  0  0  0  0  0  0  0
   -1.9744   -0.2133    1.4388 H   0  0  0  0  0  0  0  0  0  0  0  0
   -1.6360   -2.5089    0.0252 H   0  0  0  0  0  0  0  0  0  0  0  0
   -0.3954   -1.9386    1.1669 H   0  0  0  0  0  0  0  0  0  0  0  0
    0.2556   -2.6266   -1.2559 H   0  0  0  0  0  0  0  0  0  0  0  0
   -0.6195   -1.1843   -1.7977 H   0  0  0  0  0  0  0  0  0  0  0  0
    2.0977   -1.4155   -0.7503 H   0  0  0  0  0  0  0  0  0  0  0  0
    1.3511   -0.0717   -1.6318 H   0  0  0  0  0  0  0  0  0  0  0  0
    1.3437   -0.7289    1.3725 H   0  0  0  0  0  0  0  0  0  0  0  0
    3.3477    0.3195   -0.0141 H   0  0  0  0  0  0  0  0  0  0  0  0
    2.8427    1.0769    1.5955 H   0  0  0  0  0  0  0  0  0  0  0  0
    2.3342    1.7729    0.0341 H   0  0  0  0  0  0  0  0  0  0  0  0
  1  2  1  0
  2  3  1  0
  3  4  1  0
  4  5  1  0
  5  6  1  0
  6  7  1  0
  7  8  1  0
  7  9  1  0
  9  2  1  0
  1 10  1  0
  1 11  1  0
  1 12  1  0
  2 13  1  0
  3 14  1  0
  3 15  1  0
  4 16  1  0
  4 17  1  0
  5 18  1  0
  5 19  1  0
  6 20  1  0
  6 21  1  0
  7 22  1  0
  8 23  1  0
  8 24  1  0
  8 25  1  0
M  END
