
     RDKit          3D

 23 23  0  0  0  0  0  0  0  0999 V2000
   -0.1161    1.5889    0.8602 C   0  0  0  0  0  0  0  0  0  0  0  0
   -0.1642    0.7969   -0.3992 C   0  0  0  0  0  0  0  0  0  0  0  0
    1.2601    0.5883   -0.9004 C   0  0  0  0  0  0  0  0  0  0  0  0
    2.0500   -0.3121   -0.0197 C   0  0  0  0  0  0  0  0  0  0  0  0
    1.2363   -1.1662    0.8712 C   0  0  0  0  0  0  0  0  0  0  0  0
   -0.0739   -1.3018    0.7952 C   0  0  0  0  0  0  0  0  0  0  0  0
   -0.7980   -0.5424   -0.2637 C   0  0  0  0  0  0  0  0  0  0  0  0
   -2.2736   -0.4942    0.0278 C   0  0  0  0  0  0  0  0  0  0  0  0
   -0.6429   -1.2036   -1.5036 O   0  0  0  0  0  0  0  0  0  0  0  0
    0.3275    2.5872    0.6130 H   0  0  0  0  0  0  0  0  0  0  0  0
   -1.1496    1.7662    1.2486 H   0  0  0  0  0  0  0  0  0  0  0  0
    0.5198    1.0769    1.5998 H   0  0  0  0  0  0  0  0  0  0  0  0
   -0.7029    1.3637   -1.1791 H   0  0  0  0  0  0  0  0  0  0  0  0
    1.1505    0.1730   -1.9329 H   0  0  0  0  0  0  0  0  0  0  0  0
    1.7796    1.5646   -1.0092 H   0  0  0  0  0  0  0  0  0  0  0  0
    2.6733    0.3406    0.6601 H   0  0  0  0  0  0  0  0  0  0  0  0
    2.7234   -0.9355   -0.6724 H   0  0  0  0  0  0  0  0  0  0  0  0
    1.7545   -1.7201    1.6416 H   0  0  0  0  0  0  0  0  0  0  0  0
   -0.5850   -1.9550    1.4970 H   0  0  0  0  0  0  0  0  0  0  0  0
   -2.4912   -0.0355    0.9975 H   0  0  0  0  0  0  0  0  0  0  0  0
   -2.6269   -1.5532    0.0663 H   0  0  0  0  0  0  0  0  0  0  0  0
   -2.7716   -0.0322   -0.8314 H   0  0  0  0  0  0  0  0  0  0  0  0
   -1.0793   -0.5944   -2.1666 H   0  0  0  0  0  0  0  0  0  0  0  0
  1  2  1  0
  2  3  1  0
  3  4  1  0
  4  5  1  0
  5  6  2  0
  6  7  1  0
  7  8  1  0
  7  9  1  0
  7  2  1  0
  1 10  1  0
  1 11  1  0
  1 12  1  0
  2 13  1  0
  3 14  1  0
  3 15  1  0
  4 16  1  0
  4 17  1  0
  5 18  1  0
  6 19  1  0
  8 20  1  0
  8 21  1  0
  8 22  1  0
  9 23  1  0
M  END
