
     RDKit          3D

 21 22  0  0  0  0  0  0  0  0999 V2000
    3.0626    0.0664    0.7060 C   0  0  0  0  0  0  0  0  0  0  0  0
    1.6901   -0.2631    0.2267 C   0  0  0  0  0  0  0  0  0  0  0  0
    1.3981    0.2537   -1.1397 C   0  0  0  0  0  0  0  0  0  0  0  0
    0.0761    0.5306   -1.1581 C   0  0  0  0  0  0  0  0  0  0  0  0
   -0.4063    0.1820    0.1795 C   0  0  0  0  0  0  0  0  0  0  0  0
   -1.1289   -1.1767    0.2586 C   0  0  0  0  0  0  0  0  0  0  0  0
   -1.7822    0.1474    0.6029 C   0  0  0  0  0  0  0  0  0  0  0  0
   -2.9219    0.6018   -0.2547 C   0  0  0  0  0  0  0  0  0  0  0  0
    0.6853    0.3690    0.9874 O   0  0  0  0  0  0  0  0  0  0  0  0
    3.6273   -0.8684    0.8279 H   0  0  0  0  0  0  0  0  0  0  0  0
    3.5731    0.8161    0.0755 H   0  0  0  0  0  0  0  0  0  0  0  0
    2.9749    0.5445    1.7209 H   0  0  0  0  0  0  0  0  0  0  0  0
    1.4494   -1.3475    0.2449 H   0  0  0  0  0  0  0  0  0  0  0  0
    2.1238    0.3661   -1.9202 H   0  0  0  0  0  0  0  0  0  0  0  0
   -0.4296    0.9268   -2.0327 H   0  0  0  0  0  0  0  0  0  0  0  0
   -1.4625   -1.6183   -0.7112 H   0  0  0  0  0  0  0  0  0  0  0  0
   -0.7523   -1.8264    1.0615 H   0  0  0  0  0  0  0  0  0  0  0  0
   -1.9851    0.2483    1.7009 H   0  0  0  0  0  0  0  0  0  0  0  0
   -2.6634    1.3738   -0.9750 H   0  0  0  0  0  0  0  0  0  0  0  0
   -3.3358   -0.3029   -0.7874 H   0  0  0  0  0  0  0  0  0  0  0  0
   -3.7928    0.9768    0.3508 H   0  0  0  0  0  0  0  0  0  0  0  0
  1  2  1  0
  2  3  1  0
  3  4  2  0
  4  5  1  0
  5  6  1  0
  6  7  1  0
  7  8  1  0
  5  9  1  0
  9  2  1  0
  7  5  1  0
  1 10  1  0
  1 11  1  0
  1 12  1  0
  2 13  1  0
  3 14  1  0
  4 15  1  0
  6 16  1  0
  6 17  1  0
  7 18  1  0
  8 19  1  0
  8 20  1  0
  8 21  1  0
M  END
