
     RDKit          3D

 23 24  0  0  0  0  0  0  0  0999 V2000
    1.9908   -0.6893    0.6465 C   0  0  0  0  0  0  0  0  0  0  0  0
    1.5050    0.1849   -0.4654 C   0  0  0  0  0  0  0  0  0  0  0  0
    0.7849    1.4253    0.0616 C   0  0  0  0  0  0  0  0  0  0  0  0
   -0.4065    1.0644   -0.7568 C   0  0  0  0  0  0  0  0  0  0  0  0
   -1.7027    0.8636   -0.0248 C   0  0  0  0  0  0  0  0  0  0  0  0
   -1.5980   -0.2152    1.0315 C   0  0  0  0  0  0  0  0  0  0  0  0
   -1.3019   -1.4750    0.3055 C   0  0  0  0  0  0  0  0  0  0  0  0
   -0.4376   -1.4208   -0.7006 C   0  0  0  0  0  0  0  0  0  0  0  0
    0.2580   -0.2201   -1.1652 C   0  0  0  0  0  0  0  0  0  0  0  0
    2.3514   -0.0124    1.4666 H   0  0  0  0  0  0  0  0  0  0  0  0
    1.2356   -1.3742    1.0432 H   0  0  0  0  0  0  0  0  0  0  0  0
    2.9206   -1.2493    0.3318 H   0  0  0  0  0  0  0  0  0  0  0  0
    2.3771    0.4434   -1.1361 H   0  0  0  0  0  0  0  0  0  0  0  0
    0.6723    1.4031    1.1616 H   0  0  0  0  0  0  0  0  0  0  0  0
    1.3201    2.3445   -0.2600 H   0  0  0  0  0  0  0  0  0  0  0  0
   -0.5466    1.7852   -1.5832 H   0  0  0  0  0  0  0  0  0  0  0  0
   -2.4456    0.4930   -0.7717 H   0  0  0  0  0  0  0  0  0  0  0  0
   -2.0286    1.8235    0.3822 H   0  0  0  0  0  0  0  0  0  0  0  0
   -2.5669   -0.2711    1.5711 H   0  0  0  0  0  0  0  0  0  0  0  0
   -0.7644    0.0626    1.7079 H   0  0  0  0  0  0  0  0  0  0  0  0
   -1.8059   -2.3776    0.6324 H   0  0  0  0  0  0  0  0  0  0  0  0
   -0.2510   -2.3623   -1.2021 H   0  0  0  0  0  0  0  0  0  0  0  0
    0.4401   -0.2263   -2.2760 H   0  0  0  0  0  0  0  0  0  0  0  0
  1  2  1  0
  2  3  1  0
  3  4  1  0
  4  5  1  0
  5  6  1  0
  6  7  1  0
  7  8  2  0
  8  9  1  0
  9  2  1  0
  9  4  1  0
  1 10  1  0
  1 11  1  0
  1 12  1  0
  2 13  1  0
  3 14  1  0
  3 15  1  0
  4 16  1  0
  5 17  1  0
  5 18  1  0
  6 19  1  0
  6 20  1  0
  7 21  1  0
  8 22  1  0
  9 23  1  0
M  END
