
     RDKit          3D

 19 21  0  0  0  0  0  0  0  0999 V2000
   -1.8908    0.9692    0.2021 C   0  0  0  0  0  0  0  0  0  0  0  0
   -1.4281   -0.4469    0.0707 C   0  0  0  0  0  0  0  0  0  0  0  0
   -0.4899   -0.7592    1.2515 C   0  0  0  0  0  0  0  0  0  0  0  0
    0.3760    0.2873    1.5025 O   0  0  0  0  0  0  0  0  0  0  0  0
    0.9211    0.0611    0.2116 C   0  0  0  0  0  0  0  0  0  0  0  0
    2.2347    0.5595   -0.1732 C   0  0  0  0  0  0  0  0  0  0  0  0
    0.4652   -1.3042    0.2882 C   0  0  0  0  0  0  0  0  0  0  0  0
   -0.1122   -0.4625   -0.7212 C   0  0  0  0  0  0  0  0  0  0  0  0
   -0.0348   -0.6000   -2.0283 O   0  0  0  0  0  0  0  0  0  0  0  0
   -2.0591    1.4221   -0.8178 H   0  0  0  0  0  0  0  0  0  0  0  0
   -1.0350    1.5729    0.6173 H   0  0  0  0  0  0  0  0  0  0  0  0
   -2.7664    1.0962    0.8592 H   0  0  0  0  0  0  0  0  0  0  0  0
   -2.1373   -1.2105   -0.1772 H   0  0  0  0  0  0  0  0  0  0  0  0
   -0.8981   -1.3235    2.0524 H   0  0  0  0  0  0  0  0  0  0  0  0
    2.2784    0.7122   -1.2741 H   0  0  0  0  0  0  0  0  0  0  0  0
    3.0317   -0.1059    0.2046 H   0  0  0  0  0  0  0  0  0  0  0  0
    2.3874    1.5860    0.2636 H   0  0  0  0  0  0  0  0  0  0  0  0
    0.9742   -2.2154    0.2571 H   0  0  0  0  0  0  0  0  0  0  0  0
    0.1829    0.1617   -2.5890 H   0  0  0  0  0  0  0  0  0  0  0  0
  1  2  1  0
  2  3  1  0
  3  4  1  0
  4  5  1  0
  5  6  1  0
  5  7  1  0
  7  8  1  0
  8  9  1  0
  8  2  1  0
  7  3  1  0
  8  5  1  0
  1 10  1  0
  1 11  1  0
  1 12  1  0
  2 13  1  0
  3 14  1  0
  6 15  1  0
  6 16  1  0
  6 17  1  0
  7 18  1  0
  9 19  1  0
M  END
