
     RDKit          3D

 21 22  0  0  0  0  0  0  0  0999 V2000
   -0.4555    1.7115   -0.6878 C   0  0  0  0  0  0  0  0  0  0  0  0
   -0.1100    0.7687    0.4059 C   0  0  0  0  0  0  0  0  0  0  0  0
    1.0151   -0.1918    0.1564 C   0  0  0  0  0  0  0  0  0  0  0  0
    2.3499    0.0871    0.0345 C   0  0  0  0  0  0  0  0  0  0  0  0
    0.1182   -0.8125   -0.8863 C   0  0  0  0  0  0  0  0  0  0  0  0
   -0.7836   -0.5822    0.3017 C   0  0  0  0  0  0  0  0  0  0  0  0
   -2.1114   -0.8620    0.4135 C   0  0  0  0  0  0  0  0  0  0  0  0
    0.3429   -1.0736    1.1063 C   0  0  0  0  0  0  0  0  0  0  0  0
    0.5666   -1.7902    2.0194 O   0  0  0  0  0  0  0  0  0  0  0  0
   -0.6096    2.7293   -0.2346 H   0  0  0  0  0  0  0  0  0  0  0  0
   -1.4491    1.4241   -1.1138 H   0  0  0  0  0  0  0  0  0  0  0  0
    0.3013    1.8294   -1.4610 H   0  0  0  0  0  0  0  0  0  0  0  0
   -0.0872    1.1509    1.4319 H   0  0  0  0  0  0  0  0  0  0  0  0
    2.5803    1.1699   -0.1939 H   0  0  0  0  0  0  0  0  0  0  0  0
    2.9673   -0.1163    0.9594 H   0  0  0  0  0  0  0  0  0  0  0  0
    2.8763   -0.5155   -0.7631 H   0  0  0  0  0  0  0  0  0  0  0  0
   -0.0412   -0.1621   -1.7484 H   0  0  0  0  0  0  0  0  0  0  0  0
    0.2875   -1.8789   -1.1000 H   0  0  0  0  0  0  0  0  0  0  0  0
   -2.8025    0.0329    0.3696 H   0  0  0  0  0  0  0  0  0  0  0  0
   -2.5335   -1.5453   -0.3837 H   0  0  0  0  0  0  0  0  0  0  0  0
   -2.4219   -1.3734    1.3738 H   0  0  0  0  0  0  0  0  0  0  0  0
  1  2  1  0
  2  3  1  0
  3  4  1  0
  3  5  1  0
  5  6  1  0
  6  7  1  0
  6  8  1  0
  8  9  2  0
  6  2  1  0
  8  3  1  0
  1 10  1  0
  1 11  1  0
  1 12  1  0
  2 13  1  0
  4 14  1  0
  4 15  1  0
  4 16  1  0
  5 17  1  0
  5 18  1  0
  7 19  1  0
  7 20  1  0
  7 21  1  0
M  END
