
     RDKit          3D

 18 19  0  0  0  0  0  0  0  0999 V2000
   -2.1066    0.2965   -0.4615 C   0  0  0  0  0  0  0  0  0  0  0  0
   -0.7965   -0.1409    0.0789 C   0  0  0  0  0  0  0  0  0  0  0  0
   -0.0262    1.0266    0.7207 C   0  0  0  0  0  0  0  0  0  0  0  0
    1.2111    0.7127    1.1515 O   0  0  0  0  0  0  0  0  0  0  0  0
    1.9919   -0.0807    0.3299 C   0  0  0  0  0  0  0  0  0  0  0  0
    1.2164   -1.2741   -0.0445 C   0  0  0  0  0  0  0  0  0  0  0  0
    0.7578   -1.7672   -1.1656 O   0  0  0  0  0  0  0  0  0  0  0  0
    0.1240   -0.6472   -0.9526 C   0  0  0  0  0  0  0  0  0  0  0  0
   -2.5796   -0.5838   -0.9448 H   0  0  0  0  0  0  0  0  0  0  0  0
   -2.7724    0.5441    0.4082 H   0  0  0  0  0  0  0  0  0  0  0  0
   -2.0622    1.1185   -1.1862 H   0  0  0  0  0  0  0  0  0  0  0  0
   -0.9862   -0.8472    0.9203 H   0  0  0  0  0  0  0  0  0  0  0  0
   -0.6088    1.4382    1.5685 H   0  0  0  0  0  0  0  0  0  0  0  0
    0.0151    1.8112   -0.0885 H   0  0  0  0  0  0  0  0  0  0  0  0
    2.8628   -0.4178    0.9632 H   0  0  0  0  0  0  0  0  0  0  0  0
    2.4355    0.4691   -0.5187 H   0  0  0  0  0  0  0  0  0  0  0  0
    0.8604   -1.8435    0.8616 H   0  0  0  0  0  0  0  0  0  0  0  0
    0.4635    0.1855   -1.6405 H   0  0  0  0  0  0  0  0  0  0  0  0
  1  2  1  0
  2  3  1  0
  3  4  1  0
  4  5  1  0
  5  6  1  0
  6  7  1  0
  7  8  1  0
  8  2  1  0
  8  6  1  0
  1  9  1  0
  1 10  1  0
  1 11  1  0
  2 12  1  0
  3 13  1  0
  3 14  1  0
  5 15  1  0
  5 16  1  0
  6 17  1  0
  8 18  1  0
M  END
