
     RDKit          3D

 17 17  0  0  0  0  0  0  0  0999 V2000
    1.8993   -0.8130    0.0380 C   0  0  0  0  0  0  0  0  0  0  0  0
    1.1182    0.4184   -0.4327 C   0  0  0  0  0  0  0  0  0  0  0  0
    0.2197    0.9431    0.6670 C   0  0  0  0  0  0  0  0  0  0  0  0
   -0.2903    0.3825   -0.6961 C   0  0  0  0  0  0  0  0  0  0  0  0
   -0.9886    1.4046   -1.3713 O   0  0  0  0  0  0  0  0  0  0  0  0
   -1.1236   -0.8269   -0.4248 C   0  0  0  0  0  0  0  0  0  0  0  0
   -0.8117   -1.8806   -1.0231 O   0  0  0  0  0  0  0  0  0  0  0  0
   -2.2226   -0.7809    0.4867 C   0  0  0  0  0  0  0  0  0  0  0  0
   -2.5937    0.2421    1.1251 O   0  0  0  0  0  0  0  0  0  0  0  0
    1.3094   -1.4191    0.7615 H   0  0  0  0  0  0  0  0  0  0  0  0
    2.7680   -0.3846    0.6033 H   0  0  0  0  0  0  0  0  0  0  0  0
    2.2853   -1.4405   -0.7693 H   0  0  0  0  0  0  0  0  0  0  0  0
    1.7831    1.1822   -0.8860 H   0  0  0  0  0  0  0  0  0  0  0  0
    0.1651    2.0335    0.8258 H   0  0  0  0  0  0  0  0  0  0  0  0
   -0.0141    0.3477    1.5424 H   0  0  0  0  0  0  0  0  0  0  0  0
   -0.7032    2.2998   -1.1037 H   0  0  0  0  0  0  0  0  0  0  0  0
   -2.8003   -1.7082    0.6573 H   0  0  0  0  0  0  0  0  0  0  0  0
  1  2  1  0
  2  3  1  0
  3  4  1  0
  4  5  1  0
  4  6  1  0
  6  7  2  0
  6  8  1  0
  8  9  2  0
  4  2  1  0
  1 10  1  0
  1 11  1  0
  1 12  1  0
  2 13  1  0
  3 14  1  0
  3 15  1  0
  5 16  1  0
  8 17  1  0
M  END
