
     RDKit          3D

 18 19  0  0  0  0  0  0  0  0999 V2000
    1.9238    0.3721   -0.5610 C   0  0  0  0  0  0  0  0  0  0  0  0
    0.8879    0.3861    0.5270 C   0  0  0  0  0  0  0  0  0  0  0  0
   -0.5351    0.6686    0.2562 C   0  0  0  0  0  0  0  0  0  0  0  0
   -1.3049    1.3733    1.1605 O   0  0  0  0  0  0  0  0  0  0  0  0
   -1.2710    0.0770   -0.8965 C   0  0  0  0  0  0  0  0  0  0  0  0
   -0.6131   -1.2586   -0.6744 C   0  0  0  0  0  0  0  0  0  0  0  0
   -0.0686   -0.7320    0.6225 C   0  0  0  0  0  0  0  0  0  0  0  0
   -0.4207   -1.2835    1.8236 O   0  0  0  0  0  0  0  0  0  0  0  0
    2.4119    1.3736   -0.6816 H   0  0  0  0  0  0  0  0  0  0  0  0
    1.5120    0.0287   -1.5078 H   0  0  0  0  0  0  0  0  0  0  0  0
    2.7302   -0.3379   -0.2186 H   0  0  0  0  0  0  0  0  0  0  0  0
    1.2690    0.7674    1.4999 H   0  0  0  0  0  0  0  0  0  0  0  0
   -1.5231    2.2422    0.7384 H   0  0  0  0  0  0  0  0  0  0  0  0
   -1.1345    0.5356   -1.8784 H   0  0  0  0  0  0  0  0  0  0  0  0
   -2.3793   -0.0379   -0.7125 H   0  0  0  0  0  0  0  0  0  0  0  0
   -1.2946   -2.1248   -0.5722 H   0  0  0  0  0  0  0  0  0  0  0  0
    0.1149   -1.4577   -1.4742 H   0  0  0  0  0  0  0  0  0  0  0  0
   -0.3049   -0.5923    2.5490 H   0  0  0  0  0  0  0  0  0  0  0  0
  1  2  1  0
  2  3  1  0
  3  4  1  0
  3  5  1  0
  5  6  1  0
  6  7  1  0
  7  8  1  0
  7  2  1  0
  7  3  1  0
  1  9  1  0
  1 10  1  0
  1 11  1  0
  2 12  1  0
  4 13  1  0
  5 14  1  0
  5 15  1  0
  6 16  1  0
  6 17  1  0
  8 18  1  0
M  END
