
     RDKit          3D

 21 22  0  0  0  0  0  0  0  0999 V2000
    2.4703   -0.5198   -0.4712 C   0  0  0  0  0  0  0  0  0  0  0  0
    0.9799   -0.4175   -0.6252 C   0  0  0  0  0  0  0  0  0  0  0  0
    0.2568   -1.1376    0.4841 C   0  0  0  0  0  0  0  0  0  0  0  0
   -1.0189   -0.3629    0.6868 C   0  0  0  0  0  0  0  0  0  0  0  0
   -1.8175   -0.1863   -0.6000 C   0  0  0  0  0  0  0  0  0  0  0  0
   -3.1713   -0.0747   -0.3965 O   0  0  0  0  0  0  0  0  0  0  0  0
   -0.9404    0.8928   -0.0895 C   0  0  0  0  0  0  0  0  0  0  0  0
   -1.5915    2.0463    0.3049 O   0  0  0  0  0  0  0  0  0  0  0  0
    0.4954    1.0005   -0.4697 C   0  0  0  0  0  0  0  0  0  0  0  0
    2.9382   -0.9122   -1.4056 H   0  0  0  0  0  0  0  0  0  0  0  0
    2.7724   -1.1489    0.3969 H   0  0  0  0  0  0  0  0  0  0  0  0
    2.9518    0.4810   -0.3103 H   0  0  0  0  0  0  0  0  0  0  0  0
    0.6252   -0.7632   -1.6303 H   0  0  0  0  0  0  0  0  0  0  0  0
    0.8465   -1.2844    1.3867 H   0  0  0  0  0  0  0  0  0  0  0  0
   -0.0542   -2.1342    0.0514 H   0  0  0  0  0  0  0  0  0  0  0  0
   -1.5278   -0.3448    1.6481 H   0  0  0  0  0  0  0  0  0  0  0  0
   -1.4799   -0.6848   -1.5178 H   0  0  0  0  0  0  0  0  0  0  0  0
   -3.4327   -0.1316    0.5734 H   0  0  0  0  0  0  0  0  0  0  0  0
   -1.0885    2.6323    0.8867 H   0  0  0  0  0  0  0  0  0  0  0  0
    1.0731    1.4315    0.3981 H   0  0  0  0  0  0  0  0  0  0  0  0
    0.7132    1.6185   -1.3371 H   0  0  0  0  0  0  0  0  0  0  0  0
  1  2  1  0
  2  3  1  0
  3  4  1  0
  4  5  1  0
  5  6  1  0
  5  7  1  0
  7  8  1  0
  7  9  1  0
  9  2  1  0
  7  4  1  0
  1 10  1  0
  1 11  1  0
  1 12  1  0
  2 13  1  0
  3 14  1  0
  3 15  1  0
  4 16  1  0
  5 17  1  0
  6 18  1  0
  8 19  1  0
  9 20  1  0
  9 21  1  0
M  END
