
     RDKit          3D

 21 22  0  0  0  0  0  0  0  0999 V2000
    1.8075   -0.8513   -0.2304 C   0  0  0  0  0  0  0  0  0  0  0  0
    0.9707    0.3415   -0.4569 C   0  0  0  0  0  0  0  0  0  0  0  0
    0.3181    0.8783    0.8206 C   0  0  0  0  0  0  0  0  0  0  0  0
   -0.3604   -0.2706    1.5127 C   0  0  0  0  0  0  0  0  0  0  0  0
   -1.1299   -1.0448    0.7758 C   0  0  0  0  0  0  0  0  0  0  0  0
   -1.1509   -0.9780   -0.6994 C   0  0  0  0  0  0  0  0  0  0  0  0
   -0.2809    0.1046   -1.2577 C   0  0  0  0  0  0  0  0  0  0  0  0
   -0.9602    1.3098   -1.0849 O   0  0  0  0  0  0  0  0  0  0  0  0
   -0.7443    1.7554    0.1849 C   0  0  0  0  0  0  0  0  0  0  0  0
    1.4920   -1.7652   -0.7479 H   0  0  0  0  0  0  0  0  0  0  0  0
    2.8625   -0.6009   -0.5475 H   0  0  0  0  0  0  0  0  0  0  0  0
    1.8900   -1.0582    0.8713 H   0  0  0  0  0  0  0  0  0  0  0  0
    1.4906    1.2103   -0.9091 H   0  0  0  0  0  0  0  0  0  0  0  0
    1.0125    1.4150    1.4587 H   0  0  0  0  0  0  0  0  0  0  0  0
   -0.2272   -0.4609    2.5736 H   0  0  0  0  0  0  0  0  0  0  0  0
   -1.7835   -1.7686    1.2494 H   0  0  0  0  0  0  0  0  0  0  0  0
   -2.2101   -0.7250   -0.9922 H   0  0  0  0  0  0  0  0  0  0  0  0
   -0.9535   -1.9708   -1.1761 H   0  0  0  0  0  0  0  0  0  0  0  0
   -0.0962   -0.0982   -2.3178 H   0  0  0  0  0  0  0  0  0  0  0  0
   -0.3209    2.7805    0.1379 H   0  0  0  0  0  0  0  0  0  0  0  0
   -1.6259    1.7973    0.8350 H   0  0  0  0  0  0  0  0  0  0  0  0
  1  2  1  0
  2  3  1  0
  3  4  1  0
  4  5  2  0
  5  6  1  0
  6  7  1  0
  7  8  1  0
  8  9  1  0
  7  2  1  0
  9  3  1  0
  1 10  1  0
  1 11  1  0
  1 12  1  0
  2 13  1  0
  3 14  1  0
  4 15  1  0
  5 16  1  0
  6 17  1  0
  6 18  1  0
  7 19  1  0
  9 20  1  0
  9 21  1  0
M  END
