
     RDKit          3D

 15 16  0  0  0  0  0  0  0  0999 V2000
    1.7724    0.2484    0.3247 C   0  0  0  0  0  0  0  0  0  0  0  0
    0.6599   -0.7620    0.0330 C   0  0  0  0  0  0  0  0  0  0  0  0
   -0.2285   -0.4576   -1.1337 C   0  0  0  0  0  0  0  0  0  0  0  0
   -0.3860    0.8785   -1.4157 O   0  0  0  0  0  0  0  0  0  0  0  0
   -1.0942    1.0655   -0.2389 C   0  0  0  0  0  0  0  0  0  0  0  0
   -0.7000   -0.2791    0.2816 C   0  0  0  0  0  0  0  0  0  0  0  0
   -1.7169   -1.0522    0.7742 O   0  0  0  0  0  0  0  0  0  0  0  0
    1.7793    0.3976    1.4287 H   0  0  0  0  0  0  0  0  0  0  0  0
    1.5462    1.1989   -0.2242 H   0  0  0  0  0  0  0  0  0  0  0  0
    2.7629   -0.1694    0.0518 H   0  0  0  0  0  0  0  0  0  0  0  0
    0.9821   -1.8016    0.1082 H   0  0  0  0  0  0  0  0  0  0  0  0
   -0.7605   -1.2408   -1.6781 H   0  0  0  0  0  0  0  0  0  0  0  0
   -0.7698    1.8886    0.4097 H   0  0  0  0  0  0  0  0  0  0  0  0
   -2.1731    1.2021   -0.4843 H   0  0  0  0  0  0  0  0  0  0  0  0
   -1.6737   -1.1168    1.7630 H   0  0  0  0  0  0  0  0  0  0  0  0
  1  2  1  0
  2  3  1  0
  3  4  1  0
  4  5  1  0
  5  6  1  0
  6  7  1  0
  6  2  1  0
  6  3  1  0
  1  8  1  0
  1  9  1  0
  1 10  1  0
  2 11  1  0
  3 12  1  0
  5 13  1  0
  5 14  1  0
  7 15  1  0
M  END
