
     RDKit          3D

 21 22  0  0  0  0  0  0  0  0999 V2000
    2.9405    0.3213   -0.0916 C   0  0  0  0  0  0  0  0  0  0  0  0
    1.5117    0.5018    0.2650 C   0  0  0  0  0  0  0  0  0  0  0  0
    0.8177   -0.7432    0.8342 C   0  0  0  0  0  0  0  0  0  0  0  0
   -0.3521   -0.3613    0.0265 C   0  0  0  0  0  0  0  0  0  0  0  0
    0.5249    0.3784   -0.9058 C   0  0  0  0  0  0  0  0  0  0  0  0
   -1.2072    0.6162    0.7535 O   0  0  0  0  0  0  0  0  0  0  0  0
   -1.6760   -0.6064    0.0670 C   0  0  0  0  0  0  0  0  0  0  0  0
   -2.5852   -0.1574   -1.0855 C   0  0  0  0  0  0  0  0  0  0  0  0
   -3.6421    0.5536   -0.5294 O   0  0  0  0  0  0  0  0  0  0  0  0
    3.3313   -0.6925    0.1345 H   0  0  0  0  0  0  0  0  0  0  0  0
    3.5671    1.1243    0.3936 H   0  0  0  0  0  0  0  0  0  0  0  0
    3.0922    0.4545   -1.1956 H   0  0  0  0  0  0  0  0  0  0  0  0
    1.2656    1.3602    0.9384 H   0  0  0  0  0  0  0  0  0  0  0  0
    0.6458   -0.7081    1.9144 H   0  0  0  0  0  0  0  0  0  0  0  0
    1.3189   -1.6631    0.4727 H   0  0  0  0  0  0  0  0  0  0  0  0
    0.1837    1.3228   -1.3225 H   0  0  0  0  0  0  0  0  0  0  0  0
    0.9668   -0.3384   -1.6572 H   0  0  0  0  0  0  0  0  0  0  0  0
   -2.1670   -1.3207    0.7244 H   0  0  0  0  0  0  0  0  0  0  0  0
   -1.9840    0.4719   -1.7717 H   0  0  0  0  0  0  0  0  0  0  0  0
   -2.9261   -1.0356   -1.6617 H   0  0  0  0  0  0  0  0  0  0  0  0
   -3.6263    0.5218    0.4404 H   0  0  0  0  0  0  0  0  0  0  0  0
  1  2  1  0
  2  3  1  0
  3  4  1  0
  4  5  1  0
  4  6  1  0
  6  7  1  0
  7  8  1  0
  8  9  1  0
  5  2  1  0
  7  4  1  0
  1 10  1  0
  1 11  1  0
  1 12  1  0
  2 13  1  0
  3 14  1  0
  3 15  1  0
  5 16  1  0
  5 17  1  0
  7 18  1  0
  8 19  1  0
  8 20  1  0
  9 21  1  0
M  END
