
     RDKit          3D

 21 22  0  0  0  0  0  0  0  0999 V2000
    2.8517    0.0133   -0.6683 C   0  0  0  0  0  0  0  0  0  0  0  0
    1.6056    0.1254    0.1465 C   0  0  0  0  0  0  0  0  0  0  0  0
    0.7084   -1.0193    0.3968 C   0  0  0  0  0  0  0  0  0  0  0  0
   -0.4689   -0.7232    1.0761 O   0  0  0  0  0  0  0  0  0  0  0  0
   -0.9482    0.1369    0.1049 C   0  0  0  0  0  0  0  0  0  0  0  0
   -1.1356    1.5640    0.5374 C   0  0  0  0  0  0  0  0  0  0  0  0
   -2.1829   -0.3787   -0.5831 C   0  0  0  0  0  0  0  0  0  0  0  0
   -1.9254   -1.5876   -1.2050 O   0  0  0  0  0  0  0  0  0  0  0  0
    0.3311   -0.0348   -0.6436 C   0  0  0  0  0  0  0  0  0  0  0  0
    3.5011    0.9055   -0.4867 H   0  0  0  0  0  0  0  0  0  0  0  0
    3.3862   -0.9426   -0.4917 H   0  0  0  0  0  0  0  0  0  0  0  0
    2.6398    0.0358   -1.7736 H   0  0  0  0  0  0  0  0  0  0  0  0
    1.6261    0.8946    0.9646 H   0  0  0  0  0  0  0  0  0  0  0  0
    0.9559   -2.0550    0.1410 H   0  0  0  0  0  0  0  0  0  0  0  0
   -0.1467    2.0453    0.6812 H   0  0  0  0  0  0  0  0  0  0  0  0
   -1.6569    2.0963   -0.2945 H   0  0  0  0  0  0  0  0  0  0  0  0
   -1.6669    1.6567    1.5044 H   0  0  0  0  0  0  0  0  0  0  0  0
   -2.9598   -0.5069    0.2159 H   0  0  0  0  0  0  0  0  0  0  0  0
   -2.5915    0.3508   -1.2902 H   0  0  0  0  0  0  0  0  0  0  0  0
   -2.2824   -2.3222   -0.6302 H   0  0  0  0  0  0  0  0  0  0  0  0
    0.3593   -0.2543   -1.7154 H   0  0  0  0  0  0  0  0  0  0  0  0
  1  2  1  0
  2  3  1  0
  3  4  1  0
  4  5  1  0
  5  6  1  0
  5  7  1  0
  7  8  1  0
  5  9  1  0
  9  2  1  0
  9  3  1  0
  1 10  1  0
  1 11  1  0
  1 12  1  0
  2 13  1  0
  3 14  1  0
  6 15  1  0
  6 16  1  0
  6 17  1  0
  7 18  1  0
  7 19  1  0
  8 20  1  0
  9 21  1  0
M  END
