
     RDKit          3D

 18 19  0  0  0  0  0  0  0  0999 V2000
   -1.6760   -1.4729   -0.1436 C   0  0  0  0  0  0  0  0  0  0  0  0
   -0.4170   -0.7695   -0.6060 C   0  0  0  0  0  0  0  0  0  0  0  0
   -0.3658    0.7052   -0.7170 C   0  0  0  0  0  0  0  0  0  0  0  0
   -1.0686    1.4685    0.3857 C   0  0  0  0  0  0  0  0  0  0  0  0
   -0.1844    0.8373    1.2881 O   0  0  0  0  0  0  0  0  0  0  0  0
    0.3804    0.0128    0.3528 C   0  0  0  0  0  0  0  0  0  0  0  0
    1.8819   -0.1462    0.2902 C   0  0  0  0  0  0  0  0  0  0  0  0
    2.4160    1.1270    0.0414 O   0  0  0  0  0  0  0  0  0  0  0  0
   -1.3335   -2.3901    0.4107 H   0  0  0  0  0  0  0  0  0  0  0  0
   -2.2940   -0.8708    0.5274 H   0  0  0  0  0  0  0  0  0  0  0  0
   -2.2354   -1.8415   -1.0389 H   0  0  0  0  0  0  0  0  0  0  0  0
    0.1347   -1.3293   -1.3755 H   0  0  0  0  0  0  0  0  0  0  0  0
    0.1294    1.2340   -1.5341 H   0  0  0  0  0  0  0  0  0  0  0  0
   -2.1061    1.1610    0.5760 H   0  0  0  0  0  0  0  0  0  0  0  0
   -0.9588    2.5699    0.3462 H   0  0  0  0  0  0  0  0  0  0  0  0
    2.1557   -0.8602   -0.5121 H   0  0  0  0  0  0  0  0  0  0  0  0
    2.1999   -0.5392    1.2816 H   0  0  0  0  0  0  0  0  0  0  0  0
    3.3417    1.1040    0.4269 H   0  0  0  0  0  0  0  0  0  0  0  0
  1  2  1  0
  2  3  1  0
  3  4  1  0
  4  5  1  0
  5  6  1  0
  6  7  1  0
  7  8  1  0
  6  2  1  0
  6  3  1  0
  1  9  1  0
  1 10  1  0
  1 11  1  0
  2 12  1  0
  3 13  1  0
  4 14  1  0
  4 15  1  0
  7 16  1  0
  7 17  1  0
  8 18  1  0
M  END
