
     RDKit          3D

 19 20  0  0  0  0  0  0  0  0999 V2000
   -0.9929   -1.7212   -0.0613 C   0  0  0  0  0  0  0  0  0  0  0  0
   -0.6273   -0.3706   -0.5673 C   0  0  0  0  0  0  0  0  0  0  0  0
   -1.7480    0.5622   -0.2394 C   0  0  0  0  0  0  0  0  0  0  0  0
   -1.3005    1.6829    0.2615 C   0  0  0  0  0  0  0  0  0  0  0  0
    0.1407    1.6599    0.3378 C   0  0  0  0  0  0  0  0  0  0  0  0
    0.9111    2.6422    0.6122 O   0  0  0  0  0  0  0  0  0  0  0  0
    0.5436    0.2688    0.0337 C   0  0  0  0  0  0  0  0  0  0  0  0
    1.9257    0.1549   -0.5817 C   0  0  0  0  0  0  0  0  0  0  0  0
    1.5825   -0.3505    0.8348 C   0  0  0  0  0  0  0  0  0  0  0  0
   -0.7665   -1.8697    1.0155 H   0  0  0  0  0  0  0  0  0  0  0  0
   -0.5817   -2.5448   -0.6882 H   0  0  0  0  0  0  0  0  0  0  0  0
   -2.1125   -1.8245   -0.1544 H   0  0  0  0  0  0  0  0  0  0  0  0
   -0.6110   -0.4233   -1.6936 H   0  0  0  0  0  0  0  0  0  0  0  0
   -2.8122    0.3487   -0.3933 H   0  0  0  0  0  0  0  0  0  0  0  0
   -1.9180    2.5225    0.5799 H   0  0  0  0  0  0  0  0  0  0  0  0
    2.5746    1.0471   -0.5879 H   0  0  0  0  0  0  0  0  0  0  0  0
    2.0787   -0.5813   -1.3711 H   0  0  0  0  0  0  0  0  0  0  0  0
    2.0007    0.2339    1.6908 H   0  0  0  0  0  0  0  0  0  0  0  0
    1.7131   -1.4371    0.9719 H   0  0  0  0  0  0  0  0  0  0  0  0
  1  2  1  0
  2  3  1  0
  3  4  2  0
  4  5  1  0
  5  6  2  0
  5  7  1  0
  7  8  1  0
  8  9  1  0
  7  2  1  0
  9  7  1  0
  1 10  1  0
  1 11  1  0
  1 12  1  0
  2 13  1  0
  3 14  1  0
  4 15  1  0
  8 16  1  0
  8 17  1  0
  9 18  1  0
  9 19  1  0
M  END
