
     RDKit          3D

 19 20  0  0  0  0  0  0  0  0999 V2000
   -2.3016   -0.1340   -0.0993 C   0  0  0  0  0  0  0  0  0  0  0  0
   -0.9529   -0.6057    0.3892 C   0  0  0  0  0  0  0  0  0  0  0  0
   -0.1756    0.4219    1.1773 C   0  0  0  0  0  0  0  0  0  0  0  0
    0.3153    0.9603   -0.1723 C   0  0  0  0  0  0  0  0  0  0  0  0
    1.7615    1.1096   -0.2792 C   0  0  0  0  0  0  0  0  0  0  0  0
    2.4344    2.1492   -0.4191 O   0  0  0  0  0  0  0  0  0  0  0  0
    2.3128   -0.2350   -0.1897 C   0  0  0  0  0  0  0  0  0  0  0  0
    1.3422   -1.1252   -0.4309 C   0  0  0  0  0  0  0  0  0  0  0  0
    0.0783   -0.4427   -0.6981 C   0  0  0  0  0  0  0  0  0  0  0  0
   -2.1943    0.7479   -0.7945 H   0  0  0  0  0  0  0  0  0  0  0  0
   -2.7189   -0.9467   -0.7250 H   0  0  0  0  0  0  0  0  0  0  0  0
   -2.9862    0.1506    0.7050 H   0  0  0  0  0  0  0  0  0  0  0  0
   -1.0173   -1.6086    0.8329 H   0  0  0  0  0  0  0  0  0  0  0  0
    0.6821   -0.0708    1.6759 H   0  0  0  0  0  0  0  0  0  0  0  0
   -0.7547    1.1239    1.7696 H   0  0  0  0  0  0  0  0  0  0  0  0
   -0.3245    1.7302   -0.6139 H   0  0  0  0  0  0  0  0  0  0  0  0
    3.3280   -0.5338    0.0310 H   0  0  0  0  0  0  0  0  0  0  0  0
    1.4782   -2.1979   -0.4275 H   0  0  0  0  0  0  0  0  0  0  0  0
   -0.3068   -0.4930   -1.7313 H   0  0  0  0  0  0  0  0  0  0  0  0
  1  2  1  0
  2  3  1  0
  3  4  1  0
  4  5  1  0
  5  6  2  0
  5  7  1  0
  7  8  2  0
  8  9  1  0
  9  2  1  0
  9  4  1  0
  1 10  1  0
  1 11  1  0
  1 12  1  0
  2 13  1  0
  3 14  1  0
  3 15  1  0
  4 16  1  0
  7 17  1  0
  8 18  1  0
  9 19  1  0
M  END
