
     RDKit          3D

 25 25  0  0  0  0  0  0  0  0999 V2000
    2.7270   -0.9852    0.0162 C   0  0  0  0  0  0  0  0  0  0  0  0
    1.4640   -0.2900    0.4163 C   0  0  0  0  0  0  0  0  0  0  0  0
    0.9883    0.6969   -0.6624 C   0  0  0  0  0  0  0  0  0  0  0  0
   -0.3842    1.0000   -0.1042 C   0  0  0  0  0  0  0  0  0  0  0  0
   -1.2150    1.8778   -0.9560 C   0  0  0  0  0  0  0  0  0  0  0  0
   -0.9383   -0.3902    0.0884 C   0  0  0  0  0  0  0  0  0  0  0  0
   -1.9599   -0.4551    1.1767 C   0  0  0  0  0  0  0  0  0  0  0  0
   -1.3901   -0.9340   -1.1082 O   0  0  0  0  0  0  0  0  0  0  0  0
    0.2749   -1.1976    0.5223 C   0  0  0  0  0  0  0  0  0  0  0  0
    3.1842   -0.4249   -0.8115 H   0  0  0  0  0  0  0  0  0  0  0  0
    3.3719   -1.0612    0.9152 H   0  0  0  0  0  0  0  0  0  0  0  0
    2.4933   -2.0324   -0.3177 H   0  0  0  0  0  0  0  0  0  0  0  0
    1.5681    0.3040    1.3600 H   0  0  0  0  0  0  0  0  0  0  0  0
    1.6374    1.5677   -0.7368 H   0  0  0  0  0  0  0  0  0  0  0  0
    0.9343    0.0873   -1.5965 H   0  0  0  0  0  0  0  0  0  0  0  0
   -0.2332    1.4733    0.8804 H   0  0  0  0  0  0  0  0  0  0  0  0
   -0.5876    2.7455   -1.2807 H   0  0  0  0  0  0  0  0  0  0  0  0
   -2.0233    2.3205   -0.3079 H   0  0  0  0  0  0  0  0  0  0  0  0
   -1.6308    1.4247   -1.8542 H   0  0  0  0  0  0  0  0  0  0  0  0
   -2.5505   -1.3759    1.0552 H   0  0  0  0  0  0  0  0  0  0  0  0
   -1.4734   -0.5331    2.1837 H   0  0  0  0  0  0  0  0  0  0  0  0
   -2.5797    0.4745    1.1134 H   0  0  0  0  0  0  0  0  0  0  0  0
   -2.2614   -0.6115   -1.3945 H   0  0  0  0  0  0  0  0  0  0  0  0
    0.1538   -1.5899    1.5412 H   0  0  0  0  0  0  0  0  0  0  0  0
    0.4301   -2.0913   -0.1385 H   0  0  0  0  0  0  0  0  0  0  0  0
  1  2  1  0
  2  3  1  0
  3  4  1  0
  4  5  1  0
  4  6  1  0
  6  7  1  0
  6  8  1  0
  6  9  1  0
  9  2  1  0
  1 10  1  0
  1 11  1  0
  1 12  1  0
  2 13  1  0
  3 14  1  0
  3 15  1  0
  4 16  1  0
  5 17  1  0
  5 18  1  0
  5 19  1  0
  7 20  1  0
  7 21  1  0
  7 22  1  0
  8 23  1  0
  9 24  1  0
  9 25  1  0
M  END
