
     RDKit          3D

 20 21  0  0  0  0  0  0  0  0999 V2000
   -0.6512    2.1821   -0.1966 C   0  0  0  0  0  0  0  0  0  0  0  0
   -0.0432    0.9745    0.5290 C   0  0  0  0  0  0  0  0  0  0  0  0
   -0.5785   -0.3326   -0.0074 C   0  0  0  0  0  0  0  0  0  0  0  0
   -1.0288   -1.3150    0.9926 C   0  0  0  0  0  0  0  0  0  0  0  0
   -0.5447   -0.5892   -1.4680 C   0  0  0  0  0  0  0  0  0  0  0  0
    0.6684    0.1121   -1.6247 O   0  0  0  0  0  0  0  0  0  0  0  0
    0.8037    0.0660   -0.2473 C   0  0  0  0  0  0  0  0  0  0  0  0
    1.9790   -0.6584    0.3118 C   0  0  0  0  0  0  0  0  0  0  0  0
   -0.2304    2.2559   -1.2312 H   0  0  0  0  0  0  0  0  0  0  0  0
   -1.7494    2.0276   -0.2998 H   0  0  0  0  0  0  0  0  0  0  0  0
   -0.4023    3.1013    0.3391 H   0  0  0  0  0  0  0  0  0  0  0  0
    0.1556    1.0740    1.5982 H   0  0  0  0  0  0  0  0  0  0  0  0
   -1.5222   -0.7540    1.8376 H   0  0  0  0  0  0  0  0  0  0  0  0
   -0.2604   -1.9783    1.4103 H   0  0  0  0  0  0  0  0  0  0  0  0
   -1.8431   -1.9516    0.5666 H   0  0  0  0  0  0  0  0  0  0  0  0
   -1.3119   -0.0523   -2.0910 H   0  0  0  0  0  0  0  0  0  0  0  0
   -0.3619   -1.6416   -1.7957 H   0  0  0  0  0  0  0  0  0  0  0  0
    2.0658   -0.5241    1.3974 H   0  0  0  0  0  0  0  0  0  0  0  0
    2.9165   -0.2336   -0.1324 H   0  0  0  0  0  0  0  0  0  0  0  0
    1.9390   -1.7627    0.1114 H   0  0  0  0  0  0  0  0  0  0  0  0
  1  2  1  0
  2  3  1  0
  3  4  1  0
  3  5  1  0
  5  6  1  0
  6  7  1  0
  7  8  1  0
  7  2  1  0
  7  3  1  0
  1  9  1  0
  1 10  1  0
  1 11  1  0
  2 12  1  0
  4 13  1  0
  4 14  1  0
  4 15  1  0
  5 16  1  0
  5 17  1  0
  8 18  1  0
  8 19  1  0
  8 20  1  0
M  END
