
     RDKit          3D

 19 19  0  0  0  0  0  0  0  0999 V2000
    1.6355   -1.1203    0.2943 C   0  0  0  0  0  0  0  0  0  0  0  0
    0.5488   -0.6379   -0.6053 C   0  0  0  0  0  0  0  0  0  0  0  0
    0.3215    0.8400   -0.6339 C   0  0  0  0  0  0  0  0  0  0  0  0
    1.0302    1.7525    0.2749 C   0  0  0  0  0  0  0  0  0  0  0  0
    1.3971    1.4813    1.3936 O   0  0  0  0  0  0  0  0  0  0  0  0
   -0.7182   -0.1012   -0.0718 C   0  0  0  0  0  0  0  0  0  0  0  0
   -1.9816   -0.1673   -0.9078 C   0  0  0  0  0  0  0  0  0  0  0  0
   -0.9235   -0.2212    1.3870 C   0  0  0  0  0  0  0  0  0  0  0  0
   -2.0123   -0.6582    1.7930 O   0  0  0  0  0  0  0  0  0  0  0  0
    1.7801   -2.2263    0.2591 H   0  0  0  0  0  0  0  0  0  0  0  0
    1.4326   -0.8196    1.3217 H   0  0  0  0  0  0  0  0  0  0  0  0
    2.5965   -0.6076   -0.0150 H   0  0  0  0  0  0  0  0  0  0  0  0
    0.5930   -1.1005   -1.6214 H   0  0  0  0  0  0  0  0  0  0  0  0
    0.0855    1.3156   -1.6375 H   0  0  0  0  0  0  0  0  0  0  0  0
    1.2576    2.7662   -0.0611 H   0  0  0  0  0  0  0  0  0  0  0  0
   -2.8391   -0.5742   -0.3472 H   0  0  0  0  0  0  0  0  0  0  0  0
   -2.2051    0.8749   -1.2106 H   0  0  0  0  0  0  0  0  0  0  0  0
   -1.7947   -0.8370   -1.7613 H   0  0  0  0  0  0  0  0  0  0  0  0
   -0.2037    0.0407    2.1495 H   0  0  0  0  0  0  0  0  0  0  0  0
  1  2  1  0
  2  3  1  0
  3  4  1  0
  4  5  2  0
  3  6  1  0
  6  7  1  0
  6  8  1  0
  8  9  2  0
  6  2  1  0
  1 10  1  0
  1 11  1  0
  1 12  1  0
  2 13  1  0
  3 14  1  0
  4 15  1  0
  7 16  1  0
  7 17  1  0
  7 18  1  0
  8 19  1  0
M  END
