
     RDKit          3D

 19 20  0  0  0  0  0  0  0  0999 V2000
   -2.1158    0.0926    0.2401 C   0  0  0  0  0  0  0  0  0  0  0  0
   -0.7268    0.3997   -0.1174 C   0  0  0  0  0  0  0  0  0  0  0  0
   -0.1429   -0.5342   -1.1904 C   0  0  0  0  0  0  0  0  0  0  0  0
    1.1616   -0.8358   -0.5109 C   0  0  0  0  0  0  0  0  0  0  0  0
    0.6861   -1.2456    0.8632 C   0  0  0  0  0  0  0  0  0  0  0  0
    0.6884   -2.2832    1.4735 O   0  0  0  0  0  0  0  0  0  0  0  0
    0.2897    0.1767    0.9617 C   0  0  0  0  0  0  0  0  0  0  0  0
    1.5654    0.4676    0.1577 C   0  0  0  0  0  0  0  0  0  0  0  0
    1.4011    1.6005   -0.6291 O   0  0  0  0  0  0  0  0  0  0  0  0
   -2.3033    0.4496    1.2928 H   0  0  0  0  0  0  0  0  0  0  0  0
   -2.7972    0.7428   -0.3836 H   0  0  0  0  0  0  0  0  0  0  0  0
   -2.4488   -0.9343    0.1255 H   0  0  0  0  0  0  0  0  0  0  0  0
   -0.5976    1.4207   -0.5218 H   0  0  0  0  0  0  0  0  0  0  0  0
   -0.0116   -0.0208   -2.1517 H   0  0  0  0  0  0  0  0  0  0  0  0
   -0.7160   -1.4755   -1.2536 H   0  0  0  0  0  0  0  0  0  0  0  0
    1.8973   -1.4282   -0.9791 H   0  0  0  0  0  0  0  0  0  0  0  0
    0.1895    0.6405    1.9076 H   0  0  0  0  0  0  0  0  0  0  0  0
    2.4897    0.3868    0.7198 H   0  0  0  0  0  0  0  0  0  0  0  0
    1.4912    2.3802   -0.0043 H   0  0  0  0  0  0  0  0  0  0  0  0
  1  2  1  0
  2  3  1  0
  3  4  1  0
  4  5  1  0
  5  6  2  0
  5  7  1  0
  7  8  1  0
  8  9  1  0
  7  2  1  0
  8  4  1  0
  1 10  1  0
  1 11  1  0
  1 12  1  0
  2 13  1  0
  3 14  1  0
  3 15  1  0
  4 16  1  0
  7 17  1  0
  8 18  1  0
  9 19  1  0
M  END
