
     RDKit          3D

 23 24  0  0  0  0  0  0  0  0999 V2000
   -2.1819   -1.4839   -0.0379 C   0  0  0  0  0  0  0  0  0  0  0  0
   -1.5846   -0.0953   -0.0681 C   0  0  0  0  0  0  0  0  0  0  0  0
   -1.4056    0.4297   -1.4157 C   0  0  0  0  0  0  0  0  0  0  0  0
   -0.1775    0.8831   -1.5549 C   0  0  0  0  0  0  0  0  0  0  0  0
    0.5982    0.7148   -0.3300 C   0  0  0  0  0  0  0  0  0  0  0  0
    1.1954    1.9163    0.3074 C   0  0  0  0  0  0  0  0  0  0  0  0
    0.9651   -0.6661    0.0295 C   0  0  0  0  0  0  0  0  0  0  0  0
    2.1354   -0.9250    0.9241 C   0  0  0  0  0  0  0  0  0  0  0  0
   -0.2740   -0.1264    0.6036 C   0  0  0  0  0  0  0  0  0  0  0  0
   -2.7671   -1.7081   -0.9549 H   0  0  0  0  0  0  0  0  0  0  0  0
   -1.3638   -2.2230    0.0838 H   0  0  0  0  0  0  0  0  0  0  0  0
   -2.7998   -1.5444    0.8902 H   0  0  0  0  0  0  0  0  0  0  0  0
   -2.2706    0.6351    0.4642 H   0  0  0  0  0  0  0  0  0  0  0  0
   -2.1964    0.4399   -2.2009 H   0  0  0  0  0  0  0  0  0  0  0  0
    0.1974    1.3239   -2.4704 H   0  0  0  0  0  0  0  0  0  0  0  0
    1.9027    2.4529   -0.3345 H   0  0  0  0  0  0  0  0  0  0  0  0
    1.6572    1.7094    1.2866 H   0  0  0  0  0  0  0  0  0  0  0  0
    0.3560    2.6390    0.5236 H   0  0  0  0  0  0  0  0  0  0  0  0
    0.8299   -1.4503   -0.7533 H   0  0  0  0  0  0  0  0  0  0  0  0
    2.1543   -0.3126    1.8319 H   0  0  0  0  0  0  0  0  0  0  0  0
    2.1865   -2.0229    1.1280 H   0  0  0  0  0  0  0  0  0  0  0  0
    3.0588   -0.6863    0.3521 H   0  0  0  0  0  0  0  0  0  0  0  0
   -0.2155    0.1001    1.6955 H   0  0  0  0  0  0  0  0  0  0  0  0
  1  2  1  0
  2  3  1  0
  3  4  2  0
  4  5  1  0
  5  6  1  0
  5  7  1  0
  7  8  1  0
  7  9  1  0
  9  2  1  0
  9  5  1  0
  1 10  1  0
  1 11  1  0
  1 12  1  0
  2 13  1  0
  3 14  1  0
  4 15  1  0
  6 16  1  0
  6 17  1  0
  6 18  1  0
  7 19  1  0
  8 20  1  0
  8 21  1  0
  8 22  1  0
  9 23  1  0
M  END
