
     RDKit          3D

 21 22  0  0  0  0  0  0  0  0999 V2000
    2.2447    0.8729    0.4829 C   0  0  0  0  0  0  0  0  0  0  0  0
    0.8041    0.7982    0.8771 C   0  0  0  0  0  0  0  0  0  0  0  0
   -0.1835    0.8005   -0.2142 C   0  0  0  0  0  0  0  0  0  0  0  0
   -1.6344    0.8285    0.2678 C   0  0  0  0  0  0  0  0  0  0  0  0
   -2.5756    0.9787   -0.7131 O   0  0  0  0  0  0  0  0  0  0  0  0
   -1.4060   -0.5691    0.7830 C   0  0  0  0  0  0  0  0  0  0  0  0
   -1.8747   -1.5702   -0.0970 O   0  0  0  0  0  0  0  0  0  0  0  0
    0.0778   -0.4540    0.6548 C   0  0  0  0  0  0  0  0  0  0  0  0
    0.8722   -1.5725    0.0251 C   0  0  0  0  0  0  0  0  0  0  0  0
    2.5543    1.9507    0.5728 H   0  0  0  0  0  0  0  0  0  0  0  0
    2.9000    0.2030    1.0723 H   0  0  0  0  0  0  0  0  0  0  0  0
    2.3828    0.5504   -0.5918 H   0  0  0  0  0  0  0  0  0  0  0  0
    0.5317    1.4408    1.7599 H   0  0  0  0  0  0  0  0  0  0  0  0
    0.0397    0.6373   -1.2598 H   0  0  0  0  0  0  0  0  0  0  0  0
   -1.7283    1.5312    1.1380 H   0  0  0  0  0  0  0  0  0  0  0  0
   -3.3257    1.5720   -0.3872 H   0  0  0  0  0  0  0  0  0  0  0  0
   -1.8187   -0.7413    1.7830 H   0  0  0  0  0  0  0  0  0  0  0  0
   -1.2118   -1.6973   -0.8498 H   0  0  0  0  0  0  0  0  0  0  0  0
    1.1415   -1.3293   -1.0044 H   0  0  0  0  0  0  0  0  0  0  0  0
    1.8378   -1.6761    0.5995 H   0  0  0  0  0  0  0  0  0  0  0  0
    0.3721   -2.5544    0.1208 H   0  0  0  0  0  0  0  0  0  0  0  0
  1  2  1  0
  2  3  1  0
  3  4  1  0
  4  5  1  0
  4  6  1  0
  6  7  1  0
  6  8  1  0
  8  9  1  0
  8  2  1  0
  8  3  1  0
  1 10  1  0
  1 11  1  0
  1 12  1  0
  2 13  1  0
  3 14  1  0
  4 15  1  0
  5 16  1  0
  6 17  1  0
  7 18  1  0
  9 19  1  0
  9 20  1  0
  9 21  1  0
M  END
