
     RDKit          3D

 21 22  0  0  0  0  0  0  0  0999 V2000
   -1.9942   -1.1556    0.4904 C   0  0  0  0  0  0  0  0  0  0  0  0
   -0.6339   -0.6801    0.8716 C   0  0  0  0  0  0  0  0  0  0  0  0
    0.5038   -1.4911    0.3683 C   0  0  0  0  0  0  0  0  0  0  0  0
    0.7751   -2.6543    0.1626 O   0  0  0  0  0  0  0  0  0  0  0  0
    1.2481   -0.2123    0.1992 C   0  0  0  0  0  0  0  0  0  0  0  0
    2.1073   -0.1106   -1.0157 C   0  0  0  0  0  0  0  0  0  0  0  0
   -0.0641    0.4813    0.1722 C   0  0  0  0  0  0  0  0  0  0  0  0
   -0.3055    1.8718    0.4509 C   0  0  0  0  0  0  0  0  0  0  0  0
   -0.6187    1.2319   -0.9119 C   0  0  0  0  0  0  0  0  0  0  0  0
   -2.1595   -1.1830   -0.5989 H   0  0  0  0  0  0  0  0  0  0  0  0
   -2.1260   -2.1783    0.9521 H   0  0  0  0  0  0  0  0  0  0  0  0
   -2.7303   -0.5144    1.0302 H   0  0  0  0  0  0  0  0  0  0  0  0
   -0.5675   -0.5658    1.9848 H   0  0  0  0  0  0  0  0  0  0  0  0
    1.7771    0.0113    1.1725 H   0  0  0  0  0  0  0  0  0  0  0  0
    1.4823    0.0318   -1.8962 H   0  0  0  0  0  0  0  0  0  0  0  0
    2.8430    0.7117   -0.8443 H   0  0  0  0  0  0  0  0  0  0  0  0
    2.7272   -1.0410   -1.1142 H   0  0  0  0  0  0  0  0  0  0  0  0
   -1.1632    2.1434    1.0927 H   0  0  0  0  0  0  0  0  0  0  0  0
    0.5614    2.5929    0.4119 H   0  0  0  0  0  0  0  0  0  0  0  0
   -1.6946    1.1863   -1.2078 H   0  0  0  0  0  0  0  0  0  0  0  0
    0.0323    1.5240   -1.7703 H   0  0  0  0  0  0  0  0  0  0  0  0
  1  2  1  0
  2  3  1  0
  3  4  2  0
  3  5  1  0
  5  6  1  0
  5  7  1  0
  7  8  1  0
  8  9  1  0
  7  2  1  0
  9  7  1  0
  1 10  1  0
  1 11  1  0
  1 12  1  0
  2 13  1  0
  5 14  1  0
  6 15  1  0
  6 16  1  0
  6 17  1  0
  8 18  1  0
  8 19  1  0
  9 20  1  0
  9 21  1  0
M  END
