
     RDKit          3D

 22 23  0  0  0  0  0  0  0  0999 V2000
   -2.0620   -1.1858   -0.6277 C   0  0  0  0  0  0  0  0  0  0  0  0
   -1.1527   -0.5069    0.3825 C   0  0  0  0  0  0  0  0  0  0  0  0
    0.2123   -1.0943    0.3416 C   0  0  0  0  0  0  0  0  0  0  0  0
    1.0441   -0.0909   -0.4187 C   0  0  0  0  0  0  0  0  0  0  0  0
    2.4679   -0.0640    0.0824 C   0  0  0  0  0  0  0  0  0  0  0  0
    0.3818    1.2261   -0.3442 C   0  0  0  0  0  0  0  0  0  0  0  0
   -0.2226    1.7982    0.8541 C   0  0  0  0  0  0  0  0  0  0  0  0
   -1.0397    0.9400   -0.0314 C   0  0  0  0  0  0  0  0  0  0  0  0
   -1.6634   -0.9416   -1.6279 H   0  0  0  0  0  0  0  0  0  0  0  0
   -3.0724   -0.7603   -0.4770 H   0  0  0  0  0  0  0  0  0  0  0  0
   -2.0874   -2.2857   -0.4276 H   0  0  0  0  0  0  0  0  0  0  0  0
   -1.5538   -0.6300    1.4094 H   0  0  0  0  0  0  0  0  0  0  0  0
    0.6733   -1.2932    1.3048 H   0  0  0  0  0  0  0  0  0  0  0  0
    0.1504   -2.0775   -0.2015 H   0  0  0  0  0  0  0  0  0  0  0  0
    1.0193   -0.4290   -1.4962 H   0  0  0  0  0  0  0  0  0  0  0  0
    2.6291   -0.6632    0.9850 H   0  0  0  0  0  0  0  0  0  0  0  0
    2.8271    0.9684    0.2466 H   0  0  0  0  0  0  0  0  0  0  0  0
    3.1304   -0.4960   -0.7080 H   0  0  0  0  0  0  0  0  0  0  0  0
    0.6195    1.9149   -1.2024 H   0  0  0  0  0  0  0  0  0  0  0  0
   -0.0551    1.4406    1.8764 H   0  0  0  0  0  0  0  0  0  0  0  0
   -0.4630    2.8878    0.8135 H   0  0  0  0  0  0  0  0  0  0  0  0
   -1.7831    1.3425   -0.7336 H   0  0  0  0  0  0  0  0  0  0  0  0
  1  2  1  0
  2  3  1  0
  3  4  1  0
  4  5  1  0
  4  6  1  0
  6  7  1  0
  7  8  1  0
  8  2  1  0
  8  6  1  0
  1  9  1  0
  1 10  1  0
  1 11  1  0
  2 12  1  0
  3 13  1  0
  3 14  1  0
  4 15  1  0
  5 16  1  0
  5 17  1  0
  5 18  1  0
  6 19  1  0
  7 20  1  0
  7 21  1  0
  8 22  1  0
M  END
