
     RDKit          3D

 19 20  0  0  0  0  0  0  0  0999 V2000
    2.0611   -0.5865    0.5291 C   0  0  0  0  0  0  0  0  0  0  0  0
    0.9369    0.2510    0.0046 C   0  0  0  0  0  0  0  0  0  0  0  0
    0.2491   -0.3810   -1.1571 C   0  0  0  0  0  0  0  0  0  0  0  0
    0.7132   -0.8403   -2.1525 O   0  0  0  0  0  0  0  0  0  0  0  0
   -1.1572   -0.2988   -0.7716 C   0  0  0  0  0  0  0  0  0  0  0  0
   -1.0910   -0.9457    0.6177 C   0  0  0  0  0  0  0  0  0  0  0  0
   -0.2541    0.3072    0.9260 C   0  0  0  0  0  0  0  0  0  0  0  0
   -1.2609    1.0191    0.0137 C   0  0  0  0  0  0  0  0  0  0  0  0
   -0.7162    2.0866   -0.6961 O   0  0  0  0  0  0  0  0  0  0  0  0
    2.2559   -0.4144    1.6042 H   0  0  0  0  0  0  0  0  0  0  0  0
    1.8174   -1.6433    0.2921 H   0  0  0  0  0  0  0  0  0  0  0  0
    2.9685   -0.3322   -0.0905 H   0  0  0  0  0  0  0  0  0  0  0  0
    1.2637    1.2612   -0.2450 H   0  0  0  0  0  0  0  0  0  0  0  0
   -1.9466   -0.5620   -1.4116 H   0  0  0  0  0  0  0  0  0  0  0  0
   -0.4976   -1.8606    0.6354 H   0  0  0  0  0  0  0  0  0  0  0  0
   -2.0241   -0.9113    1.1842 H   0  0  0  0  0  0  0  0  0  0  0  0
   -0.1648    0.6211    1.9251 H   0  0  0  0  0  0  0  0  0  0  0  0
   -2.2474    1.1751    0.4446 H   0  0  0  0  0  0  0  0  0  0  0  0
   -0.9057    2.0549   -1.6523 H   0  0  0  0  0  0  0  0  0  0  0  0
  1  2  1  0
  2  3  1  0
  3  4  2  0
  3  5  1  0
  5  6  1  0
  6  7  1  0
  7  8  1  0
  8  9  1  0
  7  2  1  0
  8  5  1  0
  1 10  1  0
  1 11  1  0
  1 12  1  0
  2 13  1  0
  5 14  1  0
  6 15  1  0
  6 16  1  0
  7 17  1  0
  8 18  1  0
  9 19  1  0
M  END
