
     RDKit          3D

 23 24  0  0  0  0  0  0  0  0999 V2000
   -1.5018    0.6834   -1.2131 C   0  0  0  0  0  0  0  0  0  0  0  0
   -1.1175    0.0773    0.0932 C   0  0  0  0  0  0  0  0  0  0  0  0
   -0.4391    0.9935    1.0810 C   0  0  0  0  0  0  0  0  0  0  0  0
    0.5381    1.8755    0.3853 C   0  0  0  0  0  0  0  0  0  0  0  0
    1.3969    1.2991   -0.4484 C   0  0  0  0  0  0  0  0  0  0  0  0
    1.2601   -0.1683   -0.6823 C   0  0  0  0  0  0  0  0  0  0  0  0
    0.1360   -0.7474    0.1183 C   0  0  0  0  0  0  0  0  0  0  0  0
   -0.0111   -2.2182   -0.0362 C   0  0  0  0  0  0  0  0  0  0  0  0
    0.3247   -0.2567    1.5496 C   0  0  0  0  0  0  0  0  0  0  0  0
   -2.4164    1.2802   -1.0622 H   0  0  0  0  0  0  0  0  0  0  0  0
   -1.7968   -0.1560   -1.8949 H   0  0  0  0  0  0  0  0  0  0  0  0
   -0.7087    1.2342   -1.7277 H   0  0  0  0  0  0  0  0  0  0  0  0
   -1.9512   -0.4501    0.5536 H   0  0  0  0  0  0  0  0  0  0  0  0
   -1.0529    1.4450    1.8497 H   0  0  0  0  0  0  0  0  0  0  0  0
    0.5361    2.9444    0.5627 H   0  0  0  0  0  0  0  0  0  0  0  0
    2.1840    1.8352   -0.9621 H   0  0  0  0  0  0  0  0  0  0  0  0
    1.2064   -0.3639   -1.7564 H   0  0  0  0  0  0  0  0  0  0  0  0
    2.2127   -0.6236   -0.2798 H   0  0  0  0  0  0  0  0  0  0  0  0
    0.9437   -2.6905    0.3335 H   0  0  0  0  0  0  0  0  0  0  0  0
   -0.8223   -2.6587    0.5353 H   0  0  0  0  0  0  0  0  0  0  0  0
   -0.0767   -2.4541   -1.1066 H   0  0  0  0  0  0  0  0  0  0  0  0
   -0.2317   -0.8476    2.2995 H   0  0  0  0  0  0  0  0  0  0  0  0
    1.3875   -0.0330    1.8082 H   0  0  0  0  0  0  0  0  0  0  0  0
  1  2  1  0
  2  3  1  0
  3  4  1  0
  4  5  2  0
  5  6  1  0
  6  7  1  0
  7  8  1  0
  7  9  1  0
  7  2  1  0
  9  3  1  0
  1 10  1  0
  1 11  1  0
  1 12  1  0
  2 13  1  0
  3 14  1  0
  4 15  1  0
  5 16  1  0
  6 17  1  0
  6 18  1  0
  8 19  1  0
  8 20  1  0
  8 21  1  0
  9 22  1  0
  9 23  1  0
M  END
