
     RDKit          3D

 17 18  0  0  0  0  0  0  0  0999 V2000
    1.8707    0.0024   -0.4124 C   0  0  0  0  0  0  0  0  0  0  0  0
    0.6214    0.4660    0.3064 C   0  0  0  0  0  0  0  0  0  0  0  0
   -0.0164   -0.7419    1.0114 C   0  0  0  0  0  0  0  0  0  0  0  0
   -1.0928   -1.1061    0.0229 C   0  0  0  0  0  0  0  0  0  0  0  0
   -2.2100   -0.2600    0.2802 O   0  0  0  0  0  0  0  0  0  0  0  0
   -1.7481    1.0183   -0.0987 C   0  0  0  0  0  0  0  0  0  0  0  0
   -2.3654    2.0840    0.0928 O   0  0  0  0  0  0  0  0  0  0  0  0
   -0.4337    0.7563   -0.7343 C   0  0  0  0  0  0  0  0  0  0  0  0
   -0.6561   -0.5600   -1.2098 O   0  0  0  0  0  0  0  0  0  0  0  0
    1.6286   -0.9621   -0.9050 H   0  0  0  0  0  0  0  0  0  0  0  0
    2.7409   -0.0626    0.2686 H   0  0  0  0  0  0  0  0  0  0  0  0
    2.1327    0.7058   -1.2462 H   0  0  0  0  0  0  0  0  0  0  0  0
    0.7896    1.2723    1.0137 H   0  0  0  0  0  0  0  0  0  0  0  0
   -0.4921   -0.3715    1.9497 H   0  0  0  0  0  0  0  0  0  0  0  0
    0.7101   -1.5365    1.1989 H   0  0  0  0  0  0  0  0  0  0  0  0
   -1.3328   -2.1527   -0.0358 H   0  0  0  0  0  0  0  0  0  0  0  0
   -0.1467    1.4483   -1.5026 H   0  0  0  0  0  0  0  0  0  0  0  0
  1  2  1  0
  2  3  1  0
  3  4  1  0
  4  5  1  0
  5  6  1  0
  6  7  2  0
  6  8  1  0
  8  9  1  0
  8  2  1  0
  9  4  1  0
  1 10  1  0
  1 11  1  0
  1 12  1  0
  2 13  1  0
  3 14  1  0
  3 15  1  0
  4 16  1  0
  8 17  1  0
M  END
