
     RDKit          3D

 23 24  0  0  0  0  0  0  0  0999 V2000
    2.7857    0.8286    0.0461 C   0  0  0  0  0  0  0  0  0  0  0  0
    1.5806   -0.1150    0.0100 C   0  0  0  0  0  0  0  0  0  0  0  0
    0.7409    0.1040   -1.2220 C   0  0  0  0  0  0  0  0  0  0  0  0
   -0.6540   -0.4266   -0.8880 C   0  0  0  0  0  0  0  0  0  0  0  0
   -0.5919   -1.4987    0.1811 C   0  0  0  0  0  0  0  0  0  0  0  0
   -0.4071   -0.3513    1.1763 C   0  0  0  0  0  0  0  0  0  0  0  0
    0.8995    0.0542    1.1857 O   0  0  0  0  0  0  0  0  0  0  0  0
   -1.1940    0.4998    0.1987 C   0  0  0  0  0  0  0  0  0  0  0  0
   -2.6773    0.4822    0.3681 C   0  0  0  0  0  0  0  0  0  0  0  0
    3.4019    0.4606    0.9185 H   0  0  0  0  0  0  0  0  0  0  0  0
    3.3621    0.8011   -0.8872 H   0  0  0  0  0  0  0  0  0  0  0  0
    2.3956    1.8426    0.2886 H   0  0  0  0  0  0  0  0  0  0  0  0
    2.0279   -1.1426   -0.0776 H   0  0  0  0  0  0  0  0  0  0  0  0
    1.0805   -0.4729   -2.0971 H   0  0  0  0  0  0  0  0  0  0  0  0
    0.7196    1.1848   -1.4650 H   0  0  0  0  0  0  0  0  0  0  0  0
   -1.3068   -0.6086   -1.7292 H   0  0  0  0  0  0  0  0  0  0  0  0
   -1.5848   -1.9426    0.3141 H   0  0  0  0  0  0  0  0  0  0  0  0
    0.2721   -2.1519    0.1708 H   0  0  0  0  0  0  0  0  0  0  0  0
   -0.8537   -0.5198    2.1481 H   0  0  0  0  0  0  0  0  0  0  0  0
   -0.8266    1.5228    0.0509 H   0  0  0  0  0  0  0  0  0  0  0  0
   -3.1079   -0.3729   -0.1826 H   0  0  0  0  0  0  0  0  0  0  0  0
   -2.9124    0.3897    1.4553 H   0  0  0  0  0  0  0  0  0  0  0  0
   -3.1502    1.4327    0.0364 H   0  0  0  0  0  0  0  0  0  0  0  0
  1  2  1  0
  2  3  1  0
  3  4  1  0
  4  5  1  0
  5  6  1  0
  6  7  1  0
  6  8  1  0
  8  9  1  0
  7  2  1  0
  8  4  1  0
  1 10  1  0
  1 11  1  0
  1 12  1  0
  2 13  1  0
  3 14  1  0
  3 15  1  0
  4 16  1  0
  5 17  1  0
  5 18  1  0
  6 19  1  0
  8 20  1  0
  9 21  1  0
  9 22  1  0
  9 23  1  0
M  END
