
     RDKit          3D

 19 19  0  0  0  0  0  0  0  0999 V2000
   -1.4348    1.2797    0.5833 C   0  0  0  0  0  0  0  0  0  0  0  0
   -1.2878    0.0721   -0.2959 C   0  0  0  0  0  0  0  0  0  0  0  0
   -0.1563    0.2666   -1.3037 C   0  0  0  0  0  0  0  0  0  0  0  0
    0.7373   -0.4890   -0.3249 C   0  0  0  0  0  0  0  0  0  0  0  0
    1.3902    0.3209    0.6179 O   0  0  0  0  0  0  0  0  0  0  0  0
    2.7195    0.1499    0.9205 C   0  0  0  0  0  0  0  0  0  0  0  0
    3.3416   -0.7653    0.3200 O   0  0  0  0  0  0  0  0  0  0  0  0
   -0.5303   -1.0819    0.2622 C   0  0  0  0  0  0  0  0  0  0  0  0
   -0.4857   -1.1877    1.6438 O   0  0  0  0  0  0  0  0  0  0  0  0
   -0.4993    1.6363    1.0243 H   0  0  0  0  0  0  0  0  0  0  0  0
   -1.8088    2.1136   -0.0712 H   0  0  0  0  0  0  0  0  0  0  0  0
   -2.2214    1.1144    1.3446 H   0  0  0  0  0  0  0  0  0  0  0  0
   -2.2147   -0.1381   -0.8446 H   0  0  0  0  0  0  0  0  0  0  0  0
   -0.3140   -0.2554   -2.2515 H   0  0  0  0  0  0  0  0  0  0  0  0
    0.1135    1.3216   -1.4470 H   0  0  0  0  0  0  0  0  0  0  0  0
    1.3832   -1.2495   -0.7799 H   0  0  0  0  0  0  0  0  0  0  0  0
    3.2116    0.7695    1.6393 H   0  0  0  0  0  0  0  0  0  0  0  0
   -0.8175   -2.0250   -0.2774 H   0  0  0  0  0  0  0  0  0  0  0  0
   -1.1263   -1.8528    1.9949 H   0  0  0  0  0  0  0  0  0  0  0  0
  1  2  1  0
  2  3  1  0
  3  4  1  0
  4  5  1  0
  5  6  1  0
  6  7  2  0
  4  8  1  0
  8  9  1  0
  8  2  1  0
  1 10  1  0
  1 11  1  0
  1 12  1  0
  2 13  1  0
  3 14  1  0
  3 15  1  0
  4 16  1  0
  6 17  1  0
  8 18  1  0
  9 19  1  0
M  END
