
     RDKit          3D

 21 22  0  0  0  0  0  0  0  0999 V2000
    2.6889    0.1944    0.4411 C   0  0  0  0  0  0  0  0  0  0  0  0
    1.2375   -0.1210    0.4003 C   0  0  0  0  0  0  0  0  0  0  0  0
    0.8792   -1.0512   -0.7337 C   0  0  0  0  0  0  0  0  0  0  0  0
   -0.4184   -1.3079   -0.8714 C   0  0  0  0  0  0  0  0  0  0  0  0
   -1.3855   -0.6980    0.0479 C   0  0  0  0  0  0  0  0  0  0  0  0
   -2.0841    0.5150   -0.4707 C   0  0  0  0  0  0  0  0  0  0  0  0
   -3.4126    0.6385   -0.0201 O   0  0  0  0  0  0  0  0  0  0  0  0
   -1.0470    0.6315    0.5625 C   0  0  0  0  0  0  0  0  0  0  0  0
    0.3626    1.0975    0.2189 C   0  0  0  0  0  0  0  0  0  0  0  0
    3.2485   -0.7699    0.3158 H   0  0  0  0  0  0  0  0  0  0  0  0
    3.0268    0.8675   -0.3693 H   0  0  0  0  0  0  0  0  0  0  0  0
    2.9494    0.5588    1.4550 H   0  0  0  0  0  0  0  0  0  0  0  0
    0.9389   -0.6142    1.3300 H   0  0  0  0  0  0  0  0  0  0  0  0
    1.6420   -1.4539   -1.3588 H   0  0  0  0  0  0  0  0  0  0  0  0
   -0.7034   -1.9731   -1.6781 H   0  0  0  0  0  0  0  0  0  0  0  0
   -1.8941   -1.4045    0.7357 H   0  0  0  0  0  0  0  0  0  0  0  0
   -1.9538    0.8447   -1.5131 H   0  0  0  0  0  0  0  0  0  0  0  0
   -3.8443   -0.2204   -0.2270 H   0  0  0  0  0  0  0  0  0  0  0  0
   -1.3448    0.8730    1.6039 H   0  0  0  0  0  0  0  0  0  0  0  0
    0.4283    1.4938   -0.8044 H   0  0  0  0  0  0  0  0  0  0  0  0
    0.6858    1.8993    0.9355 H   0  0  0  0  0  0  0  0  0  0  0  0
  1  2  1  0
  2  3  1  0
  3  4  2  0
  4  5  1  0
  5  6  1  0
  6  7  1  0
  6  8  1  0
  8  9  1  0
  9  2  1  0
  8  5  1  0
  1 10  1  0
  1 11  1  0
  1 12  1  0
  2 13  1  0
  3 14  1  0
  4 15  1  0
  5 16  1  0
  6 17  1  0
  7 18  1  0
  8 19  1  0
  9 20  1  0
  9 21  1  0
M  END
