
     RDKit          3D

 23 25  0  0  0  0  0  0  0  0999 V2000
   -2.2476    0.4538    0.1269 C   0  0  0  0  0  0  0  0  0  0  0  0
   -1.0288   -0.2518    0.6115 C   0  0  0  0  0  0  0  0  0  0  0  0
   -0.8303   -1.6099   -0.0876 C   0  0  0  0  0  0  0  0  0  0  0  0
    0.6134   -1.4750   -0.4610 C   0  0  0  0  0  0  0  0  0  0  0  0
    0.6782   -0.1441   -1.1158 C   0  0  0  0  0  0  0  0  0  0  0  0
    2.0799   -0.0454   -0.5719 C   0  0  0  0  0  0  0  0  0  0  0  0
    1.2835   -0.6126    0.5741 C   0  0  0  0  0  0  0  0  0  0  0  0
    0.2542    0.4041    0.2258 C   0  0  0  0  0  0  0  0  0  0  0  0
    0.4779    1.8129    0.5113 C   0  0  0  0  0  0  0  0  0  0  0  0
   -2.9999   -0.1981   -0.3179 H   0  0  0  0  0  0  0  0  0  0  0  0
   -2.6761    1.0113    1.0109 H   0  0  0  0  0  0  0  0  0  0  0  0
   -1.9085    1.2762   -0.5652 H   0  0  0  0  0  0  0  0  0  0  0  0
   -1.0624   -0.5025    1.7010 H   0  0  0  0  0  0  0  0  0  0  0  0
   -1.4264   -1.5441   -1.0160 H   0  0  0  0  0  0  0  0  0  0  0  0
   -1.0688   -2.4469    0.5610 H   0  0  0  0  0  0  0  0  0  0  0  0
    1.1410   -2.3113   -0.8644 H   0  0  0  0  0  0  0  0  0  0  0  0
    0.3536    0.1467   -2.0130 H   0  0  0  0  0  0  0  0  0  0  0  0
    2.4198    0.9923   -0.4235 H   0  0  0  0  0  0  0  0  0  0  0  0
    2.8063   -0.7708   -0.9383 H   0  0  0  0  0  0  0  0  0  0  0  0
    1.6243   -0.8908    1.4707 H   0  0  0  0  0  0  0  0  0  0  0  0
    0.7088    2.3492   -0.4565 H   0  0  0  0  0  0  0  0  0  0  0  0
    1.3010    2.0729    1.1934 H   0  0  0  0  0  0  0  0  0  0  0  0
   -0.4932    2.2837    0.8447 H   0  0  0  0  0  0  0  0  0  0  0  0
  1  2  1  0
  2  3  1  0
  3  4  1  0
  4  5  1  0
  5  6  1  0
  6  7  1  0
  7  8  1  0
  8  9  1  0
  8  2  1  0
  7  4  1  0
  8  5  1  0
  1 10  1  0
  1 11  1  0
  1 12  1  0
  2 13  1  0
  3 14  1  0
  3 15  1  0
  4 16  1  0
  5 17  1  0
  6 18  1  0
  6 19  1  0
  7 20  1  0
  9 21  1  0
  9 22  1  0
  9 23  1  0
M  END
