
     RDKit          3D

 18 19  0  0  0  0  0  0  0  0999 V2000
    2.0172    0.2066   -0.9457 C   0  0  0  0  0  0  0  0  0  0  0  0
    1.3479   -0.6003    0.1387 C   0  0  0  0  0  0  0  0  0  0  0  0
    0.0490   -1.2673   -0.0794 C   0  0  0  0  0  0  0  0  0  0  0  0
   -1.1372   -0.5631   -0.6363 C   0  0  0  0  0  0  0  0  0  0  0  0
   -0.8285    0.6973    0.0988 C   0  0  0  0  0  0  0  0  0  0  0  0
   -1.9142    1.1890    1.0126 C   0  0  0  0  0  0  0  0  0  0  0  0
   -2.0772    2.3795    1.2283 O   0  0  0  0  0  0  0  0  0  0  0  0
    0.2005   -0.0644    0.9055 C   0  0  0  0  0  0  0  0  0  0  0  0
    2.3159   -0.5209   -1.7456 H   0  0  0  0  0  0  0  0  0  0  0  0
    1.4207    1.0404   -1.3122 H   0  0  0  0  0  0  0  0  0  0  0  0
    2.9333    0.6630   -0.4689 H   0  0  0  0  0  0  0  0  0  0  0  0
    2.0799   -1.1874    0.7489 H   0  0  0  0  0  0  0  0  0  0  0  0
   -0.1382   -2.2538    0.3928 H   0  0  0  0  0  0  0  0  0  0  0  0
   -1.1936   -0.4843   -1.7432 H   0  0  0  0  0  0  0  0  0  0  0  0
   -2.1002   -0.9974   -0.2474 H   0  0  0  0  0  0  0  0  0  0  0  0
   -0.4094    1.5344   -0.4685 H   0  0  0  0  0  0  0  0  0  0  0  0
   -2.5933    0.5036    1.5143 H   0  0  0  0  0  0  0  0  0  0  0  0
    0.0273   -0.2746    1.9616 H   0  0  0  0  0  0  0  0  0  0  0  0
  1  2  1  0
  2  3  1  0
  3  4  1  0
  4  5  1  0
  5  6  1  0
  6  7  2  0
  5  8  1  0
  8  2  1  0
  8  3  1  0
  1  9  1  0
  1 10  1  0
  1 11  1  0
  2 12  1  0
  3 13  1  0
  4 14  1  0
  4 15  1  0
  5 16  1  0
  6 17  1  0
  8 18  1  0
M  END
