
     RDKit          3D

 20 20  0  0  0  0  0  0  0  0999 V2000
   -1.5331   -1.3956    0.0526 C   0  0  0  0  0  0  0  0  0  0  0  0
   -0.6372   -0.2118    0.3055 C   0  0  0  0  0  0  0  0  0  0  0  0
   -1.1326    1.0413   -0.3795 C   0  0  0  0  0  0  0  0  0  0  0  0
    0.1130    1.9312   -0.2662 C   0  0  0  0  0  0  0  0  0  0  0  0
    1.1733    0.9829   -0.6726 C   0  0  0  0  0  0  0  0  0  0  0  0
    2.2183    1.2774   -1.1988 O   0  0  0  0  0  0  0  0  0  0  0  0
    0.7377   -0.3915   -0.3252 C   0  0  0  0  0  0  0  0  0  0  0  0
    1.6299   -1.0160    0.7292 C   0  0  0  0  0  0  0  0  0  0  0  0
   -2.3344   -1.3567    0.8408 H   0  0  0  0  0  0  0  0  0  0  0  0
   -0.9651   -2.3425    0.0916 H   0  0  0  0  0  0  0  0  0  0  0  0
   -2.0676   -1.3080   -0.9166 H   0  0  0  0  0  0  0  0  0  0  0  0
   -0.4846   -0.0162    1.3635 H   0  0  0  0  0  0  0  0  0  0  0  0
   -1.2746    0.8794   -1.4667 H   0  0  0  0  0  0  0  0  0  0  0  0
   -1.9970    1.4904    0.1128 H   0  0  0  0  0  0  0  0  0  0  0  0
    0.2380    2.1448    0.8234 H   0  0  0  0  0  0  0  0  0  0  0  0
    0.0417    2.8251   -0.8881 H   0  0  0  0  0  0  0  0  0  0  0  0
    0.6802   -1.0705   -1.1852 H   0  0  0  0  0  0  0  0  0  0  0  0
    2.5356   -0.3518    0.7988 H   0  0  0  0  0  0  0  0  0  0  0  0
    1.9204   -2.0523    0.4654 H   0  0  0  0  0  0  0  0  0  0  0  0
    1.1379   -1.0594    1.7154 H   0  0  0  0  0  0  0  0  0  0  0  0
  1  2  1  0
  2  3  1  0
  3  4  1  0
  4  5  1  0
  5  6  2  0
  5  7  1  0
  7  8  1  0
  7  2  1  0
  1  9  1  0
  1 10  1  0
  1 11  1  0
  2 12  1  0
  3 13  1  0
  3 14  1  0
  4 15  1  0
  4 16  1  0
  7 17  1  0
  8 18  1  0
  8 19  1  0
  8 20  1  0
M  END
