
     RDKit          3D

 21 22  0  0  0  0  0  0  0  0999 V2000
    2.3865    0.4432    0.3977 C   0  0  0  0  0  0  0  0  0  0  0  0
    1.2903   -0.4932   -0.0335 C   0  0  0  0  0  0  0  0  0  0  0  0
    0.8360   -0.2894   -1.4044 C   0  0  0  0  0  0  0  0  0  0  0  0
   -0.4519   -0.5750   -1.4597 C   0  0  0  0  0  0  0  0  0  0  0  0
   -0.9594   -0.9950   -0.1091 C   0  0  0  0  0  0  0  0  0  0  0  0
   -2.2400   -0.2275    0.1101 C   0  0  0  0  0  0  0  0  0  0  0  0
   -1.7185    1.1292    0.4352 C   0  0  0  0  0  0  0  0  0  0  0  0
   -0.4533    1.0710    0.8154 C   0  0  0  0  0  0  0  0  0  0  0  0
    0.0461   -0.3082    0.8003 C   0  0  0  0  0  0  0  0  0  0  0  0
    2.6730    0.1427    1.4266 H   0  0  0  0  0  0  0  0  0  0  0  0
    2.0922    1.5040    0.3593 H   0  0  0  0  0  0  0  0  0  0  0  0
    3.2545    0.2889   -0.2482 H   0  0  0  0  0  0  0  0  0  0  0  0
    1.6801   -1.5184    0.1432 H   0  0  0  0  0  0  0  0  0  0  0  0
    1.4819    0.0486   -2.2407 H   0  0  0  0  0  0  0  0  0  0  0  0
   -1.1156   -0.5363   -2.3183 H   0  0  0  0  0  0  0  0  0  0  0  0
   -1.0176   -2.0662    0.0327 H   0  0  0  0  0  0  0  0  0  0  0  0
   -2.8881   -0.6475    0.8799 H   0  0  0  0  0  0  0  0  0  0  0  0
   -2.8177   -0.1437   -0.8356 H   0  0  0  0  0  0  0  0  0  0  0  0
   -2.3254    2.0221    0.3581 H   0  0  0  0  0  0  0  0  0  0  0  0
    0.1314    1.9363    1.0999 H   0  0  0  0  0  0  0  0  0  0  0  0
    0.1155   -0.7857    1.7911 H   0  0  0  0  0  0  0  0  0  0  0  0
  1  2  1  0
  2  3  1  0
  3  4  2  0
  4  5  1  0
  5  6  1  0
  6  7  1  0
  7  8  2  0
  8  9  1  0
  9  2  1  0
  9  5  1  0
  1 10  1  0
  1 11  1  0
  1 12  1  0
  2 13  1  0
  3 14  1  0
  4 15  1  0
  5 16  1  0
  6 17  1  0
  6 18  1  0
  7 19  1  0
  8 20  1  0
  9 21  1  0
M  END
