
     RDKit          3D

 21 21  0  0  0  0  0  0  0  0999 V2000
    1.6404   -0.7994   -0.8502 C   0  0  0  0  0  0  0  0  0  0  0  0
    1.0303   -0.0315    0.2675 C   0  0  0  0  0  0  0  0  0  0  0  0
    1.2841    1.4670    0.0912 C   0  0  0  0  0  0  0  0  0  0  0  0
    0.2757    1.9809    0.9410 O   0  0  0  0  0  0  0  0  0  0  0  0
   -0.8445    1.3627    0.4341 C   0  0  0  0  0  0  0  0  0  0  0  0
   -0.4111   -0.1118    0.4626 C   0  0  0  0  0  0  0  0  0  0  0  0
   -0.7802   -0.6015    1.7199 O   0  0  0  0  0  0  0  0  0  0  0  0
   -1.2148   -0.8210   -0.5702 C   0  0  0  0  0  0  0  0  0  0  0  0
   -2.5807   -0.6080   -0.3759 O   0  0  0  0  0  0  0  0  0  0  0  0
    1.7050   -1.8761   -0.5957 H   0  0  0  0  0  0  0  0  0  0  0  0
    2.7155   -0.4537   -0.9295 H   0  0  0  0  0  0  0  0  0  0  0  0
    1.2174   -0.6219   -1.8382 H   0  0  0  0  0  0  0  0  0  0  0  0
    1.5601   -0.3113    1.2027 H   0  0  0  0  0  0  0  0  0  0  0  0
    1.0344    1.8094   -0.9134 H   0  0  0  0  0  0  0  0  0  0  0  0
    2.2818    1.7581    0.4434 H   0  0  0  0  0  0  0  0  0  0  0  0
   -1.7516    1.5156    1.0359 H   0  0  0  0  0  0  0  0  0  0  0  0
   -0.9968    1.6032   -0.6439 H   0  0  0  0  0  0  0  0  0  0  0  0
   -1.0597   -1.5535    1.5984 H   0  0  0  0  0  0  0  0  0  0  0  0
   -1.0589   -1.8927   -0.6448 H   0  0  0  0  0  0  0  0  0  0  0  0
   -1.0036   -0.3983   -1.5954 H   0  0  0  0  0  0  0  0  0  0  0  0
   -3.0429   -1.4162   -0.0374 H   0  0  0  0  0  0  0  0  0  0  0  0
  1  2  1  0
  2  3  1  0
  3  4  1  0
  4  5  1  0
  5  6  1  0
  6  7  1  0
  6  8  1  0
  8  9  1  0
  6  2  1  0
  1 10  1  0
  1 11  1  0
  1 12  1  0
  2 13  1  0
  3 14  1  0
  3 15  1  0
  5 16  1  0
  5 17  1  0
  7 18  1  0
  8 19  1  0
  8 20  1  0
  9 21  1  0
M  END
