
     RDKit          3D

 21 22  0  0  0  0  0  0  0  0999 V2000
    2.3159    0.4172    0.8605 C   0  0  0  0  0  0  0  0  0  0  0  0
    1.3796    0.3013   -0.3231 C   0  0  0  0  0  0  0  0  0  0  0  0
    1.0097   -1.1457   -0.6552 C   0  0  0  0  0  0  0  0  0  0  0  0
    0.0213   -0.1825   -0.1272 C   0  0  0  0  0  0  0  0  0  0  0  0
   -1.1349    0.1485   -0.9975 C   0  0  0  0  0  0  0  0  0  0  0  0
   -2.1557    0.7323   -0.0477 C   0  0  0  0  0  0  0  0  0  0  0  0
   -1.9195   -0.0338    1.1937 C   0  0  0  0  0  0  0  0  0  0  0  0
   -2.7722   -0.3890    1.9704 O   0  0  0  0  0  0  0  0  0  0  0  0
   -0.4745   -0.2741    1.2967 C   0  0  0  0  0  0  0  0  0  0  0  0
    3.3158    0.0551    0.5129 H   0  0  0  0  0  0  0  0  0  0  0  0
    2.3388    1.4012    1.3140 H   0  0  0  0  0  0  0  0  0  0  0  0
    1.9532   -0.3411    1.6094 H   0  0  0  0  0  0  0  0  0  0  0  0
    1.5500    0.9903   -1.1814 H   0  0  0  0  0  0  0  0  0  0  0  0
    1.4065   -1.9534   -0.0243 H   0  0  0  0  0  0  0  0  0  0  0  0
    0.9596   -1.3984   -1.7306 H   0  0  0  0  0  0  0  0  0  0  0  0
   -0.9231    0.8417   -1.8142 H   0  0  0  0  0  0  0  0  0  0  0  0
   -1.5731   -0.7952   -1.4196 H   0  0  0  0  0  0  0  0  0  0  0  0
   -3.1580    0.5655   -0.4881 H   0  0  0  0  0  0  0  0  0  0  0  0
   -1.9753    1.8269    0.1056 H   0  0  0  0  0  0  0  0  0  0  0  0
   -0.2153   -1.2549    1.7383 H   0  0  0  0  0  0  0  0  0  0  0  0
    0.0510    0.4879    1.9194 H   0  0  0  0  0  0  0  0  0  0  0  0
  1  2  1  0
  2  3  1  0
  3  4  1  0
  4  5  1  0
  5  6  1  0
  6  7  1  0
  7  8  2  0
  7  9  1  0
  4  2  1  0
  9  4  1  0
  1 10  1  0
  1 11  1  0
  1 12  1  0
  2 13  1  0
  3 14  1  0
  3 15  1  0
  5 16  1  0
  5 17  1  0
  6 18  1  0
  6 19  1  0
  9 20  1  0
  9 21  1  0
M  END
