
     RDKit          3D

 19 22  0  0  0  0  0  0  0  0999 V2000
    2.0923    0.0008   -0.0490 C   0  0  0  0  0  0  0  0  0  0  0  0
    0.7694    0.4992   -0.5197 C   0  0  0  0  0  0  0  0  0  0  0  0
   -0.0500   -0.7360   -1.0180 C   0  0  0  0  0  0  0  0  0  0  0  0
   -1.4219   -1.1962   -0.4037 C   0  0  0  0  0  0  0  0  0  0  0  0
   -2.0750   -0.6389    0.7282 O   0  0  0  0  0  0  0  0  0  0  0  0
   -1.3655    0.4748    1.2639 C   0  0  0  0  0  0  0  0  0  0  0  0
   -0.0107    1.0796    0.7069 C   0  0  0  0  0  0  0  0  0  0  0  0
   -0.3306   -0.1047    0.8712 C   0  0  0  0  0  0  0  0  0  0  0  0
   -1.0355   -0.0133   -0.6101 C   0  0  0  0  0  0  0  0  0  0  0  0
    2.0841   -1.0930    0.2138 H   0  0  0  0  0  0  0  0  0  0  0  0
    2.4246    0.5139    0.8784 H   0  0  0  0  0  0  0  0  0  0  0  0
    2.8598    0.1383   -0.8243 H   0  0  0  0  0  0  0  0  0  0  0  0
    0.7929    1.2155   -1.3362 H   0  0  0  0  0  0  0  0  0  0  0  0
    0.1175   -1.1327   -1.9851 H   0  0  0  0  0  0  0  0  0  0  0  0
   -1.4912   -2.2613   -0.4627 H   0  0  0  0  0  0  0  0  0  0  0  0
   -2.0413    1.2319    1.6142 H   0  0  0  0  0  0  0  0  0  0  0  0
    0.0257    2.1522    0.6923 H   0  0  0  0  0  0  0  0  0  0  0  0
    0.1688   -0.9880    1.2148 H   0  0  0  0  0  0  0  0  0  0  0  0
   -1.5134    0.8578   -0.9751 H   0  0  0  0  0  0  0  0  0  0  0  0
  1  2  1  0
  2  3  1  0
  3  4  1  0
  4  5  1  0
  5  6  1  0
  6  7  1  0
  7  8  1  0
  8  9  1  0
  7  2  1  0
  9  3  1  0
  9  4  1  0
  8  6  1  0
  1 10  1  0
  1 11  1  0
  1 12  1  0
  2 13  1  0
  3 14  1  0
  4 15  1  0
  6 16  1  0
  7 17  1  0
  8 18  1  0
  9 19  1  0
M  END
