
     RDKit          3D

 18 19  0  0  0  0  0  0  0  0999 V2000
    1.6720    0.8176    0.7128 C   0  0  0  0  0  0  0  0  0  0  0  0
    0.5446    0.6580   -0.3017 C   0  0  0  0  0  0  0  0  0  0  0  0
    0.9085   -0.5198   -1.2212 C   0  0  0  0  0  0  0  0  0  0  0  0
    0.2166   -1.3869   -0.2296 C   0  0  0  0  0  0  0  0  0  0  0  0
    0.3176   -2.5572    0.0588 O   0  0  0  0  0  0  0  0  0  0  0  0
   -0.5428   -0.2372    0.1569 C   0  0  0  0  0  0  0  0  0  0  0  0
   -1.5513   -0.0035    1.1070 C   0  0  0  0  0  0  0  0  0  0  0  0
   -1.9158    0.0347   -0.3931 C   0  0  0  0  0  0  0  0  0  0  0  0
    1.8646   -0.1919    1.1185 H   0  0  0  0  0  0  0  0  0  0  0  0
    1.4159    1.5229    1.5111 H   0  0  0  0  0  0  0  0  0  0  0  0
    2.6236    1.1403    0.2104 H   0  0  0  0  0  0  0  0  0  0  0  0
    0.2943    1.5486   -0.8744 H   0  0  0  0  0  0  0  0  0  0  0  0
    1.9804   -0.6735   -1.3426 H   0  0  0  0  0  0  0  0  0  0  0  0
    0.3249   -0.4786   -2.1706 H   0  0  0  0  0  0  0  0  0  0  0  0
   -1.6030    0.9955    1.6313 H   0  0  0  0  0  0  0  0  0  0  0  0
   -2.0337   -0.7945    1.6724 H   0  0  0  0  0  0  0  0  0  0  0  0
   -2.1064    1.0083   -0.8383 H   0  0  0  0  0  0  0  0  0  0  0  0
   -2.4100   -0.8828   -0.8077 H   0  0  0  0  0  0  0  0  0  0  0  0
  1  2  1  0
  2  3  1  0
  3  4  1  0
  4  5  2  0
  4  6  1  0
  6  7  1  0
  7  8  1  0
  6  2  1  0
  8  6  1  0
  1  9  1  0
  1 10  1  0
  1 11  1  0
  2 12  1  0
  3 13  1  0
  3 14  1  0
  7 15  1  0
  7 16  1  0
  8 17  1  0
  8 18  1  0
M  END
