
     RDKit          3D

 17 18  0  0  0  0  0  0  0  0999 V2000
   -2.2156   -0.5673    0.1139 C   0  0  0  0  0  0  0  0  0  0  0  0
   -0.7169   -0.6881   -0.0756 C   0  0  0  0  0  0  0  0  0  0  0  0
    0.1940   -0.2482    1.0026 C   0  0  0  0  0  0  0  0  0  0  0  0
    1.6293   -0.2130    0.7068 C   0  0  0  0  0  0  0  0  0  0  0  0
    2.6166   -0.6224    1.2910 O   0  0  0  0  0  0  0  0  0  0  0  0
    1.4735    0.5115   -0.5846 C   0  0  0  0  0  0  0  0  0  0  0  0
    1.6752   -0.3702   -1.6714 O   0  0  0  0  0  0  0  0  0  0  0  0
   -0.0078    0.5818   -0.2951 C   0  0  0  0  0  0  0  0  0  0  0  0
   -0.6017    1.8103   -0.0684 O   0  0  0  0  0  0  0  0  0  0  0  0
   -2.6861   -1.5625    0.1202 H   0  0  0  0  0  0  0  0  0  0  0  0
   -2.4739    0.0142    1.0374 H   0  0  0  0  0  0  0  0  0  0  0  0
   -2.5934   -0.0201   -0.7977 H   0  0  0  0  0  0  0  0  0  0  0  0
   -0.4147   -1.5349   -0.7104 H   0  0  0  0  0  0  0  0  0  0  0  0
   -0.2311    0.1402    1.9252 H   0  0  0  0  0  0  0  0  0  0  0  0
    2.0022    1.4577   -0.6793 H   0  0  0  0  0  0  0  0  0  0  0  0
    2.2170   -1.1475   -1.4128 H   0  0  0  0  0  0  0  0  0  0  0  0
    0.1334    2.4585    0.0983 H   0  0  0  0  0  0  0  0  0  0  0  0
  1  2  1  0
  2  3  1  0
  3  4  1  0
  4  5  2  0
  4  6  1  0
  6  7  1  0
  6  8  1  0
  8  9  1  0
  8  2  1  0
  8  3  1  0
  1 10  1  0
  1 11  1  0
  1 12  1  0
  2 13  1  0
  3 14  1  0
  6 15  1  0
  7 16  1  0
  9 17  1  0
M  END
