
     RDKit          3D

 23 24  0  0  0  0  0  0  0  0999 V2000
   -2.1811   -1.0041    0.3487 C   0  0  0  0  0  0  0  0  0  0  0  0
   -0.7894   -0.6142    0.6868 C   0  0  0  0  0  0  0  0  0  0  0  0
    0.1964   -1.6047    0.0541 C   0  0  0  0  0  0  0  0  0  0  0  0
    0.5835   -0.4680   -0.8812 C   0  0  0  0  0  0  0  0  0  0  0  0
    1.3184    0.6138   -0.2136 C   0  0  0  0  0  0  0  0  0  0  0  0
    2.1623    0.2543    1.0079 C   0  0  0  0  0  0  0  0  0  0  0  0
    1.8114    1.6249   -0.9957 O   0  0  0  0  0  0  0  0  0  0  0  0
   -0.1735    0.5018   -0.0774 C   0  0  0  0  0  0  0  0  0  0  0  0
   -0.9578    1.6223   -0.6433 C   0  0  0  0  0  0  0  0  0  0  0  0
   -2.8050   -1.0005    1.2854 H   0  0  0  0  0  0  0  0  0  0  0  0
   -2.6899   -0.3896   -0.3889 H   0  0  0  0  0  0  0  0  0  0  0  0
   -2.2588   -2.0681   -0.0203 H   0  0  0  0  0  0  0  0  0  0  0  0
   -0.5931   -0.5667    1.7834 H   0  0  0  0  0  0  0  0  0  0  0  0
   -0.2616   -2.4703   -0.4138 H   0  0  0  0  0  0  0  0  0  0  0  0
    1.0298   -1.8972    0.7343 H   0  0  0  0  0  0  0  0  0  0  0  0
    0.3741   -0.5263   -1.9412 H   0  0  0  0  0  0  0  0  0  0  0  0
    1.5292   -0.1624    1.8055 H   0  0  0  0  0  0  0  0  0  0  0  0
    2.9299   -0.5186    0.7419 H   0  0  0  0  0  0  0  0  0  0  0  0
    2.6777    1.1588    1.4026 H   0  0  0  0  0  0  0  0  0  0  0  0
    1.4816    1.5616   -1.9431 H   0  0  0  0  0  0  0  0  0  0  0  0
   -2.0432    1.5355   -0.5812 H   0  0  0  0  0  0  0  0  0  0  0  0
   -0.6897    2.5529   -0.0592 H   0  0  0  0  0  0  0  0  0  0  0  0
   -0.6512    1.8648   -1.6916 H   0  0  0  0  0  0  0  0  0  0  0  0
  1  2  1  0
  2  3  1  0
  3  4  1  0
  4  5  1  0
  5  6  1  0
  5  7  1  0
  5  8  1  0
  8  9  1  0
  8  2  1  0
  8  4  1  0
  1 10  1  0
  1 11  1  0
  1 12  1  0
  2 13  1  0
  3 14  1  0
  3 15  1  0
  4 16  1  0
  6 17  1  0
  6 18  1  0
  6 19  1  0
  7 20  1  0
  9 21  1  0
  9 22  1  0
  9 23  1  0
M  END
