
     RDKit          3D

 19 19  0  0  0  0  0  0  0  0999 V2000
   -2.1748   -0.1179    0.0299 C   0  0  0  0  0  0  0  0  0  0  0  0
   -0.7952   -0.3781   -0.4672 C   0  0  0  0  0  0  0  0  0  0  0  0
   -0.0898   -1.5423    0.1039 C   0  0  0  0  0  0  0  0  0  0  0  0
   -0.3998   -2.6214    0.5167 O   0  0  0  0  0  0  0  0  0  0  0  0
    1.1591   -0.7724   -0.0662 C   0  0  0  0  0  0  0  0  0  0  0  0
    2.1452   -0.9841    0.8772 O   0  0  0  0  0  0  0  0  0  0  0  0
    0.2959    0.4690    0.1909 C   0  0  0  0  0  0  0  0  0  0  0  0
    0.6930    1.6787   -0.5885 C   0  0  0  0  0  0  0  0  0  0  0  0
    0.0381    0.6273    1.5249 O   0  0  0  0  0  0  0  0  0  0  0  0
   -2.1611    0.4952    0.9445 H   0  0  0  0  0  0  0  0  0  0  0  0
   -2.8023   -1.0351    0.1312 H   0  0  0  0  0  0  0  0  0  0  0  0
   -2.7010    0.5084   -0.7439 H   0  0  0  0  0  0  0  0  0  0  0  0
   -0.6564   -0.3044   -1.5748 H   0  0  0  0  0  0  0  0  0  0  0  0
    1.4872   -0.8192   -1.1249 H   0  0  0  0  0  0  0  0  0  0  0  0
    2.9864   -1.2754    0.4096 H   0  0  0  0  0  0  0  0  0  0  0  0
    1.2990    1.4501   -1.4692 H   0  0  0  0  0  0  0  0  0  0  0  0
    1.3033    2.3253    0.0791 H   0  0  0  0  0  0  0  0  0  0  0  0
   -0.2184    2.2866   -0.8448 H   0  0  0  0  0  0  0  0  0  0  0  0
    0.5917    0.0099    2.0716 H   0  0  0  0  0  0  0  0  0  0  0  0
  1  2  1  0
  2  3  1  0
  3  4  2  0
  3  5  1  0
  5  6  1  0
  5  7  1  0
  7  8  1  0
  7  9  1  0
  7  2  1  0
  1 10  1  0
  1 11  1  0
  1 12  1  0
  2 13  1  0
  5 14  1  0
  6 15  1  0
  8 16  1  0
  8 17  1  0
  8 18  1  0
  9 19  1  0
M  END
