
     RDKit          3D

 17 19  0  0  0  0  0  0  0  0999 V2000
   -1.7299    0.8345    0.1787 C   0  0  0  0  0  0  0  0  0  0  0  0
   -1.0118   -0.3719   -0.3841 C   0  0  0  0  0  0  0  0  0  0  0  0
   -0.5188   -1.3483    0.4846 C   0  0  0  0  0  0  0  0  0  0  0  0
    0.4284   -0.5858   -0.2407 C   0  0  0  0  0  0  0  0  0  0  0  0
    1.4593   -0.2095    0.7288 C   0  0  0  0  0  0  0  0  0  0  0  0
    0.9486    1.0814    0.6902 O   0  0  0  0  0  0  0  0  0  0  0  0
    0.9870    0.6623   -0.6490 C   0  0  0  0  0  0  0  0  0  0  0  0
    2.3237    0.2017   -0.3545 C   0  0  0  0  0  0  0  0  0  0  0  0
    3.4273    0.1698   -0.7375 O   0  0  0  0  0  0  0  0  0  0  0  0
   -2.7876    0.4929    0.3679 H   0  0  0  0  0  0  0  0  0  0  0  0
   -1.3438    1.1729    1.1391 H   0  0  0  0  0  0  0  0  0  0  0  0
   -1.8384    1.6510   -0.5804 H   0  0  0  0  0  0  0  0  0  0  0  0
   -1.3999   -0.6516   -1.3961 H   0  0  0  0  0  0  0  0  0  0  0  0
   -0.5965   -2.4387    0.1822 H   0  0  0  0  0  0  0  0  0  0  0  0
   -0.8152   -1.2805    1.5718 H   0  0  0  0  0  0  0  0  0  0  0  0
    1.7435   -0.6847    1.5921 H   0  0  0  0  0  0  0  0  0  0  0  0
    0.7242    1.3046   -1.4185 H   0  0  0  0  0  0  0  0  0  0  0  0
  1  2  1  0
  2  3  1  0
  3  4  1  0
  4  5  1  0
  5  6  1  0
  6  7  1  0
  7  8  1  0
  8  9  2  0
  4  2  1  0
  8  5  1  0
  7  4  1  0
  1 10  1  0
  1 11  1  0
  1 12  1  0
  2 13  1  0
  3 14  1  0
  3 15  1  0
  5 16  1  0
  7 17  1  0
M  END
