
     RDKit          3D

 21 22  0  0  0  0  0  0  0  0999 V2000
   -2.0775   -1.0139   -0.1264 C   0  0  0  0  0  0  0  0  0  0  0  0
   -0.6401   -0.5585   -0.3236 C   0  0  0  0  0  0  0  0  0  0  0  0
   -0.6550    0.8928   -0.8523 C   0  0  0  0  0  0  0  0  0  0  0  0
    0.5366    1.5664   -0.1373 C   0  0  0  0  0  0  0  0  0  0  0  0
    1.2427    0.3523    0.3332 C   0  0  0  0  0  0  0  0  0  0  0  0
    1.8066   -0.4285   -0.8360 C   0  0  0  0  0  0  0  0  0  0  0  0
    2.6774   -1.2633   -0.6563 O   0  0  0  0  0  0  0  0  0  0  0  0
    1.2447   -0.3416    1.5559 C   0  0  0  0  0  0  0  0  0  0  0  0
   -0.0438   -0.2892    1.0068 C   0  0  0  0  0  0  0  0  0  0  0  0
   -2.4878   -1.5034   -1.0161 H   0  0  0  0  0  0  0  0  0  0  0  0
   -2.6736   -0.1347    0.1608 H   0  0  0  0  0  0  0  0  0  0  0  0
   -2.0618   -1.7036    0.7444 H   0  0  0  0  0  0  0  0  0  0  0  0
   -0.0978   -1.2329   -0.9785 H   0  0  0  0  0  0  0  0  0  0  0  0
   -1.5557    1.3449   -0.4340 H   0  0  0  0  0  0  0  0  0  0  0  0
   -0.5606    0.9360   -1.9294 H   0  0  0  0  0  0  0  0  0  0  0  0
    0.2063    2.2524    0.6406 H   0  0  0  0  0  0  0  0  0  0  0  0
    1.1425    2.0387   -0.9410 H   0  0  0  0  0  0  0  0  0  0  0  0
    1.4804   -0.2941   -1.8577 H   0  0  0  0  0  0  0  0  0  0  0  0
    1.7563   -1.3293    1.6429 H   0  0  0  0  0  0  0  0  0  0  0  0
    1.4968    0.2552    2.4831 H   0  0  0  0  0  0  0  0  0  0  0  0
   -0.7368    0.4540    1.5208 H   0  0  0  0  0  0  0  0  0  0  0  0
  1  2  1  0
  2  3  1  0
  3  4  1  0
  4  5  1  0
  5  6  1  0
  6  7  2  0
  5  8  1  0
  8  9  1  0
  9  2  1  0
  9  5  1  0
  1 10  1  0
  1 11  1  0
  1 12  1  0
  2 13  1  0
  3 14  1  0
  3 15  1  0
  4 16  1  0
  4 17  1  0
  6 18  1  0
  8 19  1  0
  8 20  1  0
  9 21  1  0
M  END
