
     RDKit          3D

 21 22  0  0  0  0  0  0  0  0999 V2000
   -2.1664   -0.0450   -1.2897 C   0  0  0  0  0  0  0  0  0  0  0  0
   -1.6868    0.3298    0.0843 C   0  0  0  0  0  0  0  0  0  0  0  0
   -0.8565   -0.6440    0.8088 C   0  0  0  0  0  0  0  0  0  0  0  0
   -0.9311   -0.8293    2.1719 O   0  0  0  0  0  0  0  0  0  0  0  0
   -0.3253    0.7319    0.3820 C   0  0  0  0  0  0  0  0  0  0  0  0
    0.8070    0.6459   -0.6026 C   0  0  0  0  0  0  0  0  0  0  0  0
    2.1649    1.0657   -0.2508 C   0  0  0  0  0  0  0  0  0  0  0  0
    1.8599   -0.4017   -0.2051 C   0  0  0  0  0  0  0  0  0  0  0  0
    2.3366   -1.2496   -1.1927 O   0  0  0  0  0  0  0  0  0  0  0  0
   -2.8810   -0.9072   -1.1633 H   0  0  0  0  0  0  0  0  0  0  0  0
   -2.7639    0.7763   -1.7616 H   0  0  0  0  0  0  0  0  0  0  0  0
   -1.3520   -0.3597   -1.9454 H   0  0  0  0  0  0  0  0  0  0  0  0
   -2.4966    0.8142    0.7061 H   0  0  0  0  0  0  0  0  0  0  0  0
   -0.5284   -1.5291    0.2463 H   0  0  0  0  0  0  0  0  0  0  0  0
   -1.7786   -1.2205    2.4745 H   0  0  0  0  0  0  0  0  0  0  0  0
   -0.1487    1.4787    1.1978 H   0  0  0  0  0  0  0  0  0  0  0  0
    0.5267    0.6788   -1.6843 H   0  0  0  0  0  0  0  0  0  0  0  0
    2.2880    1.6129    0.7038 H   0  0  0  0  0  0  0  0  0  0  0  0
    2.8365    1.3813   -1.0750 H   0  0  0  0  0  0  0  0  0  0  0  0
    1.8160   -0.8430    0.7890 H   0  0  0  0  0  0  0  0  0  0  0  0
    3.2796   -1.4864   -0.9205 H   0  0  0  0  0  0  0  0  0  0  0  0
  1  2  1  0
  2  3  1  0
  3  4  1  0
  3  5  1  0
  5  6  1  0
  6  7  1  0
  7  8  1  0
  8  9  1  0
  5  2  1  0
  8  6  1  0
  1 10  1  0
  1 11  1  0
  1 12  1  0
  2 13  1  0
  3 14  1  0
  4 15  1  0
  5 16  1  0
  6 17  1  0
  7 18  1  0
  7 19  1  0
  8 20  1  0
  9 21  1  0
M  END
