
     RDKit          3D

 19 20  0  0  0  0  0  0  0  0999 V2000
   -1.7044   -1.2715    0.3814 C   0  0  0  0  0  0  0  0  0  0  0  0
   -0.9967   -0.2201   -0.4021 C   0  0  0  0  0  0  0  0  0  0  0  0
   -1.3308    1.1626    0.1817 C   0  0  0  0  0  0  0  0  0  0  0  0
    0.0839    1.5380   -0.1956 C   0  0  0  0  0  0  0  0  0  0  0  0
    0.6307    2.5936   -0.4579 O   0  0  0  0  0  0  0  0  0  0  0  0
    0.3888    0.1085   -0.0838 C   0  0  0  0  0  0  0  0  0  0  0  0
    1.5200   -0.4352   -0.8391 C   0  0  0  0  0  0  0  0  0  0  0  0
    2.1939   -0.0481    0.4865 C   0  0  0  0  0  0  0  0  0  0  0  0
    0.9467   -0.3301    1.0910 O   0  0  0  0  0  0  0  0  0  0  0  0
   -2.8013   -1.1847    0.1255 H   0  0  0  0  0  0  0  0  0  0  0  0
   -1.6468   -1.0818    1.4755 H   0  0  0  0  0  0  0  0  0  0  0  0
   -1.3687   -2.3015    0.1275 H   0  0  0  0  0  0  0  0  0  0  0  0
   -1.2280   -0.2896   -1.4866 H   0  0  0  0  0  0  0  0  0  0  0  0
   -2.1083    1.7008   -0.3525 H   0  0  0  0  0  0  0  0  0  0  0  0
   -1.3896    1.0878    1.2718 H   0  0  0  0  0  0  0  0  0  0  0  0
    1.5078   -1.5267   -0.9553 H   0  0  0  0  0  0  0  0  0  0  0  0
    1.9413    0.1371   -1.6799 H   0  0  0  0  0  0  0  0  0  0  0  0
    3.0161   -0.6862    0.7911 H   0  0  0  0  0  0  0  0  0  0  0  0
    2.3457    1.0470    0.5207 H   0  0  0  0  0  0  0  0  0  0  0  0
  1  2  1  0
  2  3  1  0
  3  4  1  0
  4  5  2  0
  4  6  1  0
  6  7  1  0
  7  8  1  0
  8  9  1  0
  6  2  1  0
  9  6  1  0
  1 10  1  0
  1 11  1  0
  1 12  1  0
  2 13  1  0
  3 14  1  0
  3 15  1  0
  7 16  1  0
  7 17  1  0
  8 18  1  0
  8 19  1  0
M  END
