
     RDKit          3D

 21 21  0  0  0  0  0  0  0  0999 V2000
   -0.1986    1.9877    0.2805 C   0  0  0  0  0  0  0  0  0  0  0  0
   -0.4058    0.5401    0.5792 C   0  0  0  0  0  0  0  0  0  0  0  0
   -1.6448    0.0513   -0.1438 C   0  0  0  0  0  0  0  0  0  0  0  0
   -1.3613   -1.4352   -0.2287 C   0  0  0  0  0  0  0  0  0  0  0  0
    0.0816   -1.4373   -0.5604 C   0  0  0  0  0  0  0  0  0  0  0  0
    0.5958   -2.1969   -1.3478 O   0  0  0  0  0  0  0  0  0  0  0  0
    0.7151   -0.3642    0.2412 C   0  0  0  0  0  0  0  0  0  0  0  0
    1.8561    0.2494   -0.4948 C   0  0  0  0  0  0  0  0  0  0  0  0
    1.2325   -0.9923    1.3990 O   0  0  0  0  0  0  0  0  0  0  0  0
    0.4052    2.1803   -0.6252 H   0  0  0  0  0  0  0  0  0  0  0  0
   -1.2117    2.4272    0.0655 H   0  0  0  0  0  0  0  0  0  0  0  0
    0.1663    2.5310    1.1773 H   0  0  0  0  0  0  0  0  0  0  0  0
   -0.6263    0.4474    1.6675 H   0  0  0  0  0  0  0  0  0  0  0  0
   -1.6971    0.4271   -1.1901 H   0  0  0  0  0  0  0  0  0  0  0  0
   -2.5671    0.2669    0.4216 H   0  0  0  0  0  0  0  0  0  0  0  0
   -1.5769   -1.9408    0.7494 H   0  0  0  0  0  0  0  0  0  0  0  0
   -1.9806   -1.9224   -1.0189 H   0  0  0  0  0  0  0  0  0  0  0  0
    2.1541    1.2437   -0.1364 H   0  0  0  0  0  0  0  0  0  0  0  0
    1.6563    0.1978   -1.5788 H   0  0  0  0  0  0  0  0  0  0  0  0
    2.7553   -0.4148   -0.3268 H   0  0  0  0  0  0  0  0  0  0  0  0
    1.6518   -1.8459    1.0705 H   0  0  0  0  0  0  0  0  0  0  0  0
  1  2  1  0
  2  3  1  0
  3  4  1  0
  4  5  1  0
  5  6  2  0
  5  7  1  0
  7  8  1  0
  7  9  1  0
  7  2  1  0
  1 10  1  0
  1 11  1  0
  1 12  1  0
  2 13  1  0
  3 14  1  0
  3 15  1  0
  4 16  1  0
  4 17  1  0
  8 18  1  0
  8 19  1  0
  8 20  1  0
  9 21  1  0
M  END
