
     RDKit          3D

 23 24  0  0  0  0  0  0  0  0999 V2000
    2.3896    0.3659   -0.4037 C   0  0  0  0  0  0  0  0  0  0  0  0
    1.0237   -0.2403   -0.3634 C   0  0  0  0  0  0  0  0  0  0  0  0
    0.8936   -1.2491    0.7839 C   0  0  0  0  0  0  0  0  0  0  0  0
   -0.6108   -1.5328    0.6971 C   0  0  0  0  0  0  0  0  0  0  0  0
   -1.1701   -0.1484    0.4594 C   0  0  0  0  0  0  0  0  0  0  0  0
   -2.3360   -0.1597   -0.5028 C   0  0  0  0  0  0  0  0  0  0  0  0
   -0.0692    0.7108   -0.0490 C   0  0  0  0  0  0  0  0  0  0  0  0
   -0.2325    2.0098   -0.5213 C   0  0  0  0  0  0  0  0  0  0  0  0
    0.3386    1.7674    0.8305 O   0  0  0  0  0  0  0  0  0  0  0  0
    3.0966   -0.4520   -0.7233 H   0  0  0  0  0  0  0  0  0  0  0  0
    2.7303    0.7191    0.5833 H   0  0  0  0  0  0  0  0  0  0  0  0
    2.4184    1.1162   -1.1928 H   0  0  0  0  0  0  0  0  0  0  0  0
    0.8687   -0.8231   -1.2958 H   0  0  0  0  0  0  0  0  0  0  0  0
    1.0411   -0.7406    1.7542 H   0  0  0  0  0  0  0  0  0  0  0  0
    1.4980   -2.1395    0.6298 H   0  0  0  0  0  0  0  0  0  0  0  0
   -0.9865   -1.9957    1.6308 H   0  0  0  0  0  0  0  0  0  0  0  0
   -0.7295   -2.1911   -0.1920 H   0  0  0  0  0  0  0  0  0  0  0  0
   -1.5280    0.2109    1.4672 H   0  0  0  0  0  0  0  0  0  0  0  0
   -3.2745   -0.2099    0.1026 H   0  0  0  0  0  0  0  0  0  0  0  0
   -2.3139   -0.9940   -1.2118 H   0  0  0  0  0  0  0  0  0  0  0  0
   -2.3854    0.8429   -1.0139 H   0  0  0  0  0  0  0  0  0  0  0  0
    0.5188    2.5744   -1.0885 H   0  0  0  0  0  0  0  0  0  0  0  0
   -1.1811    2.5592   -0.3805 H   0  0  0  0  0  0  0  0  0  0  0  0
  1  2  1  0
  2  3  1  0
  3  4  1  0
  4  5  1  0
  5  6  1  0
  5  7  1  0
  7  8  1  0
  8  9  1  0
  7  2  1  0
  9  7  1  0
  1 10  1  0
  1 11  1  0
  1 12  1  0
  2 13  1  0
  3 14  1  0
  3 15  1  0
  4 16  1  0
  4 17  1  0
  5 18  1  0
  6 19  1  0
  6 20  1  0
  6 21  1  0
  8 22  1  0
  8 23  1  0
M  END
