
     RDKit          3D

 21 22  0  0  0  0  0  0  0  0999 V2000
    2.4765    0.6998    0.6531 C   0  0  0  0  0  0  0  0  0  0  0  0
    1.2704   -0.2164    0.7873 C   0  0  0  0  0  0  0  0  0  0  0  0
    1.1560   -1.2465   -0.3102 C   0  0  0  0  0  0  0  0  0  0  0  0
   -0.0655   -0.5712   -0.8414 C   0  0  0  0  0  0  0  0  0  0  0  0
    0.0611    0.4702    0.2171 C   0  0  0  0  0  0  0  0  0  0  0  0
   -1.1621   -0.3321    0.1123 C   0  0  0  0  0  0  0  0  0  0  0  0
   -1.3541   -1.2942    1.1052 O   0  0  0  0  0  0  0  0  0  0  0  0
   -2.4119    0.4125   -0.3014 C   0  0  0  0  0  0  0  0  0  0  0  0
   -2.1510    1.3558   -1.2932 O   0  0  0  0  0  0  0  0  0  0  0  0
    3.2930    0.4355    1.3273 H   0  0  0  0  0  0  0  0  0  0  0  0
    2.8435    0.5676   -0.3902 H   0  0  0  0  0  0  0  0  0  0  0  0
    2.1038    1.7334    0.8254 H   0  0  0  0  0  0  0  0  0  0  0  0
    1.1002   -0.6141    1.7975 H   0  0  0  0  0  0  0  0  0  0  0  0
    2.0401   -1.2798   -0.9654 H   0  0  0  0  0  0  0  0  0  0  0  0
    0.9570   -2.2899    0.0752 H   0  0  0  0  0  0  0  0  0  0  0  0
   -0.0679   -0.1975   -1.8700 H   0  0  0  0  0  0  0  0  0  0  0  0
    0.1152    1.5355   -0.0722 H   0  0  0  0  0  0  0  0  0  0  0  0
   -1.7315   -2.1370    0.7266 H   0  0  0  0  0  0  0  0  0  0  0  0
   -3.2389   -0.2675   -0.5610 H   0  0  0  0  0  0  0  0  0  0  0  0
   -2.7452    0.9847    0.5959 H   0  0  0  0  0  0  0  0  0  0  0  0
   -2.4887    2.2509   -1.0579 H   0  0  0  0  0  0  0  0  0  0  0  0
  1  2  1  0
  2  3  1  0
  3  4  1  0
  4  5  1  0
  5  6  1  0
  6  7  1  0
  6  8  1  0
  8  9  1  0
  5  2  1  0
  6  4  1  0
  1 10  1  0
  1 11  1  0
  1 12  1  0
  2 13  1  0
  3 14  1  0
  3 15  1  0
  4 16  1  0
  5 17  1  0
  7 18  1  0
  8 19  1  0
  8 20  1  0
  9 21  1  0
M  END
