
     RDKit          3D

 20 20  0  0  0  0  0  0  0  0999 V2000
   -1.5648   -1.4235   -0.1382 C   0  0  0  0  0  0  0  0  0  0  0  0
   -0.7852   -0.2734    0.4153 C   0  0  0  0  0  0  0  0  0  0  0  0
   -1.5425    1.0128    0.0860 C   0  0  0  0  0  0  0  0  0  0  0  0
   -0.5513    1.9631    0.2961 O   0  0  0  0  0  0  0  0  0  0  0  0
    0.5581    1.4830   -0.3860 C   0  0  0  0  0  0  0  0  0  0  0  0
    0.5043   -0.0157   -0.3504 C   0  0  0  0  0  0  0  0  0  0  0  0
    1.6470   -0.5782    0.4512 C   0  0  0  0  0  0  0  0  0  0  0  0
    2.8258   -0.3422   -0.2498 O   0  0  0  0  0  0  0  0  0  0  0  0
   -2.0263   -2.0381    0.6609 H   0  0  0  0  0  0  0  0  0  0  0  0
   -0.9365   -2.1134   -0.7362 H   0  0  0  0  0  0  0  0  0  0  0  0
   -2.3932   -1.0921   -0.8216 H   0  0  0  0  0  0  0  0  0  0  0  0
   -0.6117   -0.3811    1.5006 H   0  0  0  0  0  0  0  0  0  0  0  0
   -1.7754    0.9835   -0.9763 H   0  0  0  0  0  0  0  0  0  0  0  0
   -2.3841    1.0914    0.7663 H   0  0  0  0  0  0  0  0  0  0  0  0
    1.4794    1.8805    0.0981 H   0  0  0  0  0  0  0  0  0  0  0  0
    0.4983    1.8355   -1.4176 H   0  0  0  0  0  0  0  0  0  0  0  0
    0.4757   -0.4958   -1.3307 H   0  0  0  0  0  0  0  0  0  0  0  0
    1.5100   -1.6772    0.5150 H   0  0  0  0  0  0  0  0  0  0  0  0
    1.6806   -0.1627    1.4793 H   0  0  0  0  0  0  0  0  0  0  0  0
    3.3918    0.3435    0.1383 H   0  0  0  0  0  0  0  0  0  0  0  0
  1  2  1  0
  2  3  1  0
  3  4  1  0
  4  5  1  0
  5  6  1  0
  6  7  1  0
  7  8  1  0
  6  2  1  0
  1  9  1  0
  1 10  1  0
  1 11  1  0
  2 12  1  0
  3 13  1  0
  3 14  1  0
  5 15  1  0
  5 16  1  0
  6 17  1  0
  7 18  1  0
  7 19  1  0
  8 20  1  0
M  END
