
     RDKit          3D

 21 23  0  0  0  0  0  0  0  0999 V2000
    2.1277   -0.4842    0.4701 C   0  0  0  0  0  0  0  0  0  0  0  0
    0.7349   -0.9193    0.2434 C   0  0  0  0  0  0  0  0  0  0  0  0
    0.0372   -0.3095   -0.9834 C   0  0  0  0  0  0  0  0  0  0  0  0
    0.3440    1.1523   -0.8270 C   0  0  0  0  0  0  0  0  0  0  0  0
    0.0388    1.3105    0.6766 C   0  0  0  0  0  0  0  0  0  0  0  0
   -0.3440   -0.1139    0.9878 C   0  0  0  0  0  0  0  0  0  0  0  0
   -1.1945   -0.4824   -0.1728 C   0  0  0  0  0  0  0  0  0  0  0  0
   -2.5076   -0.3530   -0.4511 C   0  0  0  0  0  0  0  0  0  0  0  0
   -1.8408   -1.6800   -0.2872 O   0  0  0  0  0  0  0  0  0  0  0  0
    2.2643    0.1651    1.3651 H   0  0  0  0  0  0  0  0  0  0  0  0
    2.6116   -0.0576   -0.4402 H   0  0  0  0  0  0  0  0  0  0  0  0
    2.7410   -1.4062    0.7010 H   0  0  0  0  0  0  0  0  0  0  0  0
    0.5050   -1.9903    0.3828 H   0  0  0  0  0  0  0  0  0  0  0  0
    0.1714   -0.7947   -1.9144 H   0  0  0  0  0  0  0  0  0  0  0  0
   -0.3335    1.7999   -1.4289 H   0  0  0  0  0  0  0  0  0  0  0  0
    1.3695    1.4342   -1.0656 H   0  0  0  0  0  0  0  0  0  0  0  0
    0.9027    1.6773    1.2301 H   0  0  0  0  0  0  0  0  0  0  0  0
   -0.8436    1.9966    0.7598 H   0  0  0  0  0  0  0  0  0  0  0  0
   -0.5795   -0.4043    1.9771 H   0  0  0  0  0  0  0  0  0  0  0  0
   -2.8941   -0.2248   -1.5054 H   0  0  0  0  0  0  0  0  0  0  0  0
   -3.3105   -0.3157    0.2824 H   0  0  0  0  0  0  0  0  0  0  0  0
  1  2  1  0
  2  3  1  0
  3  4  1  0
  4  5  1  0
  5  6  1  0
  6  7  1  0
  7  8  1  0
  8  9  1  0
  6  2  1  0
  9  7  1  0
  7  3  1  0
  1 10  1  0
  1 11  1  0
  1 12  1  0
  2 13  1  0
  3 14  1  0
  4 15  1  0
  4 16  1  0
  5 17  1  0
  5 18  1  0
  6 19  1  0
  8 20  1  0
  8 21  1  0
M  END
