
     RDKit          3D

 23 23  0  0  0  0  0  0  0  0999 V2000
    0.7963    1.6354    0.6794 C   0  0  0  0  0  0  0  0  0  0  0  0
    0.5754    0.1539    0.5875 C   0  0  0  0  0  0  0  0  0  0  0  0
    1.3814   -0.4213   -0.5644 C   0  0  0  0  0  0  0  0  0  0  0  0
    2.6213   -0.8773   -0.1788 O   0  0  0  0  0  0  0  0  0  0  0  0
    0.4915   -1.5382   -1.0350 C   0  0  0  0  0  0  0  0  0  0  0  0
   -0.6377   -1.5482   -0.2520 O   0  0  0  0  0  0  0  0  0  0  0  0
   -0.8158   -0.2399    0.2335 C   0  0  0  0  0  0  0  0  0  0  0  0
   -1.7524   -0.3249    1.4001 C   0  0  0  0  0  0  0  0  0  0  0  0
   -1.4199    0.5619   -0.8799 C   0  0  0  0  0  0  0  0  0  0  0  0
    1.2203    2.0695   -0.2516 H   0  0  0  0  0  0  0  0  0  0  0  0
   -0.1105    2.2088    0.9150 H   0  0  0  0  0  0  0  0  0  0  0  0
    1.6007    1.7837    1.4565 H   0  0  0  0  0  0  0  0  0  0  0  0
    0.8667   -0.3827    1.5082 H   0  0  0  0  0  0  0  0  0  0  0  0
    1.4752    0.3681   -1.3540 H   0  0  0  0  0  0  0  0  0  0  0  0
    3.3455   -0.6240   -0.7986 H   0  0  0  0  0  0  0  0  0  0  0  0
    1.0308   -2.4946   -0.8564 H   0  0  0  0  0  0  0  0  0  0  0  0
    0.2210   -1.3717   -2.0851 H   0  0  0  0  0  0  0  0  0  0  0  0
   -2.7697   -0.5421    0.9836 H   0  0  0  0  0  0  0  0  0  0  0  0
   -1.8287    0.6406    1.9489 H   0  0  0  0  0  0  0  0  0  0  0  0
   -1.4380   -1.1647    2.0622 H   0  0  0  0  0  0  0  0  0  0  0  0
   -2.3945    0.0531   -1.1402 H   0  0  0  0  0  0  0  0  0  0  0  0
   -1.6608    1.5861   -0.5912 H   0  0  0  0  0  0  0  0  0  0  0  0
   -0.7980    0.4687   -1.7876 H   0  0  0  0  0  0  0  0  0  0  0  0
  1  2  1  0
  2  3  1  0
  3  4  1  0
  3  5  1  0
  5  6  1  0
  6  7  1  0
  7  8  1  0
  7  9  1  0
  7  2  1  0
  1 10  1  0
  1 11  1  0
  1 12  1  0
  2 13  1  0
  3 14  1  0
  4 15  1  0
  5 16  1  0
  5 17  1  0
  8 18  1  0
  8 19  1  0
  8 20  1  0
  9 21  1  0
  9 22  1  0
  9 23  1  0
M  END
