
     RDKit          3D

 18 19  0  0  0  0  0  0  0  0999 V2000
    2.0642   -0.5364   -0.5234 C   0  0  0  0  0  0  0  0  0  0  0  0
    1.1642    0.0036    0.5427 C   0  0  0  0  0  0  0  0  0  0  0  0
    0.6456    1.4317    0.3669 C   0  0  0  0  0  0  0  0  0  0  0  0
   -0.2591    0.2421    0.3675 C   0  0  0  0  0  0  0  0  0  0  0  0
   -1.0093   -0.0311   -0.8986 C   0  0  0  0  0  0  0  0  0  0  0  0
   -2.3398   -0.0494   -0.4472 O   0  0  0  0  0  0  0  0  0  0  0  0
   -2.2555   -0.5811    0.8470 C   0  0  0  0  0  0  0  0  0  0  0  0
   -1.1219    0.0082    1.4287 O   0  0  0  0  0  0  0  0  0  0  0  0
    2.4919   -1.4975   -0.1379 H   0  0  0  0  0  0  0  0  0  0  0  0
    1.5145   -0.8010   -1.4423 H   0  0  0  0  0  0  0  0  0  0  0  0
    2.9377    0.1384   -0.7222 H   0  0  0  0  0  0  0  0  0  0  0  0
    1.5048   -0.2118    1.5949 H   0  0  0  0  0  0  0  0  0  0  0  0
    0.6561    2.1000    1.2395 H   0  0  0  0  0  0  0  0  0  0  0  0
    0.8670    1.9086   -0.6049 H   0  0  0  0  0  0  0  0  0  0  0  0
   -0.7212   -0.9588   -1.4084 H   0  0  0  0  0  0  0  0  0  0  0  0
   -0.9188    0.8070   -1.6234 H   0  0  0  0  0  0  0  0  0  0  0  0
   -2.1010   -1.6871    0.8305 H   0  0  0  0  0  0  0  0  0  0  0  0
   -3.1193   -0.2855    1.4741 H   0  0  0  0  0  0  0  0  0  0  0  0
  1  2  1  0
  2  3  1  0
  3  4  1  0
  4  5  1  0
  5  6  1  0
  6  7  1  0
  7  8  1  0
  4  2  1  0
  8  4  1  0
  1  9  1  0
  1 10  1  0
  1 11  1  0
  2 12  1  0
  3 13  1  0
  3 14  1  0
  5 15  1  0
  5 16  1  0
  7 17  1  0
  7 18  1  0
M  END
