
     RDKit          3D

 21 21  0  0  0  0  0  0  0  0999 V2000
   -2.3342    1.4088    0.1039 C   0  0  0  0  0  0  0  0  0  0  0  0
   -1.6706    0.2251   -0.5188 C   0  0  0  0  0  0  0  0  0  0  0  0
   -0.9596   -0.7038    0.4777 C   0  0  0  0  0  0  0  0  0  0  0  0
   -0.0775   -0.8218   -0.7258 C   0  0  0  0  0  0  0  0  0  0  0  0
    1.3720   -1.0657   -0.4979 C   0  0  0  0  0  0  0  0  0  0  0  0
    2.0604   -0.7082   -1.6687 O   0  0  0  0  0  0  0  0  0  0  0  0
    1.9695   -0.2412    0.6074 C   0  0  0  0  0  0  0  0  0  0  0  0
    1.8244    1.1240    0.3626 O   0  0  0  0  0  0  0  0  0  0  0  0
   -0.3807    0.5169   -1.0229 O   0  0  0  0  0  0  0  0  0  0  0  0
   -2.6520    1.1149    1.1359 H   0  0  0  0  0  0  0  0  0  0  0  0
   -3.2464    1.6612   -0.5037 H   0  0  0  0  0  0  0  0  0  0  0  0
   -1.6724    2.2931    0.1492 H   0  0  0  0  0  0  0  0  0  0  0  0
   -2.2314   -0.3045   -1.3061 H   0  0  0  0  0  0  0  0  0  0  0  0
   -0.6028   -0.1072    1.3166 H   0  0  0  0  0  0  0  0  0  0  0  0
   -1.6278   -1.5471    0.6913 H   0  0  0  0  0  0  0  0  0  0  0  0
   -0.4939   -1.5432   -1.4431 H   0  0  0  0  0  0  0  0  0  0  0  0
    1.5209   -2.1351   -0.2626 H   0  0  0  0  0  0  0  0  0  0  0  0
    1.8446    0.2597   -1.8120 H   0  0  0  0  0  0  0  0  0  0  0  0
    3.0759   -0.4416    0.5889 H   0  0  0  0  0  0  0  0  0  0  0  0
    1.6121   -0.5400    1.5999 H   0  0  0  0  0  0  0  0  0  0  0  0
    2.6696    1.5557    0.0853 H   0  0  0  0  0  0  0  0  0  0  0  0
  1  2  1  0
  2  3  1  0
  3  4  1  0
  4  5  1  0
  5  6  1  0
  5  7  1  0
  7  8  1  0
  4  9  1  0
  9  2  1  0
  1 10  1  0
  1 11  1  0
  1 12  1  0
  2 13  1  0
  3 14  1  0
  3 15  1  0
  4 16  1  0
  5 17  1  0
  6 18  1  0
  7 19  1  0
  7 20  1  0
  8 21  1  0
M  END
