
     RDKit          3D

 21 22  0  0  0  0  0  0  0  0999 V2000
    2.6967   -0.0115    0.5637 C   0  0  0  0  0  0  0  0  0  0  0  0
    1.2768   -0.4955    0.5127 C   0  0  0  0  0  0  0  0  0  0  0  0
    0.8121   -0.8980   -0.8397 C   0  0  0  0  0  0  0  0  0  0  0  0
   -0.4578   -0.1012   -1.0604 C   0  0  0  0  0  0  0  0  0  0  0  0
   -1.5984   -0.8402   -0.9744 O   0  0  0  0  0  0  0  0  0  0  0  0
   -2.4126   -0.3460    0.0003 C   0  0  0  0  0  0  0  0  0  0  0  0
   -1.8556    0.9394    0.5091 C   0  0  0  0  0  0  0  0  0  0  0  0
   -0.4181    0.8898    0.0529 C   0  0  0  0  0  0  0  0  0  0  0  0
    0.4192    0.4379    1.0317 O   0  0  0  0  0  0  0  0  0  0  0  0
    2.7359    0.8006    1.3395 H   0  0  0  0  0  0  0  0  0  0  0  0
    3.0304    0.4599   -0.3808 H   0  0  0  0  0  0  0  0  0  0  0  0
    3.4122   -0.7861    0.9307 H   0  0  0  0  0  0  0  0  0  0  0  0
    1.2252   -1.4018    1.1815 H   0  0  0  0  0  0  0  0  0  0  0  0
    1.5060   -0.6264   -1.6654 H   0  0  0  0  0  0  0  0  0  0  0  0
    0.5134   -1.9743   -0.9186 H   0  0  0  0  0  0  0  0  0  0  0  0
   -0.4420    0.4541   -2.0270 H   0  0  0  0  0  0  0  0  0  0  0  0
   -3.4281   -0.1497   -0.4500 H   0  0  0  0  0  0  0  0  0  0  0  0
   -2.6080   -1.0629    0.8332 H   0  0  0  0  0  0  0  0  0  0  0  0
   -2.3584    1.7915    0.0117 H   0  0  0  0  0  0  0  0  0  0  0  0
   -1.9418    1.0103    1.6033 H   0  0  0  0  0  0  0  0  0  0  0  0
   -0.1071    1.9098   -0.2541 H   0  0  0  0  0  0  0  0  0  0  0  0
  1  2  1  0
  2  3  1  0
  3  4  1  0
  4  5  1  0
  5  6  1  0
  6  7  1  0
  7  8  1  0
  8  9  1  0
  9  2  1  0
  8  4  1  0
  1 10  1  0
  1 11  1  0
  1 12  1  0
  2 13  1  0
  3 14  1  0
  3 15  1  0
  4 16  1  0
  6 17  1  0
  6 18  1  0
  7 19  1  0
  7 20  1  0
  8 21  1  0
M  END
