
     RDKit          3D

 23 24  0  0  0  0  0  0  0  0999 V2000
    3.2788   -0.5679   -0.6769 C   0  0  0  0  0  0  0  0  0  0  0  0
    2.0300    0.2806   -0.6361 C   0  0  0  0  0  0  0  0  0  0  0  0
    1.4885    0.8294    0.6050 C   0  0  0  0  0  0  0  0  0  0  0  0
    0.8197   -0.3608    0.0670 C   0  0  0  0  0  0  0  0  0  0  0  0
   -0.4425   -0.3118   -0.7260 C   0  0  0  0  0  0  0  0  0  0  0  0
   -0.9420    0.9505   -1.0877 O   0  0  0  0  0  0  0  0  0  0  0  0
   -1.7170    0.1498   -0.2624 C   0  0  0  0  0  0  0  0  0  0  0  0
   -2.9682   -0.4806   -0.8822 C   0  0  0  0  0  0  0  0  0  0  0  0
   -1.9534    0.6322    1.1545 C   0  0  0  0  0  0  0  0  0  0  0  0
    3.2060   -1.1907   -1.6103 H   0  0  0  0  0  0  0  0  0  0  0  0
    4.1464    0.0936   -0.7812 H   0  0  0  0  0  0  0  0  0  0  0  0
    3.3470   -1.2806    0.1653 H   0  0  0  0  0  0  0  0  0  0  0  0
    1.8400    0.8170   -1.5903 H   0  0  0  0  0  0  0  0  0  0  0  0
    2.0392    0.7211    1.5794 H   0  0  0  0  0  0  0  0  0  0  0  0
    1.0347    1.8545    0.5304 H   0  0  0  0  0  0  0  0  0  0  0  0
    1.0166   -1.3300    0.5871 H   0  0  0  0  0  0  0  0  0  0  0  0
   -0.4348   -1.0116   -1.6119 H   0  0  0  0  0  0  0  0  0  0  0  0
   -3.2949   -1.2757   -0.1852 H   0  0  0  0  0  0  0  0  0  0  0  0
   -2.7123   -1.0103   -1.8379 H   0  0  0  0  0  0  0  0  0  0  0  0
   -3.7718    0.2434   -1.0127 H   0  0  0  0  0  0  0  0  0  0  0  0
   -1.0831    1.2282    1.4693 H   0  0  0  0  0  0  0  0  0  0  0  0
   -2.0830   -0.2820    1.7733 H   0  0  0  0  0  0  0  0  0  0  0  0
   -2.8438    1.3015    1.2042 H   0  0  0  0  0  0  0  0  0  0  0  0
  1  2  1  0
  2  3  1  0
  3  4  1  0
  4  5  1  0
  5  6  1  0
  6  7  1  0
  7  8  1  0
  7  9  1  0
  4  2  1  0
  7  5  1  0
  1 10  1  0
  1 11  1  0
  1 12  1  0
  2 13  1  0
  3 14  1  0
  3 15  1  0
  4 16  1  0
  5 17  1  0
  8 18  1  0
  8 19  1  0
  8 20  1  0
  9 21  1  0
  9 22  1  0
  9 23  1  0
M  END
