
     RDKit          3D

 23 24  0  0  0  0  0  0  0  0999 V2000
   -1.4596   -1.8491    0.2205 C   0  0  0  0  0  0  0  0  0  0  0  0
   -0.8080   -0.5277    0.5907 C   0  0  0  0  0  0  0  0  0  0  0  0
    0.6513   -0.8519    0.9154 C   0  0  0  0  0  0  0  0  0  0  0  0
    1.4272   -0.4347   -0.2938 C   0  0  0  0  0  0  0  0  0  0  0  0
    2.3787    0.6805    0.0449 C   0  0  0  0  0  0  0  0  0  0  0  0
    1.3307    1.5847   -0.0073 O   0  0  0  0  0  0  0  0  0  0  0  0
    0.6755    0.7214   -0.8672 C   0  0  0  0  0  0  0  0  0  0  0  0
   -0.7683    0.4373   -0.5434 C   0  0  0  0  0  0  0  0  0  0  0  0
   -1.4354    1.7554   -0.2494 C   0  0  0  0  0  0  0  0  0  0  0  0
   -2.0318   -1.7443   -0.7287 H   0  0  0  0  0  0  0  0  0  0  0  0
   -0.7264   -2.6634    0.0922 H   0  0  0  0  0  0  0  0  0  0  0  0
   -2.1840   -2.1889    0.9812 H   0  0  0  0  0  0  0  0  0  0  0  0
   -1.3038   -0.1478    1.5031 H   0  0  0  0  0  0  0  0  0  0  0  0
    0.7999   -1.9322    1.1013 H   0  0  0  0  0  0  0  0  0  0  0  0
    0.9200   -0.3215    1.8379 H   0  0  0  0  0  0  0  0  0  0  0  0
    1.7785   -1.2076   -0.9714 H   0  0  0  0  0  0  0  0  0  0  0  0
    2.7590    0.5277    1.0904 H   0  0  0  0  0  0  0  0  0  0  0  0
    3.2117    0.8308   -0.6346 H   0  0  0  0  0  0  0  0  0  0  0  0
    0.8023    0.9394   -1.9306 H   0  0  0  0  0  0  0  0  0  0  0  0
   -1.2663   -0.0013   -1.4184 H   0  0  0  0  0  0  0  0  0  0  0  0
   -1.3874    2.3462   -1.2087 H   0  0  0  0  0  0  0  0  0  0  0  0
   -2.5020    1.6720   -0.0076 H   0  0  0  0  0  0  0  0  0  0  0  0
   -0.8618    2.3750    0.4833 H   0  0  0  0  0  0  0  0  0  0  0  0
  1  2  1  0
  2  3  1  0
  3  4  1  0
  4  5  1  0
  5  6  1  0
  6  7  1  0
  7  8  1  0
  8  9  1  0
  8  2  1  0
  7  4  1  0
  1 10  1  0
  1 11  1  0
  1 12  1  0
  2 13  1  0
  3 14  1  0
  3 15  1  0
  4 16  1  0
  5 17  1  0
  5 18  1  0
  7 19  1  0
  8 20  1  0
  9 21  1  0
  9 22  1  0
  9 23  1  0
M  END
