
     RDKit          3D

 20 21  0  0  0  0  0  0  0  0999 V2000
   -2.0630   -0.1068   -0.5273 C   0  0  0  0  0  0  0  0  0  0  0  0
   -1.0453    0.2923    0.4789 C   0  0  0  0  0  0  0  0  0  0  0  0
   -0.0781    1.3503   -0.0494 C   0  0  0  0  0  0  0  0  0  0  0  0
    1.2256    0.8512    0.5298 C   0  0  0  0  0  0  0  0  0  0  0  0
    1.8295   -0.1768   -0.4231 C   0  0  0  0  0  0  0  0  0  0  0  0
    0.7603   -1.2703   -0.2978 C   0  0  0  0  0  0  0  0  0  0  0  0
   -0.0883   -0.7957    0.8668 C   0  0  0  0  0  0  0  0  0  0  0  0
    0.8675   -0.0275    1.5790 O   0  0  0  0  0  0  0  0  0  0  0  0
   -2.8879   -0.6323    0.0081 H   0  0  0  0  0  0  0  0  0  0  0  0
   -1.6926   -0.6513   -1.3950 H   0  0  0  0  0  0  0  0  0  0  0  0
   -2.5337    0.8341   -0.9213 H   0  0  0  0  0  0  0  0  0  0  0  0
   -1.5286    0.6775    1.3723 H   0  0  0  0  0  0  0  0  0  0  0  0
   -0.0074    1.2283   -1.1602 H   0  0  0  0  0  0  0  0  0  0  0  0
   -0.3452    2.3596    0.2568 H   0  0  0  0  0  0  0  0  0  0  0  0
    1.9124    1.6221    0.8317 H   0  0  0  0  0  0  0  0  0  0  0  0
    1.9350    0.1916   -1.4384 H   0  0  0  0  0  0  0  0  0  0  0  0
    2.7976   -0.5349    0.0158 H   0  0  0  0  0  0  0  0  0  0  0  0
    1.2519   -2.2240    0.0358 H   0  0  0  0  0  0  0  0  0  0  0  0
    0.1996   -1.3942   -1.2258 H   0  0  0  0  0  0  0  0  0  0  0  0
   -0.5092   -1.5931    1.4634 H   0  0  0  0  0  0  0  0  0  0  0  0
  1  2  1  0
  2  3  1  0
  3  4  1  0
  4  5  1  0
  5  6  1  0
  6  7  1  0
  7  8  1  0
  7  2  1  0
  8  4  1  0
  1  9  1  0
  1 10  1  0
  1 11  1  0
  2 12  1  0
  3 13  1  0
  3 14  1  0
  4 15  1  0
  5 16  1  0
  5 17  1  0
  6 18  1  0
  6 19  1  0
  7 20  1  0
M  END
