
     RDKit          3D

 23 24  0  0  0  0  0  0  0  0999 V2000
    2.8883    0.1404   -0.2982 C   0  0  0  0  0  0  0  0  0  0  0  0
    1.4285   -0.0274   -0.4360 C   0  0  0  0  0  0  0  0  0  0  0  0
    0.6509    1.2197   -0.0895 C   0  0  0  0  0  0  0  0  0  0  0  0
   -0.6643    1.0370   -0.1373 C   0  0  0  0  0  0  0  0  0  0  0  0
   -2.0866    1.5142   -0.0019 C   0  0  0  0  0  0  0  0  0  0  0  0
   -2.4773    0.0574    0.2752 C   0  0  0  0  0  0  0  0  0  0  0  0
   -1.2334   -0.2831   -0.5146 C   0  0  0  0  0  0  0  0  0  0  0  0
   -0.4612   -1.4679   -0.0353 C   0  0  0  0  0  0  0  0  0  0  0  0
    0.8661   -1.0581    0.5574 C   0  0  0  0  0  0  0  0  0  0  0  0
    3.2086   -0.3763    0.6525 H   0  0  0  0  0  0  0  0  0  0  0  0
    3.2595    1.1624   -0.2496 H   0  0  0  0  0  0  0  0  0  0  0  0
    3.4531   -0.3751   -1.1170 H   0  0  0  0  0  0  0  0  0  0  0  0
    1.1367   -0.2808   -1.4765 H   0  0  0  0  0  0  0  0  0  0  0  0
    1.0883    2.1545    0.1681 H   0  0  0  0  0  0  0  0  0  0  0  0
   -2.2633    2.1925    0.8457 H   0  0  0  0  0  0  0  0  0  0  0  0
   -2.4830    1.8512   -0.9791 H   0  0  0  0  0  0  0  0  0  0  0  0
   -2.4278   -0.2094    1.3526 H   0  0  0  0  0  0  0  0  0  0  0  0
   -3.4115   -0.2597   -0.2254 H   0  0  0  0  0  0  0  0  0  0  0  0
   -1.4862   -0.3053   -1.6155 H   0  0  0  0  0  0  0  0  0  0  0  0
   -1.0399   -2.1231    0.6498 H   0  0  0  0  0  0  0  0  0  0  0  0
   -0.1941   -2.0763   -0.9512 H   0  0  0  0  0  0  0  0  0  0  0  0
    0.7028   -0.5556    1.5395 H   0  0  0  0  0  0  0  0  0  0  0  0
    1.5457   -1.9310    0.6503 H   0  0  0  0  0  0  0  0  0  0  0  0
  1  2  1  0
  2  3  1  0
  3  4  2  0
  4  5  1  0
  5  6  1  0
  6  7  1  0
  7  8  1  0
  8  9  1  0
  9  2  1  0
  7  4  1  0
  1 10  1  0
  1 11  1  0
  1 12  1  0
  2 13  1  0
  3 14  1  0
  5 15  1  0
  5 16  1  0
  6 17  1  0
  6 18  1  0
  7 19  1  0
  8 20  1  0
  8 21  1  0
  9 22  1  0
  9 23  1  0
M  END
