
     RDKit          3D

 21 21  0  0  0  0  0  0  0  0999 V2000
    2.9140    0.5473   -0.2864 C   0  0  0  0  0  0  0  0  0  0  0  0
    1.6313   -0.2330   -0.4388 C   0  0  0  0  0  0  0  0  0  0  0  0
    1.3986   -1.1770    0.6695 C   0  0  0  0  0  0  0  0  0  0  0  0
    0.0838   -1.3053    0.7819 C   0  0  0  0  0  0  0  0  0  0  0  0
   -0.4994   -0.4113   -0.2895 C   0  0  0  0  0  0  0  0  0  0  0  0
   -1.7457    0.1862    0.2748 C   0  0  0  0  0  0  0  0  0  0  0  0
   -2.2603    1.3669   -0.4910 C   0  0  0  0  0  0  0  0  0  0  0  0
   -2.6859   -0.8292    0.4018 O   0  0  0  0  0  0  0  0  0  0  0  0
    0.5173    0.5640   -0.4518 O   0  0  0  0  0  0  0  0  0  0  0  0
    3.7182   -0.1952   -0.0892 H   0  0  0  0  0  0  0  0  0  0  0  0
    3.1075    1.0113   -1.2911 H   0  0  0  0  0  0  0  0  0  0  0  0
    2.8893    1.2682    0.5300 H   0  0  0  0  0  0  0  0  0  0  0  0
    1.7143   -0.8020   -1.3942 H   0  0  0  0  0  0  0  0  0  0  0  0
    2.1585   -1.6888    1.2969 H   0  0  0  0  0  0  0  0  0  0  0  0
   -0.4610   -1.9147    1.4842 H   0  0  0  0  0  0  0  0  0  0  0  0
   -0.6741   -0.9428   -1.2270 H   0  0  0  0  0  0  0  0  0  0  0  0
   -1.5277    0.5279    1.3294 H   0  0  0  0  0  0  0  0  0  0  0  0
   -2.0689    2.3215    0.0703 H   0  0  0  0  0  0  0  0  0  0  0  0
   -1.8083    1.4922   -1.4856 H   0  0  0  0  0  0  0  0  0  0  0  0
   -3.3690    1.2728   -0.5474 H   0  0  0  0  0  0  0  0  0  0  0  0
   -3.0325   -1.0589   -0.4990 H   0  0  0  0  0  0  0  0  0  0  0  0
  1  2  1  0
  2  3  1  0
  3  4  2  0
  4  5  1  0
  5  6  1  0
  6  7  1  0
  6  8  1  0
  5  9  1  0
  9  2  1  0
  1 10  1  0
  1 11  1  0
  1 12  1  0
  2 13  1  0
  3 14  1  0
  4 15  1  0
  5 16  1  0
  6 17  1  0
  7 18  1  0
  7 19  1  0
  7 20  1  0
  8 21  1  0
M  END
