
     RDKit          3D

 19 21  0  0  0  0  0  0  0  0999 V2000
    2.1851    0.2846   -0.4960 C   0  0  0  0  0  0  0  0  0  0  0  0
    0.9323   -0.4266   -0.0621 C   0  0  0  0  0  0  0  0  0  0  0  0
    0.4290   -0.0139    1.2763 C   0  0  0  0  0  0  0  0  0  0  0  0
   -1.0804   -0.2162    1.1315 C   0  0  0  0  0  0  0  0  0  0  0  0
   -1.4300   -1.4705    0.6189 O   0  0  0  0  0  0  0  0  0  0  0  0
   -1.4091   -1.0216   -0.6953 C   0  0  0  0  0  0  0  0  0  0  0  0
   -0.2155   -0.1926   -1.0490 C   0  0  0  0  0  0  0  0  0  0  0  0
   -1.2819    0.3558   -0.2252 C   0  0  0  0  0  0  0  0  0  0  0  0
   -2.1639    1.3118   -0.5435 O   0  0  0  0  0  0  0  0  0  0  0  0
    2.4075   -0.0743   -1.5360 H   0  0  0  0  0  0  0  0  0  0  0  0
    2.0567    1.3662   -0.4432 H   0  0  0  0  0  0  0  0  0  0  0  0
    3.0056   -0.0970    0.1465 H   0  0  0  0  0  0  0  0  0  0  0  0
    1.1248   -1.5207   -0.0402 H   0  0  0  0  0  0  0  0  0  0  0  0
    0.5583    1.1009    1.3529 H   0  0  0  0  0  0  0  0  0  0  0  0
    0.8446   -0.5515    2.1204 H   0  0  0  0  0  0  0  0  0  0  0  0
   -1.6850    0.1559    1.9553 H   0  0  0  0  0  0  0  0  0  0  0  0
   -2.1975   -1.2539   -1.3972 H   0  0  0  0  0  0  0  0  0  0  0  0
    0.0039    0.1181   -2.0668 H   0  0  0  0  0  0  0  0  0  0  0  0
   -2.0843    2.1456   -0.0473 H   0  0  0  0  0  0  0  0  0  0  0  0
  1  2  1  0
  2  3  1  0
  3  4  1  0
  4  5  1  0
  5  6  1  0
  6  7  1  0
  7  8  1  0
  8  9  1  0
  7  2  1  0
  8  4  1  0
  8  6  1  0
  1 10  1  0
  1 11  1  0
  1 12  1  0
  2 13  1  0
  3 14  1  0
  3 15  1  0
  4 16  1  0
  6 17  1  0
  7 18  1  0
  9 19  1  0
M  END
