
     RDKit          3D

 21 22  0  0  0  0  0  0  0  0999 V2000
    2.5572   -0.3108    0.3829 C   0  0  0  0  0  0  0  0  0  0  0  0
    1.0601   -0.3870    0.2222 C   0  0  0  0  0  0  0  0  0  0  0  0
    0.5260    0.5271   -0.8815 C   0  0  0  0  0  0  0  0  0  0  0  0
   -0.5109   -0.1371   -1.7327 C   0  0  0  0  0  0  0  0  0  0  0  0
   -1.5152   -0.8952   -0.9642 C   0  0  0  0  0  0  0  0  0  0  0  0
   -1.8711   -0.5915    0.2660 C   0  0  0  0  0  0  0  0  0  0  0  0
   -1.2346    0.5666    0.9127 C   0  0  0  0  0  0  0  0  0  0  0  0
   -1.3534    0.4261    2.2936 O   0  0  0  0  0  0  0  0  0  0  0  0
    0.1937    0.7786    0.5047 C   0  0  0  0  0  0  0  0  0  0  0  0
    2.8910   -0.6393    1.3885 H   0  0  0  0  0  0  0  0  0  0  0  0
    2.9908   -1.0408   -0.3430 H   0  0  0  0  0  0  0  0  0  0  0  0
    2.9653    0.6960    0.1934 H   0  0  0  0  0  0  0  0  0  0  0  0
    0.6324   -1.3776    0.3601 H   0  0  0  0  0  0  0  0  0  0  0  0
    1.2150    1.1864   -1.4064 H   0  0  0  0  0  0  0  0  0  0  0  0
   -0.9703    0.6180   -2.3883 H   0  0  0  0  0  0  0  0  0  0  0  0
    0.0333   -0.8761   -2.3834 H   0  0  0  0  0  0  0  0  0  0  0  0
   -1.9897   -1.7482   -1.4294 H   0  0  0  0  0  0  0  0  0  0  0  0
   -2.6113   -1.1709    0.7980 H   0  0  0  0  0  0  0  0  0  0  0  0
   -1.8063    1.4800    0.5801 H   0  0  0  0  0  0  0  0  0  0  0  0
   -1.8349    1.1880    2.6624 H   0  0  0  0  0  0  0  0  0  0  0  0
    0.6330    1.7080    0.9644 H   0  0  0  0  0  0  0  0  0  0  0  0
  1  2  1  0
  2  3  1  0
  3  4  1  0
  4  5  1  0
  5  6  2  0
  6  7  1  0
  7  8  1  0
  7  9  1  0
  9  2  1  0
  9  3  1  0
  1 10  1  0
  1 11  1  0
  1 12  1  0
  2 13  1  0
  3 14  1  0
  4 15  1  0
  4 16  1  0
  5 17  1  0
  6 18  1  0
  7 19  1  0
  8 20  1  0
  9 21  1  0
M  END
