
     RDKit          3D

 20 20  0  0  0  0  0  0  0  0999 V2000
   -2.1376    1.1628    0.4616 C   0  0  0  0  0  0  0  0  0  0  0  0
   -0.8683    0.5115   -0.0961 C   0  0  0  0  0  0  0  0  0  0  0  0
   -1.1610   -0.9071   -0.5703 C   0  0  0  0  0  0  0  0  0  0  0  0
   -0.4460   -1.8066    0.2403 O   0  0  0  0  0  0  0  0  0  0  0  0
    0.9121   -1.5162    0.0165 C   0  0  0  0  0  0  0  0  0  0  0  0
    1.2066   -0.1924    0.6465 C   0  0  0  0  0  0  0  0  0  0  0  0
    2.0751    0.6984   -0.2047 C   0  0  0  0  0  0  0  0  0  0  0  0
    0.0476    0.4892    0.9413 O   0  0  0  0  0  0  0  0  0  0  0  0
   -1.8359    2.1277    0.8910 H   0  0  0  0  0  0  0  0  0  0  0  0
   -2.9149    1.2792   -0.2937 H   0  0  0  0  0  0  0  0  0  0  0  0
   -2.5258    0.4416    1.2187 H   0  0  0  0  0  0  0  0  0  0  0  0
   -0.5181    1.1122   -0.9525 H   0  0  0  0  0  0  0  0  0  0  0  0
   -2.2417   -1.1189   -0.5346 H   0  0  0  0  0  0  0  0  0  0  0  0
   -0.8102   -1.0555   -1.6225 H   0  0  0  0  0  0  0  0  0  0  0  0
    1.5321   -2.2790    0.5081 H   0  0  0  0  0  0  0  0  0  0  0  0
    1.1073   -1.5182   -1.0864 H   0  0  0  0  0  0  0  0  0  0  0  0
    1.7554   -0.3282    1.6178 H   0  0  0  0  0  0  0  0  0  0  0  0
    2.1977    1.6547    0.3589 H   0  0  0  0  0  0  0  0  0  0  0  0
    3.0742    0.2928   -0.4003 H   0  0  0  0  0  0  0  0  0  0  0  0
    1.5514    0.9519   -1.1399 H   0  0  0  0  0  0  0  0  0  0  0  0
  1  2  1  0
  2  3  1  0
  3  4  1  0
  4  5  1  0
  5  6  1  0
  6  7  1  0
  6  8  1  0
  8  2  1  0
  1  9  1  0
  1 10  1  0
  1 11  1  0
  2 12  1  0
  3 13  1  0
  3 14  1  0
  5 15  1  0
  5 16  1  0
  6 17  1  0
  7 18  1  0
  7 19  1  0
  7 20  1  0
M  END
