
     RDKit          3D

 19 19  0  0  0  0  0  0  0  0999 V2000
    1.8336    0.5904   -0.6562 C   0  0  0  0  0  0  0  0  0  0  0  0
    1.1502   -0.3845    0.2597 C   0  0  0  0  0  0  0  0  0  0  0  0
    0.4220   -1.4606   -0.5096 C   0  0  0  0  0  0  0  0  0  0  0  0
   -0.7846   -1.0368   -0.8325 C   0  0  0  0  0  0  0  0  0  0  0  0
   -0.9677    0.3272   -0.3220 C   0  0  0  0  0  0  0  0  0  0  0  0
   -2.3680    0.6535    0.0198 C   0  0  0  0  0  0  0  0  0  0  0  0
   -3.1046   -0.1281    0.5539 O   0  0  0  0  0  0  0  0  0  0  0  0
   -0.0501    0.3686    0.8630 C   0  0  0  0  0  0  0  0  0  0  0  0
   -0.4817   -0.3745    1.9355 O   0  0  0  0  0  0  0  0  0  0  0  0
    1.5750    1.6491   -0.4239 H   0  0  0  0  0  0  0  0  0  0  0  0
    2.9229    0.4991   -0.4848 H   0  0  0  0  0  0  0  0  0  0  0  0
    1.5852    0.4252   -1.7257 H   0  0  0  0  0  0  0  0  0  0  0  0
    1.7866   -0.8259    1.0231 H   0  0  0  0  0  0  0  0  0  0  0  0
    0.8346   -2.4292   -0.7545 H   0  0  0  0  0  0  0  0  0  0  0  0
   -1.5317   -1.5934   -1.3849 H   0  0  0  0  0  0  0  0  0  0  0  0
   -0.5516    1.0244   -1.0800 H   0  0  0  0  0  0  0  0  0  0  0  0
   -2.7343    1.6387   -0.2252 H   0  0  0  0  0  0  0  0  0  0  0  0
    0.2486    1.4028    1.1187 H   0  0  0  0  0  0  0  0  0  0  0  0
    0.2156   -0.3464    2.6259 H   0  0  0  0  0  0  0  0  0  0  0  0
  1  2  1  0
  2  3  1  0
  3  4  2  0
  4  5  1  0
  5  6  1  0
  6  7  2  0
  5  8  1  0
  8  9  1  0
  8  2  1  0
  1 10  1  0
  1 11  1  0
  1 12  1  0
  2 13  1  0
  3 14  1  0
  4 15  1  0
  5 16  1  0
  6 17  1  0
  8 18  1  0
  9 19  1  0
M  END
