
     RDKit          3D

 20 20  0  0  0  0  0  0  0  0999 V2000
   -2.2299   -1.2236   -0.2960 C   0  0  0  0  0  0  0  0  0  0  0  0
   -1.0456   -0.5646    0.3733 C   0  0  0  0  0  0  0  0  0  0  0  0
   -0.9292    0.8994    0.4472 C   0  0  0  0  0  0  0  0  0  0  0  0
   -1.8959    1.7466   -0.0962 O   0  0  0  0  0  0  0  0  0  0  0  0
   -0.0877    0.1885   -0.5411 C   0  0  0  0  0  0  0  0  0  0  0  0
    1.3712   -0.0497   -0.3270 C   0  0  0  0  0  0  0  0  0  0  0  0
    1.8505    0.3183    1.0446 C   0  0  0  0  0  0  0  0  0  0  0  0
    3.2327    0.0360    1.0818 O   0  0  0  0  0  0  0  0  0  0  0  0
   -2.0741   -2.3205   -0.2269 H   0  0  0  0  0  0  0  0  0  0  0  0
   -2.2766   -0.9915   -1.3934 H   0  0  0  0  0  0  0  0  0  0  0  0
   -3.1990   -0.9283    0.1517 H   0  0  0  0  0  0  0  0  0  0  0  0
   -0.6128   -1.1239    1.2366 H   0  0  0  0  0  0  0  0  0  0  0  0
   -0.4185    1.3700    1.3313 H   0  0  0  0  0  0  0  0  0  0  0  0
   -1.3801    2.4457   -0.5994 H   0  0  0  0  0  0  0  0  0  0  0  0
   -0.3877    0.2319   -1.6184 H   0  0  0  0  0  0  0  0  0  0  0  0
    1.9499    0.5615   -1.0561 H   0  0  0  0  0  0  0  0  0  0  0  0
    1.5640   -1.1407   -0.5166 H   0  0  0  0  0  0  0  0  0  0  0  0
    1.7837    1.4273    1.1549 H   0  0  0  0  0  0  0  0  0  0  0  0
    1.3126   -0.2266    1.8333 H   0  0  0  0  0  0  0  0  0  0  0  0
    3.4724   -0.6559    0.4111 H   0  0  0  0  0  0  0  0  0  0  0  0
  1  2  1  0
  2  3  1  0
  3  4  1  0
  3  5  1  0
  5  6  1  0
  6  7  1  0
  7  8  1  0
  5  2  1  0
  1  9  1  0
  1 10  1  0
  1 11  1  0
  2 12  1  0
  3 13  1  0
  4 14  1  0
  5 15  1  0
  6 16  1  0
  6 17  1  0
  7 18  1  0
  7 19  1  0
  8 20  1  0
M  END
