
     RDKit          3D

 22 22  0  0  0  0  0  0  0  0999 V2000
   -2.2948    0.0980   -0.3541 C   0  0  0  0  0  0  0  0  0  0  0  0
   -1.0842   -0.4095    0.3642 C   0  0  0  0  0  0  0  0  0  0  0  0
   -0.2746   -1.4564   -0.3686 C   0  0  0  0  0  0  0  0  0  0  0  0
    0.9529   -0.7535    0.2348 C   0  0  0  0  0  0  0  0  0  0  0  0
    2.1695   -0.7754   -0.6217 C   0  0  0  0  0  0  0  0  0  0  0  0
    0.1134    0.5276    0.1393 C   0  0  0  0  0  0  0  0  0  0  0  0
    0.3143    1.5050    1.2334 C   0  0  0  0  0  0  0  0  0  0  0  0
    0.1551    1.0091   -1.1611 O   0  0  0  0  0  0  0  0  0  0  0  0
   -2.7409    0.8899    0.2834 H   0  0  0  0  0  0  0  0  0  0  0  0
   -3.0776   -0.6736   -0.4809 H   0  0  0  0  0  0  0  0  0  0  0  0
   -2.0150    0.5863   -1.3052 H   0  0  0  0  0  0  0  0  0  0  0  0
   -1.2210   -0.6728    1.4109 H   0  0  0  0  0  0  0  0  0  0  0  0
   -0.2224   -1.3179   -1.4697 H   0  0  0  0  0  0  0  0  0  0  0  0
   -0.4080   -2.4925   -0.0359 H   0  0  0  0  0  0  0  0  0  0  0  0
    1.0618   -1.1164    1.2792 H   0  0  0  0  0  0  0  0  0  0  0  0
    2.2012   -1.5837   -1.3608 H   0  0  0  0  0  0  0  0  0  0  0  0
    2.3286    0.2356   -1.0422 H   0  0  0  0  0  0  0  0  0  0  0  0
    3.0514   -0.9550    0.0613 H   0  0  0  0  0  0  0  0  0  0  0  0
    1.0412    2.2800    0.8751 H   0  0  0  0  0  0  0  0  0  0  0  0
   -0.6443    2.0841    1.3855 H   0  0  0  0  0  0  0  0  0  0  0  0
    0.6461    1.0183    2.1555 H   0  0  0  0  0  0  0  0  0  0  0  0
   -0.0529    1.9727   -1.2224 H   0  0  0  0  0  0  0  0  0  0  0  0
  1  2  1  0
  2  3  1  0
  3  4  1  0
  4  5  1  0
  4  6  1  0
  6  7  1  0
  6  8  1  0
  6  2  1  0
  1  9  1  0
  1 10  1  0
  1 11  1  0
  2 12  1  0
  3 13  1  0
  3 14  1  0
  4 15  1  0
  5 16  1  0
  5 17  1  0
  5 18  1  0
  7 19  1  0
  7 20  1  0
  7 21  1  0
  8 22  1  0
M  END
