
     RDKit          3D

 23 24  0  0  0  0  0  0  0  0999 V2000
    2.6161    0.0987   -0.5779 C   0  0  0  0  0  0  0  0  0  0  0  0
    1.2641   -0.5283   -0.6823 C   0  0  0  0  0  0  0  0  0  0  0  0
    0.7103   -1.0179    0.6533 C   0  0  0  0  0  0  0  0  0  0  0  0
    0.0497    0.0493   -0.1259 C   0  0  0  0  0  0  0  0  0  0  0  0
   -0.0452    1.4296    0.4367 C   0  0  0  0  0  0  0  0  0  0  0  0
   -1.4399    1.8760    0.0735 C   0  0  0  0  0  0  0  0  0  0  0  0
   -2.1812    0.6999   -0.1313 O   0  0  0  0  0  0  0  0  0  0  0  0
   -1.3024   -0.2127   -0.7073 C   0  0  0  0  0  0  0  0  0  0  0  0
   -1.7562   -1.5949   -0.2367 C   0  0  0  0  0  0  0  0  0  0  0  0
    3.3695   -0.7343   -0.6910 H   0  0  0  0  0  0  0  0  0  0  0  0
    2.8292    0.5301    0.4275 H   0  0  0  0  0  0  0  0  0  0  0  0
    2.7776    0.9037   -1.3105 H   0  0  0  0  0  0  0  0  0  0  0  0
    1.1680   -1.2384   -1.5459 H   0  0  0  0  0  0  0  0  0  0  0  0
    1.2166   -0.7022    1.5768 H   0  0  0  0  0  0  0  0  0  0  0  0
    0.3596   -2.0638    0.6572 H   0  0  0  0  0  0  0  0  0  0  0  0
   -0.0087    1.3401    1.5513 H   0  0  0  0  0  0  0  0  0  0  0  0
    0.7170    2.1308    0.0627 H   0  0  0  0  0  0  0  0  0  0  0  0
   -1.4836    2.4551   -0.8601 H   0  0  0  0  0  0  0  0  0  0  0  0
   -1.9519    2.3997    0.9182 H   0  0  0  0  0  0  0  0  0  0  0  0
   -1.2572   -0.1332   -1.7958 H   0  0  0  0  0  0  0  0  0  0  0  0
   -1.1723   -2.4021   -0.7252 H   0  0  0  0  0  0  0  0  0  0  0  0
   -2.8544   -1.7002   -0.4111 H   0  0  0  0  0  0  0  0  0  0  0  0
   -1.6249   -1.5850    0.8736 H   0  0  0  0  0  0  0  0  0  0  0  0
  1  2  1  0
  2  3  1  0
  3  4  1  0
  4  5  1  0
  5  6  1  0
  6  7  1  0
  7  8  1  0
  8  9  1  0
  4  2  1  0
  8  4  1  0
  1 10  1  0
  1 11  1  0
  1 12  1  0
  2 13  1  0
  3 14  1  0
  3 15  1  0
  5 16  1  0
  5 17  1  0
  6 18  1  0
  6 19  1  0
  8 20  1  0
  9 21  1  0
  9 22  1  0
  9 23  1  0
M  END
