
     RDKit          3D

 18 19  0  0  0  0  0  0  0  0999 V2000
    2.2529    0.2165    0.7577 C   0  0  0  0  0  0  0  0  0  0  0  0
    1.0929    0.3672   -0.1821 C   0  0  0  0  0  0  0  0  0  0  0  0
    0.5681   -0.9602   -0.6502 C   0  0  0  0  0  0  0  0  0  0  0  0
   -0.6696   -1.3737   -0.3857 C   0  0  0  0  0  0  0  0  0  0  0  0
   -1.4517   -0.4330    0.3865 C   0  0  0  0  0  0  0  0  0  0  0  0
   -2.3584    0.5914    0.0728 C   0  0  0  0  0  0  0  0  0  0  0  0
   -1.0441    0.9090   -0.3301 C   0  0  0  0  0  0  0  0  0  0  0  0
    0.0989    1.2092    0.3145 O   0  0  0  0  0  0  0  0  0  0  0  0
    2.7483    1.2009    0.8364 H   0  0  0  0  0  0  0  0  0  0  0  0
    2.9636   -0.4881    0.2768 H   0  0  0  0  0  0  0  0  0  0  0  0
    1.9905   -0.1903    1.7358 H   0  0  0  0  0  0  0  0  0  0  0  0
    1.4828    0.8612   -1.1026 H   0  0  0  0  0  0  0  0  0  0  0  0
    1.2734   -1.5558   -1.2196 H   0  0  0  0  0  0  0  0  0  0  0  0
   -0.9745   -2.3212   -0.7463 H   0  0  0  0  0  0  0  0  0  0  0  0
   -1.1562   -0.5203    1.4775 H   0  0  0  0  0  0  0  0  0  0  0  0
   -2.8137    1.1902    0.9156 H   0  0  0  0  0  0  0  0  0  0  0  0
   -3.1527    0.4551   -0.7120 H   0  0  0  0  0  0  0  0  0  0  0  0
   -0.8506    0.8421   -1.4450 H   0  0  0  0  0  0  0  0  0  0  0  0
  1  2  1  0
  2  3  1  0
  3  4  2  0
  4  5  1  0
  5  6  1  0
  6  7  1  0
  7  8  1  0
  8  2  1  0
  7  5  1  0
  1  9  1  0
  1 10  1  0
  1 11  1  0
  2 12  1  0
  3 13  1  0
  4 14  1  0
  5 15  1  0
  6 16  1  0
  6 17  1  0
  7 18  1  0
M  END
