
     RDKit          3D

 22 22  0  0  0  0  0  0  0  0999 V2000
    2.4333   -0.1741    0.5224 C   0  0  0  0  0  0  0  0  0  0  0  0
    1.4373    0.4011   -0.4322 C   0  0  0  0  0  0  0  0  0  0  0  0
    0.5496   -0.6194   -1.0774 C   0  0  0  0  0  0  0  0  0  0  0  0
   -0.8420   -0.3346   -0.5254 C   0  0  0  0  0  0  0  0  0  0  0  0
   -1.3571   -1.6263    0.0780 C   0  0  0  0  0  0  0  0  0  0  0  0
   -0.5791    0.7283    0.4762 C   0  0  0  0  0  0  0  0  0  0  0  0
   -1.6271    1.8398    0.4456 C   0  0  0  0  0  0  0  0  0  0  0  0
    0.6374    1.3192    0.1889 O   0  0  0  0  0  0  0  0  0  0  0  0
    2.6311   -1.2533    0.3750 H   0  0  0  0  0  0  0  0  0  0  0  0
    2.0984   -0.0708    1.5861 H   0  0  0  0  0  0  0  0  0  0  0  0
    3.3894    0.4081    0.4318 H   0  0  0  0  0  0  0  0  0  0  0  0
    1.9836    0.9265   -1.2588 H   0  0  0  0  0  0  0  0  0  0  0  0
    0.8777   -1.6409   -0.8519 H   0  0  0  0  0  0  0  0  0  0  0  0
    0.4794   -0.5250   -2.1732 H   0  0  0  0  0  0  0  0  0  0  0  0
   -1.5476   -0.0196   -1.3237 H   0  0  0  0  0  0  0  0  0  0  0  0
   -2.3611   -1.9023   -0.3432 H   0  0  0  0  0  0  0  0  0  0  0  0
   -0.6970   -2.4965   -0.1923 H   0  0  0  0  0  0  0  0  0  0  0  0
   -1.3893   -1.6032    1.1789 H   0  0  0  0  0  0  0  0  0  0  0  0
   -0.4961    0.2733    1.4836 H   0  0  0  0  0  0  0  0  0  0  0  0
   -1.1364    2.8460    0.5347 H   0  0  0  0  0  0  0  0  0  0  0  0
   -2.2286    1.8165   -0.4761 H   0  0  0  0  0  0  0  0  0  0  0  0
   -2.2559    1.7073    1.3531 H   0  0  0  0  0  0  0  0  0  0  0  0
  1  2  1  0
  2  3  1  0
  3  4  1  0
  4  5  1  0
  4  6  1  0
  6  7  1  0
  6  8  1  0
  8  2  1  0
  1  9  1  0
  1 10  1  0
  1 11  1  0
  2 12  1  0
  3 13  1  0
  3 14  1  0
  4 15  1  0
  5 16  1  0
  5 17  1  0
  5 18  1  0
  6 19  1  0
  7 20  1  0
  7 21  1  0
  7 22  1  0
M  END
