
     RDKit          3D

 23 24  0  0  0  0  0  0  0  0999 V2000
   -1.6679   -1.1079   -0.2308 C   0  0  0  0  0  0  0  0  0  0  0  0
   -0.6944   -0.2190   -0.9199 C   0  0  0  0  0  0  0  0  0  0  0  0
    0.6196   -1.0008   -1.0538 C   0  0  0  0  0  0  0  0  0  0  0  0
    1.3966   -0.7032    0.1940 C   0  0  0  0  0  0  0  0  0  0  0  0
    1.6981   -1.7108    1.0941 O   0  0  0  0  0  0  0  0  0  0  0  0
    2.2252    0.5262    0.1850 C   0  0  0  0  0  0  0  0  0  0  0  0
    0.8619    0.5600    0.7467 C   0  0  0  0  0  0  0  0  0  0  0  0
   -0.2685    0.9781   -0.1566 C   0  0  0  0  0  0  0  0  0  0  0  0
   -1.3573    1.6905    0.5733 C   0  0  0  0  0  0  0  0  0  0  0  0
   -1.2145   -1.9478    0.3266 H   0  0  0  0  0  0  0  0  0  0  0  0
   -2.3646   -0.6043    0.4500 H   0  0  0  0  0  0  0  0  0  0  0  0
   -2.3123   -1.5760   -1.0306 H   0  0  0  0  0  0  0  0  0  0  0  0
   -1.0033    0.0128   -1.9728 H   0  0  0  0  0  0  0  0  0  0  0  0
    1.2030   -0.5941   -1.9157 H   0  0  0  0  0  0  0  0  0  0  0  0
    0.4183   -2.0721   -1.1692 H   0  0  0  0  0  0  0  0  0  0  0  0
    0.8824   -2.0771    1.4905 H   0  0  0  0  0  0  0  0  0  0  0  0
    2.3900    1.1057   -0.7572 H   0  0  0  0  0  0  0  0  0  0  0  0
    3.1131    0.5037    0.8417 H   0  0  0  0  0  0  0  0  0  0  0  0
    0.7833    0.7553    1.8287 H   0  0  0  0  0  0  0  0  0  0  0  0
    0.1652    1.7136   -0.8952 H   0  0  0  0  0  0  0  0  0  0  0  0
   -2.3759    1.4261    0.2558 H   0  0  0  0  0  0  0  0  0  0  0  0
   -1.2130    1.5317    1.6721 H   0  0  0  0  0  0  0  0  0  0  0  0
   -1.2849    2.8095    0.4433 H   0  0  0  0  0  0  0  0  0  0  0  0
  1  2  1  0
  2  3  1  0
  3  4  1  0
  4  5  1  0
  4  6  1  0
  6  7  1  0
  7  8  1  0
  8  9  1  0
  8  2  1  0
  7  4  1  0
  1 10  1  0
  1 11  1  0
  1 12  1  0
  2 13  1  0
  3 14  1  0
  3 15  1  0
  5 16  1  0
  6 17  1  0
  6 18  1  0
  7 19  1  0
  8 20  1  0
  9 21  1  0
  9 22  1  0
  9 23  1  0
M  END
