
     RDKit          3D

 17 18  0  0  0  0  0  0  0  0999 V2000
   -1.0392    1.3493   -0.2675 C   0  0  0  0  0  0  0  0  0  0  0  0
   -0.0086    0.3725   -0.8002 C   0  0  0  0  0  0  0  0  0  0  0  0
    1.3135    0.9001   -0.4334 C   0  0  0  0  0  0  0  0  0  0  0  0
    1.8780    0.1710    0.4873 C   0  0  0  0  0  0  0  0  0  0  0  0
    0.9794   -0.9486    0.8453 C   0  0  0  0  0  0  0  0  0  0  0  0
    0.8945   -1.8844   -0.2513 O   0  0  0  0  0  0  0  0  0  0  0  0
   -0.1312   -0.9284   -0.0549 C   0  0  0  0  0  0  0  0  0  0  0  0
   -1.4704   -1.4900    0.2517 C   0  0  0  0  0  0  0  0  0  0  0  0
   -2.3995   -0.7406    0.4355 O   0  0  0  0  0  0  0  0  0  0  0  0
   -1.9863    1.1764   -0.7981 H   0  0  0  0  0  0  0  0  0  0  0  0
   -1.2264    1.2178    0.8128 H   0  0  0  0  0  0  0  0  0  0  0  0
   -0.6731    2.3752   -0.5035 H   0  0  0  0  0  0  0  0  0  0  0  0
   -0.1223    0.2325   -1.9014 H   0  0  0  0  0  0  0  0  0  0  0  0
    1.7205    1.7961   -0.9077 H   0  0  0  0  0  0  0  0  0  0  0  0
    2.8496    0.3497    0.9253 H   0  0  0  0  0  0  0  0  0  0  0  0
    1.0137   -1.3865    1.8545 H   0  0  0  0  0  0  0  0  0  0  0  0
   -1.5922   -2.5619    0.3056 H   0  0  0  0  0  0  0  0  0  0  0  0
  1  2  1  0
  2  3  1  0
  3  4  2  0
  4  5  1  0
  5  6  1  0
  6  7  1  0
  7  8  1  0
  8  9  2  0
  7  2  1  0
  7  5  1  0
  1 10  1  0
  1 11  1  0
  1 12  1  0
  2 13  1  0
  3 14  1  0
  4 15  1  0
  5 16  1  0
  8 17  1  0
M  END
