
     RDKit          3D

 23 23  0  0  0  0  0  0  0  0999 V2000
   -2.8626    0.8636    0.1124 C   0  0  0  0  0  0  0  0  0  0  0  0
   -1.7876   -0.1663    0.0880 C   0  0  0  0  0  0  0  0  0  0  0  0
   -1.2511   -0.4482   -1.2640 C   0  0  0  0  0  0  0  0  0  0  0  0
    0.0321   -0.7811   -1.2009 C   0  0  0  0  0  0  0  0  0  0  0  0
    0.4311   -0.7380    0.2359 C   0  0  0  0  0  0  0  0  0  0  0  0
    1.8734   -0.4338    0.4398 C   0  0  0  0  0  0  0  0  0  0  0  0
    2.3069    0.8811   -0.1150 C   0  0  0  0  0  0  0  0  0  0  0  0
    2.6111   -1.4734   -0.1290 O   0  0  0  0  0  0  0  0  0  0  0  0
   -0.5007    0.3285    0.7723 C   0  0  0  0  0  0  0  0  0  0  0  0
   -2.5051    1.8854    0.3369 H   0  0  0  0  0  0  0  0  0  0  0  0
   -3.6225    0.5769    0.8963 H   0  0  0  0  0  0  0  0  0  0  0  0
   -3.4097    0.8042   -0.8631 H   0  0  0  0  0  0  0  0  0  0  0  0
   -2.0889   -1.0811    0.6375 H   0  0  0  0  0  0  0  0  0  0  0  0
   -1.8153   -0.3939   -2.1812 H   0  0  0  0  0  0  0  0  0  0  0  0
    0.6618   -1.0344   -2.0403 H   0  0  0  0  0  0  0  0  0  0  0  0
    0.1147   -1.6903    0.6811 H   0  0  0  0  0  0  0  0  0  0  0  0
    2.0700   -0.4260    1.5287 H   0  0  0  0  0  0  0  0  0  0  0  0
    3.4173    0.9569    0.0436 H   0  0  0  0  0  0  0  0  0  0  0  0
    1.7964    1.6783    0.4696 H   0  0  0  0  0  0  0  0  0  0  0  0
    2.1010    0.9757   -1.2089 H   0  0  0  0  0  0  0  0  0  0  0  0
    3.2426   -1.8839    0.5101 H   0  0  0  0  0  0  0  0  0  0  0  0
   -0.6057    0.2916    1.8717 H   0  0  0  0  0  0  0  0  0  0  0  0
   -0.2092    1.3080    0.3785 H   0  0  0  0  0  0  0  0  0  0  0  0
  1  2  1  0
  2  3  1  0
  3  4  2  0
  4  5  1  0
  5  6  1  0
  6  7  1  0
  6  8  1  0
  5  9  1  0
  9  2  1  0
  1 10  1  0
  1 11  1  0
  1 12  1  0
  2 13  1  0
  3 14  1  0
  4 15  1  0
  5 16  1  0
  6 17  1  0
  7 18  1  0
  7 19  1  0
  7 20  1  0
  8 21  1  0
  9 22  1  0
  9 23  1  0
M  END
