
     RDKit          3D

 23 24  0  0  0  0  0  0  0  0999 V2000
    2.1837   -0.5447    0.6861 C   0  0  0  0  0  0  0  0  0  0  0  0
    1.2009   -0.3903   -0.4365 C   0  0  0  0  0  0  0  0  0  0  0  0
    0.8600    1.0301   -0.8207 C   0  0  0  0  0  0  0  0  0  0  0  0
   -0.5159    0.8351   -0.2606 C   0  0  0  0  0  0  0  0  0  0  0  0
   -1.7284    1.2895   -1.0045 C   0  0  0  0  0  0  0  0  0  0  0  0
   -0.6982    0.3357    1.1293 C   0  0  0  0  0  0  0  0  0  0  0  0
    0.1676    0.9056    2.0679 O   0  0  0  0  0  0  0  0  0  0  0  0
   -0.2143   -0.5467    0.0611 C   0  0  0  0  0  0  0  0  0  0  0  0
   -0.9704   -1.7265   -0.4422 C   0  0  0  0  0  0  0  0  0  0  0  0
    2.7069    0.4160    0.8917 H   0  0  0  0  0  0  0  0  0  0  0  0
    2.9211   -1.3518    0.4835 H   0  0  0  0  0  0  0  0  0  0  0  0
    1.6733   -0.8501    1.6378 H   0  0  0  0  0  0  0  0  0  0  0  0
    1.4310   -1.0783   -1.2524 H   0  0  0  0  0  0  0  0  0  0  0  0
    0.8887    1.1653   -1.9061 H   0  0  0  0  0  0  0  0  0  0  0  0
    1.4682    1.7284   -0.2103 H   0  0  0  0  0  0  0  0  0  0  0  0
   -2.6010    0.7079   -0.5959 H   0  0  0  0  0  0  0  0  0  0  0  0
   -1.9745    2.3595   -0.7467 H   0  0  0  0  0  0  0  0  0  0  0  0
   -1.6814    1.1762   -2.0887 H   0  0  0  0  0  0  0  0  0  0  0  0
   -1.7473    0.1897    1.4490 H   0  0  0  0  0  0  0  0  0  0  0  0
   -0.0156    0.5856    2.9751 H   0  0  0  0  0  0  0  0  0  0  0  0
   -1.9198   -1.8505    0.0965 H   0  0  0  0  0  0  0  0  0  0  0  0
   -0.3541   -2.6351   -0.1737 H   0  0  0  0  0  0  0  0  0  0  0  0
   -1.0805   -1.7506   -1.5397 H   0  0  0  0  0  0  0  0  0  0  0  0
  1  2  1  0
  2  3  1  0
  3  4  1  0
  4  5  1  0
  4  6  1  0
  6  7  1  0
  6  8  1  0
  8  9  1  0
  8  2  1  0
  8  4  1  0
  1 10  1  0
  1 11  1  0
  1 12  1  0
  2 13  1  0
  3 14  1  0
  3 15  1  0
  5 16  1  0
  5 17  1  0
  5 18  1  0
  6 19  1  0
  7 20  1  0
  9 21  1  0
  9 22  1  0
  9 23  1  0
M  END
