
     RDKit          3D

 20 20  0  0  0  0  0  0  0  0999 V2000
   -2.4623    0.0253    0.0069 C   0  0  0  0  0  0  0  0  0  0  0  0
   -1.0794   -0.0374   -0.6096 C   0  0  0  0  0  0  0  0  0  0  0  0
   -0.1723    1.1176   -0.2391 C   0  0  0  0  0  0  0  0  0  0  0  0
    0.8813    0.1319    0.1256 C   0  0  0  0  0  0  0  0  0  0  0  0
    1.8578   -0.2563   -0.9390 C   0  0  0  0  0  0  0  0  0  0  0  0
    1.5734    0.3371    1.4170 C   0  0  0  0  0  0  0  0  0  0  0  0
    1.8431   -0.6487    2.0747 O   0  0  0  0  0  0  0  0  0  0  0  0
   -0.2004   -0.9185    0.2852 C   0  0  0  0  0  0  0  0  0  0  0  0
   -3.2424    0.2757   -0.7288 H   0  0  0  0  0  0  0  0  0  0  0  0
   -2.6914   -1.0327    0.3318 H   0  0  0  0  0  0  0  0  0  0  0  0
   -2.4746    0.6248    0.9200 H   0  0  0  0  0  0  0  0  0  0  0  0
   -1.0533   -0.3646   -1.6472 H   0  0  0  0  0  0  0  0  0  0  0  0
    0.0517    1.8261   -1.0543 H   0  0  0  0  0  0  0  0  0  0  0  0
   -0.5590    1.6544    0.6518 H   0  0  0  0  0  0  0  0  0  0  0  0
    2.4422   -1.1372   -0.5415 H   0  0  0  0  0  0  0  0  0  0  0  0
    1.4137   -0.5867   -1.8790 H   0  0  0  0  0  0  0  0  0  0  0  0
    2.6236    0.5416   -1.0943 H   0  0  0  0  0  0  0  0  0  0  0  0
    1.8360    1.3220    1.7755 H   0  0  0  0  0  0  0  0  0  0  0  0
   -0.5707   -0.9939    1.3328 H   0  0  0  0  0  0  0  0  0  0  0  0
   -0.0169   -1.8806   -0.1886 H   0  0  0  0  0  0  0  0  0  0  0  0
  1  2  1  0
  2  3  1  0
  3  4  1  0
  4  5  1  0
  4  6  1  0
  6  7  2  0
  4  8  1  0
  8  2  1  0
  1  9  1  0
  1 10  1  0
  1 11  1  0
  2 12  1  0
  3 13  1  0
  3 14  1  0
  5 15  1  0
  5 16  1  0
  5 17  1  0
  6 18  1  0
  8 19  1  0
  8 20  1  0
M  END
