
     RDKit          3D

 19 20  0  0  0  0  0  0  0  0999 V2000
    2.0974    0.6143   -0.1397 C   0  0  0  0  0  0  0  0  0  0  0  0
    0.8094    0.3564    0.6610 C   0  0  0  0  0  0  0  0  0  0  0  0
    0.0548   -0.7631    0.2876 C   0  0  0  0  0  0  0  0  0  0  0  0
   -0.5057   -1.4776    1.3856 O   0  0  0  0  0  0  0  0  0  0  0  0
   -0.6754   -1.1643   -0.9343 C   0  0  0  0  0  0  0  0  0  0  0  0
   -1.9643   -0.6483   -0.6990 O   0  0  0  0  0  0  0  0  0  0  0  0
   -1.8437    0.2981    0.3489 C   0  0  0  0  0  0  0  0  0  0  0  0
   -0.4362    0.7398    0.1449 C   0  0  0  0  0  0  0  0  0  0  0  0
   -0.3671    1.2666   -1.1786 O   0  0  0  0  0  0  0  0  0  0  0  0
    2.1856    1.6999   -0.2124 H   0  0  0  0  0  0  0  0  0  0  0  0
    1.9862    0.2003   -1.1623 H   0  0  0  0  0  0  0  0  0  0  0  0
    2.9570    0.1419    0.3254 H   0  0  0  0  0  0  0  0  0  0  0  0
    1.0161    0.5786    1.7449 H   0  0  0  0  0  0  0  0  0  0  0  0
    0.2083   -1.9610    1.8384 H   0  0  0  0  0  0  0  0  0  0  0  0
   -0.7357   -2.2498   -1.0442 H   0  0  0  0  0  0  0  0  0  0  0  0
   -0.1981   -0.7447   -1.8136 H   0  0  0  0  0  0  0  0  0  0  0  0
   -1.9928   -0.1910    1.3315 H   0  0  0  0  0  0  0  0  0  0  0  0
   -2.5485    1.1062    0.1535 H   0  0  0  0  0  0  0  0  0  0  0  0
   -0.0473    2.1978   -1.0378 H   0  0  0  0  0  0  0  0  0  0  0  0
  1  2  1  0
  2  3  1  0
  3  4  1  0
  3  5  1  0
  5  6  1  0
  6  7  1  0
  7  8  1  0
  8  9  1  0
  8  2  1  0
  8  3  1  0
  1 10  1  0
  1 11  1  0
  1 12  1  0
  2 13  1  0
  4 14  1  0
  5 15  1  0
  5 16  1  0
  7 17  1  0
  7 18  1  0
  9 19  1  0
M  END
