
     RDKit          3D

 21 22  0  0  0  0  0  0  0  0999 V2000
    2.6699   -0.0259    0.3366 C   0  0  0  0  0  0  0  0  0  0  0  0
    1.1425   -0.1132    0.4584 C   0  0  0  0  0  0  0  0  0  0  0  0
    0.5222   -0.8664   -0.6584 C   0  0  0  0  0  0  0  0  0  0  0  0
   -0.7315   -0.3043   -1.2037 C   0  0  0  0  0  0  0  0  0  0  0  0
   -1.8390   -1.1692   -1.1000 O   0  0  0  0  0  0  0  0  0  0  0  0
   -2.2194   -0.5529    0.0926 C   0  0  0  0  0  0  0  0  0  0  0  0
   -1.4471    0.6686   -0.3522 C   0  0  0  0  0  0  0  0  0  0  0  0
   -0.6600    1.2493    0.7696 C   0  0  0  0  0  0  0  0  0  0  0  0
    0.6886    1.1997    0.5051 O   0  0  0  0  0  0  0  0  0  0  0  0
    2.9980    0.4917    1.2750 H   0  0  0  0  0  0  0  0  0  0  0  0
    2.8461    0.6630   -0.5269 H   0  0  0  0  0  0  0  0  0  0  0  0
    3.1271   -1.0072    0.2211 H   0  0  0  0  0  0  0  0  0  0  0  0
    0.9683   -0.6557    1.4271 H   0  0  0  0  0  0  0  0  0  0  0  0
    1.2712   -0.9589   -1.4850 H   0  0  0  0  0  0  0  0  0  0  0  0
    0.3302   -1.9201   -0.3313 H   0  0  0  0  0  0  0  0  0  0  0  0
   -0.6538    0.0526   -2.2622 H   0  0  0  0  0  0  0  0  0  0  0  0
   -1.8076   -1.0228    1.0014 H   0  0  0  0  0  0  0  0  0  0  0  0
   -3.3011   -0.2943    0.1522 H   0  0  0  0  0  0  0  0  0  0  0  0
   -2.0688    1.4078   -0.9297 H   0  0  0  0  0  0  0  0  0  0  0  0
   -0.9046    0.8176    1.7600 H   0  0  0  0  0  0  0  0  0  0  0  0
   -0.9311    2.3407    0.8502 H   0  0  0  0  0  0  0  0  0  0  0  0
  1  2  1  0
  2  3  1  0
  3  4  1  0
  4  5  1  0
  5  6  1  0
  6  7  1  0
  7  8  1  0
  8  9  1  0
  9  2  1  0
  7  4  1  0
  1 10  1  0
  1 11  1  0
  1 12  1  0
  2 13  1  0
  3 14  1  0
  3 15  1  0
  4 16  1  0
  6 17  1  0
  6 18  1  0
  7 19  1  0
  8 20  1  0
  8 21  1  0
M  END
