
     RDKit          3D

 19 20  0  0  0  0  0  0  0  0999 V2000
    2.1319   -0.6268    0.0820 C   0  0  0  0  0  0  0  0  0  0  0  0
    0.9071   -0.5181   -0.8396 C   0  0  0  0  0  0  0  0  0  0  0  0
   -0.3222   -0.9943   -0.2943 C   0  0  0  0  0  0  0  0  0  0  0  0
   -1.4216   -0.2815    0.4482 C   0  0  0  0  0  0  0  0  0  0  0  0
   -2.5106   -1.0685    0.7389 O   0  0  0  0  0  0  0  0  0  0  0  0
   -1.5332    0.4454   -0.8786 C   0  0  0  0  0  0  0  0  0  0  0  0
   -2.4231    0.7491   -1.6104 O   0  0  0  0  0  0  0  0  0  0  0  0
   -0.0827    0.5180   -0.7033 C   0  0  0  0  0  0  0  0  0  0  0  0
    0.2748    1.4739    0.4208 C   0  0  0  0  0  0  0  0  0  0  0  0
    2.6500   -1.5896   -0.2053 H   0  0  0  0  0  0  0  0  0  0  0  0
    1.8553   -0.7349    1.1276 H   0  0  0  0  0  0  0  0  0  0  0  0
    2.8395    0.1713   -0.1526 H   0  0  0  0  0  0  0  0  0  0  0  0
    1.2627   -0.6768   -1.9044 H   0  0  0  0  0  0  0  0  0  0  0  0
   -0.8681   -1.6038   -1.0915 H   0  0  0  0  0  0  0  0  0  0  0  0
   -1.1542    0.3318    1.2956 H   0  0  0  0  0  0  0  0  0  0  0  0
   -2.9128   -0.8982    1.6313 H   0  0  0  0  0  0  0  0  0  0  0  0
    0.7693    0.9859    1.2702 H   0  0  0  0  0  0  0  0  0  0  0  0
    1.0746    2.1434   -0.0246 H   0  0  0  0  0  0  0  0  0  0  0  0
   -0.5367    2.1737    0.6902 H   0  0  0  0  0  0  0  0  0  0  0  0
  1  2  1  0
  2  3  1  0
  3  4  1  0
  4  5  1  0
  4  6  1  0
  6  7  2  0
  6  8  1  0
  8  9  1  0
  8  2  1  0
  8  3  1  0
  1 10  1  0
  1 11  1  0
  1 12  1  0
  2 13  1  0
  3 14  1  0
  4 15  1  0
  5 16  1  0
  9 17  1  0
  9 18  1  0
  9 19  1  0
M  END
