
     RDKit          3D

 17 17  0  0  0  0  0  0  0  0999 V2000
    1.9196    0.5373   -0.5114 C   0  0  0  0  0  0  0  0  0  0  0  0
    0.8288    0.2912    0.5216 C   0  0  0  0  0  0  0  0  0  0  0  0
   -0.2531    1.2855    0.4173 C   0  0  0  0  0  0  0  0  0  0  0  0
   -0.1009    2.4084    0.9799 O   0  0  0  0  0  0  0  0  0  0  0  0
   -1.4492    0.9330   -0.3281 C   0  0  0  0  0  0  0  0  0  0  0  0
   -1.8617   -0.3223   -0.4059 C   0  0  0  0  0  0  0  0  0  0  0  0
   -1.0875   -1.3887    0.2811 C   0  0  0  0  0  0  0  0  0  0  0  0
    0.3529   -1.1043    0.3288 C   0  0  0  0  0  0  0  0  0  0  0  0
    1.2184   -1.9648    0.2172 O   0  0  0  0  0  0  0  0  0  0  0  0
    1.6430    0.0485   -1.4807 H   0  0  0  0  0  0  0  0  0  0  0  0
    2.1270    1.5976   -0.6660 H   0  0  0  0  0  0  0  0  0  0  0  0
    2.8365    0.0417   -0.1623 H   0  0  0  0  0  0  0  0  0  0  0  0
    1.3176    0.3231    1.5196 H   0  0  0  0  0  0  0  0  0  0  0  0
   -1.9983    1.7516   -0.8240 H   0  0  0  0  0  0  0  0  0  0  0  0
   -2.7570   -0.5673   -0.9668 H   0  0  0  0  0  0  0  0  0  0  0  0
   -1.4334   -1.5298    1.3378 H   0  0  0  0  0  0  0  0  0  0  0  0
   -1.3029   -2.3406   -0.2580 H   0  0  0  0  0  0  0  0  0  0  0  0
  1  2  1  0
  2  3  1  0
  3  4  2  0
  3  5  1  0
  5  6  2  0
  6  7  1  0
  7  8  1  0
  8  9  2  0
  8  2  1  0
  1 10  1  0
  1 11  1  0
  1 12  1  0
  2 13  1  0
  5 14  1  0
  6 15  1  0
  7 16  1  0
  7 17  1  0
M  END
