
     RDKit          3D

 21 21  0  0  0  0  0  0  0  0999 V2000
    1.8037    1.0143   -0.4177 C   0  0  0  0  0  0  0  0  0  0  0  0
    0.6412    0.5028    0.4430 C   0  0  0  0  0  0  0  0  0  0  0  0
    0.9633   -0.9083    0.8131 C   0  0  0  0  0  0  0  0  0  0  0  0
   -0.0814   -1.7866    0.2095 C   0  0  0  0  0  0  0  0  0  0  0  0
   -0.9148   -0.9411   -0.6977 C   0  0  0  0  0  0  0  0  0  0  0  0
   -0.5863    0.5054   -0.4068 C   0  0  0  0  0  0  0  0  0  0  0  0
   -1.7434    1.2532    0.2033 C   0  0  0  0  0  0  0  0  0  0  0  0
    1.7028    2.1265   -0.3995 H   0  0  0  0  0  0  0  0  0  0  0  0
    2.7701    0.6497   -0.0711 H   0  0  0  0  0  0  0  0  0  0  0  0
    1.5970    0.6558   -1.4594 H   0  0  0  0  0  0  0  0  0  0  0  0
    0.5645    1.1173    1.3575 H   0  0  0  0  0  0  0  0  0  0  0  0
    2.0020   -1.2178    0.5184 H   0  0  0  0  0  0  0  0  0  0  0  0
    0.9268   -1.0461    1.9219 H   0  0  0  0  0  0  0  0  0  0  0  0
   -0.7117   -2.2951    0.9822 H   0  0  0  0  0  0  0  0  0  0  0  0
    0.3917   -2.6230   -0.3655 H   0  0  0  0  0  0  0  0  0  0  0  0
   -1.9790   -1.1030   -0.4802 H   0  0  0  0  0  0  0  0  0  0  0  0
   -0.7084   -1.2254   -1.7511 H   0  0  0  0  0  0  0  0  0  0  0  0
   -0.4044    0.9828   -1.4131 H   0  0  0  0  0  0  0  0  0  0  0  0
   -2.3048    1.8536   -0.5654 H   0  0  0  0  0  0  0  0  0  0  0  0
   -2.4837    0.5171    0.5923 H   0  0  0  0  0  0  0  0  0  0  0  0
   -1.4452    1.9679    0.9864 H   0  0  0  0  0  0  0  0  0  0  0  0
  1  2  1  0
  2  3  1  0
  3  4  1  0
  4  5  1  0
  5  6  1  0
  6  7  1  0
  6  2  1  0
  1  8  1  0
  1  9  1  0
  1 10  1  0
  2 11  1  0
  3 12  1  0
  3 13  1  0
  4 14  1  0
  4 15  1  0
  5 16  1  0
  5 17  1  0
  6 18  1  0
  7 19  1  0
  7 20  1  0
  7 21  1  0
M  END
