
     RDKit          3D

 19 19  0  0  0  0  0  0  0  0999 V2000
   -2.3085   -0.5683    0.0307 C   0  0  0  0  0  0  0  0  0  0  0  0
   -0.8777   -0.3338    0.4285 C   0  0  0  0  0  0  0  0  0  0  0  0
   -0.5799    1.0404    0.8273 C   0  0  0  0  0  0  0  0  0  0  0  0
    0.6267    1.3745    0.3994 C   0  0  0  0  0  0  0  0  0  0  0  0
    1.2582    0.2489   -0.3322 C   0  0  0  0  0  0  0  0  0  0  0  0
    1.9614    0.7063   -1.4199 O   0  0  0  0  0  0  0  0  0  0  0  0
    2.1069   -0.5661    0.5520 C   0  0  0  0  0  0  0  0  0  0  0  0
    3.2723   -0.7486    0.2611 O   0  0  0  0  0  0  0  0  0  0  0  0
    0.0639   -0.6106   -0.7307 C   0  0  0  0  0  0  0  0  0  0  0  0
   -2.8617   -1.1322    0.8192 H   0  0  0  0  0  0  0  0  0  0  0  0
   -2.2756   -1.2734   -0.8510 H   0  0  0  0  0  0  0  0  0  0  0  0
   -2.8241    0.3358   -0.3032 H   0  0  0  0  0  0  0  0  0  0  0  0
   -0.6231   -1.0189    1.2588 H   0  0  0  0  0  0  0  0  0  0  0  0
   -1.2298    1.6912    1.3821 H   0  0  0  0  0  0  0  0  0  0  0  0
    1.1335    2.3345    0.5398 H   0  0  0  0  0  0  0  0  0  0  0  0
    1.3907    1.4087   -1.8654 H   0  0  0  0  0  0  0  0  0  0  0  0
    1.7338   -1.0173    1.4643 H   0  0  0  0  0  0  0  0  0  0  0  0
   -0.3059   -0.1961   -1.6851 H   0  0  0  0  0  0  0  0  0  0  0  0
    0.3388   -1.6750   -0.7757 H   0  0  0  0  0  0  0  0  0  0  0  0
  1  2  1  0
  2  3  1  0
  3  4  2  0
  4  5  1  0
  5  6  1  0
  5  7  1  0
  7  8  2  0
  5  9  1  0
  9  2  1  0
  1 10  1  0
  1 11  1  0
  1 12  1  0
  2 13  1  0
  3 14  1  0
  4 15  1  0
  6 16  1  0
  7 17  1  0
  9 18  1  0
  9 19  1  0
M  END
