
     RDKit          3D

 20 20  0  0  0  0  0  0  0  0999 V2000
   -2.1496   -0.9318   -0.1570 C   0  0  0  0  0  0  0  0  0  0  0  0
   -0.9749   -0.2688    0.4800 C   0  0  0  0  0  0  0  0  0  0  0  0
    0.2718   -1.1563    0.6132 C   0  0  0  0  0  0  0  0  0  0  0  0
    1.0548    0.1526    0.4236 C   0  0  0  0  0  0  0  0  0  0  0  0
    2.3506    0.0156   -0.2868 C   0  0  0  0  0  0  0  0  0  0  0  0
   -0.1257    0.5795   -0.4566 C   0  0  0  0  0  0  0  0  0  0  0  0
   -0.5018    1.9894   -0.3537 C   0  0  0  0  0  0  0  0  0  0  0  0
    0.2503    2.9229   -0.6069 O   0  0  0  0  0  0  0  0  0  0  0  0
   -2.7796   -0.1952   -0.7005 H   0  0  0  0  0  0  0  0  0  0  0  0
   -2.7825   -1.3531    0.6478 H   0  0  0  0  0  0  0  0  0  0  0  0
   -1.8186   -1.6920   -0.8844 H   0  0  0  0  0  0  0  0  0  0  0  0
   -1.1440    0.2745    1.4112 H   0  0  0  0  0  0  0  0  0  0  0  0
    0.3628   -1.6076    1.5987 H   0  0  0  0  0  0  0  0  0  0  0  0
    0.3812   -1.8354   -0.2565 H   0  0  0  0  0  0  0  0  0  0  0  0
    1.0276    0.7118    1.3569 H   0  0  0  0  0  0  0  0  0  0  0  0
    2.4081   -0.9590   -0.8158 H   0  0  0  0  0  0  0  0  0  0  0  0
    3.1646    0.0175    0.4769 H   0  0  0  0  0  0  0  0  0  0  0  0
    2.5845    0.8720   -0.9629 H   0  0  0  0  0  0  0  0  0  0  0  0
   -0.0634    0.1858   -1.4953 H   0  0  0  0  0  0  0  0  0  0  0  0
   -1.5160    2.2775   -0.0320 H   0  0  0  0  0  0  0  0  0  0  0  0
  1  2  1  0
  2  3  1  0
  3  4  1  0
  4  5  1  0
  4  6  1  0
  6  7  1  0
  7  8  2  0
  6  2  1  0
  1  9  1  0
  1 10  1  0
  1 11  1  0
  2 12  1  0
  3 13  1  0
  3 14  1  0
  4 15  1  0
  5 16  1  0
  5 17  1  0
  5 18  1  0
  6 19  1  0
  7 20  1  0
M  END
