
     RDKit          3D

 19 19  0  0  0  0  0  0  0  0999 V2000
   -2.7849   -0.6543    0.0109 C   0  0  0  0  0  0  0  0  0  0  0  0
   -1.3755   -0.2457   -0.3579 C   0  0  0  0  0  0  0  0  0  0  0  0
   -0.8329    0.8842    0.4857 C   0  0  0  0  0  0  0  0  0  0  0  0
   -0.2914   -0.4908    0.6102 C   0  0  0  0  0  0  0  0  0  0  0  0
    1.0812   -0.8362    0.2796 C   0  0  0  0  0  0  0  0  0  0  0  0
    1.9106    0.0262   -0.5272 C   0  0  0  0  0  0  0  0  0  0  0  0
    1.5773    1.1027   -1.0486 O   0  0  0  0  0  0  0  0  0  0  0  0
    3.2913   -0.3901   -0.7697 C   0  0  0  0  0  0  0  0  0  0  0  0
    3.7445   -1.4591   -0.2959 O   0  0  0  0  0  0  0  0  0  0  0  0
   -3.3265   -1.1324   -0.8117 H   0  0  0  0  0  0  0  0  0  0  0  0
   -2.7969   -1.2564    0.9505 H   0  0  0  0  0  0  0  0  0  0  0  0
   -3.3293    0.2973    0.2745 H   0  0  0  0  0  0  0  0  0  0  0  0
   -1.2115   -0.2422   -1.4495 H   0  0  0  0  0  0  0  0  0  0  0  0
   -1.5020    1.2865    1.3142 H   0  0  0  0  0  0  0  0  0  0  0  0
   -0.2737    1.6990    0.0292 H   0  0  0  0  0  0  0  0  0  0  0  0
   -0.6609   -1.0217    1.5532 H   0  0  0  0  0  0  0  0  0  0  0  0
    1.6474   -0.9763    1.2610 H   0  0  0  0  0  0  0  0  0  0  0  0
    1.1438   -1.8947   -0.1498 H   0  0  0  0  0  0  0  0  0  0  0  0
    3.9894    0.1853   -1.3590 H   0  0  0  0  0  0  0  0  0  0  0  0
  1  2  1  0
  2  3  1  0
  3  4  1  0
  4  5  1  0
  5  6  1  0
  6  7  2  0
  6  8  1  0
  8  9  2  0
  4  2  1  0
  1 10  1  0
  1 11  1  0
  1 12  1  0
  2 13  1  0
  3 14  1  0
  3 15  1  0
  4 16  1  0
  5 17  1  0
  5 18  1  0
  8 19  1  0
M  END
