
     RDKit          3D

 23 24  0  0  0  0  0  0  0  0999 V2000
    2.6254   -0.8882    0.3714 C   0  0  0  0  0  0  0  0  0  0  0  0
    1.2464   -0.3342    0.3521 C   0  0  0  0  0  0  0  0  0  0  0  0
    1.0496    0.7969   -0.6535 C   0  0  0  0  0  0  0  0  0  0  0  0
    0.0996    1.8777   -0.2254 C   0  0  0  0  0  0  0  0  0  0  0  0
   -1.1182    1.1486    0.2432 C   0  0  0  0  0  0  0  0  0  0  0  0
   -1.1248   -0.1498   -0.5060 C   0  0  0  0  0  0  0  0  0  0  0  0
   -1.6824   -1.2669    0.3464 C   0  0  0  0  0  0  0  0  0  0  0  0
   -2.9983   -0.9978    0.7421 O   0  0  0  0  0  0  0  0  0  0  0  0
    0.3296   -0.4668   -0.7845 C   0  0  0  0  0  0  0  0  0  0  0  0
    3.2030   -0.3311    1.1600 H   0  0  0  0  0  0  0  0  0  0  0  0
    2.6946   -1.9498    0.6452 H   0  0  0  0  0  0  0  0  0  0  0  0
    3.1732   -0.6966   -0.5745 H   0  0  0  0  0  0  0  0  0  0  0  0
    0.8045   -0.1797    1.3751 H   0  0  0  0  0  0  0  0  0  0  0  0
    1.8563    1.0139   -1.3662 H   0  0  0  0  0  0  0  0  0  0  0  0
    0.5324    2.5263    0.5899 H   0  0  0  0  0  0  0  0  0  0  0  0
   -0.1080    2.5298   -1.1034 H   0  0  0  0  0  0  0  0  0  0  0  0
   -1.0428    0.9732    1.3347 H   0  0  0  0  0  0  0  0  0  0  0  0
   -2.0013    1.7551   -0.0048 H   0  0  0  0  0  0  0  0  0  0  0  0
   -1.7136   -0.0330   -1.4174 H   0  0  0  0  0  0  0  0  0  0  0  0
   -1.0966   -1.3576    1.2874 H   0  0  0  0  0  0  0  0  0  0  0  0
   -1.6975   -2.2121   -0.2055 H   0  0  0  0  0  0  0  0  0  0  0  0
   -3.5353   -0.5928    0.0214 H   0  0  0  0  0  0  0  0  0  0  0  0
    0.5041   -1.1652   -1.6276 H   0  0  0  0  0  0  0  0  0  0  0  0
  1  2  1  0
  2  3  1  0
  3  4  1  0
  4  5  1  0
  5  6  1  0
  6  7  1  0
  7  8  1  0
  6  9  1  0
  9  2  1  0
  9  3  1  0
  1 10  1  0
  1 11  1  0
  1 12  1  0
  2 13  1  0
  3 14  1  0
  4 15  1  0
  4 16  1  0
  5 17  1  0
  5 18  1  0
  6 19  1  0
  7 20  1  0
  7 21  1  0
  8 22  1  0
  9 23  1  0
M  END
