
     RDKit          3D

 25 26  0  0  0  0  0  0  0  0999 V2000
   -2.0746   -0.9377   -0.6970 C   0  0  0  0  0  0  0  0  0  0  0  0
   -1.1245   -0.2544    0.2702 C   0  0  0  0  0  0  0  0  0  0  0  0
   -0.2346   -1.2616    0.9077 C   0  0  0  0  0  0  0  0  0  0  0  0
    1.0288   -1.5629    0.2065 C   0  0  0  0  0  0  0  0  0  0  0  0
    1.5981   -0.5261   -0.6584 C   0  0  0  0  0  0  0  0  0  0  0  0
    2.0687    0.7258    0.0727 C   0  0  0  0  0  0  0  0  0  0  0  0
    0.8922    0.6960   -0.9070 C   0  0  0  0  0  0  0  0  0  0  0  0
   -0.4588    0.8958   -0.3763 C   0  0  0  0  0  0  0  0  0  0  0  0
   -0.4258    2.0954    0.5819 C   0  0  0  0  0  0  0  0  0  0  0  0
   -3.1345   -0.7865   -0.4390 H   0  0  0  0  0  0  0  0  0  0  0  0
   -1.9476   -0.4759   -1.7181 H   0  0  0  0  0  0  0  0  0  0  0  0
   -1.9065   -2.0306   -0.7323 H   0  0  0  0  0  0  0  0  0  0  0  0
   -1.7807    0.1581    1.0951 H   0  0  0  0  0  0  0  0  0  0  0  0
   -0.8346   -2.2186    0.9771 H   0  0  0  0  0  0  0  0  0  0  0  0
   -0.0515   -0.9976    1.9902 H   0  0  0  0  0  0  0  0  0  0  0  0
    1.8084   -1.8189    0.9864 H   0  0  0  0  0  0  0  0  0  0  0  0
    0.9371   -2.5180   -0.3909 H   0  0  0  0  0  0  0  0  0  0  0  0
    2.3498   -0.8825   -1.4056 H   0  0  0  0  0  0  0  0  0  0  0  0
    1.7717    0.8607    1.1321 H   0  0  0  0  0  0  0  0  0  0  0  0
    3.0022    1.2043   -0.2117 H   0  0  0  0  0  0  0  0  0  0  0  0
    1.1463    1.2442   -1.8625 H   0  0  0  0  0  0  0  0  0  0  0  0
   -1.1319    1.2431   -1.2165 H   0  0  0  0  0  0  0  0  0  0  0  0
   -0.0128    2.9836    0.0854 H   0  0  0  0  0  0  0  0  0  0  0  0
    0.0262    1.8371    1.5374 H   0  0  0  0  0  0  0  0  0  0  0  0
   -1.5113    2.3271    0.7726 H   0  0  0  0  0  0  0  0  0  0  0  0
  1  2  1  0
  2  3  1  0
  3  4  1  0
  4  5  1  0
  5  6  1  0
  6  7  1  0
  7  8  1  0
  8  9  1  0
  8  2  1  0
  7  5  1  0
  1 10  1  0
  1 11  1  0
  1 12  1  0
  2 13  1  0
  3 14  1  0
  3 15  1  0
  4 16  1  0
  4 17  1  0
  5 18  1  0
  6 19  1  0
  6 20  1  0
  7 21  1  0
  8 22  1  0
  9 23  1  0
  9 24  1  0
  9 25  1  0
M  END
