
     RDKit          3D

 19 19  0  0  0  0  0  0  0  0999 V2000
   -1.2046    1.4104    0.2668 C   0  0  0  0  0  0  0  0  0  0  0  0
   -0.6928    0.2953   -0.6087 C   0  0  0  0  0  0  0  0  0  0  0  0
   -1.2249   -1.0292   -0.0847 C   0  0  0  0  0  0  0  0  0  0  0  0
    0.1992   -1.5202   -0.0280 C   0  0  0  0  0  0  0  0  0  0  0  0
    0.7034   -0.1559   -0.3756 C   0  0  0  0  0  0  0  0  0  0  0  0
    1.3798    0.6217    0.6952 C   0  0  0  0  0  0  0  0  0  0  0  0
    1.5203   -0.2258   -1.5249 O   0  0  0  0  0  0  0  0  0  0  0  0
   -0.9252    1.2053    1.3130 H   0  0  0  0  0  0  0  0  0  0  0  0
   -0.9708    2.4105   -0.0914 H   0  0  0  0  0  0  0  0  0  0  0  0
   -2.3314    1.3254    0.2416 H   0  0  0  0  0  0  0  0  0  0  0  0
   -0.8768    0.4864   -1.6785 H   0  0  0  0  0  0  0  0  0  0  0  0
   -1.6355   -0.9802    0.9542 H   0  0  0  0  0  0  0  0  0  0  0  0
   -1.8800   -1.4847   -0.8242 H   0  0  0  0  0  0  0  0  0  0  0  0
    0.5272   -1.9420    0.9423 H   0  0  0  0  0  0  0  0  0  0  0  0
    0.3384   -2.3093   -0.8091 H   0  0  0  0  0  0  0  0  0  0  0  0
    2.4686    0.7297    0.4849 H   0  0  0  0  0  0  0  0  0  0  0  0
    1.2846    0.1968    1.7071 H   0  0  0  0  0  0  0  0  0  0  0  0
    0.9683    1.6646    0.6678 H   0  0  0  0  0  0  0  0  0  0  0  0
    2.3524   -0.6989   -1.2480 H   0  0  0  0  0  0  0  0  0  0  0  0
  1  2  1  0
  2  3  1  0
  3  4  1  0
  4  5  1  0
  5  6  1  0
  5  7  1  0
  5  2  1  0
  1  8  1  0
  1  9  1  0
  1 10  1  0
  2 11  1  0
  3 12  1  0
  3 13  1  0
  4 14  1  0
  4 15  1  0
  6 16  1  0
  6 17  1  0
  6 18  1  0
  7 19  1  0
M  END
