
     RDKit          3D

 23 23  0  0  0  0  0  0  0  0999 V2000
    2.3421   -0.9561   -0.0791 C   0  0  0  0  0  0  0  0  0  0  0  0
    1.1027   -0.2286   -0.6172 C   0  0  0  0  0  0  0  0  0  0  0  0
    1.0916    1.1951   -0.1745 C   0  0  0  0  0  0  0  0  0  0  0  0
   -0.0582    1.5537    0.7074 C   0  0  0  0  0  0  0  0  0  0  0  0
   -1.3796    1.0953    0.1582 C   0  0  0  0  0  0  0  0  0  0  0  0
   -1.3913   -0.3109   -0.3216 C   0  0  0  0  0  0  0  0  0  0  0  0
   -2.4263   -1.1493    0.3552 C   0  0  0  0  0  0  0  0  0  0  0  0
   -2.7374   -2.2164   -0.1471 O   0  0  0  0  0  0  0  0  0  0  0  0
   -0.0829   -1.0263   -0.2042 C   0  0  0  0  0  0  0  0  0  0  0  0
    2.0414   -1.3261    0.9324 H   0  0  0  0  0  0  0  0  0  0  0  0
    2.4731   -1.8612   -0.7036 H   0  0  0  0  0  0  0  0  0  0  0  0
    3.1943   -0.2786   -0.0679 H   0  0  0  0  0  0  0  0  0  0  0  0
    1.1976   -0.2708   -1.7221 H   0  0  0  0  0  0  0  0  0  0  0  0
    2.0292    1.4361    0.3838 H   0  0  0  0  0  0  0  0  0  0  0  0
    1.0835    1.9015   -1.0511 H   0  0  0  0  0  0  0  0  0  0  0  0
   -0.1041    2.6757    0.7492 H   0  0  0  0  0  0  0  0  0  0  0  0
    0.0965    1.2418    1.7717 H   0  0  0  0  0  0  0  0  0  0  0  0
   -2.1575    1.2998    0.9464 H   0  0  0  0  0  0  0  0  0  0  0  0
   -1.6496    1.8097   -0.6738 H   0  0  0  0  0  0  0  0  0  0  0  0
   -1.6667   -0.3191   -1.4167 H   0  0  0  0  0  0  0  0  0  0  0  0
   -2.9227   -0.8706    1.2691 H   0  0  0  0  0  0  0  0  0  0  0  0
   -0.1396   -1.9136   -0.9031 H   0  0  0  0  0  0  0  0  0  0  0  0
    0.0640   -1.4811    0.8084 H   0  0  0  0  0  0  0  0  0  0  0  0
  1  2  1  0
  2  3  1  0
  3  4  1  0
  4  5  1  0
  5  6  1  0
  6  7  1  0
  7  8  2  0
  6  9  1  0
  9  2  1  0
  1 10  1  0
  1 11  1  0
  1 12  1  0
  2 13  1  0
  3 14  1  0
  3 15  1  0
  4 16  1  0
  4 17  1  0
  5 18  1  0
  5 19  1  0
  6 20  1  0
  7 21  1  0
  9 22  1  0
  9 23  1  0
M  END
