
     RDKit          3D

 17 17  0  0  0  0  0  0  0  0999 V2000
    2.0519   -0.0859    0.4308 C   0  0  0  0  0  0  0  0  0  0  0  0
    1.0398   -0.4698   -0.6496 C   0  0  0  0  0  0  0  0  0  0  0  0
   -0.2323   -0.9138    0.0162 C   0  0  0  0  0  0  0  0  0  0  0  0
   -1.2604    0.1277   -0.4120 C   0  0  0  0  0  0  0  0  0  0  0  0
   -2.1193    0.3968    0.7561 C   0  0  0  0  0  0  0  0  0  0  0  0
   -2.8464   -0.4683    1.1707 O   0  0  0  0  0  0  0  0  0  0  0  0
   -0.4104    1.2634   -0.7885 C   0  0  0  0  0  0  0  0  0  0  0  0
   -0.6378    2.5135   -0.6497 O   0  0  0  0  0  0  0  0  0  0  0  0
    0.7397    0.7221   -1.3487 O   0  0  0  0  0  0  0  0  0  0  0  0
    2.9443    0.3768   -0.0051 H   0  0  0  0  0  0  0  0  0  0  0  0
    2.3701   -1.0363    0.9210 H   0  0  0  0  0  0  0  0  0  0  0  0
    1.5261    0.5485    1.1685 H   0  0  0  0  0  0  0  0  0  0  0  0
    1.4734   -1.2511   -1.3186 H   0  0  0  0  0  0  0  0  0  0  0  0
   -0.5700   -1.8923   -0.3705 H   0  0  0  0  0  0  0  0  0  0  0  0
   -0.1249   -0.9185    1.1260 H   0  0  0  0  0  0  0  0  0  0  0  0
   -1.8571   -0.2705   -1.2690 H   0  0  0  0  0  0  0  0  0  0  0  0
   -2.0868    1.3575    1.2224 H   0  0  0  0  0  0  0  0  0  0  0  0
  1  2  1  0
  2  3  1  0
  3  4  1  0
  4  5  1  0
  5  6  2  0
  4  7  1  0
  7  8  2  0
  7  9  1  0
  9  2  1  0
  1 10  1  0
  1 11  1  0
  1 12  1  0
  2 13  1  0
  3 14  1  0
  3 15  1  0
  4 16  1  0
  5 17  1  0
M  END
