
     RDKit          3D

 23 24  0  0  0  0  0  0  0  0999 V2000
   -3.0653   -0.9306    0.0971 C   0  0  0  0  0  0  0  0  0  0  0  0
   -2.0147   -0.0926   -0.5887 C   0  0  0  0  0  0  0  0  0  0  0  0
   -1.6956    1.1935    0.1537 C   0  0  0  0  0  0  0  0  0  0  0  0
   -0.6845    0.0315    0.0455 C   0  0  0  0  0  0  0  0  0  0  0  0
    0.5160    0.4271   -0.7755 C   0  0  0  0  0  0  0  0  0  0  0  0
    1.7010    0.4553    0.1575 C   0  0  0  0  0  0  0  0  0  0  0  0
    1.9915   -0.8580    0.7771 C   0  0  0  0  0  0  0  0  0  0  0  0
    2.8332   -1.1521   -0.3261 O   0  0  0  0  0  0  0  0  0  0  0  0
    3.0458    0.2141   -0.4522 C   0  0  0  0  0  0  0  0  0  0  0  0
   -3.3015   -1.8638   -0.4318 H   0  0  0  0  0  0  0  0  0  0  0  0
   -3.9456   -0.2724    0.2558 H   0  0  0  0  0  0  0  0  0  0  0  0
   -2.7410   -1.2316    1.1357 H   0  0  0  0  0  0  0  0  0  0  0  0
   -2.0442   -0.1056   -1.6782 H   0  0  0  0  0  0  0  0  0  0  0  0
   -2.0726    1.3437    1.1610 H   0  0  0  0  0  0  0  0  0  0  0  0
   -1.5910    2.0566   -0.5184 H   0  0  0  0  0  0  0  0  0  0  0  0
   -0.4646   -0.5177    0.9654 H   0  0  0  0  0  0  0  0  0  0  0  0
    0.4069    1.4494   -1.2444 H   0  0  0  0  0  0  0  0  0  0  0  0
    0.6942   -0.2992   -1.6182 H   0  0  0  0  0  0  0  0  0  0  0  0
    1.6652    1.2864    0.9036 H   0  0  0  0  0  0  0  0  0  0  0  0
    2.5750   -0.7337    1.7212 H   0  0  0  0  0  0  0  0  0  0  0  0
    1.1682   -1.5731    0.8485 H   0  0  0  0  0  0  0  0  0  0  0  0
    3.1789    0.5864   -1.4870 H   0  0  0  0  0  0  0  0  0  0  0  0
    3.8447    0.5863    0.2248 H   0  0  0  0  0  0  0  0  0  0  0  0
  1  2  1  0
  2  3  1  0
  3  4  1  0
  4  5  1  0
  5  6  1  0
  6  7  1  0
  7  8  1  0
  8  9  1  0
  4  2  1  0
  9  6  1  0
  1 10  1  0
  1 11  1  0
  1 12  1  0
  2 13  1  0
  3 14  1  0
  3 15  1  0
  4 16  1  0
  5 17  1  0
  5 18  1  0
  6 19  1  0
  7 20  1  0
  7 21  1  0
  9 22  1  0
  9 23  1  0
M  END
