
     RDKit          3D

 21 22  0  0  0  0  0  0  0  0999 V2000
    2.5548    0.3800    0.0239 C   0  0  0  0  0  0  0  0  0  0  0  0
    1.1935   -0.0882    0.4420 C   0  0  0  0  0  0  0  0  0  0  0  0
    0.1873    1.0358    0.5434 C   0  0  0  0  0  0  0  0  0  0  0  0
   -1.0823    0.2281    0.7565 C   0  0  0  0  0  0  0  0  0  0  0  0
   -2.2130    0.5605   -0.1678 C   0  0  0  0  0  0  0  0  0  0  0  0
   -1.9800   -0.7189   -0.8953 C   0  0  0  0  0  0  0  0  0  0  0  0
   -2.5007   -1.2705   -1.8504 O   0  0  0  0  0  0  0  0  0  0  0  0
   -0.8649   -1.0753   -0.0136 C   0  0  0  0  0  0  0  0  0  0  0  0
    0.5219   -0.9279   -0.6392 C   0  0  0  0  0  0  0  0  0  0  0  0
    2.5109    0.8020   -0.9853 H   0  0  0  0  0  0  0  0  0  0  0  0
    3.2314   -0.4976    0.0917 H   0  0  0  0  0  0  0  0  0  0  0  0
    2.9063    1.1104    0.7656 H   0  0  0  0  0  0  0  0  0  0  0  0
    1.1808   -0.6506    1.3745 H   0  0  0  0  0  0  0  0  0  0  0  0
    0.3937    1.7345    1.3521 H   0  0  0  0  0  0  0  0  0  0  0  0
    0.1421    1.5089   -0.4613 H   0  0  0  0  0  0  0  0  0  0  0  0
   -1.3330    0.0240    1.8037 H   0  0  0  0  0  0  0  0  0  0  0  0
   -2.0915    1.4290   -0.8105 H   0  0  0  0  0  0  0  0  0  0  0  0
   -3.1897    0.5539    0.3935 H   0  0  0  0  0  0  0  0  0  0  0  0
   -0.9794   -1.9702    0.6152 H   0  0  0  0  0  0  0  0  0  0  0  0
    0.3993   -0.2876   -1.5256 H   0  0  0  0  0  0  0  0  0  0  0  0
    1.0127   -1.8802   -0.8131 H   0  0  0  0  0  0  0  0  0  0  0  0
  1  2  1  0
  2  3  1  0
  3  4  1  0
  4  5  1  0
  5  6  1  0
  6  7  2  0
  6  8  1  0
  8  9  1  0
  9  2  1  0
  8  4  1  0
  1 10  1  0
  1 11  1  0
  1 12  1  0
  2 13  1  0
  3 14  1  0
  3 15  1  0
  4 16  1  0
  5 17  1  0
  5 18  1  0
  8 19  1  0
  9 20  1  0
  9 21  1  0
M  END
