
     RDKit          3D

 19 19  0  0  0  0  0  0  0  0999 V2000
   -2.1448    1.7612   -0.5578 C   0  0  0  0  0  0  0  0  0  0  0  0
   -1.5819    0.6203    0.2124 C   0  0  0  0  0  0  0  0  0  0  0  0
   -0.8800   -0.4586   -0.6435 C   0  0  0  0  0  0  0  0  0  0  0  0
    0.0002   -0.6549    0.5912 C   0  0  0  0  0  0  0  0  0  0  0  0
    1.3335   -1.0695    0.1643 C   0  0  0  0  0  0  0  0  0  0  0  0
    2.4426   -1.4183   -0.1733 C   0  0  0  0  0  0  0  0  0  0  0  0
    3.7485   -1.8352   -0.5965 C   0  0  0  0  0  0  0  0  0  0  0  0
    4.4051   -1.2631   -1.5128 O   0  0  0  0  0  0  0  0  0  0  0  0
   -0.1944    0.8320    0.8270 C   0  0  0  0  0  0  0  0  0  0  0  0
   -3.0347    1.4388   -1.1554 H   0  0  0  0  0  0  0  0  0  0  0  0
   -1.3548    2.2030   -1.1951 H   0  0  0  0  0  0  0  0  0  0  0  0
   -2.5535    2.5054    0.1680 H   0  0  0  0  0  0  0  0  0  0  0  0
   -2.2638    0.1280    0.9345 H   0  0  0  0  0  0  0  0  0  0  0  0
   -0.3811    0.0426   -1.4852 H   0  0  0  0  0  0  0  0  0  0  0  0
   -1.5370   -1.3123   -0.8880 H   0  0  0  0  0  0  0  0  0  0  0  0
   -0.5163   -1.3333    1.2742 H   0  0  0  0  0  0  0  0  0  0  0  0
    4.2230   -2.6831   -0.1241 H   0  0  0  0  0  0  0  0  0  0  0  0
    0.4625    1.3997    0.1412 H   0  0  0  0  0  0  0  0  0  0  0  0
   -0.1732    1.0976    1.8868 H   0  0  0  0  0  0  0  0  0  0  0  0
  1  2  1  0
  2  3  1  0
  3  4  1  0
  4  5  1  0
  5  6  3  0
  6  7  1  0
  7  8  2  0
  4  9  1  0
  9  2  1  0
  1 10  1  0
  1 11  1  0
  1 12  1  0
  2 13  1  0
  3 14  1  0
  3 15  1  0
  4 16  1  0
  7 17  1  0
  9 18  1  0
  9 19  1  0
M  END
