
     RDKit          3D

 23 23  0  0  0  0  0  0  0  0999 V2000
    2.3214   -1.1116    0.2704 C   0  0  0  0  0  0  0  0  0  0  0  0
    0.9180   -0.5851   -0.0683 C   0  0  0  0  0  0  0  0  0  0  0  0
    0.9412    0.8883    0.1443 C   0  0  0  0  0  0  0  0  0  0  0  0
   -0.3494    1.5565    0.3143 C   0  0  0  0  0  0  0  0  0  0  0  0
   -0.5500    2.5099   -0.7113 O   0  0  0  0  0  0  0  0  0  0  0  0
   -1.5683    0.7116    0.3767 C   0  0  0  0  0  0  0  0  0  0  0  0
   -1.6303   -0.3890   -0.6290 C   0  0  0  0  0  0  0  0  0  0  0  0
   -1.1142   -1.6411    0.0568 C   0  0  0  0  0  0  0  0  0  0  0  0
    0.0397   -1.2700    0.7438 O   0  0  0  0  0  0  0  0  0  0  0  0
    3.0688   -0.3742   -0.0983 H   0  0  0  0  0  0  0  0  0  0  0  0
    2.3988   -1.1266    1.3614 H   0  0  0  0  0  0  0  0  0  0  0  0
    2.4756   -2.0885   -0.2173 H   0  0  0  0  0  0  0  0  0  0  0  0
    0.7885   -0.8552   -1.1554 H   0  0  0  0  0  0  0  0  0  0  0  0
    1.6294    1.0832    1.0194 H   0  0  0  0  0  0  0  0  0  0  0  0
    1.5022    1.3357   -0.7287 H   0  0  0  0  0  0  0  0  0  0  0  0
   -0.3274    2.1765    1.2591 H   0  0  0  0  0  0  0  0  0  0  0  0
    0.2607    2.5849   -1.2571 H   0  0  0  0  0  0  0  0  0  0  0  0
   -2.4553    1.3827    0.1778 H   0  0  0  0  0  0  0  0  0  0  0  0
   -1.7226    0.3057    1.4085 H   0  0  0  0  0  0  0  0  0  0  0  0
   -2.6950   -0.5789   -0.9570 H   0  0  0  0  0  0  0  0  0  0  0  0
   -1.0788   -0.1238   -1.5292 H   0  0  0  0  0  0  0  0  0  0  0  0
   -0.9842   -2.4869   -0.6138 H   0  0  0  0  0  0  0  0  0  0  0  0
   -1.8689   -1.9040    0.8330 H   0  0  0  0  0  0  0  0  0  0  0  0
  1  2  1  0
  2  3  1  0
  3  4  1  0
  4  5  1  0
  4  6  1  0
  6  7  1  0
  7  8  1  0
  8  9  1  0
  9  2  1  0
  1 10  1  0
  1 11  1  0
  1 12  1  0
  2 13  1  0
  3 14  1  0
  3 15  1  0
  4 16  1  0
  5 17  1  0
  6 18  1  0
  6 19  1  0
  7 20  1  0
  7 21  1  0
  8 22  1  0
  8 23  1  0
M  END
