
     RDKit          3D

 21 22  0  0  0  0  0  0  0  0999 V2000
   -2.6828    0.4237    0.8017 C   0  0  0  0  0  0  0  0  0  0  0  0
   -1.6094    0.6276   -0.2760 C   0  0  0  0  0  0  0  0  0  0  0  0
   -1.4251   -0.6862   -0.9341 C   0  0  0  0  0  0  0  0  0  0  0  0
   -0.2380   -1.1906   -1.2194 C   0  0  0  0  0  0  0  0  0  0  0  0
    0.9529   -0.3892   -0.8560 C   0  0  0  0  0  0  0  0  0  0  0  0
    1.4410   -0.2914    0.5223 C   0  0  0  0  0  0  0  0  0  0  0  0
    2.9372   -0.0579    0.7637 C   0  0  0  0  0  0  0  0  0  0  0  0
    0.6993    0.8665   -0.1945 C   0  0  0  0  0  0  0  0  0  0  0  0
   -0.5138    1.1423    0.3166 O   0  0  0  0  0  0  0  0  0  0  0  0
   -2.5603   -0.6237    1.2077 H   0  0  0  0  0  0  0  0  0  0  0  0
   -3.6859    0.5142    0.3811 H   0  0  0  0  0  0  0  0  0  0  0  0
   -2.5588    1.1424    1.6263 H   0  0  0  0  0  0  0  0  0  0  0  0
   -2.0117    1.3241   -1.0412 H   0  0  0  0  0  0  0  0  0  0  0  0
   -2.3394   -1.2357   -1.1804 H   0  0  0  0  0  0  0  0  0  0  0  0
   -0.1993   -2.1574   -1.7007 H   0  0  0  0  0  0  0  0  0  0  0  0
    1.7459   -0.4045   -1.6495 H   0  0  0  0  0  0  0  0  0  0  0  0
    0.9495   -0.7614    1.3746 H   0  0  0  0  0  0  0  0  0  0  0  0
    3.4364   -1.0246    0.7281 H   0  0  0  0  0  0  0  0  0  0  0  0
    2.9943    0.4273    1.7724 H   0  0  0  0  0  0  0  0  0  0  0  0
    3.3231    0.5838   -0.0433 H   0  0  0  0  0  0  0  0  0  0  0  0
    1.3448    1.7707   -0.3995 H   0  0  0  0  0  0  0  0  0  0  0  0
  1  2  1  0
  2  3  1  0
  3  4  2  0
  4  5  1  0
  5  6  1  0
  6  7  1  0
  6  8  1  0
  8  9  1  0
  9  2  1  0
  8  5  1  0
  1 10  1  0
  1 11  1  0
  1 12  1  0
  2 13  1  0
  3 14  1  0
  4 15  1  0
  5 16  1  0
  6 17  1  0
  7 18  1  0
  7 19  1  0
  7 20  1  0
  8 21  1  0
M  END
