
     RDKit          3D

 25 25  0  0  0  0  0  0  0  0999 V2000
   -1.6876   -1.1487    0.7259 C   0  0  0  0  0  0  0  0  0  0  0  0
   -1.1533   -0.7415   -0.6127 C   0  0  0  0  0  0  0  0  0  0  0  0
   -1.6591    0.6370   -0.9291 C   0  0  0  0  0  0  0  0  0  0  0  0
   -1.2854    1.5323    0.2042 C   0  0  0  0  0  0  0  0  0  0  0  0
   -0.0841    1.8033    0.6626 C   0  0  0  0  0  0  0  0  0  0  0  0
    1.2072    1.2691    0.1471 C   0  0  0  0  0  0  0  0  0  0  0  0
    1.1270   -0.2552    0.3240 C   0  0  0  0  0  0  0  0  0  0  0  0
    2.5728   -0.7356    0.1497 C   0  0  0  0  0  0  0  0  0  0  0  0
    0.3270   -0.8866   -0.7517 C   0  0  0  0  0  0  0  0  0  0  0  0
   -2.0996   -0.2710    1.2975 H   0  0  0  0  0  0  0  0  0  0  0  0
   -0.9266   -1.6900    1.3194 H   0  0  0  0  0  0  0  0  0  0  0  0
   -2.5593   -1.8474    0.6309 H   0  0  0  0  0  0  0  0  0  0  0  0
   -1.6189   -1.4294   -1.3786 H   0  0  0  0  0  0  0  0  0  0  0  0
   -2.7618    0.5805   -1.0316 H   0  0  0  0  0  0  0  0  0  0  0  0
   -1.2236    1.0608   -1.8488 H   0  0  0  0  0  0  0  0  0  0  0  0
   -2.1223    2.0088    0.6974 H   0  0  0  0  0  0  0  0  0  0  0  0
    0.0057    2.4702    1.4868 H   0  0  0  0  0  0  0  0  0  0  0  0
    1.2684    1.4106   -0.9678 H   0  0  0  0  0  0  0  0  0  0  0  0
    2.0787    1.6913    0.6612 H   0  0  0  0  0  0  0  0  0  0  0  0
    0.7328   -0.5035    1.3082 H   0  0  0  0  0  0  0  0  0  0  0  0
    2.7236   -1.7325    0.6021 H   0  0  0  0  0  0  0  0  0  0  0  0
    2.7718   -0.6998   -0.9340 H   0  0  0  0  0  0  0  0  0  0  0  0
    3.1923   -0.0205    0.7341 H   0  0  0  0  0  0  0  0  0  0  0  0
    0.5570   -1.9866   -0.7501 H   0  0  0  0  0  0  0  0  0  0  0  0
    0.6172   -0.5154   -1.7468 H   0  0  0  0  0  0  0  0  0  0  0  0
  1  2  1  0
  2  3  1  0
  3  4  1  0
  4  5  2  0
  5  6  1  0
  6  7  1  0
  7  8  1  0
  7  9  1  0
  9  2  1  0
  1 10  1  0
  1 11  1  0
  1 12  1  0
  2 13  1  0
  3 14  1  0
  3 15  1  0
  4 16  1  0
  5 17  1  0
  6 18  1  0
  6 19  1  0
  7 20  1  0
  8 21  1  0
  8 22  1  0
  8 23  1  0
  9 24  1  0
  9 25  1  0
M  END
