
     RDKit          3D

 19 20  0  0  0  0  0  0  0  0999 V2000
    1.9285    0.4368    0.3241 C   0  0  0  0  0  0  0  0  0  0  0  0
    0.8324    0.0334   -0.5971 C   0  0  0  0  0  0  0  0  0  0  0  0
    0.2431   -1.2785   -0.1516 C   0  0  0  0  0  0  0  0  0  0  0  0
   -1.0917   -1.0753    0.5066 C   0  0  0  0  0  0  0  0  0  0  0  0
   -1.7777    0.1153   -0.0978 C   0  0  0  0  0  0  0  0  0  0  0  0
   -1.3356    0.4160   -1.3779 O   0  0  0  0  0  0  0  0  0  0  0  0
   -0.2323    1.0731   -0.7902 C   0  0  0  0  0  0  0  0  0  0  0  0
   -1.0574    1.3235    0.3895 C   0  0  0  0  0  0  0  0  0  0  0  0
   -1.2002    2.0591    1.3295 O   0  0  0  0  0  0  0  0  0  0  0  0
    1.9447    1.4809    0.6221 H   0  0  0  0  0  0  0  0  0  0  0  0
    2.9312    0.2065   -0.1311 H   0  0  0  0  0  0  0  0  0  0  0  0
    1.9091   -0.1700    1.2665 H   0  0  0  0  0  0  0  0  0  0  0  0
    1.2761   -0.1552   -1.6190 H   0  0  0  0  0  0  0  0  0  0  0  0
    0.1596   -2.0142   -1.0014 H   0  0  0  0  0  0  0  0  0  0  0  0
    0.9063   -1.7600    0.6131 H   0  0  0  0  0  0  0  0  0  0  0  0
   -1.7117   -1.9767    0.5460 H   0  0  0  0  0  0  0  0  0  0  0  0
   -0.8896   -0.8027    1.5853 H   0  0  0  0  0  0  0  0  0  0  0  0
   -2.8714    0.1465   -0.0296 H   0  0  0  0  0  0  0  0  0  0  0  0
    0.0368    1.9415   -1.3870 H   0  0  0  0  0  0  0  0  0  0  0  0
  1  2  1  0
  2  3  1  0
  3  4  1  0
  4  5  1  0
  5  6  1  0
  6  7  1  0
  7  8  1  0
  8  9  2  0
  7  2  1  0
  8  5  1  0
  1 10  1  0
  1 11  1  0
  1 12  1  0
  2 13  1  0
  3 14  1  0
  3 15  1  0
  4 16  1  0
  4 17  1  0
  5 18  1  0
  7 19  1  0
M  END
