
     RDKit          3D

 20 20  0  0  0  0  0  0  0  0999 V2000
    2.0025    0.3174   -0.0544 C   0  0  0  0  0  0  0  0  0  0  0  0
    0.5557    0.4052   -0.4657 C   0  0  0  0  0  0  0  0  0  0  0  0
    0.1688   -0.8693   -1.1451 C   0  0  0  0  0  0  0  0  0  0  0  0
   -0.6238   -1.5985   -0.0780 C   0  0  0  0  0  0  0  0  0  0  0  0
   -1.3472   -0.5402    0.7052 C   0  0  0  0  0  0  0  0  0  0  0  0
   -0.3717    0.6195    0.6903 C   0  0  0  0  0  0  0  0  0  0  0  0
   -1.0711    1.9020    0.4921 C   0  0  0  0  0  0  0  0  0  0  0  0
   -2.1658    1.9356   -0.0047 O   0  0  0  0  0  0  0  0  0  0  0  0
    2.3247    1.2654    0.4283 H   0  0  0  0  0  0  0  0  0  0  0  0
    2.2070   -0.5761    0.5825 H   0  0  0  0  0  0  0  0  0  0  0  0
    2.5891    0.2297   -1.0151 H   0  0  0  0  0  0  0  0  0  0  0  0
    0.4937    1.2318   -1.2212 H   0  0  0  0  0  0  0  0  0  0  0  0
    1.0581   -1.5133   -1.3732 H   0  0  0  0  0  0  0  0  0  0  0  0
   -0.3916   -0.7039   -2.0661 H   0  0  0  0  0  0  0  0  0  0  0  0
   -1.2909   -2.3571   -0.5251 H   0  0  0  0  0  0  0  0  0  0  0  0
    0.1133   -2.0709    0.6023 H   0  0  0  0  0  0  0  0  0  0  0  0
   -2.2865   -0.2162    0.2225 H   0  0  0  0  0  0  0  0  0  0  0  0
   -1.5397   -0.9025    1.7554 H   0  0  0  0  0  0  0  0  0  0  0  0
    0.1739    0.6299    1.6761 H   0  0  0  0  0  0  0  0  0  0  0  0
   -0.5985    2.8115    0.7938 H   0  0  0  0  0  0  0  0  0  0  0  0
  1  2  1  0
  2  3  1  0
  3  4  1  0
  4  5  1  0
  5  6  1  0
  6  7  1  0
  7  8  2  0
  6  2  1  0
  1  9  1  0
  1 10  1  0
  1 11  1  0
  2 12  1  0
  3 13  1  0
  3 14  1  0
  4 15  1  0
  4 16  1  0
  5 17  1  0
  5 18  1  0
  6 19  1  0
  7 20  1  0
M  END
