
     RDKit          3D

 21 21  0  0  0  0  0  0  0  0999 V2000
    2.6234    0.0038   -0.1703 C   0  0  0  0  0  0  0  0  0  0  0  0
    1.1349    0.0202   -0.1326 C   0  0  0  0  0  0  0  0  0  0  0  0
    0.5683   -1.1559    0.6570 C   0  0  0  0  0  0  0  0  0  0  0  0
   -0.8041   -1.3789    0.1560 C   0  0  0  0  0  0  0  0  0  0  0  0
   -1.0463   -2.5686   -0.0796 O   0  0  0  0  0  0  0  0  0  0  0  0
   -1.9465   -0.5100   -0.1262 C   0  0  0  0  0  0  0  0  0  0  0  0
   -1.7726    0.9204    0.1862 C   0  0  0  0  0  0  0  0  0  0  0  0
   -0.4953    1.5358   -0.2621 C   0  0  0  0  0  0  0  0  0  0  0  0
    0.6077    1.1627    0.4798 O   0  0  0  0  0  0  0  0  0  0  0  0
    2.9985   -1.0081    0.1534 H   0  0  0  0  0  0  0  0  0  0  0  0
    3.0828    0.7735    0.4477 H   0  0  0  0  0  0  0  0  0  0  0  0
    3.0308    0.1329   -1.2036 H   0  0  0  0  0  0  0  0  0  0  0  0
    0.7612   -0.0966   -1.1682 H   0  0  0  0  0  0  0  0  0  0  0  0
    1.2026   -2.0379    0.5211 H   0  0  0  0  0  0  0  0  0  0  0  0
    0.5575   -0.9303    1.7462 H   0  0  0  0  0  0  0  0  0  0  0  0
   -2.2525   -0.6702   -1.1841 H   0  0  0  0  0  0  0  0  0  0  0  0
   -2.8138   -0.8948    0.4829 H   0  0  0  0  0  0  0  0  0  0  0  0
   -1.9026    1.1513    1.2686 H   0  0  0  0  0  0  0  0  0  0  0  0
   -2.6083    1.4863   -0.3218 H   0  0  0  0  0  0  0  0  0  0  0  0
   -0.3269    1.4121   -1.3603 H   0  0  0  0  0  0  0  0  0  0  0  0
   -0.5991    2.6523   -0.1245 H   0  0  0  0  0  0  0  0  0  0  0  0
  1  2  1  0
  2  3  1  0
  3  4  1  0
  4  5  2  0
  4  6  1  0
  6  7  1  0
  7  8  1  0
  8  9  1  0
  9  2  1  0
  1 10  1  0
  1 11  1  0
  1 12  1  0
  2 13  1  0
  3 14  1  0
  3 15  1  0
  6 16  1  0
  6 17  1  0
  7 18  1  0
  7 19  1  0
  8 20  1  0
  8 21  1  0
M  END
