
     RDKit          3D

 23 23  0  0  0  0  0  0  0  0999 V2000
   -1.1054    1.4586    0.6512 C   0  0  0  0  0  0  0  0  0  0  0  0
   -0.6503    0.0355    0.6917 C   0  0  0  0  0  0  0  0  0  0  0  0
   -1.6228   -0.7538   -0.1804 C   0  0  0  0  0  0  0  0  0  0  0  0
   -0.8982   -0.6685   -1.5290 C   0  0  0  0  0  0  0  0  0  0  0  0
    0.4778   -1.0344   -1.0934 C   0  0  0  0  0  0  0  0  0  0  0  0
    1.1809   -1.8443   -1.6573 O   0  0  0  0  0  0  0  0  0  0  0  0
    0.7085   -0.1965    0.1152 C   0  0  0  0  0  0  0  0  0  0  0  0
    1.5692   -0.9243    1.1326 C   0  0  0  0  0  0  0  0  0  0  0  0
    1.4030    1.0594   -0.3330 C   0  0  0  0  0  0  0  0  0  0  0  0
   -2.0224    1.5251    1.3010 H   0  0  0  0  0  0  0  0  0  0  0  0
   -1.4418    1.7326   -0.3744 H   0  0  0  0  0  0  0  0  0  0  0  0
   -0.3682    2.1912    0.9746 H   0  0  0  0  0  0  0  0  0  0  0  0
   -0.7339   -0.3257    1.7361 H   0  0  0  0  0  0  0  0  0  0  0  0
   -2.6139   -0.2889   -0.2289 H   0  0  0  0  0  0  0  0  0  0  0  0
   -1.6125   -1.8083    0.1077 H   0  0  0  0  0  0  0  0  0  0  0  0
   -1.3349   -1.3609   -2.2443 H   0  0  0  0  0  0  0  0  0  0  0  0
   -0.8573    0.3824   -1.8828 H   0  0  0  0  0  0  0  0  0  0  0  0
    0.9699   -1.6887    1.6854 H   0  0  0  0  0  0  0  0  0  0  0  0
    1.8443   -0.1618    1.8998 H   0  0  0  0  0  0  0  0  0  0  0  0
    2.4501   -1.4066    0.6707 H   0  0  0  0  0  0  0  0  0  0  0  0
    2.3435    0.7636   -0.8339 H   0  0  0  0  0  0  0  0  0  0  0  0
    0.7489    1.5471   -1.0889 H   0  0  0  0  0  0  0  0  0  0  0  0
    1.5654    1.7672    0.4804 H   0  0  0  0  0  0  0  0  0  0  0  0
  1  2  1  0
  2  3  1  0
  3  4  1  0
  4  5  1  0
  5  6  2  0
  5  7  1  0
  7  8  1  0
  7  9  1  0
  7  2  1  0
  1 10  1  0
  1 11  1  0
  1 12  1  0
  2 13  1  0
  3 14  1  0
  3 15  1  0
  4 16  1  0
  4 17  1  0
  8 18  1  0
  8 19  1  0
  8 20  1  0
  9 21  1  0
  9 22  1  0
  9 23  1  0
M  END
