
     RDKit          3D

 17 18  0  0  0  0  0  0  0  0999 V2000
   -2.1502    0.3505   -0.0588 C   0  0  0  0  0  0  0  0  0  0  0  0
   -0.8812   -0.4436    0.0679 C   0  0  0  0  0  0  0  0  0  0  0  0
    0.1653    0.0513    0.9661 C   0  0  0  0  0  0  0  0  0  0  0  0
    1.5631   -0.4537    0.9745 C   0  0  0  0  0  0  0  0  0  0  0  0
    1.5621   -0.7470   -0.5068 C   0  0  0  0  0  0  0  0  0  0  0  0
    0.3101    0.1153   -0.5884 C   0  0  0  0  0  0  0  0  0  0  0  0
    0.3784    1.3809   -1.1023 O   0  0  0  0  0  0  0  0  0  0  0  0
   -3.0491   -0.2846   -0.1774 H   0  0  0  0  0  0  0  0  0  0  0  0
   -2.2417    1.0868    0.7693 H   0  0  0  0  0  0  0  0  0  0  0  0
   -2.1086    0.9769   -0.9952 H   0  0  0  0  0  0  0  0  0  0  0  0
   -1.0314   -1.5452   -0.0212 H   0  0  0  0  0  0  0  0  0  0  0  0
   -0.0434    1.0328    1.4637 H   0  0  0  0  0  0  0  0  0  0  0  0
    2.3114    0.3711    1.1655 H   0  0  0  0  0  0  0  0  0  0  0  0
    1.8142   -1.3013    1.6060 H   0  0  0  0  0  0  0  0  0  0  0  0
    2.3829   -0.3449   -1.0924 H   0  0  0  0  0  0  0  0  0  0  0  0
    1.3205   -1.8211   -0.6876 H   0  0  0  0  0  0  0  0  0  0  0  0
   -0.3024    1.5760   -1.7830 H   0  0  0  0  0  0  0  0  0  0  0  0
  1  2  1  0
  2  3  1  0
  3  4  1  0
  4  5  1  0
  5  6  1  0
  6  7  1  0
  6  2  1  0
  6  3  1  0
  1  8  1  0
  1  9  1  0
  1 10  1  0
  2 11  1  0
  3 12  1  0
  4 13  1  0
  4 14  1  0
  5 15  1  0
  5 16  1  0
  7 17  1  0
M  END
