
     RDKit          3D

 25 26  0  0  0  0  0  0  0  0999 V2000
    2.9644    0.2937    0.1286 C   0  0  0  0  0  0  0  0  0  0  0  0
    1.7865   -0.6471    0.1543 C   0  0  0  0  0  0  0  0  0  0  0  0
    0.8271   -0.2227    1.2678 C   0  0  0  0  0  0  0  0  0  0  0  0
   -0.1777    0.0916    0.1961 C   0  0  0  0  0  0  0  0  0  0  0  0
   -0.6879    1.5101    0.1801 C   0  0  0  0  0  0  0  0  0  0  0  0
   -2.0503    0.9514    0.5993 C   0  0  0  0  0  0  0  0  0  0  0  0
   -1.5137   -0.4708    0.3810 C   0  0  0  0  0  0  0  0  0  0  0  0
   -2.1916   -1.1880   -0.7200 C   0  0  0  0  0  0  0  0  0  0  0  0
    0.7094   -0.3336   -0.8848 C   0  0  0  0  0  0  0  0  0  0  0  0
    2.9353    1.0415    0.9589 H   0  0  0  0  0  0  0  0  0  0  0  0
    3.0949    0.7989   -0.8530 H   0  0  0  0  0  0  0  0  0  0  0  0
    3.8719   -0.3450    0.3374 H   0  0  0  0  0  0  0  0  0  0  0  0
    2.0124   -1.7147    0.1412 H   0  0  0  0  0  0  0  0  0  0  0  0
    0.5576   -1.0896    1.9189 H   0  0  0  0  0  0  0  0  0  0  0  0
    1.1355    0.6664    1.8300 H   0  0  0  0  0  0  0  0  0  0  0  0
   -0.6542    1.9042   -0.8503 H   0  0  0  0  0  0  0  0  0  0  0  0
   -0.2072    2.1602    0.9156 H   0  0  0  0  0  0  0  0  0  0  0  0
   -2.8011    1.2758   -0.1189 H   0  0  0  0  0  0  0  0  0  0  0  0
   -2.2190    1.1969    1.6655 H   0  0  0  0  0  0  0  0  0  0  0  0
   -1.5847   -1.0436    1.3520 H   0  0  0  0  0  0  0  0  0  0  0  0
   -2.9601   -0.5419   -1.2193 H   0  0  0  0  0  0  0  0  0  0  0  0
   -1.5452   -1.6019   -1.5002 H   0  0  0  0  0  0  0  0  0  0  0  0
   -2.7870   -2.0619   -0.3232 H   0  0  0  0  0  0  0  0  0  0  0  0
    1.0374    0.5362   -1.5166 H   0  0  0  0  0  0  0  0  0  0  0  0
    0.4475   -1.1660   -1.5311 H   0  0  0  0  0  0  0  0  0  0  0  0
  1  2  1  0
  2  3  1  0
  3  4  1  0
  4  5  1  0
  5  6  1  0
  6  7  1  0
  7  8  1  0
  4  9  1  0
  9  2  1  0
  7  4  1  0
  1 10  1  0
  1 11  1  0
  1 12  1  0
  2 13  1  0
  3 14  1  0
  3 15  1  0
  5 16  1  0
  5 17  1  0
  6 18  1  0
  6 19  1  0
  7 20  1  0
  8 21  1  0
  8 22  1  0
  8 23  1  0
  9 24  1  0
  9 25  1  0
M  END
