
     RDKit          3D

 16 17  0  0  0  0  0  0  0  0999 V2000
    1.8351    0.1812    0.0178 C   0  0  0  0  0  0  0  0  0  0  0  0
    0.5438   -0.5259   -0.2333 C   0  0  0  0  0  0  0  0  0  0  0  0
   -0.5560    0.2914   -0.8623 C   0  0  0  0  0  0  0  0  0  0  0  0
   -0.6489    1.0012    0.4598 C   0  0  0  0  0  0  0  0  0  0  0  0
   -0.4975   -0.4341    0.8453 C   0  0  0  0  0  0  0  0  0  0  0  0
   -1.4788   -0.7288   -0.2678 C   0  0  0  0  0  0  0  0  0  0  0  0
    1.8680    1.2154   -0.4108 H   0  0  0  0  0  0  0  0  0  0  0  0
    2.1114    0.1757    1.0945 H   0  0  0  0  0  0  0  0  0  0  0  0
    2.6415   -0.4291   -0.4862 H   0  0  0  0  0  0  0  0  0  0  0  0
    0.6193   -1.5141   -0.7422 H   0  0  0  0  0  0  0  0  0  0  0  0
   -0.5720    0.6874   -1.7758 H   0  0  0  0  0  0  0  0  0  0  0  0
    0.1529    1.6916    0.7147 H   0  0  0  0  0  0  0  0  0  0  0  0
   -1.6922    1.3392    0.6525 H   0  0  0  0  0  0  0  0  0  0  0  0
   -0.4818   -0.8448    1.7531 H   0  0  0  0  0  0  0  0  0  0  0  0
   -1.3590   -1.7691   -0.6071 H   0  0  0  0  0  0  0  0  0  0  0  0
   -2.4859   -0.3372   -0.1522 H   0  0  0  0  0  0  0  0  0  0  0  0
  1  2  1  0
  2  3  1  0
  3  4  1  0
  4  5  1  0
  5  6  1  0
  5  2  1  0
  6  3  1  0
  1  7  1  0
  1  8  1  0
  1  9  1  0
  2 10  1  0
  3 11  1  0
  4 12  1  0
  4 13  1  0
  5 14  1  0
  6 15  1  0
  6 16  1  0
M  END
