
     RDKit          3D

 19 21  0  0  0  0  0  0  0  0999 V2000
    2.6515   -0.0511    0.0876 C   0  0  0  0  0  0  0  0  0  0  0  0
    1.3047    0.2350   -0.4797 C   0  0  0  0  0  0  0  0  0  0  0  0
    0.2147    0.3727    0.5442 C   0  0  0  0  0  0  0  0  0  0  0  0
   -1.0086    1.1266    0.1186 C   0  0  0  0  0  0  0  0  0  0  0  0
   -2.2358    0.3509    0.4842 C   0  0  0  0  0  0  0  0  0  0  0  0
   -2.1961   -0.7221   -0.3033 C   0  0  0  0  0  0  0  0  0  0  0  0
   -1.0309   -0.5278   -1.2111 C   0  0  0  0  0  0  0  0  0  0  0  0
   -0.9960    0.8873   -1.2776 O   0  0  0  0  0  0  0  0  0  0  0  0
    0.2591   -0.8009   -0.4923 C   0  0  0  0  0  0  0  0  0  0  0  0
    2.5408   -0.7055    1.0004 H   0  0  0  0  0  0  0  0  0  0  0  0
    3.0700    0.9019    0.4752 H   0  0  0  0  0  0  0  0  0  0  0  0
    3.3303   -0.5820   -0.5815 H   0  0  0  0  0  0  0  0  0  0  0  0
    1.3174    1.0147   -1.2952 H   0  0  0  0  0  0  0  0  0  0  0  0
    0.3671    0.0779    1.5875 H   0  0  0  0  0  0  0  0  0  0  0  0
   -1.0433    2.1685    0.3779 H   0  0  0  0  0  0  0  0  0  0  0  0
   -3.0050    0.5745    1.2147 H   0  0  0  0  0  0  0  0  0  0  0  0
   -2.9080   -1.5379   -0.2370 H   0  0  0  0  0  0  0  0  0  0  0  0
   -1.1310   -0.9919   -2.1777 H   0  0  0  0  0  0  0  0  0  0  0  0
    0.4993   -1.7906   -0.0996 H   0  0  0  0  0  0  0  0  0  0  0  0
  1  2  1  0
  2  3  1  0
  3  4  1  0
  4  5  1  0
  5  6  2  0
  6  7  1  0
  7  8  1  0
  7  9  1  0
  9  2  1  0
  9  3  1  0
  8  4  1  0
  1 10  1  0
  1 11  1  0
  1 12  1  0
  2 13  1  0
  3 14  1  0
  4 15  1  0
  5 16  1  0
  6 17  1  0
  7 18  1  0
  9 19  1  0
M  END
