
     RDKit          3D

 21 21  0  0  0  0  0  0  0  0999 V2000
    1.9799   -0.3430    0.8001 C   0  0  0  0  0  0  0  0  0  0  0  0
    0.9842   -0.8378   -0.2258 C   0  0  0  0  0  0  0  0  0  0  0  0
   -0.1231   -1.5561    0.4730 C   0  0  0  0  0  0  0  0  0  0  0  0
   -0.3388   -2.6701    0.9169 O   0  0  0  0  0  0  0  0  0  0  0  0
   -0.9151   -0.2816    0.4078 C   0  0  0  0  0  0  0  0  0  0  0  0
   -2.3223   -0.6386   -0.0807 C   0  0  0  0  0  0  0  0  0  0  0  0
   -0.0231    0.1676   -0.6930 C   0  0  0  0  0  0  0  0  0  0  0  0
    0.5148    1.5630   -0.6205 C   0  0  0  0  0  0  0  0  0  0  0  0
   -0.4027    2.5190   -1.0497 O   0  0  0  0  0  0  0  0  0  0  0  0
    2.3626   -1.2687    1.3202 H   0  0  0  0  0  0  0  0  0  0  0  0
    1.4929    0.2552    1.5699 H   0  0  0  0  0  0  0  0  0  0  0  0
    2.8585    0.1388    0.3554 H   0  0  0  0  0  0  0  0  0  0  0  0
    1.4604   -1.4117   -1.0251 H   0  0  0  0  0  0  0  0  0  0  0  0
   -0.8996    0.2997    1.3429 H   0  0  0  0  0  0  0  0  0  0  0  0
   -2.8173   -1.1683    0.7661 H   0  0  0  0  0  0  0  0  0  0  0  0
   -2.8779    0.2413   -0.4064 H   0  0  0  0  0  0  0  0  0  0  0  0
   -2.1730   -1.3886   -0.8954 H   0  0  0  0  0  0  0  0  0  0  0  0
   -0.3997   -0.0977   -1.6937 H   0  0  0  0  0  0  0  0  0  0  0  0
    0.9252    1.7989    0.3629 H   0  0  0  0  0  0  0  0  0  0  0  0
    1.3623    1.6090   -1.3670 H   0  0  0  0  0  0  0  0  0  0  0  0
   -0.6481    3.0696   -0.2578 H   0  0  0  0  0  0  0  0  0  0  0  0
  1  2  1  0
  2  3  1  0
  3  4  2  0
  3  5  1  0
  5  6  1  0
  5  7  1  0
  7  8  1  0
  8  9  1  0
  7  2  1  0
  1 10  1  0
  1 11  1  0
  1 12  1  0
  2 13  1  0
  5 14  1  0
  6 15  1  0
  6 16  1  0
  6 17  1  0
  7 18  1  0
  8 19  1  0
  8 20  1  0
  9 21  1  0
M  END
