
     RDKit          3D

 22 23  0  0  0  0  0  0  0  0999 V2000
   -1.7877   -1.5369   -0.3489 C   0  0  0  0  0  0  0  0  0  0  0  0
   -0.7891   -0.4346   -0.4779 C   0  0  0  0  0  0  0  0  0  0  0  0
   -1.4631    0.9504   -0.3543 C   0  0  0  0  0  0  0  0  0  0  0  0
   -0.3977    1.8349    0.3279 C   0  0  0  0  0  0  0  0  0  0  0  0
    0.8084    1.0165    0.0617 C   0  0  0  0  0  0  0  0  0  0  0  0
    1.5187    0.0284    0.7610 C   0  0  0  0  0  0  0  0  0  0  0  0
    2.5366   -0.8388    0.0133 C   0  0  0  0  0  0  0  0  0  0  0  0
    0.1662   -0.3084    0.6445 C   0  0  0  0  0  0  0  0  0  0  0  0
   -1.6407   -2.1412    0.5747 H   0  0  0  0  0  0  0  0  0  0  0  0
   -1.6723   -2.1974   -1.2575 H   0  0  0  0  0  0  0  0  0  0  0  0
   -2.8261   -1.1107   -0.3812 H   0  0  0  0  0  0  0  0  0  0  0  0
   -0.2570   -0.4209   -1.4482 H   0  0  0  0  0  0  0  0  0  0  0  0
   -1.7389    1.3287   -1.3345 H   0  0  0  0  0  0  0  0  0  0  0  0
   -2.3092    0.9044    0.3667 H   0  0  0  0  0  0  0  0  0  0  0  0
   -0.3417    2.8047   -0.2335 H   0  0  0  0  0  0  0  0  0  0  0  0
   -0.6196    2.0035    1.3775 H   0  0  0  0  0  0  0  0  0  0  0  0
    0.9819    1.0189   -1.0594 H   0  0  0  0  0  0  0  0  0  0  0  0
    1.9507    0.3019    1.7671 H   0  0  0  0  0  0  0  0  0  0  0  0
    2.5076   -1.8805    0.3245 H   0  0  0  0  0  0  0  0  0  0  0  0
    2.2717   -0.7723   -1.0708 H   0  0  0  0  0  0  0  0  0  0  0  0
    3.5450   -0.3864    0.1531 H   0  0  0  0  0  0  0  0  0  0  0  0
   -0.4435   -0.1640    1.5939 H   0  0  0  0  0  0  0  0  0  0  0  0
  1  2  1  0
  2  3  1  0
  3  4  1  0
  4  5  1  0
  5  6  1  0
  6  7  1  0
  6  8  1  0
  8  2  1  0
  8  5  1  0
  1  9  1  0
  1 10  1  0
  1 11  1  0
  2 12  1  0
  3 13  1  0
  3 14  1  0
  4 15  1  0
  4 16  1  0
  5 17  1  0
  6 18  1  0
  7 19  1  0
  7 20  1  0
  7 21  1  0
  8 22  1  0
M  END
