
     RDKit          3D

 19 20  0  0  0  0  0  0  0  0999 V2000
   -1.4344   -1.1283    0.1556 C   0  0  0  0  0  0  0  0  0  0  0  0
   -0.6831    0.0785    0.5359 C   0  0  0  0  0  0  0  0  0  0  0  0
   -1.0184    1.3098   -0.3001 C   0  0  0  0  0  0  0  0  0  0  0  0
    0.1202    2.1778    0.1096 C   0  0  0  0  0  0  0  0  0  0  0  0
    0.1229    3.4294    0.0721 O   0  0  0  0  0  0  0  0  0  0  0  0
    1.1681    1.3714    0.5359 O   0  0  0  0  0  0  0  0  0  0  0  0
    0.7852    0.0339    0.3295 C   0  0  0  0  0  0  0  0  0  0  0  0
    1.6388   -1.1106    0.4897 C   0  0  0  0  0  0  0  0  0  0  0  0
    1.3467   -0.5735   -0.9289 C   0  0  0  0  0  0  0  0  0  0  0  0
   -2.5113   -0.8595   -0.0189 H   0  0  0  0  0  0  0  0  0  0  0  0
   -1.0792   -1.6540   -0.7397 H   0  0  0  0  0  0  0  0  0  0  0  0
   -1.4616   -1.8245    1.0410 H   0  0  0  0  0  0  0  0  0  0  0  0
   -0.8989    0.3487    1.5851 H   0  0  0  0  0  0  0  0  0  0  0  0
   -1.9953    1.7251   -0.0684 H   0  0  0  0  0  0  0  0  0  0  0  0
   -0.8922    1.0602   -1.3738 H   0  0  0  0  0  0  0  0  0  0  0  0
    1.1874   -2.0926    0.6933 H   0  0  0  0  0  0  0  0  0  0  0  0
    2.6622   -1.0014    0.8761 H   0  0  0  0  0  0  0  0  0  0  0  0
    0.7156   -1.1645   -1.5822 H   0  0  0  0  0  0  0  0  0  0  0  0
    2.2273   -0.1262   -1.4119 H   0  0  0  0  0  0  0  0  0  0  0  0
  1  2  1  0
  2  3  1  0
  3  4  1  0
  4  5  2  0
  4  6  1  0
  6  7  1  0
  7  8  1  0
  8  9  1  0
  7  2  1  0
  9  7  1  0
  1 10  1  0
  1 11  1  0
  1 12  1  0
  2 13  1  0
  3 14  1  0
  3 15  1  0
  8 16  1  0
  8 17  1  0
  9 18  1  0
  9 19  1  0
M  END
