
     RDKit          3D

 17 18  0  0  0  0  0  0  0  0999 V2000
   -0.4138    1.7333   -0.2665 C   0  0  0  0  0  0  0  0  0  0  0  0
   -0.2590    0.3045   -0.7232 C   0  0  0  0  0  0  0  0  0  0  0  0
   -1.2927   -0.5993   -0.0417 C   0  0  0  0  0  0  0  0  0  0  0  0
   -1.3909   -1.7801   -0.7883 O   0  0  0  0  0  0  0  0  0  0  0  0
   -0.3025   -0.7001    1.0942 C   0  0  0  0  0  0  0  0  0  0  0  0
   -0.4852   -0.9309    2.2628 O   0  0  0  0  0  0  0  0  0  0  0  0
    0.7476   -0.4149    0.1319 C   0  0  0  0  0  0  0  0  0  0  0  0
    2.0692   -0.1306    0.2498 C   0  0  0  0  0  0  0  0  0  0  0  0
    1.5714   -1.3753   -0.3938 O   0  0  0  0  0  0  0  0  0  0  0  0
   -0.3136    1.7336    0.8445 H   0  0  0  0  0  0  0  0  0  0  0  0
   -1.4004    2.1653   -0.4940 H   0  0  0  0  0  0  0  0  0  0  0  0
    0.4233    2.3324   -0.6587 H   0  0  0  0  0  0  0  0  0  0  0  0
   -0.1909    0.1596   -1.8004 H   0  0  0  0  0  0  0  0  0  0  0  0
   -2.2326   -0.1115    0.2155 H   0  0  0  0  0  0  0  0  0  0  0  0
   -1.8578   -2.4939   -0.2880 H   0  0  0  0  0  0  0  0  0  0  0  0
    2.6907   -0.3591    1.1501 H   0  0  0  0  0  0  0  0  0  0  0  0
    2.6371    0.4670   -0.4941 H   0  0  0  0  0  0  0  0  0  0  0  0
  1  2  1  0
  2  3  1  0
  3  4  1  0
  3  5  1  0
  5  6  2  0
  5  7  1  0
  7  8  1  0
  8  9  1  0
  7  2  1  0
  9  7  1  0
  1 10  1  0
  1 11  1  0
  1 12  1  0
  2 13  1  0
  3 14  1  0
  4 15  1  0
  8 16  1  0
  8 17  1  0
M  END
