
     RDKit          3D

 20 21  0  0  0  0  0  0  0  0999 V2000
    2.6517    0.1809   -0.3514 C   0  0  0  0  0  0  0  0  0  0  0  0
    1.3685   -0.2590    0.2595 C   0  0  0  0  0  0  0  0  0  0  0  0
    0.5785    0.8801    0.8652 C   0  0  0  0  0  0  0  0  0  0  0  0
   -0.7073    0.6755    0.7193 C   0  0  0  0  0  0  0  0  0  0  0  0
   -2.2183    0.7168    0.7011 C   0  0  0  0  0  0  0  0  0  0  0  0
   -2.1926   -0.2814   -0.4833 C   0  0  0  0  0  0  0  0  0  0  0  0
   -0.8802   -0.7031    0.0729 C   0  0  0  0  0  0  0  0  0  0  0  0
    0.3362   -0.7150   -0.8081 C   0  0  0  0  0  0  0  0  0  0  0  0
    3.0185    1.0791    0.2230 H   0  0  0  0  0  0  0  0  0  0  0  0
    2.5712    0.4463   -1.4358 H   0  0  0  0  0  0  0  0  0  0  0  0
    3.4535   -0.5958   -0.1843 H   0  0  0  0  0  0  0  0  0  0  0  0
    1.4900   -1.1048    0.9266 H   0  0  0  0  0  0  0  0  0  0  0  0
    1.0695    1.7169    1.3381 H   0  0  0  0  0  0  0  0  0  0  0  0
   -2.6600    1.6488    0.3534 H   0  0  0  0  0  0  0  0  0  0  0  0
   -2.7099    0.2526    1.5524 H   0  0  0  0  0  0  0  0  0  0  0  0
   -2.1271    0.1920   -1.4610 H   0  0  0  0  0  0  0  0  0  0  0  0
   -2.9924   -1.0370   -0.4034 H   0  0  0  0  0  0  0  0  0  0  0  0
   -0.9041   -1.4805    0.8637 H   0  0  0  0  0  0  0  0  0  0  0  0
    0.5972   -1.6998   -1.2064 H   0  0  0  0  0  0  0  0  0  0  0  0
    0.2569    0.0876   -1.5416 H   0  0  0  0  0  0  0  0  0  0  0  0
  1  2  1  0
  2  3  1  0
  3  4  2  0
  4  5  1  0
  5  6  1  0
  6  7  1  0
  7  8  1  0
  8  2  1  0
  7  4  1  0
  1  9  1  0
  1 10  1  0
  1 11  1  0
  2 12  1  0
  3 13  1  0
  5 14  1  0
  5 15  1  0
  6 16  1  0
  6 17  1  0
  7 18  1  0
  8 19  1  0
  8 20  1  0
M  END
