
     RDKit          3D

 23 23  0  0  0  0  0  0  0  0999 V2000
    2.1038   -0.2220   -0.0630 C   0  0  0  0  0  0  0  0  0  0  0  0
    0.7965    0.2597    0.5860 C   0  0  0  0  0  0  0  0  0  0  0  0
    0.6526    1.6995    0.3403 C   0  0  0  0  0  0  0  0  0  0  0  0
   -0.5781    2.2159    0.1449 O   0  0  0  0  0  0  0  0  0  0  0  0
   -1.6044    1.4150   -0.1683 C   0  0  0  0  0  0  0  0  0  0  0  0
   -1.2610    0.1087   -0.8189 C   0  0  0  0  0  0  0  0  0  0  0  0
   -0.3586   -0.6020    0.1939 C   0  0  0  0  0  0  0  0  0  0  0  0
    0.0179   -1.9412   -0.3412 C   0  0  0  0  0  0  0  0  0  0  0  0
   -1.1849   -0.8172    1.3230 O   0  0  0  0  0  0  0  0  0  0  0  0
    2.1210   -0.0022   -1.1370 H   0  0  0  0  0  0  0  0  0  0  0  0
    2.8987    0.4169    0.4135 H   0  0  0  0  0  0  0  0  0  0  0  0
    2.3300   -1.2558    0.2099 H   0  0  0  0  0  0  0  0  0  0  0  0
    0.9766    0.0709    1.6865 H   0  0  0  0  0  0  0  0  0  0  0  0
    1.2946    2.0084   -0.5386 H   0  0  0  0  0  0  0  0  0  0  0  0
    1.1180    2.2682    1.2021 H   0  0  0  0  0  0  0  0  0  0  0  0
   -2.1707    1.1593    0.7758 H   0  0  0  0  0  0  0  0  0  0  0  0
   -2.3224    1.9358   -0.8678 H   0  0  0  0  0  0  0  0  0  0  0  0
   -2.2115   -0.5029   -0.8212 H   0  0  0  0  0  0  0  0  0  0  0  0
   -0.8152    0.1830   -1.8045 H   0  0  0  0  0  0  0  0  0  0  0  0
    0.1141   -2.6783    0.5099 H   0  0  0  0  0  0  0  0  0  0  0  0
   -0.8695   -2.3194   -0.9287 H   0  0  0  0  0  0  0  0  0  0  0  0
    0.8634   -1.9598   -1.0231 H   0  0  0  0  0  0  0  0  0  0  0  0
   -1.9109   -1.4405    1.1267 H   0  0  0  0  0  0  0  0  0  0  0  0
  1  2  1  0
  2  3  1  0
  3  4  1  0
  4  5  1  0
  5  6  1  0
  6  7  1  0
  7  8  1  0
  7  9  1  0
  7  2  1  0
  1 10  1  0
  1 11  1  0
  1 12  1  0
  2 13  1  0
  3 14  1  0
  3 15  1  0
  5 16  1  0
  5 17  1  0
  6 18  1  0
  6 19  1  0
  8 20  1  0
  8 21  1  0
  8 22  1  0
  9 23  1  0
M  END
