
     RDKit          3D

 21 21  0  0  0  0  0  0  0  0999 V2000
    1.7378   -0.8554    0.6795 C   0  0  0  0  0  0  0  0  0  0  0  0
    0.6980   -0.4953   -0.3404 C   0  0  0  0  0  0  0  0  0  0  0  0
   -0.3517   -1.5724   -0.5183 C   0  0  0  0  0  0  0  0  0  0  0  0
   -1.6323   -0.9729   -0.0772 C   0  0  0  0  0  0  0  0  0  0  0  0
   -2.7229   -1.4636   -0.2499 O   0  0  0  0  0  0  0  0  0  0  0  0
   -1.3353    0.2875    0.5870 C   0  0  0  0  0  0  0  0  0  0  0  0
   -0.0006    0.7494    0.0894 C   0  0  0  0  0  0  0  0  0  0  0  0
   -0.0988    1.6991   -1.0799 C   0  0  0  0  0  0  0  0  0  0  0  0
    0.6398    1.4174    1.1219 O   0  0  0  0  0  0  0  0  0  0  0  0
    1.9183   -0.0224    1.4042 H   0  0  0  0  0  0  0  0  0  0  0  0
    1.4646   -1.7403    1.2761 H   0  0  0  0  0  0  0  0  0  0  0  0
    2.6998   -1.0203    0.1637 H   0  0  0  0  0  0  0  0  0  0  0  0
    1.1726   -0.3510   -1.3544 H   0  0  0  0  0  0  0  0  0  0  0  0
   -0.4613   -1.8913   -1.5754 H   0  0  0  0  0  0  0  0  0  0  0  0
   -0.0878   -2.4813    0.0597 H   0  0  0  0  0  0  0  0  0  0  0  0
   -1.2210    0.0720    1.6901 H   0  0  0  0  0  0  0  0  0  0  0  0
   -2.1237    1.0578    0.5227 H   0  0  0  0  0  0  0  0  0  0  0  0
   -0.5768    1.2334   -1.9658 H   0  0  0  0  0  0  0  0  0  0  0  0
   -0.6170    2.6350   -0.8219 H   0  0  0  0  0  0  0  0  0  0  0  0
    0.9417    1.9512   -1.3744 H   0  0  0  0  0  0  0  0  0  0  0  0
   -0.0435    1.7634    1.7632 H   0  0  0  0  0  0  0  0  0  0  0  0
  1  2  1  0
  2  3  1  0
  3  4  1  0
  4  5  2  0
  4  6  1  0
  6  7  1  0
  7  8  1  0
  7  9  1  0
  7  2  1  0
  1 10  1  0
  1 11  1  0
  1 12  1  0
  2 13  1  0
  3 14  1  0
  3 15  1  0
  6 16  1  0
  6 17  1  0
  8 18  1  0
  8 19  1  0
  8 20  1  0
  9 21  1  0
M  END
