
     RDKit          3D

 21 22  0  0  0  0  0  0  0  0999 V2000
    3.0411    0.1538    0.3158 C   0  0  0  0  0  0  0  0  0  0  0  0
    1.7452    0.3700   -0.3875 C   0  0  0  0  0  0  0  0  0  0  0  0
    0.7658   -0.7254   -0.4039 C   0  0  0  0  0  0  0  0  0  0  0  0
   -0.5054   -0.4586   -1.1812 C   0  0  0  0  0  0  0  0  0  0  0  0
   -0.8322    0.6256   -0.1754 C   0  0  0  0  0  0  0  0  0  0  0  0
   -1.8701    0.1418    0.8024 C   0  0  0  0  0  0  0  0  0  0  0  0
   -3.1391   -0.2439    0.1390 C   0  0  0  0  0  0  0  0  0  0  0  0
   -3.3233   -0.1775   -1.0624 O   0  0  0  0  0  0  0  0  0  0  0  0
    0.5392    0.5285    0.4500 C   0  0  0  0  0  0  0  0  0  0  0  0
    3.1655   -0.8800    0.6974 H   0  0  0  0  0  0  0  0  0  0  0  0
    3.0777    0.8618    1.1871 H   0  0  0  0  0  0  0  0  0  0  0  0
    3.9286    0.3302   -0.3591 H   0  0  0  0  0  0  0  0  0  0  0  0
    1.8384    0.9535   -1.3382 H   0  0  0  0  0  0  0  0  0  0  0  0
    0.8819   -1.6543    0.1516 H   0  0  0  0  0  0  0  0  0  0  0  0
   -0.2596   -0.1119   -2.1921 H   0  0  0  0  0  0  0  0  0  0  0  0
   -1.2114   -1.3081   -1.1691 H   0  0  0  0  0  0  0  0  0  0  0  0
   -1.0515    1.5619   -0.6922 H   0  0  0  0  0  0  0  0  0  0  0  0
   -1.4603   -0.7407    1.3389 H   0  0  0  0  0  0  0  0  0  0  0  0
   -2.0283    0.9380    1.5599 H   0  0  0  0  0  0  0  0  0  0  0  0
   -3.9345   -0.6024    0.7770 H   0  0  0  0  0  0  0  0  0  0  0  0
    0.6324    0.4378    1.5417 H   0  0  0  0  0  0  0  0  0  0  0  0
  1  2  1  0
  2  3  1  0
  3  4  1  0
  4  5  1  0
  5  6  1  0
  6  7  1  0
  7  8  2  0
  5  9  1  0
  9  2  1  0
  9  3  1  0
  1 10  1  0
  1 11  1  0
  1 12  1  0
  2 13  1  0
  3 14  1  0
  4 15  1  0
  4 16  1  0
  5 17  1  0
  6 18  1  0
  6 19  1  0
  7 20  1  0
  9 21  1  0
M  END
