
     RDKit          3D

 21 22  0  0  0  0  0  0  0  0999 V2000
    0.1118    1.7937   -0.6548 C   0  0  0  0  0  0  0  0  0  0  0  0
    0.2419    0.3138   -0.9215 C   0  0  0  0  0  0  0  0  0  0  0  0
    1.0463   -0.4618    0.0723 C   0  0  0  0  0  0  0  0  0  0  0  0
    2.4097   -0.4981    0.2260 C   0  0  0  0  0  0  0  0  0  0  0  0
    0.0081   -0.1153    1.0978 C   0  0  0  0  0  0  0  0  0  0  0  0
   -0.7130   -0.4991   -0.1341 C   0  0  0  0  0  0  0  0  0  0  0  0
   -2.0733   -0.6450   -0.3262 C   0  0  0  0  0  0  0  0  0  0  0  0
   -2.6342   -1.5778    0.5790 O   0  0  0  0  0  0  0  0  0  0  0  0
    0.2167   -1.5581   -0.2529 O   0  0  0  0  0  0  0  0  0  0  0  0
    0.8708    2.1754    0.0547 H   0  0  0  0  0  0  0  0  0  0  0  0
   -0.9009    1.9726   -0.2635 H   0  0  0  0  0  0  0  0  0  0  0  0
    0.2179    2.3585   -1.5940 H   0  0  0  0  0  0  0  0  0  0  0  0
    0.3989    0.0651   -1.9788 H   0  0  0  0  0  0  0  0  0  0  0  0
    2.8471   -1.5310    0.3639 H   0  0  0  0  0  0  0  0  0  0  0  0
    2.8067    0.0731    1.1150 H   0  0  0  0  0  0  0  0  0  0  0  0
    3.0001   -0.0796   -0.6404 H   0  0  0  0  0  0  0  0  0  0  0  0
   -0.1422   -0.8816    1.9048 H   0  0  0  0  0  0  0  0  0  0  0  0
   -0.0043    0.9203    1.4284 H   0  0  0  0  0  0  0  0  0  0  0  0
   -2.6523    0.2914   -0.1983 H   0  0  0  0  0  0  0  0  0  0  0  0
   -2.3481   -1.0329   -1.3300 H   0  0  0  0  0  0  0  0  0  0  0  0
   -2.7078   -1.0836    1.4526 H   0  0  0  0  0  0  0  0  0  0  0  0
  1  2  1  0
  2  3  1  0
  3  4  1  0
  3  5  1  0
  5  6  1  0
  6  7  1  0
  7  8  1  0
  6  9  1  0
  6  2  1  0
  9  3  1  0
  1 10  1  0
  1 11  1  0
  1 12  1  0
  2 13  1  0
  4 14  1  0
  4 15  1  0
  4 16  1  0
  5 17  1  0
  5 18  1  0
  7 19  1  0
  7 20  1  0
  8 21  1  0
M  END
