
     RDKit          3D

 23 24  0  0  0  0  0  0  0  0999 V2000
    2.9120   -0.1201   -0.3835 C   0  0  0  0  0  0  0  0  0  0  0  0
    1.7604    0.4652    0.4475 C   0  0  0  0  0  0  0  0  0  0  0  0
    0.6364    0.9566   -0.2568 C   0  0  0  0  0  0  0  0  0  0  0  0
   -0.5318    1.7359    0.1362 C   0  0  0  0  0  0  0  0  0  0  0  0
   -1.7854    1.2722    0.0618 C   0  0  0  0  0  0  0  0  0  0  0  0
   -2.2799   -0.0552   -0.4044 C   0  0  0  0  0  0  0  0  0  0  0  0
   -1.6094   -1.2169    0.2511 C   0  0  0  0  0  0  0  0  0  0  0  0
   -0.1189   -1.3242   -0.0337 C   0  0  0  0  0  0  0  0  0  0  0  0
    0.5722   -0.2741    0.7190 C   0  0  0  0  0  0  0  0  0  0  0  0
    3.2108   -1.1172   -0.0061 H   0  0  0  0  0  0  0  0  0  0  0  0
    2.5839   -0.2397   -1.4445 H   0  0  0  0  0  0  0  0  0  0  0  0
    3.7859    0.5321   -0.3961 H   0  0  0  0  0  0  0  0  0  0  0  0
    2.1966    1.0980    1.2700 H   0  0  0  0  0  0  0  0  0  0  0  0
    0.5714    0.6976   -1.3583 H   0  0  0  0  0  0  0  0  0  0  0  0
   -0.4185    2.7239    0.5039 H   0  0  0  0  0  0  0  0  0  0  0  0
   -2.5599    1.9808    0.3957 H   0  0  0  0  0  0  0  0  0  0  0  0
   -2.0048   -0.1016   -1.4996 H   0  0  0  0  0  0  0  0  0  0  0  0
   -3.3500   -0.1365   -0.2400 H   0  0  0  0  0  0  0  0  0  0  0  0
   -2.1479   -2.1387    0.0661 H   0  0  0  0  0  0  0  0  0  0  0  0
   -1.6746   -1.0363    1.3653 H   0  0  0  0  0  0  0  0  0  0  0  0
    0.1756   -2.3639    0.2279 H   0  0  0  0  0  0  0  0  0  0  0  0
   -0.0178   -1.2566   -1.1476 H   0  0  0  0  0  0  0  0  0  0  0  0
    0.0937   -0.0814    1.7260 H   0  0  0  0  0  0  0  0  0  0  0  0
  1  2  1  0
  2  3  1  0
  3  4  1  0
  4  5  2  0
  5  6  1  0
  6  7  1  0
  7  8  1  0
  8  9  1  0
  9  2  1  0
  9  3  1  0
  1 10  1  0
  1 11  1  0
  1 12  1  0
  2 13  1  0
  3 14  1  0
  4 15  1  0
  5 16  1  0
  6 17  1  0
  6 18  1  0
  7 19  1  0
  7 20  1  0
  8 21  1  0
  8 22  1  0
  9 23  1  0
M  END
