
     RDKit          3D

 19 20  0  0  0  0  0  0  0  0999 V2000
    2.1122    0.3910    0.5229 C   0  0  0  0  0  0  0  0  0  0  0  0
    0.8667   -0.2629    0.0451 C   0  0  0  0  0  0  0  0  0  0  0  0
    0.1353    0.5443   -0.9873 C   0  0  0  0  0  0  0  0  0  0  0  0
    0.6100    1.0247   -1.9938 O   0  0  0  0  0  0  0  0  0  0  0  0
   -1.2738    0.6186   -0.5038 C   0  0  0  0  0  0  0  0  0  0  0  0
   -0.9843    0.8095    0.9993 C   0  0  0  0  0  0  0  0  0  0  0  0
   -0.1707   -0.4910    1.0939 C   0  0  0  0  0  0  0  0  0  0  0  0
   -1.2265   -1.4021    0.4668 C   0  0  0  0  0  0  0  0  0  0  0  0
   -1.8777   -0.6310   -0.4802 O   0  0  0  0  0  0  0  0  0  0  0  0
    1.9916    0.8727    1.5041 H   0  0  0  0  0  0  0  0  0  0  0  0
    2.5309    1.1496   -0.1839 H   0  0  0  0  0  0  0  0  0  0  0  0
    2.8798   -0.4222    0.6800 H   0  0  0  0  0  0  0  0  0  0  0  0
    1.1037   -1.2391   -0.4570 H   0  0  0  0  0  0  0  0  0  0  0  0
   -1.8658    1.4061   -0.9238 H   0  0  0  0  0  0  0  0  0  0  0  0
   -1.9376    0.7381    1.5182 H   0  0  0  0  0  0  0  0  0  0  0  0
   -0.3861    1.6921    1.1821 H   0  0  0  0  0  0  0  0  0  0  0  0
    0.1412   -0.7538    2.0694 H   0  0  0  0  0  0  0  0  0  0  0  0
   -0.7304   -2.2413   -0.0255 H   0  0  0  0  0  0  0  0  0  0  0  0
   -1.9186   -1.8035    1.2370 H   0  0  0  0  0  0  0  0  0  0  0  0
  1  2  1  0
  2  3  1  0
  3  4  2  0
  3  5  1  0
  5  6  1  0
  6  7  1  0
  7  8  1  0
  8  9  1  0
  7  2  1  0
  9  5  1  0
  1 10  1  0
  1 11  1  0
  1 12  1  0
  2 13  1  0
  5 14  1  0
  6 15  1  0
  6 16  1  0
  7 17  1  0
  8 18  1  0
  8 19  1  0
M  END
