
     RDKit          3D

 25 26  0  0  0  0  0  0  0  0999 V2000
    2.2414    0.7177    0.4340 C   0  0  0  0  0  0  0  0  0  0  0  0
    1.4032   -0.0942   -0.5623 C   0  0  0  0  0  0  0  0  0  0  0  0
    1.0858   -1.3962    0.1192 C   0  0  0  0  0  0  0  0  0  0  0  0
    0.1641   -1.0863    1.2594 C   0  0  0  0  0  0  0  0  0  0  0  0
   -1.0962   -0.4191    0.8274 C   0  0  0  0  0  0  0  0  0  0  0  0
   -1.6974   -0.9800   -0.4549 C   0  0  0  0  0  0  0  0  0  0  0  0
   -1.0667    0.3710   -0.3784 C   0  0  0  0  0  0  0  0  0  0  0  0
   -2.0871    1.5167   -0.4529 C   0  0  0  0  0  0  0  0  0  0  0  0
    0.2247    0.6707   -1.0221 C   0  0  0  0  0  0  0  0  0  0  0  0
    2.8735    0.0037    1.0234 H   0  0  0  0  0  0  0  0  0  0  0  0
    2.9647    1.3667   -0.1053 H   0  0  0  0  0  0  0  0  0  0  0  0
    1.6096    1.3194    1.1039 H   0  0  0  0  0  0  0  0  0  0  0  0
    2.0835   -0.2649   -1.4326 H   0  0  0  0  0  0  0  0  0  0  0  0
    2.0459   -1.7674    0.5753 H   0  0  0  0  0  0  0  0  0  0  0  0
    0.7448   -2.1754   -0.5559 H   0  0  0  0  0  0  0  0  0  0  0  0
    0.7132   -0.3524    1.9204 H   0  0  0  0  0  0  0  0  0  0  0  0
   -0.0073   -1.9710    1.8864 H   0  0  0  0  0  0  0  0  0  0  0  0
   -1.7943   -0.1860    1.6697 H   0  0  0  0  0  0  0  0  0  0  0  0
   -1.2237   -1.8232   -0.9585 H   0  0  0  0  0  0  0  0  0  0  0  0
   -2.8179   -1.0714   -0.4209 H   0  0  0  0  0  0  0  0  0  0  0  0
   -2.9565    1.2534    0.1615 H   0  0  0  0  0  0  0  0  0  0  0  0
   -2.4173    1.5663   -1.5023 H   0  0  0  0  0  0  0  0  0  0  0  0
   -1.5597    2.4297   -0.1434 H   0  0  0  0  0  0  0  0  0  0  0  0
    0.4507    1.7645   -0.8454 H   0  0  0  0  0  0  0  0  0  0  0  0
    0.1189    0.6078   -2.1459 H   0  0  0  0  0  0  0  0  0  0  0  0
  1  2  1  0
  2  3  1  0
  3  4  1  0
  4  5  1  0
  5  6  1  0
  6  7  1  0
  7  8  1  0
  7  9  1  0
  9  2  1  0
  7  5  1  0
  1 10  1  0
  1 11  1  0
  1 12  1  0
  2 13  1  0
  3 14  1  0
  3 15  1  0
  4 16  1  0
  4 17  1  0
  5 18  1  0
  6 19  1  0
  6 20  1  0
  8 21  1  0
  8 22  1  0
  8 23  1  0
  9 24  1  0
  9 25  1  0
M  END
