
     RDKit          3D

 23 25  0  0  0  0  0  0  0  0999 V2000
    2.7401    0.4944   -0.0938 C   0  0  0  0  0  0  0  0  0  0  0  0
    1.6344   -0.4442    0.0546 C   0  0  0  0  0  0  0  0  0  0  0  0
    0.4552   -0.3354   -0.8815 C   0  0  0  0  0  0  0  0  0  0  0  0
   -0.2333   -1.1683    0.1582 C   0  0  0  0  0  0  0  0  0  0  0  0
   -1.7036   -1.1441    0.1376 C   0  0  0  0  0  0  0  0  0  0  0  0
   -2.2390    0.0445   -0.6586 C   0  0  0  0  0  0  0  0  0  0  0  0
   -1.3900    1.2266   -0.1703 C   0  0  0  0  0  0  0  0  0  0  0  0
    0.0531    0.8683   -0.0991 C   0  0  0  0  0  0  0  0  0  0  0  0
    0.4837   -0.1036    0.9491 C   0  0  0  0  0  0  0  0  0  0  0  0
    3.0720    0.8728    0.9149 H   0  0  0  0  0  0  0  0  0  0  0  0
    3.6281   -0.0592   -0.5074 H   0  0  0  0  0  0  0  0  0  0  0  0
    2.5972    1.3620   -0.7380 H   0  0  0  0  0  0  0  0  0  0  0  0
    1.9540   -1.5065    0.1180 H   0  0  0  0  0  0  0  0  0  0  0  0
    0.4633   -0.4711   -1.8719 H   0  0  0  0  0  0  0  0  0  0  0  0
    0.2570   -2.1661    0.2314 H   0  0  0  0  0  0  0  0  0  0  0  0
   -2.1282   -2.0940   -0.1725 H   0  0  0  0  0  0  0  0  0  0  0  0
   -2.0672   -0.9652    1.1917 H   0  0  0  0  0  0  0  0  0  0  0  0
   -3.2884    0.2501   -0.4254 H   0  0  0  0  0  0  0  0  0  0  0  0
   -2.1355   -0.1029   -1.7336 H   0  0  0  0  0  0  0  0  0  0  0  0
   -1.8029    1.6463    0.7658 H   0  0  0  0  0  0  0  0  0  0  0  0
   -1.5083    2.0147   -0.9426 H   0  0  0  0  0  0  0  0  0  0  0  0
    0.6723    1.7743   -0.2031 H   0  0  0  0  0  0  0  0  0  0  0  0
    0.4858    0.0065    1.9436 H   0  0  0  0  0  0  0  0  0  0  0  0
  1  2  1  0
  2  3  1  0
  3  4  1  0
  4  5  1  0
  5  6  1  0
  6  7  1  0
  7  8  1  0
  8  9  1  0
  9  2  1  0
  8  3  1  0
  9  4  1  0
  1 10  1  0
  1 11  1  0
  1 12  1  0
  2 13  1  0
  3 14  1  0
  4 15  1  0
  5 16  1  0
  5 17  1  0
  6 18  1  0
  6 19  1  0
  7 20  1  0
  7 21  1  0
  8 22  1  0
  9 23  1  0
M  END
