
     RDKit          3D

 19 19  0  0  0  0  0  0  0  0999 V2000
    2.3765   -0.6322    0.5700 C   0  0  0  0  0  0  0  0  0  0  0  0
    1.0588   -0.4034   -0.1520 C   0  0  0  0  0  0  0  0  0  0  0  0
    0.7739    1.0217   -0.2896 C   0  0  0  0  0  0  0  0  0  0  0  0
   -0.6081    1.4777   -0.2060 C   0  0  0  0  0  0  0  0  0  0  0  0
   -1.8031    0.9307   -0.2862 C   0  0  0  0  0  0  0  0  0  0  0  0
   -2.1029   -0.4999   -0.5159 C   0  0  0  0  0  0  0  0  0  0  0  0
   -1.2697   -1.3121    0.4002 C   0  0  0  0  0  0  0  0  0  0  0  0
   -1.8779   -2.1444    1.1135 O   0  0  0  0  0  0  0  0  0  0  0  0
    0.1058   -1.1931    0.4969 O   0  0  0  0  0  0  0  0  0  0  0  0
    2.2619   -0.1333    1.5674 H   0  0  0  0  0  0  0  0  0  0  0  0
    3.2367   -0.2396    0.0133 H   0  0  0  0  0  0  0  0  0  0  0  0
    2.5076   -1.7161    0.8051 H   0  0  0  0  0  0  0  0  0  0  0  0
    1.1997   -0.8657   -1.1727 H   0  0  0  0  0  0  0  0  0  0  0  0
    1.3588    1.5877    0.4969 H   0  0  0  0  0  0  0  0  0  0  0  0
    1.1977    1.4104   -1.2558 H   0  0  0  0  0  0  0  0  0  0  0  0
   -0.6733    2.5700   -0.0298 H   0  0  0  0  0  0  0  0  0  0  0  0
   -2.6463    1.6102   -0.1702 H   0  0  0  0  0  0  0  0  0  0  0  0
   -1.9342   -0.7843   -1.5731 H   0  0  0  0  0  0  0  0  0  0  0  0
   -3.1619   -0.6842   -0.2993 H   0  0  0  0  0  0  0  0  0  0  0  0
  1  2  1  0
  2  3  1  0
  3  4  1  0
  4  5  2  0
  5  6  1  0
  6  7  1  0
  7  8  2  0
  7  9  1  0
  9  2  1  0
  1 10  1  0
  1 11  1  0
  1 12  1  0
  2 13  1  0
  3 14  1  0
  3 15  1  0
  4 16  1  0
  5 17  1  0
  6 18  1  0
  6 19  1  0
M  END
