
     RDKit          3D

 21 22  0  0  0  0  0  0  0  0999 V2000
   -2.6426   -0.4065    0.5242 C   0  0  0  0  0  0  0  0  0  0  0  0
   -1.4061   -0.9061   -0.1554 C   0  0  0  0  0  0  0  0  0  0  0  0
   -0.6897   -0.0533   -1.1485 C   0  0  0  0  0  0  0  0  0  0  0  0
   -0.0573   -0.4662    0.1819 C   0  0  0  0  0  0  0  0  0  0  0  0
    0.2218    0.7139    1.0799 C   0  0  0  0  0  0  0  0  0  0  0  0
    1.3230    1.4721    0.4207 C   0  0  0  0  0  0  0  0  0  0  0  0
    2.1949    0.7618   -0.2879 C   0  0  0  0  0  0  0  0  0  0  0  0
    2.1266   -0.7133   -0.4504 C   0  0  0  0  0  0  0  0  0  0  0  0
    1.0373   -1.2851    0.1758 O   0  0  0  0  0  0  0  0  0  0  0  0
   -3.4660   -0.3361   -0.2347 H   0  0  0  0  0  0  0  0  0  0  0  0
   -2.5171    0.5428    1.0572 H   0  0  0  0  0  0  0  0  0  0  0  0
   -2.9755   -1.2117    1.2301 H   0  0  0  0  0  0  0  0  0  0  0  0
   -1.4955   -1.9840   -0.4816 H   0  0  0  0  0  0  0  0  0  0  0  0
   -1.0673    0.9596   -1.2722 H   0  0  0  0  0  0  0  0  0  0  0  0
   -0.1871   -0.4735   -2.0228 H   0  0  0  0  0  0  0  0  0  0  0  0
    0.6556    0.3327    2.0455 H   0  0  0  0  0  0  0  0  0  0  0  0
   -0.6479    1.3165    1.3189 H   0  0  0  0  0  0  0  0  0  0  0  0
    1.4225    2.5532    0.5053 H   0  0  0  0  0  0  0  0  0  0  0  0
    3.0117    1.2959   -0.7810 H   0  0  0  0  0  0  0  0  0  0  0  0
    2.0632   -1.0020   -1.5349 H   0  0  0  0  0  0  0  0  0  0  0  0
    3.0955   -1.1108   -0.0305 H   0  0  0  0  0  0  0  0  0  0  0  0
  1  2  1  0
  2  3  1  0
  3  4  1  0
  4  5  1  0
  5  6  1  0
  6  7  2  0
  7  8  1  0
  8  9  1  0
  4  2  1  0
  9  4  1  0
  1 10  1  0
  1 11  1  0
  1 12  1  0
  2 13  1  0
  3 14  1  0
  3 15  1  0
  5 16  1  0
  5 17  1  0
  6 18  1  0
  7 19  1  0
  8 20  1  0
  8 21  1  0
M  END
