
     RDKit          3D

 17 18  0  0  0  0  0  0  0  0999 V2000
   -1.9821    0.0560    0.2151 C   0  0  0  0  0  0  0  0  0  0  0  0
   -0.5106   -0.1889    0.5109 C   0  0  0  0  0  0  0  0  0  0  0  0
    0.1411   -1.0520   -0.5426 C   0  0  0  0  0  0  0  0  0  0  0  0
    1.5692   -0.6381   -0.6213 C   0  0  0  0  0  0  0  0  0  0  0  0
    1.9625    0.5214   -1.2423 O   0  0  0  0  0  0  0  0  0  0  0  0
    1.6137    0.7070    0.0767 C   0  0  0  0  0  0  0  0  0  0  0  0
    0.1982    1.1342    0.3069 C   0  0  0  0  0  0  0  0  0  0  0  0
   -2.2587    1.0882    0.5520 H   0  0  0  0  0  0  0  0  0  0  0  0
   -2.5864   -0.7166    0.7483 H   0  0  0  0  0  0  0  0  0  0  0  0
   -2.1070   -0.0014   -0.8893 H   0  0  0  0  0  0  0  0  0  0  0  0
   -0.3556   -0.5386    1.5323 H   0  0  0  0  0  0  0  0  0  0  0  0
   -0.3824   -0.9693   -1.5104 H   0  0  0  0  0  0  0  0  0  0  0  0
    0.1253   -2.1097   -0.1460 H   0  0  0  0  0  0  0  0  0  0  0  0
    2.3905   -1.3647   -0.4530 H   0  0  0  0  0  0  0  0  0  0  0  0
    2.3657    0.7571    0.8753 H   0  0  0  0  0  0  0  0  0  0  0  0
    0.0376    1.7349    1.2062 H   0  0  0  0  0  0  0  0  0  0  0  0
   -0.2210    1.5805   -0.6186 H   0  0  0  0  0  0  0  0  0  0  0  0
  1  2  1  0
  2  3  1  0
  3  4  1  0
  4  5  1  0
  5  6  1  0
  6  7  1  0
  7  2  1  0
  6  4  1  0
  1  8  1  0
  1  9  1  0
  1 10  1  0
  2 11  1  0
  3 12  1  0
  3 13  1  0
  4 14  1  0
  6 15  1  0
  7 16  1  0
  7 17  1  0
M  END
