
     RDKit          3D

 22 23  0  0  0  0  0  0  0  0999 V2000
    2.4392    0.1096    0.1187 C   0  0  0  0  0  0  0  0  0  0  0  0
    0.9591    0.1322    0.4810 C   0  0  0  0  0  0  0  0  0  0  0  0
    0.3475    1.2235   -0.4148 C   0  0  0  0  0  0  0  0  0  0  0  0
   -1.0065    1.5143    0.1743 C   0  0  0  0  0  0  0  0  0  0  0  0
   -1.8122    0.2664    0.1954 C   0  0  0  0  0  0  0  0  0  0  0  0
   -1.1324   -0.9624   -0.2456 C   0  0  0  0  0  0  0  0  0  0  0  0
   -0.6600   -1.8657    0.9166 C   0  0  0  0  0  0  0  0  0  0  0  0
    0.2751   -1.1401    0.0781 C   0  0  0  0  0  0  0  0  0  0  0  0
    2.4656   -0.0222   -0.9981 H   0  0  0  0  0  0  0  0  0  0  0  0
    2.8713    1.1030    0.3101 H   0  0  0  0  0  0  0  0  0  0  0  0
    2.9785   -0.7242    0.5555 H   0  0  0  0  0  0  0  0  0  0  0  0
    0.7961    0.4111    1.5413 H   0  0  0  0  0  0  0  0  0  0  0  0
    0.1522    0.7541   -1.4230 H   0  0  0  0  0  0  0  0  0  0  0  0
    1.0002    2.0940   -0.5003 H   0  0  0  0  0  0  0  0  0  0  0  0
   -0.8521    1.9369    1.2086 H   0  0  0  0  0  0  0  0  0  0  0  0
   -1.4513    2.3447   -0.4086 H   0  0  0  0  0  0  0  0  0  0  0  0
   -2.2487    0.1671    1.2327 H   0  0  0  0  0  0  0  0  0  0  0  0
   -2.7203    0.4452   -0.4524 H   0  0  0  0  0  0  0  0  0  0  0  0
   -1.5571   -1.5020   -1.1428 H   0  0  0  0  0  0  0  0  0  0  0  0
   -0.9395   -1.5905    1.9327 H   0  0  0  0  0  0  0  0  0  0  0  0
   -0.7812   -2.9620    0.7142 H   0  0  0  0  0  0  0  0  0  0  0  0
    0.8767   -1.7329   -0.6727 H   0  0  0  0  0  0  0  0  0  0  0  0
  1  2  1  0
  2  3  1  0
  3  4  1  0
  4  5  1  0
  5  6  1  0
  6  7  1  0
  7  8  1  0
  8  2  1  0
  8  6  1  0
  1  9  1  0
  1 10  1  0
  1 11  1  0
  2 12  1  0
  3 13  1  0
  3 14  1  0
  4 15  1  0
  4 16  1  0
  5 17  1  0
  5 18  1  0
  6 19  1  0
  7 20  1  0
  7 21  1  0
  8 22  1  0
M  END
