
     RDKit          3D

 23 24  0  0  0  0  0  0  0  0999 V2000
    1.9569   -0.2230    1.0964 C   0  0  0  0  0  0  0  0  0  0  0  0
    1.1509   -0.2242   -0.1464 C   0  0  0  0  0  0  0  0  0  0  0  0
    0.1742   -1.4033   -0.2202 C   0  0  0  0  0  0  0  0  0  0  0  0
   -1.1148   -0.8690   -0.7358 C   0  0  0  0  0  0  0  0  0  0  0  0
   -1.8554   -0.2391    0.4394 C   0  0  0  0  0  0  0  0  0  0  0  0
   -0.8298    0.8184    0.8653 C   0  0  0  0  0  0  0  0  0  0  0  0
    0.1651    0.9330   -0.2325 C   0  0  0  0  0  0  0  0  0  0  0  0
    0.7253    2.1407   -0.4361 O   0  0  0  0  0  0  0  0  0  0  0  0
   -0.6556    0.4211   -1.4314 C   0  0  0  0  0  0  0  0  0  0  0  0
    1.9841    0.7633    1.6015 H   0  0  0  0  0  0  0  0  0  0  0  0
    3.0296   -0.4276    0.8074 H   0  0  0  0  0  0  0  0  0  0  0  0
    1.6872   -0.9864    1.8370 H   0  0  0  0  0  0  0  0  0  0  0  0
    1.7248   -0.2530   -1.0856 H   0  0  0  0  0  0  0  0  0  0  0  0
    0.0271   -1.7115    0.8534 H   0  0  0  0  0  0  0  0  0  0  0  0
    0.5899   -2.2511   -0.7733 H   0  0  0  0  0  0  0  0  0  0  0  0
   -1.7086   -1.5063   -1.3509 H   0  0  0  0  0  0  0  0  0  0  0  0
   -2.0762   -0.9505    1.2328 H   0  0  0  0  0  0  0  0  0  0  0  0
   -2.7676    0.2527    0.0174 H   0  0  0  0  0  0  0  0  0  0  0  0
   -1.3919    1.7356    1.0804 H   0  0  0  0  0  0  0  0  0  0  0  0
   -0.4189    0.4574    1.8290 H   0  0  0  0  0  0  0  0  0  0  0  0
    1.0795    2.1869   -1.3667 H   0  0  0  0  0  0  0  0  0  0  0  0
   -1.4799    1.1098   -1.6066 H   0  0  0  0  0  0  0  0  0  0  0  0
    0.0041    0.2262   -2.2743 H   0  0  0  0  0  0  0  0  0  0  0  0
  1  2  1  0
  2  3  1  0
  3  4  1  0
  4  5  1  0
  5  6  1  0
  6  7  1  0
  7  8  1  0
  7  9  1  0
  7  2  1  0
  9  4  1  0
  1 10  1  0
  1 11  1  0
  1 12  1  0
  2 13  1  0
  3 14  1  0
  3 15  1  0
  4 16  1  0
  5 17  1  0
  5 18  1  0
  6 19  1  0
  6 20  1  0
  8 21  1  0
  9 22  1  0
  9 23  1  0
M  END
