
     RDKit          3D

 23 24  0  0  0  0  0  0  0  0999 V2000
    2.0993    0.9647    0.1058 C   0  0  0  0  0  0  0  0  0  0  0  0
    0.9395    0.3933   -0.6454 C   0  0  0  0  0  0  0  0  0  0  0  0
   -0.4493    0.6702   -0.3078 C   0  0  0  0  0  0  0  0  0  0  0  0
   -0.9099    1.4077    0.8919 C   0  0  0  0  0  0  0  0  0  0  0  0
   -1.5100    0.0150   -1.1408 C   0  0  0  0  0  0  0  0  0  0  0  0
   -0.9114   -1.3451   -0.8450 C   0  0  0  0  0  0  0  0  0  0  0  0
   -0.4380   -2.0380   -1.9434 O   0  0  0  0  0  0  0  0  0  0  0  0
    0.1777   -0.7155   -0.0251 C   0  0  0  0  0  0  0  0  0  0  0  0
    0.3359   -1.0923    1.4117 C   0  0  0  0  0  0  0  0  0  0  0  0
    3.0536    0.7274   -0.4194 H   0  0  0  0  0  0  0  0  0  0  0  0
    2.0425    2.0539    0.2734 H   0  0  0  0  0  0  0  0  0  0  0  0
    2.2111    0.4988    1.1223 H   0  0  0  0  0  0  0  0  0  0  0  0
    1.1509    0.2300   -1.7437 H   0  0  0  0  0  0  0  0  0  0  0  0
   -0.1099    1.7819    1.5432 H   0  0  0  0  0  0  0  0  0  0  0  0
   -1.5016    0.6854    1.5275 H   0  0  0  0  0  0  0  0  0  0  0  0
   -1.6252    2.1965    0.5979 H   0  0  0  0  0  0  0  0  0  0  0  0
   -2.5404    0.0894   -0.7278 H   0  0  0  0  0  0  0  0  0  0  0  0
   -1.4096    0.3342   -2.2041 H   0  0  0  0  0  0  0  0  0  0  0  0
   -1.5984   -2.0078   -0.2634 H   0  0  0  0  0  0  0  0  0  0  0  0
    0.0509   -1.4426   -2.5506 H   0  0  0  0  0  0  0  0  0  0  0  0
    1.1371   -1.8075    1.5954 H   0  0  0  0  0  0  0  0  0  0  0  0
   -0.6691   -1.4674    1.7611 H   0  0  0  0  0  0  0  0  0  0  0  0
    0.4741   -0.1321    1.9865 H   0  0  0  0  0  0  0  0  0  0  0  0
  1  2  1  0
  2  3  1  0
  3  4  1  0
  3  5  1  0
  5  6  1  0
  6  7  1  0
  6  8  1  0
  8  9  1  0
  8  2  1  0
  8  3  1  0
  1 10  1  0
  1 11  1  0
  1 12  1  0
  2 13  1  0
  4 14  1  0
  4 15  1  0
  4 16  1  0
  5 17  1  0
  5 18  1  0
  6 19  1  0
  7 20  1  0
  9 21  1  0
  9 22  1  0
  9 23  1  0
M  END
