
     RDKit          3D

 19 19  0  0  0  0  0  0  0  0999 V2000
    1.7319   -0.8470   -0.5569 C   0  0  0  0  0  0  0  0  0  0  0  0
    0.5613   -0.4767    0.3184 C   0  0  0  0  0  0  0  0  0  0  0  0
    0.8366    0.8464    0.9988 C   0  0  0  0  0  0  0  0  0  0  0  0
   -0.2885    1.6294    0.8077 O   0  0  0  0  0  0  0  0  0  0  0  0
   -0.7817    1.3327   -0.4585 C   0  0  0  0  0  0  0  0  0  0  0  0
   -0.6525   -0.1671   -0.5088 C   0  0  0  0  0  0  0  0  0  0  0  0
   -1.8506   -0.7670    0.1834 C   0  0  0  0  0  0  0  0  0  0  0  0
    2.6193   -0.2367   -0.2313 H   0  0  0  0  0  0  0  0  0  0  0  0
    1.5123   -0.5645   -1.5948 H   0  0  0  0  0  0  0  0  0  0  0  0
    2.0205   -1.8957   -0.4112 H   0  0  0  0  0  0  0  0  0  0  0  0
    0.3682   -1.2213    1.1063 H   0  0  0  0  0  0  0  0  0  0  0  0
    1.0682    0.7124    2.0618 H   0  0  0  0  0  0  0  0  0  0  0  0
    1.6903    1.3483    0.4754 H   0  0  0  0  0  0  0  0  0  0  0  0
   -1.8215    1.6895   -0.5257 H   0  0  0  0  0  0  0  0  0  0  0  0
   -0.1396    1.8234   -1.2288 H   0  0  0  0  0  0  0  0  0  0  0  0
   -0.5761   -0.4832   -1.5564 H   0  0  0  0  0  0  0  0  0  0  0  0
   -1.7272   -0.5783    1.2737 H   0  0  0  0  0  0  0  0  0  0  0  0
   -1.8046   -1.8535    0.0420 H   0  0  0  0  0  0  0  0  0  0  0  0
   -2.7666   -0.2912   -0.1954 H   0  0  0  0  0  0  0  0  0  0  0  0
  1  2  1  0
  2  3  1  0
  3  4  1  0
  4  5  1  0
  5  6  1  0
  6  7  1  0
  6  2  1  0
  1  8  1  0
  1  9  1  0
  1 10  1  0
  2 11  1  0
  3 12  1  0
  3 13  1  0
  5 14  1  0
  5 15  1  0
  6 16  1  0
  7 17  1  0
  7 18  1  0
  7 19  1  0
M  END
