
     RDKit          3D

 23 23  0  0  0  0  0  0  0  0999 V2000
   -2.4244   -0.2963   -0.5327 C   0  0  0  0  0  0  0  0  0  0  0  0
   -0.9637   -0.5403   -0.3022 C   0  0  0  0  0  0  0  0  0  0  0  0
   -0.7040   -1.5848    0.7288 C   0  0  0  0  0  0  0  0  0  0  0  0
    0.3493   -1.2794    1.4622 C   0  0  0  0  0  0  0  0  0  0  0  0
    0.8918    0.0073    0.9807 C   0  0  0  0  0  0  0  0  0  0  0  0
    1.9345   -0.3259   -0.0804 C   0  0  0  0  0  0  0  0  0  0  0  0
    2.5177    0.8202   -0.6103 O   0  0  0  0  0  0  0  0  0  0  0  0
   -0.3266    0.6715    0.3906 C   0  0  0  0  0  0  0  0  0  0  0  0
   -0.0176    1.7649   -0.5680 C   0  0  0  0  0  0  0  0  0  0  0  0
   -3.0005   -0.2314    0.4117 H   0  0  0  0  0  0  0  0  0  0  0  0
   -2.8377   -1.1329   -1.1074 H   0  0  0  0  0  0  0  0  0  0  0  0
   -2.5171    0.6100   -1.1600 H   0  0  0  0  0  0  0  0  0  0  0  0
   -0.4758   -0.7338   -1.2649 H   0  0  0  0  0  0  0  0  0  0  0  0
   -1.3053   -2.4612    0.8431 H   0  0  0  0  0  0  0  0  0  0  0  0
    0.7830   -1.8546    2.2976 H   0  0  0  0  0  0  0  0  0  0  0  0
    1.3405    0.6086    1.8004 H   0  0  0  0  0  0  0  0  0  0  0  0
    2.7040   -0.9480    0.4660 H   0  0  0  0  0  0  0  0  0  0  0  0
    1.4922   -0.9899   -0.8216 H   0  0  0  0  0  0  0  0  0  0  0  0
    3.4945    0.7307   -0.5115 H   0  0  0  0  0  0  0  0  0  0  0  0
   -0.9818    0.9563    1.2190 H   0  0  0  0  0  0  0  0  0  0  0  0
    0.1428    1.3751   -1.5822 H   0  0  0  0  0  0  0  0  0  0  0  0
   -0.9210    2.4384   -0.6085 H   0  0  0  0  0  0  0  0  0  0  0  0
    0.8251    2.3956   -0.2686 H   0  0  0  0  0  0  0  0  0  0  0  0
  1  2  1  0
  2  3  1  0
  3  4  2  0
  4  5  1  0
  5  6  1  0
  6  7  1  0
  5  8  1  0
  8  9  1  0
  8  2  1  0
  1 10  1  0
  1 11  1  0
  1 12  1  0
  2 13  1  0
  3 14  1  0
  4 15  1  0
  5 16  1  0
  6 17  1  0
  6 18  1  0
  7 19  1  0
  8 20  1  0
  9 21  1  0
  9 22  1  0
  9 23  1  0
M  END
