
     RDKit          3D

 23 24  0  0  0  0  0  0  0  0999 V2000
    2.9642   -0.3602   -0.0703 C   0  0  0  0  0  0  0  0  0  0  0  0
    1.7908    0.1159    0.7765 C   0  0  0  0  0  0  0  0  0  0  0  0
    1.2491    1.4015    0.2929 C   0  0  0  0  0  0  0  0  0  0  0  0
    0.0102    1.2675   -0.1577 C   0  0  0  0  0  0  0  0  0  0  0  0
   -0.4734   -0.1126   -0.0505 C   0  0  0  0  0  0  0  0  0  0  0  0
    0.6573   -0.8562    0.6574 C   0  0  0  0  0  0  0  0  0  0  0  0
   -1.2979   -0.7691   -1.0666 C   0  0  0  0  0  0  0  0  0  0  0  0
   -1.8526   -0.4644    0.3146 C   0  0  0  0  0  0  0  0  0  0  0  0
   -2.9645    0.5465    0.3367 C   0  0  0  0  0  0  0  0  0  0  0  0
    3.8879   -0.4953    0.5627 H   0  0  0  0  0  0  0  0  0  0  0  0
    3.2370    0.3793   -0.8359 H   0  0  0  0  0  0  0  0  0  0  0  0
    2.7428   -1.3654   -0.4866 H   0  0  0  0  0  0  0  0  0  0  0  0
    2.1467    0.1663    1.8343 H   0  0  0  0  0  0  0  0  0  0  0  0
    1.8120    2.3439    0.3098 H   0  0  0  0  0  0  0  0  0  0  0  0
   -0.5692    2.0921   -0.5576 H   0  0  0  0  0  0  0  0  0  0  0  0
    0.9143   -1.7076    0.0301 H   0  0  0  0  0  0  0  0  0  0  0  0
    0.3341   -1.1753    1.6774 H   0  0  0  0  0  0  0  0  0  0  0  0
   -1.6739   -0.1552   -1.9321 H   0  0  0  0  0  0  0  0  0  0  0  0
   -1.0465   -1.8166   -1.3279 H   0  0  0  0  0  0  0  0  0  0  0  0
   -1.9955   -1.3470    0.9545 H   0  0  0  0  0  0  0  0  0  0  0  0
   -3.6138    0.3299   -0.5518 H   0  0  0  0  0  0  0  0  0  0  0  0
   -3.6317    0.3937    1.2198 H   0  0  0  0  0  0  0  0  0  0  0  0
   -2.6273    1.5885    0.3476 H   0  0  0  0  0  0  0  0  0  0  0  0
  1  2  1  0
  2  3  1  0
  3  4  2  0
  4  5  1  0
  5  6  1  0
  5  7  1  0
  7  8  1  0
  8  9  1  0
  6  2  1  0
  8  5  1  0
  1 10  1  0
  1 11  1  0
  1 12  1  0
  2 13  1  0
  3 14  1  0
  4 15  1  0
  6 16  1  0
  6 17  1  0
  7 18  1  0
  7 19  1  0
  8 20  1  0
  9 21  1  0
  9 22  1  0
  9 23  1  0
M  END
