
     RDKit          3D

 21 23  0  0  0  0  0  0  0  0999 V2000
    2.1996    0.1695    0.3576 C   0  0  0  0  0  0  0  0  0  0  0  0
    0.8621   -0.4066    0.3721 C   0  0  0  0  0  0  0  0  0  0  0  0
   -0.2722    0.5519    0.8048 C   0  0  0  0  0  0  0  0  0  0  0  0
    0.2519    1.6477   -0.1599 C   0  0  0  0  0  0  0  0  0  0  0  0
    0.1057    0.8744   -1.3377 O   0  0  0  0  0  0  0  0  0  0  0  0
    0.1788   -0.4541   -1.0278 C   0  0  0  0  0  0  0  0  0  0  0  0
   -1.0437   -1.1608   -0.5997 C   0  0  0  0  0  0  0  0  0  0  0  0
   -2.2705   -1.0517    0.1195 C   0  0  0  0  0  0  0  0  0  0  0  0
   -1.5083    0.0930    0.1776 C   0  0  0  0  0  0  0  0  0  0  0  0
    2.5434    0.6048   -0.6190 H   0  0  0  0  0  0  0  0  0  0  0  0
    2.9387   -0.6739    0.5263 H   0  0  0  0  0  0  0  0  0  0  0  0
    2.4334    0.8654    1.2171 H   0  0  0  0  0  0  0  0  0  0  0  0
    0.7507   -1.3715    0.8825 H   0  0  0  0  0  0  0  0  0  0  0  0
   -0.2391    0.8303    1.8266 H   0  0  0  0  0  0  0  0  0  0  0  0
    1.2245    2.0012    0.0476 H   0  0  0  0  0  0  0  0  0  0  0  0
   -0.5325    2.4306   -0.2350 H   0  0  0  0  0  0  0  0  0  0  0  0
    0.7351   -1.0563   -1.7346 H   0  0  0  0  0  0  0  0  0  0  0  0
   -0.6447   -2.0980   -0.1584 H   0  0  0  0  0  0  0  0  0  0  0  0
   -3.1799   -1.2147   -0.5178 H   0  0  0  0  0  0  0  0  0  0  0  0
   -2.5378   -1.4706    1.1418 H   0  0  0  0  0  0  0  0  0  0  0  0
   -1.9952    0.8896   -0.4807 H   0  0  0  0  0  0  0  0  0  0  0  0
  1  2  1  0
  2  3  1  0
  3  4  1  0
  4  5  1  0
  5  6  1  0
  6  7  1  0
  7  8  1  0
  8  9  1  0
  6  2  1  0
  9  7  1  0
  9  3  1  0
  1 10  1  0
  1 11  1  0
  1 12  1  0
  2 13  1  0
  3 14  1  0
  4 15  1  0
  4 16  1  0
  6 17  1  0
  7 18  1  0
  8 19  1  0
  8 20  1  0
  9 21  1  0
M  END
