
     RDKit          3D

 19 20  0  0  0  0  0  0  0  0999 V2000
   -2.2276   -0.1561    0.3188 C   0  0  0  0  0  0  0  0  0  0  0  0
   -0.8362    0.2356    0.7023 C   0  0  0  0  0  0  0  0  0  0  0  0
    0.0018   -1.0514    0.6920 C   0  0  0  0  0  0  0  0  0  0  0  0
    0.8814   -0.8322   -0.4879 C   0  0  0  0  0  0  0  0  0  0  0  0
    2.0018    0.1028   -0.0276 C   0  0  0  0  0  0  0  0  0  0  0  0
    1.2234    1.3534    0.1331 C   0  0  0  0  0  0  0  0  0  0  0  0
    1.6204    2.3991    0.5661 O   0  0  0  0  0  0  0  0  0  0  0  0
   -0.1339    1.0529   -0.3456 C   0  0  0  0  0  0  0  0  0  0  0  0
    0.1488    0.0516   -1.3067 O   0  0  0  0  0  0  0  0  0  0  0  0
   -2.5123   -1.0226    0.9868 H   0  0  0  0  0  0  0  0  0  0  0  0
   -2.9565    0.6583    0.3838 H   0  0  0  0  0  0  0  0  0  0  0  0
   -2.1782   -0.5804   -0.7148 H   0  0  0  0  0  0  0  0  0  0  0  0
   -0.8006    0.7070    1.7148 H   0  0  0  0  0  0  0  0  0  0  0  0
   -0.6196   -1.9454    0.5820 H   0  0  0  0  0  0  0  0  0  0  0  0
    0.6187   -1.0699    1.6361 H   0  0  0  0  0  0  0  0  0  0  0  0
    1.2352   -1.7102   -1.0020 H   0  0  0  0  0  0  0  0  0  0  0  0
    2.4260   -0.2477    0.9467 H   0  0  0  0  0  0  0  0  0  0  0  0
    2.8021    0.1736   -0.7611 H   0  0  0  0  0  0  0  0  0  0  0  0
   -0.6945    1.8813   -0.7446 H   0  0  0  0  0  0  0  0  0  0  0  0
  1  2  1  0
  2  3  1  0
  3  4  1  0
  4  5  1  0
  5  6  1  0
  6  7  2  0
  6  8  1  0
  8  9  1  0
  8  2  1  0
  9  4  1  0
  1 10  1  0
  1 11  1  0
  1 12  1  0
  2 13  1  0
  3 14  1  0
  3 15  1  0
  4 16  1  0
  5 17  1  0
  5 18  1  0
  8 19  1  0
M  END
