
     RDKit          3D

 23 23  0  0  0  0  0  0  0  0999 V2000
    2.9651   -0.1334   -0.7747 C   0  0  0  0  0  0  0  0  0  0  0  0
    1.9116   -0.3540    0.2887 C   0  0  0  0  0  0  0  0  0  0  0  0
    1.4764    0.9450    0.9219 C   0  0  0  0  0  0  0  0  0  0  0  0
    0.3694    1.2955    0.1610 O   0  0  0  0  0  0  0  0  0  0  0  0
   -0.1676    0.1480   -0.3563 C   0  0  0  0  0  0  0  0  0  0  0  0
   -1.4951   -0.1759    0.3102 C   0  0  0  0  0  0  0  0  0  0  0  0
   -2.4936    0.9418    0.1026 C   0  0  0  0  0  0  0  0  0  0  0  0
   -2.0960   -1.4415   -0.2107 C   0  0  0  0  0  0  0  0  0  0  0  0
    0.7359   -0.8687   -0.2453 O   0  0  0  0  0  0  0  0  0  0  0  0
    2.5185    0.0811   -1.7658 H   0  0  0  0  0  0  0  0  0  0  0  0
    3.5244    0.7979   -0.4953 H   0  0  0  0  0  0  0  0  0  0  0  0
    3.6950   -0.9674   -0.8347 H   0  0  0  0  0  0  0  0  0  0  0  0
    2.2566   -1.0614    1.0714 H   0  0  0  0  0  0  0  0  0  0  0  0
    2.2736    1.6907    0.7320 H   0  0  0  0  0  0  0  0  0  0  0  0
    1.2416    0.8214    2.0000 H   0  0  0  0  0  0  0  0  0  0  0  0
   -0.3431    0.3258   -1.4501 H   0  0  0  0  0  0  0  0  0  0  0  0
   -1.2946   -0.2385    1.4124 H   0  0  0  0  0  0  0  0  0  0  0  0
   -3.3486    0.7287    0.7780 H   0  0  0  0  0  0  0  0  0  0  0  0
   -2.8407    0.9073   -0.9609 H   0  0  0  0  0  0  0  0  0  0  0  0
   -2.0573    1.9327    0.3519 H   0  0  0  0  0  0  0  0  0  0  0  0
   -2.8987   -1.2468   -0.9708 H   0  0  0  0  0  0  0  0  0  0  0  0
   -1.3694   -2.1126   -0.6965 H   0  0  0  0  0  0  0  0  0  0  0  0
   -2.5633   -2.0157    0.6312 H   0  0  0  0  0  0  0  0  0  0  0  0
  1  2  1  0
  2  3  1  0
  3  4  1  0
  4  5  1  0
  5  6  1  0
  6  7  1  0
  6  8  1  0
  5  9  1  0
  9  2  1  0
  1 10  1  0
  1 11  1  0
  1 12  1  0
  2 13  1  0
  3 14  1  0
  3 15  1  0
  5 16  1  0
  6 17  1  0
  7 18  1  0
  7 19  1  0
  7 20  1  0
  8 21  1  0
  8 22  1  0
  8 23  1  0
M  END
