
     RDKit          3D

 20 21  0  0  0  0  0  0  0  0999 V2000
    2.3553    0.8729    0.4816 C   0  0  0  0  0  0  0  0  0  0  0  0
    1.3032    0.1824   -0.3954 C   0  0  0  0  0  0  0  0  0  0  0  0
    1.0240   -1.2241    0.0316 C   0  0  0  0  0  0  0  0  0  0  0  0
   -0.3549   -0.8715    0.4775 C   0  0  0  0  0  0  0  0  0  0  0  0
   -0.0655    0.6004    0.0693 C   0  0  0  0  0  0  0  0  0  0  0  0
   -1.2832   -0.1490   -0.4105 C   0  0  0  0  0  0  0  0  0  0  0  0
   -2.5743    0.3603    0.1814 C   0  0  0  0  0  0  0  0  0  0  0  0
   -1.2975   -0.3767   -1.7795 O   0  0  0  0  0  0  0  0  0  0  0  0
    3.3598    0.7974    0.0633 H   0  0  0  0  0  0  0  0  0  0  0  0
    2.2428    0.4594    1.4951 H   0  0  0  0  0  0  0  0  0  0  0  0
    2.0205    1.9509    0.5133 H   0  0  0  0  0  0  0  0  0  0  0  0
    1.4719    0.2971   -1.4793 H   0  0  0  0  0  0  0  0  0  0  0  0
    1.6447   -1.5140    0.9294 H   0  0  0  0  0  0  0  0  0  0  0  0
    1.1283   -2.0099   -0.7311 H   0  0  0  0  0  0  0  0  0  0  0  0
   -0.6534   -1.0146    1.5460 H   0  0  0  0  0  0  0  0  0  0  0  0
   -0.1698    1.3379    0.8967 H   0  0  0  0  0  0  0  0  0  0  0  0
   -3.4660   -0.1587   -0.1865 H   0  0  0  0  0  0  0  0  0  0  0  0
   -2.6268    1.4658   -0.0445 H   0  0  0  0  0  0  0  0  0  0  0  0
   -2.4951    0.3067    1.2913 H   0  0  0  0  0  0  0  0  0  0  0  0
   -1.5640   -1.3128   -1.9912 H   0  0  0  0  0  0  0  0  0  0  0  0
  1  2  1  0
  2  3  1  0
  3  4  1  0
  4  5  1  0
  5  6  1  0
  6  7  1  0
  6  8  1  0
  5  2  1  0
  6  4  1  0
  1  9  1  0
  1 10  1  0
  1 11  1  0
  2 12  1  0
  3 13  1  0
  3 14  1  0
  4 15  1  0
  5 16  1  0
  7 17  1  0
  7 18  1  0
  7 19  1  0
  8 20  1  0
M  END
