
     RDKit          3D

 25 25  0  0  0  0  0  0  0  0999 V2000
    0.8331   -1.9184    0.1705 C   0  0  0  0  0  0  0  0  0  0  0  0
    0.1631   -0.8290   -0.6667 C   0  0  0  0  0  0  0  0  0  0  0  0
    1.2612    0.0441   -1.2038 C   0  0  0  0  0  0  0  0  0  0  0  0
    1.1989    1.3437   -0.4546 C   0  0  0  0  0  0  0  0  0  0  0  0
    2.3674    1.5679    0.3031 O   0  0  0  0  0  0  0  0  0  0  0  0
    0.0478    1.2624    0.5053 C   0  0  0  0  0  0  0  0  0  0  0  0
   -0.7480    0.0330    0.1506 C   0  0  0  0  0  0  0  0  0  0  0  0
   -1.9871    0.4617   -0.6356 C   0  0  0  0  0  0  0  0  0  0  0  0
   -1.2593   -0.6980    1.3760 C   0  0  0  0  0  0  0  0  0  0  0  0
    0.1449   -2.7346    0.4059 H   0  0  0  0  0  0  0  0  0  0  0  0
    1.3515   -1.4916    1.0425 H   0  0  0  0  0  0  0  0  0  0  0  0
    1.6391   -2.3353   -0.4987 H   0  0  0  0  0  0  0  0  0  0  0  0
   -0.4077   -1.3243   -1.4738 H   0  0  0  0  0  0  0  0  0  0  0  0
    1.1840    0.1609   -2.2990 H   0  0  0  0  0  0  0  0  0  0  0  0
    2.2827   -0.3924   -1.0231 H   0  0  0  0  0  0  0  0  0  0  0  0
    1.1161    2.1667   -1.1787 H   0  0  0  0  0  0  0  0  0  0  0  0
    2.1398    2.2701    0.9419 H   0  0  0  0  0  0  0  0  0  0  0  0
    0.4025    1.1652    1.5575 H   0  0  0  0  0  0  0  0  0  0  0  0
   -0.5454    2.1985    0.3979 H   0  0  0  0  0  0  0  0  0  0  0  0
   -2.7908    0.6997    0.1076 H   0  0  0  0  0  0  0  0  0  0  0  0
   -1.8080    1.4182   -1.1808 H   0  0  0  0  0  0  0  0  0  0  0  0
   -2.3381   -0.3469   -1.3022 H   0  0  0  0  0  0  0  0  0  0  0  0
   -0.4732   -1.2313    1.9232 H   0  0  0  0  0  0  0  0  0  0  0  0
   -1.8012   -0.0158    2.0357 H   0  0  0  0  0  0  0  0  0  0  0  0
   -1.9734   -1.4744    0.9993 H   0  0  0  0  0  0  0  0  0  0  0  0
  1  2  1  0
  2  3  1  0
  3  4  1  0
  4  5  1  0
  4  6  1  0
  6  7  1  0
  7  8  1  0
  7  9  1  0
  7  2  1  0
  1 10  1  0
  1 11  1  0
  1 12  1  0
  2 13  1  0
  3 14  1  0
  3 15  1  0
  4 16  1  0
  5 17  1  0
  6 18  1  0
  6 19  1  0
  8 20  1  0
  8 21  1  0
  8 22  1  0
  9 23  1  0
  9 24  1  0
  9 25  1  0
M  END
