
     RDKit          3D

 21 21  0  0  0  0  0  0  0  0999 V2000
    1.8541   -1.0015    0.4267 C   0  0  0  0  0  0  0  0  0  0  0  0
    0.9572   -0.1228   -0.3597 C   0  0  0  0  0  0  0  0  0  0  0  0
    0.9434    1.3547    0.0597 C   0  0  0  0  0  0  0  0  0  0  0  0
   -0.5049    1.3090   -0.4555 C   0  0  0  0  0  0  0  0  0  0  0  0
   -1.3599    2.1897    0.1488 O   0  0  0  0  0  0  0  0  0  0  0  0
   -0.5037   -0.0994    0.0995 C   0  0  0  0  0  0  0  0  0  0  0  0
   -0.5809   -0.0801    1.4674 O   0  0  0  0  0  0  0  0  0  0  0  0
   -1.3610   -1.0862   -0.6322 C   0  0  0  0  0  0  0  0  0  0  0  0
   -1.0460   -2.3879   -0.2450 O   0  0  0  0  0  0  0  0  0  0  0  0
    2.5276   -0.4971    1.1208 H   0  0  0  0  0  0  0  0  0  0  0  0
    1.2078   -1.7505    0.9696 H   0  0  0  0  0  0  0  0  0  0  0  0
    2.4777   -1.6046   -0.2687 H   0  0  0  0  0  0  0  0  0  0  0  0
    1.0592   -0.1481   -1.4693 H   0  0  0  0  0  0  0  0  0  0  0  0
    1.6062    1.9998   -0.5059 H   0  0  0  0  0  0  0  0  0  0  0  0
    0.9161    1.4599    1.1566 H   0  0  0  0  0  0  0  0  0  0  0  0
   -0.5228    1.2623   -1.5637 H   0  0  0  0  0  0  0  0  0  0  0  0
   -1.4156    3.0003   -0.4218 H   0  0  0  0  0  0  0  0  0  0  0  0
   -1.3597    0.4740    1.7328 H   0  0  0  0  0  0  0  0  0  0  0  0
   -1.2839   -0.9115   -1.7026 H   0  0  0  0  0  0  0  0  0  0  0  0
   -2.4158   -0.9143   -0.2925 H   0  0  0  0  0  0  0  0  0  0  0  0
   -1.1953   -2.4455    0.7350 H   0  0  0  0  0  0  0  0  0  0  0  0
  1  2  1  0
  2  3  1  0
  3  4  1  0
  4  5  1  0
  4  6  1  0
  6  7  1  0
  6  8  1  0
  8  9  1  0
  6  2  1  0
  1 10  1  0
  1 11  1  0
  1 12  1  0
  2 13  1  0
  3 14  1  0
  3 15  1  0
  4 16  1  0
  5 17  1  0
  7 18  1  0
  8 19  1  0
  8 20  1  0
  9 21  1  0
M  END
