
     RDKit          3D

 18 18  0  0  0  0  0  0  0  0999 V2000
   -2.1113    0.9908   -0.2972 C   0  0  0  0  0  0  0  0  0  0  0  0
   -1.3620   -0.3197   -0.3305 C   0  0  0  0  0  0  0  0  0  0  0  0
   -0.4833   -0.5427    0.9063 C   0  0  0  0  0  0  0  0  0  0  0  0
    0.4594   -0.9391   -0.1595 C   0  0  0  0  0  0  0  0  0  0  0  0
    1.8848   -0.5465   -0.0513 C   0  0  0  0  0  0  0  0  0  0  0  0
    2.1357    0.9000    0.0081 C   0  0  0  0  0  0  0  0  0  0  0  0
    3.2961    1.2695    0.0975 O   0  0  0  0  0  0  0  0  0  0  0  0
   -0.2193   -0.1924   -1.1271 O   0  0  0  0  0  0  0  0  0  0  0  0
   -3.0565    0.8722    0.2695 H   0  0  0  0  0  0  0  0  0  0  0  0
   -1.4389    1.7556    0.1524 H   0  0  0  0  0  0  0  0  0  0  0  0
   -2.3921    1.2831   -1.3351 H   0  0  0  0  0  0  0  0  0  0  0  0
   -1.9580   -1.1869   -0.6326 H   0  0  0  0  0  0  0  0  0  0  0  0
   -0.9592   -1.3834    1.4903 H   0  0  0  0  0  0  0  0  0  0  0  0
   -0.2852    0.3480    1.4967 H   0  0  0  0  0  0  0  0  0  0  0  0
    0.3640   -2.0174   -0.4034 H   0  0  0  0  0  0  0  0  0  0  0  0
    2.3140   -1.0051    0.8686 H   0  0  0  0  0  0  0  0  0  0  0  0
    2.4276   -0.9482   -0.9321 H   0  0  0  0  0  0  0  0  0  0  0  0
    1.3843    1.6623   -0.0205 H   0  0  0  0  0  0  0  0  0  0  0  0
  1  2  1  0
  2  3  1  0
  3  4  1  0
  4  5  1  0
  5  6  1  0
  6  7  2  0
  4  8  1  0
  8  2  1  0
  1  9  1  0
  1 10  1  0
  1 11  1  0
  2 12  1  0
  3 13  1  0
  3 14  1  0
  4 15  1  0
  5 16  1  0
  5 17  1  0
  6 18  1  0
M  END
