
     RDKit          3D

 15 16  0  0  0  0  0  0  0  0999 V2000
    1.8682    0.1373   -0.0463 C   0  0  0  0  0  0  0  0  0  0  0  0
    0.4622   -0.1835   -0.4212 C   0  0  0  0  0  0  0  0  0  0  0  0
   -0.3666    1.0599   -0.5986 C   0  0  0  0  0  0  0  0  0  0  0  0
   -1.5437    0.8838   -0.0226 C   0  0  0  0  0  0  0  0  0  0  0  0
   -1.6348   -0.4465    0.5831 C   0  0  0  0  0  0  0  0  0  0  0  0
   -0.8315   -0.6297    1.6865 O   0  0  0  0  0  0  0  0  0  0  0  0
   -0.2582   -1.0692    0.5278 C   0  0  0  0  0  0  0  0  0  0  0  0
    2.5885   -0.3252   -0.7828 H   0  0  0  0  0  0  0  0  0  0  0  0
    2.0862   -0.2469    0.9514 H   0  0  0  0  0  0  0  0  0  0  0  0
    2.0986    1.2396   -0.0989 H   0  0  0  0  0  0  0  0  0  0  0  0
    0.4549   -0.6766   -1.4279 H   0  0  0  0  0  0  0  0  0  0  0  0
    0.0107    1.9169   -1.1245 H   0  0  0  0  0  0  0  0  0  0  0  0
   -2.3215    1.6215   -0.0059 H   0  0  0  0  0  0  0  0  0  0  0  0
   -2.4608   -1.1321    0.3544 H   0  0  0  0  0  0  0  0  0  0  0  0
   -0.1521   -2.1494    0.4257 H   0  0  0  0  0  0  0  0  0  0  0  0
  1  2  1  0
  2  3  1  0
  3  4  2  0
  4  5  1  0
  5  6  1  0
  6  7  1  0
  7  2  1  0
  7  5  1  0
  1  8  1  0
  1  9  1  0
  1 10  1  0
  2 11  1  0
  3 12  1  0
  4 13  1  0
  5 14  1  0
  7 15  1  0
M  END
