
     RDKit          3D

 23 24  0  0  0  0  0  0  0  0999 V2000
   -2.3473   -0.8720    0.4352 C   0  0  0  0  0  0  0  0  0  0  0  0
   -1.2098   -0.4491   -0.4364 C   0  0  0  0  0  0  0  0  0  0  0  0
   -0.0188   -1.3834   -0.1226 C   0  0  0  0  0  0  0  0  0  0  0  0
    1.2017   -0.4963   -0.3941 C   0  0  0  0  0  0  0  0  0  0  0  0
    2.0241   -0.2352    0.7937 C   0  0  0  0  0  0  0  0  0  0  0  0
    0.5920    0.6544   -1.0786 C   0  0  0  0  0  0  0  0  0  0  0  0
    0.0704    1.8920   -0.6691 C   0  0  0  0  0  0  0  0  0  0  0  0
    0.9443    2.7394    0.0583 O   0  0  0  0  0  0  0  0  0  0  0  0
   -0.5812    0.8325   -0.0272 C   0  0  0  0  0  0  0  0  0  0  0  0
   -3.2260   -1.1911   -0.1918 H   0  0  0  0  0  0  0  0  0  0  0  0
   -2.6914   -0.0788    1.1323 H   0  0  0  0  0  0  0  0  0  0  0  0
   -2.0906   -1.7449    1.0749 H   0  0  0  0  0  0  0  0  0  0  0  0
   -1.4004   -0.5462   -1.5146 H   0  0  0  0  0  0  0  0  0  0  0  0
   -0.0438   -2.2732   -0.7458 H   0  0  0  0  0  0  0  0  0  0  0  0
   -0.0548   -1.5641    0.9545 H   0  0  0  0  0  0  0  0  0  0  0  0
    1.8405   -1.0947   -1.1117 H   0  0  0  0  0  0  0  0  0  0  0  0
    1.4996   -0.0274    1.7371 H   0  0  0  0  0  0  0  0  0  0  0  0
    2.7089   -1.1200    0.9531 H   0  0  0  0  0  0  0  0  0  0  0  0
    2.6960    0.6186    0.5743 H   0  0  0  0  0  0  0  0  0  0  0  0
    0.2486    0.3301   -2.1142 H   0  0  0  0  0  0  0  0  0  0  0  0
   -0.5179    2.5309   -1.3795 H   0  0  0  0  0  0  0  0  0  0  0  0
    0.6299    2.7824    1.0128 H   0  0  0  0  0  0  0  0  0  0  0  0
   -0.2740    0.6960    1.0596 H   0  0  0  0  0  0  0  0  0  0  0  0
  1  2  1  0
  2  3  1  0
  3  4  1  0
  4  5  1  0
  4  6  1  0
  6  7  1  0
  7  8  1  0
  7  9  1  0
  9  2  1  0
  9  6  1  0
  1 10  1  0
  1 11  1  0
  1 12  1  0
  2 13  1  0
  3 14  1  0
  3 15  1  0
  4 16  1  0
  5 17  1  0
  5 18  1  0
  5 19  1  0
  6 20  1  0
  7 21  1  0
  8 22  1  0
  9 23  1  0
M  END
