
     RDKit          3D

 19 19  0  0  0  0  0  0  0  0999 V2000
    1.9362   -0.2602    0.5231 C   0  0  0  0  0  0  0  0  0  0  0  0
    0.6758   -0.6447   -0.2111 C   0  0  0  0  0  0  0  0  0  0  0  0
    0.6812    0.0500   -1.5108 C   0  0  0  0  0  0  0  0  0  0  0  0
    1.0223   -0.4312   -2.5996 O   0  0  0  0  0  0  0  0  0  0  0  0
    0.2366    1.3293   -1.2830 O   0  0  0  0  0  0  0  0  0  0  0  0
   -0.3675    1.4463   -0.0060 C   0  0  0  0  0  0  0  0  0  0  0  0
   -0.5521   -0.0050    0.4433 C   0  0  0  0  0  0  0  0  0  0  0  0
   -1.7857   -0.5141   -0.2464 C   0  0  0  0  0  0  0  0  0  0  0  0
   -0.5609   -0.1439    1.8028 O   0  0  0  0  0  0  0  0  0  0  0  0
    1.7205    0.3623    1.4048 H   0  0  0  0  0  0  0  0  0  0  0  0
    2.5099   -1.1833    0.7689 H   0  0  0  0  0  0  0  0  0  0  0  0
    2.6320    0.3402   -0.1317 H   0  0  0  0  0  0  0  0  0  0  0  0
    0.5538   -1.7460   -0.2996 H   0  0  0  0  0  0  0  0  0  0  0  0
   -1.3578    1.9256   -0.1532 H   0  0  0  0  0  0  0  0  0  0  0  0
    0.2483    1.9914    0.7186 H   0  0  0  0  0  0  0  0  0  0  0  0
   -1.9234   -1.5924   -0.1980 H   0  0  0  0  0  0  0  0  0  0  0  0
   -2.6700    0.0095    0.2018 H   0  0  0  0  0  0  0  0  0  0  0  0
   -1.7417   -0.1280   -1.3010 H   0  0  0  0  0  0  0  0  0  0  0  0
   -1.2573   -0.8059    2.0769 H   0  0  0  0  0  0  0  0  0  0  0  0
  1  2  1  0
  2  3  1  0
  3  4  2  0
  3  5  1  0
  5  6  1  0
  6  7  1  0
  7  8  1  0
  7  9  1  0
  7  2  1  0
  1 10  1  0
  1 11  1  0
  1 12  1  0
  2 13  1  0
  6 14  1  0
  6 15  1  0
  8 16  1  0
  8 17  1  0
  8 18  1  0
  9 19  1  0
M  END
