
     RDKit          3D

 19 19  0  0  0  0  0  0  0  0999 V2000
   -0.6247    1.8861   -0.4850 C   0  0  0  0  0  0  0  0  0  0  0  0
    0.2432    0.9400    0.2730 C   0  0  0  0  0  0  0  0  0  0  0  0
   -0.4124    0.2938    1.4208 C   0  0  0  0  0  0  0  0  0  0  0  0
   -0.7616   -0.9346    1.1470 C   0  0  0  0  0  0  0  0  0  0  0  0
   -0.3863   -1.2853   -0.2327 C   0  0  0  0  0  0  0  0  0  0  0  0
   -1.5293   -1.1636   -1.0198 O   0  0  0  0  0  0  0  0  0  0  0  0
    0.6619   -0.2631   -0.5626 C   0  0  0  0  0  0  0  0  0  0  0  0
    1.9452   -0.7492    0.0135 C   0  0  0  0  0  0  0  0  0  0  0  0
    3.0139   -0.6672   -0.5607 O   0  0  0  0  0  0  0  0  0  0  0  0
   -0.0792    2.8298   -0.7743 H   0  0  0  0  0  0  0  0  0  0  0  0
   -1.0326    1.4365   -1.4334 H   0  0  0  0  0  0  0  0  0  0  0  0
   -1.5176    2.1163    0.1472 H   0  0  0  0  0  0  0  0  0  0  0  0
    1.1232    1.4948    0.6565 H   0  0  0  0  0  0  0  0  0  0  0  0
   -0.5720    0.8248    2.3888 H   0  0  0  0  0  0  0  0  0  0  0  0
   -1.2690   -1.6367    1.8339 H   0  0  0  0  0  0  0  0  0  0  0  0
    0.0048   -2.3230   -0.2735 H   0  0  0  0  0  0  0  0  0  0  0  0
   -1.4415   -1.5865   -1.9054 H   0  0  0  0  0  0  0  0  0  0  0  0
    0.7369   -0.0179   -1.6299 H   0  0  0  0  0  0  0  0  0  0  0  0
    1.8971   -1.1951    0.9969 H   0  0  0  0  0  0  0  0  0  0  0  0
  1  2  1  0
  2  3  1  0
  3  4  2  0
  4  5  1  0
  5  6  1  0
  5  7  1  0
  7  8  1  0
  8  9  2  0
  7  2  1  0
  1 10  1  0
  1 11  1  0
  1 12  1  0
  2 13  1  0
  3 14  1  0
  4 15  1  0
  5 16  1  0
  6 17  1  0
  7 18  1  0
  8 19  1  0
M  END
