
     RDKit          3D

 21 23  0  0  0  0  0  0  0  0999 V2000
   -1.4264    1.4369   -0.1426 C   0  0  0  0  0  0  0  0  0  0  0  0
   -1.1513    0.0854    0.4239 C   0  0  0  0  0  0  0  0  0  0  0  0
   -1.9262   -0.9923   -0.3348 C   0  0  0  0  0  0  0  0  0  0  0  0
   -0.7355   -1.6557   -0.6700 O   0  0  0  0  0  0  0  0  0  0  0  0
   -0.0041   -0.6794   -0.0780 C   0  0  0  0  0  0  0  0  0  0  0  0
    1.0126   -1.1757    0.9047 C   0  0  0  0  0  0  0  0  0  0  0  0
    2.0786   -0.3213    0.2835 C   0  0  0  0  0  0  0  0  0  0  0  0
    1.8090    1.0747   -0.0736 C   0  0  0  0  0  0  0  0  0  0  0  0
    1.0602    0.0046   -0.8431 C   0  0  0  0  0  0  0  0  0  0  0  0
   -1.4748    2.1999    0.6663 H   0  0  0  0  0  0  0  0  0  0  0  0
   -2.4663    1.4301   -0.5850 H   0  0  0  0  0  0  0  0  0  0  0  0
   -0.7244    1.7694   -0.9176 H   0  0  0  0  0  0  0  0  0  0  0  0
   -1.2717    0.0023    1.5342 H   0  0  0  0  0  0  0  0  0  0  0  0
   -2.3816   -0.6034   -1.2832 H   0  0  0  0  0  0  0  0  0  0  0  0
   -2.6141   -1.5605    0.3100 H   0  0  0  0  0  0  0  0  0  0  0  0
    0.8057   -0.9657    1.9618 H   0  0  0  0  0  0  0  0  0  0  0  0
    1.2914   -2.2606    0.7614 H   0  0  0  0  0  0  0  0  0  0  0  0
    3.0428   -0.7641   -0.0341 H   0  0  0  0  0  0  0  0  0  0  0  0
    1.1582    1.6437    0.6166 H   0  0  0  0  0  0  0  0  0  0  0  0
    2.5267    1.6345   -0.6654 H   0  0  0  0  0  0  0  0  0  0  0  0
    1.3913   -0.3029   -1.8351 H   0  0  0  0  0  0  0  0  0  0  0  0
  1  2  1  0
  2  3  1  0
  3  4  1  0
  4  5  1  0
  5  6  1  0
  6  7  1  0
  7  8  1  0
  8  9  1  0
  5  2  1  0
  9  7  1  0
  9  5  1  0
  1 10  1  0
  1 11  1  0
  1 12  1  0
  2 13  1  0
  3 14  1  0
  3 15  1  0
  6 16  1  0
  6 17  1  0
  7 18  1  0
  8 19  1  0
  8 20  1  0
  9 21  1  0
M  END
