
     RDKit          3D

 23 23  0  0  0  0  0  0  0  0999 V2000
   -1.6532    1.5020    0.1708 C   0  0  0  0  0  0  0  0  0  0  0  0
   -0.9518    0.7136   -0.8573 C   0  0  0  0  0  0  0  0  0  0  0  0
    0.4845    1.2621   -0.9935 C   0  0  0  0  0  0  0  0  0  0  0  0
    0.8388    0.2489    0.0782 C   0  0  0  0  0  0  0  0  0  0  0  0
    2.1947   -0.3894   -0.0742 C   0  0  0  0  0  0  0  0  0  0  0  0
    2.3482   -1.2833    0.9873 O   0  0  0  0  0  0  0  0  0  0  0  0
   -0.3044   -0.5671   -0.5130 C   0  0  0  0  0  0  0  0  0  0  0  0
   -0.9523   -1.5375    0.3838 C   0  0  0  0  0  0  0  0  0  0  0  0
   -1.2354   -1.1027    1.6557 O   0  0  0  0  0  0  0  0  0  0  0  0
   -2.3101    0.9394    0.8517 H   0  0  0  0  0  0  0  0  0  0  0  0
   -2.2962    2.2604   -0.3257 H   0  0  0  0  0  0  0  0  0  0  0  0
   -0.9653    2.0944    0.8425 H   0  0  0  0  0  0  0  0  0  0  0  0
   -1.4873    0.6656   -1.8291 H   0  0  0  0  0  0  0  0  0  0  0  0
    0.5908    2.3135   -0.7153 H   0  0  0  0  0  0  0  0  0  0  0  0
    0.8366    0.9853   -2.0130 H   0  0  0  0  0  0  0  0  0  0  0  0
    0.5905    0.6344    1.0651 H   0  0  0  0  0  0  0  0  0  0  0  0
    2.2138   -1.0025   -0.9994 H   0  0  0  0  0  0  0  0  0  0  0  0
    3.0132    0.3465   -0.1170 H   0  0  0  0  0  0  0  0  0  0  0  0
    3.2224   -1.1823    1.4449 H   0  0  0  0  0  0  0  0  0  0  0  0
    0.0741   -1.0676   -1.4328 H   0  0  0  0  0  0  0  0  0  0  0  0
   -1.9055   -1.8783   -0.0720 H   0  0  0  0  0  0  0  0  0  0  0  0
   -0.2991   -2.4309    0.4712 H   0  0  0  0  0  0  0  0  0  0  0  0
   -2.0470   -1.5244    1.9910 H   0  0  0  0  0  0  0  0  0  0  0  0
  1  2  1  0
  2  3  1  0
  3  4  1  0
  4  5  1  0
  5  6  1  0
  4  7  1  0
  7  8  1  0
  8  9  1  0
  7  2  1  0
  1 10  1  0
  1 11  1  0
  1 12  1  0
  2 13  1  0
  3 14  1  0
  3 15  1  0
  4 16  1  0
  5 17  1  0
  5 18  1  0
  6 19  1  0
  7 20  1  0
  8 21  1  0
  8 22  1  0
  9 23  1  0
M  END
