
     RDKit          3D

 19 20  0  0  0  0  0  0  0  0999 V2000
   -2.1293   -0.8838    0.2920 C   0  0  0  0  0  0  0  0  0  0  0  0
   -0.9792    0.0856    0.4733 C   0  0  0  0  0  0  0  0  0  0  0  0
   -1.1824    1.2489   -0.4703 C   0  0  0  0  0  0  0  0  0  0  0  0
   -2.2167    1.7414   -0.9228 O   0  0  0  0  0  0  0  0  0  0  0  0
    0.1872    1.7221   -0.7729 C   0  0  0  0  0  0  0  0  0  0  0  0
    1.0620    0.7768   -0.5461 C   0  0  0  0  0  0  0  0  0  0  0  0
    2.2421   -0.0892   -0.3773 C   0  0  0  0  0  0  0  0  0  0  0  0
    1.4657   -0.6627    0.8340 C   0  0  0  0  0  0  0  0  0  0  0  0
    0.2953   -0.4568   -0.0925 C   0  0  0  0  0  0  0  0  0  0  0  0
   -2.9808   -0.5792    0.9335 H   0  0  0  0  0  0  0  0  0  0  0  0
   -2.4574   -0.8704   -0.7849 H   0  0  0  0  0  0  0  0  0  0  0  0
   -1.7710   -1.9105    0.5450 H   0  0  0  0  0  0  0  0  0  0  0  0
   -0.8950    0.4666    1.5021 H   0  0  0  0  0  0  0  0  0  0  0  0
    0.4017    2.7400   -1.1382 H   0  0  0  0  0  0  0  0  0  0  0  0
    3.1848    0.3872   -0.1131 H   0  0  0  0  0  0  0  0  0  0  0  0
    2.3185   -0.8185   -1.2024 H   0  0  0  0  0  0  0  0  0  0  0  0
    1.7372   -1.7143    1.0308 H   0  0  0  0  0  0  0  0  0  0  0  0
    1.5327    0.0369    1.6645 H   0  0  0  0  0  0  0  0  0  0  0  0
    0.1846   -1.2201   -0.8549 H   0  0  0  0  0  0  0  0  0  0  0  0
  1  2  1  0
  2  3  1  0
  3  4  2  0
  3  5  1  0
  5  6  2  0
  6  7  1  0
  7  8  1  0
  8  9  1  0
  9  2  1  0
  9  6  1  0
  1 10  1  0
  1 11  1  0
  1 12  1  0
  2 13  1  0
  5 14  1  0
  7 15  1  0
  7 16  1  0
  8 17  1  0
  8 18  1  0
  9 19  1  0
M  END
