
     RDKit          3D

 21 22  0  0  0  0  0  0  0  0999 V2000
   -1.8998    0.3618    0.8635 C   0  0  0  0  0  0  0  0  0  0  0  0
   -1.1860   -0.1599   -0.3551 C   0  0  0  0  0  0  0  0  0  0  0  0
   -0.5567    1.0172   -1.1141 C   0  0  0  0  0  0  0  0  0  0  0  0
    0.7935    0.4683   -0.6506 C   0  0  0  0  0  0  0  0  0  0  0  0
    1.7169    1.3603    0.0249 C   0  0  0  0  0  0  0  0  0  0  0  0
    1.4976    2.5676    0.0786 O   0  0  0  0  0  0  0  0  0  0  0  0
    1.1613   -0.8332   -1.2292 C   0  0  0  0  0  0  0  0  0  0  0  0
    0.1844   -0.7141   -0.0924 C   0  0  0  0  0  0  0  0  0  0  0  0
    0.5251   -1.4134    1.1514 C   0  0  0  0  0  0  0  0  0  0  0  0
   -1.4558    0.0229    1.8143 H   0  0  0  0  0  0  0  0  0  0  0  0
   -1.9012    1.4826    0.9139 H   0  0  0  0  0  0  0  0  0  0  0  0
   -2.9841    0.0857    0.7823 H   0  0  0  0  0  0  0  0  0  0  0  0
   -1.7791   -0.8371   -0.9846 H   0  0  0  0  0  0  0  0  0  0  0  0
   -0.6353    0.9123   -2.2187 H   0  0  0  0  0  0  0  0  0  0  0  0
   -0.8169    2.0037   -0.7201 H   0  0  0  0  0  0  0  0  0  0  0  0
    2.6037    0.9779    0.4869 H   0  0  0  0  0  0  0  0  0  0  0  0
    2.1509   -1.2246   -0.9815 H   0  0  0  0  0  0  0  0  0  0  0  0
    0.7789   -1.0529   -2.2596 H   0  0  0  0  0  0  0  0  0  0  0  0
    1.0227   -2.3993    0.9124 H   0  0  0  0  0  0  0  0  0  0  0  0
    1.1786   -0.9065    1.8544 H   0  0  0  0  0  0  0  0  0  0  0  0
   -0.3986   -1.7193    1.7233 H   0  0  0  0  0  0  0  0  0  0  0  0
  1  2  1  0
  2  3  1  0
  3  4  1  0
  4  5  1  0
  5  6  2  0
  4  7  1  0
  7  8  1  0
  8  9  1  0
  8  2  1  0
  8  4  1  0
  1 10  1  0
  1 11  1  0
  1 12  1  0
  2 13  1  0
  3 14  1  0
  3 15  1  0
  5 16  1  0
  7 17  1  0
  7 18  1  0
  9 19  1  0
  9 20  1  0
  9 21  1  0
M  END
