
     RDKit          3D

 22 23  0  0  0  0  0  0  0  0999 V2000
   -1.5586   -1.8129   -0.0299 C   0  0  0  0  0  0  0  0  0  0  0  0
   -0.2276   -1.1511   -0.0095 C   0  0  0  0  0  0  0  0  0  0  0  0
    0.0464   -0.1342   -1.0755 C   0  0  0  0  0  0  0  0  0  0  0  0
   -0.9391    0.7482   -0.3403 C   0  0  0  0  0  0  0  0  0  0  0  0
   -0.6767    2.1909   -0.6648 C   0  0  0  0  0  0  0  0  0  0  0  0
   -0.1180    0.1423    0.7494 C   0  0  0  0  0  0  0  0  0  0  0  0
    1.0709    0.4304   -0.1356 C   0  0  0  0  0  0  0  0  0  0  0  0
    2.2919   -0.3856    0.1046 C   0  0  0  0  0  0  0  0  0  0  0  0
   -1.3917   -2.9196   -0.1868 H   0  0  0  0  0  0  0  0  0  0  0  0
   -2.1994   -1.5144   -0.9027 H   0  0  0  0  0  0  0  0  0  0  0  0
   -2.1010   -1.7417    0.9325 H   0  0  0  0  0  0  0  0  0  0  0  0
    0.5975   -1.8394    0.2202 H   0  0  0  0  0  0  0  0  0  0  0  0
    0.1142   -0.2647   -2.0601 H   0  0  0  0  0  0  0  0  0  0  0  0
   -1.9779    0.4337   -0.3402 H   0  0  0  0  0  0  0  0  0  0  0  0
   -1.6654    2.6293   -0.9841 H   0  0  0  0  0  0  0  0  0  0  0  0
   -0.3066    2.7876    0.1677 H   0  0  0  0  0  0  0  0  0  0  0  0
   -0.0361    2.2875   -1.5907 H   0  0  0  0  0  0  0  0  0  0  0  0
   -0.1807    0.2801    1.7361 H   0  0  0  0  0  0  0  0  0  0  0  0
    1.2483    1.5120   -0.2081 H   0  0  0  0  0  0  0  0  0  0  0  0
    3.1801    0.2610   -0.1441 H   0  0  0  0  0  0  0  0  0  0  0  0
    2.4407   -0.6736    1.1741 H   0  0  0  0  0  0  0  0  0  0  0  0
    2.3887   -1.2661   -0.5711 H   0  0  0  0  0  0  0  0  0  0  0  0
  1  2  1  0
  2  3  1  0
  3  4  1  0
  4  5  1  0
  4  6  1  0
  6  7  1  0
  7  8  1  0
  6  2  1  0
  7  3  1  0
  1  9  1  0
  1 10  1  0
  1 11  1  0
  2 12  1  0
  3 13  1  0
  4 14  1  0
  5 15  1  0
  5 16  1  0
  5 17  1  0
  6 18  1  0
  7 19  1  0
  8 20  1  0
  8 21  1  0
  8 22  1  0
M  END
