
     RDKit          3D

 21 22  0  0  0  0  0  0  0  0999 V2000
    2.3049    0.0774   -0.5691 C   0  0  0  0  0  0  0  0  0  0  0  0
    1.0170    0.1700    0.2377 C   0  0  0  0  0  0  0  0  0  0  0  0
    0.0982    1.2509   -0.3119 C   0  0  0  0  0  0  0  0  0  0  0  0
   -1.3268    0.9680    0.1221 C   0  0  0  0  0  0  0  0  0  0  0  0
   -1.7490   -0.2691   -0.6860 C   0  0  0  0  0  0  0  0  0  0  0  0
   -1.1193   -1.0612    0.4179 C   0  0  0  0  0  0  0  0  0  0  0  0
    0.3725   -1.1711    0.2997 C   0  0  0  0  0  0  0  0  0  0  0  0
   -1.3904    0.1124    1.3304 C   0  0  0  0  0  0  0  0  0  0  0  0
   -1.5621    0.1568    2.5225 O   0  0  0  0  0  0  0  0  0  0  0  0
    2.3547    0.8452   -1.3512 H   0  0  0  0  0  0  0  0  0  0  0  0
    3.1796    0.2317    0.0938 H   0  0  0  0  0  0  0  0  0  0  0  0
    2.3427   -0.9116   -1.0851 H   0  0  0  0  0  0  0  0  0  0  0  0
    1.2699    0.5074    1.2842 H   0  0  0  0  0  0  0  0  0  0  0  0
    0.4131    2.2520   -0.0149 H   0  0  0  0  0  0  0  0  0  0  0  0
    0.2000    1.1898   -1.4348 H   0  0  0  0  0  0  0  0  0  0  0  0
   -2.0208    1.8054    0.0754 H   0  0  0  0  0  0  0  0  0  0  0  0
   -2.8463   -0.3685   -0.6532 H   0  0  0  0  0  0  0  0  0  0  0  0
   -1.2708   -0.2950   -1.6670 H   0  0  0  0  0  0  0  0  0  0  0  0
   -1.6767   -1.9519    0.6874 H   0  0  0  0  0  0  0  0  0  0  0  0
    0.7313   -1.6819    1.2323 H   0  0  0  0  0  0  0  0  0  0  0  0
    0.6784   -1.8564   -0.5300 H   0  0  0  0  0  0  0  0  0  0  0  0
  1  2  1  0
  2  3  1  0
  3  4  1  0
  4  5  1  0
  5  6  1  0
  6  7  1  0
  6  8  1  0
  8  9  2  0
  7  2  1  0
  8  4  1  0
  1 10  1  0
  1 11  1  0
  1 12  1  0
  2 13  1  0
  3 14  1  0
  3 15  1  0
  4 16  1  0
  5 17  1  0
  5 18  1  0
  6 19  1  0
  7 20  1  0
  7 21  1  0
M  END
