
     RDKit          3D

 23 24  0  0  0  0  0  0  0  0999 V2000
   -2.0142   -1.1496    0.5699 C   0  0  0  0  0  0  0  0  0  0  0  0
   -0.7289   -0.3478    0.6566 C   0  0  0  0  0  0  0  0  0  0  0  0
   -1.0403    0.9722   -0.0663 C   0  0  0  0  0  0  0  0  0  0  0  0
   -1.7403    1.8446    0.7319 O   0  0  0  0  0  0  0  0  0  0  0  0
    0.2848    1.5094   -0.5130 C   0  0  0  0  0  0  0  0  0  0  0  0
    1.1513    0.3044   -0.7300 C   0  0  0  0  0  0  0  0  0  0  0  0
    2.1530    0.0559    0.3939 C   0  0  0  0  0  0  0  0  0  0  0  0
    1.6036   -1.3615    0.4681 C   0  0  0  0  0  0  0  0  0  0  0  0
    0.3567   -0.8980   -0.2229 C   0  0  0  0  0  0  0  0  0  0  0  0
   -2.7582   -0.6333    1.2065 H   0  0  0  0  0  0  0  0  0  0  0  0
   -2.3767   -1.0268   -0.4831 H   0  0  0  0  0  0  0  0  0  0  0  0
   -1.9118   -2.1817    0.8873 H   0  0  0  0  0  0  0  0  0  0  0  0
   -0.4201   -0.1750    1.6982 H   0  0  0  0  0  0  0  0  0  0  0  0
   -1.6921    0.7169   -0.9369 H   0  0  0  0  0  0  0  0  0  0  0  0
   -2.1483    2.5280    0.1536 H   0  0  0  0  0  0  0  0  0  0  0  0
    0.7089    2.1728    0.2667 H   0  0  0  0  0  0  0  0  0  0  0  0
    0.1536    2.0086   -1.4900 H   0  0  0  0  0  0  0  0  0  0  0  0
    1.5719    0.1938   -1.7358 H   0  0  0  0  0  0  0  0  0  0  0  0
    3.1946    0.1229    0.0135 H   0  0  0  0  0  0  0  0  0  0  0  0
    1.9933    0.6713    1.2893 H   0  0  0  0  0  0  0  0  0  0  0  0
    2.1921   -2.0126   -0.2240 H   0  0  0  0  0  0  0  0  0  0  0  0
    1.5009   -1.7800    1.4708 H   0  0  0  0  0  0  0  0  0  0  0  0
   -0.0338   -1.5344   -1.0299 H   0  0  0  0  0  0  0  0  0  0  0  0
  1  2  1  0
  2  3  1  0
  3  4  1  0
  3  5  1  0
  5  6  1  0
  6  7  1  0
  7  8  1  0
  8  9  1  0
  9  2  1  0
  9  6  1  0
  1 10  1  0
  1 11  1  0
  1 12  1  0
  2 13  1  0
  3 14  1  0
  4 15  1  0
  5 16  1  0
  5 17  1  0
  6 18  1  0
  7 19  1  0
  7 20  1  0
  8 21  1  0
  8 22  1  0
  9 23  1  0
M  END
