
     RDKit          3D

 19 19  0  0  0  0  0  0  0  0999 V2000
   -2.0818   -0.8693    0.4023 C   0  0  0  0  0  0  0  0  0  0  0  0
   -1.3187    0.1774   -0.3592 C   0  0  0  0  0  0  0  0  0  0  0  0
   -0.7332    1.2654    0.5254 C   0  0  0  0  0  0  0  0  0  0  0  0
   -0.9140    2.5529    0.0500 O   0  0  0  0  0  0  0  0  0  0  0  0
    0.1560    0.3260   -0.2028 C   0  0  0  0  0  0  0  0  0  0  0  0
    0.8567   -0.8018    0.4888 C   0  0  0  0  0  0  0  0  0  0  0  0
    2.2357   -0.6315    0.6189 O   0  0  0  0  0  0  0  0  0  0  0  0
    3.1171   -0.4795   -0.4375 C   0  0  0  0  0  0  0  0  0  0  0  0
    2.6436   -0.4960   -1.5945 O   0  0  0  0  0  0  0  0  0  0  0  0
   -1.5360   -1.2908    1.2553 H   0  0  0  0  0  0  0  0  0  0  0  0
   -2.4347   -1.6998   -0.2466 H   0  0  0  0  0  0  0  0  0  0  0  0
   -2.9764   -0.3425    0.8478 H   0  0  0  0  0  0  0  0  0  0  0  0
   -1.8125    0.4903   -1.3007 H   0  0  0  0  0  0  0  0  0  0  0  0
   -0.7880    1.1649    1.6116 H   0  0  0  0  0  0  0  0  0  0  0  0
   -0.2410    2.8070   -0.6386 H   0  0  0  0  0  0  0  0  0  0  0  0
    0.6532    0.7858   -1.1072 H   0  0  0  0  0  0  0  0  0  0  0  0
    0.5691   -1.7399   -0.0170 H   0  0  0  0  0  0  0  0  0  0  0  0
    0.4395   -0.8636    1.5338 H   0  0  0  0  0  0  0  0  0  0  0  0
    4.1653   -0.3552   -0.2036 H   0  0  0  0  0  0  0  0  0  0  0  0
  1  2  1  0
  2  3  1  0
  3  4  1  0
  3  5  1  0
  5  6  1  0
  6  7  1  0
  7  8  1  0
  8  9  2  0
  5  2  1  0
  1 10  1  0
  1 11  1  0
  1 12  1  0
  2 13  1  0
  3 14  1  0
  4 15  1  0
  5 16  1  0
  6 17  1  0
  6 18  1  0
  8 19  1  0
M  END
