
     RDKit          3D

 19 20  0  0  0  0  0  0  0  0999 V2000
   -0.7416    2.1108   -0.0110 C   0  0  0  0  0  0  0  0  0  0  0  0
   -0.3818    0.7618    0.5791 C   0  0  0  0  0  0  0  0  0  0  0  0
   -0.6618   -0.4301   -0.3055 C   0  0  0  0  0  0  0  0  0  0  0  0
   -1.2631   -1.6528    0.2693 C   0  0  0  0  0  0  0  0  0  0  0  0
   -0.5639   -0.2481   -1.7036 O   0  0  0  0  0  0  0  0  0  0  0  0
    0.7542    0.1447   -1.5643 C   0  0  0  0  0  0  0  0  0  0  0  0
    1.6289    0.4727   -2.3960 O   0  0  0  0  0  0  0  0  0  0  0  0
    0.7047    0.0228   -0.0986 C   0  0  0  0  0  0  0  0  0  0  0  0
    1.7643   -0.7058    0.6224 C   0  0  0  0  0  0  0  0  0  0  0  0
   -1.8094    2.3595    0.1492 H   0  0  0  0  0  0  0  0  0  0  0  0
   -0.6149    2.0112   -1.1161 H   0  0  0  0  0  0  0  0  0  0  0  0
   -0.0703    2.9173    0.3562 H   0  0  0  0  0  0  0  0  0  0  0  0
   -0.6001    0.6708    1.6395 H   0  0  0  0  0  0  0  0  0  0  0  0
   -0.6965   -2.1434    1.0640 H   0  0  0  0  0  0  0  0  0  0  0  0
   -2.2631   -1.3755    0.7082 H   0  0  0  0  0  0  0  0  0  0  0  0
   -1.5025   -2.3556   -0.5666 H   0  0  0  0  0  0  0  0  0  0  0  0
    1.5827   -1.7682    0.8068 H   0  0  0  0  0  0  0  0  0  0  0  0
    2.0302   -0.1412    1.5629 H   0  0  0  0  0  0  0  0  0  0  0  0
    2.7039   -0.6508    0.0040 H   0  0  0  0  0  0  0  0  0  0  0  0
  1  2  1  0
  2  3  1  0
  3  4  1  0
  3  5  1  0
  5  6  1  0
  6  7  2  0
  6  8  1  0
  8  9  1  0
  8  2  1  0
  8  3  1  0
  1 10  1  0
  1 11  1  0
  1 12  1  0
  2 13  1  0
  4 14  1  0
  4 15  1  0
  4 16  1  0
  9 17  1  0
  9 18  1  0
  9 19  1  0
M  END
