
     RDKit          3D

 19 19  0  0  0  0  0  0  0  0999 V2000
   -2.0537    1.1803   -0.0268 C   0  0  0  0  0  0  0  0  0  0  0  0
   -0.9863    0.1932   -0.4552 C   0  0  0  0  0  0  0  0  0  0  0  0
   -0.9847   -0.9531    0.5418 C   0  0  0  0  0  0  0  0  0  0  0  0
    0.1016   -1.8780    0.0934 C   0  0  0  0  0  0  0  0  0  0  0  0
    0.0465   -3.1158    0.2508 O   0  0  0  0  0  0  0  0  0  0  0  0
    1.1921   -1.2810   -0.5165 O   0  0  0  0  0  0  0  0  0  0  0  0
    1.3069    0.0852   -0.7656 C   0  0  0  0  0  0  0  0  0  0  0  0
    2.4685    0.6025    0.0856 C   0  0  0  0  0  0  0  0  0  0  0  0
    0.2149    0.8392   -0.4812 O   0  0  0  0  0  0  0  0  0  0  0  0
   -2.5645    1.6320   -0.9261 H   0  0  0  0  0  0  0  0  0  0  0  0
   -2.8737    0.6891    0.5423 H   0  0  0  0  0  0  0  0  0  0  0  0
   -1.6467    2.0000    0.5896 H   0  0  0  0  0  0  0  0  0  0  0  0
   -1.3094   -0.2265   -1.4248 H   0  0  0  0  0  0  0  0  0  0  0  0
   -0.7326   -0.6358    1.5578 H   0  0  0  0  0  0  0  0  0  0  0  0
   -1.9363   -1.5003    0.4471 H   0  0  0  0  0  0  0  0  0  0  0  0
    1.6042    0.2191   -1.8291 H   0  0  0  0  0  0  0  0  0  0  0  0
    3.4134    0.2248   -0.3660 H   0  0  0  0  0  0  0  0  0  0  0  0
    2.4157    1.7145    0.0667 H   0  0  0  0  0  0  0  0  0  0  0  0
    2.3240    0.2105    1.1131 H   0  0  0  0  0  0  0  0  0  0  0  0
  1  2  1  0
  2  3  1  0
  3  4  1  0
  4  5  2  0
  4  6  1  0
  6  7  1  0
  7  8  1  0
  7  9  1  0
  9  2  1  0
  1 10  1  0
  1 11  1  0
  1 12  1  0
  2 13  1  0
  3 14  1  0
  3 15  1  0
  7 16  1  0
  8 17  1  0
  8 18  1  0
  8 19  1  0
M  END
