
     RDKit          3D

 23 24  0  0  0  0  0  0  0  0999 V2000
    1.7719    0.9727   -0.1766 C   0  0  0  0  0  0  0  0  0  0  0  0
    0.7827    0.0893    0.5232 C   0  0  0  0  0  0  0  0  0  0  0  0
    1.1796   -1.3513    0.3587 C   0  0  0  0  0  0  0  0  0  0  0  0
    0.1809   -1.9587   -0.5982 C   0  0  0  0  0  0  0  0  0  0  0  0
   -1.0455   -2.2449   -0.0303 O   0  0  0  0  0  0  0  0  0  0  0  0
   -0.9752   -1.0423   -0.6899 C   0  0  0  0  0  0  0  0  0  0  0  0
   -0.6184    0.2246    0.0242 C   0  0  0  0  0  0  0  0  0  0  0  0
   -0.8669    1.4203   -0.8262 C   0  0  0  0  0  0  0  0  0  0  0  0
   -1.5542    0.3243    1.2383 C   0  0  0  0  0  0  0  0  0  0  0  0
    1.7600    1.9791    0.2676 H   0  0  0  0  0  0  0  0  0  0  0  0
    1.6453    1.0177   -1.2660 H   0  0  0  0  0  0  0  0  0  0  0  0
    2.7920    0.5502    0.0208 H   0  0  0  0  0  0  0  0  0  0  0  0
    0.8368    0.3372    1.6126 H   0  0  0  0  0  0  0  0  0  0  0  0
    2.2143   -1.4750    0.0229 H   0  0  0  0  0  0  0  0  0  0  0  0
    1.0700   -1.8926    1.3298 H   0  0  0  0  0  0  0  0  0  0  0  0
    0.5083   -2.4242   -1.5313 H   0  0  0  0  0  0  0  0  0  0  0  0
   -1.6018   -0.9447   -1.5806 H   0  0  0  0  0  0  0  0  0  0  0  0
   -0.0010    2.1182   -0.7649 H   0  0  0  0  0  0  0  0  0  0  0  0
   -1.7672    2.0156   -0.5015 H   0  0  0  0  0  0  0  0  0  0  0  0
   -1.0832    1.1549   -1.8939 H   0  0  0  0  0  0  0  0  0  0  0  0
   -2.5263    0.7028    0.8760 H   0  0  0  0  0  0  0  0  0  0  0  0
   -1.6124   -0.6695    1.6928 H   0  0  0  0  0  0  0  0  0  0  0  0
   -1.0897    1.0959    1.8925 H   0  0  0  0  0  0  0  0  0  0  0  0
  1  2  1  0
  2  3  1  0
  3  4  1  0
  4  5  1  0
  5  6  1  0
  6  7  1  0
  7  8  1  0
  7  9  1  0
  7  2  1  0
  6  4  1  0
  1 10  1  0
  1 11  1  0
  1 12  1  0
  2 13  1  0
  3 14  1  0
  3 15  1  0
  4 16  1  0
  6 17  1  0
  8 18  1  0
  8 19  1  0
  8 20  1  0
  9 21  1  0
  9 22  1  0
  9 23  1  0
M  END
