
     RDKit          3D

 21 22  0  0  0  0  0  0  0  0999 V2000
   -1.5438   -1.6161    0.1306 C   0  0  0  0  0  0  0  0  0  0  0  0
   -0.6680   -0.7789    1.0396 C   0  0  0  0  0  0  0  0  0  0  0  0
    0.7218   -0.6412    0.4722 C   0  0  0  0  0  0  0  0  0  0  0  0
    1.9257   -0.7312   -0.0637 C   0  0  0  0  0  0  0  0  0  0  0  0
    2.5239    0.6582   -0.0307 C   0  0  0  0  0  0  0  0  0  0  0  0
    1.3059    1.3941   -0.1548 O   0  0  0  0  0  0  0  0  0  0  0  0
    0.6160    0.8186    0.8975 C   0  0  0  0  0  0  0  0  0  0  0  0
   -0.8757    0.7463    0.8212 C   0  0  0  0  0  0  0  0  0  0  0  0
   -1.4515    1.0548   -0.5254 C   0  0  0  0  0  0  0  0  0  0  0  0
   -1.5880   -2.6350    0.5515 H   0  0  0  0  0  0  0  0  0  0  0  0
   -1.0725   -1.7097   -0.8886 H   0  0  0  0  0  0  0  0  0  0  0  0
   -2.5674   -1.2025    0.0446 H   0  0  0  0  0  0  0  0  0  0  0  0
   -0.7006   -1.0195    2.1039 H   0  0  0  0  0  0  0  0  0  0  0  0
    2.4069   -1.6180   -0.4555 H   0  0  0  0  0  0  0  0  0  0  0  0
    2.8979    0.8597    0.9707 H   0  0  0  0  0  0  0  0  0  0  0  0
    3.1984    0.8437   -0.8607 H   0  0  0  0  0  0  0  0  0  0  0  0
    1.0556    0.9465    1.8937 H   0  0  0  0  0  0  0  0  0  0  0  0
   -1.3876    1.2231    1.6607 H   0  0  0  0  0  0  0  0  0  0  0  0
   -1.0508    0.3422   -1.2835 H   0  0  0  0  0  0  0  0  0  0  0  0
   -1.1840    2.1110   -0.7704 H   0  0  0  0  0  0  0  0  0  0  0  0
   -2.5620    0.9540   -0.4639 H   0  0  0  0  0  0  0  0  0  0  0  0
  1  2  1  0
  2  3  1  0
  3  4  2  0
  4  5  1  0
  5  6  1  0
  6  7  1  0
  7  8  1  0
  8  9  1  0
  8  2  1  0
  7  3  1  0
  1 10  1  0
  1 11  1  0
  1 12  1  0
  2 13  1  0
  4 14  1  0
  5 15  1  0
  5 16  1  0
  7 17  1  0
  8 18  1  0
  9 19  1  0
  9 20  1  0
  9 21  1  0
M  END
