
     RDKit          3D

 21 22  0  0  0  0  0  0  0  0999 V2000
   -2.3953    0.3941   -0.1109 C   0  0  0  0  0  0  0  0  0  0  0  0
   -0.9705    0.2970    0.4386 C   0  0  0  0  0  0  0  0  0  0  0  0
   -0.1726    1.5381    0.1365 C   0  0  0  0  0  0  0  0  0  0  0  0
    0.7123    1.2710   -0.8735 O   0  0  0  0  0  0  0  0  0  0  0  0
    1.7002    0.3809   -0.5585 C   0  0  0  0  0  0  0  0  0  0  0  0
    1.9493   -0.1405    0.7834 C   0  0  0  0  0  0  0  0  0  0  0  0
    1.1306   -0.9717   -0.0997 C   0  0  0  0  0  0  0  0  0  0  0  0
    1.6962   -2.0922   -0.6933 O   0  0  0  0  0  0  0  0  0  0  0  0
   -0.3620   -0.9445   -0.1128 C   0  0  0  0  0  0  0  0  0  0  0  0
   -3.0662    0.8902    0.6249 H   0  0  0  0  0  0  0  0  0  0  0  0
   -2.8137   -0.6148   -0.2854 H   0  0  0  0  0  0  0  0  0  0  0  0
   -2.4101    0.9716   -1.0476 H   0  0  0  0  0  0  0  0  0  0  0  0
   -1.0809    0.1813    1.5365 H   0  0  0  0  0  0  0  0  0  0  0  0
    0.2934    1.9178    1.0646 H   0  0  0  0  0  0  0  0  0  0  0  0
   -0.9044    2.2950   -0.2561 H   0  0  0  0  0  0  0  0  0  0  0  0
    2.5214    0.3289   -1.3206 H   0  0  0  0  0  0  0  0  0  0  0  0
    1.5394    0.3368    1.7092 H   0  0  0  0  0  0  0  0  0  0  0  0
    2.9907   -0.5311    0.9799 H   0  0  0  0  0  0  0  0  0  0  0  0
    1.0564   -2.6601   -1.1658 H   0  0  0  0  0  0  0  0  0  0  0  0
   -0.7311   -1.8242    0.4396 H   0  0  0  0  0  0  0  0  0  0  0  0
   -0.6833   -1.0237   -1.1890 H   0  0  0  0  0  0  0  0  0  0  0  0
  1  2  1  0
  2  3  1  0
  3  4  1  0
  4  5  1  0
  5  6  1  0
  6  7  1  0
  7  8  1  0
  7  9  1  0
  9  2  1  0
  7  5  1  0
  1 10  1  0
  1 11  1  0
  1 12  1  0
  2 13  1  0
  3 14  1  0
  3 15  1  0
  5 16  1  0
  6 17  1  0
  6 18  1  0
  8 19  1  0
  9 20  1  0
  9 21  1  0
M  END
