
     RDKit          3D

 21 22  0  0  0  0  0  0  0  0999 V2000
    2.4722   -0.7365   -0.2657 C   0  0  0  0  0  0  0  0  0  0  0  0
    1.4903   -0.1712    0.7199 C   0  0  0  0  0  0  0  0  0  0  0  0
    1.1184    1.2866    0.3667 C   0  0  0  0  0  0  0  0  0  0  0  0
    0.0254    0.6618   -0.4414 C   0  0  0  0  0  0  0  0  0  0  0  0
   -1.3990    1.0679   -0.1837 C   0  0  0  0  0  0  0  0  0  0  0  0
   -2.0322   -0.3100   -0.4836 C   0  0  0  0  0  0  0  0  0  0  0  0
   -3.3375   -0.3797   -0.0911 O   0  0  0  0  0  0  0  0  0  0  0  0
   -1.1102   -1.1467    0.3763 C   0  0  0  0  0  0  0  0  0  0  0  0
    0.0694   -0.5805    0.4543 C   0  0  0  0  0  0  0  0  0  0  0  0
    3.4702   -0.9469    0.1877 H   0  0  0  0  0  0  0  0  0  0  0  0
    2.5671   -0.1245   -1.1866 H   0  0  0  0  0  0  0  0  0  0  0  0
    2.0714   -1.7283   -0.6146 H   0  0  0  0  0  0  0  0  0  0  0  0
    1.7864   -0.1898    1.7845 H   0  0  0  0  0  0  0  0  0  0  0  0
    0.8187    1.8955    1.2229 H   0  0  0  0  0  0  0  0  0  0  0  0
    1.8733    1.7828   -0.2516 H   0  0  0  0  0  0  0  0  0  0  0  0
    0.2756    0.4250   -1.4798 H   0  0  0  0  0  0  0  0  0  0  0  0
   -1.7825    1.8363   -0.8516 H   0  0  0  0  0  0  0  0  0  0  0  0
   -1.5516    1.2446    0.8840 H   0  0  0  0  0  0  0  0  0  0  0  0
   -1.8435   -0.4739   -1.5627 H   0  0  0  0  0  0  0  0  0  0  0  0
   -3.5559   -1.3439    0.0625 H   0  0  0  0  0  0  0  0  0  0  0  0
   -1.4257   -2.0686    0.8368 H   0  0  0  0  0  0  0  0  0  0  0  0
  1  2  1  0
  2  3  1  0
  3  4  1  0
  4  5  1  0
  5  6  1  0
  6  7  1  0
  6  8  1  0
  8  9  2  0
  9  2  1  0
  9  4  1  0
  1 10  1  0
  1 11  1  0
  1 12  1  0
  2 13  1  0
  3 14  1  0
  3 15  1  0
  4 16  1  0
  5 17  1  0
  5 18  1  0
  6 19  1  0
  7 20  1  0
  8 21  1  0
M  END
