
     RDKit          3D

 17 18  0  0  0  0  0  0  0  0999 V2000
    1.9244   -0.5064    0.1331 C   0  0  0  0  0  0  0  0  0  0  0  0
    0.7123    0.1934   -0.3478 C   0  0  0  0  0  0  0  0  0  0  0  0
   -0.2265    0.7196    0.7324 C   0  0  0  0  0  0  0  0  0  0  0  0
   -1.2935    1.3276   -0.1006 C   0  0  0  0  0  0  0  0  0  0  0  0
   -1.4840    0.3844   -1.0593 C   0  0  0  0  0  0  0  0  0  0  0  0
   -0.4842   -0.6514   -0.6939 C   0  0  0  0  0  0  0  0  0  0  0  0
   -0.7338   -0.7102    0.8215 C   0  0  0  0  0  0  0  0  0  0  0  0
    2.6569   -0.5521   -0.7120 H   0  0  0  0  0  0  0  0  0  0  0  0
    1.7733   -1.4857    0.5864 H   0  0  0  0  0  0  0  0  0  0  0  0
    2.4235    0.1578    0.8945 H   0  0  0  0  0  0  0  0  0  0  0  0
    0.8983    0.9695   -1.0866 H   0  0  0  0  0  0  0  0  0  0  0  0
    0.1597    1.2005    1.5746 H   0  0  0  0  0  0  0  0  0  0  0  0
   -1.7857    2.2713    0.0259 H   0  0  0  0  0  0  0  0  0  0  0  0
   -2.2010    0.4336   -1.8620 H   0  0  0  0  0  0  0  0  0  0  0  0
   -0.3949   -1.5427   -1.2278 H   0  0  0  0  0  0  0  0  0  0  0  0
   -1.8353   -0.8008    0.9550 H   0  0  0  0  0  0  0  0  0  0  0  0
   -0.1096   -1.4085    1.3668 H   0  0  0  0  0  0  0  0  0  0  0  0
  1  2  1  0
  2  3  1  0
  3  4  1  0
  4  5  2  0
  5  6  1  0
  6  7  1  0
  6  2  1  0
  7  3  1  0
  1  8  1  0
  1  9  1  0
  1 10  1  0
  2 11  1  0
  3 12  1  0
  4 13  1  0
  5 14  1  0
  6 15  1  0
  7 16  1  0
  7 17  1  0
M  END
