
     RDKit          3D

 17 18  0  0  0  0  0  0  0  0999 V2000
    1.5380    0.4454   -0.5764 C   0  0  0  0  0  0  0  0  0  0  0  0
    0.9199   -0.1042    0.6638 C   0  0  0  0  0  0  0  0  0  0  0  0
   -0.2844    0.5634    1.2088 C   0  0  0  0  0  0  0  0  0  0  0  0
   -1.2647    0.7287    0.0533 C   0  0  0  0  0  0  0  0  0  0  0  0
   -1.0856   -0.6841   -0.5401 C   0  0  0  0  0  0  0  0  0  0  0  0
   -0.0783   -1.1884    0.4842 C   0  0  0  0  0  0  0  0  0  0  0  0
   -0.6747   -0.7161    1.6762 O   0  0  0  0  0  0  0  0  0  0  0  0
    0.8546    0.6696   -1.3893 H   0  0  0  0  0  0  0  0  0  0  0  0
    2.2622   -0.3321   -0.9527 H   0  0  0  0  0  0  0  0  0  0  0  0
    2.1283    1.3422   -0.3550 H   0  0  0  0  0  0  0  0  0  0  0  0
    1.6582   -0.3195    1.4252 H   0  0  0  0  0  0  0  0  0  0  0  0
   -0.2163    1.3460    1.9282 H   0  0  0  0  0  0  0  0  0  0  0  0
   -0.9643    1.5046   -0.6514 H   0  0  0  0  0  0  0  0  0  0  0  0
   -2.2795    0.8254    0.4615 H   0  0  0  0  0  0  0  0  0  0  0  0
   -0.6912   -0.6516   -1.5542 H   0  0  0  0  0  0  0  0  0  0  0  0
   -2.0323   -1.2182   -0.5144 H   0  0  0  0  0  0  0  0  0  0  0  0
    0.2101   -2.2110    0.4495 H   0  0  0  0  0  0  0  0  0  0  0  0
  1  2  1  0
  2  3  1  0
  3  4  1  0
  4  5  1  0
  5  6  1  0
  6  7  1  0
  6  2  1  0
  7  3  1  0
  1  8  1  0
  1  9  1  0
  1 10  1  0
  2 11  1  0
  3 12  1  0
  4 13  1  0
  4 14  1  0
  5 15  1  0
  5 16  1  0
  6 17  1  0
M  END
