
     RDKit          3D

 23 24  0  0  0  0  0  0  0  0999 V2000
   -1.3714   -0.4064    1.2423 C   0  0  0  0  0  0  0  0  0  0  0  0
   -1.2169   -0.4193   -0.2686 C   0  0  0  0  0  0  0  0  0  0  0  0
   -0.4671   -1.7190   -0.5861 C   0  0  0  0  0  0  0  0  0  0  0  0
    0.9734   -1.3884   -0.2337 C   0  0  0  0  0  0  0  0  0  0  0  0
    1.0179    0.0986    0.0243 C   0  0  0  0  0  0  0  0  0  0  0  0
    2.2098    0.7638    0.2914 C   0  0  0  0  0  0  0  0  0  0  0  0
    1.2115    0.5407    1.3300 O   0  0  0  0  0  0  0  0  0  0  0  0
   -0.1808    0.5890   -0.7187 C   0  0  0  0  0  0  0  0  0  0  0  0
   -0.5555    1.9973   -0.4588 C   0  0  0  0  0  0  0  0  0  0  0  0
   -2.3110   -0.9651    1.4884 H   0  0  0  0  0  0  0  0  0  0  0  0
   -0.5549   -0.9935    1.7254 H   0  0  0  0  0  0  0  0  0  0  0  0
   -1.4877    0.5971    1.6580 H   0  0  0  0  0  0  0  0  0  0  0  0
   -2.1661   -0.3440   -0.7844 H   0  0  0  0  0  0  0  0  0  0  0  0
   -0.6173   -1.9193   -1.6499 H   0  0  0  0  0  0  0  0  0  0  0  0
   -0.8578   -2.5295    0.0540 H   0  0  0  0  0  0  0  0  0  0  0  0
    1.5586   -1.5594   -1.1725 H   0  0  0  0  0  0  0  0  0  0  0  0
    1.3591   -1.9915    0.5954 H   0  0  0  0  0  0  0  0  0  0  0  0
    2.3522    1.8645    0.1858 H   0  0  0  0  0  0  0  0  0  0  0  0
    3.1612    0.2125    0.4401 H   0  0  0  0  0  0  0  0  0  0  0  0
   -0.0143    0.3925   -1.8090 H   0  0  0  0  0  0  0  0  0  0  0  0
   -1.5147    2.0793    0.1106 H   0  0  0  0  0  0  0  0  0  0  0  0
   -0.7822    2.4873   -1.4511 H   0  0  0  0  0  0  0  0  0  0  0  0
    0.2539    2.6127   -0.0127 H   0  0  0  0  0  0  0  0  0  0  0  0
  1  2  1  0
  2  3  1  0
  3  4  1  0
  4  5  1  0
  5  6  1  0
  6  7  1  0
  5  8  1  0
  8  9  1  0
  8  2  1  0
  7  5  1  0
  1 10  1  0
  1 11  1  0
  1 12  1  0
  2 13  1  0
  3 14  1  0
  3 15  1  0
  4 16  1  0
  4 17  1  0
  6 18  1  0
  6 19  1  0
  8 20  1  0
  9 21  1  0
  9 22  1  0
  9 23  1  0
M  END
