
     RDKit          3D

 15 15  0  0  0  0  0  0  0  0999 V2000
   -1.8039   -0.2403    0.2703 C   0  0  0  0  0  0  0  0  0  0  0  0
   -0.4767    0.1118   -0.2828 C   0  0  0  0  0  0  0  0  0  0  0  0
    0.3147    1.0764    0.5699 C   0  0  0  0  0  0  0  0  0  0  0  0
    1.6097    0.9530    0.1329 O   0  0  0  0  0  0  0  0  0  0  0  0
    1.7854   -0.3030   -0.4052 C   0  0  0  0  0  0  0  0  0  0  0  0
    0.4824   -0.9943   -0.4012 C   0  0  0  0  0  0  0  0  0  0  0  0
    0.2555   -2.1626   -0.4755 O   0  0  0  0  0  0  0  0  0  0  0  0
   -1.7431   -0.9336    1.1068 H   0  0  0  0  0  0  0  0  0  0  0  0
   -2.3193    0.7144    0.5409 H   0  0  0  0  0  0  0  0  0  0  0  0
   -2.4191   -0.6906   -0.5340 H   0  0  0  0  0  0  0  0  0  0  0  0
   -0.5553    0.5772   -1.2933 H   0  0  0  0  0  0  0  0  0  0  0  0
    0.2879    0.7979    1.6509 H   0  0  0  0  0  0  0  0  0  0  0  0
   -0.0527    2.1102    0.4910 H   0  0  0  0  0  0  0  0  0  0  0  0
    2.5785   -0.8698    0.1204 H   0  0  0  0  0  0  0  0  0  0  0  0
    2.0560   -0.1468   -1.4910 H   0  0  0  0  0  0  0  0  0  0  0  0
  1  2  1  0
  2  3  1  0
  3  4  1  0
  4  5  1  0
  5  6  1  0
  6  7  2  0
  6  2  1  0
  1  8  1  0
  1  9  1  0
  1 10  1  0
  2 11  1  0
  3 12  1  0
  3 13  1  0
  5 14  1  0
  5 15  1  0
M  END
