
     RDKit          3D

 17 19  0  0  0  0  0  0  0  0999 V2000
   -0.0761    2.4591   -0.4552 C   0  0  0  0  0  0  0  0  0  0  0  0
    0.1515    1.1880    0.3154 C   0  0  0  0  0  0  0  0  0  0  0  0
    0.6924    0.0455   -0.3611 C   0  0  0  0  0  0  0  0  0  0  0  0
    0.9445   -1.1760    0.5367 C   0  0  0  0  0  0  0  0  0  0  0  0
    0.2439   -2.4601    0.5132 C   0  0  0  0  0  0  0  0  0  0  0  0
   -0.4459   -1.4107   -0.1256 C   0  0  0  0  0  0  0  0  0  0  0  0
   -0.7250   -0.0024    0.2527 C   0  0  0  0  0  0  0  0  0  0  0  0
    0.8018    2.8130   -0.9938 H   0  0  0  0  0  0  0  0  0  0  0  0
   -0.8825    2.2502   -1.1933 H   0  0  0  0  0  0  0  0  0  0  0  0
   -0.5081    3.2239    0.2460 H   0  0  0  0  0  0  0  0  0  0  0  0
    0.5887    1.4157    1.3372 H   0  0  0  0  0  0  0  0  0  0  0  0
    0.6489   -0.1192   -1.4553 H   0  0  0  0  0  0  0  0  0  0  0  0
    1.0376   -0.8719    1.5920 H   0  0  0  0  0  0  0  0  0  0  0  0
   -0.2722   -2.9249    1.4055 H   0  0  0  0  0  0  0  0  0  0  0  0
    0.8105   -3.2670   -0.0200 H   0  0  0  0  0  0  0  0  0  0  0  0
   -0.3296   -1.4886   -1.2657 H   0  0  0  0  0  0  0  0  0  0  0  0
   -1.6334    0.3252   -0.3290 H   0  0  0  0  0  0  0  0  0  0  0  0
  1  2  1  0
  2  3  1  0
  3  4  1  0
  4  5  1  0
  5  6  1  0
  6  7  1  0
  7  2  1  0
  7  3  1  0
  6  4  1  0
  1  8  1  0
  1  9  1  0
  1 10  1  0
  2 11  1  0
  3 12  1  0
  4 13  1  0
  5 14  1  0
  5 15  1  0
  6 16  1  0
  7 17  1  0
M  END
