
     RDKit          3D

 21 22  0  0  0  0  0  0  0  0999 V2000
    2.4585    0.1908   -0.0809 C   0  0  0  0  0  0  0  0  0  0  0  0
    1.0231    0.5124   -0.5299 C   0  0  0  0  0  0  0  0  0  0  0  0
    0.3403   -0.7792   -0.7711 C   0  0  0  0  0  0  0  0  0  0  0  0
   -1.0815   -0.8302   -0.2562 C   0  0  0  0  0  0  0  0  0  0  0  0
   -1.1290   -0.8875    1.2492 C   0  0  0  0  0  0  0  0  0  0  0  0
   -1.0056    0.3832    1.7384 O   0  0  0  0  0  0  0  0  0  0  0  0
   -0.8299    1.2550    0.6651 C   0  0  0  0  0  0  0  0  0  0  0  0
   -1.6194    0.5945   -0.4732 C   0  0  0  0  0  0  0  0  0  0  0  0
    0.4900    1.3468    0.3843 O   0  0  0  0  0  0  0  0  0  0  0  0
    2.5399    0.2670    1.0200 H   0  0  0  0  0  0  0  0  0  0  0  0
    3.1904    0.8596   -0.5254 H   0  0  0  0  0  0  0  0  0  0  0  0
    2.7323   -0.8516   -0.3420 H   0  0  0  0  0  0  0  0  0  0  0  0
    1.1643    1.0885   -1.4924 H   0  0  0  0  0  0  0  0  0  0  0  0
    0.2852   -0.9550   -1.8668 H   0  0  0  0  0  0  0  0  0  0  0  0
    0.9085   -1.6622   -0.3649 H   0  0  0  0  0  0  0  0  0  0  0  0
   -1.6839   -1.5815   -0.7587 H   0  0  0  0  0  0  0  0  0  0  0  0
   -2.1389   -1.2715    1.5388 H   0  0  0  0  0  0  0  0  0  0  0  0
   -0.3915   -1.6043    1.6650 H   0  0  0  0  0  0  0  0  0  0  0  0
   -1.2863    2.2474    0.8839 H   0  0  0  0  0  0  0  0  0  0  0  0
   -1.2787    1.0207   -1.4122 H   0  0  0  0  0  0  0  0  0  0  0  0
   -2.6877    0.6571   -0.2707 H   0  0  0  0  0  0  0  0  0  0  0  0
  1  2  1  0
  2  3  1  0
  3  4  1  0
  4  5  1  0
  5  6  1  0
  6  7  1  0
  7  8  1  0
  7  9  1  0
  9  2  1  0
  8  4  1  0
  1 10  1  0
  1 11  1  0
  1 12  1  0
  2 13  1  0
  3 14  1  0
  3 15  1  0
  4 16  1  0
  5 17  1  0
  5 18  1  0
  7 19  1  0
  8 20  1  0
  8 21  1  0
M  END
