
     RDKit          3D

 20 21  0  0  0  0  0  0  0  0999 V2000
    2.3434    0.3658    0.3548 C   0  0  0  0  0  0  0  0  0  0  0  0
    0.8831    0.5210   -0.0312 C   0  0  0  0  0  0  0  0  0  0  0  0
    0.6157   -0.2405   -1.3326 C   0  0  0  0  0  0  0  0  0  0  0  0
   -0.4840   -0.9686   -0.5968 C   0  0  0  0  0  0  0  0  0  0  0  0
   -1.7835   -0.3050   -0.8495 C   0  0  0  0  0  0  0  0  0  0  0  0
   -2.2407    0.3809    0.1773 C   0  0  0  0  0  0  0  0  0  0  0  0
   -1.2700    0.2601    1.2909 C   0  0  0  0  0  0  0  0  0  0  0  0
   -0.0605   -0.3871    0.7086 C   0  0  0  0  0  0  0  0  0  0  0  0
    2.4445   -0.6280    0.8126 H   0  0  0  0  0  0  0  0  0  0  0  0
    2.9535    0.3587   -0.5826 H   0  0  0  0  0  0  0  0  0  0  0  0
    2.7133    1.1799    0.9754 H   0  0  0  0  0  0  0  0  0  0  0  0
    0.5414    1.5820   -0.0988 H   0  0  0  0  0  0  0  0  0  0  0  0
    0.2919    0.4176   -2.1521 H   0  0  0  0  0  0  0  0  0  0  0  0
    1.4130   -0.9119   -1.6508 H   0  0  0  0  0  0  0  0  0  0  0  0
   -0.4706   -2.0648   -0.6875 H   0  0  0  0  0  0  0  0  0  0  0  0
   -2.3571   -0.3534   -1.8030 H   0  0  0  0  0  0  0  0  0  0  0  0
   -3.1912    0.9509    0.2006 H   0  0  0  0  0  0  0  0  0  0  0  0
   -1.7299   -0.3454    2.1035 H   0  0  0  0  0  0  0  0  0  0  0  0
   -1.0434    1.2684    1.7441 H   0  0  0  0  0  0  0  0  0  0  0  0
    0.4311   -1.0805    1.4171 H   0  0  0  0  0  0  0  0  0  0  0  0
  1  2  1  0
  2  3  1  0
  3  4  1  0
  4  5  1  0
  5  6  2  0
  6  7  1  0
  7  8  1  0
  8  2  1  0
  8  4  1  0
  1  9  1  0
  1 10  1  0
  1 11  1  0
  2 12  1  0
  3 13  1  0
  3 14  1  0
  4 15  1  0
  5 16  1  0
  6 17  1  0
  7 18  1  0
  7 19  1  0
  8 20  1  0
M  END
