
     RDKit          3D

 20 21  0  0  0  0  0  0  0  0999 V2000
    2.0671   -0.2596   -0.2908 C   0  0  0  0  0  0  0  0  0  0  0  0
    0.6142   -0.5514   -0.4709 C   0  0  0  0  0  0  0  0  0  0  0  0
   -0.0812   -1.2221    0.6824 C   0  0  0  0  0  0  0  0  0  0  0  0
    0.0403    0.0750    1.4124 C   0  0  0  0  0  0  0  0  0  0  0  0
   -0.3500    0.4925    0.0180 C   0  0  0  0  0  0  0  0  0  0  0  0
   -0.5657    1.7475   -0.4620 C   0  0  0  0  0  0  0  0  0  0  0  0
   -1.3505   -0.6495    0.0906 C   0  0  0  0  0  0  0  0  0  0  0  0
   -1.6437   -1.1158   -1.1733 O   0  0  0  0  0  0  0  0  0  0  0  0
    2.2157    0.7306    0.1569 H   0  0  0  0  0  0  0  0  0  0  0  0
    2.5737   -0.2561   -1.2993 H   0  0  0  0  0  0  0  0  0  0  0  0
    2.5795   -1.0806    0.2705 H   0  0  0  0  0  0  0  0  0  0  0  0
    0.3036   -0.9354   -1.4645 H   0  0  0  0  0  0  0  0  0  0  0  0
    0.0535   -2.1508    1.0210 H   0  0  0  0  0  0  0  0  0  0  0  0
    1.0172    0.3741    1.7707 H   0  0  0  0  0  0  0  0  0  0  0  0
   -0.8217    0.2184    2.0960 H   0  0  0  0  0  0  0  0  0  0  0  0
   -0.1544    1.9495   -1.4962 H   0  0  0  0  0  0  0  0  0  0  0  0
   -0.1125    2.5806    0.1553 H   0  0  0  0  0  0  0  0  0  0  0  0
   -1.6513    2.0566   -0.5410 H   0  0  0  0  0  0  0  0  0  0  0  0
   -2.1813   -0.5113    0.7837 H   0  0  0  0  0  0  0  0  0  0  0  0
   -2.5523   -1.4921   -1.2596 H   0  0  0  0  0  0  0  0  0  0  0  0
  1  2  1  0
  2  3  1  0
  3  4  1  0
  4  5  1  0
  5  6  1  0
  5  7  1  0
  7  8  1  0
  5  2  1  0
  7  3  1  0
  1  9  1  0
  1 10  1  0
  1 11  1  0
  2 12  1  0
  3 13  1  0
  4 14  1  0
  4 15  1  0
  6 16  1  0
  6 17  1  0
  6 18  1  0
  7 19  1  0
  8 20  1  0
M  END
