
     RDKit          3D

 19 19  0  0  0  0  0  0  0  0999 V2000
   -1.8689    1.1853   -0.1928 C   0  0  0  0  0  0  0  0  0  0  0  0
   -1.2100   -0.0510   -0.7196 C   0  0  0  0  0  0  0  0  0  0  0  0
   -0.6693   -0.8908    0.4369 C   0  0  0  0  0  0  0  0  0  0  0  0
    0.6979   -0.7709   -0.1585 C   0  0  0  0  0  0  0  0  0  0  0  0
    1.1251   -1.9723   -0.6775 O   0  0  0  0  0  0  0  0  0  0  0  0
    1.7191   -0.0477    0.6904 C   0  0  0  0  0  0  0  0  0  0  0  0
    1.2097    1.1538    1.1749 O   0  0  0  0  0  0  0  0  0  0  0  0
    0.1704    0.1173   -1.2359 C   0  0  0  0  0  0  0  0  0  0  0  0
    0.7551    0.6982   -2.1364 O   0  0  0  0  0  0  0  0  0  0  0  0
   -1.5022    1.4818    0.8186 H   0  0  0  0  0  0  0  0  0  0  0  0
   -1.8157    2.0520   -0.8806 H   0  0  0  0  0  0  0  0  0  0  0  0
   -2.9543    0.9625   -0.0670 H   0  0  0  0  0  0  0  0  0  0  0  0
   -1.8959   -0.6282   -1.3530 H   0  0  0  0  0  0  0  0  0  0  0  0
   -0.7342   -0.3977    1.4223 H   0  0  0  0  0  0  0  0  0  0  0  0
   -1.0867   -1.9140    0.4873 H   0  0  0  0  0  0  0  0  0  0  0  0
    1.7340   -2.4251   -0.0591 H   0  0  0  0  0  0  0  0  0  0  0  0
    2.5870    0.1898    0.0343 H   0  0  0  0  0  0  0  0  0  0  0  0
    2.0129   -0.6873    1.5554 H   0  0  0  0  0  0  0  0  0  0  0  0
    1.7260    1.9442    0.8600 H   0  0  0  0  0  0  0  0  0  0  0  0
  1  2  1  0
  2  3  1  0
  3  4  1  0
  4  5  1  0
  4  6  1  0
  6  7  1  0
  4  8  1  0
  8  9  2  0
  8  2  1  0
  1 10  1  0
  1 11  1  0
  1 12  1  0
  2 13  1  0
  3 14  1  0
  3 15  1  0
  5 16  1  0
  6 17  1  0
  6 18  1  0
  7 19  1  0
M  END
