
     RDKit          3D

 21 23  0  0  0  0  0  0  0  0999 V2000
    2.4700   -0.0337   -0.2571 C   0  0  0  0  0  0  0  0  0  0  0  0
    1.0509   -0.5091    0.0755 C   0  0  0  0  0  0  0  0  0  0  0  0
    0.4864    0.1629    1.3174 C   0  0  0  0  0  0  0  0  0  0  0  0
   -0.6653    0.7429    0.5308 C   0  0  0  0  0  0  0  0  0  0  0  0
    0.0643    0.2712   -0.7406 C   0  0  0  0  0  0  0  0  0  0  0  0
   -0.9906   -0.5904   -1.4520 C   0  0  0  0  0  0  0  0  0  0  0  0
   -2.1944    0.1763   -1.0041 C   0  0  0  0  0  0  0  0  0  0  0  0
   -3.0576    0.0360   -0.0445 O   0  0  0  0  0  0  0  0  0  0  0  0
   -1.8831   -0.0921    0.5059 C   0  0  0  0  0  0  0  0  0  0  0  0
    3.1774   -0.2795    0.5331 H   0  0  0  0  0  0  0  0  0  0  0  0
    2.3976    1.0796   -0.3916 H   0  0  0  0  0  0  0  0  0  0  0  0
    2.7110   -0.4699   -1.2487 H   0  0  0  0  0  0  0  0  0  0  0  0
    0.9878   -1.5958    0.0468 H   0  0  0  0  0  0  0  0  0  0  0  0
    1.1523    0.8775    1.8055 H   0  0  0  0  0  0  0  0  0  0  0  0
    0.1404   -0.6519    2.0196 H   0  0  0  0  0  0  0  0  0  0  0  0
   -0.7662    1.8314    0.6064 H   0  0  0  0  0  0  0  0  0  0  0  0
    0.4640    1.0919   -1.3563 H   0  0  0  0  0  0  0  0  0  0  0  0
   -0.8799   -0.5267   -2.5363 H   0  0  0  0  0  0  0  0  0  0  0  0
   -0.9297   -1.6064   -1.0373 H   0  0  0  0  0  0  0  0  0  0  0  0
   -2.0789    1.2598   -1.3279 H   0  0  0  0  0  0  0  0  0  0  0  0
   -1.6563   -1.1740    0.7630 H   0  0  0  0  0  0  0  0  0  0  0  0
  1  2  1  0
  2  3  1  0
  3  4  1  0
  4  5  1  0
  5  6  1  0
  6  7  1  0
  7  8  1  0
  8  9  1  0
  5  2  1  0
  9  7  1  0
  9  4  1  0
  1 10  1  0
  1 11  1  0
  1 12  1  0
  2 13  1  0
  3 14  1  0
  3 15  1  0
  4 16  1  0
  5 17  1  0
  6 18  1  0
  6 19  1  0
  7 20  1  0
  9 21  1  0
M  END
