
     RDKit          3D

 23 24  0  0  0  0  0  0  0  0999 V2000
   -2.4460   -0.7619   -0.1423 C   0  0  0  0  0  0  0  0  0  0  0  0
   -1.3436   -0.2068    0.6891 C   0  0  0  0  0  0  0  0  0  0  0  0
   -1.3971    1.2715    0.9805 C   0  0  0  0  0  0  0  0  0  0  0  0
    0.0428    1.3608    0.4575 C   0  0  0  0  0  0  0  0  0  0  0  0
    0.1948    1.0567   -0.9751 C   0  0  0  0  0  0  0  0  0  0  0  0
   -0.0100   -0.0306    0.0298 C   0  0  0  0  0  0  0  0  0  0  0  0
    1.0305   -1.0510    0.3180 C   0  0  0  0  0  0  0  0  0  0  0  0
    2.3336   -0.8175   -0.3682 C   0  0  0  0  0  0  0  0  0  0  0  0
    2.8496    0.4092    0.0285 O   0  0  0  0  0  0  0  0  0  0  0  0
   -3.2414   -0.0634   -0.4026 H   0  0  0  0  0  0  0  0  0  0  0  0
   -2.9048   -1.6443    0.3807 H   0  0  0  0  0  0  0  0  0  0  0  0
   -1.9939   -1.2004   -1.0737 H   0  0  0  0  0  0  0  0  0  0  0  0
   -1.2091   -0.7559    1.6638 H   0  0  0  0  0  0  0  0  0  0  0  0
   -1.5153    1.5562    2.0362 H   0  0  0  0  0  0  0  0  0  0  0  0
   -2.0392    1.8516    0.2663 H   0  0  0  0  0  0  0  0  0  0  0  0
    0.8131    1.8011    1.0827 H   0  0  0  0  0  0  0  0  0  0  0  0
    1.1777    1.1310   -1.4348 H   0  0  0  0  0  0  0  0  0  0  0  0
   -0.6673    1.3515   -1.6426 H   0  0  0  0  0  0  0  0  0  0  0  0
    0.6416   -2.0559   -0.0078 H   0  0  0  0  0  0  0  0  0  0  0  0
    1.2223   -1.0459    1.4166 H   0  0  0  0  0  0  0  0  0  0  0  0
    3.0467   -1.6028   -0.0149 H   0  0  0  0  0  0  0  0  0  0  0  0
    2.2894   -0.9007   -1.4642 H   0  0  0  0  0  0  0  0  0  0  0  0
    3.1257    0.3476    0.9783 H   0  0  0  0  0  0  0  0  0  0  0  0
  1  2  1  0
  2  3  1  0
  3  4  1  0
  4  5  1  0
  5  6  1  0
  6  7  1  0
  7  8  1  0
  8  9  1  0
  6  2  1  0
  6  4  1  0
  1 10  1  0
  1 11  1  0
  1 12  1  0
  2 13  1  0
  3 14  1  0
  3 15  1  0
  4 16  1  0
  5 17  1  0
  5 18  1  0
  7 19  1  0
  7 20  1  0
  8 21  1  0
  8 22  1  0
  9 23  1  0
M  END
