
     RDKit          3D

 25 26  0  0  0  0  0  0  0  0999 V2000
    2.3104    0.3528    0.9304 C   0  0  0  0  0  0  0  0  0  0  0  0
    1.5039   -0.1677   -0.2004 C   0  0  0  0  0  0  0  0  0  0  0  0
    0.5057   -1.2259    0.1666 C   0  0  0  0  0  0  0  0  0  0  0  0
   -0.7288   -0.9448   -0.6727 C   0  0  0  0  0  0  0  0  0  0  0  0
   -0.0973   -0.1347   -1.8201 C   0  0  0  0  0  0  0  0  0  0  0  0
    0.6252    0.8435   -0.8695 C   0  0  0  0  0  0  0  0  0  0  0  0
   -0.4596    1.2307    0.1046 C   0  0  0  0  0  0  0  0  0  0  0  0
   -1.5380    0.1781   -0.0655 C   0  0  0  0  0  0  0  0  0  0  0  0
   -2.2212   -0.1908    1.1960 C   0  0  0  0  0  0  0  0  0  0  0  0
    1.7650    0.8356    1.7342 H   0  0  0  0  0  0  0  0  0  0  0  0
    2.8821   -0.4881    1.3657 H   0  0  0  0  0  0  0  0  0  0  0  0
    3.0459    1.0724    0.5166 H   0  0  0  0  0  0  0  0  0  0  0  0
    2.2249   -0.5347   -0.9842 H   0  0  0  0  0  0  0  0  0  0  0  0
    0.8975   -2.2039   -0.1723 H   0  0  0  0  0  0  0  0  0  0  0  0
    0.2612   -1.2191    1.2560 H   0  0  0  0  0  0  0  0  0  0  0  0
   -1.2731   -1.7980   -0.9936 H   0  0  0  0  0  0  0  0  0  0  0  0
    0.6337   -0.7286   -2.3800 H   0  0  0  0  0  0  0  0  0  0  0  0
   -0.8473    0.3713   -2.4255 H   0  0  0  0  0  0  0  0  0  0  0  0
    1.1104    1.6471   -1.3765 H   0  0  0  0  0  0  0  0  0  0  0  0
   -0.1478    1.2294    1.1512 H   0  0  0  0  0  0  0  0  0  0  0  0
   -0.8213    2.2466   -0.1345 H   0  0  0  0  0  0  0  0  0  0  0  0
   -2.2427    0.5258   -0.8690 H   0  0  0  0  0  0  0  0  0  0  0  0
   -3.3239   -0.2700    0.9767 H   0  0  0  0  0  0  0  0  0  0  0  0
   -2.1340    0.5759    2.0017 H   0  0  0  0  0  0  0  0  0  0  0  0
   -1.9309   -1.2027    1.5640 H   0  0  0  0  0  0  0  0  0  0  0  0
  1  2  1  0
  2  3  1  0
  3  4  1  0
  4  5  1  0
  5  6  1  0
  6  7  1  0
  7  8  1  0
  8  9  1  0
  6  2  1  0
  8  4  1  0
  1 10  1  0
  1 11  1  0
  1 12  1  0
  2 13  1  0
  3 14  1  0
  3 15  1  0
  4 16  1  0
  5 17  1  0
  5 18  1  0
  6 19  1  0
  7 20  1  0
  7 21  1  0
  8 22  1  0
  9 23  1  0
  9 24  1  0
  9 25  1  0
M  END
