
     RDKit          3D

 21 23  0  0  0  0  0  0  0  0999 V2000
    2.4259   -0.6041    0.1037 C   0  0  0  0  0  0  0  0  0  0  0  0
    0.9614   -0.6956   -0.0123 C   0  0  0  0  0  0  0  0  0  0  0  0
    0.2811    0.1255   -1.0795 C   0  0  0  0  0  0  0  0  0  0  0  0
    0.6379    1.3282   -0.2384 C   0  0  0  0  0  0  0  0  0  0  0  0
    0.1409    0.3126    0.7688 C   0  0  0  0  0  0  0  0  0  0  0  0
    0.0874    0.4406    2.0116 O   0  0  0  0  0  0  0  0  0  0  0  0
   -0.9066    0.0208   -0.2274 C   0  0  0  0  0  0  0  0  0  0  0  0
   -2.2065    0.5501   -0.3581 C   0  0  0  0  0  0  0  0  0  0  0  0
   -1.9158   -0.9816   -0.1945 C   0  0  0  0  0  0  0  0  0  0  0  0
    2.8556   -1.6355   -0.0635 H   0  0  0  0  0  0  0  0  0  0  0  0
    2.6787   -0.3891    1.1833 H   0  0  0  0  0  0  0  0  0  0  0  0
    2.9405    0.0541   -0.5952 H   0  0  0  0  0  0  0  0  0  0  0  0
    0.5216   -1.7174    0.0021 H   0  0  0  0  0  0  0  0  0  0  0  0
    0.4005    0.0350   -2.0711 H   0  0  0  0  0  0  0  0  0  0  0  0
   -0.0189    2.2021   -0.3469 H   0  0  0  0  0  0  0  0  0  0  0  0
    1.6825    1.6064   -0.1842 H   0  0  0  0  0  0  0  0  0  0  0  0
   -0.7792    0.5913    2.4316 H   0  0  0  0  0  0  0  0  0  0  0  0
   -2.7324    0.9935    0.5289 H   0  0  0  0  0  0  0  0  0  0  0  0
   -2.6960    0.8028   -1.3181 H   0  0  0  0  0  0  0  0  0  0  0  0
   -2.1144   -1.6039   -1.0851 H   0  0  0  0  0  0  0  0  0  0  0  0
   -2.2441   -1.4357    0.7445 H   0  0  0  0  0  0  0  0  0  0  0  0
  1  2  1  0
  2  3  1  0
  3  4  1  0
  4  5  1  0
  5  6  1  0
  5  7  1  0
  7  8  1  0
  8  9  1  0
  5  2  1  0
  9  7  1  0
  7  3  1  0
  1 10  1  0
  1 11  1  0
  1 12  1  0
  2 13  1  0
  3 14  1  0
  4 15  1  0
  4 16  1  0
  6 17  1  0
  8 18  1  0
  8 19  1  0
  9 20  1  0
  9 21  1  0
M  END
