
     RDKit          3D

 16 18  0  0  0  0  0  0  0  0999 V2000
    1.5839    0.0274   -0.7103 C   0  0  0  0  0  0  0  0  0  0  0  0
    0.7731   -0.4843    0.3955 C   0  0  0  0  0  0  0  0  0  0  0  0
   -0.1310    0.4597    1.1273 C   0  0  0  0  0  0  0  0  0  0  0  0
   -0.9264   -0.6667    1.3934 O   0  0  0  0  0  0  0  0  0  0  0  0
   -0.5657   -1.0871    0.0995 C   0  0  0  0  0  0  0  0  0  0  0  0
   -1.3335   -0.0944   -0.7364 C   0  0  0  0  0  0  0  0  0  0  0  0
   -0.7412    1.0273   -1.2373 O   0  0  0  0  0  0  0  0  0  0  0  0
   -0.9764    1.1600    0.0932 C   0  0  0  0  0  0  0  0  0  0  0  0
    1.8154    1.1251   -0.6333 H   0  0  0  0  0  0  0  0  0  0  0  0
    2.5992   -0.4664   -0.6827 H   0  0  0  0  0  0  0  0  0  0  0  0
    1.2091   -0.1624   -1.7318 H   0  0  0  0  0  0  0  0  0  0  0  0
    1.3219   -1.1184    1.1141 H   0  0  0  0  0  0  0  0  0  0  0  0
    0.2420    1.0177    1.9607 H   0  0  0  0  0  0  0  0  0  0  0  0
   -0.6447   -2.1295   -0.1243 H   0  0  0  0  0  0  0  0  0  0  0  0
   -2.3960   -0.3153   -0.8372 H   0  0  0  0  0  0  0  0  0  0  0  0
   -1.8298    1.7071    0.5096 H   0  0  0  0  0  0  0  0  0  0  0  0
  1  2  1  0
  2  3  1  0
  3  4  1  0
  4  5  1  0
  5  6  1  0
  6  7  1  0
  7  8  1  0
  5  2  1  0
  8  6  1  0
  8  3  1  0
  1  9  1  0
  1 10  1  0
  1 11  1  0
  2 12  1  0
  3 13  1  0
  5 14  1  0
  6 15  1  0
  8 16  1  0
M  END
