
     RDKit          3D

 23 24  0  0  0  0  0  0  0  0999 V2000
    2.5565   -1.0614    0.3661 C   0  0  0  0  0  0  0  0  0  0  0  0
    1.1834   -0.7802   -0.1656 C   0  0  0  0  0  0  0  0  0  0  0  0
    1.1238    0.5884   -0.7859 C   0  0  0  0  0  0  0  0  0  0  0  0
   -0.3098    0.6770   -1.2598 C   0  0  0  0  0  0  0  0  0  0  0  0
   -0.9701    0.2475    0.0646 C   0  0  0  0  0  0  0  0  0  0  0  0
   -1.8709   -0.9251   -0.1186 C   0  0  0  0  0  0  0  0  0  0  0  0
   -1.6451    1.4285    0.7273 C   0  0  0  0  0  0  0  0  0  0  0  0
    0.2985   -0.0649    0.8132 C   0  0  0  0  0  0  0  0  0  0  0  0
    1.0689    1.0871    0.5297 O   0  0  0  0  0  0  0  0  0  0  0  0
    2.8334   -0.1837    1.0177 H   0  0  0  0  0  0  0  0  0  0  0  0
    2.6163   -1.9552    1.0025 H   0  0  0  0  0  0  0  0  0  0  0  0
    3.3058   -1.0655   -0.4656 H   0  0  0  0  0  0  0  0  0  0  0  0
    0.7033   -1.5902   -0.7356 H   0  0  0  0  0  0  0  0  0  0  0  0
    1.9060    0.9207   -1.4197 H   0  0  0  0  0  0  0  0  0  0  0  0
   -0.6189    1.6674   -1.5716 H   0  0  0  0  0  0  0  0  0  0  0  0
   -0.4477   -0.1224   -2.0149 H   0  0  0  0  0  0  0  0  0  0  0  0
   -1.4148   -1.9016    0.0636 H   0  0  0  0  0  0  0  0  0  0  0  0
   -2.7918   -0.8422    0.5276 H   0  0  0  0  0  0  0  0  0  0  0  0
   -2.2875   -0.9623   -1.1677 H   0  0  0  0  0  0  0  0  0  0  0  0
   -1.6846    2.3144    0.0592 H   0  0  0  0  0  0  0  0  0  0  0  0
   -2.6883    1.1711    1.0505 H   0  0  0  0  0  0  0  0  0  0  0  0
   -1.1166    1.7408    1.6569 H   0  0  0  0  0  0  0  0  0  0  0  0
    0.2502   -0.3881    1.8259 H   0  0  0  0  0  0  0  0  0  0  0  0
  1  2  1  0
  2  3  1  0
  3  4  1  0
  4  5  1  0
  5  6  1  0
  5  7  1  0
  5  8  1  0
  8  9  1  0
  8  2  1  0
  9  3  1  0
  1 10  1  0
  1 11  1  0
  1 12  1  0
  2 13  1  0
  3 14  1  0
  4 15  1  0
  4 16  1  0
  6 17  1  0
  6 18  1  0
  6 19  1  0
  7 20  1  0
  7 21  1  0
  7 22  1  0
  8 23  1  0
M  END
