
     RDKit          3D

 25 26  0  0  0  0  0  0  0  0999 V2000
    2.2690   -0.4128    0.4828 C   0  0  0  0  0  0  0  0  0  0  0  0
    1.0436   -0.4598   -0.3492 C   0  0  0  0  0  0  0  0  0  0  0  0
    0.2032   -1.7177   -0.1034 C   0  0  0  0  0  0  0  0  0  0  0  0
   -1.0234   -1.3544   -0.9519 C   0  0  0  0  0  0  0  0  0  0  0  0
   -1.2871    0.0645   -0.4455 C   0  0  0  0  0  0  0  0  0  0  0  0
   -2.0913   -0.0757    0.8214 C   0  0  0  0  0  0  0  0  0  0  0  0
    0.0618    0.6223   -0.1260 C   0  0  0  0  0  0  0  0  0  0  0  0
    0.4680    1.9729   -0.7244 C   0  0  0  0  0  0  0  0  0  0  0  0
    0.2417    1.7831    0.7235 C   0  0  0  0  0  0  0  0  0  0  0  0
    2.5119    0.6169    0.8081 H   0  0  0  0  0  0  0  0  0  0  0  0
    3.1302   -0.7766   -0.1370 H   0  0  0  0  0  0  0  0  0  0  0  0
    2.1637   -1.1251    1.3170 H   0  0  0  0  0  0  0  0  0  0  0  0
    1.3160   -0.4718   -1.4406 H   0  0  0  0  0  0  0  0  0  0  0  0
   -0.0470   -1.7747    0.9685 H   0  0  0  0  0  0  0  0  0  0  0  0
    0.7048   -2.6094   -0.4966 H   0  0  0  0  0  0  0  0  0  0  0  0
   -0.6951   -1.2958   -1.9993 H   0  0  0  0  0  0  0  0  0  0  0  0
   -1.8624   -2.0273   -0.7780 H   0  0  0  0  0  0  0  0  0  0  0  0
   -1.8549    0.6616   -1.1871 H   0  0  0  0  0  0  0  0  0  0  0  0
   -2.8861   -0.8471    0.7384 H   0  0  0  0  0  0  0  0  0  0  0  0
   -2.5731    0.8602    1.1351 H   0  0  0  0  0  0  0  0  0  0  0  0
   -1.4334   -0.4098    1.6608 H   0  0  0  0  0  0  0  0  0  0  0  0
    1.5273    2.0879   -1.0600 H   0  0  0  0  0  0  0  0  0  0  0  0
   -0.2803    2.4626   -1.3641 H   0  0  0  0  0  0  0  0  0  0  0  0
    1.0961    1.9673    1.3861 H   0  0  0  0  0  0  0  0  0  0  0  0
   -0.7033    2.2586    1.1214 H   0  0  0  0  0  0  0  0  0  0  0  0
  1  2  1  0
  2  3  1  0
  3  4  1  0
  4  5  1  0
  5  6  1  0
  5  7  1  0
  7  8  1  0
  8  9  1  0
  7  2  1  0
  9  7  1  0
  1 10  1  0
  1 11  1  0
  1 12  1  0
  2 13  1  0
  3 14  1  0
  3 15  1  0
  4 16  1  0
  4 17  1  0
  5 18  1  0
  6 19  1  0
  6 20  1  0
  6 21  1  0
  8 22  1  0
  8 23  1  0
  9 24  1  0
  9 25  1  0
M  END
