
     RDKit          3D

 19 20  0  0  0  0  0  0  0  0999 V2000
   -1.6482   -0.7999   -0.2928 C   0  0  0  0  0  0  0  0  0  0  0  0
   -0.7056    0.3256   -0.4896 C   0  0  0  0  0  0  0  0  0  0  0  0
   -0.9877    1.5131    0.4051 C   0  0  0  0  0  0  0  0  0  0  0  0
    0.2545    2.2046    0.4277 O   0  0  0  0  0  0  0  0  0  0  0  0
    1.2794    1.3871   -0.0292 C   0  0  0  0  0  0  0  0  0  0  0  0
    2.4431    1.8096   -0.2504 O   0  0  0  0  0  0  0  0  0  0  0  0
    0.7125    0.0538   -0.1699 C   0  0  0  0  0  0  0  0  0  0  0  0
    1.1111   -0.9179    0.9123 C   0  0  0  0  0  0  0  0  0  0  0  0
    1.4420   -1.1538   -0.5238 C   0  0  0  0  0  0  0  0  0  0  0  0
   -1.5017   -1.5289   -1.1182 H   0  0  0  0  0  0  0  0  0  0  0  0
   -1.5633   -1.3398    0.6471 H   0  0  0  0  0  0  0  0  0  0  0  0
   -2.6894   -0.3967   -0.4503 H   0  0  0  0  0  0  0  0  0  0  0  0
   -0.7846    0.6884   -1.5318 H   0  0  0  0  0  0  0  0  0  0  0  0
   -1.2983    1.2077    1.4207 H   0  0  0  0  0  0  0  0  0  0  0  0
   -1.7375    2.1728   -0.0536 H   0  0  0  0  0  0  0  0  0  0  0  0
    2.0163   -0.6576    1.5351 H   0  0  0  0  0  0  0  0  0  0  0  0
    0.3160   -1.4426    1.4310 H   0  0  0  0  0  0  0  0  0  0  0  0
    2.4969   -1.1584   -0.8597 H   0  0  0  0  0  0  0  0  0  0  0  0
    0.8445   -1.9671   -1.0097 H   0  0  0  0  0  0  0  0  0  0  0  0
  1  2  1  0
  2  3  1  0
  3  4  1  0
  4  5  1  0
  5  6  2  0
  5  7  1  0
  7  8  1  0
  8  9  1  0
  7  2  1  0
  9  7  1  0
  1 10  1  0
  1 11  1  0
  1 12  1  0
  2 13  1  0
  3 14  1  0
  3 15  1  0
  8 16  1  0
  8 17  1  0
  9 18  1  0
  9 19  1  0
M  END
