
     RDKit          3D

 19 19  0  0  0  0  0  0  0  0999 V2000
   -2.1910   -0.1253    0.1893 C   0  0  0  0  0  0  0  0  0  0  0  0
   -0.7940    0.1965   -0.3513 C   0  0  0  0  0  0  0  0  0  0  0  0
   -0.3812    1.5421    0.1315 C   0  0  0  0  0  0  0  0  0  0  0  0
    0.9451    1.8133   -0.2463 O   0  0  0  0  0  0  0  0  0  0  0  0
    1.8836    0.8080   -0.2100 C   0  0  0  0  0  0  0  0  0  0  0  0
    3.0844    1.1038   -0.4432 O   0  0  0  0  0  0  0  0  0  0  0  0
    1.5568   -0.5884    0.0859 C   0  0  0  0  0  0  0  0  0  0  0  0
    2.3173   -1.3845   -0.8019 O   0  0  0  0  0  0  0  0  0  0  0  0
    0.1078   -0.9198    0.0107 C   0  0  0  0  0  0  0  0  0  0  0  0
   -2.3502    0.4905    1.0921 H   0  0  0  0  0  0  0  0  0  0  0  0
   -2.9602    0.0721   -0.5954 H   0  0  0  0  0  0  0  0  0  0  0  0
   -2.2519   -1.1999    0.4696 H   0  0  0  0  0  0  0  0  0  0  0  0
   -0.8465    0.2461   -1.4761 H   0  0  0  0  0  0  0  0  0  0  0  0
   -1.0202    2.2990   -0.4069 H   0  0  0  0  0  0  0  0  0  0  0  0
   -0.5511    1.7030    1.2114 H   0  0  0  0  0  0  0  0  0  0  0  0
    1.9716   -0.8034    1.1124 H   0  0  0  0  0  0  0  0  0  0  0  0
    1.8046   -2.1648   -1.1150 H   0  0  0  0  0  0  0  0  0  0  0  0
   -0.1014   -1.7738   -0.6991 H   0  0  0  0  0  0  0  0  0  0  0  0
   -0.2235   -1.3145    1.0154 H   0  0  0  0  0  0  0  0  0  0  0  0
  1  2  1  0
  2  3  1  0
  3  4  1  0
  4  5  1  0
  5  6  2  0
  5  7  1  0
  7  8  1  0
  7  9  1  0
  9  2  1  0
  1 10  1  0
  1 11  1  0
  1 12  1  0
  2 13  1  0
  3 14  1  0
  3 15  1  0
  7 16  1  0
  8 17  1  0
  9 18  1  0
  9 19  1  0
M  END
