
     RDKit          3D

 23 24  0  0  0  0  0  0  0  0999 V2000
   -1.7583   -1.2968    0.1493 C   0  0  0  0  0  0  0  0  0  0  0  0
   -1.0484   -0.0936   -0.3395 C   0  0  0  0  0  0  0  0  0  0  0  0
   -1.4388    1.2200    0.3309 C   0  0  0  0  0  0  0  0  0  0  0  0
    0.0298    1.4857    0.6055 C   0  0  0  0  0  0  0  0  0  0  0  0
    0.5957    2.5013   -0.1347 O   0  0  0  0  0  0  0  0  0  0  0  0
    0.3456    0.1492    0.0405 C   0  0  0  0  0  0  0  0  0  0  0  0
    1.3764    0.0666   -1.0306 C   0  0  0  0  0  0  0  0  0  0  0  0
    1.8949   -1.2070   -0.3495 C   0  0  0  0  0  0  0  0  0  0  0  0
    1.0826   -0.8218    0.8722 C   0  0  0  0  0  0  0  0  0  0  0  0
   -1.4861   -1.6526    1.1408 H   0  0  0  0  0  0  0  0  0  0  0  0
   -1.6910   -2.0953   -0.6453 H   0  0  0  0  0  0  0  0  0  0  0  0
   -2.8636   -1.0646    0.1937 H   0  0  0  0  0  0  0  0  0  0  0  0
   -1.1965    0.0230   -1.4478 H   0  0  0  0  0  0  0  0  0  0  0  0
   -1.9341    1.9452   -0.3248 H   0  0  0  0  0  0  0  0  0  0  0  0
   -2.0548    1.0353    1.2285 H   0  0  0  0  0  0  0  0  0  0  0  0
    0.2094    1.5290    1.7107 H   0  0  0  0  0  0  0  0  0  0  0  0
   -0.0258    2.8642   -0.8054 H   0  0  0  0  0  0  0  0  0  0  0  0
    0.9610   -0.1885   -2.0383 H   0  0  0  0  0  0  0  0  0  0  0  0
    2.1544    0.8326   -1.0636 H   0  0  0  0  0  0  0  0  0  0  0  0
    2.9902   -1.1882   -0.2161 H   0  0  0  0  0  0  0  0  0  0  0  0
    1.5831   -2.1215   -0.8617 H   0  0  0  0  0  0  0  0  0  0  0  0
    1.7326   -0.2937    1.6187 H   0  0  0  0  0  0  0  0  0  0  0  0
    0.5416   -1.6286    1.3666 H   0  0  0  0  0  0  0  0  0  0  0  0
  1  2  1  0
  2  3  1  0
  3  4  1  0
  4  5  1  0
  4  6  1  0
  6  7  1  0
  7  8  1  0
  8  9  1  0
  6  2  1  0
  9  6  1  0
  1 10  1  0
  1 11  1  0
  1 12  1  0
  2 13  1  0
  3 14  1  0
  3 15  1  0
  4 16  1  0
  5 17  1  0
  7 18  1  0
  7 19  1  0
  8 20  1  0
  8 21  1  0
  9 22  1  0
  9 23  1  0
M  END
