
     RDKit          3D

 21 23  0  0  0  0  0  0  0  0999 V2000
    2.0975   -0.8723    0.5864 C   0  0  0  0  0  0  0  0  0  0  0  0
    1.3953    0.2282   -0.1621 C   0  0  0  0  0  0  0  0  0  0  0  0
    0.3264   -0.1652   -1.0918 C   0  0  0  0  0  0  0  0  0  0  0  0
   -0.5945   -1.3148   -0.7720 C   0  0  0  0  0  0  0  0  0  0  0  0
   -1.8656   -0.6244   -0.3939 C   0  0  0  0  0  0  0  0  0  0  0  0
   -0.9629   -0.2961    0.8025 C   0  0  0  0  0  0  0  0  0  0  0  0
   -0.3856   -1.5387    0.6086 O   0  0  0  0  0  0  0  0  0  0  0  0
    0.0295    0.6634    0.2128 C   0  0  0  0  0  0  0  0  0  0  0  0
   -0.4672    2.0467   -0.0306 C   0  0  0  0  0  0  0  0  0  0  0  0
    3.2110   -0.7722    0.4917 H   0  0  0  0  0  0  0  0  0  0  0  0
    1.8852   -0.8877    1.6616 H   0  0  0  0  0  0  0  0  0  0  0  0
    1.8792   -1.8892    0.1501 H   0  0  0  0  0  0  0  0  0  0  0  0
    2.0630    1.0417   -0.5141 H   0  0  0  0  0  0  0  0  0  0  0  0
    0.1156    0.3559   -2.0395 H   0  0  0  0  0  0  0  0  0  0  0  0
   -0.6122   -2.1676   -1.4112 H   0  0  0  0  0  0  0  0  0  0  0  0
   -2.1012    0.2920   -1.0067 H   0  0  0  0  0  0  0  0  0  0  0  0
   -2.7324   -1.2461   -0.1583 H   0  0  0  0  0  0  0  0  0  0  0  0
   -1.4428   -0.0680    1.7263 H   0  0  0  0  0  0  0  0  0  0  0  0
   -0.9965    2.0441   -1.0285 H   0  0  0  0  0  0  0  0  0  0  0  0
    0.3772    2.7798   -0.1469 H   0  0  0  0  0  0  0  0  0  0  0  0
   -1.2191    2.3906    0.6960 H   0  0  0  0  0  0  0  0  0  0  0  0
  1  2  1  0
  2  3  1  0
  3  4  1  0
  4  5  1  0
  5  6  1  0
  6  7  1  0
  6  8  1  0
  8  9  1  0
  8  2  1  0
  8  3  1  0
  7  4  1  0
  1 10  1  0
  1 11  1  0
  1 12  1  0
  2 13  1  0
  3 14  1  0
  4 15  1  0
  5 16  1  0
  5 17  1  0
  6 18  1  0
  9 19  1  0
  9 20  1  0
  9 21  1  0
M  END
