
     RDKit          3D

 21 23  0  0  0  0  0  0  0  0999 V2000
   -2.1732   -0.7475    0.1793 C   0  0  0  0  0  0  0  0  0  0  0  0
   -0.6994   -0.8027    0.1230 C   0  0  0  0  0  0  0  0  0  0  0  0
    0.0380    0.0954    1.1257 C   0  0  0  0  0  0  0  0  0  0  0  0
   -0.2960    1.2196    0.1453 C   0  0  0  0  0  0  0  0  0  0  0  0
   -0.0388    0.1491   -0.8899 C   0  0  0  0  0  0  0  0  0  0  0  0
   -0.5914    0.2501   -2.0947 O   0  0  0  0  0  0  0  0  0  0  0  0
    1.3913   -0.2453   -0.7256 C   0  0  0  0  0  0  0  0  0  0  0  0
    2.3649    0.5485    0.0397 C   0  0  0  0  0  0  0  0  0  0  0  0
    1.4557   -0.2538    0.8448 C   0  0  0  0  0  0  0  0  0  0  0  0
   -2.4972   -0.7882    1.2390 H   0  0  0  0  0  0  0  0  0  0  0  0
   -2.6564    0.0792   -0.3365 H   0  0  0  0  0  0  0  0  0  0  0  0
   -2.5719   -1.6915   -0.2909 H   0  0  0  0  0  0  0  0  0  0  0  0
   -0.2608   -1.7975    0.1570 H   0  0  0  0  0  0  0  0  0  0  0  0
   -0.3442    0.1551    2.1098 H   0  0  0  0  0  0  0  0  0  0  0  0
    0.3622    2.0788    0.1575 H   0  0  0  0  0  0  0  0  0  0  0  0
   -1.3386    1.5085    0.2827 H   0  0  0  0  0  0  0  0  0  0  0  0
   -1.3529    0.8693   -2.1064 H   0  0  0  0  0  0  0  0  0  0  0  0
    1.6480   -1.2271   -1.1732 H   0  0  0  0  0  0  0  0  0  0  0  0
    2.3348    1.6349   -0.0739 H   0  0  0  0  0  0  0  0  0  0  0  0
    3.4205    0.1554   -0.0185 H   0  0  0  0  0  0  0  0  0  0  0  0
    1.8055   -1.1903    1.3060 H   0  0  0  0  0  0  0  0  0  0  0  0
  1  2  1  0
  2  3  1  0
  3  4  1  0
  4  5  1  0
  5  6  1  0
  5  7  1  0
  7  8  1  0
  8  9  1  0
  5  2  1  0
  9  7  1  0
  9  3  1  0
  1 10  1  0
  1 11  1  0
  1 12  1  0
  2 13  1  0
  3 14  1  0
  4 15  1  0
  4 16  1  0
  6 17  1  0
  7 18  1  0
  8 19  1  0
  8 20  1  0
  9 21  1  0
M  END
