
     RDKit          3D

 22 22  0  0  0  0  0  0  0  0999 V2000
    2.7099   -0.2437    0.2032 C   0  0  0  0  0  0  0  0  0  0  0  0
    1.3240    0.3322    0.0540 C   0  0  0  0  0  0  0  0  0  0  0  0
    0.8523    0.3394   -1.3411 C   0  0  0  0  0  0  0  0  0  0  0  0
   -0.4463    0.1308   -1.3864 C   0  0  0  0  0  0  0  0  0  0  0  0
   -0.9642   -0.0392    0.0214 C   0  0  0  0  0  0  0  0  0  0  0  0
   -1.5153    1.2848    0.4453 C   0  0  0  0  0  0  0  0  0  0  0  0
   -1.9746   -1.1253    0.1148 C   0  0  0  0  0  0  0  0  0  0  0  0
    0.2800   -0.4315    0.7912 C   0  0  0  0  0  0  0  0  0  0  0  0
    3.3958    0.4122   -0.3789 H   0  0  0  0  0  0  0  0  0  0  0  0
    2.9626   -0.2202    1.2770 H   0  0  0  0  0  0  0  0  0  0  0  0
    2.8067   -1.2539   -0.1980 H   0  0  0  0  0  0  0  0  0  0  0  0
    1.3411    1.3831    0.3999 H   0  0  0  0  0  0  0  0  0  0  0  0
    1.4551    0.4919   -2.2445 H   0  0  0  0  0  0  0  0  0  0  0  0
   -1.1097    0.0762   -2.2642 H   0  0  0  0  0  0  0  0  0  0  0  0
   -2.3126    1.5610   -0.2782 H   0  0  0  0  0  0  0  0  0  0  0  0
   -0.7383    2.0677    0.3571 H   0  0  0  0  0  0  0  0  0  0  0  0
   -1.9932    1.2678    1.4399 H   0  0  0  0  0  0  0  0  0  0  0  0
   -2.0657   -1.6889   -0.8497 H   0  0  0  0  0  0  0  0  0  0  0  0
   -2.9466   -0.7073    0.4465 H   0  0  0  0  0  0  0  0  0  0  0  0
   -1.7024   -1.9148    0.8738 H   0  0  0  0  0  0  0  0  0  0  0  0
    0.4381   -1.5264    0.6525 H   0  0  0  0  0  0  0  0  0  0  0  0
    0.2034   -0.1959    1.8646 H   0  0  0  0  0  0  0  0  0  0  0  0
  1  2  1  0
  2  3  1  0
  3  4  2  0
  4  5  1  0
  5  6  1  0
  5  7  1  0
  5  8  1  0
  8  2  1  0
  1  9  1  0
  1 10  1  0
  1 11  1  0
  2 12  1  0
  3 13  1  0
  4 14  1  0
  6 15  1  0
  6 16  1  0
  6 17  1  0
  7 18  1  0
  7 19  1  0
  7 20  1  0
  8 21  1  0
  8 22  1  0
M  END
