
     RDKit          3D

 21 22  0  0  0  0  0  0  0  0999 V2000
    2.1055   -0.6657   -0.6853 C   0  0  0  0  0  0  0  0  0  0  0  0
    1.1539   -0.1645    0.3681 C   0  0  0  0  0  0  0  0  0  0  0  0
    0.2707   -1.2533    0.9538 C   0  0  0  0  0  0  0  0  0  0  0  0
   -0.9120   -0.5265    0.4212 C   0  0  0  0  0  0  0  0  0  0  0  0
   -2.1288   -1.0339    0.0135 C   0  0  0  0  0  0  0  0  0  0  0  0
   -1.9919   -0.1967    1.1767 O   0  0  0  0  0  0  0  0  0  0  0  0
   -0.0659    0.4913   -0.2729 C   0  0  0  0  0  0  0  0  0  0  0  0
   -0.2073    1.9090    0.1449 C   0  0  0  0  0  0  0  0  0  0  0  0
   -1.3371    2.4760   -0.4636 O   0  0  0  0  0  0  0  0  0  0  0  0
    2.3168   -1.7348   -0.5310 H   0  0  0  0  0  0  0  0  0  0  0  0
    3.0371   -0.0650   -0.6510 H   0  0  0  0  0  0  0  0  0  0  0  0
    1.6876   -0.5019   -1.7139 H   0  0  0  0  0  0  0  0  0  0  0  0
    1.6088    0.4137    1.1892 H   0  0  0  0  0  0  0  0  0  0  0  0
    0.4117   -2.2186    0.3914 H   0  0  0  0  0  0  0  0  0  0  0  0
    0.3497   -1.3849    2.0428 H   0  0  0  0  0  0  0  0  0  0  0  0
   -2.4353   -2.0965    0.2315 H   0  0  0  0  0  0  0  0  0  0  0  0
   -2.7101   -0.5669   -0.8336 H   0  0  0  0  0  0  0  0  0  0  0  0
   -0.1227    0.3904   -1.3698 H   0  0  0  0  0  0  0  0  0  0  0  0
   -0.3427    2.0550    1.2330 H   0  0  0  0  0  0  0  0  0  0  0  0
    0.6724    2.4728   -0.2359 H   0  0  0  0  0  0  0  0  0  0  0  0
   -1.3604    2.2009   -1.4089 H   0  0  0  0  0  0  0  0  0  0  0  0
  1  2  1  0
  2  3  1  0
  3  4  1  0
  4  5  1  0
  5  6  1  0
  4  7  1  0
  7  8  1  0
  8  9  1  0
  7  2  1  0
  6  4  1  0
  1 10  1  0
  1 11  1  0
  1 12  1  0
  2 13  1  0
  3 14  1  0
  3 15  1  0
  5 16  1  0
  5 17  1  0
  7 18  1  0
  8 19  1  0
  8 20  1  0
  9 21  1  0
M  END
