
     RDKit          3D

 18 18  0  0  0  0  0  0  0  0999 V2000
    2.0316   -0.0367   -0.5302 C   0  0  0  0  0  0  0  0  0  0  0  0
    0.8145   -0.6518    0.0525 C   0  0  0  0  0  0  0  0  0  0  0  0
    0.2900    0.0644    1.2985 C   0  0  0  0  0  0  0  0  0  0  0  0
   -0.5076   -0.0109    0.0369 C   0  0  0  0  0  0  0  0  0  0  0  0
   -1.7433   -0.9058    0.1731 C   0  0  0  0  0  0  0  0  0  0  0  0
   -0.8072    1.2281   -0.7487 C   0  0  0  0  0  0  0  0  0  0  0  0
    2.5313   -0.6585   -1.2987 H   0  0  0  0  0  0  0  0  0  0  0  0
    1.9177    0.9648   -0.9420 H   0  0  0  0  0  0  0  0  0  0  0  0
    2.7916    0.0550    0.3018 H   0  0  0  0  0  0  0  0  0  0  0  0
    0.8586   -1.7753    0.0951 H   0  0  0  0  0  0  0  0  0  0  0  0
    0.0588   -0.6270    2.1506 H   0  0  0  0  0  0  0  0  0  0  0  0
    0.7715    0.9869    1.6231 H   0  0  0  0  0  0  0  0  0  0  0  0
   -2.6041   -0.2137    0.3894 H   0  0  0  0  0  0  0  0  0  0  0  0
   -1.9580   -1.4569   -0.7410 H   0  0  0  0  0  0  0  0  0  0  0  0
   -1.6740   -1.5747    1.0431 H   0  0  0  0  0  0  0  0  0  0  0  0
   -1.4052    1.9427   -0.1327 H   0  0  0  0  0  0  0  0  0  0  0  0
   -1.4164    0.9056   -1.6420 H   0  0  0  0  0  0  0  0  0  0  0  0
    0.0504    1.7639   -1.1287 H   0  0  0  0  0  0  0  0  0  0  0  0
  1  2  1  0
  2  3  1  0
  3  4  1  0
  4  5  1  0
  4  6  1  0
  4  2  1  0
  1  7  1  0
  1  8  1  0
  1  9  1  0
  2 10  1  0
  3 11  1  0
  3 12  1  0
  5 13  1  0
  5 14  1  0
  5 15  1  0
  6 16  1  0
  6 17  1  0
  6 18  1  0
M  END
