
     RDKit          3D

 20 20  0  0  0  0  0  0  0  0999 V2000
   -1.7367   -1.1086    0.5794 C   0  0  0  0  0  0  0  0  0  0  0  0
   -0.7708   -0.5079   -0.4360 C   0  0  0  0  0  0  0  0  0  0  0  0
   -1.3776    0.7467   -0.9627 C   0  0  0  0  0  0  0  0  0  0  0  0
   -0.5702    1.7713   -0.8258 C   0  0  0  0  0  0  0  0  0  0  0  0
    0.7089    1.3690   -0.1850 C   0  0  0  0  0  0  0  0  0  0  0  0
    0.4759   -0.0347    0.2660 C   0  0  0  0  0  0  0  0  0  0  0  0
    1.6593   -0.9403    0.0088 C   0  0  0  0  0  0  0  0  0  0  0  0
    2.7444   -0.4043    0.7044 O   0  0  0  0  0  0  0  0  0  0  0  0
   -1.7777   -2.2215    0.4475 H   0  0  0  0  0  0  0  0  0  0  0  0
   -2.7642   -0.6919    0.4613 H   0  0  0  0  0  0  0  0  0  0  0  0
   -1.4332   -0.8609    1.6240 H   0  0  0  0  0  0  0  0  0  0  0  0
   -0.5836   -1.2023   -1.2567 H   0  0  0  0  0  0  0  0  0  0  0  0
   -2.3628    0.7794   -1.3982 H   0  0  0  0  0  0  0  0  0  0  0  0
   -0.8182    2.7901   -1.1469 H   0  0  0  0  0  0  0  0  0  0  0  0
    1.5613    1.4229   -0.9180 H   0  0  0  0  0  0  0  0  0  0  0  0
    0.9491    2.0651    0.6608 H   0  0  0  0  0  0  0  0  0  0  0  0
    0.2956   -0.0501    1.3641 H   0  0  0  0  0  0  0  0  0  0  0  0
    1.9262   -1.0331   -1.0438 H   0  0  0  0  0  0  0  0  0  0  0  0
    1.4249   -1.9093    0.5082 H   0  0  0  0  0  0  0  0  0  0  0  0
    2.4495    0.0205    1.5486 H   0  0  0  0  0  0  0  0  0  0  0  0
  1  2  1  0
  2  3  1  0
  3  4  2  0
  4  5  1  0
  5  6  1  0
  6  7  1  0
  7  8  1  0
  6  2  1  0
  1  9  1  0
  1 10  1  0
  1 11  1  0
  2 12  1  0
  3 13  1  0
  4 14  1  0
  5 15  1  0
  5 16  1  0
  6 17  1  0
  7 18  1  0
  7 19  1  0
  8 20  1  0
M  END
