
     RDKit          3D

 19 19  0  0  0  0  0  0  0  0999 V2000
    2.0489   -0.0815   -0.0996 C   0  0  0  0  0  0  0  0  0  0  0  0
    0.6680   -0.2472   -0.6898 C   0  0  0  0  0  0  0  0  0  0  0  0
    0.0124   -1.4060    0.0371 C   0  0  0  0  0  0  0  0  0  0  0  0
   -1.3230   -1.4458   -0.3273 O   0  0  0  0  0  0  0  0  0  0  0  0
   -2.0440   -0.4872    0.3770 C   0  0  0  0  0  0  0  0  0  0  0  0
   -1.1730    0.6942    0.5522 C   0  0  0  0  0  0  0  0  0  0  0  0
   -1.2834    1.3899    1.5330 O   0  0  0  0  0  0  0  0  0  0  0  0
   -0.1795    0.9849   -0.5018 C   0  0  0  0  0  0  0  0  0  0  0  0
    0.5492    2.1287   -0.2849 O   0  0  0  0  0  0  0  0  0  0  0  0
    2.0169    0.4107    0.8934 H   0  0  0  0  0  0  0  0  0  0  0  0
    2.7552    0.4257   -0.7804 H   0  0  0  0  0  0  0  0  0  0  0  0
    2.4440   -1.1095    0.0870 H   0  0  0  0  0  0  0  0  0  0  0  0
    0.7771   -0.4921   -1.7556 H   0  0  0  0  0  0  0  0  0  0  0  0
    0.1129   -1.2398    1.1436 H   0  0  0  0  0  0  0  0  0  0  0  0
    0.5543   -2.3278   -0.2541 H   0  0  0  0  0  0  0  0  0  0  0  0
   -2.3909   -0.9296    1.3272 H   0  0  0  0  0  0  0  0  0  0  0  0
   -2.8840   -0.1771   -0.2856 H   0  0  0  0  0  0  0  0  0  0  0  0
   -0.7653    1.1380   -1.4525 H   0  0  0  0  0  0  0  0  0  0  0  0
    0.1042    2.7715    0.3153 H   0  0  0  0  0  0  0  0  0  0  0  0
  1  2  1  0
  2  3  1  0
  3  4  1  0
  4  5  1  0
  5  6  1  0
  6  7  2  0
  6  8  1  0
  8  9  1  0
  8  2  1  0
  1 10  1  0
  1 11  1  0
  1 12  1  0
  2 13  1  0
  3 14  1  0
  3 15  1  0
  5 16  1  0
  5 17  1  0
  8 18  1  0
  9 19  1  0
M  END
