
     RDKit          3D

 19 19  0  0  0  0  0  0  0  0999 V2000
    2.2875   -0.3066    0.2207 C   0  0  0  0  0  0  0  0  0  0  0  0
    0.8433   -0.1606    0.7230 C   0  0  0  0  0  0  0  0  0  0  0  0
    0.2144    0.9072   -0.1082 C   0  0  0  0  0  0  0  0  0  0  0  0
   -1.2944    0.9426   -0.0034 C   0  0  0  0  0  0  0  0  0  0  0  0
   -1.6210    1.2440    1.3086 O   0  0  0  0  0  0  0  0  0  0  0  0
   -1.7434   -0.4477   -0.2776 C   0  0  0  0  0  0  0  0  0  0  0  0
   -2.8252   -0.6350   -0.7646 O   0  0  0  0  0  0  0  0  0  0  0  0
   -0.8755   -1.5835    0.0426 C   0  0  0  0  0  0  0  0  0  0  0  0
    0.2070   -1.3368    0.7978 O   0  0  0  0  0  0  0  0  0  0  0  0
    2.3676    0.0785   -0.8383 H   0  0  0  0  0  0  0  0  0  0  0  0
    2.9837    0.3212    0.8053 H   0  0  0  0  0  0  0  0  0  0  0  0
    2.5796   -1.3621    0.1747 H   0  0  0  0  0  0  0  0  0  0  0  0
    0.9459    0.2597    1.7677 H   0  0  0  0  0  0  0  0  0  0  0  0
    0.4919    0.7979   -1.1758 H   0  0  0  0  0  0  0  0  0  0  0  0
    0.6149    1.8882    0.2398 H   0  0  0  0  0  0  0  0  0  0  0  0
   -1.6688    1.6755   -0.7360 H   0  0  0  0  0  0  0  0  0  0  0  0
   -1.4371    2.2032    1.4857 H   0  0  0  0  0  0  0  0  0  0  0  0
   -1.5210   -2.3335    0.5932 H   0  0  0  0  0  0  0  0  0  0  0  0
   -0.5495   -2.1522   -0.8774 H   0  0  0  0  0  0  0  0  0  0  0  0
  1  2  1  0
  2  3  1  0
  3  4  1  0
  4  5  1  0
  4  6  1  0
  6  7  2  0
  6  8  1  0
  8  9  1  0
  9  2  1  0
  1 10  1  0
  1 11  1  0
  1 12  1  0
  2 13  1  0
  3 14  1  0
  3 15  1  0
  4 16  1  0
  5 17  1  0
  8 18  1  0
  8 19  1  0
M  END
