
     RDKit          3D

 23 25  0  0  0  0  0  0  0  0999 V2000
    2.2847    0.6685   -0.3982 C   0  0  0  0  0  0  0  0  0  0  0  0
    0.7754    0.6945   -0.4917 C   0  0  0  0  0  0  0  0  0  0  0  0
    0.2185   -0.6915   -0.8370 C   0  0  0  0  0  0  0  0  0  0  0  0
   -1.2344   -0.4583   -1.2041 C   0  0  0  0  0  0  0  0  0  0  0  0
   -1.9434    0.2506   -0.1167 C   0  0  0  0  0  0  0  0  0  0  0  0
   -1.1517    0.5134    1.1120 C   0  0  0  0  0  0  0  0  0  0  0  0
   -0.0745   -0.3813    1.4575 C   0  0  0  0  0  0  0  0  0  0  0  0
    0.2167   -1.4481    0.4751 C   0  0  0  0  0  0  0  0  0  0  0  0
    0.2221    0.9411    0.8692 C   0  0  0  0  0  0  0  0  0  0  0  0
    2.5992    1.2589    0.5074 H   0  0  0  0  0  0  0  0  0  0  0  0
    2.7463    1.0840   -1.3266 H   0  0  0  0  0  0  0  0  0  0  0  0
    2.5686   -0.4121   -0.2721 H   0  0  0  0  0  0  0  0  0  0  0  0
    0.4391    1.4330   -1.2513 H   0  0  0  0  0  0  0  0  0  0  0  0
    0.8032   -1.1623   -1.6215 H   0  0  0  0  0  0  0  0  0  0  0  0
   -1.2287    0.0698   -2.1809 H   0  0  0  0  0  0  0  0  0  0  0  0
   -1.6658   -1.4882   -1.3732 H   0  0  0  0  0  0  0  0  0  0  0  0
   -2.9121   -0.2589    0.1401 H   0  0  0  0  0  0  0  0  0  0  0  0
   -2.2710    1.2543   -0.5225 H   0  0  0  0  0  0  0  0  0  0  0  0
   -1.7194    1.0846    1.8917 H   0  0  0  0  0  0  0  0  0  0  0  0
    0.2007   -0.5114    2.5183 H   0  0  0  0  0  0  0  0  0  0  0  0
   -0.6392   -2.1803    0.4718 H   0  0  0  0  0  0  0  0  0  0  0  0
    1.1230   -2.0214    0.6466 H   0  0  0  0  0  0  0  0  0  0  0  0
    0.6426    1.7610    1.5059 H   0  0  0  0  0  0  0  0  0  0  0  0
  1  2  1  0
  2  3  1  0
  3  4  1  0
  4  5  1  0
  5  6  1  0
  6  7  1  0
  7  8  1  0
  7  9  1  0
  9  2  1  0
  8  3  1  0
  9  6  1  0
  1 10  1  0
  1 11  1  0
  1 12  1  0
  2 13  1  0
  3 14  1  0
  4 15  1  0
  4 16  1  0
  5 17  1  0
  5 18  1  0
  6 19  1  0
  7 20  1  0
  8 21  1  0
  8 22  1  0
  9 23  1  0
M  END
