
     RDKit          3D

 17 18  0  0  0  0  0  0  0  0999 V2000
    1.4032   -1.0636    0.3431 C   0  0  0  0  0  0  0  0  0  0  0  0
    0.8597   -0.0044   -0.5620 C   0  0  0  0  0  0  0  0  0  0  0  0
    1.2429    1.3815   -0.2698 C   0  0  0  0  0  0  0  0  0  0  0  0
    2.3179    1.9651    0.0089 O   0  0  0  0  0  0  0  0  0  0  0  0
   -0.0847    1.7909   -0.4291 O   0  0  0  0  0  0  0  0  0  0  0  0
   -0.4787    0.4973   -0.2015 C   0  0  0  0  0  0  0  0  0  0  0  0
   -1.6733   -0.0543   -0.8583 C   0  0  0  0  0  0  0  0  0  0  0  0
   -1.9609   -0.7267    0.3525 O   0  0  0  0  0  0  0  0  0  0  0  0
   -1.0848    0.1133    1.0838 C   0  0  0  0  0  0  0  0  0  0  0  0
    0.6615   -1.9149    0.3293 H   0  0  0  0  0  0  0  0  0  0  0  0
    2.3639   -1.4470   -0.0858 H   0  0  0  0  0  0  0  0  0  0  0  0
    1.5116   -0.7116    1.3725 H   0  0  0  0  0  0  0  0  0  0  0  0
    0.9765   -0.2371   -1.6402 H   0  0  0  0  0  0  0  0  0  0  0  0
   -1.3949   -0.7480   -1.6907 H   0  0  0  0  0  0  0  0  0  0  0  0
   -2.4449    0.7005   -1.1393 H   0  0  0  0  0  0  0  0  0  0  0  0
   -0.4840   -0.4415    1.8175 H   0  0  0  0  0  0  0  0  0  0  0  0
   -1.7310    0.9006    1.5691 H   0  0  0  0  0  0  0  0  0  0  0  0
  1  2  1  0
  2  3  1  0
  3  4  2  0
  3  5  1  0
  5  6  1  0
  6  7  1  0
  7  8  1  0
  8  9  1  0
  6  2  1  0
  9  6  1  0
  1 10  1  0
  1 11  1  0
  1 12  1  0
  2 13  1  0
  7 14  1  0
  7 15  1  0
  9 16  1  0
  9 17  1  0
M  END
