
     RDKit          2D

 19 21  0  0  0  0  0  0  0  0999 V2000
    2.1213    1.0607    0.0000 C   0  0  0  0  0  0  0  0  0  0  0  0
    1.0607    0.0000    0.0000 C   0  0  0  0  0  0  0  0  0  0  0  0
   -0.0000   -1.0607    0.0000 C   0  0  0  0  0  0  0  0  0  0  0  0
    0.4527    0.3694    0.0000 C   0  0  0  0  0  0  0  0  0  0  0  0
    1.2002    0.8445    0.0000 O   0  0  0  0  0  0  0  0  0  0  0  0
   -1.0607    2.1213    0.0000 C   0  0  0  0  0  0  0  0  0  0  0  0
   -2.1213    1.0607    0.0000 C   0  0  0  0  0  0  0  0  0  0  0  0
   -1.0607    0.0000    0.0000 C   0  0  0  0  0  0  0  0  0  0  0  0
    0.0000    1.0607    0.0000 C   0  0  0  0  0  0  0  0  0  0  0  0
    3.1820    2.1213    0.0000 H   0  0  0  0  0  0  0  0  0  0  0  0
    3.1820    0.0000    0.0000 H   0  0  0  0  0  0  0  0  0  0  0  0
    1.6306    1.6888    0.0000 H   0  0  0  0  0  0  0  0  0  0  0  0
    2.1213   -1.0607    0.0000 H   0  0  0  0  0  0  0  0  0  0  0  0
   -0.0000   -2.5607    0.0000 H   0  0  0  0  0  0  0  0  0  0  0  0
   -1.0607    3.6213    0.0000 H   0  0  0  0  0  0  0  0  0  0  0  0
   -3.1820    0.0000    0.0000 H   0  0  0  0  0  0  0  0  0  0  0  0
   -3.1820    2.1213    0.0000 H   0  0  0  0  0  0  0  0  0  0  0  0
   -2.1213   -1.0607    0.0000 H   0  0  0  0  0  0  0  0  0  0  0  0
    0.5453    1.7586    0.0000 H   0  0  0  0  0  0  0  0  0  0  0  0
  1  2  1  0
  2  3  1  0
  3  4  1  0
  4  5  2  0
  4  6  1  0
  6  7  1  0
  7  8  1  0
  8  9  1  0
  9  2  1  0
  8  3  1  0
  9  6  1  0
  1 10  1  0
  1 11  1  0
  1 12  1  0
  2 13  1  0
  3 14  1  0
  6 15  1  0
  7 16  1  0
  7 17  1  0
  8 18  1  0
  9 19  1  0
M  END
