
     RDKit          3D

 23 24  0  0  0  0  0  0  0  0999 V2000
   -0.4375    1.8337    0.0343 C   0  0  0  0  0  0  0  0  0  0  0  0
   -0.1007    0.5862    0.8120 C   0  0  0  0  0  0  0  0  0  0  0  0
    1.4171    0.4351    0.9894 C   0  0  0  0  0  0  0  0  0  0  0  0
    1.9410    0.1756   -0.3588 C   0  0  0  0  0  0  0  0  0  0  0  0
    2.6436   -0.7845   -0.9047 O   0  0  0  0  0  0  0  0  0  0  0  0
    1.4775   -1.2870   -0.6022 C   0  0  0  0  0  0  0  0  0  0  0  0
    0.1007   -1.0754   -1.0825 C   0  0  0  0  0  0  0  0  0  0  0  0
   -0.6650   -0.6435    0.1836 C   0  0  0  0  0  0  0  0  0  0  0  0
   -2.1261   -0.5979   -0.0544 C   0  0  0  0  0  0  0  0  0  0  0  0
   -1.5288    2.0161    0.1851 H   0  0  0  0  0  0  0  0  0  0  0  0
    0.1066    2.6978    0.4292 H   0  0  0  0  0  0  0  0  0  0  0  0
   -0.3082    1.7095   -1.0622 H   0  0  0  0  0  0  0  0  0  0  0  0
   -0.5139    0.6902    1.8119 H   0  0  0  0  0  0  0  0  0  0  0  0
    1.5215   -0.4417    1.6931 H   0  0  0  0  0  0  0  0  0  0  0  0
    1.8580    1.2886    1.4971 H   0  0  0  0  0  0  0  0  0  0  0  0
    1.5835    0.9456   -1.1057 H   0  0  0  0  0  0  0  0  0  0  0  0
    1.5024   -1.9745    0.2956 H   0  0  0  0  0  0  0  0  0  0  0  0
    0.0004   -0.1999   -1.7820 H   0  0  0  0  0  0  0  0  0  0  0  0
   -0.4181   -1.9727   -1.4606 H   0  0  0  0  0  0  0  0  0  0  0  0
   -0.4643   -1.4950    0.8995 H   0  0  0  0  0  0  0  0  0  0  0  0
   -2.6612    0.2135    0.4638 H   0  0  0  0  0  0  0  0  0  0  0  0
   -2.2971   -0.5704   -1.1621 H   0  0  0  0  0  0  0  0  0  0  0  0
   -2.6315   -1.5495    0.2806 H   0  0  0  0  0  0  0  0  0  0  0  0
  1  2  1  0
  2  3  1  0
  3  4  1  0
  4  5  1  0
  5  6  1  0
  6  7  1  0
  7  8  1  0
  8  9  1  0
  8  2  1  0
  6  4  1  0
  1 10  1  0
  1 11  1  0
  1 12  1  0
  2 13  1  0
  3 14  1  0
  3 15  1  0
  4 16  1  0
  6 17  1  0
  7 18  1  0
  7 19  1  0
  8 20  1  0
  9 21  1  0
  9 22  1  0
  9 23  1  0
M  END
