
     RDKit          3D

 21 22  0  0  0  0  0  0  0  0999 V2000
   -2.6471    0.0507    0.0789 C   0  0  0  0  0  0  0  0  0  0  0  0
   -1.1767    0.1868   -0.2234 C   0  0  0  0  0  0  0  0  0  0  0  0
   -0.4939   -1.1228    0.0261 C   0  0  0  0  0  0  0  0  0  0  0  0
    0.8694   -0.8530    0.6808 C   0  0  0  0  0  0  0  0  0  0  0  0
    1.4852    0.2514   -0.1611 C   0  0  0  0  0  0  0  0  0  0  0  0
    0.6706    1.4907    0.0617 C   0  0  0  0  0  0  0  0  0  0  0  0
   -0.6103    1.2274    0.5354 O   0  0  0  0  0  0  0  0  0  0  0  0
    2.1022   -0.1154   -1.4085 C   0  0  0  0  0  0  0  0  0  0  0  0
    2.8395    0.3679   -0.2742 O   0  0  0  0  0  0  0  0  0  0  0  0
   -3.1156    1.0443    0.0380 H   0  0  0  0  0  0  0  0  0  0  0  0
   -3.0936   -0.6507   -0.6341 H   0  0  0  0  0  0  0  0  0  0  0  0
   -2.7397   -0.3091    1.1184 H   0  0  0  0  0  0  0  0  0  0  0  0
   -1.1018    0.5276   -1.2852 H   0  0  0  0  0  0  0  0  0  0  0  0
   -1.1133   -1.7882    0.6355 H   0  0  0  0  0  0  0  0  0  0  0  0
   -0.2263   -1.5747   -0.9688 H   0  0  0  0  0  0  0  0  0  0  0  0
    0.6525   -0.4957    1.7051 H   0  0  0  0  0  0  0  0  0  0  0  0
    1.4801   -1.7710    0.6912 H   0  0  0  0  0  0  0  0  0  0  0  0
    1.2087    2.0920    0.8442 H   0  0  0  0  0  0  0  0  0  0  0  0
    0.6500    2.1009   -0.8441 H   0  0  0  0  0  0  0  0  0  0  0  0
    2.3078   -1.2044   -1.5840 H   0  0  0  0  0  0  0  0  0  0  0  0
    2.0522    0.5453   -2.2866 H   0  0  0  0  0  0  0  0  0  0  0  0
  1  2  1  0
  2  3  1  0
  3  4  1  0
  4  5  1  0
  5  6  1  0
  6  7  1  0
  5  8  1  0
  8  9  1  0
  7  2  1  0
  9  5  1  0
  1 10  1  0
  1 11  1  0
  1 12  1  0
  2 13  1  0
  3 14  1  0
  3 15  1  0
  4 16  1  0
  4 17  1  0
  6 18  1  0
  6 19  1  0
  8 20  1  0
  8 21  1  0
M  END
