
     RDKit          3D

 21 23  0  0  0  0  0  0  0  0999 V2000
    2.1947   -0.1889    0.5265 C   0  0  0  0  0  0  0  0  0  0  0  0
    1.0601    0.0362   -0.4655 C   0  0  0  0  0  0  0  0  0  0  0  0
    0.3617    1.3360   -0.2674 C   0  0  0  0  0  0  0  0  0  0  0  0
   -0.8788    1.3223    0.5099 C   0  0  0  0  0  0  0  0  0  0  0  0
   -1.7511    0.1293    0.3743 C   0  0  0  0  0  0  0  0  0  0  0  0
   -1.7776   -0.7780   -0.7676 C   0  0  0  0  0  0  0  0  0  0  0  0
   -0.6966   -1.1062   -1.5348 O   0  0  0  0  0  0  0  0  0  0  0  0
    0.1820   -1.1721   -0.4595 C   0  0  0  0  0  0  0  0  0  0  0  0
   -0.9780   -1.1082    0.4626 C   0  0  0  0  0  0  0  0  0  0  0  0
    2.8393   -0.9989    0.0850 H   0  0  0  0  0  0  0  0  0  0  0  0
    1.8464   -0.5668    1.4920 H   0  0  0  0  0  0  0  0  0  0  0  0
    2.8263    0.7090    0.5810 H   0  0  0  0  0  0  0  0  0  0  0  0
    1.5526    0.0628   -1.4699 H   0  0  0  0  0  0  0  0  0  0  0  0
    1.1034    2.0211    0.2448 H   0  0  0  0  0  0  0  0  0  0  0  0
    0.1797    1.8569   -1.2548 H   0  0  0  0  0  0  0  0  0  0  0  0
   -1.4985    2.2250    0.2358 H   0  0  0  0  0  0  0  0  0  0  0  0
   -0.6753    1.4506    1.6042 H   0  0  0  0  0  0  0  0  0  0  0  0
   -2.6778    0.1663    0.9860 H   0  0  0  0  0  0  0  0  0  0  0  0
   -2.7017   -1.3341   -0.9970 H   0  0  0  0  0  0  0  0  0  0  0  0
    0.7475   -2.1001   -0.3385 H   0  0  0  0  0  0  0  0  0  0  0  0
   -1.2585   -1.9624    1.1029 H   0  0  0  0  0  0  0  0  0  0  0  0
  1  2  1  0
  2  3  1  0
  3  4  1  0
  4  5  1  0
  5  6  1  0
  6  7  1  0
  7  8  1  0
  8  9  1  0
  8  2  1  0
  9  5  1  0
  9  6  1  0
  1 10  1  0
  1 11  1  0
  1 12  1  0
  2 13  1  0
  3 14  1  0
  3 15  1  0
  4 16  1  0
  4 17  1  0
  5 18  1  0
  6 19  1  0
  8 20  1  0
  9 21  1  0
M  END
