
     RDKit          3D

 19 19  0  0  0  0  0  0  0  0999 V2000
    2.5218   -0.1436   -0.6745 C   0  0  0  0  0  0  0  0  0  0  0  0
    1.3531   -0.5218    0.1489 C   0  0  0  0  0  0  0  0  0  0  0  0
    0.9461    0.4382    1.2263 C   0  0  0  0  0  0  0  0  0  0  0  0
    0.0278    0.0973    0.0474 C   0  0  0  0  0  0  0  0  0  0  0  0
   -0.2159    1.2038   -0.7703 O   0  0  0  0  0  0  0  0  0  0  0  0
   -1.2015   -0.6838    0.3457 C   0  0  0  0  0  0  0  0  0  0  0  0
   -1.0734   -1.6661    1.0540 O   0  0  0  0  0  0  0  0  0  0  0  0
   -2.5455   -0.3509   -0.1531 C   0  0  0  0  0  0  0  0  0  0  0  0
   -2.6037    0.7631   -0.9391 O   0  0  0  0  0  0  0  0  0  0  0  0
    3.2440    0.4126   -0.0155 H   0  0  0  0  0  0  0  0  0  0  0  0
    3.0867   -1.0388   -1.0206 H   0  0  0  0  0  0  0  0  0  0  0  0
    2.3152    0.5208   -1.5257 H   0  0  0  0  0  0  0  0  0  0  0  0
    1.3354   -1.6031    0.4754 H   0  0  0  0  0  0  0  0  0  0  0  0
    0.5722    0.0776    2.1998 H   0  0  0  0  0  0  0  0  0  0  0  0
    1.4526    1.4061    1.2446 H   0  0  0  0  0  0  0  0  0  0  0  0
   -0.4700    1.9376   -0.1216 H   0  0  0  0  0  0  0  0  0  0  0  0
   -2.9201   -1.2571   -0.6914 H   0  0  0  0  0  0  0  0  0  0  0  0
   -3.2573   -0.1891    0.7078 H   0  0  0  0  0  0  0  0  0  0  0  0
   -2.5674    0.5973   -1.9053 H   0  0  0  0  0  0  0  0  0  0  0  0
  1  2  1  0
  2  3  1  0
  3  4  1  0
  4  5  1  0
  4  6  1  0
  6  7  2  0
  6  8  1  0
  8  9  1  0
  4  2  1  0
  1 10  1  0
  1 11  1  0
  1 12  1  0
  2 13  1  0
  3 14  1  0
  3 15  1  0
  5 16  1  0
  8 17  1  0
  8 18  1  0
  9 19  1  0
M  END
