
     RDKit          3D

 21 23  0  0  0  0  0  0  0  0999 V2000
    2.7625    0.7559   -0.2061 C   0  0  0  0  0  0  0  0  0  0  0  0
    1.6735   -0.2308    0.2290 C   0  0  0  0  0  0  0  0  0  0  0  0
    0.5194   -0.2871   -0.6567 C   0  0  0  0  0  0  0  0  0  0  0  0
    0.4535    0.1992    0.8433 C   0  0  0  0  0  0  0  0  0  0  0  0
   -0.9561   -0.2470    0.6337 C   0  0  0  0  0  0  0  0  0  0  0  0
   -1.0776   -1.7267    0.5667 C   0  0  0  0  0  0  0  0  0  0  0  0
   -1.9963    0.4181   -0.1278 C   0  0  0  0  0  0  0  0  0  0  0  0
   -2.6869    1.4327    0.5821 O   0  0  0  0  0  0  0  0  0  0  0  0
   -0.6816    0.5997   -0.6686 C   0  0  0  0  0  0  0  0  0  0  0  0
    2.5566    1.1724   -1.2106 H   0  0  0  0  0  0  0  0  0  0  0  0
    3.7641    0.3475   -0.1334 H   0  0  0  0  0  0  0  0  0  0  0  0
    2.6451    1.6313    0.4984 H   0  0  0  0  0  0  0  0  0  0  0  0
    2.1395   -1.1622    0.6703 H   0  0  0  0  0  0  0  0  0  0  0  0
    0.2353   -1.3100   -0.8956 H   0  0  0  0  0  0  0  0  0  0  0  0
    0.4270    1.3261    0.9722 H   0  0  0  0  0  0  0  0  0  0  0  0
   -1.5624   -2.1039   -0.3784 H   0  0  0  0  0  0  0  0  0  0  0  0
   -1.8322   -2.0179    1.3624 H   0  0  0  0  0  0  0  0  0  0  0  0
   -0.1701   -2.2917    0.8373 H   0  0  0  0  0  0  0  0  0  0  0  0
   -2.7283   -0.1241   -0.7901 H   0  0  0  0  0  0  0  0  0  0  0  0
   -3.1767    1.9651   -0.1224 H   0  0  0  0  0  0  0  0  0  0  0  0
   -0.3083    1.6535   -0.4715 H   0  0  0  0  0  0  0  0  0  0  0  0
  1  2  1  0
  2  3  1  0
  3  4  1  0
  4  5  1  0
  5  6  1  0
  5  7  1  0
  7  8  1  0
  7  9  1  0
  4  2  1  0
  9  5  1  0
  9  3  1  0
  1 10  1  0
  1 11  1  0
  1 12  1  0
  2 13  1  0
  3 14  1  0
  4 15  1  0
  6 16  1  0
  6 17  1  0
  6 18  1  0
  7 19  1  0
  8 20  1  0
  9 21  1  0
M  END
