
     RDKit          3D

 23 24  0  0  0  0  0  0  0  0999 V2000
    2.8586   -0.4490    0.5009 C   0  0  0  0  0  0  0  0  0  0  0  0
    1.5305    0.2274    0.3531 C   0  0  0  0  0  0  0  0  0  0  0  0
    0.8030    0.2587   -0.9251 C   0  0  0  0  0  0  0  0  0  0  0  0
   -0.5380    0.9825   -0.8747 C   0  0  0  0  0  0  0  0  0  0  0  0
   -0.4645    2.1756   -0.1298 O   0  0  0  0  0  0  0  0  0  0  0  0
   -1.0314   -0.1232    0.0135 C   0  0  0  0  0  0  0  0  0  0  0  0
   -1.8556   -1.1076   -0.8078 C   0  0  0  0  0  0  0  0  0  0  0  0
   -1.6362    0.2789    1.3153 C   0  0  0  0  0  0  0  0  0  0  0  0
    0.3579   -0.6456    0.1875 C   0  0  0  0  0  0  0  0  0  0  0  0
    2.7050   -1.4935    0.8892 H   0  0  0  0  0  0  0  0  0  0  0  0
    3.4161   -0.4937   -0.4613 H   0  0  0  0  0  0  0  0  0  0  0  0
    3.5348    0.0493    1.2245 H   0  0  0  0  0  0  0  0  0  0  0  0
    1.4503    1.1753    0.9615 H   0  0  0  0  0  0  0  0  0  0  0  0
    1.1737   -0.1444   -1.8625 H   0  0  0  0  0  0  0  0  0  0  0  0
   -1.0376    1.1256   -1.8295 H   0  0  0  0  0  0  0  0  0  0  0  0
   -0.4177    2.9343   -0.7488 H   0  0  0  0  0  0  0  0  0  0  0  0
   -1.2054   -1.4166   -1.6744 H   0  0  0  0  0  0  0  0  0  0  0  0
   -2.7901   -0.6377   -1.1168 H   0  0  0  0  0  0  0  0  0  0  0  0
   -1.9838   -2.0335   -0.2057 H   0  0  0  0  0  0  0  0  0  0  0  0
   -1.7492    1.3658    1.4322 H   0  0  0  0  0  0  0  0  0  0  0  0
   -1.0012   -0.0639    2.1778 H   0  0  0  0  0  0  0  0  0  0  0  0
   -2.6133   -0.2368    1.4413 H   0  0  0  0  0  0  0  0  0  0  0  0
    0.4938   -1.7279    0.1395 H   0  0  0  0  0  0  0  0  0  0  0  0
  1  2  1  0
  2  3  1  0
  3  4  1  0
  4  5  1  0
  4  6  1  0
  6  7  1  0
  6  8  1  0
  6  9  1  0
  9  2  1  0
  9  3  1  0
  1 10  1  0
  1 11  1  0
  1 12  1  0
  2 13  1  0
  3 14  1  0
  4 15  1  0
  5 16  1  0
  7 17  1  0
  7 18  1  0
  7 19  1  0
  8 20  1  0
  8 21  1  0
  8 22  1  0
  9 23  1  0
M  END
