
     RDKit          3D

 19 20  0  0  0  0  0  0  0  0999 V2000
   -2.0480   -0.3044    0.8697 C   0  0  0  0  0  0  0  0  0  0  0  0
   -1.2139   -0.1025   -0.3542 C   0  0  0  0  0  0  0  0  0  0  0  0
   -0.6273    1.2775   -0.4252 C   0  0  0  0  0  0  0  0  0  0  0  0
    0.6380    1.5116   -0.0261 C   0  0  0  0  0  0  0  0  0  0  0  0
    1.3483    0.3514    0.4592 C   0  0  0  0  0  0  0  0  0  0  0  0
    2.3562   -0.5021   -0.0168 C   0  0  0  0  0  0  0  0  0  0  0  0
    1.1643   -0.6291   -0.7631 C   0  0  0  0  0  0  0  0  0  0  0  0
   -0.1517   -1.1327   -0.5104 C   0  0  0  0  0  0  0  0  0  0  0  0
   -0.4241   -2.2851   -0.4233 O   0  0  0  0  0  0  0  0  0  0  0  0
   -2.3646   -1.3447    0.9114 H   0  0  0  0  0  0  0  0  0  0  0  0
   -2.9832    0.3076    0.7313 H   0  0  0  0  0  0  0  0  0  0  0  0
   -1.5906    0.0418    1.8036 H   0  0  0  0  0  0  0  0  0  0  0  0
   -1.8761   -0.2041   -1.2395 H   0  0  0  0  0  0  0  0  0  0  0  0
   -1.2514    2.0662   -0.8034 H   0  0  0  0  0  0  0  0  0  0  0  0
    1.0194    2.5282   -0.0973 H   0  0  0  0  0  0  0  0  0  0  0  0
    0.8569    0.0237    1.4288 H   0  0  0  0  0  0  0  0  0  0  0  0
    3.2659   -0.0728   -0.4866 H   0  0  0  0  0  0  0  0  0  0  0  0
    2.6713   -1.3898    0.6078 H   0  0  0  0  0  0  0  0  0  0  0  0
    1.2107   -0.1407   -1.7907 H   0  0  0  0  0  0  0  0  0  0  0  0
  1  2  1  0
  2  3  1  0
  3  4  2  0
  4  5  1  0
  5  6  1  0
  6  7  1  0
  7  8  1  0
  8  9  2  0
  8  2  1  0
  7  5  1  0
  1 10  1  0
  1 11  1  0
  1 12  1  0
  2 13  1  0
  3 14  1  0
  4 15  1  0
  5 16  1  0
  6 17  1  0
  6 18  1  0
  7 19  1  0
M  END
