
     RDKit          3D

 21 22  0  0  0  0  0  0  0  0999 V2000
    2.9021   -0.0547   -0.1646 C   0  0  0  0  0  0  0  0  0  0  0  0
    1.4548   -0.4332   -0.1488 C   0  0  0  0  0  0  0  0  0  0  0  0
    0.7463   -0.0991    1.1567 C   0  0  0  0  0  0  0  0  0  0  0  0
   -0.3059    0.2682    0.2066 C   0  0  0  0  0  0  0  0  0  0  0  0
   -1.3060    1.2925    0.5550 C   0  0  0  0  0  0  0  0  0  0  0  0
   -2.3032    0.5153   -0.3180 C   0  0  0  0  0  0  0  0  0  0  0  0
   -1.3870   -0.6992   -0.1092 C   0  0  0  0  0  0  0  0  0  0  0  0
   -1.1735   -1.4548   -1.2413 O   0  0  0  0  0  0  0  0  0  0  0  0
    0.6269    0.5418   -0.7529 O   0  0  0  0  0  0  0  0  0  0  0  0
    3.3333   -0.2892   -1.1419 H   0  0  0  0  0  0  0  0  0  0  0  0
    3.4578   -0.6469    0.5998 H   0  0  0  0  0  0  0  0  0  0  0  0
    2.9562    1.0435    0.0606 H   0  0  0  0  0  0  0  0  0  0  0  0
    1.1887   -1.4454   -0.4610 H   0  0  0  0  0  0  0  0  0  0  0  0
    1.2011    0.8103    1.6359 H   0  0  0  0  0  0  0  0  0  0  0  0
    0.5947   -0.9427    1.8405 H   0  0  0  0  0  0  0  0  0  0  0  0
   -1.0508    2.2861    0.1850 H   0  0  0  0  0  0  0  0  0  0  0  0
   -1.6414    1.2165    1.6095 H   0  0  0  0  0  0  0  0  0  0  0  0
   -2.2381    0.9394   -1.3473 H   0  0  0  0  0  0  0  0  0  0  0  0
   -3.3015    0.4157    0.1112 H   0  0  0  0  0  0  0  0  0  0  0  0
   -1.7694   -1.3226    0.7140 H   0  0  0  0  0  0  0  0  0  0  0  0
   -1.9851   -1.9416   -1.5027 H   0  0  0  0  0  0  0  0  0  0  0  0
  1  2  1  0
  2  3  1  0
  3  4  1  0
  4  5  1  0
  5  6  1  0
  6  7  1  0
  7  8  1  0
  4  9  1  0
  9  2  1  0
  7  4  1  0
  1 10  1  0
  1 11  1  0
  1 12  1  0
  2 13  1  0
  3 14  1  0
  3 15  1  0
  5 16  1  0
  5 17  1  0
  6 18  1  0
  6 19  1  0
  7 20  1  0
  8 21  1  0
M  END
