
     RDKit          3D

 20 21  0  0  0  0  0  0  0  0999 V2000
   -2.0803   -0.8663   -0.0876 C   0  0  0  0  0  0  0  0  0  0  0  0
   -1.2870    0.2215    0.5806 C   0  0  0  0  0  0  0  0  0  0  0  0
   -0.7907    1.2548   -0.4497 C   0  0  0  0  0  0  0  0  0  0  0  0
    0.6863    1.1592   -0.0714 C   0  0  0  0  0  0  0  0  0  0  0  0
    0.6862    1.0052    1.3291 O   0  0  0  0  0  0  0  0  0  0  0  0
    0.0613   -0.2366    1.0665 C   0  0  0  0  0  0  0  0  0  0  0  0
    0.9507   -0.3040   -0.1516 C   0  0  0  0  0  0  0  0  0  0  0  0
    2.3741   -0.6248    0.2304 C   0  0  0  0  0  0  0  0  0  0  0  0
   -3.0544   -0.4393   -0.3750 H   0  0  0  0  0  0  0  0  0  0  0  0
   -1.5401   -1.3352   -0.9200 H   0  0  0  0  0  0  0  0  0  0  0  0
   -2.2903   -1.6221    0.6989 H   0  0  0  0  0  0  0  0  0  0  0  0
   -1.8984    0.6919    1.3602 H   0  0  0  0  0  0  0  0  0  0  0  0
   -1.2064    2.2446   -0.2546 H   0  0  0  0  0  0  0  0  0  0  0  0
   -0.9347    0.8922   -1.4733 H   0  0  0  0  0  0  0  0  0  0  0  0
    1.3575    1.8633   -0.4976 H   0  0  0  0  0  0  0  0  0  0  0  0
    0.1320   -0.9920    1.8102 H   0  0  0  0  0  0  0  0  0  0  0  0
    0.5497   -0.8383   -1.0166 H   0  0  0  0  0  0  0  0  0  0  0  0
    2.4637   -0.9112    1.3113 H   0  0  0  0  0  0  0  0  0  0  0  0
    3.0067    0.2837    0.0227 H   0  0  0  0  0  0  0  0  0  0  0  0
    2.8141   -1.4466   -0.3469 H   0  0  0  0  0  0  0  0  0  0  0  0
  1  2  1  0
  2  3  1  0
  3  4  1  0
  4  5  1  0
  5  6  1  0
  6  7  1  0
  7  8  1  0
  6  2  1  0
  7  4  1  0
  1  9  1  0
  1 10  1  0
  1 11  1  0
  2 12  1  0
  3 13  1  0
  3 14  1  0
  4 15  1  0
  6 16  1  0
  7 17  1  0
  8 18  1  0
  8 19  1  0
  8 20  1  0
M  END
