
     RDKit          3D

 23 23  0  0  0  0  0  0  0  0999 V2000
   -0.7781   -1.5283   -0.9873 C   0  0  0  0  0  0  0  0  0  0  0  0
   -0.7651   -0.6836    0.2760 C   0  0  0  0  0  0  0  0  0  0  0  0
    0.6022   -0.6846    0.8810 C   0  0  0  0  0  0  0  0  0  0  0  0
    0.9959   -2.0066    1.0549 O   0  0  0  0  0  0  0  0  0  0  0  0
    1.5639    0.0568    0.0127 C   0  0  0  0  0  0  0  0  0  0  0  0
    1.0640    1.3198   -0.5630 C   0  0  0  0  0  0  0  0  0  0  0  0
   -0.3039    1.7385   -0.2010 C   0  0  0  0  0  0  0  0  0  0  0  0
   -1.3055    0.6744    0.0067 C   0  0  0  0  0  0  0  0  0  0  0  0
   -2.1382    1.0363    1.0901 O   0  0  0  0  0  0  0  0  0  0  0  0
   -1.6300   -1.1445   -1.6017 H   0  0  0  0  0  0  0  0  0  0  0  0
    0.1603   -1.4402   -1.5405 H   0  0  0  0  0  0  0  0  0  0  0  0
   -0.9870   -2.5988   -0.7336 H   0  0  0  0  0  0  0  0  0  0  0  0
   -1.4401   -1.2213    0.9985 H   0  0  0  0  0  0  0  0  0  0  0  0
    0.5810   -0.2221    1.8836 H   0  0  0  0  0  0  0  0  0  0  0  0
    1.9352   -2.1767    0.8521 H   0  0  0  0  0  0  0  0  0  0  0  0
    1.8926   -0.6570   -0.8008 H   0  0  0  0  0  0  0  0  0  0  0  0
    2.5054    0.1997    0.6205 H   0  0  0  0  0  0  0  0  0  0  0  0
    1.7707    2.1456   -0.2495 H   0  0  0  0  0  0  0  0  0  0  0  0
    1.1796    1.2950   -1.6869 H   0  0  0  0  0  0  0  0  0  0  0  0
   -0.2614    2.4198    0.6958 H   0  0  0  0  0  0  0  0  0  0  0  0
   -0.6861    2.4138   -1.0244 H   0  0  0  0  0  0  0  0  0  0  0  0
   -2.0086    0.5944   -0.8673 H   0  0  0  0  0  0  0  0  0  0  0  0
   -1.9469    0.4698    1.8841 H   0  0  0  0  0  0  0  0  0  0  0  0
  1  2  1  0
  2  3  1  0
  3  4  1  0
  3  5  1  0
  5  6  1  0
  6  7  1  0
  7  8  1  0
  8  9  1  0
  8  2  1  0
  1 10  1  0
  1 11  1  0
  1 12  1  0
  2 13  1  0
  3 14  1  0
  4 15  1  0
  5 16  1  0
  5 17  1  0
  6 18  1  0
  6 19  1  0
  7 20  1  0
  7 21  1  0
  8 22  1  0
  9 23  1  0
M  END
