
     RDKit          3D

 21 22  0  0  0  0  0  0  0  0999 V2000
    0.5248    1.8074    0.0758 C   0  0  0  0  0  0  0  0  0  0  0  0
    0.0830    0.4728    0.5887 C   0  0  0  0  0  0  0  0  0  0  0  0
   -1.0608   -0.0520   -0.2884 C   0  0  0  0  0  0  0  0  0  0  0  0
   -2.1035   -0.7308    0.5391 C   0  0  0  0  0  0  0  0  0  0  0  0
   -1.5239    0.8329   -1.2264 O   0  0  0  0  0  0  0  0  0  0  0  0
   -0.0238   -1.0382   -0.8443 C   0  0  0  0  0  0  0  0  0  0  0  0
    0.3691   -1.9715    0.1120 O   0  0  0  0  0  0  0  0  0  0  0  0
    0.9142   -0.6627    0.0494 C   0  0  0  0  0  0  0  0  0  0  0  0
    2.3891   -0.6222    0.0546 C   0  0  0  0  0  0  0  0  0  0  0  0
    1.6084    1.8786   -0.0640 H   0  0  0  0  0  0  0  0  0  0  0  0
    0.0617    2.0665   -0.9138 H   0  0  0  0  0  0  0  0  0  0  0  0
    0.1183    2.5793    0.7832 H   0  0  0  0  0  0  0  0  0  0  0  0
   -0.0925    0.3979    1.6651 H   0  0  0  0  0  0  0  0  0  0  0  0
   -2.7122   -1.4521   -0.0428 H   0  0  0  0  0  0  0  0  0  0  0  0
   -2.7974    0.0174    0.9442 H   0  0  0  0  0  0  0  0  0  0  0  0
   -1.5928   -1.1961    1.4100 H   0  0  0  0  0  0  0  0  0  0  0  0
   -2.5268    0.8124   -1.2323 H   0  0  0  0  0  0  0  0  0  0  0  0
   -0.0727   -1.2992   -1.8979 H   0  0  0  0  0  0  0  0  0  0  0  0
    2.7326    0.3004    0.5750 H   0  0  0  0  0  0  0  0  0  0  0  0
    2.8757   -0.6726   -0.9349 H   0  0  0  0  0  0  0  0  0  0  0  0
    2.8297   -1.4682    0.6478 H   0  0  0  0  0  0  0  0  0  0  0  0
  1  2  1  0
  2  3  1  0
  3  4  1  0
  3  5  1  0
  3  6  1  0
  6  7  1  0
  7  8  1  0
  8  9  1  0
  8  2  1  0
  8  6  1  0
  1 10  1  0
  1 11  1  0
  1 12  1  0
  2 13  1  0
  4 14  1  0
  4 15  1  0
  4 16  1  0
  5 17  1  0
  6 18  1  0
  9 19  1  0
  9 20  1  0
  9 21  1  0
M  END
