
     RDKit          3D

 23 24  0  0  0  0  0  0  0  0999 V2000
    2.8207   -0.2740   -0.2096 C   0  0  0  0  0  0  0  0  0  0  0  0
    1.5431    0.4960   -0.4368 C   0  0  0  0  0  0  0  0  0  0  0  0
    0.9598    1.1684    0.7707 C   0  0  0  0  0  0  0  0  0  0  0  0
   -0.0904    0.0973    0.8619 C   0  0  0  0  0  0  0  0  0  0  0  0
   -1.5090    0.5383    0.8805 C   0  0  0  0  0  0  0  0  0  0  0  0
   -2.4005   -0.1429   -0.0968 C   0  0  0  0  0  0  0  0  0  0  0  0
   -1.6985   -0.9464   -1.1383 C   0  0  0  0  0  0  0  0  0  0  0  0
   -0.5284   -0.2370   -1.4900 O   0  0  0  0  0  0  0  0  0  0  0  0
    0.3697   -0.4392   -0.4609 C   0  0  0  0  0  0  0  0  0  0  0  0
    3.2011   -0.5593   -1.2186 H   0  0  0  0  0  0  0  0  0  0  0  0
    2.5854   -1.2467    0.2985 H   0  0  0  0  0  0  0  0  0  0  0  0
    3.5499    0.2400    0.4151 H   0  0  0  0  0  0  0  0  0  0  0  0
    1.5616    1.2044   -1.2933 H   0  0  0  0  0  0  0  0  0  0  0  0
    1.7189    1.1691    1.5939 H   0  0  0  0  0  0  0  0  0  0  0  0
    0.6028    2.2006    0.6303 H   0  0  0  0  0  0  0  0  0  0  0  0
    0.1707   -0.5877    1.7210 H   0  0  0  0  0  0  0  0  0  0  0  0
   -1.9294    0.3307    1.9089 H   0  0  0  0  0  0  0  0  0  0  0  0
   -1.5805    1.6618    0.7928 H   0  0  0  0  0  0  0  0  0  0  0  0
   -3.1695   -0.7931    0.3766 H   0  0  0  0  0  0  0  0  0  0  0  0
   -2.9950    0.6490   -0.6415 H   0  0  0  0  0  0  0  0  0  0  0  0
   -1.4573   -1.9794   -0.8422 H   0  0  0  0  0  0  0  0  0  0  0  0
   -2.3436   -1.0212   -2.0424 H   0  0  0  0  0  0  0  0  0  0  0  0
    0.6187   -1.5287   -0.3799 H   0  0  0  0  0  0  0  0  0  0  0  0
  1  2  1  0
  2  3  1  0
  3  4  1  0
  4  5  1  0
  5  6  1  0
  6  7  1  0
  7  8  1  0
  8  9  1  0
  9  2  1  0
  9  4  1  0
  1 10  1  0
  1 11  1  0
  1 12  1  0
  2 13  1  0
  3 14  1  0
  3 15  1  0
  4 16  1  0
  5 17  1  0
  5 18  1  0
  6 19  1  0
  6 20  1  0
  7 21  1  0
  7 22  1  0
  9 23  1  0
M  END
