
     RDKit          3D

 17 18  0  0  0  0  0  0  0  0999 V2000
   -1.8558    0.8374   -0.3647 C   0  0  0  0  0  0  0  0  0  0  0  0
   -0.8809    0.0270    0.4374 C   0  0  0  0  0  0  0  0  0  0  0  0
   -0.8707   -1.4301    0.0490 C   0  0  0  0  0  0  0  0  0  0  0  0
    0.4016   -1.8353    0.5791 O   0  0  0  0  0  0  0  0  0  0  0  0
    1.2552   -0.7674    0.2806 C   0  0  0  0  0  0  0  0  0  0  0  0
    2.5821   -0.4604    0.0469 C   0  0  0  0  0  0  0  0  0  0  0  0
    2.6424    0.8260   -0.1803 O   0  0  0  0  0  0  0  0  0  0  0  0
    1.4613    1.3806   -0.1132 C   0  0  0  0  0  0  0  0  0  0  0  0
    0.5314    0.4044    0.1801 C   0  0  0  0  0  0  0  0  0  0  0  0
   -2.6714    0.1512   -0.7195 H   0  0  0  0  0  0  0  0  0  0  0  0
   -2.2974    1.5946    0.3223 H   0  0  0  0  0  0  0  0  0  0  0  0
   -1.4254    1.3016   -1.2557 H   0  0  0  0  0  0  0  0  0  0  0  0
   -1.0458    0.1634    1.5369 H   0  0  0  0  0  0  0  0  0  0  0  0
   -0.7743   -1.4730   -1.0500 H   0  0  0  0  0  0  0  0  0  0  0  0
   -1.6912   -2.0102    0.4620 H   0  0  0  0  0  0  0  0  0  0  0  0
    3.4221   -1.1522    0.0498 H   0  0  0  0  0  0  0  0  0  0  0  0
    1.2169    2.4424   -0.2605 H   0  0  0  0  0  0  0  0  0  0  0  0
  1  2  1  0
  2  3  1  0
  3  4  1  0
  4  5  1  0
  5  6  2  0
  6  7  1  0
  7  8  1  0
  8  9  2  0
  9  2  1  0
  9  5  1  0
  1 10  1  0
  1 11  1  0
  1 12  1  0
  2 13  1  0
  3 14  1  0
  3 15  1  0
  6 16  1  0
  8 17  1  0
M  END
