
     RDKit          3D

 23 24  0  0  0  0  0  0  0  0999 V2000
    2.5325   -0.1100   -0.6897 C   0  0  0  0  0  0  0  0  0  0  0  0
    1.6779    0.0784    0.5328 C   0  0  0  0  0  0  0  0  0  0  0  0
    0.5109    1.0008    0.2000 C   0  0  0  0  0  0  0  0  0  0  0  0
   -0.3701   -0.1979    0.2063 C   0  0  0  0  0  0  0  0  0  0  0  0
   -1.6062    0.0386    1.0809 C   0  0  0  0  0  0  0  0  0  0  0  0
   -2.4830    0.6864    0.0022 C   0  0  0  0  0  0  0  0  0  0  0  0
   -2.2071    0.0363   -1.1718 O   0  0  0  0  0  0  0  0  0  0  0  0
   -1.0060   -0.6142   -1.0658 C   0  0  0  0  0  0  0  0  0  0  0  0
    0.6865   -1.0412    0.7937 C   0  0  0  0  0  0  0  0  0  0  0  0
    3.1507    0.8085   -0.7928 H   0  0  0  0  0  0  0  0  0  0  0  0
    3.1775   -1.0154   -0.6299 H   0  0  0  0  0  0  0  0  0  0  0  0
    1.9505   -0.2015   -1.6200 H   0  0  0  0  0  0  0  0  0  0  0  0
    2.2857    0.3841    1.3941 H   0  0  0  0  0  0  0  0  0  0  0  0
    0.6074    1.5684   -0.7227 H   0  0  0  0  0  0  0  0  0  0  0  0
    0.3354    1.6554    1.0978 H   0  0  0  0  0  0  0  0  0  0  0  0
   -2.0811   -0.9168    1.3603 H   0  0  0  0  0  0  0  0  0  0  0  0
   -1.3994    0.7144    1.9072 H   0  0  0  0  0  0  0  0  0  0  0  0
   -2.1028    1.7440   -0.1136 H   0  0  0  0  0  0  0  0  0  0  0  0
   -3.5321    0.7171    0.2949 H   0  0  0  0  0  0  0  0  0  0  0  0
   -1.2404   -1.7166   -0.9809 H   0  0  0  0  0  0  0  0  0  0  0  0
   -0.4093   -0.4700   -1.9686 H   0  0  0  0  0  0  0  0  0  0  0  0
    0.9497   -1.9884    0.2835 H   0  0  0  0  0  0  0  0  0  0  0  0
    0.5730   -1.1604    1.9111 H   0  0  0  0  0  0  0  0  0  0  0  0
  1  2  1  0
  2  3  1  0
  3  4  1  0
  4  5  1  0
  5  6  1  0
  6  7  1  0
  7  8  1  0
  4  9  1  0
  9  2  1  0
  8  4  1  0
  1 10  1  0
  1 11  1  0
  1 12  1  0
  2 13  1  0
  3 14  1  0
  3 15  1  0
  5 16  1  0
  5 17  1  0
  6 18  1  0
  6 19  1  0
  8 20  1  0
  8 21  1  0
  9 22  1  0
  9 23  1  0
M  END
