
     RDKit          3D

 23 23  0  0  0  0  0  0  0  0999 V2000
   -2.6128   -0.4064    0.4472 C   0  0  0  0  0  0  0  0  0  0  0  0
   -1.1127   -0.2790    0.3610 C   0  0  0  0  0  0  0  0  0  0  0  0
   -0.5262   -1.4299   -0.3901 C   0  0  0  0  0  0  0  0  0  0  0  0
    0.7805   -1.3602   -0.6777 O   0  0  0  0  0  0  0  0  0  0  0  0
    1.4836   -0.2505   -0.4466 C   0  0  0  0  0  0  0  0  0  0  0  0
    2.3148   -0.4519    0.8302 C   0  0  0  0  0  0  0  0  0  0  0  0
    0.7774    1.0483   -0.3534 C   0  0  0  0  0  0  0  0  0  0  0  0
    1.1932    1.9581   -1.3440 O   0  0  0  0  0  0  0  0  0  0  0  0
   -0.7204    0.9595   -0.4516 C   0  0  0  0  0  0  0  0  0  0  0  0
   -3.0019    0.5887    0.8093 H   0  0  0  0  0  0  0  0  0  0  0  0
   -2.8315   -1.1995    1.1918 H   0  0  0  0  0  0  0  0  0  0  0  0
   -3.0972   -0.5955   -0.5101 H   0  0  0  0  0  0  0  0  0  0  0  0
   -0.7029   -0.2354    1.3704 H   0  0  0  0  0  0  0  0  0  0  0  0
   -1.1062   -1.5143   -1.3559 H   0  0  0  0  0  0  0  0  0  0  0  0
   -0.7234   -2.3675    0.2067 H   0  0  0  0  0  0  0  0  0  0  0  0
    2.2689   -0.1460   -1.2551 H   0  0  0  0  0  0  0  0  0  0  0  0
    2.7041    0.5804    1.0675 H   0  0  0  0  0  0  0  0  0  0  0  0
    1.6975   -0.7440    1.6817 H   0  0  0  0  0  0  0  0  0  0  0  0
    3.1367   -1.1520    0.6704 H   0  0  0  0  0  0  0  0  0  0  0  0
    0.9922    1.5646    0.6290 H   0  0  0  0  0  0  0  0  0  0  0  0
    1.3800    2.8496   -0.9829 H   0  0  0  0  0  0  0  0  0  0  0  0
   -1.0710    0.7624   -1.4854 H   0  0  0  0  0  0  0  0  0  0  0  0
   -1.2229    1.8204   -0.0124 H   0  0  0  0  0  0  0  0  0  0  0  0
  1  2  1  0
  2  3  1  0
  3  4  1  0
  4  5  1  0
  5  6  1  0
  5  7  1  0
  7  8  1  0
  7  9  1  0
  9  2  1  0
  1 10  1  0
  1 11  1  0
  1 12  1  0
  2 13  1  0
  3 14  1  0
  3 15  1  0
  5 16  1  0
  6 17  1  0
  6 18  1  0
  6 19  1  0
  7 20  1  0
  8 21  1  0
  9 22  1  0
  9 23  1  0
M  END
