
     RDKit          3D

 21 22  0  0  0  0  0  0  0  0999 V2000
   -1.8357   -1.3250   -0.4747 C   0  0  0  0  0  0  0  0  0  0  0  0
   -0.9824   -0.1586   -0.7805 C   0  0  0  0  0  0  0  0  0  0  0  0
   -0.9030    0.9238    0.2983 C   0  0  0  0  0  0  0  0  0  0  0  0
   -0.8286    0.4467    1.5903 O   0  0  0  0  0  0  0  0  0  0  0  0
    0.4925    1.1771   -0.2550 C   0  0  0  0  0  0  0  0  0  0  0  0
    1.5422    1.4646    0.7848 C   0  0  0  0  0  0  0  0  0  0  0  0
    0.4831   -0.2819   -0.6165 C   0  0  0  0  0  0  0  0  0  0  0  0
    1.2717   -1.2649   -0.1023 C   0  0  0  0  0  0  0  0  0  0  0  0
    1.3169   -0.8157   -1.5350 O   0  0  0  0  0  0  0  0  0  0  0  0
   -2.8823   -1.0885   -0.7899 H   0  0  0  0  0  0  0  0  0  0  0  0
   -1.5143   -2.1787   -1.1084 H   0  0  0  0  0  0  0  0  0  0  0  0
   -1.8902   -1.6233    0.5786 H   0  0  0  0  0  0  0  0  0  0  0  0
   -1.3160    0.3429   -1.7311 H   0  0  0  0  0  0  0  0  0  0  0  0
   -1.5529    1.7826    0.1469 H   0  0  0  0  0  0  0  0  0  0  0  0
   -0.5983   -0.4905    1.6802 H   0  0  0  0  0  0  0  0  0  0  0  0
    0.5351    1.8480   -1.1167 H   0  0  0  0  0  0  0  0  0  0  0  0
    2.5020    1.5678    0.2362 H   0  0  0  0  0  0  0  0  0  0  0  0
    1.5948    0.6451    1.5274 H   0  0  0  0  0  0  0  0  0  0  0  0
    1.3667    2.4563    1.2953 H   0  0  0  0  0  0  0  0  0  0  0  0
    2.2398   -1.0876    0.4080 H   0  0  0  0  0  0  0  0  0  0  0  0
    0.9586   -2.3403   -0.0357 H   0  0  0  0  0  0  0  0  0  0  0  0
  1  2  1  0
  2  3  1  0
  3  4  1  0
  3  5  1  0
  5  6  1  0
  5  7  1  0
  7  8  1  0
  8  9  1  0
  7  2  1  0
  9  7  1  0
  1 10  1  0
  1 11  1  0
  1 12  1  0
  2 13  1  0
  3 14  1  0
  4 15  1  0
  5 16  1  0
  6 17  1  0
  6 18  1  0
  6 19  1  0
  8 20  1  0
  8 21  1  0
M  END
