
     RDKit          3D

 23 23  0  0  0  0  0  0  0  0999 V2000
   -2.2360    1.5109    0.1595 C   0  0  0  0  0  0  0  0  0  0  0  0
   -1.1782    0.4732    0.2017 C   0  0  0  0  0  0  0  0  0  0  0  0
   -1.4040   -0.6803   -0.7416 C   0  0  0  0  0  0  0  0  0  0  0  0
   -0.4853   -1.7854   -0.2968 C   0  0  0  0  0  0  0  0  0  0  0  0
    0.8116   -1.3397    0.2438 C   0  0  0  0  0  0  0  0  0  0  0  0
    1.0094    0.0965    0.4744 C   0  0  0  0  0  0  0  0  0  0  0  0
    2.3976    0.5348   -0.0143 C   0  0  0  0  0  0  0  0  0  0  0  0
    2.6886    1.8255    0.3562 O   0  0  0  0  0  0  0  0  0  0  0  0
    0.1004    0.9502   -0.0884 O   0  0  0  0  0  0  0  0  0  0  0  0
   -2.6980    1.6769   -0.8221 H   0  0  0  0  0  0  0  0  0  0  0  0
   -1.8325    2.4555    0.6015 H   0  0  0  0  0  0  0  0  0  0  0  0
   -3.0678    1.2016    0.8545 H   0  0  0  0  0  0  0  0  0  0  0  0
   -1.1203    0.0397    1.2290 H   0  0  0  0  0  0  0  0  0  0  0  0
   -1.1057   -0.4234   -1.7912 H   0  0  0  0  0  0  0  0  0  0  0  0
   -2.4520   -1.0265   -0.7729 H   0  0  0  0  0  0  0  0  0  0  0  0
   -1.0706   -2.3906    0.4567 H   0  0  0  0  0  0  0  0  0  0  0  0
   -0.3630   -2.4988   -1.1641 H   0  0  0  0  0  0  0  0  0  0  0  0
    0.9991   -1.9025    1.2059 H   0  0  0  0  0  0  0  0  0  0  0  0
    1.6252   -1.7182   -0.4420 H   0  0  0  0  0  0  0  0  0  0  0  0
    1.0263    0.3205    1.5815 H   0  0  0  0  0  0  0  0  0  0  0  0
    2.3549    0.4550   -1.1324 H   0  0  0  0  0  0  0  0  0  0  0  0
    3.1791   -0.1638    0.3673 H   0  0  0  0  0  0  0  0  0  0  0  0
    2.8212    2.3887   -0.4660 H   0  0  0  0  0  0  0  0  0  0  0  0
  1  2  1  0
  2  3  1  0
  3  4  1  0
  4  5  1  0
  5  6  1  0
  6  7  1  0
  7  8  1  0
  6  9  1  0
  9  2  1  0
  1 10  1  0
  1 11  1  0
  1 12  1  0
  2 13  1  0
  3 14  1  0
  3 15  1  0
  4 16  1  0
  4 17  1  0
  5 18  1  0
  5 19  1  0
  6 20  1  0
  7 21  1  0
  7 22  1  0
  8 23  1  0
M  END
