
     RDKit          3D

 21 22  0  0  0  0  0  0  0  0999 V2000
    2.8162    0.8860    0.0523 C   0  0  0  0  0  0  0  0  0  0  0  0
    1.8002   -0.1282   -0.3794 C   0  0  0  0  0  0  0  0  0  0  0  0
    1.4083   -1.1021    0.7263 C   0  0  0  0  0  0  0  0  0  0  0  0
    0.4263   -0.1495    0.1348 C   0  0  0  0  0  0  0  0  0  0  0  0
   -0.5962   -0.7793   -0.7438 C   0  0  0  0  0  0  0  0  0  0  0  0
   -0.2825   -1.6620   -1.5230 O   0  0  0  0  0  0  0  0  0  0  0  0
   -2.0272   -0.3725   -0.7175 C   0  0  0  0  0  0  0  0  0  0  0  0
   -2.3678    1.0577   -0.3217 C   0  0  0  0  0  0  0  0  0  0  0  0
   -2.5643   -0.0572    0.6303 C   0  0  0  0  0  0  0  0  0  0  0  0
    3.6562    0.3091    0.5403 H   0  0  0  0  0  0  0  0  0  0  0  0
    3.2080    1.4049   -0.8394 H   0  0  0  0  0  0  0  0  0  0  0  0
    2.4485    1.6151    0.7863 H   0  0  0  0  0  0  0  0  0  0  0  0
    1.9884   -0.5500   -1.3996 H   0  0  0  0  0  0  0  0  0  0  0  0
    1.7263   -0.8961    1.7569 H   0  0  0  0  0  0  0  0  0  0  0  0
    1.4301   -2.1618    0.4099 H   0  0  0  0  0  0  0  0  0  0  0  0
    0.0222    0.6458    0.8057 H   0  0  0  0  0  0  0  0  0  0  0  0
   -2.7351   -0.8823   -1.3977 H   0  0  0  0  0  0  0  0  0  0  0  0
   -3.2633    1.5317   -0.7997 H   0  0  0  0  0  0  0  0  0  0  0  0
   -1.5528    1.7560   -0.1299 H   0  0  0  0  0  0  0  0  0  0  0  0
   -1.9098   -0.1608    1.5254 H   0  0  0  0  0  0  0  0  0  0  0  0
   -3.6319   -0.3045    0.8834 H   0  0  0  0  0  0  0  0  0  0  0  0
  1  2  1  0
  2  3  1  0
  3  4  1  0
  4  5  1  0
  5  6  2  0
  5  7  1  0
  7  8  1  0
  8  9  1  0
  4  2  1  0
  9  7  1  0
  1 10  1  0
  1 11  1  0
  1 12  1  0
  2 13  1  0
  3 14  1  0
  3 15  1  0
  4 16  1  0
  7 17  1  0
  8 18  1  0
  8 19  1  0
  9 20  1  0
  9 21  1  0
M  END
