
     RDKit          3D

 21 22  0  0  0  0  0  0  0  0999 V2000
   -2.4760   -0.4660    0.5685 C   0  0  0  0  0  0  0  0  0  0  0  0
   -1.1890   -0.0756   -0.0946 C   0  0  0  0  0  0  0  0  0  0  0  0
   -0.8889    1.4207    0.0502 C   0  0  0  0  0  0  0  0  0  0  0  0
    0.5762    1.0141    0.2333 C   0  0  0  0  0  0  0  0  0  0  0  0
    1.2214    0.7536   -0.9685 O   0  0  0  0  0  0  0  0  0  0  0  0
    2.4446    0.1411   -0.6476 C   0  0  0  0  0  0  0  0  0  0  0  0
    2.2816   -0.8407    0.3357 O   0  0  0  0  0  0  0  0  0  0  0  0
    0.9842   -1.3832    0.1804 C   0  0  0  0  0  0  0  0  0  0  0  0
    0.0398   -0.3382    0.7247 C   0  0  0  0  0  0  0  0  0  0  0  0
   -3.0547    0.4612    0.7756 H   0  0  0  0  0  0  0  0  0  0  0  0
   -2.2516   -0.9544    1.5336 H   0  0  0  0  0  0  0  0  0  0  0  0
   -3.0373   -1.1841   -0.0548 H   0  0  0  0  0  0  0  0  0  0  0  0
   -1.0572   -0.3570   -1.1440 H   0  0  0  0  0  0  0  0  0  0  0  0
   -1.3190    1.8042    0.9912 H   0  0  0  0  0  0  0  0  0  0  0  0
   -1.1001    2.0247   -0.8283 H   0  0  0  0  0  0  0  0  0  0  0  0
    1.1266    1.5771    0.9845 H   0  0  0  0  0  0  0  0  0  0  0  0
    3.0953    0.9792   -0.2751 H   0  0  0  0  0  0  0  0  0  0  0  0
    2.9072   -0.3286   -1.5531 H   0  0  0  0  0  0  0  0  0  0  0  0
    0.9254   -2.3376    0.7572 H   0  0  0  0  0  0  0  0  0  0  0  0
    0.8486   -1.5430   -0.8992 H   0  0  0  0  0  0  0  0  0  0  0  0
   -0.0772   -0.3677    1.8124 H   0  0  0  0  0  0  0  0  0  0  0  0
  1  2  1  0
  2  3  1  0
  3  4  1  0
  4  5  1  0
  5  6  1  0
  6  7  1  0
  7  8  1  0
  8  9  1  0
  9  2  1  0
  9  4  1  0
  1 10  1  0
  1 11  1  0
  1 12  1  0
  2 13  1  0
  3 14  1  0
  3 15  1  0
  4 16  1  0
  6 17  1  0
  6 18  1  0
  8 19  1  0
  8 20  1  0
  9 21  1  0
M  END
