
     RDKit          3D

 23 24  0  0  0  0  0  0  0  0999 V2000
    2.1835    0.1791   -0.6159 C   0  0  0  0  0  0  0  0  0  0  0  0
    1.1622   -0.1961    0.4165 C   0  0  0  0  0  0  0  0  0  0  0  0
    0.3389   -1.3415   -0.1592 C   0  0  0  0  0  0  0  0  0  0  0  0
   -1.0995   -0.8843   -0.1720 C   0  0  0  0  0  0  0  0  0  0  0  0
   -1.2819    0.3542   -1.0054 C   0  0  0  0  0  0  0  0  0  0  0  0
   -0.5395    1.4782   -0.3414 C   0  0  0  0  0  0  0  0  0  0  0  0
    0.2568    0.9380    0.8069 C   0  0  0  0  0  0  0  0  0  0  0  0
   -0.6269    0.4542    1.7735 O   0  0  0  0  0  0  0  0  0  0  0  0
   -1.4532   -0.5494    1.2772 C   0  0  0  0  0  0  0  0  0  0  0  0
    2.5160    1.2142   -0.5767 H   0  0  0  0  0  0  0  0  0  0  0  0
    3.0255   -0.5592   -0.5156 H   0  0  0  0  0  0  0  0  0  0  0  0
    1.7805    0.0072   -1.6487 H   0  0  0  0  0  0  0  0  0  0  0  0
    1.6961   -0.5147    1.3473 H   0  0  0  0  0  0  0  0  0  0  0  0
    0.3909   -2.1905    0.5703 H   0  0  0  0  0  0  0  0  0  0  0  0
    0.7084   -1.6735   -1.1330 H   0  0  0  0  0  0  0  0  0  0  0  0
   -1.7332   -1.7268   -0.4727 H   0  0  0  0  0  0  0  0  0  0  0  0
   -2.3563    0.5960   -1.0532 H   0  0  0  0  0  0  0  0  0  0  0  0
   -0.9275    0.2165   -2.0316 H   0  0  0  0  0  0  0  0  0  0  0  0
   -1.2270    2.2534    0.0707 H   0  0  0  0  0  0  0  0  0  0  0  0
    0.1544    1.9852   -1.0436 H   0  0  0  0  0  0  0  0  0  0  0  0
    0.8353    1.7439    1.2763 H   0  0  0  0  0  0  0  0  0  0  0  0
   -1.3004   -1.5073    1.8532 H   0  0  0  0  0  0  0  0  0  0  0  0
   -2.5030   -0.2771    1.3771 H   0  0  0  0  0  0  0  0  0  0  0  0
  1  2  1  0
  2  3  1  0
  3  4  1  0
  4  5  1  0
  5  6  1  0
  6  7  1  0
  7  8  1  0
  8  9  1  0
  7  2  1  0
  9  4  1  0
  1 10  1  0
  1 11  1  0
  1 12  1  0
  2 13  1  0
  3 14  1  0
  3 15  1  0
  4 16  1  0
  5 17  1  0
  5 18  1  0
  6 19  1  0
  6 20  1  0
  7 21  1  0
  9 22  1  0
  9 23  1  0
M  END
