
     RDKit          3D

 23 23  0  0  0  0  0  0  0  0999 V2000
   -2.4350   -0.7055    0.5933 C   0  0  0  0  0  0  0  0  0  0  0  0
   -0.9877   -0.2935    0.5697 C   0  0  0  0  0  0  0  0  0  0  0  0
   -0.9161    0.9768   -0.2791 C   0  0  0  0  0  0  0  0  0  0  0  0
    0.4697    1.5265   -0.1239 C   0  0  0  0  0  0  0  0  0  0  0  0
    0.8579    1.6650    1.1926 O   0  0  0  0  0  0  0  0  0  0  0  0
    1.4212    0.5342   -0.7921 C   0  0  0  0  0  0  0  0  0  0  0  0
    1.3127   -0.7686   -0.0439 C   0  0  0  0  0  0  0  0  0  0  0  0
    2.2187   -1.6789   -0.5611 O   0  0  0  0  0  0  0  0  0  0  0  0
   -0.1094   -1.3063   -0.1345 C   0  0  0  0  0  0  0  0  0  0  0  0
   -2.7703   -0.7782   -0.4639 H   0  0  0  0  0  0  0  0  0  0  0  0
   -2.9899    0.1097    1.1060 H   0  0  0  0  0  0  0  0  0  0  0  0
   -2.6226   -1.6646    1.0864 H   0  0  0  0  0  0  0  0  0  0  0  0
   -0.5765   -0.1165    1.5878 H   0  0  0  0  0  0  0  0  0  0  0  0
   -1.7197    1.6770   -0.0628 H   0  0  0  0  0  0  0  0  0  0  0  0
   -1.0282    0.6169   -1.3409 H   0  0  0  0  0  0  0  0  0  0  0  0
    0.5339    2.4730   -0.6790 H   0  0  0  0  0  0  0  0  0  0  0  0
    1.8209    1.9139    1.1862 H   0  0  0  0  0  0  0  0  0  0  0  0
    2.4470    0.9108   -0.7496 H   0  0  0  0  0  0  0  0  0  0  0  0
    1.0295    0.4020   -1.8253 H   0  0  0  0  0  0  0  0  0  0  0  0
    1.5005   -0.5338    1.0331 H   0  0  0  0  0  0  0  0  0  0  0  0
    3.1287   -1.2935   -0.3815 H   0  0  0  0  0  0  0  0  0  0  0  0
   -0.1717   -2.3127    0.2939 H   0  0  0  0  0  0  0  0  0  0  0  0
   -0.4137   -1.3535   -1.2114 H   0  0  0  0  0  0  0  0  0  0  0  0
  1  2  1  0
  2  3  1  0
  3  4  1  0
  4  5  1  0
  4  6  1  0
  6  7  1  0
  7  8  1  0
  7  9  1  0
  9  2  1  0
  1 10  1  0
  1 11  1  0
  1 12  1  0
  2 13  1  0
  3 14  1  0
  3 15  1  0
  4 16  1  0
  5 17  1  0
  6 18  1  0
  6 19  1  0
  7 20  1  0
  8 21  1  0
  9 22  1  0
  9 23  1  0
M  END
