
     RDKit          3D

 23 24  0  0  0  0  0  0  0  0999 V2000
    2.7785    0.2904   -0.1309 C   0  0  0  0  0  0  0  0  0  0  0  0
    1.3617    0.2723    0.3236 C   0  0  0  0  0  0  0  0  0  0  0  0
    0.7026   -1.0867    0.1983 C   0  0  0  0  0  0  0  0  0  0  0  0
   -0.7577   -0.6811    0.4440 C   0  0  0  0  0  0  0  0  0  0  0  0
   -1.6513   -1.8122    0.1088 C   0  0  0  0  0  0  0  0  0  0  0  0
   -0.8929    0.5254   -0.4150 C   0  0  0  0  0  0  0  0  0  0  0  0
   -1.9386    1.5631   -0.1325 C   0  0  0  0  0  0  0  0  0  0  0  0
   -0.2077    0.5194   -1.6153 O   0  0  0  0  0  0  0  0  0  0  0  0
    0.5037    1.1090   -0.6011 C   0  0  0  0  0  0  0  0  0  0  0  0
    3.1831   -0.7111   -0.3105 H   0  0  0  0  0  0  0  0  0  0  0  0
    2.9070    0.9123   -1.0632 H   0  0  0  0  0  0  0  0  0  0  0  0
    3.3683    0.8579    0.6472 H   0  0  0  0  0  0  0  0  0  0  0  0
    1.2309    0.5862    1.3926 H   0  0  0  0  0  0  0  0  0  0  0  0
    1.0316   -1.8025    0.9593 H   0  0  0  0  0  0  0  0  0  0  0  0
    0.8222   -1.4788   -0.8401 H   0  0  0  0  0  0  0  0  0  0  0  0
   -0.8091   -0.3519    1.5087 H   0  0  0  0  0  0  0  0  0  0  0  0
   -2.5488   -1.5639   -0.4675 H   0  0  0  0  0  0  0  0  0  0  0  0
   -1.1084   -2.6657   -0.3920 H   0  0  0  0  0  0  0  0  0  0  0  0
   -2.0036   -2.2630    1.0834 H   0  0  0  0  0  0  0  0  0  0  0  0
   -1.5105    2.5964   -0.0331 H   0  0  0  0  0  0  0  0  0  0  0  0
   -2.4001    1.3377    0.8411 H   0  0  0  0  0  0  0  0  0  0  0  0
   -2.7023    1.6508   -0.9417 H   0  0  0  0  0  0  0  0  0  0  0  0
    0.6414    2.1960   -0.5641 H   0  0  0  0  0  0  0  0  0  0  0  0
  1  2  1  0
  2  3  1  0
  3  4  1  0
  4  5  1  0
  4  6  1  0
  6  7  1  0
  6  8  1  0
  8  9  1  0
  9  2  1  0
  9  6  1  0
  1 10  1  0
  1 11  1  0
  1 12  1  0
  2 13  1  0
  3 14  1  0
  3 15  1  0
  4 16  1  0
  5 17  1  0
  5 18  1  0
  5 19  1  0
  7 20  1  0
  7 21  1  0
  7 22  1  0
  9 23  1  0
M  END
