
     RDKit          3D

 21 22  0  0  0  0  0  0  0  0999 V2000
    2.1446   -0.5670    0.5616 C   0  0  0  0  0  0  0  0  0  0  0  0
    0.7079   -0.2206    0.5172 C   0  0  0  0  0  0  0  0  0  0  0  0
    0.3610    1.1908    0.0790 C   0  0  0  0  0  0  0  0  0  0  0  0
   -1.1251    1.1990    0.2087 C   0  0  0  0  0  0  0  0  0  0  0  0
   -1.4364   -0.1793   -0.4117 C   0  0  0  0  0  0  0  0  0  0  0  0
   -1.9197   -1.0940    0.6624 C   0  0  0  0  0  0  0  0  0  0  0  0
   -2.2503   -2.2155    0.3459 O   0  0  0  0  0  0  0  0  0  0  0  0
   -0.0394   -0.6068   -0.7549 C   0  0  0  0  0  0  0  0  0  0  0  0
    0.5411    0.6616   -1.3521 C   0  0  0  0  0  0  0  0  0  0  0  0
    2.4159   -0.7631    1.6405 H   0  0  0  0  0  0  0  0  0  0  0  0
    2.8270    0.2087    0.2099 H   0  0  0  0  0  0  0  0  0  0  0  0
    2.2883   -1.5568    0.0589 H   0  0  0  0  0  0  0  0  0  0  0  0
    0.0788   -0.4911    1.3881 H   0  0  0  0  0  0  0  0  0  0  0  0
    0.9595    1.9987    0.3908 H   0  0  0  0  0  0  0  0  0  0  0  0
   -1.6347    2.0041   -0.3202 H   0  0  0  0  0  0  0  0  0  0  0  0
   -1.3782    1.2120    1.2827 H   0  0  0  0  0  0  0  0  0  0  0  0
   -2.1165   -0.1027   -1.2548 H   0  0  0  0  0  0  0  0  0  0  0  0
   -1.9881   -0.8016    1.7084 H   0  0  0  0  0  0  0  0  0  0  0  0
    0.1584   -1.5378   -1.2050 H   0  0  0  0  0  0  0  0  0  0  0  0
    1.5833    0.5804   -1.6770 H   0  0  0  0  0  0  0  0  0  0  0  0
   -0.1775    1.0814   -2.0783 H   0  0  0  0  0  0  0  0  0  0  0  0
  1  2  1  0
  2  3  1  0
  3  4  1  0
  4  5  1  0
  5  6  1  0
  6  7  2  0
  5  8  1  0
  8  9  1  0
  8  2  1  0
  9  3  1  0
  1 10  1  0
  1 11  1  0
  1 12  1  0
  2 13  1  0
  3 14  1  0
  4 15  1  0
  4 16  1  0
  5 17  1  0
  6 18  1  0
  8 19  1  0
  9 20  1  0
  9 21  1  0
M  END
