
     RDKit          3D

 23 24  0  0  0  0  0  0  0  0999 V2000
    2.5479   -0.9482    0.0760 C   0  0  0  0  0  0  0  0  0  0  0  0
    1.3376   -0.2460   -0.4599 C   0  0  0  0  0  0  0  0  0  0  0  0
    1.4075    1.2514   -0.1434 C   0  0  0  0  0  0  0  0  0  0  0  0
   -0.0523    1.6410   -0.3890 C   0  0  0  0  0  0  0  0  0  0  0  0
   -0.7732    0.5554    0.3638 C   0  0  0  0  0  0  0  0  0  0  0  0
   -1.6199   -0.3697   -0.4548 C   0  0  0  0  0  0  0  0  0  0  0  0
   -2.9067   -0.7080    0.2885 C   0  0  0  0  0  0  0  0  0  0  0  0
   -0.7254   -1.4365   -0.2927 O   0  0  0  0  0  0  0  0  0  0  0  0
    0.1416   -0.6402    0.4160 C   0  0  0  0  0  0  0  0  0  0  0  0
    2.4643   -0.9220    1.1975 H   0  0  0  0  0  0  0  0  0  0  0  0
    2.5267   -1.9861   -0.2866 H   0  0  0  0  0  0  0  0  0  0  0  0
    3.5005   -0.4203   -0.1537 H   0  0  0  0  0  0  0  0  0  0  0  0
    1.1259   -0.4396   -1.5147 H   0  0  0  0  0  0  0  0  0  0  0  0
    1.6721    1.3173    0.9249 H   0  0  0  0  0  0  0  0  0  0  0  0
    2.0993    1.7848   -0.8000 H   0  0  0  0  0  0  0  0  0  0  0  0
   -0.2181    1.5309   -1.4879 H   0  0  0  0  0  0  0  0  0  0  0  0
   -0.2611    2.6520   -0.0191 H   0  0  0  0  0  0  0  0  0  0  0  0
   -1.1982    0.8545    1.3310 H   0  0  0  0  0  0  0  0  0  0  0  0
   -1.7861   -0.0852   -1.5070 H   0  0  0  0  0  0  0  0  0  0  0  0
   -2.6991   -1.3442    1.1655 H   0  0  0  0  0  0  0  0  0  0  0  0
   -3.5827   -1.2983   -0.3731 H   0  0  0  0  0  0  0  0  0  0  0  0
   -3.4033    0.2101    0.6861 H   0  0  0  0  0  0  0  0  0  0  0  0
    0.4028   -0.9530    1.4326 H   0  0  0  0  0  0  0  0  0  0  0  0
  1  2  1  0
  2  3  1  0
  3  4  1  0
  4  5  1  0
  5  6  1  0
  6  7  1  0
  6  8  1  0
  8  9  1  0
  9  2  1  0
  9  5  1  0
  1 10  1  0
  1 11  1  0
  1 12  1  0
  2 13  1  0
  3 14  1  0
  3 15  1  0
  4 16  1  0
  4 17  1  0
  5 18  1  0
  6 19  1  0
  7 20  1  0
  7 21  1  0
  7 22  1  0
  9 23  1  0
M  END
