
     RDKit          3D

 19 19  0  0  0  0  0  0  0  0999 V2000
    2.2497    0.3348    0.1718 C   0  0  0  0  0  0  0  0  0  0  0  0
    0.8979    0.0481   -0.4482 C   0  0  0  0  0  0  0  0  0  0  0  0
    0.4168   -1.2637    0.1006 C   0  0  0  0  0  0  0  0  0  0  0  0
   -0.7463   -1.0875    0.8224 O   0  0  0  0  0  0  0  0  0  0  0  0
   -1.8668   -0.9839    0.0445 C   0  0  0  0  0  0  0  0  0  0  0  0
   -2.2761    0.2745   -0.2475 O   0  0  0  0  0  0  0  0  0  0  0  0
   -1.4482    1.2966    0.1593 C   0  0  0  0  0  0  0  0  0  0  0  0
   -0.0497    1.1604   -0.2444 C   0  0  0  0  0  0  0  0  0  0  0  0
    0.4987    2.2498   -0.4809 O   0  0  0  0  0  0  0  0  0  0  0  0
    3.0359    0.1560   -0.5916 H   0  0  0  0  0  0  0  0  0  0  0  0
    2.2734    1.3653    0.5856 H   0  0  0  0  0  0  0  0  0  0  0  0
    2.4664   -0.3568    1.0207 H   0  0  0  0  0  0  0  0  0  0  0  0
    1.0029   -0.0816   -1.5604 H   0  0  0  0  0  0  0  0  0  0  0  0
    1.1833   -1.7583    0.7591 H   0  0  0  0  0  0  0  0  0  0  0  0
    0.2316   -2.0257   -0.7115 H   0  0  0  0  0  0  0  0  0  0  0  0
   -2.7032   -1.5008    0.5952 H   0  0  0  0  0  0  0  0  0  0  0  0
   -1.7845   -1.5547   -0.9238 H   0  0  0  0  0  0  0  0  0  0  0  0
   -1.8859    2.2303   -0.3082 H   0  0  0  0  0  0  0  0  0  0  0  0
   -1.4960    1.4973    1.2572 H   0  0  0  0  0  0  0  0  0  0  0  0
  1  2  1  0
  2  3  1  0
  3  4  1  0
  4  5  1  0
  5  6  1  0
  6  7  1  0
  7  8  1  0
  8  9  2  0
  8  2  1  0
  1 10  1  0
  1 11  1  0
  1 12  1  0
  2 13  1  0
  3 14  1  0
  3 15  1  0
  5 16  1  0
  5 17  1  0
  7 18  1  0
  7 19  1  0
M  END
