
     RDKit          3D

 19 19  0  0  0  0  0  0  0  0999 V2000
   -2.4232    0.8322    0.5184 C   0  0  0  0  0  0  0  0  0  0  0  0
   -1.3207    0.1307   -0.2123 C   0  0  0  0  0  0  0  0  0  0  0  0
   -1.0211   -1.2360    0.3512 C   0  0  0  0  0  0  0  0  0  0  0  0
    0.4487   -1.3602    0.1007 C   0  0  0  0  0  0  0  0  0  0  0  0
    0.9970   -0.1748   -0.0496 C   0  0  0  0  0  0  0  0  0  0  0  0
    2.4426    0.1312   -0.3157 C   0  0  0  0  0  0  0  0  0  0  0  0
    2.9526    0.9128    0.7015 O   0  0  0  0  0  0  0  0  0  0  0  0
   -0.0342    0.8513    0.0828 C   0  0  0  0  0  0  0  0  0  0  0  0
    0.1302    2.0620    0.3778 O   0  0  0  0  0  0  0  0  0  0  0  0
   -2.7125    1.7227   -0.1056 H   0  0  0  0  0  0  0  0  0  0  0  0
   -3.3406    0.2028    0.6184 H   0  0  0  0  0  0  0  0  0  0  0  0
   -2.0384    1.2076    1.4659 H   0  0  0  0  0  0  0  0  0  0  0  0
   -1.4586    0.0890   -1.2978 H   0  0  0  0  0  0  0  0  0  0  0  0
   -1.5988   -2.0249   -0.1565 H   0  0  0  0  0  0  0  0  0  0  0  0
   -1.2652   -1.3061    1.4313 H   0  0  0  0  0  0  0  0  0  0  0  0
    0.9479   -2.3156    0.0578 H   0  0  0  0  0  0  0  0  0  0  0  0
    2.9741   -0.8348   -0.4357 H   0  0  0  0  0  0  0  0  0  0  0  0
    2.5673    0.6781   -1.2639 H   0  0  0  0  0  0  0  0  0  0  0  0
    3.7529    0.4319    1.0568 H   0  0  0  0  0  0  0  0  0  0  0  0
  1  2  1  0
  2  3  1  0
  3  4  1  0
  4  5  2  0
  5  6  1  0
  6  7  1  0
  5  8  1  0
  8  9  2  0
  8  2  1  0
  1 10  1  0
  1 11  1  0
  1 12  1  0
  2 13  1  0
  3 14  1  0
  3 15  1  0
  4 16  1  0
  6 17  1  0
  6 18  1  0
  7 19  1  0
M  END
