
     RDKit          3D

 17 18  0  0  0  0  0  0  0  0999 V2000
   -1.7948   -0.7972    0.0121 C   0  0  0  0  0  0  0  0  0  0  0  0
   -0.5350   -0.1326   -0.4383 C   0  0  0  0  0  0  0  0  0  0  0  0
   -0.0226    0.9627    0.5284 C   0  0  0  0  0  0  0  0  0  0  0  0
   -0.5066    2.2180    0.2566 O   0  0  0  0  0  0  0  0  0  0  0  0
    1.2572    0.6392   -0.2485 C   0  0  0  0  0  0  0  0  0  0  0  0
    2.0741   -0.5126   -0.1511 C   0  0  0  0  0  0  0  0  0  0  0  0
    0.7115   -0.8088    0.1196 C   0  0  0  0  0  0  0  0  0  0  0  0
   -1.8935   -1.7492   -0.5491 H   0  0  0  0  0  0  0  0  0  0  0  0
   -1.6407   -1.1006    1.0827 H   0  0  0  0  0  0  0  0  0  0  0  0
   -2.6944   -0.1963   -0.1115 H   0  0  0  0  0  0  0  0  0  0  0  0
   -0.4272    0.1198   -1.4880 H   0  0  0  0  0  0  0  0  0  0  0  0
   -0.0017    0.6264    1.5608 H   0  0  0  0  0  0  0  0  0  0  0  0
   -1.4318    2.2412   -0.0778 H   0  0  0  0  0  0  0  0  0  0  0  0
    1.0257    0.9465   -1.3208 H   0  0  0  0  0  0  0  0  0  0  0  0
    2.8589   -0.5169    0.6641 H   0  0  0  0  0  0  0  0  0  0  0  0
    2.5249   -0.9966   -1.0693 H   0  0  0  0  0  0  0  0  0  0  0  0
    0.4959   -0.9429    1.2299 H   0  0  0  0  0  0  0  0  0  0  0  0
  1  2  1  0
  2  3  1  0
  3  4  1  0
  3  5  1  0
  5  6  1  0
  6  7  1  0
  7  2  1  0
  7  5  1  0
  1  8  1  0
  1  9  1  0
  1 10  1  0
  2 11  1  0
  3 12  1  0
  4 13  1  0
  5 14  1  0
  6 15  1  0
  6 16  1  0
  7 17  1  0
M  END
