
     RDKit          3D

 25 25  0  0  0  0  0  0  0  0999 V2000
   -2.7860    0.0370   -0.3374 C   0  0  0  0  0  0  0  0  0  0  0  0
   -1.2565   -0.0396   -0.4338 C   0  0  0  0  0  0  0  0  0  0  0  0
   -0.8576   -1.3916    0.0624 C   0  0  0  0  0  0  0  0  0  0  0  0
    0.5867   -1.7298   -0.1936 C   0  0  0  0  0  0  0  0  0  0  0  0
    1.5326   -0.8976    0.6319 C   0  0  0  0  0  0  0  0  0  0  0  0
    1.9849    0.3497   -0.0729 C   0  0  0  0  0  0  0  0  0  0  0  0
    1.4319    1.6114    0.5326 C   0  0  0  0  0  0  0  0  0  0  0  0
    0.0572    1.8323   -0.1067 C   0  0  0  0  0  0  0  0  0  0  0  0
   -0.7935    0.9019    0.5049 O   0  0  0  0  0  0  0  0  0  0  0  0
   -3.1419    1.0314   -0.7051 H   0  0  0  0  0  0  0  0  0  0  0  0
   -3.0013    0.0443    0.7598 H   0  0  0  0  0  0  0  0  0  0  0  0
   -3.2586   -0.8105   -0.8312 H   0  0  0  0  0  0  0  0  0  0  0  0
   -0.8991    0.2016   -1.4464 H   0  0  0  0  0  0  0  0  0  0  0  0
   -1.0503   -1.4273    1.1569 H   0  0  0  0  0  0  0  0  0  0  0  0
   -1.4641   -2.1832   -0.4503 H   0  0  0  0  0  0  0  0  0  0  0  0
    0.7233   -2.7957    0.1225 H   0  0  0  0  0  0  0  0  0  0  0  0
    0.8202   -1.6700   -1.2644 H   0  0  0  0  0  0  0  0  0  0  0  0
    2.4424   -1.5180    0.8313 H   0  0  0  0  0  0  0  0  0  0  0  0
    1.0092   -0.6868    1.5975 H   0  0  0  0  0  0  0  0  0  0  0  0
    3.0780    0.4296   -0.1160 H   0  0  0  0  0  0  0  0  0  0  0  0
    1.6299    0.2786   -1.1280 H   0  0  0  0  0  0  0  0  0  0  0  0
    2.0799    2.4814    0.4408 H   0  0  0  0  0  0  0  0  0  0  0  0
    1.2905    1.4262    1.6255 H   0  0  0  0  0  0  0  0  0  0  0  0
   -0.2801    2.8693    0.0293 H   0  0  0  0  0  0  0  0  0  0  0  0
    0.1225    1.6551   -1.2098 H   0  0  0  0  0  0  0  0  0  0  0  0
  1  2  1  0
  2  3  1  0
  3  4  1  0
  4  5  1  0
  5  6  1  0
  6  7  1  0
  7  8  1  0
  8  9  1  0
  9  2  1  0
  1 10  1  0
  1 11  1  0
  1 12  1  0
  2 13  1  0
  3 14  1  0
  3 15  1  0
  4 16  1  0
  4 17  1  0
  5 18  1  0
  5 19  1  0
  6 20  1  0
  6 21  1  0
  7 22  1  0
  7 23  1  0
  8 24  1  0
  8 25  1  0
M  END
