
     RDKit          3D

 23 25  0  0  0  0  0  0  0  0999 V2000
    2.4220   -0.0990   -0.0620 C   0  0  0  0  0  0  0  0  0  0  0  0
    1.0740    0.2453    0.4961 C   0  0  0  0  0  0  0  0  0  0  0  0
    0.4007    1.3356   -0.2735 C   0  0  0  0  0  0  0  0  0  0  0  0
   -1.0698    1.2940   -0.2683 C   0  0  0  0  0  0  0  0  0  0  0  0
   -1.7699    0.3146    0.5133 C   0  0  0  0  0  0  0  0  0  0  0  0
   -1.0138   -0.6784    1.2980 C   0  0  0  0  0  0  0  0  0  0  0  0
    0.1765   -0.9898    0.3850 C   0  0  0  0  0  0  0  0  0  0  0  0
   -0.4993   -1.0358   -0.9635 C   0  0  0  0  0  0  0  0  0  0  0  0
   -1.5507    0.0281   -0.9077 C   0  0  0  0  0  0  0  0  0  0  0  0
    3.0328   -0.5771    0.7359 H   0  0  0  0  0  0  0  0  0  0  0  0
    2.9097    0.7910   -0.5060 H   0  0  0  0  0  0  0  0  0  0  0  0
    2.2777   -0.8522   -0.8524 H   0  0  0  0  0  0  0  0  0  0  0  0
    1.1680    0.5787    1.5582 H   0  0  0  0  0  0  0  0  0  0  0  0
    0.7887    2.3511    0.0275 H   0  0  0  0  0  0  0  0  0  0  0  0
    0.7503    1.2268   -1.3430 H   0  0  0  0  0  0  0  0  0  0  0  0
   -1.5977    2.2430   -0.5169 H   0  0  0  0  0  0  0  0  0  0  0  0
   -2.8029    0.5424    0.8504 H   0  0  0  0  0  0  0  0  0  0  0  0
   -0.6685   -0.3496    2.2909 H   0  0  0  0  0  0  0  0  0  0  0  0
   -1.5735   -1.6339    1.3825 H   0  0  0  0  0  0  0  0  0  0  0  0
    0.6889   -1.9085    0.6620 H   0  0  0  0  0  0  0  0  0  0  0  0
    0.1873   -0.9290   -1.8089 H   0  0  0  0  0  0  0  0  0  0  0  0
   -1.0217   -2.0228   -1.0182 H   0  0  0  0  0  0  0  0  0  0  0  0
   -2.3087    0.1254   -1.6793 H   0  0  0  0  0  0  0  0  0  0  0  0
  1  2  1  0
  2  3  1  0
  3  4  1  0
  4  5  1  0
  5  6  1  0
  6  7  1  0
  7  8  1  0
  8  9  1  0
  7  2  1  0
  9  4  1  0
  9  5  1  0
  1 10  1  0
  1 11  1  0
  1 12  1  0
  2 13  1  0
  3 14  1  0
  3 15  1  0
  4 16  1  0
  5 17  1  0
  6 18  1  0
  6 19  1  0
  7 20  1  0
  8 21  1  0
  8 22  1  0
  9 23  1  0
M  END
