
     RDKit          3D

 23 23  0  0  0  0  0  0  0  0999 V2000
    2.6266   -0.0731   -0.1683 C   0  0  0  0  0  0  0  0  0  0  0  0
    1.2636   -0.0713    0.4544 C   0  0  0  0  0  0  0  0  0  0  0  0
    0.5212   -1.3723    0.1718 C   0  0  0  0  0  0  0  0  0  0  0  0
   -0.9464   -1.0183    0.1312 C   0  0  0  0  0  0  0  0  0  0  0  0
   -1.4943   -1.5134   -1.0352 O   0  0  0  0  0  0  0  0  0  0  0  0
   -1.0197    0.4453    0.2959 C   0  0  0  0  0  0  0  0  0  0  0  0
   -2.0495    1.1459   -0.5218 C   0  0  0  0  0  0  0  0  0  0  0  0
   -1.1235    0.7314    1.6689 O   0  0  0  0  0  0  0  0  0  0  0  0
    0.3502    0.9414   -0.1776 C   0  0  0  0  0  0  0  0  0  0  0  0
    3.4023   -0.1985    0.6176 H   0  0  0  0  0  0  0  0  0  0  0  0
    2.8123    0.8872   -0.6818 H   0  0  0  0  0  0  0  0  0  0  0  0
    2.6682   -0.9009   -0.8919 H   0  0  0  0  0  0  0  0  0  0  0  0
    1.3083    0.1284    1.5356 H   0  0  0  0  0  0  0  0  0  0  0  0
    0.8619   -1.7439   -0.8148 H   0  0  0  0  0  0  0  0  0  0  0  0
    0.7849   -2.0623    0.9852 H   0  0  0  0  0  0  0  0  0  0  0  0
   -1.4680   -1.5415    0.9774 H   0  0  0  0  0  0  0  0  0  0  0  0
   -1.5159   -2.5109   -0.9354 H   0  0  0  0  0  0  0  0  0  0  0  0
   -2.1105    2.2027   -0.1245 H   0  0  0  0  0  0  0  0  0  0  0  0
   -3.0449    0.6803   -0.5105 H   0  0  0  0  0  0  0  0  0  0  0  0
   -1.6729    1.2433   -1.5628 H   0  0  0  0  0  0  0  0  0  0  0  0
   -0.9747    1.7136    1.7446 H   0  0  0  0  0  0  0  0  0  0  0  0
    0.4579    1.9574    0.2264 H   0  0  0  0  0  0  0  0  0  0  0  0
    0.3630    0.9295   -1.2791 H   0  0  0  0  0  0  0  0  0  0  0  0
  1  2  1  0
  2  3  1  0
  3  4  1  0
  4  5  1  0
  4  6  1  0
  6  7  1  0
  6  8  1  0
  6  9  1  0
  9  2  1  0
  1 10  1  0
  1 11  1  0
  1 12  1  0
  2 13  1  0
  3 14  1  0
  3 15  1  0
  4 16  1  0
  5 17  1  0
  7 18  1  0
  7 19  1  0
  7 20  1  0
  8 21  1  0
  9 22  1  0
  9 23  1  0
M  END
