
     RDKit          3D

 19 20  0  0  0  0  0  0  0  0999 V2000
    2.1386    0.0493   -0.0054 C   0  0  0  0  0  0  0  0  0  0  0  0
    0.8619   -0.2337   -0.6764 C   0  0  0  0  0  0  0  0  0  0  0  0
    0.3200   -1.5988   -0.3244 C   0  0  0  0  0  0  0  0  0  0  0  0
    0.8260   -2.7057   -0.3824 O   0  0  0  0  0  0  0  0  0  0  0  0
   -0.9712   -0.9835    0.0745 C   0  0  0  0  0  0  0  0  0  0  0  0
   -1.5534   -1.3373    1.2798 O   0  0  0  0  0  0  0  0  0  0  0  0
   -1.6507   -0.1012   -0.8816 C   0  0  0  0  0  0  0  0  0  0  0  0
   -0.3941    0.3487   -0.1675 C   0  0  0  0  0  0  0  0  0  0  0  0
   -0.4787    1.4778    0.7725 C   0  0  0  0  0  0  0  0  0  0  0  0
    2.9642   -0.0236   -0.7739 H   0  0  0  0  0  0  0  0  0  0  0  0
    2.4031   -0.7492    0.7429 H   0  0  0  0  0  0  0  0  0  0  0  0
    2.2522    1.0258    0.4632 H   0  0  0  0  0  0  0  0  0  0  0  0
    0.9096   -0.1423   -1.8007 H   0  0  0  0  0  0  0  0  0  0  0  0
   -1.8851   -0.5901    1.8076 H   0  0  0  0  0  0  0  0  0  0  0  0
   -1.5679   -0.3358   -1.9786 H   0  0  0  0  0  0  0  0  0  0  0  0
   -2.5710    0.4137   -0.6188 H   0  0  0  0  0  0  0  0  0  0  0  0
   -1.0984    1.2920    1.6786 H   0  0  0  0  0  0  0  0  0  0  0  0
    0.4948    1.8617    1.0748 H   0  0  0  0  0  0  0  0  0  0  0  0
   -0.9998    2.3321    0.2475 H   0  0  0  0  0  0  0  0  0  0  0  0
  1  2  1  0
  2  3  1  0
  3  4  2  0
  3  5  1  0
  5  6  1  0
  5  7  1  0
  7  8  1  0
  8  9  1  0
  8  2  1  0
  8  5  1  0
  1 10  1  0
  1 11  1  0
  1 12  1  0
  2 13  1  0
  6 14  1  0
  7 15  1  0
  7 16  1  0
  9 17  1  0
  9 18  1  0
  9 19  1  0
M  END
