
     RDKit          3D

 22 23  0  0  0  0  0  0  0  0999 V2000
   -0.7964   -1.8860   -0.3936 C   0  0  0  0  0  0  0  0  0  0  0  0
   -0.9172   -0.5562    0.3018 C   0  0  0  0  0  0  0  0  0  0  0  0
   -0.6252    0.6512   -0.5297 C   0  0  0  0  0  0  0  0  0  0  0  0
   -1.7324    1.7047   -0.5436 C   0  0  0  0  0  0  0  0  0  0  0  0
    0.4414    1.0551    0.4317 C   0  0  0  0  0  0  0  0  0  0  0  0
    1.5383    0.1389    0.8065 C   0  0  0  0  0  0  0  0  0  0  0  0
    2.2350   -0.5611   -0.3168 C   0  0  0  0  0  0  0  0  0  0  0  0
    0.1702   -0.1762    1.2303 C   0  0  0  0  0  0  0  0  0  0  0  0
   -1.1362   -1.8263   -1.4462 H   0  0  0  0  0  0  0  0  0  0  0  0
    0.2680   -2.2044   -0.3254 H   0  0  0  0  0  0  0  0  0  0  0  0
   -1.3672   -2.6508    0.1900 H   0  0  0  0  0  0  0  0  0  0  0  0
   -1.9351   -0.4668    0.7534 H   0  0  0  0  0  0  0  0  0  0  0  0
   -0.3022    0.3490   -1.5448 H   0  0  0  0  0  0  0  0  0  0  0  0
   -1.2407    2.6328   -0.9579 H   0  0  0  0  0  0  0  0  0  0  0  0
   -1.9356    1.9334    0.5256 H   0  0  0  0  0  0  0  0  0  0  0  0
   -2.6053    1.3906   -1.1128 H   0  0  0  0  0  0  0  0  0  0  0  0
    0.4076    2.0592    0.8931 H   0  0  0  0  0  0  0  0  0  0  0  0
    2.2211    0.5101    1.5990 H   0  0  0  0  0  0  0  0  0  0  0  0
    1.6734   -0.5027   -1.2697 H   0  0  0  0  0  0  0  0  0  0  0  0
    3.1881    0.0157   -0.5103 H   0  0  0  0  0  0  0  0  0  0  0  0
    2.5728   -1.5864   -0.0682 H   0  0  0  0  0  0  0  0  0  0  0  0
   -0.1225   -0.0241    2.2878 H   0  0  0  0  0  0  0  0  0  0  0  0
  1  2  1  0
  2  3  1  0
  3  4  1  0
  3  5  1  0
  5  6  1  0
  6  7  1  0
  6  8  1  0
  8  2  1  0
  8  5  1  0
  1  9  1  0
  1 10  1  0
  1 11  1  0
  2 12  1  0
  3 13  1  0
  4 14  1  0
  4 15  1  0
  4 16  1  0
  5 17  1  0
  6 18  1  0
  7 19  1  0
  7 20  1  0
  7 21  1  0
  8 22  1  0
M  END
