
     RDKit          3D

 19 20  0  0  0  0  0  0  0  0999 V2000
    2.8410    0.0041    0.2327 C   0  0  0  0  0  0  0  0  0  0  0  0
    1.4939    0.0667   -0.4410 C   0  0  0  0  0  0  0  0  0  0  0  0
    0.6839   -1.1525   -0.1975 C   0  0  0  0  0  0  0  0  0  0  0  0
   -0.5843   -0.7891   -0.1520 C   0  0  0  0  0  0  0  0  0  0  0  0
   -2.0531   -0.6028   -0.0646 C   0  0  0  0  0  0  0  0  0  0  0  0
   -2.5684   -0.3544   -1.3351 O   0  0  0  0  0  0  0  0  0  0  0  0
   -1.6978    0.7502    0.5852 C   0  0  0  0  0  0  0  0  0  0  0  0
   -0.5339    0.7128   -0.3718 C   0  0  0  0  0  0  0  0  0  0  0  0
    0.7088    1.0758    0.1257 O   0  0  0  0  0  0  0  0  0  0  0  0
    2.7478    0.1989    1.3333 H   0  0  0  0  0  0  0  0  0  0  0  0
    3.2874   -0.9652   -0.0015 H   0  0  0  0  0  0  0  0  0  0  0  0
    3.4293    0.8728   -0.1632 H   0  0  0  0  0  0  0  0  0  0  0  0
    1.6346    0.2144   -1.5309 H   0  0  0  0  0  0  0  0  0  0  0  0
    1.1086   -2.1580   -0.0822 H   0  0  0  0  0  0  0  0  0  0  0  0
   -2.6074   -1.2815    0.5702 H   0  0  0  0  0  0  0  0  0  0  0  0
   -3.2814    0.3041   -1.3577 H   0  0  0  0  0  0  0  0  0  0  0  0
   -2.4390    1.5317    0.4396 H   0  0  0  0  0  0  0  0  0  0  0  0
   -1.3782    0.5379    1.6312 H   0  0  0  0  0  0  0  0  0  0  0  0
   -0.7921    1.0342   -1.3756 H   0  0  0  0  0  0  0  0  0  0  0  0
  1  2  1  0
  2  3  1  0
  3  4  2  0
  4  5  1  0
  5  6  1  0
  5  7  1  0
  7  8  1  0
  8  9  1  0
  9  2  1  0
  8  4  1  0
  1 10  1  0
  1 11  1  0
  1 12  1  0
  2 13  1  0
  3 14  1  0
  5 15  1  0
  6 16  1  0
  7 17  1  0
  7 18  1  0
  8 19  1  0
M  END
