
     RDKit          3D

 19 20  0  0  0  0  0  0  0  0999 V2000
   -2.4372    0.2160   -0.4484 C   0  0  0  0  0  0  0  0  0  0  0  0
   -1.2626   -0.5938    0.1186 C   0  0  0  0  0  0  0  0  0  0  0  0
   -0.2599    0.0985    0.7967 C   0  0  0  0  0  0  0  0  0  0  0  0
    0.6874    1.1851    0.4540 C   0  0  0  0  0  0  0  0  0  0  0  0
    1.9193    0.3063    0.1448 C   0  0  0  0  0  0  0  0  0  0  0  0
    1.3338   -1.0539   -0.2847 C   0  0  0  0  0  0  0  0  0  0  0  0
   -0.0552   -0.6380   -0.5920 C   0  0  0  0  0  0  0  0  0  0  0  0
   -2.7171   -0.2389   -1.4438 H   0  0  0  0  0  0  0  0  0  0  0  0
   -3.2908    0.1384    0.2212 H   0  0  0  0  0  0  0  0  0  0  0  0
   -2.0878    1.2462   -0.6205 H   0  0  0  0  0  0  0  0  0  0  0  0
   -1.6675   -1.5617    0.5351 H   0  0  0  0  0  0  0  0  0  0  0  0
    0.1767   -0.4505    1.6937 H   0  0  0  0  0  0  0  0  0  0  0  0
    0.4359    1.6893   -0.5083 H   0  0  0  0  0  0  0  0  0  0  0  0
    0.9341    1.8809    1.2605 H   0  0  0  0  0  0  0  0  0  0  0  0
    2.4072    0.1330    1.1124 H   0  0  0  0  0  0  0  0  0  0  0  0
    2.5445    0.7440   -0.6302 H   0  0  0  0  0  0  0  0  0  0  0  0
    1.8925   -1.3374   -1.2105 H   0  0  0  0  0  0  0  0  0  0  0  0
    1.4576   -1.8130    0.4799 H   0  0  0  0  0  0  0  0  0  0  0  0
   -0.0108    0.0495   -1.4952 H   0  0  0  0  0  0  0  0  0  0  0  0
  1  2  1  0
  2  3  1  0
  3  4  1  0
  4  5  1  0
  5  6  1  0
  6  7  1  0
  7  2  1  0
  7  3  1  0
  1  8  1  0
  1  9  1  0
  1 10  1  0
  2 11  1  0
  3 12  1  0
  4 13  1  0
  4 14  1  0
  5 15  1  0
  5 16  1  0
  6 17  1  0
  6 18  1  0
  7 19  1  0
M  END
