
     RDKit          3D

 16 17  0  0  0  0  0  0  0  0999 V2000
   -1.4196   -1.0292    0.0644 C   0  0  0  0  0  0  0  0  0  0  0  0
   -0.4492   -0.1601    0.7882 C   0  0  0  0  0  0  0  0  0  0  0  0
   -0.6076    1.3229    0.6193 C   0  0  0  0  0  0  0  0  0  0  0  0
    0.7492    1.4022    0.9276 O   0  0  0  0  0  0  0  0  0  0  0  0
    0.7212    0.3535    0.0177 C   0  0  0  0  0  0  0  0  0  0  0  0
    1.8081   -0.3696   -0.4375 C   0  0  0  0  0  0  0  0  0  0  0  0
   -0.2045    1.1651   -0.7598 C   0  0  0  0  0  0  0  0  0  0  0  0
   -0.4914    1.5161   -1.8751 O   0  0  0  0  0  0  0  0  0  0  0  0
   -1.8669   -1.8174    0.7396 H   0  0  0  0  0  0  0  0  0  0  0  0
   -2.2517   -0.4863   -0.3997 H   0  0  0  0  0  0  0  0  0  0  0  0
   -0.8735   -1.5999   -0.7127 H   0  0  0  0  0  0  0  0  0  0  0  0
   -0.2510   -0.4736    1.8288 H   0  0  0  0  0  0  0  0  0  0  0  0
   -1.3328    1.8980    1.0169 H   0  0  0  0  0  0  0  0  0  0  0  0
    2.2285    0.0461   -1.4006 H   0  0  0  0  0  0  0  0  0  0  0  0
    1.5561   -1.4276   -0.6840 H   0  0  0  0  0  0  0  0  0  0  0  0
    2.6853   -0.3401    0.2667 H   0  0  0  0  0  0  0  0  0  0  0  0
  1  2  1  0
  2  3  1  0
  3  4  1  0
  4  5  1  0
  5  6  1  0
  5  7  1  0
  7  8  2  0
  5  2  1  0
  7  3  1  0
  1  9  1  0
  1 10  1  0
  1 11  1  0
  2 12  1  0
  3 13  1  0
  6 14  1  0
  6 15  1  0
  6 16  1  0
M  END
