
     RDKit          2D

 21 23  0  0  0  0  0  0  0  0999 V2000
   -2.5992    1.8055    0.0000 C   0  0  0  0  0  0  0  0  0  0  0  0
   -1.3116    1.0361    0.0000 C   0  0  0  0  0  0  0  0  0  0  0  0
   -0.6810    2.3972    0.0000 C   0  0  0  0  0  0  0  0  0  0  0  0
   -2.1625    2.1625    0.0000 C   0  0  0  0  0  0  0  0  0  0  0  0
   -2.3972    0.6810    0.0000 C   0  0  0  0  0  0  0  0  0  0  0  0
   -1.0607    0.0000    0.0000 C   0  0  0  0  0  0  0  0  0  0  0  0
   -0.0000   -1.0607    0.0000 C   0  0  0  0  0  0  0  0  0  0  0  0
    1.0607    0.0000    0.0000 C   0  0  0  0  0  0  0  0  0  0  0  0
    0.0000    1.0607    0.0000 C   0  0  0  0  0  0  0  0  0  0  0  0
   -3.8869    2.5749    0.0000 H   0  0  0  0  0  0  0  0  0  0  0  0
   -1.8298    3.0932    0.0000 H   0  0  0  0  0  0  0  0  0  0  0  0
   -3.5198    0.6213    0.0000 H   0  0  0  0  0  0  0  0  0  0  0  0
   -2.2113   -0.1640    0.0000 H   0  0  0  0  0  0  0  0  0  0  0  0
    0.0000    3.7337    0.0000 H   0  0  0  0  0  0  0  0  0  0  0  0
   -3.2232    3.2232    0.0000 H   0  0  0  0  0  0  0  0  0  0  0  0
   -3.6407   -0.1578    0.0000 H   0  0  0  0  0  0  0  0  0  0  0  0
   -1.9423   -1.2135    0.0000 H   0  0  0  0  0  0  0  0  0  0  0  0
   -0.0000   -2.5607    0.0000 H   0  0  0  0  0  0  0  0  0  0  0  0
    2.1213    1.0607    0.0000 H   0  0  0  0  0  0  0  0  0  0  0  0
    2.1213   -1.0607    0.0000 H   0  0  0  0  0  0  0  0  0  0  0  0
    1.2135    1.9423    0.0000 H   0  0  0  0  0  0  0  0  0  0  0  0
  1  2  1  0
  2  3  1  0
  3  4  1  0
  4  5  2  0
  5  6  1  0
  6  7  1  0
  7  8  1  0
  8  9  1  0
  7  2  1  0
  9  3  1  0
  9  6  1  0
  1 10  1  0
  1 11  1  0
  1 12  1  0
  2 13  1  0
  3 14  1  0
  4 15  1  0
  5 16  1  0
  6 17  1  0
  7 18  1  0
  8 19  1  0
  8 20  1  0
  9 21  1  0
M  END
