
     RDKit          3D

 23 24  0  0  0  0  0  0  0  0999 V2000
   -1.5720   -1.0906    0.8416 C   0  0  0  0  0  0  0  0  0  0  0  0
   -1.0001   -0.3564   -0.3401 C   0  0  0  0  0  0  0  0  0  0  0  0
   -1.1733    1.1306   -0.1697 C   0  0  0  0  0  0  0  0  0  0  0  0
    0.0292    1.7007   -0.8976 C   0  0  0  0  0  0  0  0  0  0  0  0
    1.1321    0.7496   -0.5787 C   0  0  0  0  0  0  0  0  0  0  0  0
    1.4479    0.5471    0.8792 C   0  0  0  0  0  0  0  0  0  0  0  0
    1.2677   -0.9328    0.6714 C   0  0  0  0  0  0  0  0  0  0  0  0
    0.4532   -0.6108   -0.5645 C   0  0  0  0  0  0  0  0  0  0  0  0
    0.7300   -1.4179   -1.6472 O   0  0  0  0  0  0  0  0  0  0  0  0
   -1.2099   -2.1274    0.8936 H   0  0  0  0  0  0  0  0  0  0  0  0
   -2.6836   -1.1209    0.6922 H   0  0  0  0  0  0  0  0  0  0  0  0
   -1.4171   -0.5243    1.7944 H   0  0  0  0  0  0  0  0  0  0  0  0
   -1.5554   -0.6504   -1.2681 H   0  0  0  0  0  0  0  0  0  0  0  0
   -1.1078    1.4695    0.8713 H   0  0  0  0  0  0  0  0  0  0  0  0
   -2.1275    1.5069   -0.5769 H   0  0  0  0  0  0  0  0  0  0  0  0
    0.3005    2.7038   -0.5481 H   0  0  0  0  0  0  0  0  0  0  0  0
   -0.1904    1.6311   -1.9744 H   0  0  0  0  0  0  0  0  0  0  0  0
    2.0433    0.8067   -1.1884 H   0  0  0  0  0  0  0  0  0  0  0  0
    0.7264    0.9523    1.6017 H   0  0  0  0  0  0  0  0  0  0  0  0
    2.4696    0.8770    1.1607 H   0  0  0  0  0  0  0  0  0  0  0  0
    0.6566   -1.4662    1.3939 H   0  0  0  0  0  0  0  0  0  0  0  0
    2.2220   -1.4139    0.3597 H   0  0  0  0  0  0  0  0  0  0  0  0
    0.5587   -2.3638   -1.4060 H   0  0  0  0  0  0  0  0  0  0  0  0
  1  2  1  0
  2  3  1  0
  3  4  1  0
  4  5  1  0
  5  6  1  0
  6  7  1  0
  7  8  1  0
  8  9  1  0
  8  2  1  0
  8  5  1  0
  1 10  1  0
  1 11  1  0
  1 12  1  0
  2 13  1  0
  3 14  1  0
  3 15  1  0
  4 16  1  0
  4 17  1  0
  5 18  1  0
  6 19  1  0
  6 20  1  0
  7 21  1  0
  7 22  1  0
  9 23  1  0
M  END
