
     RDKit          3D

 21 22  0  0  0  0  0  0  0  0999 V2000
    2.0983   -1.2158    0.0271 C   0  0  0  0  0  0  0  0  0  0  0  0
    0.9655   -0.2850   -0.3087 C   0  0  0  0  0  0  0  0  0  0  0  0
   -0.3326   -1.0172    0.0187 C   0  0  0  0  0  0  0  0  0  0  0  0
   -1.4554   -0.0858   -0.3849 C   0  0  0  0  0  0  0  0  0  0  0  0
   -2.7097   -0.7016   -0.2340 O   0  0  0  0  0  0  0  0  0  0  0  0
   -1.4406    1.0715    0.5871 C   0  0  0  0  0  0  0  0  0  0  0  0
   -0.1167    1.7685    0.6359 C   0  0  0  0  0  0  0  0  0  0  0  0
    0.5404    2.1223   -0.5335 O   0  0  0  0  0  0  0  0  0  0  0  0
    1.0656    1.0452    0.3506 C   0  0  0  0  0  0  0  0  0  0  0  0
    2.9739   -0.9633   -0.5869 H   0  0  0  0  0  0  0  0  0  0  0  0
    1.7648   -2.2425   -0.2631 H   0  0  0  0  0  0  0  0  0  0  0  0
    2.3359   -1.1526    1.0955 H   0  0  0  0  0  0  0  0  0  0  0  0
    0.9637   -0.1847   -1.4298 H   0  0  0  0  0  0  0  0  0  0  0  0
   -0.3492   -1.1329    1.1189 H   0  0  0  0  0  0  0  0  0  0  0  0
   -0.3165   -1.9568   -0.5329 H   0  0  0  0  0  0  0  0  0  0  0  0
   -1.2873    0.2193   -1.4272 H   0  0  0  0  0  0  0  0  0  0  0  0
   -2.7318   -1.6169   -0.5541 H   0  0  0  0  0  0  0  0  0  0  0  0
   -2.2810    1.7755    0.3526 H   0  0  0  0  0  0  0  0  0  0  0  0
   -1.6344    0.6508    1.5976 H   0  0  0  0  0  0  0  0  0  0  0  0
   -0.0778    2.5736    1.4096 H   0  0  0  0  0  0  0  0  0  0  0  0
    2.0248    1.3284    0.8326 H   0  0  0  0  0  0  0  0  0  0  0  0
  1  2  1  0
  2  3  1  0
  3  4  1  0
  4  5  1  0
  4  6  1  0
  6  7  1  0
  7  8  1  0
  8  9  1  0
  9  2  1  0
  9  7  1  0
  1 10  1  0
  1 11  1  0
  1 12  1  0
  2 13  1  0
  3 14  1  0
  3 15  1  0
  4 16  1  0
  5 17  1  0
  6 18  1  0
  6 19  1  0
  7 20  1  0
  9 21  1  0
M  END
