
     RDKit          3D

 21 22  0  0  0  0  0  0  0  0999 V2000
    3.0280   -0.0737   -0.1693 C   0  0  0  0  0  0  0  0  0  0  0  0
    1.7722    0.6708    0.2781 C   0  0  0  0  0  0  0  0  0  0  0  0
    0.7996    0.0371    1.0574 C   0  0  0  0  0  0  0  0  0  0  0  0
   -0.5816    0.2150    1.4394 C   0  0  0  0  0  0  0  0  0  0  0  0
   -1.3221   -0.2464    0.4372 C   0  0  0  0  0  0  0  0  0  0  0  0
   -2.7935   -0.2974    0.3340 C   0  0  0  0  0  0  0  0  0  0  0  0
   -3.2684    0.4377   -0.7610 O   0  0  0  0  0  0  0  0  0  0  0  0
   -0.3565   -0.6881   -0.6519 C   0  0  0  0  0  0  0  0  0  0  0  0
    0.5955    0.4549   -0.4382 C   0  0  0  0  0  0  0  0  0  0  0  0
    3.9297    0.2694    0.3326 H   0  0  0  0  0  0  0  0  0  0  0  0
    3.1657   -0.0411   -1.2596 H   0  0  0  0  0  0  0  0  0  0  0  0
    2.8827   -1.1505    0.1391 H   0  0  0  0  0  0  0  0  0  0  0  0
    2.0702    1.7183    0.5853 H   0  0  0  0  0  0  0  0  0  0  0  0
    1.0435   -1.0673    1.2350 H   0  0  0  0  0  0  0  0  0  0  0  0
   -0.9104    0.6497    2.3809 H   0  0  0  0  0  0  0  0  0  0  0  0
   -3.3142    0.0733    1.2147 H   0  0  0  0  0  0  0  0  0  0  0  0
   -3.0922   -1.3548    0.1314 H   0  0  0  0  0  0  0  0  0  0  0  0
   -2.8737    1.3297   -0.8240 H   0  0  0  0  0  0  0  0  0  0  0  0
   -0.8279   -0.7015   -1.6301 H   0  0  0  0  0  0  0  0  0  0  0  0
    0.0717   -1.6315   -0.3051 H   0  0  0  0  0  0  0  0  0  0  0  0
   -0.0183    1.3966   -0.6153 H   0  0  0  0  0  0  0  0  0  0  0  0
  1  2  1  0
  2  3  1  0
  3  4  1  0
  4  5  2  0
  5  6  1  0
  6  7  1  0
  5  8  1  0
  8  9  1  0
  9  2  1  0
  9  3  1  0
  1 10  1  0
  1 11  1  0
  1 12  1  0
  2 13  1  0
  3 14  1  0
  4 15  1  0
  6 16  1  0
  6 17  1  0
  7 18  1  0
  8 19  1  0
  8 20  1  0
  9 21  1  0
M  END
