
     RDKit          3D

 21 23  0  0  0  0  0  0  0  0999 V2000
   -2.3991    0.1532   -0.2536 C   0  0  0  0  0  0  0  0  0  0  0  0
   -0.9451    0.0742   -0.5569 C   0  0  0  0  0  0  0  0  0  0  0  0
   -0.1318    1.3199   -0.3123 C   0  0  0  0  0  0  0  0  0  0  0  0
    1.3392    1.1107   -0.1897 C   0  0  0  0  0  0  0  0  0  0  0  0
    1.9639   -0.1823   -0.6464 C   0  0  0  0  0  0  0  0  0  0  0  0
    1.0708   -1.3004   -0.1789 C   0  0  0  0  0  0  0  0  0  0  0  0
   -0.0923   -0.6183    0.4946 C   0  0  0  0  0  0  0  0  0  0  0  0
   -0.7676   -1.3321    1.4432 O   0  0  0  0  0  0  0  0  0  0  0  0
    0.4355    0.7150    0.8903 C   0  0  0  0  0  0  0  0  0  0  0  0
   -2.9514   -0.5198   -0.9730 H   0  0  0  0  0  0  0  0  0  0  0  0
   -2.8416    1.1560   -0.3344 H   0  0  0  0  0  0  0  0  0  0  0  0
   -2.6552   -0.2836    0.7577 H   0  0  0  0  0  0  0  0  0  0  0  0
   -0.7523   -0.2798   -1.6022 H   0  0  0  0  0  0  0  0  0  0  0  0
   -0.5612    2.3108   -0.3898 H   0  0  0  0  0  0  0  0  0  0  0  0
    2.0340    1.9353    0.0095 H   0  0  0  0  0  0  0  0  0  0  0  0
    2.2014   -0.2123   -1.7141 H   0  0  0  0  0  0  0  0  0  0  0  0
    2.9350   -0.2741   -0.0894 H   0  0  0  0  0  0  0  0  0  0  0  0
    1.5663   -2.0346    0.4624 H   0  0  0  0  0  0  0  0  0  0  0  0
    0.6298   -1.8758   -1.0449 H   0  0  0  0  0  0  0  0  0  0  0  0
   -0.4891   -0.9716    2.3405 H   0  0  0  0  0  0  0  0  0  0  0  0
    0.4109    1.1094    1.8875 H   0  0  0  0  0  0  0  0  0  0  0  0
  1  2  1  0
  2  3  1  0
  3  4  1  0
  4  5  1  0
  5  6  1  0
  6  7  1  0
  7  8  1  0
  7  9  1  0
  7  2  1  0
  9  3  1  0
  9  4  1  0
  1 10  1  0
  1 11  1  0
  1 12  1  0
  2 13  1  0
  3 14  1  0
  4 15  1  0
  5 16  1  0
  5 17  1  0
  6 18  1  0
  6 19  1  0
  8 20  1  0
  9 21  1  0
M  END
