
     RDKit          3D

 19 20  0  0  0  0  0  0  0  0999 V2000
    2.1529   -0.7627    0.7458 C   0  0  0  0  0  0  0  0  0  0  0  0
    0.8139   -0.2229    0.3826 C   0  0  0  0  0  0  0  0  0  0  0  0
   -0.1972   -1.2484   -0.0910 C   0  0  0  0  0  0  0  0  0  0  0  0
   -1.5926   -0.8692    0.3534 C   0  0  0  0  0  0  0  0  0  0  0  0
   -2.1419    0.3497    0.2175 C   0  0  0  0  0  0  0  0  0  0  0  0
   -1.5217    1.5314   -0.3935 C   0  0  0  0  0  0  0  0  0  0  0  0
   -0.2678    1.6018   -0.8836 C   0  0  0  0  0  0  0  0  0  0  0  0
    0.7014    0.4452   -0.9624 C   0  0  0  0  0  0  0  0  0  0  0  0
    0.0185   -0.7215   -1.3858 O   0  0  0  0  0  0  0  0  0  0  0  0
    2.5098   -1.4131   -0.0591 H   0  0  0  0  0  0  0  0  0  0  0  0
    2.8312    0.0860    0.9374 H   0  0  0  0  0  0  0  0  0  0  0  0
    2.0589   -1.3272    1.6883 H   0  0  0  0  0  0  0  0  0  0  0  0
    0.3396    0.3932    1.1867 H   0  0  0  0  0  0  0  0  0  0  0  0
    0.0395   -2.2907    0.0499 H   0  0  0  0  0  0  0  0  0  0  0  0
   -2.1834   -1.6381    0.8117 H   0  0  0  0  0  0  0  0  0  0  0  0
   -3.1404    0.4310    0.6084 H   0  0  0  0  0  0  0  0  0  0  0  0
   -2.1222    2.4384   -0.4610 H   0  0  0  0  0  0  0  0  0  0  0  0
    0.0904    2.5338   -1.2496 H   0  0  0  0  0  0  0  0  0  0  0  0
    1.6111    0.6831   -1.4956 H   0  0  0  0  0  0  0  0  0  0  0  0
  1  2  1  0
  2  3  1  0
  3  4  1  0
  4  5  2  0
  5  6  1  0
  6  7  2  0
  7  8  1  0
  8  9  1  0
  8  2  1  0
  9  3  1  0
  1 10  1  0
  1 11  1  0
  1 12  1  0
  2 13  1  0
  3 14  1  0
  4 15  1  0
  5 16  1  0
  6 17  1  0
  7 18  1  0
  8 19  1  0
M  END
