
     RDKit          3D

 19 19  0  0  0  0  0  0  0  0999 V2000
   -1.5684    1.4574    0.6680 C   0  0  0  0  0  0  0  0  0  0  0  0
   -1.0436    0.2512   -0.0792 C   0  0  0  0  0  0  0  0  0  0  0  0
    0.1891    0.6267   -0.8659 C   0  0  0  0  0  0  0  0  0  0  0  0
    1.0070    0.2284    0.3553 C   0  0  0  0  0  0  0  0  0  0  0  0
    2.2621   -0.4402    0.0170 C   0  0  0  0  0  0  0  0  0  0  0  0
    2.9298   -0.9411    0.8897 O   0  0  0  0  0  0  0  0  0  0  0  0
   -0.1380   -0.6269    0.7931 C   0  0  0  0  0  0  0  0  0  0  0  0
   -0.1603   -2.0048    0.2606 C   0  0  0  0  0  0  0  0  0  0  0  0
   -1.1713   -2.6688    0.4547 O   0  0  0  0  0  0  0  0  0  0  0  0
   -0.8621    1.7981    1.4568 H   0  0  0  0  0  0  0  0  0  0  0  0
   -1.7907    2.2868   -0.0352 H   0  0  0  0  0  0  0  0  0  0  0  0
   -2.4902    1.1320    1.1900 H   0  0  0  0  0  0  0  0  0  0  0  0
   -1.8274   -0.2822   -0.6120 H   0  0  0  0  0  0  0  0  0  0  0  0
    0.4212   -0.0384   -1.7186 H   0  0  0  0  0  0  0  0  0  0  0  0
    0.3186    1.6848   -1.1021 H   0  0  0  0  0  0  0  0  0  0  0  0
    1.1031    1.1051    1.0534 H   0  0  0  0  0  0  0  0  0  0  0  0
    2.5870   -0.4845   -1.0039 H   0  0  0  0  0  0  0  0  0  0  0  0
   -0.3986   -0.6041    1.8557 H   0  0  0  0  0  0  0  0  0  0  0  0
    0.6327   -2.4795   -0.2838 H   0  0  0  0  0  0  0  0  0  0  0  0
  1  2  1  0
  2  3  1  0
  3  4  1  0
  4  5  1  0
  5  6  2  0
  4  7  1  0
  7  8  1  0
  8  9  2  0
  7  2  1  0
  1 10  1  0
  1 11  1  0
  1 12  1  0
  2 13  1  0
  3 14  1  0
  3 15  1  0
  4 16  1  0
  5 17  1  0
  7 18  1  0
  8 19  1  0
M  END
