
     RDKit          3D

 19 19  0  0  0  0  0  0  0  0999 V2000
   -2.4694    0.1913    0.0665 C   0  0  0  0  0  0  0  0  0  0  0  0
   -1.0045    0.1006    0.3871 C   0  0  0  0  0  0  0  0  0  0  0  0
   -0.3556    1.4092    0.0322 C   0  0  0  0  0  0  0  0  0  0  0  0
    0.9465    1.5875   -0.1064 C   0  0  0  0  0  0  0  0  0  0  0  0
    2.0305    0.6281    0.0381 C   0  0  0  0  0  0  0  0  0  0  0  0
    2.0746   -0.6855    0.0470 C   0  0  0  0  0  0  0  0  0  0  0  0
    0.9464   -1.6394   -0.0987 C   0  0  0  0  0  0  0  0  0  0  0  0
   -0.3455   -0.9962   -0.3416 C   0  0  0  0  0  0  0  0  0  0  0  0
   -0.9699   -1.4235   -1.2776 O   0  0  0  0  0  0  0  0  0  0  0  0
   -2.7466   -0.2587   -0.8973 H   0  0  0  0  0  0  0  0  0  0  0  0
   -3.0073   -0.3885    0.8690 H   0  0  0  0  0  0  0  0  0  0  0  0
   -2.7904    1.2516    0.0561 H   0  0  0  0  0  0  0  0  0  0  0  0
   -0.8306   -0.0131    1.4952 H   0  0  0  0  0  0  0  0  0  0  0  0
   -0.9894    2.2577   -0.1196 H   0  0  0  0  0  0  0  0  0  0  0  0
    1.2490    2.6174   -0.3705 H   0  0  0  0  0  0  0  0  0  0  0  0
    3.0241    1.0867    0.1673 H   0  0  0  0  0  0  0  0  0  0  0  0
    3.0650   -1.1513    0.1784 H   0  0  0  0  0  0  0  0  0  0  0  0
    1.2261   -2.3175   -0.9525 H   0  0  0  0  0  0  0  0  0  0  0  0
    0.9471   -2.2564    0.8276 H   0  0  0  0  0  0  0  0  0  0  0  0
  1  2  1  0
  2  3  1  0
  3  4  2  0
  4  5  1  0
  5  6  2  0
  6  7  1  0
  7  8  1  0
  8  9  2  0
  8  2  1  0
  1 10  1  0
  1 11  1  0
  1 12  1  0
  2 13  1  0
  3 14  1  0
  4 15  1  0
  5 16  1  0
  6 17  1  0
  7 18  1  0
  7 19  1  0
M  END
