
     RDKit          3D

 21 22  0  0  0  0  0  0  0  0999 V2000
   -0.7302    1.8439   -0.5973 C   0  0  0  0  0  0  0  0  0  0  0  0
   -0.3976    0.8196    0.4682 C   0  0  0  0  0  0  0  0  0  0  0  0
   -1.7105    0.1850    0.8579 C   0  0  0  0  0  0  0  0  0  0  0  0
   -1.8651   -0.9602    0.2008 C   0  0  0  0  0  0  0  0  0  0  0  0
   -0.6823   -1.2028   -0.6852 C   0  0  0  0  0  0  0  0  0  0  0  0
    0.3632   -0.3400   -0.0317 C   0  0  0  0  0  0  0  0  0  0  0  0
    1.3053   -0.9766    0.9833 C   0  0  0  0  0  0  0  0  0  0  0  0
    1.7718   -0.4103   -0.3130 C   0  0  0  0  0  0  0  0  0  0  0  0
    2.6195    0.6829   -0.2974 O   0  0  0  0  0  0  0  0  0  0  0  0
   -0.0224    2.6847   -0.6254 H   0  0  0  0  0  0  0  0  0  0  0  0
   -0.8410    1.3198   -1.5547 H   0  0  0  0  0  0  0  0  0  0  0  0
   -1.7252    2.2767   -0.3500 H   0  0  0  0  0  0  0  0  0  0  0  0
    0.0522    1.3359    1.3214 H   0  0  0  0  0  0  0  0  0  0  0  0
   -2.4213    0.5881    1.5594 H   0  0  0  0  0  0  0  0  0  0  0  0
   -2.7025   -1.6470    0.2641 H   0  0  0  0  0  0  0  0  0  0  0  0
   -0.3749   -2.2468   -0.7171 H   0  0  0  0  0  0  0  0  0  0  0  0
   -0.8751   -0.7701   -1.6931 H   0  0  0  0  0  0  0  0  0  0  0  0
    1.5098   -0.4238    1.9230 H   0  0  0  0  0  0  0  0  0  0  0  0
    1.1423   -2.0733    1.1055 H   0  0  0  0  0  0  0  0  0  0  0  0
    2.1081   -1.2008   -1.0476 H   0  0  0  0  0  0  0  0  0  0  0  0
    3.4760    0.5149   -0.7710 H   0  0  0  0  0  0  0  0  0  0  0  0
  1  2  1  0
  2  3  1  0
  3  4  2  0
  4  5  1  0
  5  6  1  0
  6  7  1  0
  7  8  1  0
  8  9  1  0
  6  2  1  0
  8  6  1  0
  1 10  1  0
  1 11  1  0
  1 12  1  0
  2 13  1  0
  3 14  1  0
  4 15  1  0
  5 16  1  0
  5 17  1  0
  7 18  1  0
  7 19  1  0
  8 20  1  0
  9 21  1  0
M  END
