
     RDKit          3D

 19 21  0  0  0  0  0  0  0  0999 V2000
    1.8243    0.3077   -0.1784 C   0  0  0  0  0  0  0  0  0  0  0  0
    0.5584   -0.1805   -0.7713 C   0  0  0  0  0  0  0  0  0  0  0  0
    0.2266   -1.6049   -0.5006 C   0  0  0  0  0  0  0  0  0  0  0  0
    0.3736   -2.3923    0.5270 O   0  0  0  0  0  0  0  0  0  0  0  0
   -0.2654   -1.3477    0.9626 C   0  0  0  0  0  0  0  0  0  0  0  0
   -1.4541   -0.5781    0.4942 C   0  0  0  0  0  0  0  0  0  0  0  0
   -0.6790    0.5252   -0.2584 C   0  0  0  0  0  0  0  0  0  0  0  0
   -0.7730    1.8316    0.2055 C   0  0  0  0  0  0  0  0  0  0  0  0
   -1.3591    1.4223   -1.0155 O   0  0  0  0  0  0  0  0  0  0  0  0
    2.5227    0.7221   -0.9643 H   0  0  0  0  0  0  0  0  0  0  0  0
    2.4021   -0.5494    0.2651 H   0  0  0  0  0  0  0  0  0  0  0  0
    1.7261    1.0834    0.5833 H   0  0  0  0  0  0  0  0  0  0  0  0
    0.5917   -0.0069   -1.8716 H   0  0  0  0  0  0  0  0  0  0  0  0
   -0.5672   -1.9713   -1.2211 H   0  0  0  0  0  0  0  0  0  0  0  0
    0.3976   -0.6536    1.5709 H   0  0  0  0  0  0  0  0  0  0  0  0
   -2.0302   -0.1626    1.3196 H   0  0  0  0  0  0  0  0  0  0  0  0
   -2.0397   -1.1164   -0.2676 H   0  0  0  0  0  0  0  0  0  0  0  0
   -1.5245    2.1242    0.9696 H   0  0  0  0  0  0  0  0  0  0  0  0
    0.0693    2.5471    0.1511 H   0  0  0  0  0  0  0  0  0  0  0  0
  1  2  1  0
  2  3  1  0
  3  4  1  0
  4  5  1  0
  5  6  1  0
  6  7  1  0
  7  8  1  0
  8  9  1  0
  7  2  1  0
  5  3  1  0
  9  7  1  0
  1 10  1  0
  1 11  1  0
  1 12  1  0
  2 13  1  0
  3 14  1  0
  5 15  1  0
  6 16  1  0
  6 17  1  0
  8 18  1  0
  8 19  1  0
M  END
