
     RDKit          3D

 21 22  0  0  0  0  0  0  0  0999 V2000
   -0.7538    1.8368    0.1460 C   0  0  0  0  0  0  0  0  0  0  0  0
   -0.1208    0.6723   -0.5172 C   0  0  0  0  0  0  0  0  0  0  0  0
    1.3758    0.5730   -0.2808 C   0  0  0  0  0  0  0  0  0  0  0  0
    1.6847    0.7146    1.0609 O   0  0  0  0  0  0  0  0  0  0  0  0
    1.6145   -0.8732   -0.7393 C   0  0  0  0  0  0  0  0  0  0  0  0
    0.4289   -1.5653   -0.0743 C   0  0  0  0  0  0  0  0  0  0  0  0
    0.2278   -1.0764    1.2448 O   0  0  0  0  0  0  0  0  0  0  0  0
   -0.5775   -0.6668    0.0685 C   0  0  0  0  0  0  0  0  0  0  0  0
   -2.0231   -0.8026    0.3783 C   0  0  0  0  0  0  0  0  0  0  0  0
   -0.1422    2.7403    0.2103 H   0  0  0  0  0  0  0  0  0  0  0  0
   -1.1438    1.6124    1.1810 H   0  0  0  0  0  0  0  0  0  0  0  0
   -1.6867    2.0918   -0.4373 H   0  0  0  0  0  0  0  0  0  0  0  0
   -0.2874    0.6705   -1.6073 H   0  0  0  0  0  0  0  0  0  0  0  0
    1.9295    1.2349   -0.9482 H   0  0  0  0  0  0  0  0  0  0  0  0
    2.3578    0.0440    1.3681 H   0  0  0  0  0  0  0  0  0  0  0  0
    1.4371   -0.9124   -1.8234 H   0  0  0  0  0  0  0  0  0  0  0  0
    2.5768   -1.2576   -0.4059 H   0  0  0  0  0  0  0  0  0  0  0  0
    0.3239   -2.6439   -0.2488 H   0  0  0  0  0  0  0  0  0  0  0  0
   -2.1844   -0.3981    1.4176 H   0  0  0  0  0  0  0  0  0  0  0  0
   -2.3759   -1.8444    0.2788 H   0  0  0  0  0  0  0  0  0  0  0  0
   -2.6612   -0.1498   -0.2717 H   0  0  0  0  0  0  0  0  0  0  0  0
  1  2  1  0
  2  3  1  0
  3  4  1  0
  3  5  1  0
  5  6  1  0
  6  7  1  0
  7  8  1  0
  8  9  1  0
  8  2  1  0
  8  6  1  0
  1 10  1  0
  1 11  1  0
  1 12  1  0
  2 13  1  0
  3 14  1  0
  4 15  1  0
  5 16  1  0
  5 17  1  0
  6 18  1  0
  9 19  1  0
  9 20  1  0
  9 21  1  0
M  END
