
     RDKit          3D

 19 19  0  0  0  0  0  0  0  0999 V2000
   -1.9061   -1.1470   -0.2194 C   0  0  0  0  0  0  0  0  0  0  0  0
   -0.5447   -0.4611   -0.0916 C   0  0  0  0  0  0  0  0  0  0  0  0
   -0.8274    1.0181   -0.2744 C   0  0  0  0  0  0  0  0  0  0  0  0
    0.3817    1.8742   -0.1283 C   0  0  0  0  0  0  0  0  0  0  0  0
    1.5277    1.1549   -0.5301 O   0  0  0  0  0  0  0  0  0  0  0  0
    2.0216   -0.0497   -0.0496 C   0  0  0  0  0  0  0  0  0  0  0  0
    3.1405   -0.3983   -0.5068 O   0  0  0  0  0  0  0  0  0  0  0  0
    1.4118   -0.9754    0.9239 C   0  0  0  0  0  0  0  0  0  0  0  0
    0.0602   -0.7519    1.1093 O   0  0  0  0  0  0  0  0  0  0  0  0
   -2.3589   -0.7563   -1.1547 H   0  0  0  0  0  0  0  0  0  0  0  0
   -1.8174   -2.2296   -0.3201 H   0  0  0  0  0  0  0  0  0  0  0  0
   -2.5710   -0.8249    0.6122 H   0  0  0  0  0  0  0  0  0  0  0  0
    0.0943   -0.8526   -0.9053 H   0  0  0  0  0  0  0  0  0  0  0  0
   -1.6724    1.3027    0.3939 H   0  0  0  0  0  0  0  0  0  0  0  0
   -1.2400    1.1221   -1.3151 H   0  0  0  0  0  0  0  0  0  0  0  0
    0.5225    2.2208    0.9094 H   0  0  0  0  0  0  0  0  0  0  0  0
    0.2905    2.7757   -0.7943 H   0  0  0  0  0  0  0  0  0  0  0  0
    1.9848   -1.0158    1.8650 H   0  0  0  0  0  0  0  0  0  0  0  0
    1.5024   -2.0056    0.4762 H   0  0  0  0  0  0  0  0  0  0  0  0
  1  2  1  0
  2  3  1  0
  3  4  1  0
  4  5  1  0
  5  6  1  0
  6  7  2  0
  6  8  1  0
  8  9  1  0
  9  2  1  0
  1 10  1  0
  1 11  1  0
  1 12  1  0
  2 13  1  0
  3 14  1  0
  3 15  1  0
  4 16  1  0
  4 17  1  0
  8 18  1  0
  8 19  1  0
M  END
