
     RDKit          3D

 21 22  0  0  0  0  0  0  0  0999 V2000
    2.8708    0.1414    0.0313 C   0  0  0  0  0  0  0  0  0  0  0  0
    1.5064   -0.4328    0.2724 C   0  0  0  0  0  0  0  0  0  0  0  0
    0.7658   -1.1456   -0.8131 C   0  0  0  0  0  0  0  0  0  0  0  0
    0.3448    0.2205   -0.5289 C   0  0  0  0  0  0  0  0  0  0  0  0
   -0.8121    0.5920    0.3268 C   0  0  0  0  0  0  0  0  0  0  0  0
   -0.4800    1.5189    1.3404 O   0  0  0  0  0  0  0  0  0  0  0  0
   -1.6975   -0.5330    0.8209 C   0  0  0  0  0  0  0  0  0  0  0  0
   -2.2108    0.5367   -0.1381 C   0  0  0  0  0  0  0  0  0  0  0  0
   -2.5067    0.0663   -1.4001 O   0  0  0  0  0  0  0  0  0  0  0  0
    3.0380    1.0812    0.6337 H   0  0  0  0  0  0  0  0  0  0  0  0
    3.6109   -0.5968    0.4310 H   0  0  0  0  0  0  0  0  0  0  0  0
    2.9873    0.3374   -1.0401 H   0  0  0  0  0  0  0  0  0  0  0  0
    1.2969   -0.7729    1.2839 H   0  0  0  0  0  0  0  0  0  0  0  0
    0.1524   -2.0369   -0.5840 H   0  0  0  0  0  0  0  0  0  0  0  0
    1.3786   -1.2849   -1.7462 H   0  0  0  0  0  0  0  0  0  0  0  0
    0.6714    1.0428   -1.2256 H   0  0  0  0  0  0  0  0  0  0  0  0
   -0.9417    2.3790    1.2024 H   0  0  0  0  0  0  0  0  0  0  0  0
   -2.1308   -0.4558    1.8520 H   0  0  0  0  0  0  0  0  0  0  0  0
   -1.5490   -1.5514    0.4301 H   0  0  0  0  0  0  0  0  0  0  0  0
   -2.9053    1.3082    0.2705 H   0  0  0  0  0  0  0  0  0  0  0  0
   -3.3896   -0.4143   -1.3321 H   0  0  0  0  0  0  0  0  0  0  0  0
  1  2  1  0
  2  3  1  0
  3  4  1  0
  4  5  1  0
  5  6  1  0
  5  7  1  0
  7  8  1  0
  8  9  1  0
  4  2  1  0
  8  5  1  0
  1 10  1  0
  1 11  1  0
  1 12  1  0
  2 13  1  0
  3 14  1  0
  3 15  1  0
  4 16  1  0
  6 17  1  0
  7 18  1  0
  7 19  1  0
  8 20  1  0
  9 21  1  0
M  END
