
     RDKit          3D

 19 20  0  0  0  0  0  0  0  0999 V2000
    2.2922    0.5906   -0.4279 C   0  0  0  0  0  0  0  0  0  0  0  0
    1.2379   -0.4505   -0.0335 C   0  0  0  0  0  0  0  0  0  0  0  0
    0.1707   -0.0028    0.7828 C   0  0  0  0  0  0  0  0  0  0  0  0
   -0.5684    1.2705    0.8514 C   0  0  0  0  0  0  0  0  0  0  0  0
   -1.9037    0.9192    0.4198 O   0  0  0  0  0  0  0  0  0  0  0  0
   -2.2140   -0.4140    0.0919 C   0  0  0  0  0  0  0  0  0  0  0  0
   -3.3126   -0.9506    0.3846 O   0  0  0  0  0  0  0  0  0  0  0  0
   -1.2090   -1.2774   -0.6465 C   0  0  0  0  0  0  0  0  0  0  0  0
    0.0027   -0.4315   -0.7142 C   0  0  0  0  0  0  0  0  0  0  0  0
    1.8151    1.5666   -0.6476 H   0  0  0  0  0  0  0  0  0  0  0  0
    2.9128    0.7273    0.5007 H   0  0  0  0  0  0  0  0  0  0  0  0
    2.9240    0.2574   -1.2474 H   0  0  0  0  0  0  0  0  0  0  0  0
    1.7288   -1.4170    0.1936 H   0  0  0  0  0  0  0  0  0  0  0  0
   -0.1994   -0.7248    1.5624 H   0  0  0  0  0  0  0  0  0  0  0  0
   -0.1581    1.9949    0.1149 H   0  0  0  0  0  0  0  0  0  0  0  0
   -0.6933    1.6826    1.8594 H   0  0  0  0  0  0  0  0  0  0  0  0
   -1.6290   -1.5948   -1.6052 H   0  0  0  0  0  0  0  0  0  0  0  0
   -1.0409   -2.1491    0.0207 H   0  0  0  0  0  0  0  0  0  0  0  0
   -0.1559    0.4033   -1.4599 H   0  0  0  0  0  0  0  0  0  0  0  0
  1  2  1  0
  2  3  1  0
  3  4  1  0
  4  5  1  0
  5  6  1  0
  6  7  2  0
  6  8  1  0
  8  9  1  0
  9  2  1  0
  9  3  1  0
  1 10  1  0
  1 11  1  0
  1 12  1  0
  2 13  1  0
  3 14  1  0
  4 15  1  0
  4 16  1  0
  8 17  1  0
  8 18  1  0
  9 19  1  0
M  END
