
     RDKit          3D

 21 22  0  0  0  0  0  0  0  0999 V2000
    0.5533    1.6214    1.0349 C   0  0  0  0  0  0  0  0  0  0  0  0
    0.3171    0.8562   -0.2254 C   0  0  0  0  0  0  0  0  0  0  0  0
   -0.7690   -0.2005   -0.1510 C   0  0  0  0  0  0  0  0  0  0  0  0
   -2.1245    0.1305   -0.4833 C   0  0  0  0  0  0  0  0  0  0  0  0
   -0.4171   -0.9060    1.0894 C   0  0  0  0  0  0  0  0  0  0  0  0
    0.9285   -1.0523    0.9805 C   0  0  0  0  0  0  0  0  0  0  0  0
    1.2135   -0.3851   -0.3201 C   0  0  0  0  0  0  0  0  0  0  0  0
    2.4254   -0.2862   -0.7996 O   0  0  0  0  0  0  0  0  0  0  0  0
    0.0841   -0.9637   -1.1722 C   0  0  0  0  0  0  0  0  0  0  0  0
   -0.1697    2.4612    1.0699 H   0  0  0  0  0  0  0  0  0  0  0  0
    0.4034    0.9807    1.9449 H   0  0  0  0  0  0  0  0  0  0  0  0
    1.5795    2.0417    1.0030 H   0  0  0  0  0  0  0  0  0  0  0  0
    0.3233    1.4851   -1.1094 H   0  0  0  0  0  0  0  0  0  0  0  0
   -2.1728    1.0559   -1.0955 H   0  0  0  0  0  0  0  0  0  0  0  0
   -2.6043   -0.6628   -1.0967 H   0  0  0  0  0  0  0  0  0  0  0  0
   -2.7486    0.2364    0.4236 H   0  0  0  0  0  0  0  0  0  0  0  0
   -1.0737   -1.2245    1.8838 H   0  0  0  0  0  0  0  0  0  0  0  0
    1.6139   -1.5266    1.6566 H   0  0  0  0  0  0  0  0  0  0  0  0
    2.6626   -1.0331   -1.4020 H   0  0  0  0  0  0  0  0  0  0  0  0
    0.0364   -0.5746   -2.1930 H   0  0  0  0  0  0  0  0  0  0  0  0
   -0.0612   -2.0538   -1.0384 H   0  0  0  0  0  0  0  0  0  0  0  0
  1  2  1  0
  2  3  1  0
  3  4  1  0
  3  5  1  0
  5  6  2  0
  6  7  1  0
  7  8  1  0
  7  9  1  0
  7  2  1  0
  9  3  1  0
  1 10  1  0
  1 11  1  0
  1 12  1  0
  2 13  1  0
  4 14  1  0
  4 15  1  0
  4 16  1  0
  5 17  1  0
  6 18  1  0
  8 19  1  0
  9 20  1  0
  9 21  1  0
M  END
