
     RDKit          3D

 21 22  0  0  0  0  0  0  0  0999 V2000
    2.6188    0.4844   -0.5386 C   0  0  0  0  0  0  0  0  0  0  0  0
    1.7273    0.2560    0.6212 C   0  0  0  0  0  0  0  0  0  0  0  0
    0.8677   -1.0140    0.4626 C   0  0  0  0  0  0  0  0  0  0  0  0
   -0.3561   -0.4932    1.1028 C   0  0  0  0  0  0  0  0  0  0  0  0
   -1.5003    0.1996    0.6486 C   0  0  0  0  0  0  0  0  0  0  0  0
   -2.4208   -0.4814   -0.3635 C   0  0  0  0  0  0  0  0  0  0  0  0
   -3.4528    0.4118   -0.6365 O   0  0  0  0  0  0  0  0  0  0  0  0
   -0.3124    0.8226    0.2186 C   0  0  0  0  0  0  0  0  0  0  0  0
    0.8004    1.3122    0.8158 O   0  0  0  0  0  0  0  0  0  0  0  0
    3.0511   -0.4904   -0.8498 H   0  0  0  0  0  0  0  0  0  0  0  0
    2.0871    0.9306   -1.3971 H   0  0  0  0  0  0  0  0  0  0  0  0
    3.4858    1.1054   -0.2108 H   0  0  0  0  0  0  0  0  0  0  0  0
    2.2711    0.1681    1.5743 H   0  0  0  0  0  0  0  0  0  0  0  0
    1.3086   -1.8708    0.9635 H   0  0  0  0  0  0  0  0  0  0  0  0
    0.7703   -1.1499   -0.6484 H   0  0  0  0  0  0  0  0  0  0  0  0
   -0.1108   -0.3238    2.2025 H   0  0  0  0  0  0  0  0  0  0  0  0
   -2.1345    0.7552    1.4024 H   0  0  0  0  0  0  0  0  0  0  0  0
   -1.9099   -0.7306   -1.2945 H   0  0  0  0  0  0  0  0  0  0  0  0
   -2.8947   -1.3780    0.1117 H   0  0  0  0  0  0  0  0  0  0  0  0
   -3.8114    0.8260    0.1994 H   0  0  0  0  0  0  0  0  0  0  0  0
   -0.0845    0.6603   -0.8810 H   0  0  0  0  0  0  0  0  0  0  0  0
  1  2  1  0
  2  3  1  0
  3  4  1  0
  4  5  1  0
  5  6  1  0
  6  7  1  0
  5  8  1  0
  8  9  1  0
  9  2  1  0
  8  4  1  0
  1 10  1  0
  1 11  1  0
  1 12  1  0
  2 13  1  0
  3 14  1  0
  3 15  1  0
  4 16  1  0
  5 17  1  0
  6 18  1  0
  6 19  1  0
  7 20  1  0
  8 21  1  0
M  END
