
     RDKit          3D

 23 24  0  0  0  0  0  0  0  0999 V2000
    2.3086    0.4042    0.4111 C   0  0  0  0  0  0  0  0  0  0  0  0
    1.1427    0.0038   -0.4255 C   0  0  0  0  0  0  0  0  0  0  0  0
    0.5254   -1.2968   -0.0434 C   0  0  0  0  0  0  0  0  0  0  0  0
   -1.0022   -1.2046    0.0466 C   0  0  0  0  0  0  0  0  0  0  0  0
   -1.4778   -0.5832   -1.2476 C   0  0  0  0  0  0  0  0  0  0  0  0
   -0.9162    0.5991   -1.5259 C   0  0  0  0  0  0  0  0  0  0  0  0
    0.0628    1.0640   -0.4786 C   0  0  0  0  0  0  0  0  0  0  0  0
   -0.7316    1.0949    0.8245 C   0  0  0  0  0  0  0  0  0  0  0  0
   -1.3619   -0.2290    1.1354 C   0  0  0  0  0  0  0  0  0  0  0  0
    3.0963   -0.3562    0.3005 H   0  0  0  0  0  0  0  0  0  0  0  0
    2.6749    1.3868    0.0353 H   0  0  0  0  0  0  0  0  0  0  0  0
    2.0773    0.4910    1.4810 H   0  0  0  0  0  0  0  0  0  0  0  0
    1.5163   -0.1034   -1.4829 H   0  0  0  0  0  0  0  0  0  0  0  0
    0.7264   -2.1078   -0.7994 H   0  0  0  0  0  0  0  0  0  0  0  0
    0.9280   -1.6568    0.9272 H   0  0  0  0  0  0  0  0  0  0  0  0
   -1.4305   -2.1991    0.1690 H   0  0  0  0  0  0  0  0  0  0  0  0
   -2.2008   -1.0682   -1.8669 H   0  0  0  0  0  0  0  0  0  0  0  0
   -1.1249    1.1815   -2.4038 H   0  0  0  0  0  0  0  0  0  0  0  0
    0.4500    2.0601   -0.6822 H   0  0  0  0  0  0  0  0  0  0  0  0
   -1.5555    1.8367    0.6426 H   0  0  0  0  0  0  0  0  0  0  0  0
   -0.1401    1.4608    1.6705 H   0  0  0  0  0  0  0  0  0  0  0  0
   -1.0771   -0.6065    2.1450 H   0  0  0  0  0  0  0  0  0  0  0  0
   -2.4900   -0.1713    1.1678 H   0  0  0  0  0  0  0  0  0  0  0  0
  1  2  1  0
  2  3  1  0
  3  4  1  0
  4  5  1  0
  5  6  2  0
  6  7  1  0
  7  8  1  0
  8  9  1  0
  7  2  1  0
  9  4  1  0
  1 10  1  0
  1 11  1  0
  1 12  1  0
  2 13  1  0
  3 14  1  0
  3 15  1  0
  4 16  1  0
  5 17  1  0
  6 18  1  0
  7 19  1  0
  8 20  1  0
  8 21  1  0
  9 22  1  0
  9 23  1  0
M  END
