
     RDKit          3D

 21 23  0  0  0  0  0  0  0  0999 V2000
    2.1368   -1.0559   -0.1156 C   0  0  0  0  0  0  0  0  0  0  0  0
    1.3681    0.1800    0.1871 C   0  0  0  0  0  0  0  0  0  0  0  0
   -0.0078    0.0053    0.7037 C   0  0  0  0  0  0  0  0  0  0  0  0
   -0.8561   -1.1697    0.3625 C   0  0  0  0  0  0  0  0  0  0  0  0
   -1.4175   -0.8092   -0.9988 C   0  0  0  0  0  0  0  0  0  0  0  0
   -0.3619   -0.1433   -1.5936 O   0  0  0  0  0  0  0  0  0  0  0  0
    0.2361    0.6521   -0.6359 C   0  0  0  0  0  0  0  0  0  0  0  0
   -0.4567    1.8987   -0.1428 C   0  0  0  0  0  0  0  0  0  0  0  0
   -0.6852    1.2402    1.2125 C   0  0  0  0  0  0  0  0  0  0  0  0
    2.2897   -1.2480   -1.2019 H   0  0  0  0  0  0  0  0  0  0  0  0
    1.7174   -1.9833    0.3150 H   0  0  0  0  0  0  0  0  0  0  0  0
    3.1815   -0.9848    0.3066 H   0  0  0  0  0  0  0  0  0  0  0  0
    1.9437    1.0005    0.6990 H   0  0  0  0  0  0  0  0  0  0  0  0
   -0.3177   -2.1105    0.2550 H   0  0  0  0  0  0  0  0  0  0  0  0
   -1.6975   -1.2487    1.0905 H   0  0  0  0  0  0  0  0  0  0  0  0
   -1.6611   -1.7295   -1.5543 H   0  0  0  0  0  0  0  0  0  0  0  0
   -2.3355   -0.2026   -0.9377 H   0  0  0  0  0  0  0  0  0  0  0  0
   -1.4196    2.1395   -0.5976 H   0  0  0  0  0  0  0  0  0  0  0  0
    0.2796    2.7319   -0.0645 H   0  0  0  0  0  0  0  0  0  0  0  0
   -1.7497    1.0537    1.4607 H   0  0  0  0  0  0  0  0  0  0  0  0
   -0.1865    1.7834    2.0299 H   0  0  0  0  0  0  0  0  0  0  0  0
  1  2  1  0
  2  3  1  0
  3  4  1  0
  4  5  1  0
  5  6  1  0
  6  7  1  0
  7  8  1  0
  8  9  1  0
  7  2  1  0
  7  3  1  0
  9  3  1  0
  1 10  1  0
  1 11  1  0
  1 12  1  0
  2 13  1  0
  4 14  1  0
  4 15  1  0
  5 16  1  0
  5 17  1  0
  8 18  1  0
  8 19  1  0
  9 20  1  0
  9 21  1  0
M  END
