
     RDKit          3D

 21 22  0  0  0  0  0  0  0  0999 V2000
    2.0806   -0.0356   -0.1924 C   0  0  0  0  0  0  0  0  0  0  0  0
    0.7485   -0.6743   -0.1132 C   0  0  0  0  0  0  0  0  0  0  0  0
   -0.0721   -0.2497    1.0912 C   0  0  0  0  0  0  0  0  0  0  0  0
   -0.4181    1.1668    0.7602 C   0  0  0  0  0  0  0  0  0  0  0  0
   -0.3380    1.2818   -0.7643 C   0  0  0  0  0  0  0  0  0  0  0  0
   -0.2338   -0.1515   -1.1594 C   0  0  0  0  0  0  0  0  0  0  0  0
   -1.4884   -0.8309   -0.6588 C   0  0  0  0  0  0  0  0  0  0  0  0
   -2.4793   -1.1438   -1.2685 O   0  0  0  0  0  0  0  0  0  0  0  0
   -1.3145   -1.0806    0.8170 C   0  0  0  0  0  0  0  0  0  0  0  0
    2.1415    0.9853    0.2144 H   0  0  0  0  0  0  0  0  0  0  0  0
    2.4248   -0.1027   -1.2569 H   0  0  0  0  0  0  0  0  0  0  0  0
    2.7971   -0.6558    0.3849 H   0  0  0  0  0  0  0  0  0  0  0  0
    0.8574   -1.7625   -0.1929 H   0  0  0  0  0  0  0  0  0  0  0  0
    0.3889   -0.4261    2.0388 H   0  0  0  0  0  0  0  0  0  0  0  0
    0.2080    1.9183    1.2632 H   0  0  0  0  0  0  0  0  0  0  0  0
   -1.4699    1.3677    1.0282 H   0  0  0  0  0  0  0  0  0  0  0  0
   -1.2020    1.8093   -1.1860 H   0  0  0  0  0  0  0  0  0  0  0  0
    0.5575    1.8743   -1.0174 H   0  0  0  0  0  0  0  0  0  0  0  0
    0.0178   -0.3777   -2.1688 H   0  0  0  0  0  0  0  0  0  0  0  0
   -2.1784   -0.7637    1.3972 H   0  0  0  0  0  0  0  0  0  0  0  0
   -1.0275   -2.1488    0.9835 H   0  0  0  0  0  0  0  0  0  0  0  0
  1  2  1  0
  2  3  1  0
  3  4  1  0
  4  5  1  0
  5  6  1  0
  6  7  1  0
  7  8  2  0
  7  9  1  0
  6  2  1  0
  9  3  1  0
  1 10  1  0
  1 11  1  0
  1 12  1  0
  2 13  1  0
  3 14  1  0
  4 15  1  0
  4 16  1  0
  5 17  1  0
  5 18  1  0
  6 19  1  0
  9 20  1  0
  9 21  1  0
M  END
