
     RDKit          3D

 23 24  0  0  0  0  0  0  0  0999 V2000
   -1.0787    1.7698    0.3098 C   0  0  0  0  0  0  0  0  0  0  0  0
   -0.7273    0.5251   -0.4759 C   0  0  0  0  0  0  0  0  0  0  0  0
   -1.8407   -0.4856   -0.2246 C   0  0  0  0  0  0  0  0  0  0  0  0
   -1.1631   -1.6233    0.5232 C   0  0  0  0  0  0  0  0  0  0  0  0
    0.2292   -1.5812   -0.0842 C   0  0  0  0  0  0  0  0  0  0  0  0
    0.5471   -0.1151   -0.0309 C   0  0  0  0  0  0  0  0  0  0  0  0
    1.7892    0.2155   -0.7676 C   0  0  0  0  0  0  0  0  0  0  0  0
    2.3068    0.7611    0.5553 C   0  0  0  0  0  0  0  0  0  0  0  0
    1.1122    0.3546    1.1293 O   0  0  0  0  0  0  0  0  0  0  0  0
   -0.1794    2.3408    0.5674 H   0  0  0  0  0  0  0  0  0  0  0  0
   -1.6104    1.4440    1.2455 H   0  0  0  0  0  0  0  0  0  0  0  0
   -1.8214    2.3289   -0.2886 H   0  0  0  0  0  0  0  0  0  0  0  0
   -0.6905    0.7259   -1.5655 H   0  0  0  0  0  0  0  0  0  0  0  0
   -2.6350   -0.0839    0.4216 H   0  0  0  0  0  0  0  0  0  0  0  0
   -2.2707   -0.8710   -1.1614 H   0  0  0  0  0  0  0  0  0  0  0  0
   -1.1585   -1.4569    1.6071 H   0  0  0  0  0  0  0  0  0  0  0  0
   -1.6508   -2.5647    0.2303 H   0  0  0  0  0  0  0  0  0  0  0  0
    0.0875   -1.8383   -1.1695 H   0  0  0  0  0  0  0  0  0  0  0  0
    0.9449   -2.2226    0.4248 H   0  0  0  0  0  0  0  0  0  0  0  0
    1.7547    0.9656   -1.5555 H   0  0  0  0  0  0  0  0  0  0  0  0
    2.3572   -0.6838   -1.1136 H   0  0  0  0  0  0  0  0  0  0  0  0
    2.4850    1.8567    0.5411 H   0  0  0  0  0  0  0  0  0  0  0  0
    3.2128    0.2385    0.8821 H   0  0  0  0  0  0  0  0  0  0  0  0
  1  2  1  0
  2  3  1  0
  3  4  1  0
  4  5  1  0
  5  6  1  0
  6  7  1  0
  7  8  1  0
  8  9  1  0
  6  2  1  0
  9  6  1  0
  1 10  1  0
  1 11  1  0
  1 12  1  0
  2 13  1  0
  3 14  1  0
  3 15  1  0
  4 16  1  0
  4 17  1  0
  5 18  1  0
  5 19  1  0
  7 20  1  0
  7 21  1  0
  8 22  1  0
  8 23  1  0
M  END
