
     RDKit          3D

 23 24  0  0  0  0  0  0  0  0999 V2000
    1.9230    0.8377   -0.7192 C   0  0  0  0  0  0  0  0  0  0  0  0
    1.1692   -0.2133   -0.0189 C   0  0  0  0  0  0  0  0  0  0  0  0
    0.8172   -1.4178   -0.8564 C   0  0  0  0  0  0  0  0  0  0  0  0
   -0.1621   -2.0618   -0.1186 O   0  0  0  0  0  0  0  0  0  0  0  0
   -0.8835   -1.1301    0.5710 C   0  0  0  0  0  0  0  0  0  0  0  0
   -2.0481   -0.6227   -0.2277 C   0  0  0  0  0  0  0  0  0  0  0  0
   -1.1737    0.5549   -0.6498 C   0  0  0  0  0  0  0  0  0  0  0  0
   -0.2083    0.2009    0.4502 C   0  0  0  0  0  0  0  0  0  0  0  0
   -0.2178    1.0843    1.6472 C   0  0  0  0  0  0  0  0  0  0  0  0
    3.0169    0.7010   -0.4913 H   0  0  0  0  0  0  0  0  0  0  0  0
    1.7801    0.9183   -1.7912 H   0  0  0  0  0  0  0  0  0  0  0  0
    1.6557    1.8331   -0.2707 H   0  0  0  0  0  0  0  0  0  0  0  0
    1.7030   -0.5962    0.8796 H   0  0  0  0  0  0  0  0  0  0  0  0
    1.6646   -2.1240   -0.9785 H   0  0  0  0  0  0  0  0  0  0  0  0
    0.4540   -1.1159   -1.8780 H   0  0  0  0  0  0  0  0  0  0  0  0
   -1.1311   -1.3834    1.6277 H   0  0  0  0  0  0  0  0  0  0  0  0
   -2.3361   -1.1951   -1.1121 H   0  0  0  0  0  0  0  0  0  0  0  0
   -2.9314   -0.3334    0.3588 H   0  0  0  0  0  0  0  0  0  0  0  0
   -1.7413    1.4880   -0.5194 H   0  0  0  0  0  0  0  0  0  0  0  0
   -0.7916    0.4881   -1.6792 H   0  0  0  0  0  0  0  0  0  0  0  0
   -0.2530    2.1523    1.2905 H   0  0  0  0  0  0  0  0  0  0  0  0
   -1.0734    0.9311    2.3025 H   0  0  0  0  0  0  0  0  0  0  0  0
    0.7677    1.0041    2.1837 H   0  0  0  0  0  0  0  0  0  0  0  0
  1  2  1  0
  2  3  1  0
  3  4  1  0
  4  5  1  0
  5  6  1  0
  6  7  1  0
  7  8  1  0
  8  9  1  0
  8  2  1  0
  8  5  1  0
  1 10  1  0
  1 11  1  0
  1 12  1  0
  2 13  1  0
  3 14  1  0
  3 15  1  0
  5 16  1  0
  6 17  1  0
  6 18  1  0
  7 19  1  0
  7 20  1  0
  9 21  1  0
  9 22  1  0
  9 23  1  0
M  END
