
     RDKit          3D

 21 22  0  0  0  0  0  0  0  0999 V2000
    2.7576    0.0072    0.0001 C   0  0  0  0  0  0  0  0  0  0  0  0
    1.4013    0.4243   -0.4198 C   0  0  0  0  0  0  0  0  0  0  0  0
    0.4527   -0.7137   -0.8245 C   0  0  0  0  0  0  0  0  0  0  0  0
   -0.6180    0.0764   -0.1741 C   0  0  0  0  0  0  0  0  0  0  0  0
    0.4105    0.6771    0.7278 C   0  0  0  0  0  0  0  0  0  0  0  0
   -1.3879    0.9096   -0.9157 O   0  0  0  0  0  0  0  0  0  0  0  0
   -2.3743    0.7954    0.0936 C   0  0  0  0  0  0  0  0  0  0  0  0
   -1.7823   -0.5855    0.4093 C   0  0  0  0  0  0  0  0  0  0  0  0
   -2.4180   -1.5377   -0.3421 O   0  0  0  0  0  0  0  0  0  0  0  0
    2.9705    0.4944    0.9971 H   0  0  0  0  0  0  0  0  0  0  0  0
    2.9511   -1.0593    0.0442 H   0  0  0  0  0  0  0  0  0  0  0  0
    3.4975    0.5038   -0.6956 H   0  0  0  0  0  0  0  0  0  0  0  0
    1.3640    1.2384   -1.1711 H   0  0  0  0  0  0  0  0  0  0  0  0
    0.4034   -0.8890   -1.8975 H   0  0  0  0  0  0  0  0  0  0  0  0
    0.6642   -1.6445   -0.2223 H   0  0  0  0  0  0  0  0  0  0  0  0
    0.7079    0.0202    1.5717 H   0  0  0  0  0  0  0  0  0  0  0  0
    0.2737    1.7245    0.9889 H   0  0  0  0  0  0  0  0  0  0  0  0
   -3.3698    0.7818   -0.3451 H   0  0  0  0  0  0  0  0  0  0  0  0
   -2.2210    1.5023    0.9376 H   0  0  0  0  0  0  0  0  0  0  0  0
   -1.7937   -0.8459    1.4766 H   0  0  0  0  0  0  0  0  0  0  0  0
   -1.8893   -1.8798   -1.0981 H   0  0  0  0  0  0  0  0  0  0  0  0
  1  2  1  0
  2  3  1  0
  3  4  1  0
  4  5  1  0
  4  6  1  0
  6  7  1  0
  7  8  1  0
  8  9  1  0
  5  2  1  0
  8  4  1  0
  1 10  1  0
  1 11  1  0
  1 12  1  0
  2 13  1  0
  3 14  1  0
  3 15  1  0
  5 16  1  0
  5 17  1  0
  7 18  1  0
  7 19  1  0
  8 20  1  0
  9 21  1  0
M  END
