
     RDKit          3D

 19 20  0  0  0  0  0  0  0  0999 V2000
    2.2764   -0.4826   -0.1306 C   0  0  0  0  0  0  0  0  0  0  0  0
    1.1064    0.2102    0.4893 C   0  0  0  0  0  0  0  0  0  0  0  0
    0.2671    0.9064   -0.5943 C   0  0  0  0  0  0  0  0  0  0  0  0
   -0.5098   -0.3877   -0.6901 C   0  0  0  0  0  0  0  0  0  0  0  0
   -1.9955   -0.1941   -0.5262 C   0  0  0  0  0  0  0  0  0  0  0  0
   -2.0022    0.6471    0.7265 C   0  0  0  0  0  0  0  0  0  0  0  0
   -2.6771    1.6663    0.9723 O   0  0  0  0  0  0  0  0  0  0  0  0
   -1.0611   -0.0047    1.5408 O   0  0  0  0  0  0  0  0  0  0  0  0
   -0.0998   -0.6591    0.7577 C   0  0  0  0  0  0  0  0  0  0  0  0
    2.5009   -0.0260   -1.1254 H   0  0  0  0  0  0  0  0  0  0  0  0
    2.1268   -1.5622   -0.2943 H   0  0  0  0  0  0  0  0  0  0  0  0
    3.1913   -0.2920    0.4884 H   0  0  0  0  0  0  0  0  0  0  0  0
    1.3721    0.9183    1.2755 H   0  0  0  0  0  0  0  0  0  0  0  0
   -0.3031    1.7645   -0.2049 H   0  0  0  0  0  0  0  0  0  0  0  0
    0.8259    1.1805   -1.4942 H   0  0  0  0  0  0  0  0  0  0  0  0
   -0.1719   -1.1046   -1.4228 H   0  0  0  0  0  0  0  0  0  0  0  0
   -2.4527   -1.1651   -0.2212 H   0  0  0  0  0  0  0  0  0  0  0  0
   -2.4840    0.2945   -1.3604 H   0  0  0  0  0  0  0  0  0  0  0  0
    0.0902   -1.7097    0.9637 H   0  0  0  0  0  0  0  0  0  0  0  0
  1  2  1  0
  2  3  1  0
  3  4  1  0
  4  5  1  0
  5  6  1  0
  6  7  2  0
  6  8  1  0
  8  9  1  0
  9  2  1  0
  9  4  1  0
  1 10  1  0
  1 11  1  0
  1 12  1  0
  2 13  1  0
  3 14  1  0
  3 15  1  0
  4 16  1  0
  5 17  1  0
  5 18  1  0
  9 19  1  0
M  END
