
     RDKit          3D

 25 26  0  0  0  0  0  0  0  0999 V2000
   -1.3893    1.2017    1.2344 C   0  0  0  0  0  0  0  0  0  0  0  0
   -0.6687   -0.0693    0.7635 C   0  0  0  0  0  0  0  0  0  0  0  0
   -1.7063   -1.0270    0.1930 C   0  0  0  0  0  0  0  0  0  0  0  0
   -1.1239   -1.3948   -1.1585 C   0  0  0  0  0  0  0  0  0  0  0  0
   -0.5541   -0.0349   -1.5874 C   0  0  0  0  0  0  0  0  0  0  0  0
    0.2354    0.3239   -0.3487 C   0  0  0  0  0  0  0  0  0  0  0  0
    1.1315    1.4636   -0.2761 C   0  0  0  0  0  0  0  0  0  0  0  0
    1.6683    0.0666   -0.3884 C   0  0  0  0  0  0  0  0  0  0  0  0
    2.4373   -0.5554    0.7340 C   0  0  0  0  0  0  0  0  0  0  0  0
   -0.6295    1.9720    1.4861 H   0  0  0  0  0  0  0  0  0  0  0  0
   -2.0315    1.5104    0.3874 H   0  0  0  0  0  0  0  0  0  0  0  0
   -1.9610    0.9802    2.1368 H   0  0  0  0  0  0  0  0  0  0  0  0
   -0.1885   -0.4950    1.6433 H   0  0  0  0  0  0  0  0  0  0  0  0
   -2.6630   -0.4966   -0.0023 H   0  0  0  0  0  0  0  0  0  0  0  0
   -1.8151   -1.8998    0.8501 H   0  0  0  0  0  0  0  0  0  0  0  0
   -1.8542   -1.7823   -1.8628 H   0  0  0  0  0  0  0  0  0  0  0  0
   -0.2527   -2.0348   -0.9675 H   0  0  0  0  0  0  0  0  0  0  0  0
    0.0936   -0.1693   -2.4581 H   0  0  0  0  0  0  0  0  0  0  0  0
   -1.3636    0.6928   -1.7284 H   0  0  0  0  0  0  0  0  0  0  0  0
    1.2842    1.9129    0.7439 H   0  0  0  0  0  0  0  0  0  0  0  0
    1.2918    2.2027   -1.0749 H   0  0  0  0  0  0  0  0  0  0  0  0
    2.1343   -0.1328   -1.3986 H   0  0  0  0  0  0  0  0  0  0  0  0
    3.3074    0.0640    1.0610 H   0  0  0  0  0  0  0  0  0  0  0  0
    2.7807   -1.5592    0.3812 H   0  0  0  0  0  0  0  0  0  0  0  0
    1.8367   -0.7397    1.6368 H   0  0  0  0  0  0  0  0  0  0  0  0
  1  2  1  0
  2  3  1  0
  3  4  1  0
  4  5  1  0
  5  6  1  0
  6  7  1  0
  7  8  1  0
  8  9  1  0
  6  2  1  0
  8  6  1  0
  1 10  1  0
  1 11  1  0
  1 12  1  0
  2 13  1  0
  3 14  1  0
  3 15  1  0
  4 16  1  0
  4 17  1  0
  5 18  1  0
  5 19  1  0
  7 20  1  0
  7 21  1  0
  8 22  1  0
  9 23  1  0
  9 24  1  0
  9 25  1  0
M  END
