
     RDKit          3D

 19 20  0  0  0  0  0  0  0  0999 V2000
   -2.3365    0.3463   -0.8527 C   0  0  0  0  0  0  0  0  0  0  0  0
   -1.4533   -0.6449   -0.0829 C   0  0  0  0  0  0  0  0  0  0  0  0
   -1.0066   -0.1349    1.3106 C   0  0  0  0  0  0  0  0  0  0  0  0
   -0.0993   -0.1928    0.1782 C   0  0  0  0  0  0  0  0  0  0  0  0
    1.1285   -0.9976    0.1391 C   0  0  0  0  0  0  0  0  0  0  0  0
    1.6455    0.1881   -0.5977 C   0  0  0  0  0  0  0  0  0  0  0  0
    2.6923    0.9899    0.0791 C   0  0  0  0  0  0  0  0  0  0  0  0
    2.4901    2.0595    0.6246 O   0  0  0  0  0  0  0  0  0  0  0  0
    0.4161    0.8708   -0.4955 O   0  0  0  0  0  0  0  0  0  0  0  0
   -2.2401    0.2032   -1.9454 H   0  0  0  0  0  0  0  0  0  0  0  0
   -3.3702    0.3349   -0.5030 H   0  0  0  0  0  0  0  0  0  0  0  0
   -1.9463    1.3843   -0.6547 H   0  0  0  0  0  0  0  0  0  0  0  0
   -1.7860   -1.6774   -0.1510 H   0  0  0  0  0  0  0  0  0  0  0  0
   -1.4942    0.7597    1.6884 H   0  0  0  0  0  0  0  0  0  0  0  0
   -0.9051   -0.9594    2.0706 H   0  0  0  0  0  0  0  0  0  0  0  0
    1.1023   -1.9599   -0.4131 H   0  0  0  0  0  0  0  0  0  0  0  0
    1.5781   -1.1034    1.1639 H   0  0  0  0  0  0  0  0  0  0  0  0
    1.8760   -0.0850   -1.6597 H   0  0  0  0  0  0  0  0  0  0  0  0
    3.7085    0.6186    0.1012 H   0  0  0  0  0  0  0  0  0  0  0  0
  1  2  1  0
  2  3  1  0
  3  4  1  0
  4  5  1  0
  5  6  1  0
  6  7  1  0
  7  8  2  0
  6  9  1  0
  4  2  1  0
  9  4  1  0
  1 10  1  0
  1 11  1  0
  1 12  1  0
  2 13  1  0
  3 14  1  0
  3 15  1  0
  5 16  1  0
  5 17  1  0
  6 18  1  0
  7 19  1  0
M  END
