
     RDKit          3D

 21 22  0  0  0  0  0  0  0  0999 V2000
    2.7482   -0.4813    0.4045 C   0  0  0  0  0  0  0  0  0  0  0  0
    1.4743   -0.3974   -0.4090 C   0  0  0  0  0  0  0  0  0  0  0  0
    1.1934    0.9905   -0.9677 C   0  0  0  0  0  0  0  0  0  0  0  0
    0.3132    0.3658    0.0982 C   0  0  0  0  0  0  0  0  0  0  0  0
    0.3239    0.9871    1.3288 O   0  0  0  0  0  0  0  0  0  0  0  0
   -1.0535   -0.0178   -0.4052 C   0  0  0  0  0  0  0  0  0  0  0  0
   -1.9820   -0.6258    0.5887 C   0  0  0  0  0  0  0  0  0  0  0  0
   -2.9710    0.1471   -0.2588 C   0  0  0  0  0  0  0  0  0  0  0  0
   -1.9440    1.0325   -0.5720 O   0  0  0  0  0  0  0  0  0  0  0  0
    3.3808   -1.3086    0.0179 H   0  0  0  0  0  0  0  0  0  0  0  0
    2.5166   -0.6570    1.4953 H   0  0  0  0  0  0  0  0  0  0  0  0
    3.3669    0.4491    0.3046 H   0  0  0  0  0  0  0  0  0  0  0  0
    1.2432   -1.2817   -1.0231 H   0  0  0  0  0  0  0  0  0  0  0  0
    1.8667    1.8248   -0.6983 H   0  0  0  0  0  0  0  0  0  0  0  0
    0.8660    0.9652   -2.0226 H   0  0  0  0  0  0  0  0  0  0  0  0
    0.8402    0.4347    1.9597 H   0  0  0  0  0  0  0  0  0  0  0  0
   -1.0374   -0.6364   -1.3384 H   0  0  0  0  0  0  0  0  0  0  0  0
   -2.1181   -1.7175    0.4645 H   0  0  0  0  0  0  0  0  0  0  0  0
   -1.9647   -0.2449    1.6127 H   0  0  0  0  0  0  0  0  0  0  0  0
   -3.7843    0.5684    0.3616 H   0  0  0  0  0  0  0  0  0  0  0  0
   -3.2785   -0.3968   -1.1620 H   0  0  0  0  0  0  0  0  0  0  0  0
  1  2  1  0
  2  3  1  0
  3  4  1  0
  4  5  1  0
  4  6  1  0
  6  7  1  0
  7  8  1  0
  8  9  1  0
  4  2  1  0
  9  6  1  0
  1 10  1  0
  1 11  1  0
  1 12  1  0
  2 13  1  0
  3 14  1  0
  3 15  1  0
  5 16  1  0
  6 17  1  0
  7 18  1  0
  7 19  1  0
  8 20  1  0
  8 21  1  0
M  END
