
     RDKit          3D

 25 25  0  0  0  0  0  0  0  0999 V2000
    2.6145    0.5385   -0.0917 C   0  0  0  0  0  0  0  0  0  0  0  0
    1.3265   -0.0251    0.5176 C   0  0  0  0  0  0  0  0  0  0  0  0
    0.9896   -1.3495   -0.0995 C   0  0  0  0  0  0  0  0  0  0  0  0
   -0.5268   -1.4086    0.0281 C   0  0  0  0  0  0  0  0  0  0  0  0
   -1.0178   -0.0046   -0.1068 C   0  0  0  0  0  0  0  0  0  0  0  0
   -2.1151    0.2685    0.9216 C   0  0  0  0  0  0  0  0  0  0  0  0
   -1.6133    0.2995   -1.4592 C   0  0  0  0  0  0  0  0  0  0  0  0
    0.1593    0.8585    0.2182 C   0  0  0  0  0  0  0  0  0  0  0  0
    0.5023    1.5974   -0.9304 O   0  0  0  0  0  0  0  0  0  0  0  0
    2.5031    1.6375   -0.1137 H   0  0  0  0  0  0  0  0  0  0  0  0
    3.4895    0.2990    0.5481 H   0  0  0  0  0  0  0  0  0  0  0  0
    2.7865    0.1104   -1.1123 H   0  0  0  0  0  0  0  0  0  0  0  0
    1.5442   -0.1257    1.6075 H   0  0  0  0  0  0  0  0  0  0  0  0
    1.4744   -2.1622    0.4636 H   0  0  0  0  0  0  0  0  0  0  0  0
    1.2095   -1.3506   -1.1785 H   0  0  0  0  0  0  0  0  0  0  0  0
   -0.9483   -2.1099   -0.7183 H   0  0  0  0  0  0  0  0  0  0  0  0
   -0.7266   -1.7667    1.0650 H   0  0  0  0  0  0  0  0  0  0  0  0
   -2.1684   -0.5433    1.6822 H   0  0  0  0  0  0  0  0  0  0  0  0
   -1.8764    1.1949    1.4840 H   0  0  0  0  0  0  0  0  0  0  0  0
   -3.1144    0.3367    0.4462 H   0  0  0  0  0  0  0  0  0  0  0  0
   -2.3766   -0.4824   -1.6783 H   0  0  0  0  0  0  0  0  0  0  0  0
   -2.1044    1.2938   -1.3978 H   0  0  0  0  0  0  0  0  0  0  0  0
   -0.8647    0.2622   -2.2799 H   0  0  0  0  0  0  0  0  0  0  0  0
   -0.0672    1.5497    1.0726 H   0  0  0  0  0  0  0  0  0  0  0  0
    0.9203    0.9451   -1.5661 H   0  0  0  0  0  0  0  0  0  0  0  0
  1  2  1  0
  2  3  1  0
  3  4  1  0
  4  5  1  0
  5  6  1  0
  5  7  1  0
  5  8  1  0
  8  9  1  0
  8  2  1  0
  1 10  1  0
  1 11  1  0
  1 12  1  0
  2 13  1  0
  3 14  1  0
  3 15  1  0
  4 16  1  0
  4 17  1  0
  6 18  1  0
  6 19  1  0
  6 20  1  0
  7 21  1  0
  7 22  1  0
  7 23  1  0
  8 24  1  0
  9 25  1  0
M  END
