
     RDKit          3D

 23 24  0  0  0  0  0  0  0  0999 V2000
   -1.7442   -1.4772   -0.2086 C   0  0  0  0  0  0  0  0  0  0  0  0
   -1.6310   -0.0566   -0.6133 C   0  0  0  0  0  0  0  0  0  0  0  0
   -1.7773    0.9727    0.5037 C   0  0  0  0  0  0  0  0  0  0  0  0
   -0.5551    0.8779   -0.4185 C   0  0  0  0  0  0  0  0  0  0  0  0
    0.7349    0.6968    0.2774 C   0  0  0  0  0  0  0  0  0  0  0  0
    1.4864    2.0547    0.3777 C   0  0  0  0  0  0  0  0  0  0  0  0
    0.8901   -0.0730    1.3996 O   0  0  0  0  0  0  0  0  0  0  0  0
    1.6322   -0.4219    0.2338 C   0  0  0  0  0  0  0  0  0  0  0  0
    1.4296   -1.7497   -0.3885 C   0  0  0  0  0  0  0  0  0  0  0  0
   -2.8467   -1.7246   -0.0857 H   0  0  0  0  0  0  0  0  0  0  0  0
   -1.2455   -1.7550    0.7154 H   0  0  0  0  0  0  0  0  0  0  0  0
   -1.3690   -2.1261   -1.0223 H   0  0  0  0  0  0  0  0  0  0  0  0
   -2.3520    0.1826   -1.4601 H   0  0  0  0  0  0  0  0  0  0  0  0
   -2.4544    1.8318    0.3737 H   0  0  0  0  0  0  0  0  0  0  0  0
   -1.7178    0.5588    1.5051 H   0  0  0  0  0  0  0  0  0  0  0  0
   -0.5154    1.7398   -1.1757 H   0  0  0  0  0  0  0  0  0  0  0  0
    2.2831    1.9912    1.1419 H   0  0  0  0  0  0  0  0  0  0  0  0
    1.9812    2.2141   -0.5980 H   0  0  0  0  0  0  0  0  0  0  0  0
    0.7841    2.8729    0.5531 H   0  0  0  0  0  0  0  0  0  0  0  0
    2.7303   -0.2197    0.4500 H   0  0  0  0  0  0  0  0  0  0  0  0
    0.9101   -1.6378   -1.3781 H   0  0  0  0  0  0  0  0  0  0  0  0
    2.4189   -2.2379   -0.6714 H   0  0  0  0  0  0  0  0  0  0  0  0
    0.9274   -2.5139    0.1948 H   0  0  0  0  0  0  0  0  0  0  0  0
  1  2  1  0
  2  3  1  0
  3  4  1  0
  4  5  1  0
  5  6  1  0
  5  7  1  0
  7  8  1  0
  8  9  1  0
  4  2  1  0
  8  5  1  0
  1 10  1  0
  1 11  1  0
  1 12  1  0
  2 13  1  0
  3 14  1  0
  3 15  1  0
  4 16  1  0
  6 17  1  0
  6 18  1  0
  6 19  1  0
  8 20  1  0
  9 21  1  0
  9 22  1  0
  9 23  1  0
M  END
