
     RDKit          3D

 19 20  0  0  0  0  0  0  0  0999 V2000
    2.2889    0.1329   -0.7460 C   0  0  0  0  0  0  0  0  0  0  0  0
    0.8042   -0.0918   -0.5262 C   0  0  0  0  0  0  0  0  0  0  0  0
    0.4393   -0.7190    0.7836 C   0  0  0  0  0  0  0  0  0  0  0  0
   -0.6409   -1.5649    0.9126 O   0  0  0  0  0  0  0  0  0  0  0  0
   -1.6529   -1.3685    0.0277 C   0  0  0  0  0  0  0  0  0  0  0  0
   -2.2220   -0.0071    0.2112 C   0  0  0  0  0  0  0  0  0  0  0  0
   -1.3512    0.9643    0.4482 C   0  0  0  0  0  0  0  0  0  0  0  0
    0.1126    0.6940    0.5242 C   0  0  0  0  0  0  0  0  0  0  0  0
    0.9047    1.6706    1.1389 O   0  0  0  0  0  0  0  0  0  0  0  0
    2.8069    0.1853    0.2497 H   0  0  0  0  0  0  0  0  0  0  0  0
    2.6977   -0.7767   -1.2531 H   0  0  0  0  0  0  0  0  0  0  0  0
    2.5055    1.0434   -1.3207 H   0  0  0  0  0  0  0  0  0  0  0  0
    0.2872   -0.4201   -1.4382 H   0  0  0  0  0  0  0  0  0  0  0  0
    1.2319   -0.8998    1.5483 H   0  0  0  0  0  0  0  0  0  0  0  0
   -1.3983   -1.4851   -1.0388 H   0  0  0  0  0  0  0  0  0  0  0  0
   -2.4657   -2.0858    0.2756 H   0  0  0  0  0  0  0  0  0  0  0  0
   -3.3092    0.1784    0.1522 H   0  0  0  0  0  0  0  0  0  0  0  0
   -1.7263    1.9692    0.5872 H   0  0  0  0  0  0  0  0  0  0  0  0
    0.6879    2.5807    0.7974 H   0  0  0  0  0  0  0  0  0  0  0  0
  1  2  1  0
  2  3  1  0
  3  4  1  0
  4  5  1  0
  5  6  1  0
  6  7  2  0
  7  8  1  0
  8  9  1  0
  8  2  1  0
  8  3  1  0
  1 10  1  0
  1 11  1  0
  1 12  1  0
  2 13  1  0
  3 14  1  0
  5 15  1  0
  5 16  1  0
  6 17  1  0
  7 18  1  0
  9 19  1  0
M  END
