
     RDKit          3D

 23 24  0  0  0  0  0  0  0  0999 V2000
    2.2745   -0.2928   -0.5834 C   0  0  0  0  0  0  0  0  0  0  0  0
    1.1320   -0.4401    0.3553 C   0  0  0  0  0  0  0  0  0  0  0  0
    0.2086   -1.5949   -0.0210 C   0  0  0  0  0  0  0  0  0  0  0  0
   -0.7685   -1.3579   -0.9055 O   0  0  0  0  0  0  0  0  0  0  0  0
   -1.3625   -0.0893   -0.9135 C   0  0  0  0  0  0  0  0  0  0  0  0
   -2.2920   -0.0233    0.2588 C   0  0  0  0  0  0  0  0  0  0  0  0
   -0.2801    0.8934   -0.9349 C   0  0  0  0  0  0  0  0  0  0  0  0
    0.1179    1.9740   -0.1261 C   0  0  0  0  0  0  0  0  0  0  0  0
    0.2762    0.7409    0.5285 C   0  0  0  0  0  0  0  0  0  0  0  0
    2.3499    0.7110   -1.0378 H   0  0  0  0  0  0  0  0  0  0  0  0
    2.2075   -1.1001   -1.3504 H   0  0  0  0  0  0  0  0  0  0  0  0
    3.2708   -0.4598   -0.0781 H   0  0  0  0  0  0  0  0  0  0  0  0
    1.5532   -0.7273    1.3580 H   0  0  0  0  0  0  0  0  0  0  0  0
   -0.2148   -2.0558    0.9123 H   0  0  0  0  0  0  0  0  0  0  0  0
    0.8907   -2.3844   -0.4382 H   0  0  0  0  0  0  0  0  0  0  0  0
   -1.9550   -0.0204   -1.8500 H   0  0  0  0  0  0  0  0  0  0  0  0
   -3.3190   -0.3435   -0.0827 H   0  0  0  0  0  0  0  0  0  0  0  0
   -2.4078    0.9664    0.6982 H   0  0  0  0  0  0  0  0  0  0  0  0
   -2.0172   -0.8068    1.0261 H   0  0  0  0  0  0  0  0  0  0  0  0
    0.4400    0.6326   -1.7723 H   0  0  0  0  0  0  0  0  0  0  0  0
   -0.6561    2.6991    0.2271 H   0  0  0  0  0  0  0  0  0  0  0  0
    1.0445    2.5603   -0.3952 H   0  0  0  0  0  0  0  0  0  0  0  0
   -0.4926    0.5186    1.3314 H   0  0  0  0  0  0  0  0  0  0  0  0
  1  2  1  0
  2  3  1  0
  3  4  1  0
  4  5  1  0
  5  6  1  0
  5  7  1  0
  7  8  1  0
  8  9  1  0
  9  2  1  0
  9  7  1  0
  1 10  1  0
  1 11  1  0
  1 12  1  0
  2 13  1  0
  3 14  1  0
  3 15  1  0
  5 16  1  0
  6 17  1  0
  6 18  1  0
  6 19  1  0
  7 20  1  0
  8 21  1  0
  8 22  1  0
  9 23  1  0
M  END
