
     RDKit          3D

 21 23  0  0  0  0  0  0  0  0999 V2000
   -1.8286    1.1828   -0.1173 C   0  0  0  0  0  0  0  0  0  0  0  0
   -1.3074   -0.2283   -0.0049 C   0  0  0  0  0  0  0  0  0  0  0  0
   -0.7041   -0.4882    1.3423 C   0  0  0  0  0  0  0  0  0  0  0  0
    0.5796   -0.8774    0.6606 C   0  0  0  0  0  0  0  0  0  0  0  0
    1.7115    0.0245    0.8409 C   0  0  0  0  0  0  0  0  0  0  0  0
    1.8500    0.8265   -0.1722 C   0  0  0  0  0  0  0  0  0  0  0  0
    0.8485    0.6128   -1.2062 C   0  0  0  0  0  0  0  0  0  0  0  0
   -0.0083   -0.4933   -0.7084 C   0  0  0  0  0  0  0  0  0  0  0  0
    0.5910   -1.8331   -0.4645 C   0  0  0  0  0  0  0  0  0  0  0  0
   -2.1861    1.4273   -1.1365 H   0  0  0  0  0  0  0  0  0  0  0  0
   -2.7408    1.2273    0.5442 H   0  0  0  0  0  0  0  0  0  0  0  0
   -1.1273    1.9303    0.2565 H   0  0  0  0  0  0  0  0  0  0  0  0
   -2.0542   -0.9789   -0.2617 H   0  0  0  0  0  0  0  0  0  0  0  0
   -1.1474   -1.3286    1.9050 H   0  0  0  0  0  0  0  0  0  0  0  0
   -0.5962    0.4056    1.9872 H   0  0  0  0  0  0  0  0  0  0  0  0
    2.3436   -0.0079    1.7440 H   0  0  0  0  0  0  0  0  0  0  0  0
    2.6446    1.5774   -0.2219 H   0  0  0  0  0  0  0  0  0  0  0  0
    1.3543    0.2375   -2.1456 H   0  0  0  0  0  0  0  0  0  0  0  0
    0.2778    1.5209   -1.4885 H   0  0  0  0  0  0  0  0  0  0  0  0
   -0.0573   -2.7330   -0.4037 H   0  0  0  0  0  0  0  0  0  0  0  0
    1.5567   -2.0043   -0.9494 H   0  0  0  0  0  0  0  0  0  0  0  0
  1  2  1  0
  2  3  1  0
  3  4  1  0
  4  5  1  0
  5  6  2  0
  6  7  1  0
  7  8  1  0
  8  9  1  0
  8  2  1  0
  8  4  1  0
  9  4  1  0
  1 10  1  0
  1 11  1  0
  1 12  1  0
  2 13  1  0
  3 14  1  0
  3 15  1  0
  5 16  1  0
  6 17  1  0
  7 18  1  0
  7 19  1  0
  9 20  1  0
  9 21  1  0
M  END
