
     RDKit          3D

 21 23  0  0  0  0  0  0  0  0999 V2000
    2.5617    0.0140    0.0721 C   0  0  0  0  0  0  0  0  0  0  0  0
    1.2201   -0.5295   -0.2789 C   0  0  0  0  0  0  0  0  0  0  0  0
    0.3058   -0.7582    0.9319 C   0  0  0  0  0  0  0  0  0  0  0  0
   -0.5646   -1.8049    0.7583 O   0  0  0  0  0  0  0  0  0  0  0  0
   -1.5479   -1.4416   -0.1183 C   0  0  0  0  0  0  0  0  0  0  0  0
   -2.4414   -0.2987    0.3781 C   0  0  0  0  0  0  0  0  0  0  0  0
   -1.3074   -0.0974   -0.6366 C   0  0  0  0  0  0  0  0  0  0  0  0
    0.0302    0.3050   -0.0402 C   0  0  0  0  0  0  0  0  0  0  0  0
    0.1254    1.7620    0.2839 C   0  0  0  0  0  0  0  0  0  0  0  0
    2.7925   -0.1078    1.1634 H   0  0  0  0  0  0  0  0  0  0  0  0
    2.6533    1.0465   -0.2641 H   0  0  0  0  0  0  0  0  0  0  0  0
    3.3894   -0.5553   -0.4437 H   0  0  0  0  0  0  0  0  0  0  0  0
    1.2056   -1.2546   -1.0980 H   0  0  0  0  0  0  0  0  0  0  0  0
    0.6902   -0.5669    1.9334 H   0  0  0  0  0  0  0  0  0  0  0  0
   -2.0044   -2.1753   -0.8200 H   0  0  0  0  0  0  0  0  0  0  0  0
   -3.4707   -0.2941   -0.0087 H   0  0  0  0  0  0  0  0  0  0  0  0
   -2.2461    0.1104    1.3840 H   0  0  0  0  0  0  0  0  0  0  0  0
   -1.6009    0.2515   -1.6258 H   0  0  0  0  0  0  0  0  0  0  0  0
    1.1206    2.1082    0.5641 H   0  0  0  0  0  0  0  0  0  0  0  0
   -0.2649    2.3164   -0.6202 H   0  0  0  0  0  0  0  0  0  0  0  0
   -0.6463    1.9701    1.0751 H   0  0  0  0  0  0  0  0  0  0  0  0
  1  2  1  0
  2  3  1  0
  3  4  1  0
  4  5  1  0
  5  6  1  0
  6  7  1  0
  7  8  1  0
  8  9  1  0
  8  2  1  0
  8  3  1  0
  7  5  1  0
  1 10  1  0
  1 11  1  0
  1 12  1  0
  2 13  1  0
  3 14  1  0
  5 15  1  0
  6 16  1  0
  6 17  1  0
  7 18  1  0
  9 19  1  0
  9 20  1  0
  9 21  1  0
M  END
