
     RDKit          3D

 18 19  0  0  0  0  0  0  0  0999 V2000
   -2.0615   -0.1543   -0.4341 C   0  0  0  0  0  0  0  0  0  0  0  0
   -1.1195    0.1839    0.6715 C   0  0  0  0  0  0  0  0  0  0  0  0
   -0.1713    1.2850    0.3009 C   0  0  0  0  0  0  0  0  0  0  0  0
    0.9765    0.8528   -0.1414 C   0  0  0  0  0  0  0  0  0  0  0  0
    2.3385    0.5432   -0.6665 C   0  0  0  0  0  0  0  0  0  0  0  0
    2.2587   -0.6020    0.1920 O   0  0  0  0  0  0  0  0  0  0  0  0
    0.9479   -0.6724   -0.1850 C   0  0  0  0  0  0  0  0  0  0  0  0
   -0.1018   -0.9663    0.8659 C   0  0  0  0  0  0  0  0  0  0  0  0
   -1.7543    0.4327   -1.3324 H   0  0  0  0  0  0  0  0  0  0  0  0
   -3.0874    0.1551   -0.1342 H   0  0  0  0  0  0  0  0  0  0  0  0
   -1.9930   -1.2452   -0.6205 H   0  0  0  0  0  0  0  0  0  0  0  0
   -1.6021    0.3681    1.6453 H   0  0  0  0  0  0  0  0  0  0  0  0
   -0.4520    2.3340    0.4056 H   0  0  0  0  0  0  0  0  0  0  0  0
    3.1307    1.2423   -0.3747 H   0  0  0  0  0  0  0  0  0  0  0  0
    2.3405    0.1755   -1.6946 H   0  0  0  0  0  0  0  0  0  0  0  0
    0.7097   -1.0660   -1.1804 H   0  0  0  0  0  0  0  0  0  0  0  0
   -0.6368   -1.8815    0.5392 H   0  0  0  0  0  0  0  0  0  0  0  0
    0.2770   -0.9850    1.8862 H   0  0  0  0  0  0  0  0  0  0  0  0
  1  2  1  0
  2  3  1  0
  3  4  2  0
  4  5  1  0
  5  6  1  0
  6  7  1  0
  7  8  1  0
  8  2  1  0
  7  4  1  0
  1  9  1  0
  1 10  1  0
  1 11  1  0
  2 12  1  0
  3 13  1  0
  5 14  1  0
  5 15  1  0
  7 16  1  0
  8 17  1  0
  8 18  1  0
M  END
