
     RDKit          3D

 23 23  0  0  0  0  0  0  0  0999 V2000
   -2.7973   -0.5767   -0.0293 C   0  0  0  0  0  0  0  0  0  0  0  0
   -1.3884   -0.3794    0.5539 C   0  0  0  0  0  0  0  0  0  0  0  0
   -0.8778    0.9457    0.1631 C   0  0  0  0  0  0  0  0  0  0  0  0
    0.5997    1.0769    0.0384 C   0  0  0  0  0  0  0  0  0  0  0  0
    1.1223    2.1415    0.7953 O   0  0  0  0  0  0  0  0  0  0  0  0
    1.2746   -0.2225    0.3379 C   0  0  0  0  0  0  0  0  0  0  0  0
    2.6942   -0.3083   -0.0827 C   0  0  0  0  0  0  0  0  0  0  0  0
    0.4902   -1.2683   -0.4695 C   0  0  0  0  0  0  0  0  0  0  0  0
   -0.6681   -1.4723    0.2201 O   0  0  0  0  0  0  0  0  0  0  0  0
   -3.5235    0.0366    0.5232 H   0  0  0  0  0  0  0  0  0  0  0  0
   -2.7703   -0.3493   -1.1154 H   0  0  0  0  0  0  0  0  0  0  0  0
   -3.0925   -1.6548    0.1263 H   0  0  0  0  0  0  0  0  0  0  0  0
   -1.5637   -0.4059    1.6704 H   0  0  0  0  0  0  0  0  0  0  0  0
   -1.3909    1.3058   -0.7764 H   0  0  0  0  0  0  0  0  0  0  0  0
   -1.2090    1.6975    0.9410 H   0  0  0  0  0  0  0  0  0  0  0  0
    0.8694    1.3416   -1.0270 H   0  0  0  0  0  0  0  0  0  0  0  0
    0.3735    2.7189    1.0663 H   0  0  0  0  0  0  0  0  0  0  0  0
    1.1454   -0.4120    1.4386 H   0  0  0  0  0  0  0  0  0  0  0  0
    3.2115    0.6346   -0.2380 H   0  0  0  0  0  0  0  0  0  0  0  0
    3.2609   -0.8476    0.7324 H   0  0  0  0  0  0  0  0  0  0  0  0
    2.8450   -0.9700   -0.9856 H   0  0  0  0  0  0  0  0  0  0  0  0
    1.0616   -2.1864   -0.5743 H   0  0  0  0  0  0  0  0  0  0  0  0
    0.3333   -0.8454   -1.4837 H   0  0  0  0  0  0  0  0  0  0  0  0
  1  2  1  0
  2  3  1  0
  3  4  1  0
  4  5  1  0
  4  6  1  0
  6  7  1  0
  6  8  1  0
  8  9  1  0
  9  2  1  0
  1 10  1  0
  1 11  1  0
  1 12  1  0
  2 13  1  0
  3 14  1  0
  3 15  1  0
  4 16  1  0
  5 17  1  0
  6 18  1  0
  7 19  1  0
  7 20  1  0
  7 21  1  0
  8 22  1  0
  8 23  1  0
M  END
