
     RDKit          3D

 19 19  0  0  0  0  0  0  0  0999 V2000
    1.0849   -1.5224    0.0412 C   0  0  0  0  0  0  0  0  0  0  0  0
    0.8932   -0.1451   -0.5082 C   0  0  0  0  0  0  0  0  0  0  0  0
    1.0173    0.9215    0.5236 C   0  0  0  0  0  0  0  0  0  0  0  0
    1.6494    0.8757    1.5459 O   0  0  0  0  0  0  0  0  0  0  0  0
    0.1779    2.0207   -0.0317 C   0  0  0  0  0  0  0  0  0  0  0  0
   -0.5063    1.5165   -1.1007 O   0  0  0  0  0  0  0  0  0  0  0  0
   -0.5248    0.1125   -0.9682 C   0  0  0  0  0  0  0  0  0  0  0  0
   -1.5270   -0.1911    0.1224 C   0  0  0  0  0  0  0  0  0  0  0  0
   -1.6554   -1.5388    0.3656 O   0  0  0  0  0  0  0  0  0  0  0  0
    2.1720   -1.6750    0.1976 H   0  0  0  0  0  0  0  0  0  0  0  0
    0.5921   -1.6416    1.0033 H   0  0  0  0  0  0  0  0  0  0  0  0
    0.7428   -2.2458   -0.7176 H   0  0  0  0  0  0  0  0  0  0  0  0
    1.5811    0.1096   -1.3213 H   0  0  0  0  0  0  0  0  0  0  0  0
    0.8840    2.8081   -0.4114 H   0  0  0  0  0  0  0  0  0  0  0  0
   -0.4810    2.4742    0.7328 H   0  0  0  0  0  0  0  0  0  0  0  0
   -0.7340   -0.3983   -1.9017 H   0  0  0  0  0  0  0  0  0  0  0  0
   -2.5301    0.2153   -0.1150 H   0  0  0  0  0  0  0  0  0  0  0  0
   -1.2006    0.3617    1.0469 H   0  0  0  0  0  0  0  0  0  0  0  0
   -1.6356   -2.0579   -0.4564 H   0  0  0  0  0  0  0  0  0  0  0  0
  1  2  1  0
  2  3  1  0
  3  4  2  0
  3  5  1  0
  5  6  1  0
  6  7  1  0
  7  8  1  0
  8  9  1  0
  7  2  1  0
  1 10  1  0
  1 11  1  0
  1 12  1  0
  2 13  1  0
  5 14  1  0
  5 15  1  0
  7 16  1  0
  8 17  1  0
  8 18  1  0
  9 19  1  0
M  END
