
     RDKit          3D

 17 17  0  0  0  0  0  0  0  0999 V2000
   -2.1388   -0.3851   -0.6499 C   0  0  0  0  0  0  0  0  0  0  0  0
   -1.0018    0.5682   -0.3476 C   0  0  0  0  0  0  0  0  0  0  0  0
   -0.6847    0.6471    1.0769 C   0  0  0  0  0  0  0  0  0  0  0  0
    0.4348   -0.0135    1.2917 C   0  0  0  0  0  0  0  0  0  0  0  0
    0.8946   -0.5515    0.0130 C   0  0  0  0  0  0  0  0  0  0  0  0
    2.3508   -0.2474   -0.2724 C   0  0  0  0  0  0  0  0  0  0  0  0
    0.1366    0.0516   -0.9516 O   0  0  0  0  0  0  0  0  0  0  0  0
   -2.1745   -1.2418    0.0358 H   0  0  0  0  0  0  0  0  0  0  0  0
   -3.0680    0.2179   -0.6494 H   0  0  0  0  0  0  0  0  0  0  0  0
   -1.9874   -0.7799   -1.6820 H   0  0  0  0  0  0  0  0  0  0  0  0
   -1.2493    1.5859   -0.7088 H   0  0  0  0  0  0  0  0  0  0  0  0
   -1.3169    1.1858    1.8048 H   0  0  0  0  0  0  0  0  0  0  0  0
    0.9002   -0.1181    2.2524 H   0  0  0  0  0  0  0  0  0  0  0  0
    0.7666   -1.6596   -0.0218 H   0  0  0  0  0  0  0  0  0  0  0  0
    2.4709    0.7690   -0.7177 H   0  0  0  0  0  0  0  0  0  0  0  0
    2.9961   -0.3975    0.5936 H   0  0  0  0  0  0  0  0  0  0  0  0
    2.6709   -0.9604   -1.0668 H   0  0  0  0  0  0  0  0  0  0  0  0
  1  2  1  0
  2  3  1  0
  3  4  2  0
  4  5  1  0
  5  6  1  0
  5  7  1  0
  7  2  1  0
  1  8  1  0
  1  9  1  0
  1 10  1  0
  2 11  1  0
  3 12  1  0
  4 13  1  0
  5 14  1  0
  6 15  1  0
  6 16  1  0
  6 17  1  0
M  END
