
     RDKit          3D

 23 25  0  0  0  0  0  0  0  0999 V2000
   -2.2761    0.5683   -0.4497 C   0  0  0  0  0  0  0  0  0  0  0  0
   -1.3138   -0.3578    0.1840 C   0  0  0  0  0  0  0  0  0  0  0  0
   -0.5835    0.2271    1.3764 C   0  0  0  0  0  0  0  0  0  0  0  0
    0.8982   -0.1292    1.1722 C   0  0  0  0  0  0  0  0  0  0  0  0
    0.7301   -1.3981    0.3530 C   0  0  0  0  0  0  0  0  0  0  0  0
   -0.1581   -0.7555   -0.7317 C   0  0  0  0  0  0  0  0  0  0  0  0
    0.6679    0.4225   -1.1204 C   0  0  0  0  0  0  0  0  0  0  0  0
    2.1308    0.4501   -1.0543 C   0  0  0  0  0  0  0  0  0  0  0  0
    1.4360    0.8238    0.1733 C   0  0  0  0  0  0  0  0  0  0  0  0
   -2.6323    1.2910    0.3422 H   0  0  0  0  0  0  0  0  0  0  0  0
   -1.9161    1.1480   -1.2961 H   0  0  0  0  0  0  0  0  0  0  0  0
   -3.2050   -0.0214   -0.7018 H   0  0  0  0  0  0  0  0  0  0  0  0
   -1.7849   -1.3032    0.5448 H   0  0  0  0  0  0  0  0  0  0  0  0
   -0.9593   -0.1561    2.3393 H   0  0  0  0  0  0  0  0  0  0  0  0
   -0.6353    1.3377    1.3152 H   0  0  0  0  0  0  0  0  0  0  0  0
    1.4394   -0.2532    2.0902 H   0  0  0  0  0  0  0  0  0  0  0  0
    1.6500   -1.8002   -0.0436 H   0  0  0  0  0  0  0  0  0  0  0  0
    0.0663   -2.1309    0.8530 H   0  0  0  0  0  0  0  0  0  0  0  0
   -0.4264   -1.4400   -1.5143 H   0  0  0  0  0  0  0  0  0  0  0  0
    0.1247    1.2230   -1.6423 H   0  0  0  0  0  0  0  0  0  0  0  0
    2.7764   -0.4335   -1.0496 H   0  0  0  0  0  0  0  0  0  0  0  0
    2.6098    1.3103   -1.6067 H   0  0  0  0  0  0  0  0  0  0  0  0
    1.3613    1.8963    0.4669 H   0  0  0  0  0  0  0  0  0  0  0  0
  1  2  1  0
  2  3  1  0
  3  4  1  0
  4  5  1  0
  5  6  1  0
  6  7  1  0
  7  8  1  0
  8  9  1  0
  6  2  1  0
  9  7  1  0
  9  4  1  0
  1 10  1  0
  1 11  1  0
  1 12  1  0
  2 13  1  0
  3 14  1  0
  3 15  1  0
  4 16  1  0
  5 17  1  0
  5 18  1  0
  6 19  1  0
  7 20  1  0
  8 21  1  0
  8 22  1  0
  9 23  1  0
M  END
