
     RDKit          3D

 19 20  0  0  0  0  0  0  0  0999 V2000
   -2.0266   -0.2196   -1.2367 C   0  0  0  0  0  0  0  0  0  0  0  0
   -0.6248   -0.6364   -0.9581 C   0  0  0  0  0  0  0  0  0  0  0  0
   -0.3048   -0.9187    0.4542 C   0  0  0  0  0  0  0  0  0  0  0  0
    1.0361   -1.4754    0.7200 C   0  0  0  0  0  0  0  0  0  0  0  0
    1.4135   -2.5321    1.1335 O   0  0  0  0  0  0  0  0  0  0  0  0
    1.6228   -0.2060    0.2669 C   0  0  0  0  0  0  0  0  0  0  0  0
    2.4965   -0.2735   -0.8061 O   0  0  0  0  0  0  0  0  0  0  0  0
    0.2705    0.2780   -0.2020 C   0  0  0  0  0  0  0  0  0  0  0  0
   -0.1565    1.6661    0.1466 C   0  0  0  0  0  0  0  0  0  0  0  0
   -2.5159   -0.9644   -1.9175 H   0  0  0  0  0  0  0  0  0  0  0  0
   -2.6456   -0.1769   -0.3112 H   0  0  0  0  0  0  0  0  0  0  0  0
   -2.0584    0.7773   -1.6849 H   0  0  0  0  0  0  0  0  0  0  0  0
   -0.1124   -1.2704   -1.7259 H   0  0  0  0  0  0  0  0  0  0  0  0
   -1.0499   -0.8439    1.2623 H   0  0  0  0  0  0  0  0  0  0  0  0
    1.9857    0.4733    1.0754 H   0  0  0  0  0  0  0  0  0  0  0  0
    3.3514    0.1813   -0.5637 H   0  0  0  0  0  0  0  0  0  0  0  0
    0.7784    2.2863    0.2337 H   0  0  0  0  0  0  0  0  0  0  0  0
   -0.6458    1.7283    1.1293 H   0  0  0  0  0  0  0  0  0  0  0  0
   -0.8143    2.1267   -0.6323 H   0  0  0  0  0  0  0  0  0  0  0  0
  1  2  1  0
  2  3  1  0
  3  4  1  0
  4  5  2  0
  4  6  1  0
  6  7  1  0
  6  8  1  0
  8  9  1  0
  8  2  1  0
  8  3  1  0
  1 10  1  0
  1 11  1  0
  1 12  1  0
  2 13  1  0
  3 14  1  0
  6 15  1  0
  7 16  1  0
  9 17  1  0
  9 18  1  0
  9 19  1  0
M  END
