
     RDKit          3D

 23 23  0  0  0  0  0  0  0  0999 V2000
    2.6611   -0.2761   -0.6184 C   0  0  0  0  0  0  0  0  0  0  0  0
    2.0505    0.5968    0.4793 C   0  0  0  0  0  0  0  0  0  0  0  0
    0.7162    1.0727    0.0542 C   0  0  0  0  0  0  0  0  0  0  0  0
   -0.1376    0.1250    0.4245 C   0  0  0  0  0  0  0  0  0  0  0  0
   -1.6059    0.0548    0.2614 C   0  0  0  0  0  0  0  0  0  0  0  0
   -2.0944    1.3335   -0.3648 C   0  0  0  0  0  0  0  0  0  0  0  0
   -1.9341   -1.1600   -0.5557 C   0  0  0  0  0  0  0  0  0  0  0  0
    0.6650   -0.9445    1.0815 C   0  0  0  0  0  0  0  0  0  0  0  0
    1.7389   -0.2123    1.5841 O   0  0  0  0  0  0  0  0  0  0  0  0
    1.8907   -0.6462   -1.3019 H   0  0  0  0  0  0  0  0  0  0  0  0
    3.4312    0.3318   -1.1178 H   0  0  0  0  0  0  0  0  0  0  0  0
    3.1803   -1.1048   -0.0850 H   0  0  0  0  0  0  0  0  0  0  0  0
    2.6864    1.4366    0.7543 H   0  0  0  0  0  0  0  0  0  0  0  0
    0.4017    1.9776   -0.4525 H   0  0  0  0  0  0  0  0  0  0  0  0
   -2.1266   -0.0236    1.2595 H   0  0  0  0  0  0  0  0  0  0  0  0
   -3.2207    1.3898   -0.3281 H   0  0  0  0  0  0  0  0  0  0  0  0
   -1.7054    2.1671    0.2845 H   0  0  0  0  0  0  0  0  0  0  0  0
   -1.7063    1.5094   -1.3722 H   0  0  0  0  0  0  0  0  0  0  0  0
   -1.9829   -2.0256    0.1642 H   0  0  0  0  0  0  0  0  0  0  0  0
   -1.0901   -1.4278   -1.2547 H   0  0  0  0  0  0  0  0  0  0  0  0
   -2.8986   -1.0640   -1.1084 H   0  0  0  0  0  0  0  0  0  0  0  0
    0.0961   -1.4389    1.9047 H   0  0  0  0  0  0  0  0  0  0  0  0
    0.9846   -1.6710    0.3073 H   0  0  0  0  0  0  0  0  0  0  0  0
  1  2  1  0
  2  3  1  0
  3  4  2  0
  4  5  1  0
  5  6  1  0
  5  7  1  0
  4  8  1  0
  8  9  1  0
  9  2  1  0
  1 10  1  0
  1 11  1  0
  1 12  1  0
  2 13  1  0
  3 14  1  0
  5 15  1  0
  6 16  1  0
  6 17  1  0
  6 18  1  0
  7 19  1  0
  7 20  1  0
  7 21  1  0
  8 22  1  0
  8 23  1  0
M  END
