
     RDKit          3D

 21 22  0  0  0  0  0  0  0  0999 V2000
   -0.7367    1.7774   -0.0086 C   0  0  0  0  0  0  0  0  0  0  0  0
   -0.2059    0.5640   -0.7746 C   0  0  0  0  0  0  0  0  0  0  0  0
    1.3095    0.5675   -0.7607 C   0  0  0  0  0  0  0  0  0  0  0  0
    1.8228   -0.5693    0.1085 C   0  0  0  0  0  0  0  0  0  0  0  0
    1.1048   -0.5869    1.4145 C   0  0  0  0  0  0  0  0  0  0  0  0
   -0.2420   -0.6351    1.3194 C   0  0  0  0  0  0  0  0  0  0  0  0
   -0.7626   -0.6619   -0.0778 C   0  0  0  0  0  0  0  0  0  0  0  0
   -1.9313   -1.3119   -0.4976 C   0  0  0  0  0  0  0  0  0  0  0  0
   -0.6830   -1.8934   -0.6958 O   0  0  0  0  0  0  0  0  0  0  0  0
   -1.6109    2.1393   -0.5594 H   0  0  0  0  0  0  0  0  0  0  0  0
   -1.0702    1.5003    1.0127 H   0  0  0  0  0  0  0  0  0  0  0  0
    0.0761    2.5193    0.1031 H   0  0  0  0  0  0  0  0  0  0  0  0
   -0.6144    0.5494   -1.8154 H   0  0  0  0  0  0  0  0  0  0  0  0
    1.6689    1.5134   -0.2777 H   0  0  0  0  0  0  0  0  0  0  0  0
    1.7188    0.4769   -1.7752 H   0  0  0  0  0  0  0  0  0  0  0  0
    2.8989   -0.4170    0.2858 H   0  0  0  0  0  0  0  0  0  0  0  0
    1.6116   -1.5346   -0.4092 H   0  0  0  0  0  0  0  0  0  0  0  0
    1.6061   -0.5634    2.3720 H   0  0  0  0  0  0  0  0  0  0  0  0
   -0.8489   -0.6512    2.1970 H   0  0  0  0  0  0  0  0  0  0  0  0
   -2.6217   -1.8313    0.2271 H   0  0  0  0  0  0  0  0  0  0  0  0
   -2.4898   -0.9516   -1.3882 H   0  0  0  0  0  0  0  0  0  0  0  0
  1  2  1  0
  2  3  1  0
  3  4  1  0
  4  5  1  0
  5  6  2  0
  6  7  1  0
  7  8  1  0
  8  9  1  0
  7  2  1  0
  9  7  1  0
  1 10  1  0
  1 11  1  0
  1 12  1  0
  2 13  1  0
  3 14  1  0
  3 15  1  0
  4 16  1  0
  4 17  1  0
  5 18  1  0
  6 19  1  0
  8 20  1  0
  8 21  1  0
M  END
