
     RDKit          3D

 22 22  0  0  0  0  0  0  0  0999 V2000
    2.8374    0.3602   -0.0733 C   0  0  0  0  0  0  0  0  0  0  0  0
    1.4404    0.1540    0.4432 C   0  0  0  0  0  0  0  0  0  0  0  0
    1.0048   -1.3002    0.4598 C   0  0  0  0  0  0  0  0  0  0  0  0
    0.3377   -0.2605   -0.4447 C   0  0  0  0  0  0  0  0  0  0  0  0
   -1.0722    0.0422   -0.0998 C   0  0  0  0  0  0  0  0  0  0  0  0
   -1.3711    1.5104    0.0378 C   0  0  0  0  0  0  0  0  0  0  0  0
   -1.9608   -0.6119   -1.1579 C   0  0  0  0  0  0  0  0  0  0  0  0
   -1.3908   -0.5547    1.1140 O   0  0  0  0  0  0  0  0  0  0  0  0
    3.1196    1.4407   -0.0859 H   0  0  0  0  0  0  0  0  0  0  0  0
    3.5245   -0.1289    0.6747 H   0  0  0  0  0  0  0  0  0  0  0  0
    3.0280   -0.1463   -1.0357 H   0  0  0  0  0  0  0  0  0  0  0  0
    1.1696    0.7864    1.2974 H   0  0  0  0  0  0  0  0  0  0  0  0
    1.6403   -2.0607   -0.0142 H   0  0  0  0  0  0  0  0  0  0  0  0
    0.4796   -1.6392    1.3540 H   0  0  0  0  0  0  0  0  0  0  0  0
    0.5458   -0.3945   -1.5344 H   0  0  0  0  0  0  0  0  0  0  0  0
   -0.8503    1.9011    0.9106 H   0  0  0  0  0  0  0  0  0  0  0  0
   -2.4628    1.6004    0.2362 H   0  0  0  0  0  0  0  0  0  0  0  0
   -1.1691    2.0839   -0.8738 H   0  0  0  0  0  0  0  0  0  0  0  0
   -3.0002   -0.4010   -0.8606 H   0  0  0  0  0  0  0  0  0  0  0  0
   -1.7390   -1.6957   -1.1145 H   0  0  0  0  0  0  0  0  0  0  0  0
   -1.7546   -0.1612   -2.1503 H   0  0  0  0  0  0  0  0  0  0  0  0
   -2.3567   -0.5245    1.2790 H   0  0  0  0  0  0  0  0  0  0  0  0
  1  2  1  0
  2  3  1  0
  3  4  1  0
  4  5  1  0
  5  6  1  0
  5  7  1  0
  5  8  1  0
  4  2  1  0
  1  9  1  0
  1 10  1  0
  1 11  1  0
  2 12  1  0
  3 13  1  0
  3 14  1  0
  4 15  1  0
  6 16  1  0
  6 17  1  0
  6 18  1  0
  7 19  1  0
  7 20  1  0
  7 21  1  0
  8 22  1  0
M  END
