
     RDKit          3D

 23 24  0  0  0  0  0  0  0  0999 V2000
    2.9532   -0.5064   -0.3218 C   0  0  0  0  0  0  0  0  0  0  0  0
    1.4720   -0.6926   -0.2830 C   0  0  0  0  0  0  0  0  0  0  0  0
    0.6785    0.1725   -1.2518 C   0  0  0  0  0  0  0  0  0  0  0  0
   -0.2454    0.5025   -0.1237 C   0  0  0  0  0  0  0  0  0  0  0  0
    0.7588    0.0234    0.8637 C   0  0  0  0  0  0  0  0  0  0  0  0
   -0.6974    1.7856   -0.0215 O   0  0  0  0  0  0  0  0  0  0  0  0
   -1.9789    1.3204   -0.3698 C   0  0  0  0  0  0  0  0  0  0  0  0
   -1.5889   -0.1108   -0.1212 C   0  0  0  0  0  0  0  0  0  0  0  0
   -2.1240   -0.5881    1.2031 C   0  0  0  0  0  0  0  0  0  0  0  0
    3.4147   -1.5316   -0.3079 H   0  0  0  0  0  0  0  0  0  0  0  0
    3.3036    0.0380   -1.2256 H   0  0  0  0  0  0  0  0  0  0  0  0
    3.3402    0.0579    0.5647 H   0  0  0  0  0  0  0  0  0  0  0  0
    1.1083   -1.7324   -0.3490 H   0  0  0  0  0  0  0  0  0  0  0  0
    1.1970    1.0764   -1.6068 H   0  0  0  0  0  0  0  0  0  0  0  0
    0.1912   -0.3788   -2.0761 H   0  0  0  0  0  0  0  0  0  0  0  0
    0.4254   -0.6611    1.6507 H   0  0  0  0  0  0  0  0  0  0  0  0
    1.3835    0.8473    1.2925 H   0  0  0  0  0  0  0  0  0  0  0  0
   -2.1932    1.5783   -1.4254 H   0  0  0  0  0  0  0  0  0  0  0  0
   -2.7014    1.7533    0.3700 H   0  0  0  0  0  0  0  0  0  0  0  0
   -1.7862   -0.8250   -0.9336 H   0  0  0  0  0  0  0  0  0  0  0  0
   -1.7019    0.0072    2.0444 H   0  0  0  0  0  0  0  0  0  0  0  0
   -3.2344   -0.4511    1.1741 H   0  0  0  0  0  0  0  0  0  0  0  0
   -1.9746   -1.6849    1.3516 H   0  0  0  0  0  0  0  0  0  0  0  0
  1  2  1  0
  2  3  1  0
  3  4  1  0
  4  5  1  0
  4  6  1  0
  6  7  1  0
  7  8  1  0
  8  9  1  0
  5  2  1  0
  8  4  1  0
  1 10  1  0
  1 11  1  0
  1 12  1  0
  2 13  1  0
  3 14  1  0
  3 15  1  0
  5 16  1  0
  5 17  1  0
  7 18  1  0
  7 19  1  0
  8 20  1  0
  9 21  1  0
  9 22  1  0
  9 23  1  0
M  END
