
     RDKit          3D

 23 23  0  0  0  0  0  0  0  0999 V2000
   -2.2942    0.6620    1.1115 C   0  0  0  0  0  0  0  0  0  0  0  0
   -0.8763    0.5961    0.5799 C   0  0  0  0  0  0  0  0  0  0  0  0
    0.1020   -0.0522    1.4823 C   0  0  0  0  0  0  0  0  0  0  0  0
    0.5563   -0.9181    0.3664 C   0  0  0  0  0  0  0  0  0  0  0  0
    1.9133   -0.7043   -0.1825 C   0  0  0  0  0  0  0  0  0  0  0  0
    2.2125    0.6081   -0.7433 C   0  0  0  0  0  0  0  0  0  0  0  0
    3.3428    0.7661   -1.2074 O   0  0  0  0  0  0  0  0  0  0  0  0
   -0.6374   -0.5104   -0.4258 C   0  0  0  0  0  0  0  0  0  0  0  0
   -0.4067   -0.0347   -1.8228 C   0  0  0  0  0  0  0  0  0  0  0  0
   -2.7013    1.6808    1.0949 H   0  0  0  0  0  0  0  0  0  0  0  0
   -2.2847    0.3375    2.1723 H   0  0  0  0  0  0  0  0  0  0  0  0
   -2.8910   -0.0649    0.5259 H   0  0  0  0  0  0  0  0  0  0  0  0
   -0.6219    1.5625    0.1255 H   0  0  0  0  0  0  0  0  0  0  0  0
   -0.4499   -0.5941    2.3049 H   0  0  0  0  0  0  0  0  0  0  0  0
    0.8615    0.5803    1.9694 H   0  0  0  0  0  0  0  0  0  0  0  0
    0.4533   -2.0018    0.6908 H   0  0  0  0  0  0  0  0  0  0  0  0
    2.1806   -1.4912   -0.9242 H   0  0  0  0  0  0  0  0  0  0  0  0
    2.6388   -0.8733    0.6675 H   0  0  0  0  0  0  0  0  0  0  0  0
    1.5695    1.4732   -0.8082 H   0  0  0  0  0  0  0  0  0  0  0  0
   -1.4916   -1.2181   -0.3579 H   0  0  0  0  0  0  0  0  0  0  0  0
    0.5456   -0.4366   -2.2150 H   0  0  0  0  0  0  0  0  0  0  0  0
   -1.2226   -0.4407   -2.4635 H   0  0  0  0  0  0  0  0  0  0  0  0
   -0.4985    1.0740   -1.9405 H   0  0  0  0  0  0  0  0  0  0  0  0
  1  2  1  0
  2  3  1  0
  3  4  1  0
  4  5  1  0
  5  6  1  0
  6  7  2  0
  4  8  1  0
  8  9  1  0
  8  2  1  0
  1 10  1  0
  1 11  1  0
  1 12  1  0
  2 13  1  0
  3 14  1  0
  3 15  1  0
  4 16  1  0
  5 17  1  0
  5 18  1  0
  6 19  1  0
  8 20  1  0
  9 21  1  0
  9 22  1  0
  9 23  1  0
M  END
