
     RDKit          3D

 23 24  0  0  0  0  0  0  0  0999 V2000
   -2.9456    0.2880   -0.1734 C   0  0  0  0  0  0  0  0  0  0  0  0
   -1.7858    0.0440    0.7437 C   0  0  0  0  0  0  0  0  0  0  0  0
   -1.1295   -1.2769    0.6320 C   0  0  0  0  0  0  0  0  0  0  0  0
   -0.3964   -0.0010    0.2942 C   0  0  0  0  0  0  0  0  0  0  0  0
    0.7030    0.4242    1.2307 C   0  0  0  0  0  0  0  0  0  0  0  0
    1.8376    1.1140    0.5369 C   0  0  0  0  0  0  0  0  0  0  0  0
    2.3692    0.2304   -0.5790 C   0  0  0  0  0  0  0  0  0  0  0  0
    1.2158   -0.5250   -1.1685 C   0  0  0  0  0  0  0  0  0  0  0  0
   -0.0044    0.1523   -1.0162 O   0  0  0  0  0  0  0  0  0  0  0  0
   -3.8004   -0.3355    0.2200 H   0  0  0  0  0  0  0  0  0  0  0  0
   -2.7763   -0.0621   -1.1996 H   0  0  0  0  0  0  0  0  0  0  0  0
   -3.3211    1.3408   -0.1254 H   0  0  0  0  0  0  0  0  0  0  0  0
   -1.9546    0.4280    1.7802 H   0  0  0  0  0  0  0  0  0  0  0  0
   -1.4622   -1.9548   -0.1768 H   0  0  0  0  0  0  0  0  0  0  0  0
   -0.7861   -1.8384    1.5350 H   0  0  0  0  0  0  0  0  0  0  0  0
    0.2943    1.1032    2.0114 H   0  0  0  0  0  0  0  0  0  0  0  0
    1.1213   -0.5187    1.6778 H   0  0  0  0  0  0  0  0  0  0  0  0
    2.6754    1.1867    1.2836 H   0  0  0  0  0  0  0  0  0  0  0  0
    1.6264    2.1367    0.2162 H   0  0  0  0  0  0  0  0  0  0  0  0
    2.9177    0.8498   -1.3306 H   0  0  0  0  0  0  0  0  0  0  0  0
    3.1089   -0.4958   -0.1548 H   0  0  0  0  0  0  0  0  0  0  0  0
    1.1279   -1.4971   -0.6169 H   0  0  0  0  0  0  0  0  0  0  0  0
    1.3651   -0.7927   -2.2355 H   0  0  0  0  0  0  0  0  0  0  0  0
  1  2  1  0
  2  3  1  0
  3  4  1  0
  4  5  1  0
  5  6  1  0
  6  7  1  0
  7  8  1  0
  8  9  1  0
  4  2  1  0
  9  4  1  0
  1 10  1  0
  1 11  1  0
  1 12  1  0
  2 13  1  0
  3 14  1  0
  3 15  1  0
  5 16  1  0
  5 17  1  0
  6 18  1  0
  6 19  1  0
  7 20  1  0
  7 21  1  0
  8 22  1  0
  8 23  1  0
M  END
