
     RDKit          3D

 18 19  0  0  0  0  0  0  0  0999 V2000
   -1.6016   -1.0147   -0.0821 C   0  0  0  0  0  0  0  0  0  0  0  0
   -1.1146    0.2396    0.5630 C   0  0  0  0  0  0  0  0  0  0  0  0
   -0.8023    1.3897   -0.3375 C   0  0  0  0  0  0  0  0  0  0  0  0
    0.4037    1.5634    0.3316 O   0  0  0  0  0  0  0  0  0  0  0  0
    0.3245    0.3094    0.9339 C   0  0  0  0  0  0  0  0  0  0  0  0
    1.2489   -0.6559    0.2734 C   0  0  0  0  0  0  0  0  0  0  0  0
    2.0035   -0.2209   -0.8951 C   0  0  0  0  0  0  0  0  0  0  0  0
    2.6458   -0.1407    0.3943 O   0  0  0  0  0  0  0  0  0  0  0  0
   -1.3451   -1.9269    0.5092 H   0  0  0  0  0  0  0  0  0  0  0  0
   -2.7295   -0.9757   -0.0729 H   0  0  0  0  0  0  0  0  0  0  0  0
   -1.3195   -1.1206   -1.1447 H   0  0  0  0  0  0  0  0  0  0  0  0
   -1.7798    0.5438    1.4146 H   0  0  0  0  0  0  0  0  0  0  0  0
   -1.4466    2.2748   -0.1808 H   0  0  0  0  0  0  0  0  0  0  0  0
   -0.5961    1.1231   -1.3954 H   0  0  0  0  0  0  0  0  0  0  0  0
    0.4800    0.4397    2.0359 H   0  0  0  0  0  0  0  0  0  0  0  0
    1.2858   -1.7109    0.6158 H   0  0  0  0  0  0  0  0  0  0  0  0
    1.7790    0.7899   -1.2962 H   0  0  0  0  0  0  0  0  0  0  0  0
    2.5641   -0.9071   -1.5478 H   0  0  0  0  0  0  0  0  0  0  0  0
  1  2  1  0
  2  3  1  0
  3  4  1  0
  4  5  1  0
  5  6  1  0
  6  7  1  0
  7  8  1  0
  5  2  1  0
  8  6  1  0
  1  9  1  0
  1 10  1  0
  1 11  1  0
  2 12  1  0
  3 13  1  0
  3 14  1  0
  5 15  1  0
  6 16  1  0
  7 17  1  0
  7 18  1  0
M  END
