
     RDKit          3D

 18 19  0  0  0  0  0  0  0  0999 V2000
    1.8735   -0.3874   -0.0255 C   0  0  0  0  0  0  0  0  0  0  0  0
    0.4841   -0.5065    0.5139 C   0  0  0  0  0  0  0  0  0  0  0  0
   -0.3359    0.7277    0.6100 C   0  0  0  0  0  0  0  0  0  0  0  0
    0.2967    2.0150    0.3970 C   0  0  0  0  0  0  0  0  0  0  0  0
    1.0341    2.4880    1.2212 O   0  0  0  0  0  0  0  0  0  0  0  0
   -1.1843    0.2238   -0.5338 C   0  0  0  0  0  0  0  0  0  0  0  0
   -1.9110   -1.0766   -0.2906 C   0  0  0  0  0  0  0  0  0  0  0  0
   -0.4479   -1.0381   -0.5611 C   0  0  0  0  0  0  0  0  0  0  0  0
    1.9398    0.1791   -0.9673 H   0  0  0  0  0  0  0  0  0  0  0  0
    2.5972   -0.0387    0.7471 H   0  0  0  0  0  0  0  0  0  0  0  0
    2.2158   -1.4331   -0.2841 H   0  0  0  0  0  0  0  0  0  0  0  0
    0.4708   -1.1737    1.3991 H   0  0  0  0  0  0  0  0  0  0  0  0
   -0.9609    0.7162    1.5439 H   0  0  0  0  0  0  0  0  0  0  0  0
    0.1126    2.5609   -0.5018 H   0  0  0  0  0  0  0  0  0  0  0  0
   -1.4056    0.8476   -1.3942 H   0  0  0  0  0  0  0  0  0  0  0  0
   -2.2141   -1.2760    0.7518 H   0  0  0  0  0  0  0  0  0  0  0  0
   -2.5377   -1.4069   -1.1264 H   0  0  0  0  0  0  0  0  0  0  0  0
   -0.0274   -1.4213   -1.4992 H   0  0  0  0  0  0  0  0  0  0  0  0
  1  2  1  0
  2  3  1  0
  3  4  1  0
  4  5  2  0
  3  6  1  0
  6  7  1  0
  7  8  1  0
  8  2  1  0
  8  6  1  0
  1  9  1  0
  1 10  1  0
  1 11  1  0
  2 12  1  0
  3 13  1  0
  4 14  1  0
  6 15  1  0
  7 16  1  0
  7 17  1  0
  8 18  1  0
M  END
