
     RDKit          3D

 23 24  0  0  0  0  0  0  0  0999 V2000
    1.9218    0.5113   -0.5079 C   0  0  0  0  0  0  0  0  0  0  0  0
    0.7768    0.5327    0.4620 C   0  0  0  0  0  0  0  0  0  0  0  0
   -0.3359    1.4590    0.0590 C   0  0  0  0  0  0  0  0  0  0  0  0
   -1.5222    0.9094    0.8657 C   0  0  0  0  0  0  0  0  0  0  0  0
   -1.3147   -0.2998   -0.0612 C   0  0  0  0  0  0  0  0  0  0  0  0
   -1.0006    0.7736   -1.1104 C   0  0  0  0  0  0  0  0  0  0  0  0
   -0.0014   -0.7918    0.4352 C   0  0  0  0  0  0  0  0  0  0  0  0
    0.6568   -1.8128   -0.4272 C   0  0  0  0  0  0  0  0  0  0  0  0
   -0.0339   -1.2671    1.7438 O   0  0  0  0  0  0  0  0  0  0  0  0
    2.5394    1.4013   -0.3183 H   0  0  0  0  0  0  0  0  0  0  0  0
    2.5386   -0.3856   -0.2634 H   0  0  0  0  0  0  0  0  0  0  0  0
    1.6340    0.4988   -1.5579 H   0  0  0  0  0  0  0  0  0  0  0  0
    1.1388    0.7805    1.4585 H   0  0  0  0  0  0  0  0  0  0  0  0
   -0.1917    2.5054    0.0470 H   0  0  0  0  0  0  0  0  0  0  0  0
   -2.4798    1.3670    0.6264 H   0  0  0  0  0  0  0  0  0  0  0  0
   -1.2705    0.7240    1.9130 H   0  0  0  0  0  0  0  0  0  0  0  0
   -2.1351   -0.9403   -0.2286 H   0  0  0  0  0  0  0  0  0  0  0  0
   -1.9409    1.3204   -1.3681 H   0  0  0  0  0  0  0  0  0  0  0  0
   -0.3718    0.4504   -1.9260 H   0  0  0  0  0  0  0  0  0  0  0  0
    0.9626   -1.4404   -1.4243 H   0  0  0  0  0  0  0  0  0  0  0  0
   -0.0821   -2.6199   -0.6094 H   0  0  0  0  0  0  0  0  0  0  0  0
    1.4920   -2.2694    0.1426 H   0  0  0  0  0  0  0  0  0  0  0  0
   -0.9802   -1.4065    2.0496 H   0  0  0  0  0  0  0  0  0  0  0  0
  1  2  1  0
  2  3  1  0
  3  4  1  0
  4  5  1  0
  5  6  1  0
  5  7  1  0
  7  8  1  0
  7  9  1  0
  7  2  1  0
  6  3  1  0
  1 10  1  0
  1 11  1  0
  1 12  1  0
  2 13  1  0
  3 14  1  0
  4 15  1  0
  4 16  1  0
  5 17  1  0
  6 18  1  0
  6 19  1  0
  8 20  1  0
  8 21  1  0
  8 22  1  0
  9 23  1  0
M  END
