
     RDKit          3D

 20 20  0  0  0  0  0  0  0  0999 V2000
    1.3079   -1.4863    0.5370 C   0  0  0  0  0  0  0  0  0  0  0  0
    0.7958   -0.4146   -0.4156 C   0  0  0  0  0  0  0  0  0  0  0  0
   -0.5748   -0.8036   -0.8512 C   0  0  0  0  0  0  0  0  0  0  0  0
   -1.6549    0.1837   -0.5503 C   0  0  0  0  0  0  0  0  0  0  0  0
   -1.5136    0.8841    0.7300 C   0  0  0  0  0  0  0  0  0  0  0  0
   -0.2927    1.2067    1.1345 C   0  0  0  0  0  0  0  0  0  0  0  0
    0.8813    0.8781    0.3352 C   0  0  0  0  0  0  0  0  0  0  0  0
    1.0615    1.9297   -0.5964 O   0  0  0  0  0  0  0  0  0  0  0  0
    0.5308   -1.6647    1.3312 H   0  0  0  0  0  0  0  0  0  0  0  0
    2.2608   -1.1989    1.0159 H   0  0  0  0  0  0  0  0  0  0  0  0
    1.4141   -2.4283   -0.0565 H   0  0  0  0  0  0  0  0  0  0  0  0
    1.5260   -0.3803   -1.2522 H   0  0  0  0  0  0  0  0  0  0  0  0
   -0.8911   -1.7866   -0.4399 H   0  0  0  0  0  0  0  0  0  0  0  0
   -0.5551   -0.9323   -1.9585 H   0  0  0  0  0  0  0  0  0  0  0  0
   -2.6481   -0.3354   -0.5343 H   0  0  0  0  0  0  0  0  0  0  0  0
   -1.7486    0.9612   -1.3451 H   0  0  0  0  0  0  0  0  0  0  0  0
   -2.3940    1.1437    1.3541 H   0  0  0  0  0  0  0  0  0  0  0  0
   -0.1863    1.7265    2.0835 H   0  0  0  0  0  0  0  0  0  0  0  0
    1.7802    0.9266    0.9855 H   0  0  0  0  0  0  0  0  0  0  0  0
    0.9007    1.5909   -1.5069 H   0  0  0  0  0  0  0  0  0  0  0  0
  1  2  1  0
  2  3  1  0
  3  4  1  0
  4  5  1  0
  5  6  2  0
  6  7  1  0
  7  8  1  0
  7  2  1  0
  1  9  1  0
  1 10  1  0
  1 11  1  0
  2 12  1  0
  3 13  1  0
  3 14  1  0
  4 15  1  0
  4 16  1  0
  5 17  1  0
  6 18  1  0
  7 19  1  0
  8 20  1  0
M  END
