
     RDKit          3D

 23 24  0  0  0  0  0  0  0  0999 V2000
    2.5615    0.3349   -0.7604 C   0  0  0  0  0  0  0  0  0  0  0  0
    1.5835   -0.4327    0.1122 C   0  0  0  0  0  0  0  0  0  0  0  0
    1.4608    0.1769    1.4389 C   0  0  0  0  0  0  0  0  0  0  0  0
    0.3160    0.8476    1.4797 C   0  0  0  0  0  0  0  0  0  0  0  0
   -0.4272    0.7520    0.2015 C   0  0  0  0  0  0  0  0  0  0  0  0
   -1.6524   -0.1348    0.4096 C   0  0  0  0  0  0  0  0  0  0  0  0
   -2.6843    0.1939   -0.6267 C   0  0  0  0  0  0  0  0  0  0  0  0
   -0.7795   -1.3309    0.1144 C   0  0  0  0  0  0  0  0  0  0  0  0
    0.2183   -0.3984   -0.5344 C   0  0  0  0  0  0  0  0  0  0  0  0
    3.2134   -0.3746   -1.3109 H   0  0  0  0  0  0  0  0  0  0  0  0
    1.9911    0.9781   -1.4539 H   0  0  0  0  0  0  0  0  0  0  0  0
    3.1838    1.0065   -0.1337 H   0  0  0  0  0  0  0  0  0  0  0  0
    1.8799   -1.5089    0.1470 H   0  0  0  0  0  0  0  0  0  0  0  0
    2.1607    0.1143    2.2695 H   0  0  0  0  0  0  0  0  0  0  0  0
   -0.0570    1.4094    2.3366 H   0  0  0  0  0  0  0  0  0  0  0  0
   -0.5808    1.6597   -0.3693 H   0  0  0  0  0  0  0  0  0  0  0  0
   -2.0815   -0.0855    1.4205 H   0  0  0  0  0  0  0  0  0  0  0  0
   -2.2763    0.1198   -1.6637 H   0  0  0  0  0  0  0  0  0  0  0  0
   -3.6190   -0.3954   -0.4970 H   0  0  0  0  0  0  0  0  0  0  0  0
   -2.9933    1.2646   -0.4416 H   0  0  0  0  0  0  0  0  0  0  0  0
   -0.4295   -1.7945    1.0588 H   0  0  0  0  0  0  0  0  0  0  0  0
   -1.1805   -2.0669   -0.5903 H   0  0  0  0  0  0  0  0  0  0  0  0
    0.1921   -0.3352   -1.6239 H   0  0  0  0  0  0  0  0  0  0  0  0
  1  2  1  0
  2  3  1  0
  3  4  2  0
  4  5  1  0
  5  6  1  0
  6  7  1  0
  6  8  1  0
  8  9  1  0
  9  2  1  0
  9  5  1  0
  1 10  1  0
  1 11  1  0
  1 12  1  0
  2 13  1  0
  3 14  1  0
  4 15  1  0
  5 16  1  0
  6 17  1  0
  7 18  1  0
  7 19  1  0
  7 20  1  0
  8 21  1  0
  8 22  1  0
  9 23  1  0
M  END
