
     RDKit          3D

 20 20  0  0  0  0  0  0  0  0999 V2000
    2.1775   -0.5463    0.1825 C   0  0  0  0  0  0  0  0  0  0  0  0
    0.9395   -0.2251   -0.6130 C   0  0  0  0  0  0  0  0  0  0  0  0
    0.4228    1.1060   -0.1482 C   0  0  0  0  0  0  0  0  0  0  0  0
   -1.0953    0.9935   -0.2761 C   0  0  0  0  0  0  0  0  0  0  0  0
   -1.6439    1.9728    0.5322 O   0  0  0  0  0  0  0  0  0  0  0  0
   -1.3079   -0.4060    0.2831 C   0  0  0  0  0  0  0  0  0  0  0  0
   -2.5470   -0.9167   -0.0604 O   0  0  0  0  0  0  0  0  0  0  0  0
   -0.1900   -1.1683   -0.3845 C   0  0  0  0  0  0  0  0  0  0  0  0
    2.1417   -0.0111    1.1679 H   0  0  0  0  0  0  0  0  0  0  0  0
    2.3523   -1.6112    0.3375 H   0  0  0  0  0  0  0  0  0  0  0  0
    3.0337   -0.0665   -0.3622 H   0  0  0  0  0  0  0  0  0  0  0  0
    1.2114   -0.2221   -1.7057 H   0  0  0  0  0  0  0  0  0  0  0  0
    0.6299    1.1776    0.9487 H   0  0  0  0  0  0  0  0  0  0  0  0
    0.8289    1.9659   -0.6746 H   0  0  0  0  0  0  0  0  0  0  0  0
   -1.4118    1.0508   -1.3273 H   0  0  0  0  0  0  0  0  0  0  0  0
   -0.9997    2.2707    1.2069 H   0  0  0  0  0  0  0  0  0  0  0  0
   -1.1077   -0.4075    1.3629 H   0  0  0  0  0  0  0  0  0  0  0  0
   -2.9352   -1.3775    0.7150 H   0  0  0  0  0  0  0  0  0  0  0  0
    0.1040   -2.0606    0.1873 H   0  0  0  0  0  0  0  0  0  0  0  0
   -0.6032   -1.5184   -1.3720 H   0  0  0  0  0  0  0  0  0  0  0  0
  1  2  1  0
  2  3  1  0
  3  4  1  0
  4  5  1  0
  4  6  1  0
  6  7  1  0
  6  8  1  0
  8  2  1  0
  1  9  1  0
  1 10  1  0
  1 11  1  0
  2 12  1  0
  3 13  1  0
  3 14  1  0
  4 15  1  0
  5 16  1  0
  6 17  1  0
  7 18  1  0
  8 19  1  0
  8 20  1  0
M  END
