
     RDKit          3D

 19 21  0  0  0  0  0  0  0  0999 V2000
   -1.8630    0.9575   -1.0837 C   0  0  0  0  0  0  0  0  0  0  0  0
   -1.8335   -0.2266   -0.1304 C   0  0  0  0  0  0  0  0  0  0  0  0
   -0.8086   -0.1301    0.9293 C   0  0  0  0  0  0  0  0  0  0  0  0
    0.5086    0.3855    0.4374 C   0  0  0  0  0  0  0  0  0  0  0  0
    1.6204    1.0286    0.0978 C   0  0  0  0  0  0  0  0  0  0  0  0
    2.4434    0.0503   -0.6844 C   0  0  0  0  0  0  0  0  0  0  0  0
    1.4027   -0.7218   -1.2637 O   0  0  0  0  0  0  0  0  0  0  0  0
    0.6799   -1.0044   -0.1360 C   0  0  0  0  0  0  0  0  0  0  0  0
   -0.7711   -1.2299   -0.1889 C   0  0  0  0  0  0  0  0  0  0  0  0
   -2.4452    1.7570   -0.5366 H   0  0  0  0  0  0  0  0  0  0  0  0
   -0.8713    1.3885   -1.2625 H   0  0  0  0  0  0  0  0  0  0  0  0
   -2.4206    0.7325   -2.0133 H   0  0  0  0  0  0  0  0  0  0  0  0
   -2.8367   -0.5343    0.1971 H   0  0  0  0  0  0  0  0  0  0  0  0
   -0.9183   -0.5120    1.9357 H   0  0  0  0  0  0  0  0  0  0  0  0
    1.8716    2.0478    0.3402 H   0  0  0  0  0  0  0  0  0  0  0  0
    3.0788    0.5174   -1.4269 H   0  0  0  0  0  0  0  0  0  0  0  0
    2.9824   -0.5671    0.0702 H   0  0  0  0  0  0  0  0  0  0  0  0
    1.2495   -1.6748    0.5467 H   0  0  0  0  0  0  0  0  0  0  0  0
   -1.0689   -2.2642    0.1652 H   0  0  0  0  0  0  0  0  0  0  0  0
  1  2  1  0
  2  3  1  0
  3  4  1  0
  4  5  2  0
  5  6  1  0
  6  7  1  0
  7  8  1  0
  8  9  1  0
  9  2  1  0
  9  3  1  0
  8  4  1  0
  1 10  1  0
  1 11  1  0
  1 12  1  0
  2 13  1  0
  3 14  1  0
  5 15  1  0
  6 16  1  0
  6 17  1  0
  8 18  1  0
  9 19  1  0
M  END
