
     RDKit          3D

 21 22  0  0  0  0  0  0  0  0999 V2000
   -1.7726   -0.4564    0.8066 C   0  0  0  0  0  0  0  0  0  0  0  0
   -1.0053   -0.2463   -0.4475 C   0  0  0  0  0  0  0  0  0  0  0  0
    0.3230   -0.9921   -0.5452 C   0  0  0  0  0  0  0  0  0  0  0  0
    0.7069    0.1377   -1.5150 C   0  0  0  0  0  0  0  0  0  0  0  0
   -0.1276    0.9682   -0.5223 C   0  0  0  0  0  0  0  0  0  0  0  0
   -0.6155    2.1316   -0.9481 O   0  0  0  0  0  0  0  0  0  0  0  0
    0.7456    0.9086    0.7015 C   0  0  0  0  0  0  0  0  0  0  0  0
    1.1231   -0.5858    0.6473 C   0  0  0  0  0  0  0  0  0  0  0  0
    0.8129   -1.2383    1.8080 O   0  0  0  0  0  0  0  0  0  0  0  0
   -2.8681   -0.4691    0.5287 H   0  0  0  0  0  0  0  0  0  0  0  0
   -1.6775    0.3776    1.5312 H   0  0  0  0  0  0  0  0  0  0  0  0
   -1.5749   -1.4466    1.2439 H   0  0  0  0  0  0  0  0  0  0  0  0
   -1.5799   -0.4185   -1.3818 H   0  0  0  0  0  0  0  0  0  0  0  0
    0.3276   -1.9804   -0.9129 H   0  0  0  0  0  0  0  0  0  0  0  0
    0.2499    0.0623   -2.5016 H   0  0  0  0  0  0  0  0  0  0  0  0
    1.7493    0.4465   -1.4358 H   0  0  0  0  0  0  0  0  0  0  0  0
   -0.5690    2.1637   -1.9553 H   0  0  0  0  0  0  0  0  0  0  0  0
    1.6533    1.5274    0.5879 H   0  0  0  0  0  0  0  0  0  0  0  0
    0.2110    1.1465    1.6317 H   0  0  0  0  0  0  0  0  0  0  0  0
    2.2097   -0.6804    0.3616 H   0  0  0  0  0  0  0  0  0  0  0  0
    1.6780   -1.3559    2.3172 H   0  0  0  0  0  0  0  0  0  0  0  0
  1  2  1  0
  2  3  1  0
  3  4  1  0
  4  5  1  0
  5  6  1  0
  5  7  1  0
  7  8  1  0
  8  9  1  0
  5  2  1  0
  8  3  1  0
  1 10  1  0
  1 11  1  0
  1 12  1  0
  2 13  1  0
  3 14  1  0
  4 15  1  0
  4 16  1  0
  6 17  1  0
  7 18  1  0
  7 19  1  0
  8 20  1  0
  9 21  1  0
M  END
