
     RDKit          3D

 21 22  0  0  0  0  0  0  0  0999 V2000
    1.7954    1.1138   -0.4193 C   0  0  0  0  0  0  0  0  0  0  0  0
    1.2734    0.0684    0.4793 C   0  0  0  0  0  0  0  0  0  0  0  0
    1.4479   -1.3664    0.0623 C   0  0  0  0  0  0  0  0  0  0  0  0
    0.2505   -1.6182    0.7729 O   0  0  0  0  0  0  0  0  0  0  0  0
   -0.1572   -0.3414    0.3535 C   0  0  0  0  0  0  0  0  0  0  0  0
   -0.7556   -0.4142   -0.9980 C   0  0  0  0  0  0  0  0  0  0  0  0
   -2.1487    0.0255   -0.7839 C   0  0  0  0  0  0  0  0  0  0  0  0
   -2.3835    0.4504    0.4435 C   0  0  0  0  0  0  0  0  0  0  0  0
   -1.1369    0.3454    1.2312 C   0  0  0  0  0  0  0  0  0  0  0  0
    2.2034    1.9536    0.2155 H   0  0  0  0  0  0  0  0  0  0  0  0
    1.0739    1.5681   -1.1021 H   0  0  0  0  0  0  0  0  0  0  0  0
    2.6520    0.6698   -1.0065 H   0  0  0  0  0  0  0  0  0  0  0  0
    1.5499    0.1929    1.5434 H   0  0  0  0  0  0  0  0  0  0  0  0
    2.3406   -1.8128    0.5017 H   0  0  0  0  0  0  0  0  0  0  0  0
    1.3355   -1.5800   -1.0005 H   0  0  0  0  0  0  0  0  0  0  0  0
   -0.2318    0.1563   -1.7829 H   0  0  0  0  0  0  0  0  0  0  0  0
   -0.8170   -1.4709   -1.3928 H   0  0  0  0  0  0  0  0  0  0  0  0
   -2.9384    0.0127   -1.5526 H   0  0  0  0  0  0  0  0  0  0  0  0
   -3.3132    0.8239    0.8582 H   0  0  0  0  0  0  0  0  0  0  0  0
   -0.7722    1.4020    1.3809 H   0  0  0  0  0  0  0  0  0  0  0  0
   -1.2682   -0.1790    2.1962 H   0  0  0  0  0  0  0  0  0  0  0  0
  1  2  1  0
  2  3  1  0
  3  4  1  0
  4  5  1  0
  5  6  1  0
  6  7  1  0
  7  8  2  0
  8  9  1  0
  5  2  1  0
  9  5  1  0
  1 10  1  0
  1 11  1  0
  1 12  1  0
  2 13  1  0
  3 14  1  0
  3 15  1  0
  6 16  1  0
  6 17  1  0
  7 18  1  0
  8 19  1  0
  9 20  1  0
  9 21  1  0
M  END
