
     RDKit          3D

 23 23  0  0  0  0  0  0  0  0999 V2000
   -1.8662    0.2553   -1.1436 C   0  0  0  0  0  0  0  0  0  0  0  0
   -1.2386   -0.0177    0.2331 C   0  0  0  0  0  0  0  0  0  0  0  0
   -0.6264   -1.3444    0.3209 C   0  0  0  0  0  0  0  0  0  0  0  0
    0.6981   -1.4613    0.9694 C   0  0  0  0  0  0  0  0  0  0  0  0
    1.7124   -1.5606   -0.0133 O   0  0  0  0  0  0  0  0  0  0  0  0
    2.1595   -0.2456   -0.2107 C   0  0  0  0  0  0  0  0  0  0  0  0
    1.2258    0.3552   -1.0574 O   0  0  0  0  0  0  0  0  0  0  0  0
    0.6609    1.4605   -0.4872 C   0  0  0  0  0  0  0  0  0  0  0  0
   -0.3821    1.1592    0.5564 C   0  0  0  0  0  0  0  0  0  0  0  0
   -1.2373   -0.1949   -1.9454 H   0  0  0  0  0  0  0  0  0  0  0  0
   -1.9448    1.3633   -1.2815 H   0  0  0  0  0  0  0  0  0  0  0  0
   -2.8527   -0.2493   -1.2017 H   0  0  0  0  0  0  0  0  0  0  0  0
   -2.1203    0.0370    0.9400 H   0  0  0  0  0  0  0  0  0  0  0  0
   -0.5342   -1.7752   -0.7205 H   0  0  0  0  0  0  0  0  0  0  0  0
   -1.3233   -2.0694    0.8385 H   0  0  0  0  0  0  0  0  0  0  0  0
    0.8082   -2.4185    1.5627 H   0  0  0  0  0  0  0  0  0  0  0  0
    0.9502   -0.6612    1.6875 H   0  0  0  0  0  0  0  0  0  0  0  0
    3.1604   -0.3166   -0.6566 H   0  0  0  0  0  0  0  0  0  0  0  0
    2.1499    0.2617    0.7811 H   0  0  0  0  0  0  0  0  0  0  0  0
    0.2242    2.1070   -1.3042 H   0  0  0  0  0  0  0  0  0  0  0  0
    1.4359    2.1120   -0.0114 H   0  0  0  0  0  0  0  0  0  0  0  0
   -1.0808    2.0515    0.5536 H   0  0  0  0  0  0  0  0  0  0  0  0
    0.0213    1.1519    1.5901 H   0  0  0  0  0  0  0  0  0  0  0  0
  1  2  1  0
  2  3  1  0
  3  4  1  0
  4  5  1  0
  5  6  1  0
  6  7  1  0
  7  8  1  0
  8  9  1  0
  9  2  1  0
  1 10  1  0
  1 11  1  0
  1 12  1  0
  2 13  1  0
  3 14  1  0
  3 15  1  0
  4 16  1  0
  4 17  1  0
  6 18  1  0
  6 19  1  0
  8 20  1  0
  8 21  1  0
  9 22  1  0
  9 23  1  0
M  END
