
     RDKit          3D

 25 26  0  0  0  0  0  0  0  0999 V2000
   -1.9773   -1.1739   -0.5826 C   0  0  0  0  0  0  0  0  0  0  0  0
   -1.0227   -0.6912    0.5053 C   0  0  0  0  0  0  0  0  0  0  0  0
   -1.3047    0.7378    0.8007 C   0  0  0  0  0  0  0  0  0  0  0  0
   -0.6952    1.6953   -0.1761 C   0  0  0  0  0  0  0  0  0  0  0  0
    0.7088    1.3904   -0.5425 C   0  0  0  0  0  0  0  0  0  0  0  0
    0.9993   -0.0354   -0.8418 C   0  0  0  0  0  0  0  0  0  0  0  0
    2.3211   -0.4427   -0.1716 C   0  0  0  0  0  0  0  0  0  0  0  0
    1.4591   -0.7392    1.0668 C   0  0  0  0  0  0  0  0  0  0  0  0
    0.3523   -1.0147    0.0945 C   0  0  0  0  0  0  0  0  0  0  0  0
   -2.9361   -1.5131   -0.1834 H   0  0  0  0  0  0  0  0  0  0  0  0
   -1.5097   -2.0405   -1.1294 H   0  0  0  0  0  0  0  0  0  0  0  0
   -2.0799   -0.3755   -1.3624 H   0  0  0  0  0  0  0  0  0  0  0  0
   -1.2554   -1.2767    1.4413 H   0  0  0  0  0  0  0  0  0  0  0  0
   -2.4247    0.8715    0.7189 H   0  0  0  0  0  0  0  0  0  0  0  0
   -1.0825    1.0217    1.8662 H   0  0  0  0  0  0  0  0  0  0  0  0
   -1.3812    1.8058   -1.0522 H   0  0  0  0  0  0  0  0  0  0  0  0
   -0.7110    2.7106    0.3162 H   0  0  0  0  0  0  0  0  0  0  0  0
    1.3711    1.8270    0.2570 H   0  0  0  0  0  0  0  0  0  0  0  0
    0.9537    1.9888   -1.4684 H   0  0  0  0  0  0  0  0  0  0  0  0
    0.9084   -0.3339   -1.8891 H   0  0  0  0  0  0  0  0  0  0  0  0
    3.0417    0.3597   -0.0496 H   0  0  0  0  0  0  0  0  0  0  0  0
    2.6542   -1.3875   -0.6239 H   0  0  0  0  0  0  0  0  0  0  0  0
    1.8135   -1.5665    1.6814 H   0  0  0  0  0  0  0  0  0  0  0  0
    1.3608    0.2189    1.6350 H   0  0  0  0  0  0  0  0  0  0  0  0
    0.4362   -2.0372   -0.3101 H   0  0  0  0  0  0  0  0  0  0  0  0
  1  2  1  0
  2  3  1  0
  3  4  1  0
  4  5  1  0
  5  6  1  0
  6  7  1  0
  7  8  1  0
  8  9  1  0
  9  2  1  0
  9  6  1  0
  1 10  1  0
  1 11  1  0
  1 12  1  0
  2 13  1  0
  3 14  1  0
  3 15  1  0
  4 16  1  0
  4 17  1  0
  5 18  1  0
  5 19  1  0
  6 20  1  0
  7 21  1  0
  7 22  1  0
  8 23  1  0
  8 24  1  0
  9 25  1  0
M  END
