
     RDKit          3D

 19 21  0  0  0  0  0  0  0  0999 V2000
    2.3443    0.2180   -0.4744 C   0  0  0  0  0  0  0  0  0  0  0  0
    1.3160    0.0017    0.5901 C   0  0  0  0  0  0  0  0  0  0  0  0
    0.6114   -1.3416    0.6828 C   0  0  0  0  0  0  0  0  0  0  0  0
   -0.0973   -0.1226    0.3766 C   0  0  0  0  0  0  0  0  0  0  0  0
   -1.0405    0.5822    1.2186 C   0  0  0  0  0  0  0  0  0  0  0  0
   -1.2267    0.8085    2.3890 O   0  0  0  0  0  0  0  0  0  0  0  0
   -1.7941    0.9802   -0.0150 C   0  0  0  0  0  0  0  0  0  0  0  0
   -2.3431   -0.1522   -0.7851 C   0  0  0  0  0  0  0  0  0  0  0  0
   -0.8544    0.1024   -0.8767 C   0  0  0  0  0  0  0  0  0  0  0  0
    3.1409    0.9344   -0.1519 H   0  0  0  0  0  0  0  0  0  0  0  0
    1.8857    0.6639   -1.3731 H   0  0  0  0  0  0  0  0  0  0  0  0
    2.8672   -0.7401   -0.6699 H   0  0  0  0  0  0  0  0  0  0  0  0
    1.6551    0.3639    1.6055 H   0  0  0  0  0  0  0  0  0  0  0  0
    0.5877   -1.8818    1.6376 H   0  0  0  0  0  0  0  0  0  0  0  0
    0.8752   -2.0165   -0.1809 H   0  0  0  0  0  0  0  0  0  0  0  0
   -1.8106    2.0140   -0.3373 H   0  0  0  0  0  0  0  0  0  0  0  0
   -2.7122   -1.0121   -0.1929 H   0  0  0  0  0  0  0  0  0  0  0  0
   -2.9789    0.0652   -1.6669 H   0  0  0  0  0  0  0  0  0  0  0  0
   -0.4257    0.5326   -1.7763 H   0  0  0  0  0  0  0  0  0  0  0  0
  1  2  1  0
  2  3  1  0
  3  4  1  0
  4  5  1  0
  5  6  2  0
  5  7  1  0
  7  8  1  0
  8  9  1  0
  4  2  1  0
  9  7  1  0
  9  4  1  0
  1 10  1  0
  1 11  1  0
  1 12  1  0
  2 13  1  0
  3 14  1  0
  3 15  1  0
  7 16  1  0
  8 17  1  0
  8 18  1  0
  9 19  1  0
M  END
