
     RDKit          3D

 19 21  0  0  0  0  0  0  0  0999 V2000
    2.3781   -0.7808    0.2175 C   0  0  0  0  0  0  0  0  0  0  0  0
    1.0191   -0.2976    0.5899 C   0  0  0  0  0  0  0  0  0  0  0  0
    0.6931    1.0778    0.1360 C   0  0  0  0  0  0  0  0  0  0  0  0
   -0.7624    1.2863    0.5534 C   0  0  0  0  0  0  0  0  0  0  0  0
   -1.2786   -0.0466   -0.0280 C   0  0  0  0  0  0  0  0  0  0  0  0
   -2.5301   -0.5007    0.1121 C   0  0  0  0  0  0  0  0  0  0  0  0
   -2.2024    0.1685   -1.1693 O   0  0  0  0  0  0  0  0  0  0  0  0
   -0.0006   -0.5851   -0.5181 C   0  0  0  0  0  0  0  0  0  0  0  0
    0.5580    0.5441   -1.1668 O   0  0  0  0  0  0  0  0  0  0  0  0
    2.4379   -0.9217   -0.9018 H   0  0  0  0  0  0  0  0  0  0  0  0
    3.1830   -0.0458    0.4465 H   0  0  0  0  0  0  0  0  0  0  0  0
    2.6565   -1.7191    0.6989 H   0  0  0  0  0  0  0  0  0  0  0  0
    0.6588   -0.5206    1.5961 H   0  0  0  0  0  0  0  0  0  0  0  0
    1.3710    1.8844    0.2708 H   0  0  0  0  0  0  0  0  0  0  0  0
   -0.8381    1.2712    1.6497 H   0  0  0  0  0  0  0  0  0  0  0  0
   -1.2240    2.1428    0.0643 H   0  0  0  0  0  0  0  0  0  0  0  0
   -2.8591   -1.5493   -0.0169 H   0  0  0  0  0  0  0  0  0  0  0  0
   -3.3347    0.1132    0.6052 H   0  0  0  0  0  0  0  0  0  0  0  0
    0.0745   -1.5212   -1.0197 H   0  0  0  0  0  0  0  0  0  0  0  0
  1  2  1  0
  2  3  1  0
  3  4  1  0
  4  5  1  0
  5  6  1  0
  6  7  1  0
  5  8  1  0
  8  9  1  0
  8  2  1  0
  9  3  1  0
  7  5  1  0
  1 10  1  0
  1 11  1  0
  1 12  1  0
  2 13  1  0
  3 14  1  0
  4 15  1  0
  4 16  1  0
  6 17  1  0
  6 18  1  0
  8 19  1  0
M  END
