
     RDKit          3D

 21 23  0  0  0  0  0  0  0  0999 V2000
    2.2140    0.9190    0.0469 C   0  0  0  0  0  0  0  0  0  0  0  0
    1.1584    0.0280    0.6344 C   0  0  0  0  0  0  0  0  0  0  0  0
    1.1692   -1.3916    0.0438 C   0  0  0  0  0  0  0  0  0  0  0  0
    0.0757   -0.4544   -0.0818 C   0  0  0  0  0  0  0  0  0  0  0  0
   -0.5665   -0.0066   -1.3522 C   0  0  0  0  0  0  0  0  0  0  0  0
   -1.5164    0.6263   -0.3543 C   0  0  0  0  0  0  0  0  0  0  0  0
   -0.7720    1.6571    0.2912 O   0  0  0  0  0  0  0  0  0  0  0  0
   -2.4858    0.0222    0.4726 C   0  0  0  0  0  0  0  0  0  0  0  0
   -1.3189   -0.8013    0.3145 C   0  0  0  0  0  0  0  0  0  0  0  0
    3.2084    0.6010    0.4535 H   0  0  0  0  0  0  0  0  0  0  0  0
    2.0451    1.9374    0.3941 H   0  0  0  0  0  0  0  0  0  0  0  0
    2.2769    0.8294   -1.0574 H   0  0  0  0  0  0  0  0  0  0  0  0
    1.1757    0.0129    1.7537 H   0  0  0  0  0  0  0  0  0  0  0  0
    1.7972   -1.5817   -0.8441 H   0  0  0  0  0  0  0  0  0  0  0  0
    1.0506   -2.2453    0.7246 H   0  0  0  0  0  0  0  0  0  0  0  0
   -0.9813   -0.8728   -1.9030 H   0  0  0  0  0  0  0  0  0  0  0  0
   -0.0485    0.7181   -1.9683 H   0  0  0  0  0  0  0  0  0  0  0  0
   -0.7284    1.4802    1.2630 H   0  0  0  0  0  0  0  0  0  0  0  0
   -2.6739    0.3841    1.5294 H   0  0  0  0  0  0  0  0  0  0  0  0
   -3.4981   -0.1839    0.0058 H   0  0  0  0  0  0  0  0  0  0  0  0
   -1.5811   -1.6781   -0.3664 H   0  0  0  0  0  0  0  0  0  0  0  0
  1  2  1  0
  2  3  1  0
  3  4  1  0
  4  5  1  0
  5  6  1  0
  6  7  1  0
  6  8  1  0
  8  9  1  0
  4  2  1  0
  9  6  1  0
  9  4  1  0
  1 10  1  0
  1 11  1  0
  1 12  1  0
  2 13  1  0
  3 14  1  0
  3 15  1  0
  5 16  1  0
  5 17  1  0
  7 18  1  0
  8 19  1  0
  8 20  1  0
  9 21  1  0
M  END
