
     RDKit          3D

 16 16  0  0  0  0  0  0  0  0999 V2000
    1.7788    0.5217   -0.1047 C   0  0  0  0  0  0  0  0  0  0  0  0
    0.9277   -0.6190    0.3485 C   0  0  0  0  0  0  0  0  0  0  0  0
    0.0330   -1.1432   -0.7170 C   0  0  0  0  0  0  0  0  0  0  0  0
   -1.1323   -0.5618   -0.9345 C   0  0  0  0  0  0  0  0  0  0  0  0
   -1.4937    0.6078   -0.0862 C   0  0  0  0  0  0  0  0  0  0  0  0
   -1.1070    0.3477    1.3219 C   0  0  0  0  0  0  0  0  0  0  0  0
   -1.8690    0.6177    2.2834 O   0  0  0  0  0  0  0  0  0  0  0  0
    0.1694   -0.2191    1.4758 O   0  0  0  0  0  0  0  0  0  0  0  0
    2.7864    0.4217    0.3956 H   0  0  0  0  0  0  0  0  0  0  0  0
    1.3965    1.5083    0.2276 H   0  0  0  0  0  0  0  0  0  0  0  0
    1.9241    0.5468   -1.2134 H   0  0  0  0  0  0  0  0  0  0  0  0
    1.5938   -1.4768    0.6471 H   0  0  0  0  0  0  0  0  0  0  0  0
    0.3105   -1.9877   -1.3189 H   0  0  0  0  0  0  0  0  0  0  0  0
   -1.8340   -0.8924   -1.6955 H   0  0  0  0  0  0  0  0  0  0  0  0
   -0.9083    1.5013   -0.4420 H   0  0  0  0  0  0  0  0  0  0  0  0
   -2.5757    0.8272   -0.1879 H   0  0  0  0  0  0  0  0  0  0  0  0
  1  2  1  0
  2  3  1  0
  3  4  2  0
  4  5  1  0
  5  6  1  0
  6  7  2  0
  6  8  1  0
  8  2  1  0
  1  9  1  0
  1 10  1  0
  1 11  1  0
  2 12  1  0
  3 13  1  0
  4 14  1  0
  5 15  1  0
  5 16  1  0
M  END
