
     RDKit          3D

 23 23  0  0  0  0  0  0  0  0999 V2000
   -2.0551   -1.1889   -0.1896 C   0  0  0  0  0  0  0  0  0  0  0  0
   -0.6711   -0.7477    0.1345 C   0  0  0  0  0  0  0  0  0  0  0  0
    0.3536   -1.2806   -0.7967 C   0  0  0  0  0  0  0  0  0  0  0  0
    1.6518   -1.0267   -0.7586 C   0  0  0  0  0  0  0  0  0  0  0  0
    2.4372   -0.1762    0.1780 C   0  0  0  0  0  0  0  0  0  0  0  0
    1.7607    1.1522    0.4266 C   0  0  0  0  0  0  0  0  0  0  0  0
    0.5330    1.0441    1.0271 O   0  0  0  0  0  0  0  0  0  0  0  0
   -0.5060    0.7519    0.1800 C   0  0  0  0  0  0  0  0  0  0  0  0
   -1.7840    1.4669    0.4922 C   0  0  0  0  0  0  0  0  0  0  0  0
   -2.5592   -0.6098   -0.9661 H   0  0  0  0  0  0  0  0  0  0  0  0
   -2.6842   -1.2960    0.7385 H   0  0  0  0  0  0  0  0  0  0  0  0
   -1.9814   -2.2452   -0.5830 H   0  0  0  0  0  0  0  0  0  0  0  0
   -0.4157   -1.1677    1.1510 H   0  0  0  0  0  0  0  0  0  0  0  0
   -0.0246   -1.9338   -1.5672 H   0  0  0  0  0  0  0  0  0  0  0  0
    2.1976   -1.5455   -1.5627 H   0  0  0  0  0  0  0  0  0  0  0  0
    3.4025    0.0394   -0.3123 H   0  0  0  0  0  0  0  0  0  0  0  0
    2.6284   -0.7568    1.0774 H   0  0  0  0  0  0  0  0  0  0  0  0
    1.7719    1.7272   -0.5122 H   0  0  0  0  0  0  0  0  0  0  0  0
    2.4291    1.7038    1.1448 H   0  0  0  0  0  0  0  0  0  0  0  0
   -0.1921    1.0915   -0.8490 H   0  0  0  0  0  0  0  0  0  0  0  0
   -1.5450    2.5461    0.5968 H   0  0  0  0  0  0  0  0  0  0  0  0
   -2.4382    1.3950   -0.4249 H   0  0  0  0  0  0  0  0  0  0  0  0
   -2.3092    1.0568    1.3755 H   0  0  0  0  0  0  0  0  0  0  0  0
  1  2  1  0
  2  3  1  0
  3  4  2  0
  4  5  1  0
  5  6  1  0
  6  7  1  0
  7  8  1  0
  8  9  1  0
  8  2  1  0
  1 10  1  0
  1 11  1  0
  1 12  1  0
  2 13  1  0
  3 14  1  0
  4 15  1  0
  5 16  1  0
  5 17  1  0
  6 18  1  0
  6 19  1  0
  8 20  1  0
  9 21  1  0
  9 22  1  0
  9 23  1  0
M  END
