
     RDKit          3D

 23 23  0  0  0  0  0  0  0  0999 V2000
    2.4860   -0.3726    0.2562 C   0  0  0  0  0  0  0  0  0  0  0  0
    1.0450    0.0971    0.3177 C   0  0  0  0  0  0  0  0  0  0  0  0
    0.2899   -0.2690   -0.9383 C   0  0  0  0  0  0  0  0  0  0  0  0
   -1.1102   -0.5852   -0.5838 C   0  0  0  0  0  0  0  0  0  0  0  0
   -1.1498   -2.0602   -0.1454 C   0  0  0  0  0  0  0  0  0  0  0  0
   -1.7259    0.1169    0.3514 O   0  0  0  0  0  0  0  0  0  0  0  0
   -1.4164    1.3413    0.7188 C   0  0  0  0  0  0  0  0  0  0  0  0
   -0.2240    2.0218    0.1409 C   0  0  0  0  0  0  0  0  0  0  0  0
    0.9840    1.4555    0.4614 O   0  0  0  0  0  0  0  0  0  0  0  0
    3.0155    0.0155   -0.6358 H   0  0  0  0  0  0  0  0  0  0  0  0
    2.5306   -1.4869    0.2999 H   0  0  0  0  0  0  0  0  0  0  0  0
    2.9762   -0.0087    1.1811 H   0  0  0  0  0  0  0  0  0  0  0  0
    0.5763   -0.4509    1.1718 H   0  0  0  0  0  0  0  0  0  0  0  0
    0.7475   -1.1977   -1.3896 H   0  0  0  0  0  0  0  0  0  0  0  0
    0.3368    0.4941   -1.7214 H   0  0  0  0  0  0  0  0  0  0  0  0
   -1.7156   -0.5718   -1.5378 H   0  0  0  0  0  0  0  0  0  0  0  0
   -1.2294   -2.1082    0.9798 H   0  0  0  0  0  0  0  0  0  0  0  0
   -2.0401   -2.5651   -0.5353 H   0  0  0  0  0  0  0  0  0  0  0  0
   -0.2372   -2.5863   -0.4325 H   0  0  0  0  0  0  0  0  0  0  0  0
   -2.2930    2.0298    0.5197 H   0  0  0  0  0  0  0  0  0  0  0  0
   -1.3064    1.3879    1.8437 H   0  0  0  0  0  0  0  0  0  0  0  0
   -0.1988    3.0482    0.6223 H   0  0  0  0  0  0  0  0  0  0  0  0
   -0.3411    2.2545   -0.9448 H   0  0  0  0  0  0  0  0  0  0  0  0
  1  2  1  0
  2  3  1  0
  3  4  1  0
  4  5  1  0
  4  6  1  0
  6  7  1  0
  7  8  1  0
  8  9  1  0
  9  2  1  0
  1 10  1  0
  1 11  1  0
  1 12  1  0
  2 13  1  0
  3 14  1  0
  3 15  1  0
  4 16  1  0
  5 17  1  0
  5 18  1  0
  5 19  1  0
  7 20  1  0
  7 21  1  0
  8 22  1  0
  8 23  1  0
M  END
