
     RDKit          3D

 19 21  0  0  0  0  0  0  0  0999 V2000
   -2.1019    0.3542    0.0701 C   0  0  0  0  0  0  0  0  0  0  0  0
   -1.2440   -0.8462   -0.1327 C   0  0  0  0  0  0  0  0  0  0  0  0
   -0.3775   -0.5830   -1.3447 C   0  0  0  0  0  0  0  0  0  0  0  0
    0.7157    0.0401   -0.9738 C   0  0  0  0  0  0  0  0  0  0  0  0
    0.6580    0.2494    0.5411 C   0  0  0  0  0  0  0  0  0  0  0  0
   -0.1238   -0.9354    0.9426 C   0  0  0  0  0  0  0  0  0  0  0  0
    2.1147    0.3427    0.6304 C   0  0  0  0  0  0  0  0  0  0  0  0
    3.0356   -0.0606   -0.3167 O   0  0  0  0  0  0  0  0  0  0  0  0
    2.0271    0.7274   -0.8520 C   0  0  0  0  0  0  0  0  0  0  0  0
   -2.0521    0.9943   -0.8313 H   0  0  0  0  0  0  0  0  0  0  0  0
   -3.1667    0.0829    0.2322 H   0  0  0  0  0  0  0  0  0  0  0  0
   -1.8118    0.9640    0.9499 H   0  0  0  0  0  0  0  0  0  0  0  0
   -1.7819   -1.7881   -0.2084 H   0  0  0  0  0  0  0  0  0  0  0  0
   -0.6801   -0.8933   -2.3461 H   0  0  0  0  0  0  0  0  0  0  0  0
    0.1866    1.2414    0.7237 H   0  0  0  0  0  0  0  0  0  0  0  0
    0.4283   -1.8539    0.7609 H   0  0  0  0  0  0  0  0  0  0  0  0
   -0.5688   -0.8767    1.9526 H   0  0  0  0  0  0  0  0  0  0  0  0
    2.5688    1.0830    1.3443 H   0  0  0  0  0  0  0  0  0  0  0  0
    2.1736    1.7578   -1.1420 H   0  0  0  0  0  0  0  0  0  0  0  0
  1  2  1  0
  2  3  1  0
  3  4  2  0
  4  5  1  0
  5  6  1  0
  5  7  1  0
  7  8  1  0
  8  9  1  0
  6  2  1  0
  9  7  1  0
  9  4  1  0
  1 10  1  0
  1 11  1  0
  1 12  1  0
  2 13  1  0
  3 14  1  0
  5 15  1  0
  6 16  1  0
  6 17  1  0
  7 18  1  0
  9 19  1  0
M  END
