
     RDKit          3D

 21 23  0  0  0  0  0  0  0  0999 V2000
   -2.0016    1.0981    0.2199 C   0  0  0  0  0  0  0  0  0  0  0  0
   -1.1125   -0.0478    0.6031 C   0  0  0  0  0  0  0  0  0  0  0  0
   -1.1839   -1.1939   -0.3637 C   0  0  0  0  0  0  0  0  0  0  0  0
    0.1758   -1.5859    0.1750 C   0  0  0  0  0  0  0  0  0  0  0  0
    0.2482   -0.0802    0.0052 C   0  0  0  0  0  0  0  0  0  0  0  0
    1.3292    0.7189    0.2812 C   0  0  0  0  0  0  0  0  0  0  0  0
    2.6949    0.6416   -0.3604 C   0  0  0  0  0  0  0  0  0  0  0  0
    2.4438    0.0725    0.9247 O   0  0  0  0  0  0  0  0  0  0  0  0
   -0.4134   -0.3228   -1.3153 C   0  0  0  0  0  0  0  0  0  0  0  0
   -1.4528    2.0361    0.0383 H   0  0  0  0  0  0  0  0  0  0  0  0
   -2.6799    1.2894    1.0919 H   0  0  0  0  0  0  0  0  0  0  0  0
   -2.6899    0.8405   -0.6271 H   0  0  0  0  0  0  0  0  0  0  0  0
   -1.1012   -0.3143    1.6768 H   0  0  0  0  0  0  0  0  0  0  0  0
   -1.9511   -1.7991   -0.5583 H   0  0  0  0  0  0  0  0  0  0  0  0
    0.1836   -1.9041    1.2197 H   0  0  0  0  0  0  0  0  0  0  0  0
    0.8257   -2.1345   -0.5224 H   0  0  0  0  0  0  0  0  0  0  0  0
    1.1634    1.7174    0.7730 H   0  0  0  0  0  0  0  0  0  0  0  0
    2.8900   -0.1375   -1.1252 H   0  0  0  0  0  0  0  0  0  0  0  0
    3.3817    1.4816   -0.3111 H   0  0  0  0  0  0  0  0  0  0  0  0
   -0.9425    0.5032   -1.7788 H   0  0  0  0  0  0  0  0  0  0  0  0
    0.1923   -0.8793   -2.0585 H   0  0  0  0  0  0  0  0  0  0  0  0
  1  2  1  0
  2  3  1  0
  3  4  1  0
  4  5  1  0
  5  6  1  0
  6  7  1  0
  7  8  1  0
  5  9  1  0
  5  2  1  0
  8  6  1  0
  9  3  1  0
  1 10  1  0
  1 11  1  0
  1 12  1  0
  2 13  1  0
  3 14  1  0
  4 15  1  0
  4 16  1  0
  6 17  1  0
  7 18  1  0
  7 19  1  0
  9 20  1  0
  9 21  1  0
M  END
