
     RDKit          3D

 17 17  0  0  0  0  0  0  0  0999 V2000
   -2.5019    0.1129    0.5257 C   0  0  0  0  0  0  0  0  0  0  0  0
   -1.5139   -0.0422   -0.6087 C   0  0  0  0  0  0  0  0  0  0  0  0
   -0.2755    0.7339   -0.3840 C   0  0  0  0  0  0  0  0  0  0  0  0
    0.7912   -0.0265   -0.4108 C   0  0  0  0  0  0  0  0  0  0  0  0
    2.1962    0.4334   -0.2208 C   0  0  0  0  0  0  0  0  0  0  0  0
    2.7692   -0.2051    0.8819 O   0  0  0  0  0  0  0  0  0  0  0  0
    0.3260   -1.3835   -0.6597 C   0  0  0  0  0  0  0  0  0  0  0  0
    1.0796   -2.3969   -0.7521 O   0  0  0  0  0  0  0  0  0  0  0  0
   -1.0580   -1.3512   -0.7721 O   0  0  0  0  0  0  0  0  0  0  0  0
   -2.6217    1.1990    0.7117 H   0  0  0  0  0  0  0  0  0  0  0  0
   -3.4859   -0.2556    0.1337 H   0  0  0  0  0  0  0  0  0  0  0  0
   -2.2407   -0.4687    1.4115 H   0  0  0  0  0  0  0  0  0  0  0  0
   -2.0317    0.3567   -1.5245 H   0  0  0  0  0  0  0  0  0  0  0  0
   -0.2706    1.8098   -0.2176 H   0  0  0  0  0  0  0  0  0  0  0  0
    2.2571    1.5161   -0.0610 H   0  0  0  0  0  0  0  0  0  0  0  0
    2.8300    0.1856   -1.0984 H   0  0  0  0  0  0  0  0  0  0  0  0
    3.7506   -0.2177    0.7482 H   0  0  0  0  0  0  0  0  0  0  0  0
  1  2  1  0
  2  3  1  0
  3  4  2  0
  4  5  1  0
  5  6  1  0
  4  7  1  0
  7  8  2  0
  7  9  1  0
  9  2  1  0
  1 10  1  0
  1 11  1  0
  1 12  1  0
  2 13  1  0
  3 14  1  0
  5 15  1  0
  5 16  1  0
  6 17  1  0
M  END
