
     RDKit          3D

 25 25  0  0  0  0  0  0  0  0999 V2000
    0.0191    1.9493   -0.3402 C   0  0  0  0  0  0  0  0  0  0  0  0
   -0.0675    0.7508    0.5468 C   0  0  0  0  0  0  0  0  0  0  0  0
    1.3398    0.2930    0.8786 C   0  0  0  0  0  0  0  0  0  0  0  0
    2.2452    1.3284    0.8497 O   0  0  0  0  0  0  0  0  0  0  0  0
    1.6162   -0.6400   -0.3084 C   0  0  0  0  0  0  0  0  0  0  0  0
    0.3500   -1.4999   -0.2555 C   0  0  0  0  0  0  0  0  0  0  0  0
   -0.7145   -0.4366   -0.0502 C   0  0  0  0  0  0  0  0  0  0  0  0
   -1.3636   -0.1995   -1.3846 C   0  0  0  0  0  0  0  0  0  0  0  0
   -1.7582   -0.9595    0.9192 C   0  0  0  0  0  0  0  0  0  0  0  0
   -0.3844    1.8241   -1.3415 H   0  0  0  0  0  0  0  0  0  0  0  0
   -0.4844    2.8480    0.1215 H   0  0  0  0  0  0  0  0  0  0  0  0
    1.0893    2.2869   -0.4698 H   0  0  0  0  0  0  0  0  0  0  0  0
   -0.5558    1.0667    1.5082 H   0  0  0  0  0  0  0  0  0  0  0  0
    1.3310   -0.2714    1.8299 H   0  0  0  0  0  0  0  0  0  0  0  0
    3.1200    0.9705    1.1248 H   0  0  0  0  0  0  0  0  0  0  0  0
    1.5689   -0.0367   -1.2192 H   0  0  0  0  0  0  0  0  0  0  0  0
    2.5211   -1.2299   -0.1715 H   0  0  0  0  0  0  0  0  0  0  0  0
    0.4233   -2.1905    0.5951 H   0  0  0  0  0  0  0  0  0  0  0  0
    0.2312   -2.0328   -1.1995 H   0  0  0  0  0  0  0  0  0  0  0  0
   -0.5544   -0.0429   -2.1458 H   0  0  0  0  0  0  0  0  0  0  0  0
   -1.8304   -1.1823   -1.6851 H   0  0  0  0  0  0  0  0  0  0  0  0
   -2.1257    0.5801   -1.3891 H   0  0  0  0  0  0  0  0  0  0  0  0
   -2.4219   -0.0929    1.1692 H   0  0  0  0  0  0  0  0  0  0  0  0
   -2.3090   -1.8227    0.5344 H   0  0  0  0  0  0  0  0  0  0  0  0
   -1.2852   -1.2603    1.8832 H   0  0  0  0  0  0  0  0  0  0  0  0
  1  2  1  0
  2  3  1  0
  3  4  1  0
  3  5  1  0
  5  6  1  0
  6  7  1  0
  7  8  1  0
  7  9  1  0
  7  2  1  0
  1 10  1  0
  1 11  1  0
  1 12  1  0
  2 13  1  0
  3 14  1  0
  4 15  1  0
  5 16  1  0
  5 17  1  0
  6 18  1  0
  6 19  1  0
  8 20  1  0
  8 21  1  0
  8 22  1  0
  9 23  1  0
  9 24  1  0
  9 25  1  0
M  END
