
     RDKit          3D

 21 22  0  0  0  0  0  0  0  0999 V2000
    3.0595    0.0091   -0.0148 C   0  0  0  0  0  0  0  0  0  0  0  0
    1.6389    0.4932    0.1803 C   0  0  0  0  0  0  0  0  0  0  0  0
    0.6445   -0.0051   -0.8335 C   0  0  0  0  0  0  0  0  0  0  0  0
   -0.1690   -0.1231    0.4095 C   0  0  0  0  0  0  0  0  0  0  0  0
   -1.1420   -1.2315    0.4106 C   0  0  0  0  0  0  0  0  0  0  0  0
   -2.2312   -0.2512    0.8377 C   0  0  0  0  0  0  0  0  0  0  0  0
   -3.2956   -0.1891   -0.0583 O   0  0  0  0  0  0  0  0  0  0  0  0
   -1.2124    0.8653    0.6892 C   0  0  0  0  0  0  0  0  0  0  0  0
    0.9384   -0.1957    1.1975 O   0  0  0  0  0  0  0  0  0  0  0  0
    3.4946   -0.2994    0.9724 H   0  0  0  0  0  0  0  0  0  0  0  0
    3.0793   -0.8125   -0.7578 H   0  0  0  0  0  0  0  0  0  0  0  0
    3.7162    0.8133   -0.3887 H   0  0  0  0  0  0  0  0  0  0  0  0
    1.6301    1.5847    0.2777 H   0  0  0  0  0  0  0  0  0  0  0  0
    0.8753   -1.0080   -1.2560 H   0  0  0  0  0  0  0  0  0  0  0  0
    0.2210    0.7341   -1.5196 H   0  0  0  0  0  0  0  0  0  0  0  0
   -1.3343   -1.5840   -0.6424 H   0  0  0  0  0  0  0  0  0  0  0  0
   -1.0270   -2.0340    1.1542 H   0  0  0  0  0  0  0  0  0  0  0  0
   -2.6134   -0.4159    1.8523 H   0  0  0  0  0  0  0  0  0  0  0  0
   -3.7142    0.6963   -0.0619 H   0  0  0  0  0  0  0  0  0  0  0  0
   -1.4443    1.5323   -0.1675 H   0  0  0  0  0  0  0  0  0  0  0  0
   -1.1142    1.4210    1.6513 H   0  0  0  0  0  0  0  0  0  0  0  0
  1  2  1  0
  2  3  1  0
  3  4  1  0
  4  5  1  0
  5  6  1  0
  6  7  1  0
  6  8  1  0
  4  9  1  0
  9  2  1  0
  8  4  1  0
  1 10  1  0
  1 11  1  0
  1 12  1  0
  2 13  1  0
  3 14  1  0
  3 15  1  0
  5 16  1  0
  5 17  1  0
  6 18  1  0
  7 19  1  0
  8 20  1  0
  8 21  1  0
M  END
