
     RDKit          3D

 21 22  0  0  0  0  0  0  0  0999 V2000
   -1.5768    1.2351    0.7217 C   0  0  0  0  0  0  0  0  0  0  0  0
   -0.9920   -0.1243    0.6643 C   0  0  0  0  0  0  0  0  0  0  0  0
   -1.6358   -0.9319   -0.4630 C   0  0  0  0  0  0  0  0  0  0  0  0
   -0.2669   -1.3520   -0.9285 C   0  0  0  0  0  0  0  0  0  0  0  0
    0.3068   -0.4217    0.1374 C   0  0  0  0  0  0  0  0  0  0  0  0
    1.2162   -1.0998    0.9505 O   0  0  0  0  0  0  0  0  0  0  0  0
    2.2572   -0.3511    0.4011 C   0  0  0  0  0  0  0  0  0  0  0  0
    1.2741    0.5093   -0.3788 C   0  0  0  0  0  0  0  0  0  0  0  0
    1.3156    1.8115    0.0286 O   0  0  0  0  0  0  0  0  0  0  0  0
   -0.9957    2.0389    0.2899 H   0  0  0  0  0  0  0  0  0  0  0  0
   -2.5843    1.2585    0.2076 H   0  0  0  0  0  0  0  0  0  0  0  0
   -1.8239    1.5407    1.7819 H   0  0  0  0  0  0  0  0  0  0  0  0
   -1.2023   -0.6733    1.6299 H   0  0  0  0  0  0  0  0  0  0  0  0
   -2.3123   -1.7225   -0.1494 H   0  0  0  0  0  0  0  0  0  0  0  0
   -2.1218   -0.2785   -1.2236 H   0  0  0  0  0  0  0  0  0  0  0  0
   -0.0578   -2.4043   -0.7115 H   0  0  0  0  0  0  0  0  0  0  0  0
   -0.0166   -1.0121   -1.9508 H   0  0  0  0  0  0  0  0  0  0  0  0
    2.9811   -0.9103   -0.2056 H   0  0  0  0  0  0  0  0  0  0  0  0
    2.7577    0.2094    1.2315 H   0  0  0  0  0  0  0  0  0  0  0  0
    1.4997    0.3894   -1.4764 H   0  0  0  0  0  0  0  0  0  0  0  0
    1.9778    2.2889   -0.5569 H   0  0  0  0  0  0  0  0  0  0  0  0
  1  2  1  0
  2  3  1  0
  3  4  1  0
  4  5  1  0
  5  6  1  0
  6  7  1  0
  7  8  1  0
  8  9  1  0
  5  2  1  0
  8  5  1  0
  1 10  1  0
  1 11  1  0
  1 12  1  0
  2 13  1  0
  3 14  1  0
  3 15  1  0
  4 16  1  0
  4 17  1  0
  7 18  1  0
  7 19  1  0
  8 20  1  0
  9 21  1  0
M  END
