
     RDKit          3D

 23 25  0  0  0  0  0  0  0  0999 V2000
    2.1548    0.3071    0.4828 C   0  0  0  0  0  0  0  0  0  0  0  0
    1.6690   -0.6246   -0.6030 C   0  0  0  0  0  0  0  0  0  0  0  0
    0.4630   -1.4137   -0.5152 C   0  0  0  0  0  0  0  0  0  0  0  0
   -0.8674   -0.9644   -0.0378 C   0  0  0  0  0  0  0  0  0  0  0  0
   -1.1798   -1.1733    1.4211 C   0  0  0  0  0  0  0  0  0  0  0  0
   -0.6012    0.4198   -0.4859 C   0  0  0  0  0  0  0  0  0  0  0  0
   -1.5570    1.4387   -0.7925 C   0  0  0  0  0  0  0  0  0  0  0  0
   -0.5288    1.5947    0.3476 C   0  0  0  0  0  0  0  0  0  0  0  0
    0.4780   -0.0992   -1.3631 C   0  0  0  0  0  0  0  0  0  0  0  0
    2.3884    1.2782   -0.0242 H   0  0  0  0  0  0  0  0  0  0  0  0
    3.1124   -0.0977    0.8879 H   0  0  0  0  0  0  0  0  0  0  0  0
    1.4525    0.4108    1.3075 H   0  0  0  0  0  0  0  0  0  0  0  0
    2.4840   -0.9751   -1.2627 H   0  0  0  0  0  0  0  0  0  0  0  0
    0.4361   -2.3654   -1.1186 H   0  0  0  0  0  0  0  0  0  0  0  0
   -1.7196   -1.3995   -0.6423 H   0  0  0  0  0  0  0  0  0  0  0  0
   -0.9370   -2.2083    1.6976 H   0  0  0  0  0  0  0  0  0  0  0  0
   -2.2822   -0.9631    1.5413 H   0  0  0  0  0  0  0  0  0  0  0  0
   -0.6680   -0.4351    2.0398 H   0  0  0  0  0  0  0  0  0  0  0  0
   -1.4097    2.1646   -1.6255 H   0  0  0  0  0  0  0  0  0  0  0  0
   -2.5957    1.4232   -0.4277 H   0  0  0  0  0  0  0  0  0  0  0  0
   -0.8953    1.5328    1.3829 H   0  0  0  0  0  0  0  0  0  0  0  0
    0.2370    2.4046    0.2215 H   0  0  0  0  0  0  0  0  0  0  0  0
    0.3664   -0.2550   -2.4317 H   0  0  0  0  0  0  0  0  0  0  0  0
  1  2  1  0
  2  3  1  0
  3  4  1  0
  4  5  1  0
  4  6  1  0
  6  7  1  0
  7  8  1  0
  6  9  1  0
  9  2  1  0
  9  3  1  0
  8  6  1  0
  1 10  1  0
  1 11  1  0
  1 12  1  0
  2 13  1  0
  3 14  1  0
  4 15  1  0
  5 16  1  0
  5 17  1  0
  5 18  1  0
  7 19  1  0
  7 20  1  0
  8 21  1  0
  8 22  1  0
  9 23  1  0
M  END
