
     RDKit          3D

 21 22  0  0  0  0  0  0  0  0999 V2000
   -0.6300   -1.8193   -0.2200 C   0  0  0  0  0  0  0  0  0  0  0  0
   -0.4933   -0.3999   -0.6968 C   0  0  0  0  0  0  0  0  0  0  0  0
   -1.6941    0.3711   -0.2123 C   0  0  0  0  0  0  0  0  0  0  0  0
   -1.1870    1.3917    0.7845 C   0  0  0  0  0  0  0  0  0  0  0  0
    0.2009    1.6099    0.3224 C   0  0  0  0  0  0  0  0  0  0  0  0
    0.8115    2.6494    0.3093 O   0  0  0  0  0  0  0  0  0  0  0  0
    0.7008    0.3014   -0.1235 C   0  0  0  0  0  0  0  0  0  0  0  0
    2.0357    0.0867   -0.6805 C   0  0  0  0  0  0  0  0  0  0  0  0
    1.6970   -0.3742    0.7244 C   0  0  0  0  0  0  0  0  0  0  0  0
   -0.7178   -1.7801    0.8932 H   0  0  0  0  0  0  0  0  0  0  0  0
   -1.6202   -2.1892   -0.6089 H   0  0  0  0  0  0  0  0  0  0  0  0
    0.1681   -2.4868   -0.5640 H   0  0  0  0  0  0  0  0  0  0  0  0
   -0.3936   -0.3860   -1.8094 H   0  0  0  0  0  0  0  0  0  0  0  0
   -2.0772    0.9461   -1.0877 H   0  0  0  0  0  0  0  0  0  0  0  0
   -2.4898   -0.2650    0.1813 H   0  0  0  0  0  0  0  0  0  0  0  0
   -1.8164    2.2825    0.7093 H   0  0  0  0  0  0  0  0  0  0  0  0
   -1.2116    0.9730    1.8202 H   0  0  0  0  0  0  0  0  0  0  0  0
    2.6584    1.0099   -0.7977 H   0  0  0  0  0  0  0  0  0  0  0  0
    2.2299   -0.6964   -1.4132 H   0  0  0  0  0  0  0  0  0  0  0  0
    2.1378    0.2298    1.5522 H   0  0  0  0  0  0  0  0  0  0  0  0
    1.6909   -1.4546    0.9172 H   0  0  0  0  0  0  0  0  0  0  0  0
  1  2  1  0
  2  3  1  0
  3  4  1  0
  4  5  1  0
  5  6  2  0
  5  7  1  0
  7  8  1  0
  8  9  1  0
  7  2  1  0
  9  7  1  0
  1 10  1  0
  1 11  1  0
  1 12  1  0
  2 13  1  0
  3 14  1  0
  3 15  1  0
  4 16  1  0
  4 17  1  0
  8 18  1  0
  8 19  1  0
  9 20  1  0
  9 21  1  0
M  END
