
     RDKit          3D

 23 24  0  0  0  0  0  0  0  0999 V2000
    2.5316    1.2570    0.9707 C   0  0  0  0  0  0  0  0  0  0  0  0
    1.7559    0.2275    0.1850 C   0  0  0  0  0  0  0  0  0  0  0  0
    1.1613    0.7847   -1.1062 C   0  0  0  0  0  0  0  0  0  0  0  0
    0.3081    0.3592    0.0654 C   0  0  0  0  0  0  0  0  0  0  0  0
   -0.6097   -0.7861   -0.1808 C   0  0  0  0  0  0  0  0  0  0  0  0
   -0.5468   -1.8447    0.9028 C   0  0  0  0  0  0  0  0  0  0  0  0
   -2.0551   -0.3770   -0.3100 C   0  0  0  0  0  0  0  0  0  0  0  0
   -2.5284    0.5357   -1.3241 C   0  0  0  0  0  0  0  0  0  0  0  0
   -2.7322   -0.8636   -1.5238 O   0  0  0  0  0  0  0  0  0  0  0  0
    2.2982    1.2033    2.0540 H   0  0  0  0  0  0  0  0  0  0  0  0
    2.3715    2.2975    0.5784 H   0  0  0  0  0  0  0  0  0  0  0  0
    3.6093    1.0514    0.8116 H   0  0  0  0  0  0  0  0  0  0  0  0
    2.2560   -0.7747    0.1375 H   0  0  0  0  0  0  0  0  0  0  0  0
    1.2896    1.8484   -1.3397 H   0  0  0  0  0  0  0  0  0  0  0  0
    1.1919    0.1321   -2.0040 H   0  0  0  0  0  0  0  0  0  0  0  0
   -0.1460    1.2326    0.5953 H   0  0  0  0  0  0  0  0  0  0  0  0
   -0.3036   -1.2974   -1.1159 H   0  0  0  0  0  0  0  0  0  0  0  0
    0.4688   -2.1904    1.1143 H   0  0  0  0  0  0  0  0  0  0  0  0
   -1.1109   -1.5235    1.8031 H   0  0  0  0  0  0  0  0  0  0  0  0
   -1.1055   -2.7381    0.5130 H   0  0  0  0  0  0  0  0  0  0  0  0
   -2.7313   -0.5765    0.5586 H   0  0  0  0  0  0  0  0  0  0  0  0
   -3.4844    1.0583   -1.1575 H   0  0  0  0  0  0  0  0  0  0  0  0
   -1.8882    0.9842   -2.0863 H   0  0  0  0  0  0  0  0  0  0  0  0
  1  2  1  0
  2  3  1  0
  3  4  1  0
  4  5  1  0
  5  6  1  0
  5  7  1  0
  7  8  1  0
  8  9  1  0
  4  2  1  0
  9  7  1  0
  1 10  1  0
  1 11  1  0
  1 12  1  0
  2 13  1  0
  3 14  1  0
  3 15  1  0
  4 16  1  0
  5 17  1  0
  6 18  1  0
  6 19  1  0
  6 20  1  0
  7 21  1  0
  8 22  1  0
  8 23  1  0
M  END
