
     RDKit          3D

 17 18  0  0  0  0  0  0  0  0999 V2000
    2.0600    0.1522    0.1888 C   0  0  0  0  0  0  0  0  0  0  0  0
    0.7554   -0.2280   -0.4190 C   0  0  0  0  0  0  0  0  0  0  0  0
   -0.0835   -1.2251    0.3038 C   0  0  0  0  0  0  0  0  0  0  0  0
   -0.3086   -0.2510    1.2627 O   0  0  0  0  0  0  0  0  0  0  0  0
   -0.4504    0.4899    0.1298 C   0  0  0  0  0  0  0  0  0  0  0  0
   -0.7364    1.8089   -0.0004 C   0  0  0  0  0  0  0  0  0  0  0  0
   -0.8370    2.3589   -1.1017 O   0  0  0  0  0  0  0  0  0  0  0  0
   -1.2618   -0.6544   -0.4282 C   0  0  0  0  0  0  0  0  0  0  0  0
   -2.4902   -0.8112    0.1515 O   0  0  0  0  0  0  0  0  0  0  0  0
    2.1036    1.2756    0.2095 H   0  0  0  0  0  0  0  0  0  0  0  0
    2.1920   -0.2327    1.2166 H   0  0  0  0  0  0  0  0  0  0  0  0
    2.8742   -0.1597   -0.4993 H   0  0  0  0  0  0  0  0  0  0  0  0
    0.7162   -0.3876   -1.5019 H   0  0  0  0  0  0  0  0  0  0  0  0
    0.1133   -2.2021    0.4634 H   0  0  0  0  0  0  0  0  0  0  0  0
   -0.9049    2.5105    0.8402 H   0  0  0  0  0  0  0  0  0  0  0  0
   -1.1718   -0.8245   -1.5076 H   0  0  0  0  0  0  0  0  0  0  0  0
   -2.5700   -1.6195    0.6917 H   0  0  0  0  0  0  0  0  0  0  0  0
  1  2  1  0
  2  3  1  0
  3  4  1  0
  4  5  1  0
  5  6  1  0
  6  7  2  0
  5  8  1  0
  8  9  1  0
  5  2  1  0
  8  3  1  0
  1 10  1  0
  1 11  1  0
  1 12  1  0
  2 13  1  0
  3 14  1  0
  6 15  1  0
  8 16  1  0
  9 17  1  0
M  END
