
     RDKit          3D

 21 22  0  0  0  0  0  0  0  0999 V2000
    2.5399   -0.1696    0.2192 C   0  0  0  0  0  0  0  0  0  0  0  0
    1.0607   -0.2687    0.6102 C   0  0  0  0  0  0  0  0  0  0  0  0
    0.5592    1.1174    0.7249 C   0  0  0  0  0  0  0  0  0  0  0  0
   -0.6227    1.5138    0.3317 C   0  0  0  0  0  0  0  0  0  0  0  0
   -1.5537    0.5583   -0.2711 C   0  0  0  0  0  0  0  0  0  0  0  0
   -2.5375    1.1662   -1.0857 O   0  0  0  0  0  0  0  0  0  0  0  0
   -2.0097   -0.6476    0.4546 C   0  0  0  0  0  0  0  0  0  0  0  0
   -1.0405   -0.7209   -0.6923 C   0  0  0  0  0  0  0  0  0  0  0  0
    0.3804   -1.0535   -0.4663 C   0  0  0  0  0  0  0  0  0  0  0  0
    2.6082    0.3196   -0.7967 H   0  0  0  0  0  0  0  0  0  0  0  0
    3.1116    0.4410    0.9327 H   0  0  0  0  0  0  0  0  0  0  0  0
    2.9922   -1.1693    0.1711 H   0  0  0  0  0  0  0  0  0  0  0  0
    1.0160   -0.7588    1.5873 H   0  0  0  0  0  0  0  0  0  0  0  0
    1.2432    1.8474    1.1746 H   0  0  0  0  0  0  0  0  0  0  0  0
   -0.8830    2.5694    0.4684 H   0  0  0  0  0  0  0  0  0  0  0  0
   -2.0612    1.4440   -1.9241 H   0  0  0  0  0  0  0  0  0  0  0  0
   -1.6469   -0.8736    1.4893 H   0  0  0  0  0  0  0  0  0  0  0  0
   -3.0448   -1.0082    0.2919 H   0  0  0  0  0  0  0  0  0  0  0  0
   -1.4705   -1.1676   -1.6259 H   0  0  0  0  0  0  0  0  0  0  0  0
    0.4388   -2.1384   -0.1590 H   0  0  0  0  0  0  0  0  0  0  0  0
    0.9204   -1.0008   -1.4346 H   0  0  0  0  0  0  0  0  0  0  0  0
  1  2  1  0
  2  3  1  0
  3  4  2  0
  4  5  1  0
  5  6  1  0
  5  7  1  0
  7  8  1  0
  8  9  1  0
  9  2  1  0
  8  5  1  0
  1 10  1  0
  1 11  1  0
  1 12  1  0
  2 13  1  0
  3 14  1  0
  4 15  1  0
  6 16  1  0
  7 17  1  0
  7 18  1  0
  8 19  1  0
  9 20  1  0
  9 21  1  0
M  END
