
     RDKit          3D

 17 17  0  0  0  0  0  0  0  0999 V2000
   -1.7163   -1.0507   -0.1016 C   0  0  0  0  0  0  0  0  0  0  0  0
   -0.6793   -0.1715    0.5391 C   0  0  0  0  0  0  0  0  0  0  0  0
   -0.9982    1.2980    0.5791 C   0  0  0  0  0  0  0  0  0  0  0  0
    0.3489    1.5258    0.2797 O   0  0  0  0  0  0  0  0  0  0  0  0
    0.2550    0.3845   -0.5169 C   0  0  0  0  0  0  0  0  0  0  0  0
    1.4987   -0.4052   -0.6362 C   0  0  0  0  0  0  0  0  0  0  0  0
    1.4403   -1.4382   -1.3484 O   0  0  0  0  0  0  0  0  0  0  0  0
    2.7285   -0.0129    0.0328 C   0  0  0  0  0  0  0  0  0  0  0  0
    2.7895    1.0208    0.7464 O   0  0  0  0  0  0  0  0  0  0  0  0
   -2.3009   -1.5458    0.7103 H   0  0  0  0  0  0  0  0  0  0  0  0
   -1.1867   -1.8316   -0.6837 H   0  0  0  0  0  0  0  0  0  0  0  0
   -2.3983   -0.4514   -0.7249 H   0  0  0  0  0  0  0  0  0  0  0  0
   -0.1703   -0.5671    1.4236 H   0  0  0  0  0  0  0  0  0  0  0  0
   -1.3259    1.6976    1.5522 H   0  0  0  0  0  0  0  0  0  0  0  0
   -1.6169    1.5656   -0.2883 H   0  0  0  0  0  0  0  0  0  0  0  0
   -0.2604    0.6289   -1.4558 H   0  0  0  0  0  0  0  0  0  0  0  0
    3.5922   -0.6470   -0.1077 H   0  0  0  0  0  0  0  0  0  0  0  0
  1  2  1  0
  2  3  1  0
  3  4  1  0
  4  5  1  0
  5  6  1  0
  6  7  2  0
  6  8  1  0
  8  9  2  0
  5  2  1  0
  1 10  1  0
  1 11  1  0
  1 12  1  0
  2 13  1  0
  3 14  1  0
  3 15  1  0
  5 16  1  0
  8 17  1  0
M  END
