
     RDKit          3D

 21 22  0  0  0  0  0  0  0  0999 V2000
    1.2699    1.0253    1.3541 C   0  0  0  0  0  0  0  0  0  0  0  0
    0.6959    0.6276    0.0306 C   0  0  0  0  0  0  0  0  0  0  0  0
    0.8632   -0.8919   -0.1890 C   0  0  0  0  0  0  0  0  0  0  0  0
    1.7480   -1.1658   -1.1995 O   0  0  0  0  0  0  0  0  0  0  0  0
   -0.5554   -1.2528   -0.4757 C   0  0  0  0  0  0  0  0  0  0  0  0
   -1.2854   -0.5458    0.6761 C   0  0  0  0  0  0  0  0  0  0  0  0
   -0.7976    0.7095   -0.0367 C   0  0  0  0  0  0  0  0  0  0  0  0
   -1.4390    1.8523    0.1453 O   0  0  0  0  0  0  0  0  0  0  0  0
   -1.0820   -0.0933   -1.3175 C   0  0  0  0  0  0  0  0  0  0  0  0
    0.7523    0.4399    2.1377 H   0  0  0  0  0  0  0  0  0  0  0  0
    2.3631    0.8057    1.3181 H   0  0  0  0  0  0  0  0  0  0  0  0
    1.1690    2.1062    1.4676 H   0  0  0  0  0  0  0  0  0  0  0  0
    1.2100    1.1102   -0.8116 H   0  0  0  0  0  0  0  0  0  0  0  0
    1.1677   -1.3768    0.7811 H   0  0  0  0  0  0  0  0  0  0  0  0
    2.5329   -1.7006   -0.8566 H   0  0  0  0  0  0  0  0  0  0  0  0
   -0.8475   -2.2352   -0.7197 H   0  0  0  0  0  0  0  0  0  0  0  0
   -0.7931   -0.7838    1.6150 H   0  0  0  0  0  0  0  0  0  0  0  0
   -2.3699   -0.6851    0.5968 H   0  0  0  0  0  0  0  0  0  0  0  0
   -2.0307    1.9438    0.9312 H   0  0  0  0  0  0  0  0  0  0  0  0
   -2.1515   -0.1408   -1.5270 H   0  0  0  0  0  0  0  0  0  0  0  0
   -0.4197    0.2516   -2.1106 H   0  0  0  0  0  0  0  0  0  0  0  0
  1  2  1  0
  2  3  1  0
  3  4  1  0
  3  5  1  0
  5  6  1  0
  6  7  1  0
  7  8  1  0
  7  9  1  0
  7  2  1  0
  9  5  1  0
  1 10  1  0
  1 11  1  0
  1 12  1  0
  2 13  1  0
  3 14  1  0
  4 15  1  0
  5 16  1  0
  6 17  1  0
  6 18  1  0
  8 19  1  0
  9 20  1  0
  9 21  1  0
M  END
