
     RDKit          3D

 23 24  0  0  0  0  0  0  0  0999 V2000
    3.0241    0.2473    0.0053 C   0  0  0  0  0  0  0  0  0  0  0  0
    1.5505    0.4346   -0.0550 C   0  0  0  0  0  0  0  0  0  0  0  0
    0.7412   -0.1965    1.0524 C   0  0  0  0  0  0  0  0  0  0  0  0
   -0.1152   -0.5294   -0.0860 C   0  0  0  0  0  0  0  0  0  0  0  0
   -0.9826   -1.7203   -0.0493 C   0  0  0  0  0  0  0  0  0  0  0  0
   -2.1429   -0.8270   -0.5117 C   0  0  0  0  0  0  0  0  0  0  0  0
   -1.1823    0.3673   -0.5377 C   0  0  0  0  0  0  0  0  0  0  0  0
   -1.5763    1.5219    0.3041 C   0  0  0  0  0  0  0  0  0  0  0  0
    0.9846   -0.5352   -0.9180 O   0  0  0  0  0  0  0  0  0  0  0  0
    3.4309    0.4569   -1.0248 H   0  0  0  0  0  0  0  0  0  0  0  0
    3.3045   -0.7863    0.2473 H   0  0  0  0  0  0  0  0  0  0  0  0
    3.5405    0.9081    0.7088 H   0  0  0  0  0  0  0  0  0  0  0  0
    1.2216    1.4539   -0.2336 H   0  0  0  0  0  0  0  0  0  0  0  0
    0.3928    0.4540    1.8449 H   0  0  0  0  0  0  0  0  0  0  0  0
    1.2882   -1.0993    1.4349 H   0  0  0  0  0  0  0  0  0  0  0  0
   -0.7272   -2.5269   -0.7468 H   0  0  0  0  0  0  0  0  0  0  0  0
   -1.1437   -2.0578    1.0164 H   0  0  0  0  0  0  0  0  0  0  0  0
   -2.4925   -1.1618   -1.4897 H   0  0  0  0  0  0  0  0  0  0  0  0
   -2.9447   -0.7043    0.2270 H   0  0  0  0  0  0  0  0  0  0  0  0
   -1.0669    0.6958   -1.6105 H   0  0  0  0  0  0  0  0  0  0  0  0
   -1.1220    2.4577   -0.1247 H   0  0  0  0  0  0  0  0  0  0  0  0
   -2.6819    1.6684    0.2567 H   0  0  0  0  0  0  0  0  0  0  0  0
   -1.3007    1.4790    1.3504 H   0  0  0  0  0  0  0  0  0  0  0  0
  1  2  1  0
  2  3  1  0
  3  4  1  0
  4  5  1  0
  5  6  1  0
  6  7  1  0
  7  8  1  0
  4  9  1  0
  9  2  1  0
  7  4  1  0
  1 10  1  0
  1 11  1  0
  1 12  1  0
  2 13  1  0
  3 14  1  0
  3 15  1  0
  5 16  1  0
  5 17  1  0
  6 18  1  0
  6 19  1  0
  7 20  1  0
  8 21  1  0
  8 22  1  0
  8 23  1  0
M  END
