
     RDKit          3D

 21 22  0  0  0  0  0  0  0  0999 V2000
   -2.5879    0.1996    0.6035 C   0  0  0  0  0  0  0  0  0  0  0  0
   -1.5051   -0.7667    0.1757 C   0  0  0  0  0  0  0  0  0  0  0  0
   -1.1686   -0.5374   -1.2788 C   0  0  0  0  0  0  0  0  0  0  0  0
    0.2681   -0.4259   -0.9261 C   0  0  0  0  0  0  0  0  0  0  0  0
    0.8697    0.7971   -1.1887 O   0  0  0  0  0  0  0  0  0  0  0  0
    2.1028    0.9377   -0.5936 C   0  0  0  0  0  0  0  0  0  0  0  0
    2.2255    0.2580    0.7433 C   0  0  0  0  0  0  0  0  0  0  0  0
    0.8680   -0.0306    1.3342 C   0  0  0  0  0  0  0  0  0  0  0  0
   -0.1230   -0.3735    0.5143 C   0  0  0  0  0  0  0  0  0  0  0  0
   -2.4707    0.3323    1.7057 H   0  0  0  0  0  0  0  0  0  0  0  0
   -3.5547   -0.2548    0.3864 H   0  0  0  0  0  0  0  0  0  0  0  0
   -2.4451    1.1896    0.1374 H   0  0  0  0  0  0  0  0  0  0  0  0
   -1.7362   -1.7921    0.4706 H   0  0  0  0  0  0  0  0  0  0  0  0
   -1.4028   -1.4708   -1.8664 H   0  0  0  0  0  0  0  0  0  0  0  0
   -1.6183    0.3500   -1.7475 H   0  0  0  0  0  0  0  0  0  0  0  0
    0.8512   -1.3200   -1.2199 H   0  0  0  0  0  0  0  0  0  0  0  0
    2.8603    0.4985   -1.2773 H   0  0  0  0  0  0  0  0  0  0  0  0
    2.3231    2.0285   -0.5393 H   0  0  0  0  0  0  0  0  0  0  0  0
    2.7000    0.9815    1.4407 H   0  0  0  0  0  0  0  0  0  0  0  0
    2.8665   -0.6333    0.7311 H   0  0  0  0  0  0  0  0  0  0  0  0
    0.6772    0.0323    2.3948 H   0  0  0  0  0  0  0  0  0  0  0  0
  1  2  1  0
  2  3  1  0
  3  4  1  0
  4  5  1  0
  5  6  1  0
  6  7  1  0
  7  8  1  0
  8  9  2  0
  9  2  1  0
  9  4  1  0
  1 10  1  0
  1 11  1  0
  1 12  1  0
  2 13  1  0
  3 14  1  0
  3 15  1  0
  4 16  1  0
  6 17  1  0
  6 18  1  0
  7 19  1  0
  7 20  1  0
  8 21  1  0
M  END
