
     RDKit          3D

 21 21  0  0  0  0  0  0  0  0999 V2000
    2.7319    0.3920   -0.0079 C   0  0  0  0  0  0  0  0  0  0  0  0
    1.3104   -0.0589   -0.2761 C   0  0  0  0  0  0  0  0  0  0  0  0
    0.8289   -1.1817    0.6553 C   0  0  0  0  0  0  0  0  0  0  0  0
    0.2872    0.2362    0.7393 C   0  0  0  0  0  0  0  0  0  0  0  0
   -1.1789    0.3420    0.3892 C   0  0  0  0  0  0  0  0  0  0  0  0
   -1.7120   -0.9438   -0.2048 C   0  0  0  0  0  0  0  0  0  0  0  0
   -1.8692    0.5538    1.5813 O   0  0  0  0  0  0  0  0  0  0  0  0
   -1.4228    1.4779   -0.5353 C   0  0  0  0  0  0  0  0  0  0  0  0
   -2.1353    2.3944   -0.1901 O   0  0  0  0  0  0  0  0  0  0  0  0
    2.8930    0.4358    1.1068 H   0  0  0  0  0  0  0  0  0  0  0  0
    2.9287    1.4128   -0.3822 H   0  0  0  0  0  0  0  0  0  0  0  0
    3.4767   -0.3256   -0.3867 H   0  0  0  0  0  0  0  0  0  0  0  0
    1.0655   -0.2433   -1.3407 H   0  0  0  0  0  0  0  0  0  0  0  0
    0.2058   -1.9792    0.2304 H   0  0  0  0  0  0  0  0  0  0  0  0
    1.5058   -1.4632    1.5033 H   0  0  0  0  0  0  0  0  0  0  0  0
    0.5946    0.8840    1.5756 H   0  0  0  0  0  0  0  0  0  0  0  0
   -1.1719   -1.2710   -1.0988 H   0  0  0  0  0  0  0  0  0  0  0  0
   -2.7651   -0.7063   -0.5363 H   0  0  0  0  0  0  0  0  0  0  0  0
   -1.7892   -1.7204    0.5702 H   0  0  0  0  0  0  0  0  0  0  0  0
   -2.8094    0.2535    1.5299 H   0  0  0  0  0  0  0  0  0  0  0  0
   -0.9748    1.5108   -1.5251 H   0  0  0  0  0  0  0  0  0  0  0  0
  1  2  1  0
  2  3  1  0
  3  4  1  0
  4  5  1  0
  5  6  1  0
  5  7  1  0
  5  8  1  0
  8  9  2  0
  4  2  1  0
  1 10  1  0
  1 11  1  0
  1 12  1  0
  2 13  1  0
  3 14  1  0
  3 15  1  0
  4 16  1  0
  6 17  1  0
  6 18  1  0
  6 19  1  0
  7 20  1  0
  8 21  1  0
M  END
