
     RDKit          3D

 21 22  0  0  0  0  0  0  0  0999 V2000
    2.8817    0.1791    0.2732 C   0  0  0  0  0  0  0  0  0  0  0  0
    1.5252    0.1742   -0.3600 C   0  0  0  0  0  0  0  0  0  0  0  0
    0.5651   -0.8931    0.0105 C   0  0  0  0  0  0  0  0  0  0  0  0
   -0.5991   -1.2131   -0.8165 C   0  0  0  0  0  0  0  0  0  0  0  0
   -1.8868   -0.8706   -0.6083 C   0  0  0  0  0  0  0  0  0  0  0  0
   -2.5181   -0.1000    0.4653 C   0  0  0  0  0  0  0  0  0  0  0  0
   -1.9251    1.1374    0.6836 O   0  0  0  0  0  0  0  0  0  0  0  0
   -0.7380    1.2549   -0.0296 C   0  0  0  0  0  0  0  0  0  0  0  0
    0.3886    0.4807    0.5783 C   0  0  0  0  0  0  0  0  0  0  0  0
    3.1078   -0.8365    0.6353 H   0  0  0  0  0  0  0  0  0  0  0  0
    3.6788    0.5864   -0.3953 H   0  0  0  0  0  0  0  0  0  0  0  0
    2.8695    0.8820    1.1540 H   0  0  0  0  0  0  0  0  0  0  0  0
    1.5087    0.6133   -1.3859 H   0  0  0  0  0  0  0  0  0  0  0  0
    0.9878   -1.6930    0.6668 H   0  0  0  0  0  0  0  0  0  0  0  0
   -0.4700   -1.8013   -1.7306 H   0  0  0  0  0  0  0  0  0  0  0  0
   -2.5673   -1.2324   -1.3725 H   0  0  0  0  0  0  0  0  0  0  0  0
   -3.5760    0.1024    0.2049 H   0  0  0  0  0  0  0  0  0  0  0  0
   -2.5284   -0.6262    1.4386 H   0  0  0  0  0  0  0  0  0  0  0  0
   -0.8501    0.9684   -1.0789 H   0  0  0  0  0  0  0  0  0  0  0  0
   -0.4451    2.3377    0.0019 H   0  0  0  0  0  0  0  0  0  0  0  0
    0.5908    0.5495    1.6654 H   0  0  0  0  0  0  0  0  0  0  0  0
  1  2  1  0
  2  3  1  0
  3  4  1  0
  4  5  2  0
  5  6  1  0
  6  7  1  0
  7  8  1  0
  8  9  1  0
  9  2  1  0
  9  3  1  0
  1 10  1  0
  1 11  1  0
  1 12  1  0
  2 13  1  0
  3 14  1  0
  4 15  1  0
  5 16  1  0
  6 17  1  0
  6 18  1  0
  8 19  1  0
  8 20  1  0
  9 21  1  0
M  END
