
     RDKit          3D

 21 22  0  0  0  0  0  0  0  0999 V2000
    1.5197    1.3422    0.1628 C   0  0  0  0  0  0  0  0  0  0  0  0
    1.4800    0.0723   -0.6000 C   0  0  0  0  0  0  0  0  0  0  0  0
    1.4850   -1.1575    0.3640 C   0  0  0  0  0  0  0  0  0  0  0  0
    0.4355   -0.9041   -0.7168 C   0  0  0  0  0  0  0  0  0  0  0  0
   -0.9556   -0.8879   -0.2503 C   0  0  0  0  0  0  0  0  0  0  0  0
   -1.7230    0.2623   -0.9007 C   0  0  0  0  0  0  0  0  0  0  0  0
   -1.7412    0.9438    0.4100 C   0  0  0  0  0  0  0  0  0  0  0  0
   -1.9632    2.0684    0.7880 O   0  0  0  0  0  0  0  0  0  0  0  0
   -1.3717   -0.3472    1.0402 C   0  0  0  0  0  0  0  0  0  0  0  0
    2.6092    1.5186    0.4294 H   0  0  0  0  0  0  0  0  0  0  0  0
    1.2342    2.2426   -0.4252 H   0  0  0  0  0  0  0  0  0  0  0  0
    1.0275    1.3167    1.1498 H   0  0  0  0  0  0  0  0  0  0  0  0
    2.2652    0.0795   -1.3914 H   0  0  0  0  0  0  0  0  0  0  0  0
    2.3141   -1.8571    0.1651 H   0  0  0  0  0  0  0  0  0  0  0  0
    1.1696   -1.0065    1.3952 H   0  0  0  0  0  0  0  0  0  0  0  0
    0.5459   -1.6346   -1.5594 H   0  0  0  0  0  0  0  0  0  0  0  0
   -1.4854   -1.8304   -0.5005 H   0  0  0  0  0  0  0  0  0  0  0  0
   -1.1439    0.8401   -1.6343 H   0  0  0  0  0  0  0  0  0  0  0  0
   -2.7471    0.0143   -1.2166 H   0  0  0  0  0  0  0  0  0  0  0  0
   -2.2962   -0.8284    1.4244 H   0  0  0  0  0  0  0  0  0  0  0  0
   -0.6587   -0.2469    1.8662 H   0  0  0  0  0  0  0  0  0  0  0  0
  1  2  1  0
  2  3  1  0
  3  4  1  0
  4  5  1  0
  5  6  1  0
  6  7  1  0
  7  8  2  0
  7  9  1  0
  4  2  1  0
  9  5  1  0
  1 10  1  0
  1 11  1  0
  1 12  1  0
  2 13  1  0
  3 14  1  0
  3 15  1  0
  4 16  1  0
  5 17  1  0
  6 18  1  0
  6 19  1  0
  9 20  1  0
  9 21  1  0
M  END
