
     RDKit          3D

 21 21  0  0  0  0  0  0  0  0999 V2000
    2.3434    0.0977    0.5094 C   0  0  0  0  0  0  0  0  0  0  0  0
    1.2748    0.3237   -0.5462 C   0  0  0  0  0  0  0  0  0  0  0  0
    0.1065    1.0618    0.0449 C   0  0  0  0  0  0  0  0  0  0  0  0
   -1.2248    0.5095   -0.3709 C   0  0  0  0  0  0  0  0  0  0  0  0
   -2.2334    1.0052    0.6288 C   0  0  0  0  0  0  0  0  0  0  0  0
   -2.1306    0.6398    1.7849 O   0  0  0  0  0  0  0  0  0  0  0  0
   -1.2836   -0.9829   -0.4030 C   0  0  0  0  0  0  0  0  0  0  0  0
    0.0752   -1.6405   -0.3323 C   0  0  0  0  0  0  0  0  0  0  0  0
    0.9443   -0.8871   -1.1095 O   0  0  0  0  0  0  0  0  0  0  0  0
    3.3562    0.1595    0.0541 H   0  0  0  0  0  0  0  0  0  0  0  0
    2.2017    0.8524    1.3242 H   0  0  0  0  0  0  0  0  0  0  0  0
    2.2337   -0.8906    1.0058 H   0  0  0  0  0  0  0  0  0  0  0  0
    1.7662    0.9330   -1.3592 H   0  0  0  0  0  0  0  0  0  0  0  0
    0.1428    2.1231   -0.3376 H   0  0  0  0  0  0  0  0  0  0  0  0
    0.1785    1.1684    1.1562 H   0  0  0  0  0  0  0  0  0  0  0  0
   -1.5196    0.9224   -1.3766 H   0  0  0  0  0  0  0  0  0  0  0  0
   -3.0314    1.6687    0.3368 H   0  0  0  0  0  0  0  0  0  0  0  0
   -1.7357   -1.3221   -1.3779 H   0  0  0  0  0  0  0  0  0  0  0  0
   -1.8895   -1.3971    0.4121 H   0  0  0  0  0  0  0  0  0  0  0  0
    0.3724   -1.6876    0.7266 H   0  0  0  0  0  0  0  0  0  0  0  0
    0.0528   -2.6574   -0.7706 H   0  0  0  0  0  0  0  0  0  0  0  0
  1  2  1  0
  2  3  1  0
  3  4  1  0
  4  5  1  0
  5  6  2  0
  4  7  1  0
  7  8  1  0
  8  9  1  0
  9  2  1  0
  1 10  1  0
  1 11  1  0
  1 12  1  0
  2 13  1  0
  3 14  1  0
  3 15  1  0
  4 16  1  0
  5 17  1  0
  7 18  1  0
  7 19  1  0
  8 20  1  0
  8 21  1  0
M  END
