
     RDKit          3D

 19 20  0  0  0  0  0  0  0  0999 V2000
    2.4230    0.1063    0.3273 C   0  0  0  0  0  0  0  0  0  0  0  0
    0.9995    0.2801   -0.1717 C   0  0  0  0  0  0  0  0  0  0  0  0
    0.2596   -1.0237   -0.2151 C   0  0  0  0  0  0  0  0  0  0  0  0
   -1.1768   -0.6632   -0.0132 C   0  0  0  0  0  0  0  0  0  0  0  0
   -2.0095   -1.7352    0.2666 O   0  0  0  0  0  0  0  0  0  0  0  0
   -1.7864    0.5660   -0.5590 C   0  0  0  0  0  0  0  0  0  0  0  0
   -1.1418    0.5480    0.8239 C   0  0  0  0  0  0  0  0  0  0  0  0
    0.2379    1.0797    0.8143 C   0  0  0  0  0  0  0  0  0  0  0  0
    0.6653    1.9891    1.4793 O   0  0  0  0  0  0  0  0  0  0  0  0
    2.7870   -0.9214    0.2262 H   0  0  0  0  0  0  0  0  0  0  0  0
    3.0708    0.8265   -0.2547 H   0  0  0  0  0  0  0  0  0  0  0  0
    2.5081    0.4096    1.3881 H   0  0  0  0  0  0  0  0  0  0  0  0
    1.0066    0.7945   -1.1689 H   0  0  0  0  0  0  0  0  0  0  0  0
    0.3543   -1.5621   -1.1684 H   0  0  0  0  0  0  0  0  0  0  0  0
    0.5853   -1.6203    0.6609 H   0  0  0  0  0  0  0  0  0  0  0  0
   -2.7952   -1.4980    0.8006 H   0  0  0  0  0  0  0  0  0  0  0  0
   -2.8910    0.5967   -0.5511 H   0  0  0  0  0  0  0  0  0  0  0  0
   -1.2980    1.1154   -1.3746 H   0  0  0  0  0  0  0  0  0  0  0  0
   -1.7988    0.7123    1.6830 H   0  0  0  0  0  0  0  0  0  0  0  0
  1  2  1  0
  2  3  1  0
  3  4  1  0
  4  5  1  0
  4  6  1  0
  6  7  1  0
  7  8  1  0
  8  9  2  0
  8  2  1  0
  7  4  1  0
  1 10  1  0
  1 11  1  0
  1 12  1  0
  2 13  1  0
  3 14  1  0
  3 15  1  0
  5 16  1  0
  6 17  1  0
  6 18  1  0
  7 19  1  0
M  END
