
     RDKit          3D

 21 22  0  0  0  0  0  0  0  0999 V2000
    2.8955   -0.0634   -0.1735 C   0  0  0  0  0  0  0  0  0  0  0  0
    1.4931   -0.6402   -0.0748 C   0  0  0  0  0  0  0  0  0  0  0  0
    0.6977   -0.1107    1.0546 C   0  0  0  0  0  0  0  0  0  0  0  0
   -0.6559   -0.7049    1.2106 C   0  0  0  0  0  0  0  0  0  0  0  0
   -1.2781   -1.4302    1.9638 O   0  0  0  0  0  0  0  0  0  0  0  0
   -1.0372   -0.0103   -0.0448 C   0  0  0  0  0  0  0  0  0  0  0  0
   -1.8067   -0.8506   -1.0362 C   0  0  0  0  0  0  0  0  0  0  0  0
   -1.7701    1.3069    0.2361 C   0  0  0  0  0  0  0  0  0  0  0  0
    0.3896    0.2622   -0.3833 C   0  0  0  0  0  0  0  0  0  0  0  0
    2.8457    1.0089   -0.4291 H   0  0  0  0  0  0  0  0  0  0  0  0
    3.4181   -0.5747   -0.9870 H   0  0  0  0  0  0  0  0  0  0  0  0
    3.4194   -0.1759    0.8092 H   0  0  0  0  0  0  0  0  0  0  0  0
    1.4686   -1.7325   -0.2177 H   0  0  0  0  0  0  0  0  0  0  0  0
    1.0628    0.6451    1.7464 H   0  0  0  0  0  0  0  0  0  0  0  0
   -1.1350   -1.5969   -1.4778 H   0  0  0  0  0  0  0  0  0  0  0  0
   -2.6565   -1.3793   -0.5742 H   0  0  0  0  0  0  0  0  0  0  0  0
   -2.2269   -0.1608   -1.8008 H   0  0  0  0  0  0  0  0  0  0  0  0
   -2.3751    1.2360    1.1575 H   0  0  0  0  0  0  0  0  0  0  0  0
   -1.0345    2.1324    0.4213 H   0  0  0  0  0  0  0  0  0  0  0  0
   -2.3533    1.5557   -0.6595 H   0  0  0  0  0  0  0  0  0  0  0  0
    0.6389    1.2833   -0.7408 H   0  0  0  0  0  0  0  0  0  0  0  0
  1  2  1  0
  2  3  1  0
  3  4  1  0
  4  5  2  0
  4  6  1  0
  6  7  1  0
  6  8  1  0
  6  9  1  0
  9  2  1  0
  9  3  1  0
  1 10  1  0
  1 11  1  0
  1 12  1  0
  2 13  1  0
  3 14  1  0
  7 15  1  0
  7 16  1  0
  7 17  1  0
  8 18  1  0
  8 19  1  0
  8 20  1  0
  9 21  1  0
M  END
