
     RDKit          3D

 23 24  0  0  0  0  0  0  0  0999 V2000
   -1.0960    1.8870   -0.9647 C   0  0  0  0  0  0  0  0  0  0  0  0
   -0.2878    1.1315    0.0343 C   0  0  0  0  0  0  0  0  0  0  0  0
   -0.9297   -0.0935    0.6325 C   0  0  0  0  0  0  0  0  0  0  0  0
   -1.7867   -0.9810   -0.1477 C   0  0  0  0  0  0  0  0  0  0  0  0
   -2.2452   -2.0339    0.6976 O   0  0  0  0  0  0  0  0  0  0  0  0
    0.4837   -0.4498    0.8893 C   0  0  0  0  0  0  0  0  0  0  0  0
    1.5759   -0.7995    0.0666 C   0  0  0  0  0  0  0  0  0  0  0  0
    3.0131   -0.3080    0.3107 C   0  0  0  0  0  0  0  0  0  0  0  0
    0.7014    0.1749   -0.5244 C   0  0  0  0  0  0  0  0  0  0  0  0
   -1.9349    1.3335   -1.3969 H   0  0  0  0  0  0  0  0  0  0  0  0
   -0.4121    2.2842   -1.7510 H   0  0  0  0  0  0  0  0  0  0  0  0
   -1.5092    2.8046   -0.4526 H   0  0  0  0  0  0  0  0  0  0  0  0
    0.1333    1.7674    0.8447 H   0  0  0  0  0  0  0  0  0  0  0  0
   -1.4850    0.2476    1.5566 H   0  0  0  0  0  0  0  0  0  0  0  0
   -1.1967   -1.5244   -0.9137 H   0  0  0  0  0  0  0  0  0  0  0  0
   -2.6937   -0.5752   -0.5807 H   0  0  0  0  0  0  0  0  0  0  0  0
   -3.1037   -2.3788    0.4108 H   0  0  0  0  0  0  0  0  0  0  0  0
    0.8551    0.2077    1.7506 H   0  0  0  0  0  0  0  0  0  0  0  0
    1.6248   -1.8923   -0.2327 H   0  0  0  0  0  0  0  0  0  0  0  0
    3.0813    0.7920    0.2139 H   0  0  0  0  0  0  0  0  0  0  0  0
    3.2736   -0.5579    1.3587 H   0  0  0  0  0  0  0  0  0  0  0  0
    3.7157   -0.7573   -0.3900 H   0  0  0  0  0  0  0  0  0  0  0  0
    0.2226   -0.2789   -1.4119 H   0  0  0  0  0  0  0  0  0  0  0  0
  1  2  1  0
  2  3  1  0
  3  4  1  0
  4  5  1  0
  3  6  1  0
  6  7  1  0
  7  8  1  0
  7  9  1  0
  9  2  1  0
  9  6  1  0
  1 10  1  0
  1 11  1  0
  1 12  1  0
  2 13  1  0
  3 14  1  0
  4 15  1  0
  4 16  1  0
  5 17  1  0
  6 18  1  0
  7 19  1  0
  8 20  1  0
  8 21  1  0
  8 22  1  0
  9 23  1  0
M  END
