
     RDKit          3D

 21 21  0  0  0  0  0  0  0  0999 V2000
    3.1619    0.9866    0.7856 C   0  0  0  0  0  0  0  0  0  0  0  0
    2.0958    0.5692   -0.1884 C   0  0  0  0  0  0  0  0  0  0  0  0
    1.8835   -0.9368   -0.2352 C   0  0  0  0  0  0  0  0  0  0  0  0
    0.8159   -0.0083    0.2353 C   0  0  0  0  0  0  0  0  0  0  0  0
   -0.2718    0.1021   -0.6171 O   0  0  0  0  0  0  0  0  0  0  0  0
   -1.4760    0.1801    0.1096 C   0  0  0  0  0  0  0  0  0  0  0  0
   -2.6110    0.2985   -0.9017 C   0  0  0  0  0  0  0  0  0  0  0  0
   -3.9162    0.3853   -0.2038 C   0  0  0  0  0  0  0  0  0  0  0  0
   -3.9483    0.3555    1.0146 O   0  0  0  0  0  0  0  0  0  0  0  0
    4.1110    0.4681    0.4626 H   0  0  0  0  0  0  0  0  0  0  0  0
    2.9567    0.6124    1.8051 H   0  0  0  0  0  0  0  0  0  0  0  0
    3.3911    2.0569    0.7741 H   0  0  0  0  0  0  0  0  0  0  0  0
    2.0954    1.1433   -1.1294 H   0  0  0  0  0  0  0  0  0  0  0  0
    1.8593   -1.3341   -1.2632 H   0  0  0  0  0  0  0  0  0  0  0  0
    2.3972   -1.5748    0.4843 H   0  0  0  0  0  0  0  0  0  0  0  0
    0.5540   -0.0157    1.3105 H   0  0  0  0  0  0  0  0  0  0  0  0
   -1.5152    1.0494    0.7680 H   0  0  0  0  0  0  0  0  0  0  0  0
   -1.6566   -0.7530    0.6737 H   0  0  0  0  0  0  0  0  0  0  0  0
   -2.4542    1.1698   -1.5460 H   0  0  0  0  0  0  0  0  0  0  0  0
   -2.6602   -0.6067   -1.5526 H   0  0  0  0  0  0  0  0  0  0  0  0
   -4.8122    0.4731   -0.7863 H   0  0  0  0  0  0  0  0  0  0  0  0
  1  2  1  0
  2  3  1  0
  3  4  1  0
  4  5  1  0
  5  6  1  0
  6  7  1  0
  7  8  1  0
  8  9  2  0
  4  2  1  0
  1 10  1  0
  1 11  1  0
  1 12  1  0
  2 13  1  0
  3 14  1  0
  3 15  1  0
  4 16  1  0
  6 17  1  0
  6 18  1  0
  7 19  1  0
  7 20  1  0
  8 21  1  0
M  END
