
     RDKit          3D

 19 20  0  0  0  0  0  0  0  0999 V2000
    2.5107    0.1384    0.3065 C   0  0  0  0  0  0  0  0  0  0  0  0
    1.0466    0.1920    0.7137 C   0  0  0  0  0  0  0  0  0  0  0  0
    0.2289   -0.9667    0.3470 C   0  0  0  0  0  0  0  0  0  0  0  0
   -1.1013   -1.2158    1.0076 C   0  0  0  0  0  0  0  0  0  0  0  0
   -2.0234   -0.4256    0.1766 C   0  0  0  0  0  0  0  0  0  0  0  0
   -3.1248   -0.7327   -0.1777 O   0  0  0  0  0  0  0  0  0  0  0  0
   -1.3262    0.8313   -0.1412 C   0  0  0  0  0  0  0  0  0  0  0  0
   -1.8674    1.4847   -1.2480 O   0  0  0  0  0  0  0  0  0  0  0  0
    0.0847    0.3821   -0.3806 C   0  0  0  0  0  0  0  0  0  0  0  0
    2.7303   -0.7866   -0.2974 H   0  0  0  0  0  0  0  0  0  0  0  0
    3.1686    0.1046    1.1851 H   0  0  0  0  0  0  0  0  0  0  0  0
    2.7588    0.9911   -0.3795 H   0  0  0  0  0  0  0  0  0  0  0  0
    0.8646    0.7077    1.6668 H   0  0  0  0  0  0  0  0  0  0  0  0
    0.6102   -1.7837   -0.3016 H   0  0  0  0  0  0  0  0  0  0  0  0
   -1.3650   -2.2907    1.0471 H   0  0  0  0  0  0  0  0  0  0  0  0
   -1.0679   -0.7512    2.0205 H   0  0  0  0  0  0  0  0  0  0  0  0
   -1.3537    1.5479    0.7107 H   0  0  0  0  0  0  0  0  0  0  0  0
   -1.1744    2.1597   -1.5274 H   0  0  0  0  0  0  0  0  0  0  0  0
    0.4006    0.4138   -1.4497 H   0  0  0  0  0  0  0  0  0  0  0  0
  1  2  1  0
  2  3  1  0
  3  4  1  0
  4  5  1  0
  5  6  2  0
  5  7  1  0
  7  8  1  0
  7  9  1  0
  9  2  1  0
  9  3  1  0
  1 10  1  0
  1 11  1  0
  1 12  1  0
  2 13  1  0
  3 14  1  0
  4 15  1  0
  4 16  1  0
  7 17  1  0
  8 18  1  0
  9 19  1  0
M  END
