
     RDKit          3D

 21 22  0  0  0  0  0  0  0  0999 V2000
   -2.2697   -0.8450    0.1633 C   0  0  0  0  0  0  0  0  0  0  0  0
   -1.1384    0.1275    0.4521 C   0  0  0  0  0  0  0  0  0  0  0  0
    0.2268   -0.4009    0.5060 C   0  0  0  0  0  0  0  0  0  0  0  0
    1.3341    0.2306    1.2728 C   0  0  0  0  0  0  0  0  0  0  0  0
    2.5065   -0.5079    1.1249 O   0  0  0  0  0  0  0  0  0  0  0  0
    0.5347   -1.5024   -0.4996 C   0  0  0  0  0  0  0  0  0  0  0  0
    0.2530   -0.5711   -1.5048 O   0  0  0  0  0  0  0  0  0  0  0  0
   -0.2493    0.4127   -0.6899 C   0  0  0  0  0  0  0  0  0  0  0  0
    0.2520    1.8303   -0.8385 C   0  0  0  0  0  0  0  0  0  0  0  0
   -2.2764   -1.1691   -0.8902 H   0  0  0  0  0  0  0  0  0  0  0  0
   -3.2513   -0.3894    0.3953 H   0  0  0  0  0  0  0  0  0  0  0  0
   -2.1465   -1.7157    0.8319 H   0  0  0  0  0  0  0  0  0  0  0  0
   -1.4337    0.9738    1.0738 H   0  0  0  0  0  0  0  0  0  0  0  0
    1.5266    1.2889    0.9764 H   0  0  0  0  0  0  0  0  0  0  0  0
    1.0976    0.2405    2.3486 H   0  0  0  0  0  0  0  0  0  0  0  0
    2.8169   -0.4312    0.1838 H   0  0  0  0  0  0  0  0  0  0  0  0
   -0.2863   -2.2749   -0.5171 H   0  0  0  0  0  0  0  0  0  0  0  0
    1.5525   -1.8919   -0.4719 H   0  0  0  0  0  0  0  0  0  0  0  0
    0.0478    2.3968    0.0990 H   0  0  0  0  0  0  0  0  0  0  0  0
    1.2878    1.8893   -1.1795 H   0  0  0  0  0  0  0  0  0  0  0  0
   -0.3848    2.3092   -1.6188 H   0  0  0  0  0  0  0  0  0  0  0  0
  1  2  1  0
  2  3  1  0
  3  4  1  0
  4  5  1  0
  3  6  1  0
  6  7  1  0
  7  8  1  0
  8  9  1  0
  8  2  1  0
  8  3  1  0
  1 10  1  0
  1 11  1  0
  1 12  1  0
  2 13  1  0
  4 14  1  0
  4 15  1  0
  5 16  1  0
  6 17  1  0
  6 18  1  0
  9 19  1  0
  9 20  1  0
  9 21  1  0
M  END
