
     RDKit          3D

 21 22  0  0  0  0  0  0  0  0999 V2000
    0.7379    2.0098    0.4774 C   0  0  0  0  0  0  0  0  0  0  0  0
    0.0477    1.1016   -0.5072 C   0  0  0  0  0  0  0  0  0  0  0  0
    0.5138   -0.2368   -0.8372 C   0  0  0  0  0  0  0  0  0  0  0  0
    1.6578   -0.9238   -0.1447 C   0  0  0  0  0  0  0  0  0  0  0  0
    2.8541   -0.2753   -0.2354 O   0  0  0  0  0  0  0  0  0  0  0  0
   -0.7119   -0.0663   -0.0723 C   0  0  0  0  0  0  0  0  0  0  0  0
   -2.0672   -0.4248   -0.5111 C   0  0  0  0  0  0  0  0  0  0  0  0
   -1.9284   -1.3183    0.7311 C   0  0  0  0  0  0  0  0  0  0  0  0
   -0.9129   -0.4534    1.2109 O   0  0  0  0  0  0  0  0  0  0  0  0
    1.5776    2.5072   -0.0644 H   0  0  0  0  0  0  0  0  0  0  0  0
    1.0265    1.5351    1.4087 H   0  0  0  0  0  0  0  0  0  0  0  0
    0.0143    2.8202    0.7251 H   0  0  0  0  0  0  0  0  0  0  0  0
   -0.3908    1.6882   -1.3511 H   0  0  0  0  0  0  0  0  0  0  0  0
    0.3912   -0.6059   -1.8986 H   0  0  0  0  0  0  0  0  0  0  0  0
    1.7788   -1.9554   -0.5359 H   0  0  0  0  0  0  0  0  0  0  0  0
    1.4253   -1.0545    0.9513 H   0  0  0  0  0  0  0  0  0  0  0  0
    3.2992   -0.1463    0.6209 H   0  0  0  0  0  0  0  0  0  0  0  0
   -2.1899   -0.9868   -1.4482 H   0  0  0  0  0  0  0  0  0  0  0  0
   -2.8004    0.4002   -0.3576 H   0  0  0  0  0  0  0  0  0  0  0  0
   -2.7827   -1.2991    1.4075 H   0  0  0  0  0  0  0  0  0  0  0  0
   -1.5400   -2.3156    0.4307 H   0  0  0  0  0  0  0  0  0  0  0  0
  1  2  1  0
  2  3  1  0
  3  4  1  0
  4  5  1  0
  3  6  1  0
  6  7  1  0
  7  8  1  0
  8  9  1  0
  6  2  1  0
  9  6  1  0
  1 10  1  0
  1 11  1  0
  1 12  1  0
  2 13  1  0
  3 14  1  0
  4 15  1  0
  4 16  1  0
  5 17  1  0
  7 18  1  0
  7 19  1  0
  8 20  1  0
  8 21  1  0
M  END
