
     RDKit          3D

 20 21  0  0  0  0  0  0  0  0999 V2000
   -2.3229   -0.4866   -0.1381 C   0  0  0  0  0  0  0  0  0  0  0  0
   -0.9792   -0.0816    0.3160 C   0  0  0  0  0  0  0  0  0  0  0  0
   -0.6212    1.3326   -0.0009 C   0  0  0  0  0  0  0  0  0  0  0  0
    0.6894    1.6573    0.3579 O   0  0  0  0  0  0  0  0  0  0  0  0
    1.5008    0.8189   -0.3250 C   0  0  0  0  0  0  0  0  0  0  0  0
    2.5681   -0.0403    0.0124 C   0  0  0  0  0  0  0  0  0  0  0  0
    1.3294   -0.5134    0.4943 C   0  0  0  0  0  0  0  0  0  0  0  0
    0.1226   -1.0654   -0.1246 C   0  0  0  0  0  0  0  0  0  0  0  0
   -3.0816   -0.0951    0.5978 H   0  0  0  0  0  0  0  0  0  0  0  0
   -2.4028   -1.6084   -0.0305 H   0  0  0  0  0  0  0  0  0  0  0  0
   -2.5737   -0.2435   -1.1710 H   0  0  0  0  0  0  0  0  0  0  0  0
   -0.9623   -0.1683    1.4446 H   0  0  0  0  0  0  0  0  0  0  0  0
   -1.3665    2.0092    0.4161 H   0  0  0  0  0  0  0  0  0  0  0  0
   -0.6451    1.4328   -1.1263 H   0  0  0  0  0  0  0  0  0  0  0  0
    1.1831    0.7800   -1.4123 H   0  0  0  0  0  0  0  0  0  0  0  0
    3.3365    0.3379    0.7495 H   0  0  0  0  0  0  0  0  0  0  0  0
    3.0972   -0.6123   -0.7782 H   0  0  0  0  0  0  0  0  0  0  0  0
    1.1664   -0.3830    1.6102 H   0  0  0  0  0  0  0  0  0  0  0  0
    0.1732   -1.0204   -1.2462 H   0  0  0  0  0  0  0  0  0  0  0  0
   -0.2115   -2.0504    0.2135 H   0  0  0  0  0  0  0  0  0  0  0  0
  1  2  1  0
  2  3  1  0
  3  4  1  0
  4  5  1  0
  5  6  1  0
  6  7  1  0
  7  8  1  0
  8  2  1  0
  7  5  1  0
  1  9  1  0
  1 10  1  0
  1 11  1  0
  2 12  1  0
  3 13  1  0
  3 14  1  0
  5 15  1  0
  6 16  1  0
  6 17  1  0
  7 18  1  0
  8 19  1  0
  8 20  1  0
M  END
