
     RDKit          3D

 19 20  0  0  0  0  0  0  0  0999 V2000
    0.3048    1.8884   -0.3812 C   0  0  0  0  0  0  0  0  0  0  0  0
    0.3612    0.6729    0.5201 C   0  0  0  0  0  0  0  0  0  0  0  0
   -0.9782    0.2738    1.0485 C   0  0  0  0  0  0  0  0  0  0  0  0
   -1.6280   -0.5819   -0.0111 C   0  0  0  0  0  0  0  0  0  0  0  0
   -0.4949   -1.2017   -0.7608 C   0  0  0  0  0  0  0  0  0  0  0  0
    0.2664   -0.4507   -1.6387 O   0  0  0  0  0  0  0  0  0  0  0  0
    0.7592   -0.5013   -0.3515 C   0  0  0  0  0  0  0  0  0  0  0  0
    1.9657   -1.2652   -0.0396 C   0  0  0  0  0  0  0  0  0  0  0  0
    2.5488   -1.8662   -0.9174 O   0  0  0  0  0  0  0  0  0  0  0  0
   -0.6832    1.8613   -0.8852 H   0  0  0  0  0  0  0  0  0  0  0  0
    0.4924    2.8288    0.1446 H   0  0  0  0  0  0  0  0  0  0  0  0
    1.1187    1.7751   -1.1450 H   0  0  0  0  0  0  0  0  0  0  0  0
    1.1298    0.8063    1.2948 H   0  0  0  0  0  0  0  0  0  0  0  0
   -1.6260    1.1315    1.3056 H   0  0  0  0  0  0  0  0  0  0  0  0
   -0.8563   -0.3477    1.9592 H   0  0  0  0  0  0  0  0  0  0  0  0
   -2.3437   -0.0246   -0.6319 H   0  0  0  0  0  0  0  0  0  0  0  0
   -2.2078   -1.4175    0.4712 H   0  0  0  0  0  0  0  0  0  0  0  0
   -0.4672   -2.2855   -0.9487 H   0  0  0  0  0  0  0  0  0  0  0  0
    2.3385   -1.2960    0.9671 H   0  0  0  0  0  0  0  0  0  0  0  0
  1  2  1  0
  2  3  1  0
  3  4  1  0
  4  5  1  0
  5  6  1  0
  6  7  1  0
  7  8  1  0
  8  9  2  0
  7  2  1  0
  7  5  1  0
  1 10  1  0
  1 11  1  0
  1 12  1  0
  2 13  1  0
  3 14  1  0
  3 15  1  0
  4 16  1  0
  4 17  1  0
  5 18  1  0
  8 19  1  0
M  END
