
     RDKit          3D

 21 21  0  0  0  0  0  0  0  0999 V2000
    1.8244    1.5742   -0.2096 C   0  0  0  0  0  0  0  0  0  0  0  0
    1.1776    0.2517   -0.5940 C   0  0  0  0  0  0  0  0  0  0  0  0
   -0.2642    0.4910   -0.7344 C   0  0  0  0  0  0  0  0  0  0  0  0
   -0.9729   -0.2343    0.1348 C   0  0  0  0  0  0  0  0  0  0  0  0
   -2.4497   -0.2038    0.2298 C   0  0  0  0  0  0  0  0  0  0  0  0
   -3.0028    0.6723   -0.6970 O   0  0  0  0  0  0  0  0  0  0  0  0
   -0.0710   -1.0556    0.9702 C   0  0  0  0  0  0  0  0  0  0  0  0
    1.3206   -0.7756    0.4808 C   0  0  0  0  0  0  0  0  0  0  0  0
    1.8187   -1.9803   -0.0614 O   0  0  0  0  0  0  0  0  0  0  0  0
    1.6662    2.2492   -1.0990 H   0  0  0  0  0  0  0  0  0  0  0  0
    1.2320    1.9924    0.6103 H   0  0  0  0  0  0  0  0  0  0  0  0
    2.8894    1.4413    0.0276 H   0  0  0  0  0  0  0  0  0  0  0  0
    1.5661   -0.0935   -1.5765 H   0  0  0  0  0  0  0  0  0  0  0  0
   -0.6807    1.1890   -1.4750 H   0  0  0  0  0  0  0  0  0  0  0  0
   -2.7234    0.0743    1.2797 H   0  0  0  0  0  0  0  0  0  0  0  0
   -2.8106   -1.2386    0.0463 H   0  0  0  0  0  0  0  0  0  0  0  0
   -3.9064    0.9535   -0.4828 H   0  0  0  0  0  0  0  0  0  0  0  0
   -0.1770   -0.8185    2.0461 H   0  0  0  0  0  0  0  0  0  0  0  0
   -0.3726   -2.1224    0.8494 H   0  0  0  0  0  0  0  0  0  0  0  0
    2.0067   -0.4502    1.2852 H   0  0  0  0  0  0  0  0  0  0  0  0
    1.9297   -1.9160   -1.0306 H   0  0  0  0  0  0  0  0  0  0  0  0
  1  2  1  0
  2  3  1  0
  3  4  2  0
  4  5  1  0
  5  6  1  0
  4  7  1  0
  7  8  1  0
  8  9  1  0
  8  2  1  0
  1 10  1  0
  1 11  1  0
  1 12  1  0
  2 13  1  0
  3 14  1  0
  5 15  1  0
  5 16  1  0
  6 17  1  0
  7 18  1  0
  7 19  1  0
  8 20  1  0
  9 21  1  0
M  END
