
     RDKit          3D

 23 23  0  0  0  0  0  0  0  0999 V2000
    2.8297   -0.9264    0.3213 C   0  0  0  0  0  0  0  0  0  0  0  0
    1.7657    0.0053   -0.1708 C   0  0  0  0  0  0  0  0  0  0  0  0
    0.6488    0.1860    0.8544 C   0  0  0  0  0  0  0  0  0  0  0  0
   -0.1458    0.1838   -0.3971 C   0  0  0  0  0  0  0  0  0  0  0  0
   -0.3239    1.5956   -0.9325 C   0  0  0  0  0  0  0  0  0  0  0  0
   -1.4067   -0.6293   -0.4083 C   0  0  0  0  0  0  0  0  0  0  0  0
   -2.5719    0.0771    0.2342 C   0  0  0  0  0  0  0  0  0  0  0  0
   -1.1898   -1.8428    0.2045 O   0  0  0  0  0  0  0  0  0  0  0  0
    0.8644   -0.4943   -1.0794 O   0  0  0  0  0  0  0  0  0  0  0  0
    2.4113   -1.5359    1.1499 H   0  0  0  0  0  0  0  0  0  0  0  0
    3.2134   -1.6236   -0.4315 H   0  0  0  0  0  0  0  0  0  0  0  0
    3.6536   -0.2940    0.7346 H   0  0  0  0  0  0  0  0  0  0  0  0
    2.1833    0.9758   -0.5253 H   0  0  0  0  0  0  0  0  0  0  0  0
    0.5312   -0.6788    1.5331 H   0  0  0  0  0  0  0  0  0  0  0  0
    0.7629    1.1747    1.3367 H   0  0  0  0  0  0  0  0  0  0  0  0
   -1.2708    1.7154   -1.4855 H   0  0  0  0  0  0  0  0  0  0  0  0
    0.5262    1.8429   -1.6118 H   0  0  0  0  0  0  0  0  0  0  0  0
   -0.2541    2.3063   -0.0660 H   0  0  0  0  0  0  0  0  0  0  0  0
   -1.6799   -0.8164   -1.4682 H   0  0  0  0  0  0  0  0  0  0  0  0
   -3.3676    0.3553   -0.4668 H   0  0  0  0  0  0  0  0  0  0  0  0
   -2.2663    1.0209    0.7562 H   0  0  0  0  0  0  0  0  0  0  0  0
   -3.0218   -0.5805    1.0207 H   0  0  0  0  0  0  0  0  0  0  0  0
   -1.8917   -2.0172    0.8978 H   0  0  0  0  0  0  0  0  0  0  0  0
  1  2  1  0
  2  3  1  0
  3  4  1  0
  4  5  1  0
  4  6  1  0
  6  7  1  0
  6  8  1  0
  4  9  1  0
  9  2  1  0
  1 10  1  0
  1 11  1  0
  1 12  1  0
  2 13  1  0
  3 14  1  0
  3 15  1  0
  5 16  1  0
  5 17  1  0
  5 18  1  0
  6 19  1  0
  7 20  1  0
  7 21  1  0
  7 22  1  0
  8 23  1  0
M  END
