
     RDKit          3D

 22 22  0  0  0  0  0  0  0  0999 V2000
   -2.4855   -0.0242   -0.2905 C   0  0  0  0  0  0  0  0  0  0  0  0
   -0.9861    0.2381   -0.4728 C   0  0  0  0  0  0  0  0  0  0  0  0
   -0.5864    1.1575    0.6652 C   0  0  0  0  0  0  0  0  0  0  0  0
    0.8427    1.5859    0.5316 C   0  0  0  0  0  0  0  0  0  0  0  0
    1.9247    0.8384    0.4351 C   0  0  0  0  0  0  0  0  0  0  0  0
    1.9992   -0.6400    0.4347 C   0  0  0  0  0  0  0  0  0  0  0  0
    1.1179   -1.1165   -0.7024 C   0  0  0  0  0  0  0  0  0  0  0  0
   -0.3278   -1.1245   -0.3546 C   0  0  0  0  0  0  0  0  0  0  0  0
   -2.9603    0.8119    0.2748 H   0  0  0  0  0  0  0  0  0  0  0  0
   -2.6446   -0.9383    0.3406 H   0  0  0  0  0  0  0  0  0  0  0  0
   -2.9803   -0.1416   -1.2554 H   0  0  0  0  0  0  0  0  0  0  0  0
   -0.7973    0.7080   -1.4567 H   0  0  0  0  0  0  0  0  0  0  0  0
   -1.2523    2.0156    0.6840 H   0  0  0  0  0  0  0  0  0  0  0  0
   -0.6710    0.5203    1.5938 H   0  0  0  0  0  0  0  0  0  0  0  0
    0.9946    2.6699    0.5129 H   0  0  0  0  0  0  0  0  0  0  0  0
    2.8462    1.3845    0.3478 H   0  0  0  0  0  0  0  0  0  0  0  0
    1.6129   -1.0203    1.4233 H   0  0  0  0  0  0  0  0  0  0  0  0
    3.0460   -0.9727    0.2939 H   0  0  0  0  0  0  0  0  0  0  0  0
    1.2953   -0.4808   -1.5817 H   0  0  0  0  0  0  0  0  0  0  0  0
    1.4280   -2.1526   -0.9422 H   0  0  0  0  0  0  0  0  0  0  0  0
   -0.5619   -1.5423    0.6260 H   0  0  0  0  0  0  0  0  0  0  0  0
   -0.8539   -1.7763   -1.1077 H   0  0  0  0  0  0  0  0  0  0  0  0
  1  2  1  0
  2  3  1  0
  3  4  1  0
  4  5  2  0
  5  6  1  0
  6  7  1  0
  7  8  1  0
  8  2  1  0
  1  9  1  0
  1 10  1  0
  1 11  1  0
  2 12  1  0
  3 13  1  0
  3 14  1  0
  4 15  1  0
  5 16  1  0
  6 17  1  0
  6 18  1  0
  7 19  1  0
  7 20  1  0
  8 21  1  0
  8 22  1  0
M  END
