
     RDKit          3D

 18 19  0  0  0  0  0  0  0  0999 V2000
   -1.9620   -0.2601    0.7183 C   0  0  0  0  0  0  0  0  0  0  0  0
   -0.5551   -0.7436    0.5828 C   0  0  0  0  0  0  0  0  0  0  0  0
    0.5947    0.1085    0.9536 C   0  0  0  0  0  0  0  0  0  0  0  0
    1.9750   -0.4086    0.5587 C   0  0  0  0  0  0  0  0  0  0  0  0
    1.5215   -0.6520   -0.8298 C   0  0  0  0  0  0  0  0  0  0  0  0
    2.0031   -1.1283   -1.8270 O   0  0  0  0  0  0  0  0  0  0  0  0
    0.2314   -0.0658   -0.4787 C   0  0  0  0  0  0  0  0  0  0  0  0
   -0.3396    1.0927   -1.2532 C   0  0  0  0  0  0  0  0  0  0  0  0
   -2.4778   -0.6291    1.6210 H   0  0  0  0  0  0  0  0  0  0  0  0
   -2.5222   -0.6135   -0.1948 H   0  0  0  0  0  0  0  0  0  0  0  0
   -1.9883    0.8501    0.6585 H   0  0  0  0  0  0  0  0  0  0  0  0
   -0.4403   -1.8508    0.6229 H   0  0  0  0  0  0  0  0  0  0  0  0
    0.5033    1.0777    1.4499 H   0  0  0  0  0  0  0  0  0  0  0  0
    2.2738   -1.2772    1.1438 H   0  0  0  0  0  0  0  0  0  0  0  0
    2.7593    0.3968    0.5457 H   0  0  0  0  0  0  0  0  0  0  0  0
   -1.3978    0.8430   -1.4814 H   0  0  0  0  0  0  0  0  0  0  0  0
    0.2021    1.2565   -2.1857 H   0  0  0  0  0  0  0  0  0  0  0  0
   -0.3811    2.0037   -0.6047 H   0  0  0  0  0  0  0  0  0  0  0  0
  1  2  1  0
  2  3  1  0
  3  4  1  0
  4  5  1  0
  5  6  2  0
  5  7  1  0
  7  8  1  0
  7  2  1  0
  7  3  1  0
  1  9  1  0
  1 10  1  0
  1 11  1  0
  2 12  1  0
  3 13  1  0
  4 14  1  0
  4 15  1  0
  8 16  1  0
  8 17  1  0
  8 18  1  0
M  END
