
     RDKit          3D

 25 25  0  0  0  0  0  0  0  0999 V2000
    0.0778    2.2496    0.4768 C   0  0  0  0  0  0  0  0  0  0  0  0
   -0.0325    0.9905   -0.3993 C   0  0  0  0  0  0  0  0  0  0  0  0
    1.3018    0.6574   -0.9107 C   0  0  0  0  0  0  0  0  0  0  0  0
    1.7800   -0.7365   -0.6505 C   0  0  0  0  0  0  0  0  0  0  0  0
    1.6135   -1.1538    0.6505 O   0  0  0  0  0  0  0  0  0  0  0  0
    0.5915   -2.1093    0.6542 C   0  0  0  0  0  0  0  0  0  0  0  0
   -0.6106   -1.4304   -0.0058 C   0  0  0  0  0  0  0  0  0  0  0  0
   -0.7558   -0.0126    0.3892 C   0  0  0  0  0  0  0  0  0  0  0  0
   -2.2531    0.3265    0.3382 C   0  0  0  0  0  0  0  0  0  0  0  0
    0.1339    3.1418   -0.1501 H   0  0  0  0  0  0  0  0  0  0  0  0
   -0.7402    2.2900    1.2220 H   0  0  0  0  0  0  0  0  0  0  0  0
    1.0243    2.2006    1.0902 H   0  0  0  0  0  0  0  0  0  0  0  0
   -0.6810    1.3185   -1.2634 H   0  0  0  0  0  0  0  0  0  0  0  0
    1.3775    0.8101   -2.0286 H   0  0  0  0  0  0  0  0  0  0  0  0
    2.0980    1.3491   -0.5030 H   0  0  0  0  0  0  0  0  0  0  0  0
    1.3726   -1.4411   -1.4027 H   0  0  0  0  0  0  0  0  0  0  0  0
    2.8949   -0.7323   -0.8401 H   0  0  0  0  0  0  0  0  0  0  0  0
    0.8686   -3.0037    0.0927 H   0  0  0  0  0  0  0  0  0  0  0  0
    0.3293   -2.3432    1.6913 H   0  0  0  0  0  0  0  0  0  0  0  0
   -1.5046   -1.9900    0.4025 H   0  0  0  0  0  0  0  0  0  0  0  0
   -0.6373   -1.5893   -1.0892 H   0  0  0  0  0  0  0  0  0  0  0  0
   -0.4457    0.0810    1.4650 H   0  0  0  0  0  0  0  0  0  0  0  0
   -2.4973    0.3171   -0.7653 H   0  0  0  0  0  0  0  0  0  0  0  0
   -2.4689    1.3083    0.7655 H   0  0  0  0  0  0  0  0  0  0  0  0
   -2.8366   -0.4980    0.7706 H   0  0  0  0  0  0  0  0  0  0  0  0
  1  2  1  0
  2  3  1  0
  3  4  1  0
  4  5  1  0
  5  6  1  0
  6  7  1  0
  7  8  1  0
  8  9  1  0
  8  2  1  0
  1 10  1  0
  1 11  1  0
  1 12  1  0
  2 13  1  0
  3 14  1  0
  3 15  1  0
  4 16  1  0
  4 17  1  0
  6 18  1  0
  6 19  1  0
  7 20  1  0
  7 21  1  0
  8 22  1  0
  9 23  1  0
  9 24  1  0
  9 25  1  0
M  END
