
     RDKit          3D

 19 21  0  0  0  0  0  0  0  0999 V2000
    2.2427   -0.4829    0.2254 C   0  0  0  0  0  0  0  0  0  0  0  0
    0.8584   -0.1255    0.6220 C   0  0  0  0  0  0  0  0  0  0  0  0
    0.2813    1.0497   -0.1178 C   0  0  0  0  0  0  0  0  0  0  0  0
   -1.2074    0.7479   -0.3049 C   0  0  0  0  0  0  0  0  0  0  0  0
   -2.1160    1.7684   -0.2471 O   0  0  0  0  0  0  0  0  0  0  0  0
   -1.4686   -0.5282   -1.0139 C   0  0  0  0  0  0  0  0  0  0  0  0
   -0.3991   -1.4293   -1.0183 O   0  0  0  0  0  0  0  0  0  0  0  0
   -0.1507   -1.2343    0.3536 C   0  0  0  0  0  0  0  0  0  0  0  0
   -1.4333   -0.4820    0.4444 C   0  0  0  0  0  0  0  0  0  0  0  0
    2.3175   -1.3838   -0.4074 H   0  0  0  0  0  0  0  0  0  0  0  0
    2.8954   -0.6127    1.1295 H   0  0  0  0  0  0  0  0  0  0  0  0
    2.7068    0.3547   -0.3435 H   0  0  0  0  0  0  0  0  0  0  0  0
    0.7486    0.1113    1.7191 H   0  0  0  0  0  0  0  0  0  0  0  0
    0.3467    1.9789    0.4964 H   0  0  0  0  0  0  0  0  0  0  0  0
    0.7937    1.2109   -1.0775 H   0  0  0  0  0  0  0  0  0  0  0  0
   -1.7913    2.6320   -0.6025 H   0  0  0  0  0  0  0  0  0  0  0  0
   -2.3648   -0.7226   -1.5991 H   0  0  0  0  0  0  0  0  0  0  0  0
   -0.0311   -2.1450    0.9228 H   0  0  0  0  0  0  0  0  0  0  0  0
   -2.2288   -0.7073    1.1208 H   0  0  0  0  0  0  0  0  0  0  0  0
  1  2  1  0
  2  3  1  0
  3  4  1  0
  4  5  1  0
  4  6  1  0
  6  7  1  0
  7  8  1  0
  8  9  1  0
  8  2  1  0
  9  4  1  0
  9  6  1  0
  1 10  1  0
  1 11  1  0
  1 12  1  0
  2 13  1  0
  3 14  1  0
  3 15  1  0
  5 16  1  0
  6 17  1  0
  8 18  1  0
  9 19  1  0
M  END
