
     RDKit          3D

 21 23  0  0  0  0  0  0  0  0999 V2000
    2.6588    0.5184    0.3136 C   0  0  0  0  0  0  0  0  0  0  0  0
    1.1404    0.4989    0.4133 C   0  0  0  0  0  0  0  0  0  0  0  0
    0.4173    0.3263   -0.8440 C   0  0  0  0  0  0  0  0  0  0  0  0
   -1.0524    0.4986   -0.9910 C   0  0  0  0  0  0  0  0  0  0  0  0
   -1.6512    1.0505    0.2830 C   0  0  0  0  0  0  0  0  0  0  0  0
   -1.5006    0.1172    1.2198 C   0  0  0  0  0  0  0  0  0  0  0  0
   -0.9102   -1.0857    0.5869 C   0  0  0  0  0  0  0  0  0  0  0  0
   -1.5342   -0.9571   -0.8192 C   0  0  0  0  0  0  0  0  0  0  0  0
    0.5338   -0.8310    0.2033 C   0  0  0  0  0  0  0  0  0  0  0  0
    2.9970    1.5662    0.3145 H   0  0  0  0  0  0  0  0  0  0  0  0
    3.1345   -0.0210    1.1577 H   0  0  0  0  0  0  0  0  0  0  0  0
    2.9737    0.0910   -0.6665 H   0  0  0  0  0  0  0  0  0  0  0  0
    0.7200    1.1982    1.1717 H   0  0  0  0  0  0  0  0  0  0  0  0
    0.9960    0.1769   -1.7737 H   0  0  0  0  0  0  0  0  0  0  0  0
   -1.4170    0.9661   -1.8836 H   0  0  0  0  0  0  0  0  0  0  0  0
   -2.1059    2.0303    0.3630 H   0  0  0  0  0  0  0  0  0  0  0  0
   -1.7647    0.2263    2.2553 H   0  0  0  0  0  0  0  0  0  0  0  0
   -1.1050   -2.0212    1.0567 H   0  0  0  0  0  0  0  0  0  0  0  0
   -2.6149   -1.0187   -0.7624 H   0  0  0  0  0  0  0  0  0  0  0  0
   -1.0341   -1.6286   -1.5086 H   0  0  0  0  0  0  0  0  0  0  0  0
    1.1189   -1.7018   -0.0897 H   0  0  0  0  0  0  0  0  0  0  0  0
  1  2  1  0
  2  3  1  0
  3  4  1  0
  4  5  1  0
  5  6  2  0
  6  7  1  0
  7  8  1  0
  7  9  1  0
  9  2  1  0
  9  3  1  0
  8  4  1  0
  1 10  1  0
  1 11  1  0
  1 12  1  0
  2 13  1  0
  3 14  1  0
  4 15  1  0
  5 16  1  0
  6 17  1  0
  7 18  1  0
  8 19  1  0
  8 20  1  0
  9 21  1  0
M  END
