
     RDKit          3D

 13 14  0  0  0  0  0  0  0  0999 V2000
    1.7513    0.3909    0.0409 C   0  0  0  0  0  0  0  0  0  0  0  0
    0.3001    0.4681    0.4025 C   0  0  0  0  0  0  0  0  0  0  0  0
   -0.4764   -0.7163    0.8059 C   0  0  0  0  0  0  0  0  0  0  0  0
   -1.8898   -0.5265    0.8571 O   0  0  0  0  0  0  0  0  0  0  0  0
   -2.0548    0.0264   -0.3944 C   0  0  0  0  0  0  0  0  0  0  0  0
   -3.0067    0.4644   -1.0538 O   0  0  0  0  0  0  0  0  0  0  0  0
   -0.6183   -0.1226   -0.6205 C   0  0  0  0  0  0  0  0  0  0  0  0
    2.0078   -0.6866   -0.0637 H   0  0  0  0  0  0  0  0  0  0  0  0
    1.8736    0.8353   -0.9840 H   0  0  0  0  0  0  0  0  0  0  0  0
    2.4199    0.9435    0.6986 H   0  0  0  0  0  0  0  0  0  0  0  0
   -0.0198    1.4440    0.8173 H   0  0  0  0  0  0  0  0  0  0  0  0
   -0.0590   -1.7240    0.8972 H   0  0  0  0  0  0  0  0  0  0  0  0
   -0.2279   -0.7966   -1.4030 H   0  0  0  0  0  0  0  0  0  0  0  0
  1  2  1  0
  2  3  1  0
  3  4  1  0
  4  5  1  0
  5  6  2  0
  5  7  1  0
  7  2  1  0
  7  3  1  0
  1  8  1  0
  1  9  1  0
  1 10  1  0
  2 11  1  0
  3 12  1  0
  7 13  1  0
M  END
