
     RDKit          3D

 21 22  0  0  0  0  0  0  0  0999 V2000
   -2.2251   -1.1459    0.3166 C   0  0  0  0  0  0  0  0  0  0  0  0
   -1.1768   -0.1098    0.5251 C   0  0  0  0  0  0  0  0  0  0  0  0
   -1.1408    1.0290   -0.4527 C   0  0  0  0  0  0  0  0  0  0  0  0
   -1.3354    2.2932    0.0755 O   0  0  0  0  0  0  0  0  0  0  0  0
    0.2903    0.7715   -0.7794 C   0  0  0  0  0  0  0  0  0  0  0  0
    1.2824    0.3341    0.2149 C   0  0  0  0  0  0  0  0  0  0  0  0
    2.6251   -0.0993   -0.2755 C   0  0  0  0  0  0  0  0  0  0  0  0
    3.4122   -0.4744    0.8380 O   0  0  0  0  0  0  0  0  0  0  0  0
    0.1540   -0.5725   -0.0375 C   0  0  0  0  0  0  0  0  0  0  0  0
   -1.8726   -1.9874   -0.3452 H   0  0  0  0  0  0  0  0  0  0  0  0
   -3.1795   -0.7499   -0.0332 H   0  0  0  0  0  0  0  0  0  0  0  0
   -2.4282   -1.6176    1.3214 H   0  0  0  0  0  0  0  0  0  0  0  0
   -1.0420    0.2587    1.5689 H   0  0  0  0  0  0  0  0  0  0  0  0
   -1.8167    0.7926   -1.3146 H   0  0  0  0  0  0  0  0  0  0  0  0
   -2.2924    2.5590    0.0997 H   0  0  0  0  0  0  0  0  0  0  0  0
    0.6017    0.7465   -1.8349 H   0  0  0  0  0  0  0  0  0  0  0  0
    1.3084    0.7869    1.2429 H   0  0  0  0  0  0  0  0  0  0  0  0
    2.5995   -0.9416   -0.9876 H   0  0  0  0  0  0  0  0  0  0  0  0
    3.1247    0.7902   -0.7258 H   0  0  0  0  0  0  0  0  0  0  0  0
    2.9206   -1.2282    1.2921 H   0  0  0  0  0  0  0  0  0  0  0  0
    0.1907   -1.4352   -0.7088 H   0  0  0  0  0  0  0  0  0  0  0  0
  1  2  1  0
  2  3  1  0
  3  4  1  0
  3  5  1  0
  5  6  1  0
  6  7  1  0
  7  8  1  0
  6  9  1  0
  9  2  1  0
  9  5  1  0
  1 10  1  0
  1 11  1  0
  1 12  1  0
  2 13  1  0
  3 14  1  0
  4 15  1  0
  5 16  1  0
  6 17  1  0
  7 18  1  0
  7 19  1  0
  8 20  1  0
  9 21  1  0
M  END
