
     RDKit          3D

 19 20  0  0  0  0  0  0  0  0999 V2000
    1.8481    0.3940    0.6480 C   0  0  0  0  0  0  0  0  0  0  0  0
    0.4555    0.7253    0.2070 C   0  0  0  0  0  0  0  0  0  0  0  0
    0.2256    0.4160   -1.2547 C   0  0  0  0  0  0  0  0  0  0  0  0
    0.2923   -1.0304   -0.8593 C   0  0  0  0  0  0  0  0  0  0  0  0
   -0.5428   -0.3897    0.2297 C   0  0  0  0  0  0  0  0  0  0  0  0
   -1.0888   -1.0126    1.2890 C   0  0  0  0  0  0  0  0  0  0  0  0
   -1.4710   -2.1945    1.2698 O   0  0  0  0  0  0  0  0  0  0  0  0
   -1.2325    0.3439   -0.8908 C   0  0  0  0  0  0  0  0  0  0  0  0
   -1.7680    1.5736   -0.5548 O   0  0  0  0  0  0  0  0  0  0  0  0
    2.2673    1.1607    1.3599 H   0  0  0  0  0  0  0  0  0  0  0  0
    2.5748    0.3394   -0.2078 H   0  0  0  0  0  0  0  0  0  0  0  0
    1.9052   -0.5695    1.1990 H   0  0  0  0  0  0  0  0  0  0  0  0
    0.1313    1.7056    0.5579 H   0  0  0  0  0  0  0  0  0  0  0  0
    0.6415    0.8656   -2.0401 H   0  0  0  0  0  0  0  0  0  0  0  0
   -0.3334   -1.7246   -1.4420 H   0  0  0  0  0  0  0  0  0  0  0  0
    1.2903   -1.3633   -0.5766 H   0  0  0  0  0  0  0  0  0  0  0  0
   -1.2507   -0.5389    2.2748 H   0  0  0  0  0  0  0  0  0  0  0  0
   -1.8145   -0.2875   -1.5639 H   0  0  0  0  0  0  0  0  0  0  0  0
   -2.1301    1.5870    0.3548 H   0  0  0  0  0  0  0  0  0  0  0  0
  1  2  1  0
  2  3  1  0
  3  4  1  0
  4  5  1  0
  5  6  1  0
  6  7  2  0
  5  8  1  0
  8  9  1  0
  5  2  1  0
  8  3  1  0
  1 10  1  0
  1 11  1  0
  1 12  1  0
  2 13  1  0
  3 14  1  0
  4 15  1  0
  4 16  1  0
  6 17  1  0
  8 18  1  0
  9 19  1  0
M  END
