
     RDKit          3D

 17 17  0  0  0  0  0  0  0  0999 V2000
   -1.8858    0.5704    0.5925 C   0  0  0  0  0  0  0  0  0  0  0  0
   -1.1238    0.1626   -0.6593 C   0  0  0  0  0  0  0  0  0  0  0  0
   -0.5618   -1.2058   -0.5442 C   0  0  0  0  0  0  0  0  0  0  0  0
    0.6206   -1.6037   -0.1005 C   0  0  0  0  0  0  0  0  0  0  0  0
    1.7500   -0.8100    0.4186 C   0  0  0  0  0  0  0  0  0  0  0  0
    1.9290    0.5049    0.2726 C   0  0  0  0  0  0  0  0  0  0  0  0
    1.0517    1.4407   -0.4286 C   0  0  0  0  0  0  0  0  0  0  0  0
    1.4508    2.6293   -0.4912 O   0  0  0  0  0  0  0  0  0  0  0  0
   -0.1742    1.1252   -1.0247 O   0  0  0  0  0  0  0  0  0  0  0  0
   -1.2131    1.2424    1.2000 H   0  0  0  0  0  0  0  0  0  0  0  0
   -2.1341   -0.3020    1.2029 H   0  0  0  0  0  0  0  0  0  0  0  0
   -2.7569    1.1985    0.3253 H   0  0  0  0  0  0  0  0  0  0  0  0
   -1.8938    0.1568   -1.4852 H   0  0  0  0  0  0  0  0  0  0  0  0
   -1.1885   -2.0285   -0.8633 H   0  0  0  0  0  0  0  0  0  0  0  0
    0.7777   -2.6600   -0.1230 H   0  0  0  0  0  0  0  0  0  0  0  0
    2.5173   -1.3312    0.9748 H   0  0  0  0  0  0  0  0  0  0  0  0
    2.8351    0.9103    0.7335 H   0  0  0  0  0  0  0  0  0  0  0  0
  1  2  1  0
  2  3  1  0
  3  4  2  0
  4  5  1  0
  5  6  2  0
  6  7  1  0
  7  8  2  0
  7  9  1  0
  9  2  1  0
  1 10  1  0
  1 11  1  0
  1 12  1  0
  2 13  1  0
  3 14  1  0
  4 15  1  0
  5 16  1  0
  6 17  1  0
M  END
