
     RDKit          3D

 21 22  0  0  0  0  0  0  0  0999 V2000
   -1.8398   -0.7597    0.8433 C   0  0  0  0  0  0  0  0  0  0  0  0
   -1.0539   -0.6668   -0.4665 C   0  0  0  0  0  0  0  0  0  0  0  0
   -1.0176    0.7513   -0.9918 C   0  0  0  0  0  0  0  0  0  0  0  0
   -2.1448    1.4355   -0.6197 O   0  0  0  0  0  0  0  0  0  0  0  0
    0.1286    0.7461   -0.0173 C   0  0  0  0  0  0  0  0  0  0  0  0
    1.4146    0.4526   -0.3255 C   0  0  0  0  0  0  0  0  0  0  0  0
    2.5115    0.3924    0.7285 C   0  0  0  0  0  0  0  0  0  0  0  0
    0.3927   -0.6190   -0.2065 C   0  0  0  0  0  0  0  0  0  0  0  0
    1.0107   -1.7082   -0.5300 O   0  0  0  0  0  0  0  0  0  0  0  0
   -2.5049   -1.6621    0.8457 H   0  0  0  0  0  0  0  0  0  0  0  0
   -2.4574    0.1372    0.9314 H   0  0  0  0  0  0  0  0  0  0  0  0
   -1.1566   -0.8995    1.7064 H   0  0  0  0  0  0  0  0  0  0  0  0
   -1.4349   -1.3327   -1.2593 H   0  0  0  0  0  0  0  0  0  0  0  0
   -0.7376    0.8234   -2.0578 H   0  0  0  0  0  0  0  0  0  0  0  0
   -1.9793    2.1658    0.0288 H   0  0  0  0  0  0  0  0  0  0  0  0
   -0.1902    1.0928    1.0099 H   0  0  0  0  0  0  0  0  0  0  0  0
    1.8481    0.7260   -1.3337 H   0  0  0  0  0  0  0  0  0  0  0  0
    3.5108    0.2265    0.2815 H   0  0  0  0  0  0  0  0  0  0  0  0
    2.4929    1.3145    1.3725 H   0  0  0  0  0  0  0  0  0  0  0  0
    2.3546   -0.4505    1.4408 H   0  0  0  0  0  0  0  0  0  0  0  0
    0.8524   -2.1654   -1.3808 H   0  0  0  0  0  0  0  0  0  0  0  0
  1  2  1  0
  2  3  1  0
  3  4  1  0
  3  5  1  0
  5  6  1  0
  6  7  1  0
  6  8  1  0
  8  9  1  0
  8  2  1  0
  8  5  1  0
  1 10  1  0
  1 11  1  0
  1 12  1  0
  2 13  1  0
  3 14  1  0
  4 15  1  0
  5 16  1  0
  6 17  1  0
  7 18  1  0
  7 19  1  0
  7 20  1  0
  9 21  1  0
M  END
