
     RDKit          3D

 21 21  0  0  0  0  0  0  0  0999 V2000
   -2.0101    0.4961    0.7014 C   0  0  0  0  0  0  0  0  0  0  0  0
   -0.9113    0.3586   -0.2981 C   0  0  0  0  0  0  0  0  0  0  0  0
   -0.7967   -1.0716   -0.7730 C   0  0  0  0  0  0  0  0  0  0  0  0
    0.5365   -1.5840   -0.3431 C   0  0  0  0  0  0  0  0  0  0  0  0
    1.3205   -0.4247    0.2193 C   0  0  0  0  0  0  0  0  0  0  0  0
    1.7379   -0.7637    1.5116 O   0  0  0  0  0  0  0  0  0  0  0  0
    0.4340    0.7758    0.2059 C   0  0  0  0  0  0  0  0  0  0  0  0
    1.0185    1.8830   -0.6255 C   0  0  0  0  0  0  0  0  0  0  0  0
    2.2183    2.0911   -0.6852 O   0  0  0  0  0  0  0  0  0  0  0  0
   -2.3437   -0.5353    1.0105 H   0  0  0  0  0  0  0  0  0  0  0  0
   -2.9341    0.9436    0.2322 H   0  0  0  0  0  0  0  0  0  0  0  0
   -1.7083    1.0914    1.5813 H   0  0  0  0  0  0  0  0  0  0  0  0
   -1.1646    1.0231   -1.1683 H   0  0  0  0  0  0  0  0  0  0  0  0
   -1.6307   -1.6565   -0.3395 H   0  0  0  0  0  0  0  0  0  0  0  0
   -0.8806   -1.1649   -1.8706 H   0  0  0  0  0  0  0  0  0  0  0  0
    0.3784   -2.3758    0.4189 H   0  0  0  0  0  0  0  0  0  0  0  0
    1.1246   -2.0142   -1.1771 H   0  0  0  0  0  0  0  0  0  0  0  0
    2.2585   -0.2446   -0.3606 H   0  0  0  0  0  0  0  0  0  0  0  0
    2.6771   -0.4855    1.6860 H   0  0  0  0  0  0  0  0  0  0  0  0
    0.3587    1.1653    1.2480 H   0  0  0  0  0  0  0  0  0  0  0  0
    0.3173    2.4928   -1.1741 H   0  0  0  0  0  0  0  0  0  0  0  0
  1  2  1  0
  2  3  1  0
  3  4  1  0
  4  5  1  0
  5  6  1  0
  5  7  1  0
  7  8  1  0
  8  9  2  0
  7  2  1  0
  1 10  1  0
  1 11  1  0
  1 12  1  0
  2 13  1  0
  3 14  1  0
  3 15  1  0
  4 16  1  0
  4 17  1  0
  5 18  1  0
  6 19  1  0
  7 20  1  0
  8 21  1  0
M  END
