
     RDKit          3D

 23 24  0  0  0  0  0  0  0  0999 V2000
   -1.8538    1.5934   -0.2821 C   0  0  0  0  0  0  0  0  0  0  0  0
   -0.9465    0.3868   -0.4827 C   0  0  0  0  0  0  0  0  0  0  0  0
   -1.6299   -0.8150    0.1823 C   0  0  0  0  0  0  0  0  0  0  0  0
   -0.3053   -1.1628    0.7827 C   0  0  0  0  0  0  0  0  0  0  0  0
    0.5284   -1.9614   -0.1949 C   0  0  0  0  0  0  0  0  0  0  0  0
    1.2169   -1.0418   -0.9818 O   0  0  0  0  0  0  0  0  0  0  0  0
    1.5329   -0.0326   -0.0572 C   0  0  0  0  0  0  0  0  0  0  0  0
    2.2044    1.1396   -0.6601 C   0  0  0  0  0  0  0  0  0  0  0  0
    0.1652    0.2591    0.5204 C   0  0  0  0  0  0  0  0  0  0  0  0
   -1.3361    2.5386   -0.4317 H   0  0  0  0  0  0  0  0  0  0  0  0
   -2.7135    1.4358   -0.9926 H   0  0  0  0  0  0  0  0  0  0  0  0
   -2.2938    1.5055    0.7498 H   0  0  0  0  0  0  0  0  0  0  0  0
   -0.6767    0.1874   -1.5351 H   0  0  0  0  0  0  0  0  0  0  0  0
   -1.9665   -1.5925   -0.5108 H   0  0  0  0  0  0  0  0  0  0  0  0
   -2.3498   -0.5369    0.9788 H   0  0  0  0  0  0  0  0  0  0  0  0
   -0.2812   -1.4886    1.8210 H   0  0  0  0  0  0  0  0  0  0  0  0
    1.2514   -2.5607    0.3811 H   0  0  0  0  0  0  0  0  0  0  0  0
   -0.1397   -2.5943   -0.8410 H   0  0  0  0  0  0  0  0  0  0  0  0
    2.1344   -0.5506    0.7388 H   0  0  0  0  0  0  0  0  0  0  0  0
    3.3143    1.0262   -0.4801 H   0  0  0  0  0  0  0  0  0  0  0  0
    2.0827    1.2075   -1.7722 H   0  0  0  0  0  0  0  0  0  0  0  0
    1.9385    2.1148   -0.2290 H   0  0  0  0  0  0  0  0  0  0  0  0
    0.1236    0.9425    1.3635 H   0  0  0  0  0  0  0  0  0  0  0  0
  1  2  1  0
  2  3  1  0
  3  4  1  0
  4  5  1  0
  5  6  1  0
  6  7  1  0
  7  8  1  0
  7  9  1  0
  9  2  1  0
  9  4  1  0
  1 10  1  0
  1 11  1  0
  1 12  1  0
  2 13  1  0
  3 14  1  0
  3 15  1  0
  4 16  1  0
  5 17  1  0
  5 18  1  0
  7 19  1  0
  8 20  1  0
  8 21  1  0
  8 22  1  0
  9 23  1  0
M  END
