
     RDKit          3D

 25 26  0  0  0  0  0  0  0  0999 V2000
   -1.7884   -1.2400    0.6680 C   0  0  0  0  0  0  0  0  0  0  0  0
   -1.2519   -0.4563   -0.4991 C   0  0  0  0  0  0  0  0  0  0  0  0
   -1.5856    1.0112   -0.4280 C   0  0  0  0  0  0  0  0  0  0  0  0
   -0.6414    1.9210    0.2064 C   0  0  0  0  0  0  0  0  0  0  0  0
    0.8126    1.4442    0.3191 C   0  0  0  0  0  0  0  0  0  0  0  0
    0.7414    0.0234    0.6630 C   0  0  0  0  0  0  0  0  0  0  0  0
    1.2424   -1.1621    0.0848 C   0  0  0  0  0  0  0  0  0  0  0  0
    2.6675   -1.1316   -0.4804 C   0  0  0  0  0  0  0  0  0  0  0  0
    0.2038   -0.5837   -0.6741 C   0  0  0  0  0  0  0  0  0  0  0  0
   -2.3656   -0.5929    1.3489 H   0  0  0  0  0  0  0  0  0  0  0  0
   -2.5134   -2.0440    0.3426 H   0  0  0  0  0  0  0  0  0  0  0  0
   -0.9806   -1.8118    1.2004 H   0  0  0  0  0  0  0  0  0  0  0  0
   -1.7550   -0.8502   -1.4127 H   0  0  0  0  0  0  0  0  0  0  0  0
   -1.8364    1.4016   -1.4593 H   0  0  0  0  0  0  0  0  0  0  0  0
   -2.5755    1.0694    0.1159 H   0  0  0  0  0  0  0  0  0  0  0  0
   -0.9497    2.1135    1.2773 H   0  0  0  0  0  0  0  0  0  0  0  0
   -0.6770    2.9275   -0.2727 H   0  0  0  0  0  0  0  0  0  0  0  0
    1.3339    2.0998    1.0143 H   0  0  0  0  0  0  0  0  0  0  0  0
    1.2506    1.6509   -0.6996 H   0  0  0  0  0  0  0  0  0  0  0  0
    0.0869   -0.1149    1.5782 H   0  0  0  0  0  0  0  0  0  0  0  0
    1.0669   -2.1391    0.5927 H   0  0  0  0  0  0  0  0  0  0  0  0
    2.8288   -0.2289   -1.0814 H   0  0  0  0  0  0  0  0  0  0  0  0
    3.4088   -1.1861    0.3333 H   0  0  0  0  0  0  0  0  0  0  0  0
    2.7578   -2.0536   -1.1067 H   0  0  0  0  0  0  0  0  0  0  0  0
    0.5191   -0.0673   -1.6309 H   0  0  0  0  0  0  0  0  0  0  0  0
  1  2  1  0
  2  3  1  0
  3  4  1  0
  4  5  1  0
  5  6  1  0
  6  7  1  0
  7  8  1  0
  7  9  1  0
  9  2  1  0
  9  6  1  0
  1 10  1  0
  1 11  1  0
  1 12  1  0
  2 13  1  0
  3 14  1  0
  3 15  1  0
  4 16  1  0
  4 17  1  0
  5 18  1  0
  5 19  1  0
  6 20  1  0
  7 21  1  0
  8 22  1  0
  8 23  1  0
  8 24  1  0
  9 25  1  0
M  END
