
     RDKit          3D

 23 23  0  0  0  0  0  0  0  0999 V2000
    2.6424    0.4978   -0.0312 C   0  0  0  0  0  0  0  0  0  0  0  0
    1.1570    0.1410   -0.1793 C   0  0  0  0  0  0  0  0  0  0  0  0
    0.9851   -1.2972    0.2311 C   0  0  0  0  0  0  0  0  0  0  0  0
   -0.4431   -1.6477    0.4416 C   0  0  0  0  0  0  0  0  0  0  0  0
   -1.4057   -0.5248    0.2745 C   0  0  0  0  0  0  0  0  0  0  0  0
   -1.9454   -0.5533   -1.0329 O   0  0  0  0  0  0  0  0  0  0  0  0
   -0.8980    0.8189    0.6572 C   0  0  0  0  0  0  0  0  0  0  0  0
   -1.4938    1.9312   -0.2208 C   0  0  0  0  0  0  0  0  0  0  0  0
    0.4554    0.9724    0.6350 O   0  0  0  0  0  0  0  0  0  0  0  0
    3.2378    0.1424   -0.8771 H   0  0  0  0  0  0  0  0  0  0  0  0
    3.0562    0.1385    0.9176 H   0  0  0  0  0  0  0  0  0  0  0  0
    2.7265    1.6163   -0.0079 H   0  0  0  0  0  0  0  0  0  0  0  0
    0.9357    0.2227   -1.2510 H   0  0  0  0  0  0  0  0  0  0  0  0
    1.4821   -1.9553   -0.5276 H   0  0  0  0  0  0  0  0  0  0  0  0
    1.5549   -1.4724    1.1758 H   0  0  0  0  0  0  0  0  0  0  0  0
   -0.7100   -2.4398   -0.3192 H   0  0  0  0  0  0  0  0  0  0  0  0
   -0.5882   -2.1776    1.4288 H   0  0  0  0  0  0  0  0  0  0  0  0
   -2.2921   -0.7557    0.9373 H   0  0  0  0  0  0  0  0  0  0  0  0
   -2.4019   -1.4454   -1.0862 H   0  0  0  0  0  0  0  0  0  0  0  0
   -1.2405    1.0863    1.7011 H   0  0  0  0  0  0  0  0  0  0  0  0
   -1.3141    1.7432   -1.2888 H   0  0  0  0  0  0  0  0  0  0  0  0
   -0.9537    2.8729    0.0749 H   0  0  0  0  0  0  0  0  0  0  0  0
   -2.5467    2.0857    0.0497 H   0  0  0  0  0  0  0  0  0  0  0  0
  1  2  1  0
  2  3  1  0
  3  4  1  0
  4  5  1  0
  5  6  1  0
  5  7  1  0
  7  8  1  0
  7  9  1  0
  9  2  1  0
  1 10  1  0
  1 11  1  0
  1 12  1  0
  2 13  1  0
  3 14  1  0
  3 15  1  0
  4 16  1  0
  4 17  1  0
  5 18  1  0
  6 19  1  0
  7 20  1  0
  8 21  1  0
  8 22  1  0
  8 23  1  0
M  END
