
     RDKit          3D

 16 17  0  0  0  0  0  0  0  0999 V2000
    1.8577    0.1618    0.2748 C   0  0  0  0  0  0  0  0  0  0  0  0
    0.5866   -0.5971    0.5095 C   0  0  0  0  0  0  0  0  0  0  0  0
   -0.2284   -0.8361   -0.7174 C   0  0  0  0  0  0  0  0  0  0  0  0
   -1.4265   -1.6584   -0.5771 C   0  0  0  0  0  0  0  0  0  0  0  0
   -1.8491   -2.6963   -1.1149 O   0  0  0  0  0  0  0  0  0  0  0  0
   -1.8694   -0.7857    0.3988 O   0  0  0  0  0  0  0  0  0  0  0  0
   -0.7287    0.0516    0.3592 C   0  0  0  0  0  0  0  0  0  0  0  0
   -0.9058    1.5178    0.1770 C   0  0  0  0  0  0  0  0  0  0  0  0
    2.6709   -0.3011    0.8957 H   0  0  0  0  0  0  0  0  0  0  0  0
    2.2240    0.0314   -0.7865 H   0  0  0  0  0  0  0  0  0  0  0  0
    1.7723    1.2378    0.4342 H   0  0  0  0  0  0  0  0  0  0  0  0
    0.6176   -1.4271    1.2676 H   0  0  0  0  0  0  0  0  0  0  0  0
    0.0925   -0.4442   -1.6994 H   0  0  0  0  0  0  0  0  0  0  0  0
   -0.1239    2.0442    0.7916 H   0  0  0  0  0  0  0  0  0  0  0  0
   -0.8029    1.8761   -0.8497 H   0  0  0  0  0  0  0  0  0  0  0  0
   -1.8868    1.8254    0.6367 H   0  0  0  0  0  0  0  0  0  0  0  0
  1  2  1  0
  2  3  1  0
  3  4  1  0
  4  5  2  0
  4  6  1  0
  6  7  1  0
  7  8  1  0
  7  2  1  0
  7  3  1  0
  1  9  1  0
  1 10  1  0
  1 11  1  0
  2 12  1  0
  3 13  1  0
  8 14  1  0
  8 15  1  0
  8 16  1  0
M  END
