
     RDKit          3D

 20 21  0  0  0  0  0  0  0  0999 V2000
   -1.9776    1.0239    0.1864 C   0  0  0  0  0  0  0  0  0  0  0  0
   -1.2673   -0.1198   -0.4730 C   0  0  0  0  0  0  0  0  0  0  0  0
   -1.1393   -1.4310    0.3077 C   0  0  0  0  0  0  0  0  0  0  0  0
   -0.0041   -0.5635    0.1158 C   0  0  0  0  0  0  0  0  0  0  0  0
    0.6689    0.1981    1.2043 C   0  0  0  0  0  0  0  0  0  0  0  0
    1.7598    0.7905    0.7509 C   0  0  0  0  0  0  0  0  0  0  0  0
    1.8975    0.4672   -0.6848 C   0  0  0  0  0  0  0  0  0  0  0  0
    1.1495   -0.8388   -0.8213 C   0  0  0  0  0  0  0  0  0  0  0  0
   -2.6243    0.6989    1.0210 H   0  0  0  0  0  0  0  0  0  0  0  0
   -2.5433    1.6064   -0.5800 H   0  0  0  0  0  0  0  0  0  0  0  0
   -1.2402    1.7392    0.6243 H   0  0  0  0  0  0  0  0  0  0  0  0
   -1.4163   -0.2868   -1.5723 H   0  0  0  0  0  0  0  0  0  0  0  0
   -1.6111   -1.4410    1.3282 H   0  0  0  0  0  0  0  0  0  0  0  0
   -1.2010   -2.3821   -0.2397 H   0  0  0  0  0  0  0  0  0  0  0  0
    0.2730    0.2280    2.2143 H   0  0  0  0  0  0  0  0  0  0  0  0
    2.4731    1.4238    1.3063 H   0  0  0  0  0  0  0  0  0  0  0  0
    2.9528    0.3869   -1.0074 H   0  0  0  0  0  0  0  0  0  0  0  0
    1.3330    1.2085   -1.3113 H   0  0  0  0  0  0  0  0  0  0  0  0
    0.7887   -1.0033   -1.8662 H   0  0  0  0  0  0  0  0  0  0  0  0
    1.7284   -1.7050   -0.5032 H   0  0  0  0  0  0  0  0  0  0  0  0
  1  2  1  0
  2  3  1  0
  3  4  1  0
  4  5  1  0
  5  6  2  0
  6  7  1  0
  7  8  1  0
  4  2  1  0
  8  4  1  0
  1  9  1  0
  1 10  1  0
  1 11  1  0
  2 12  1  0
  3 13  1  0
  3 14  1  0
  5 15  1  0
  6 16  1  0
  7 17  1  0
  7 18  1  0
  8 19  1  0
  8 20  1  0
M  END
