
     RDKit          3D

 19 20  0  0  0  0  0  0  0  0999 V2000
   -1.8234   -0.0681    0.5918 C   0  0  0  0  0  0  0  0  0  0  0  0
   -0.7587   -0.5201   -0.3381 C   0  0  0  0  0  0  0  0  0  0  0  0
   -0.4396    0.4582   -1.4851 C   0  0  0  0  0  0  0  0  0  0  0  0
   -0.3575    1.6670   -0.8153 O   0  0  0  0  0  0  0  0  0  0  0  0
    0.4832    1.3462    0.2811 C   0  0  0  0  0  0  0  0  0  0  0  0
    0.6528   -0.1218    0.0474 C   0  0  0  0  0  0  0  0  0  0  0  0
    1.4110   -0.9489    0.9476 C   0  0  0  0  0  0  0  0  0  0  0  0
    0.9091   -0.1397   -1.4062 C   0  0  0  0  0  0  0  0  0  0  0  0
    1.8039   -0.4873   -2.1071 O   0  0  0  0  0  0  0  0  0  0  0  0
   -2.4404    0.7639    0.2206 H   0  0  0  0  0  0  0  0  0  0  0  0
   -2.5383   -0.9264    0.7433 H   0  0  0  0  0  0  0  0  0  0  0  0
   -1.4149    0.2377    1.5823 H   0  0  0  0  0  0  0  0  0  0  0  0
   -0.8407   -1.5320   -0.7670 H   0  0  0  0  0  0  0  0  0  0  0  0
   -1.0156    0.3680   -2.3697 H   0  0  0  0  0  0  0  0  0  0  0  0
    0.0446    1.6205    1.2361 H   0  0  0  0  0  0  0  0  0  0  0  0
    1.4823    1.8284    0.0925 H   0  0  0  0  0  0  0  0  0  0  0  0
    0.9645   -0.9234    1.9633 H   0  0  0  0  0  0  0  0  0  0  0  0
    1.4281   -1.9981    0.5693 H   0  0  0  0  0  0  0  0  0  0  0  0
    2.4495   -0.6241    1.0131 H   0  0  0  0  0  0  0  0  0  0  0  0
  1  2  1  0
  2  3  1  0
  3  4  1  0
  4  5  1  0
  5  6  1  0
  6  7  1  0
  6  8  1  0
  8  9  2  0
  6  2  1  0
  8  3  1  0
  1 10  1  0
  1 11  1  0
  1 12  1  0
  2 13  1  0
  3 14  1  0
  5 15  1  0
  5 16  1  0
  7 17  1  0
  7 18  1  0
  7 19  1  0
M  END
