
     RDKit          3D

 19 21  0  0  0  0  0  0  0  0999 V2000
    2.1523    0.4155   -0.2896 C   0  0  0  0  0  0  0  0  0  0  0  0
    1.0040   -0.3915    0.2075 C   0  0  0  0  0  0  0  0  0  0  0  0
    0.0774    0.4484    1.1095 C   0  0  0  0  0  0  0  0  0  0  0  0
   -0.9219   -0.5103    1.3349 O   0  0  0  0  0  0  0  0  0  0  0  0
   -1.2159   -1.0221    0.0645 C   0  0  0  0  0  0  0  0  0  0  0  0
   -2.0464    0.0069   -0.6780 C   0  0  0  0  0  0  0  0  0  0  0  0
   -0.7048    0.7034   -0.9554 C   0  0  0  0  0  0  0  0  0  0  0  0
   -0.3365    1.4055    0.1793 O   0  0  0  0  0  0  0  0  0  0  0  0
   -0.0622   -0.6388   -0.8380 C   0  0  0  0  0  0  0  0  0  0  0  0
    2.6540    0.9272    0.5651 H   0  0  0  0  0  0  0  0  0  0  0  0
    2.9026   -0.2718   -0.7155 H   0  0  0  0  0  0  0  0  0  0  0  0
    1.9067    1.1573   -1.0549 H   0  0  0  0  0  0  0  0  0  0  0  0
    1.3408   -1.2905    0.7192 H   0  0  0  0  0  0  0  0  0  0  0  0
    0.5544    0.8259    1.9828 H   0  0  0  0  0  0  0  0  0  0  0  0
   -1.5534   -2.0485    0.0193 H   0  0  0  0  0  0  0  0  0  0  0  0
   -2.6764    0.6465   -0.0246 H   0  0  0  0  0  0  0  0  0  0  0  0
   -2.5632   -0.3517   -1.5674 H   0  0  0  0  0  0  0  0  0  0  0  0
   -0.6683    1.2159   -1.9074 H   0  0  0  0  0  0  0  0  0  0  0  0
    0.1566   -1.2274   -1.6880 H   0  0  0  0  0  0  0  0  0  0  0  0
  1  2  1  0
  2  3  1  0
  3  4  1  0
  4  5  1  0
  5  6  1  0
  6  7  1  0
  7  8  1  0
  7  9  1  0
  9  2  1  0
  8  3  1  0
  9  5  1  0
  1 10  1  0
  1 11  1  0
  1 12  1  0
  2 13  1  0
  3 14  1  0
  5 15  1  0
  6 16  1  0
  6 17  1  0
  7 18  1  0
  9 19  1  0
M  END
