
     RDKit          3D

 23 23  0  0  0  0  0  0  0  0999 V2000
   -2.3756    0.2006    0.3982 C   0  0  0  0  0  0  0  0  0  0  0  0
   -1.0401    0.4935   -0.2871 C   0  0  0  0  0  0  0  0  0  0  0  0
   -0.2656    1.3710    0.6615 C   0  0  0  0  0  0  0  0  0  0  0  0
    1.1112    1.6254    0.2312 C   0  0  0  0  0  0  0  0  0  0  0  0
    2.0866    0.7629    0.0427 C   0  0  0  0  0  0  0  0  0  0  0  0
    2.0280   -0.7020    0.2234 C   0  0  0  0  0  0  0  0  0  0  0  0
    0.6311   -1.2059    0.4800 C   0  0  0  0  0  0  0  0  0  0  0  0
   -0.3072   -0.7780   -0.6226 C   0  0  0  0  0  0  0  0  0  0  0  0
   -1.2716   -1.7682   -0.8629 O   0  0  0  0  0  0  0  0  0  0  0  0
   -2.7419    1.1831    0.7647 H   0  0  0  0  0  0  0  0  0  0  0  0
   -2.1490   -0.4336    1.2613 H   0  0  0  0  0  0  0  0  0  0  0  0
   -3.1098   -0.2133   -0.2911 H   0  0  0  0  0  0  0  0  0  0  0  0
   -1.2101    1.0438   -1.2320 H   0  0  0  0  0  0  0  0  0  0  0  0
   -0.3570    0.9383    1.6770 H   0  0  0  0  0  0  0  0  0  0  0  0
   -0.8292    2.3459    0.7106 H   0  0  0  0  0  0  0  0  0  0  0  0
    1.3824    2.6641    0.0360 H   0  0  0  0  0  0  0  0  0  0  0  0
    3.0556    1.1202   -0.2801 H   0  0  0  0  0  0  0  0  0  0  0  0
    2.6720   -0.9768    1.0836 H   0  0  0  0  0  0  0  0  0  0  0  0
    2.3641   -1.1618   -0.7316 H   0  0  0  0  0  0  0  0  0  0  0  0
    0.6925   -2.3316    0.4064 H   0  0  0  0  0  0  0  0  0  0  0  0
    0.2580   -0.9971    1.4872 H   0  0  0  0  0  0  0  0  0  0  0  0
    0.2977   -0.6649   -1.5462 H   0  0  0  0  0  0  0  0  0  0  0  0
   -0.9221   -2.5154   -1.4008 H   0  0  0  0  0  0  0  0  0  0  0  0
  1  2  1  0
  2  3  1  0
  3  4  1  0
  4  5  2  0
  5  6  1  0
  6  7  1  0
  7  8  1  0
  8  9  1  0
  8  2  1  0
  1 10  1  0
  1 11  1  0
  1 12  1  0
  2 13  1  0
  3 14  1  0
  3 15  1  0
  4 16  1  0
  5 17  1  0
  6 18  1  0
  6 19  1  0
  7 20  1  0
  7 21  1  0
  8 22  1  0
  9 23  1  0
M  END
