
     RDKit          3D

 19 20  0  0  0  0  0  0  0  0999 V2000
    2.2795    0.0476    0.4692 C   0  0  0  0  0  0  0  0  0  0  0  0
    0.7894    0.2913    0.5243 C   0  0  0  0  0  0  0  0  0  0  0  0
    0.1606    0.3890   -0.8533 C   0  0  0  0  0  0  0  0  0  0  0  0
   -1.0766    1.2439   -0.8669 C   0  0  0  0  0  0  0  0  0  0  0  0
   -1.9065    0.6409    0.2058 C   0  0  0  0  0  0  0  0  0  0  0  0
   -2.7077    1.1713    0.9368 O   0  0  0  0  0  0  0  0  0  0  0  0
   -1.5533   -0.8044    0.2153 C   0  0  0  0  0  0  0  0  0  0  0  0
   -0.0798   -0.7866    0.0192 C   0  0  0  0  0  0  0  0  0  0  0  0
    0.5382   -2.0054   -0.2671 O   0  0  0  0  0  0  0  0  0  0  0  0
    2.7714    1.0528    0.4153 H   0  0  0  0  0  0  0  0  0  0  0  0
    2.5423   -0.5897   -0.3737 H   0  0  0  0  0  0  0  0  0  0  0  0
    2.5716   -0.3622    1.4637 H   0  0  0  0  0  0  0  0  0  0  0  0
    0.4700    0.9733    1.3170 H   0  0  0  0  0  0  0  0  0  0  0  0
    0.7858    0.3074   -1.7509 H   0  0  0  0  0  0  0  0  0  0  0  0
   -0.7818    2.2671   -0.6113 H   0  0  0  0  0  0  0  0  0  0  0  0
   -1.6093    1.1840   -1.8539 H   0  0  0  0  0  0  0  0  0  0  0  0
   -1.9033   -1.3300    1.1129 H   0  0  0  0  0  0  0  0  0  0  0  0
   -2.0111   -1.2378   -0.7218 H   0  0  0  0  0  0  0  0  0  0  0  0
    0.7205   -2.4526    0.6193 H   0  0  0  0  0  0  0  0  0  0  0  0
  1  2  1  0
  2  3  1  0
  3  4  1  0
  4  5  1  0
  5  6  2  0
  5  7  1  0
  7  8  1  0
  8  9  1  0
  8  2  1  0
  8  3  1  0
  1 10  1  0
  1 11  1  0
  1 12  1  0
  2 13  1  0
  3 14  1  0
  4 15  1  0
  4 16  1  0
  7 17  1  0
  7 18  1  0
  9 19  1  0
M  END
