
     RDKit          3D

 23 24  0  0  0  0  0  0  0  0999 V2000
   -2.0838   -0.5613   -0.2513 C   0  0  0  0  0  0  0  0  0  0  0  0
   -0.6941   -0.3983    0.3806 C   0  0  0  0  0  0  0  0  0  0  0  0
    0.0728   -1.6477    0.2252 C   0  0  0  0  0  0  0  0  0  0  0  0
    1.4842   -1.5205   -0.2155 C   0  0  0  0  0  0  0  0  0  0  0  0
    1.9604   -0.1174   -0.4200 C   0  0  0  0  0  0  0  0  0  0  0  0
    0.9764    0.5994   -1.0516 O   0  0  0  0  0  0  0  0  0  0  0  0
   -0.0404    0.8377   -0.1316 C   0  0  0  0  0  0  0  0  0  0  0  0
   -0.7839    2.0874   -0.3236 C   0  0  0  0  0  0  0  0  0  0  0  0
    0.1412    2.0187    0.8320 C   0  0  0  0  0  0  0  0  0  0  0  0
   -2.8240   -0.9186    0.4855 H   0  0  0  0  0  0  0  0  0  0  0  0
   -1.9894   -1.3839   -1.0160 H   0  0  0  0  0  0  0  0  0  0  0  0
   -2.4048    0.3242   -0.7890 H   0  0  0  0  0  0  0  0  0  0  0  0
   -0.9109   -0.2323    1.4773 H   0  0  0  0  0  0  0  0  0  0  0  0
   -0.4632   -2.3414   -0.4889 H   0  0  0  0  0  0  0  0  0  0  0  0
    0.0823   -2.2352    1.1920 H   0  0  0  0  0  0  0  0  0  0  0  0
    1.6613   -2.0646   -1.1885 H   0  0  0  0  0  0  0  0  0  0  0  0
    2.2144   -2.0098    0.4940 H   0  0  0  0  0  0  0  0  0  0  0  0
    2.3344    0.3337    0.5141 H   0  0  0  0  0  0  0  0  0  0  0  0
    2.8478   -0.1452   -1.1163 H   0  0  0  0  0  0  0  0  0  0  0  0
   -0.4476    2.8023   -1.1315 H   0  0  0  0  0  0  0  0  0  0  0  0
   -1.8729    2.1849   -0.1408 H   0  0  0  0  0  0  0  0  0  0  0  0
   -0.3786    1.8838    1.8246 H   0  0  0  0  0  0  0  0  0  0  0  0
    1.1185    2.5043    0.8395 H   0  0  0  0  0  0  0  0  0  0  0  0
  1  2  1  0
  2  3  1  0
  3  4  1  0
  4  5  1  0
  5  6  1  0
  6  7  1  0
  7  8  1  0
  8  9  1  0
  7  2  1  0
  9  7  1  0
  1 10  1  0
  1 11  1  0
  1 12  1  0
  2 13  1  0
  3 14  1  0
  3 15  1  0
  4 16  1  0
  4 17  1  0
  5 18  1  0
  5 19  1  0
  8 20  1  0
  8 21  1  0
  9 22  1  0
  9 23  1  0
M  END
