
     RDKit          3D

 19 21  0  0  0  0  0  0  0  0999 V2000
    2.2995    0.0605    0.1054 C   0  0  0  0  0  0  0  0  0  0  0  0
    0.9451   -0.5885   -0.0481 C   0  0  0  0  0  0  0  0  0  0  0  0
   -0.1506    0.1164   -0.7256 C   0  0  0  0  0  0  0  0  0  0  0  0
   -1.4097   -0.6693   -0.9836 C   0  0  0  0  0  0  0  0  0  0  0  0
   -2.2161   -0.3190    0.1237 O   0  0  0  0  0  0  0  0  0  0  0  0
   -1.3534   -0.6723    1.1813 C   0  0  0  0  0  0  0  0  0  0  0  0
   -0.1107    0.0585    0.8292 C   0  0  0  0  0  0  0  0  0  0  0  0
   -0.0599    1.4399    0.8287 O   0  0  0  0  0  0  0  0  0  0  0  0
   -0.2576    1.6076   -0.5451 C   0  0  0  0  0  0  0  0  0  0  0  0
    2.8665   -0.5764    0.8362 H   0  0  0  0  0  0  0  0  0  0  0  0
    2.8818    0.1076   -0.8108 H   0  0  0  0  0  0  0  0  0  0  0  0
    2.2395    1.0659    0.5876 H   0  0  0  0  0  0  0  0  0  0  0  0
    0.9590   -1.6902   -0.1576 H   0  0  0  0  0  0  0  0  0  0  0  0
   -1.2177   -1.7451   -0.8828 H   0  0  0  0  0  0  0  0  0  0  0  0
   -1.9034   -0.3836   -1.9337 H   0  0  0  0  0  0  0  0  0  0  0  0
   -1.7350   -0.2670    2.1575 H   0  0  0  0  0  0  0  0  0  0  0  0
   -1.1563   -1.7472    1.2119 H   0  0  0  0  0  0  0  0  0  0  0  0
   -1.2332    2.0607   -0.7720 H   0  0  0  0  0  0  0  0  0  0  0  0
    0.6124    2.1416   -1.0023 H   0  0  0  0  0  0  0  0  0  0  0  0
  1  2  1  0
  2  3  1  0
  3  4  1  0
  4  5  1  0
  5  6  1  0
  6  7  1  0
  7  8  1  0
  8  9  1  0
  7  2  1  0
  7  3  1  0
  9  3  1  0
  1 10  1  0
  1 11  1  0
  1 12  1  0
  2 13  1  0
  4 14  1  0
  4 15  1  0
  6 16  1  0
  6 17  1  0
  9 18  1  0
  9 19  1  0
M  END
