
     RDKit          3D

 21 22  0  0  0  0  0  0  0  0999 V2000
    2.2096   -0.3300    0.2212 C   0  0  0  0  0  0  0  0  0  0  0  0
    0.7660   -0.5043   -0.1025 C   0  0  0  0  0  0  0  0  0  0  0  0
    0.2028    0.5092   -1.1104 C   0  0  0  0  0  0  0  0  0  0  0  0
   -1.2027    0.0197   -1.2539 C   0  0  0  0  0  0  0  0  0  0  0  0
   -1.5378   -0.2159    0.2324 C   0  0  0  0  0  0  0  0  0  0  0  0
   -1.8791   -1.5173    0.4810 O   0  0  0  0  0  0  0  0  0  0  0  0
   -0.2095    0.1582    0.8378 C   0  0  0  0  0  0  0  0  0  0  0  0
   -0.0214    0.1214    2.1441 O   0  0  0  0  0  0  0  0  0  0  0  0
    0.0950    1.4475    0.0748 C   0  0  0  0  0  0  0  0  0  0  0  0
    2.4809   -0.6071    1.2510 H   0  0  0  0  0  0  0  0  0  0  0  0
    2.7949   -0.9450   -0.4971 H   0  0  0  0  0  0  0  0  0  0  0  0
    2.5811    0.7174    0.0778 H   0  0  0  0  0  0  0  0  0  0  0  0
    0.5068   -1.5360   -0.3789 H   0  0  0  0  0  0  0  0  0  0  0  0
    0.7939    0.7701   -1.9404 H   0  0  0  0  0  0  0  0  0  0  0  0
   -1.1664   -0.9488   -1.8021 H   0  0  0  0  0  0  0  0  0  0  0  0
   -1.8877    0.7352   -1.7144 H   0  0  0  0  0  0  0  0  0  0  0  0
   -2.3038    0.5243    0.5505 H   0  0  0  0  0  0  0  0  0  0  0  0
   -2.7667   -1.7150    0.1358 H   0  0  0  0  0  0  0  0  0  0  0  0
    0.3474   -0.7557    2.4341 H   0  0  0  0  0  0  0  0  0  0  0  0
   -0.8019    2.1020   -0.0114 H   0  0  0  0  0  0  0  0  0  0  0  0
    0.9986    1.9701    0.3706 H   0  0  0  0  0  0  0  0  0  0  0  0
  1  2  1  0
  2  3  1  0
  3  4  1  0
  4  5  1  0
  5  6  1  0
  5  7  1  0
  7  8  1  0
  7  9  1  0
  7  2  1  0
  9  3  1  0
  1 10  1  0
  1 11  1  0
  1 12  1  0
  2 13  1  0
  3 14  1  0
  4 15  1  0
  4 16  1  0
  5 17  1  0
  6 18  1  0
  8 19  1  0
  9 20  1  0
  9 21  1  0
M  END
