
     RDKit          3D

 23 24  0  0  0  0  0  0  0  0999 V2000
   -2.3564    0.8470    0.1157 C   0  0  0  0  0  0  0  0  0  0  0  0
   -1.5772   -0.2948    0.7299 C   0  0  0  0  0  0  0  0  0  0  0  0
   -1.1821   -1.3816   -0.2502 C   0  0  0  0  0  0  0  0  0  0  0  0
    0.2717   -1.1692    0.0173 C   0  0  0  0  0  0  0  0  0  0  0  0
   -0.1426   -0.0433    1.0178 C   0  0  0  0  0  0  0  0  0  0  0  0
    0.8797    0.1808   -0.0004 C   0  0  0  0  0  0  0  0  0  0  0  0
    0.7077    1.1135   -1.1597 C   0  0  0  0  0  0  0  0  0  0  0  0
    2.3206    0.2141    0.5287 C   0  0  0  0  0  0  0  0  0  0  0  0
    3.1198   -0.6084   -0.2502 O   0  0  0  0  0  0  0  0  0  0  0  0
   -1.8119    1.7741    0.2887 H   0  0  0  0  0  0  0  0  0  0  0  0
   -2.5515    0.6038   -0.9414 H   0  0  0  0  0  0  0  0  0  0  0  0
   -3.3723    0.9613    0.5875 H   0  0  0  0  0  0  0  0  0  0  0  0
   -2.1444   -0.7103    1.5808 H   0  0  0  0  0  0  0  0  0  0  0  0
   -1.5393   -2.3849    0.0550 H   0  0  0  0  0  0  0  0  0  0  0  0
   -1.5252   -1.1870   -1.2977 H   0  0  0  0  0  0  0  0  0  0  0  0
    0.8279   -2.0221    0.4533 H   0  0  0  0  0  0  0  0  0  0  0  0
    0.1753   -0.2570    2.0783 H   0  0  0  0  0  0  0  0  0  0  0  0
    1.2400    2.0643   -0.9087 H   0  0  0  0  0  0  0  0  0  0  0  0
   -0.3096    1.2464   -1.5070 H   0  0  0  0  0  0  0  0  0  0  0  0
    1.2900    0.6964   -2.0338 H   0  0  0  0  0  0  0  0  0  0  0  0
    2.3618   -0.1375    1.5802 H   0  0  0  0  0  0  0  0  0  0  0  0
    2.6723    1.2726    0.5111 H   0  0  0  0  0  0  0  0  0  0  0  0
    2.6457   -0.7780   -1.1222 H   0  0  0  0  0  0  0  0  0  0  0  0
  1  2  1  0
  2  3  1  0
  3  4  1  0
  4  5  1  0
  5  6  1  0
  6  7  1  0
  6  8  1  0
  8  9  1  0
  5  2  1  0
  6  4  1  0
  1 10  1  0
  1 11  1  0
  1 12  1  0
  2 13  1  0
  3 14  1  0
  3 15  1  0
  4 16  1  0
  5 17  1  0
  7 18  1  0
  7 19  1  0
  7 20  1  0
  8 21  1  0
  8 22  1  0
  9 23  1  0
M  END
