
     RDKit          3D

 21 21  0  0  0  0  0  0  0  0999 V2000
   -2.5291   -0.5417   -0.1255 C   0  0  0  0  0  0  0  0  0  0  0  0
   -1.0622   -0.2815    0.1978 C   0  0  0  0  0  0  0  0  0  0  0  0
   -0.7897    1.1945    0.0955 C   0  0  0  0  0  0  0  0  0  0  0  0
    0.4834    1.5027    0.5312 O   0  0  0  0  0  0  0  0  0  0  0  0
    1.4161    1.5996   -0.4727 C   0  0  0  0  0  0  0  0  0  0  0  0
    1.5991    0.4471   -1.2030 O   0  0  0  0  0  0  0  0  0  0  0  0
    2.0143   -0.6337   -0.4658 C   0  0  0  0  0  0  0  0  0  0  0  0
    0.8326   -1.5331   -0.2064 C   0  0  0  0  0  0  0  0  0  0  0  0
   -0.3306   -0.9892   -0.7582 O   0  0  0  0  0  0  0  0  0  0  0  0
   -2.6719   -0.6360   -1.2365 H   0  0  0  0  0  0  0  0  0  0  0  0
   -2.8251   -1.5359    0.2975 H   0  0  0  0  0  0  0  0  0  0  0  0
   -3.1984    0.2174    0.2733 H   0  0  0  0  0  0  0  0  0  0  0  0
   -0.8762   -0.6350    1.2239 H   0  0  0  0  0  0  0  0  0  0  0  0
   -1.5019    1.7304    0.7571 H   0  0  0  0  0  0  0  0  0  0  0  0
   -0.9322    1.4871   -0.9549 H   0  0  0  0  0  0  0  0  0  0  0  0
    1.0892    2.3927   -1.1884 H   0  0  0  0  0  0  0  0  0  0  0  0
    2.3655    1.9346   -0.0375 H   0  0  0  0  0  0  0  0  0  0  0  0
    2.5573   -0.3810    0.4565 H   0  0  0  0  0  0  0  0  0  0  0  0
    2.7312   -1.2133   -1.1188 H   0  0  0  0  0  0  0  0  0  0  0  0
    0.9556   -2.5346   -0.6714 H   0  0  0  0  0  0  0  0  0  0  0  0
    0.6732   -1.5912    0.8886 H   0  0  0  0  0  0  0  0  0  0  0  0
  1  2  1  0
  2  3  1  0
  3  4  1  0
  4  5  1  0
  5  6  1  0
  6  7  1  0
  7  8  1  0
  8  9  1  0
  9  2  1  0
  1 10  1  0
  1 11  1  0
  1 12  1  0
  2 13  1  0
  3 14  1  0
  3 15  1  0
  5 16  1  0
  5 17  1  0
  7 18  1  0
  7 19  1  0
  8 20  1  0
  8 21  1  0
M  END
