
     RDKit          3D

 21 23  0  0  0  0  0  0  0  0999 V2000
   -1.5843   -0.9030   -1.0474 C   0  0  0  0  0  0  0  0  0  0  0  0
   -1.3959   -0.3694    0.3269 C   0  0  0  0  0  0  0  0  0  0  0  0
   -1.7675    1.0510    0.5813 C   0  0  0  0  0  0  0  0  0  0  0  0
   -0.8874    2.0852    0.3679 O   0  0  0  0  0  0  0  0  0  0  0  0
   -0.4283    1.2046    1.3167 C   0  0  0  0  0  0  0  0  0  0  0  0
    0.0323   -0.1169    0.7556 C   0  0  0  0  0  0  0  0  0  0  0  0
    0.9553    0.1725   -0.4364 C   0  0  0  0  0  0  0  0  0  0  0  0
    2.3873    0.4295   -0.0522 C   0  0  0  0  0  0  0  0  0  0  0  0
    1.9822   -0.8396   -0.8045 C   0  0  0  0  0  0  0  0  0  0  0  0
   -2.5193   -1.5327   -1.0592 H   0  0  0  0  0  0  0  0  0  0  0  0
   -0.7780   -1.5861   -1.3830 H   0  0  0  0  0  0  0  0  0  0  0  0
   -1.7668   -0.0747   -1.7477 H   0  0  0  0  0  0  0  0  0  0  0  0
   -1.8814   -1.0310    1.0930 H   0  0  0  0  0  0  0  0  0  0  0  0
   -2.6915    1.2892    1.1473 H   0  0  0  0  0  0  0  0  0  0  0  0
   -0.4992    1.3807    2.3794 H   0  0  0  0  0  0  0  0  0  0  0  0
    0.4565   -0.8135    1.4791 H   0  0  0  0  0  0  0  0  0  0  0  0
    0.5516    0.8874   -1.1738 H   0  0  0  0  0  0  0  0  0  0  0  0
    2.6804    0.2941    1.0183 H   0  0  0  0  0  0  0  0  0  0  0  0
    2.9924    1.1458   -0.6436 H   0  0  0  0  0  0  0  0  0  0  0  0
    1.9484   -1.7860   -0.2233 H   0  0  0  0  0  0  0  0  0  0  0  0
    2.2133   -0.8871   -1.8945 H   0  0  0  0  0  0  0  0  0  0  0  0
  1  2  1  0
  2  3  1  0
  3  4  1  0
  4  5  1  0
  5  6  1  0
  6  7  1  0
  7  8  1  0
  8  9  1  0
  6  2  1  0
  9  7  1  0
  5  3  1  0
  1 10  1  0
  1 11  1  0
  1 12  1  0
  2 13  1  0
  3 14  1  0
  5 15  1  0
  6 16  1  0
  7 17  1  0
  8 18  1  0
  8 19  1  0
  9 20  1  0
  9 21  1  0
M  END
