
     RDKit          3D

 21 23  0  0  0  0  0  0  0  0999 V2000
    2.9985    0.3830    0.0704 C   0  0  0  0  0  0  0  0  0  0  0  0
    1.5903    0.5753   -0.3771 C   0  0  0  0  0  0  0  0  0  0  0  0
    0.4662    0.7362    0.5732 C   0  0  0  0  0  0  0  0  0  0  0  0
   -0.8810    0.8754   -0.0737 C   0  0  0  0  0  0  0  0  0  0  0  0
   -2.0695    0.8604    0.7706 C   0  0  0  0  0  0  0  0  0  0  0  0
   -2.5195   -0.3631    0.9749 C   0  0  0  0  0  0  0  0  0  0  0  0
   -1.6742   -1.3418    0.2811 C   0  0  0  0  0  0  0  0  0  0  0  0
   -0.7663   -0.5382   -0.5687 C   0  0  0  0  0  0  0  0  0  0  0  0
    0.6653   -0.5803   -0.0942 C   0  0  0  0  0  0  0  0  0  0  0  0
    3.6504    1.2544   -0.1121 H   0  0  0  0  0  0  0  0  0  0  0  0
    3.0780    0.0850    1.1361 H   0  0  0  0  0  0  0  0  0  0  0  0
    3.4683   -0.4678   -0.5033 H   0  0  0  0  0  0  0  0  0  0  0  0
    1.4808    1.0329   -1.3825 H   0  0  0  0  0  0  0  0  0  0  0  0
    0.5902    0.8219    1.6514 H   0  0  0  0  0  0  0  0  0  0  0  0
   -0.9399    1.6248   -0.8911 H   0  0  0  0  0  0  0  0  0  0  0  0
   -2.5403    1.7425    1.1893 H   0  0  0  0  0  0  0  0  0  0  0  0
   -3.4057   -0.6453    1.5783 H   0  0  0  0  0  0  0  0  0  0  0  0
   -2.2750   -2.0765   -0.3030 H   0  0  0  0  0  0  0  0  0  0  0  0
   -1.0934   -1.8805    1.0727 H   0  0  0  0  0  0  0  0  0  0  0  0
   -0.8493   -0.6606   -1.6660 H   0  0  0  0  0  0  0  0  0  0  0  0
    1.0262   -1.4379    0.5041 H   0  0  0  0  0  0  0  0  0  0  0  0
  1  2  1  0
  2  3  1  0
  3  4  1  0
  4  5  1  0
  5  6  2  0
  6  7  1  0
  7  8  1  0
  8  9  1  0
  9  2  1  0
  9  3  1  0
  8  4  1  0
  1 10  1  0
  1 11  1  0
  1 12  1  0
  2 13  1  0
  3 14  1  0
  4 15  1  0
  5 16  1  0
  6 17  1  0
  7 18  1  0
  7 19  1  0
  8 20  1  0
  9 21  1  0
M  END
