
     RDKit          3D

 23 24  0  0  0  0  0  0  0  0999 V2000
   -0.0007    2.0124    0.4343 C   0  0  0  0  0  0  0  0  0  0  0  0
   -0.1064    0.8059   -0.4401 C   0  0  0  0  0  0  0  0  0  0  0  0
    1.1999    0.1866   -0.7973 C   0  0  0  0  0  0  0  0  0  0  0  0
    2.2408   -0.1365    0.1916 C   0  0  0  0  0  0  0  0  0  0  0  0
    1.2255   -1.1529   -0.1761 C   0  0  0  0  0  0  0  0  0  0  0  0
    0.0495   -1.2576    0.7750 C   0  0  0  0  0  0  0  0  0  0  0  0
   -0.9309   -0.2700    0.2143 C   0  0  0  0  0  0  0  0  0  0  0  0
   -1.7484   -0.9641   -0.8430 C   0  0  0  0  0  0  0  0  0  0  0  0
   -1.7013    0.2088    1.2654 O   0  0  0  0  0  0  0  0  0  0  0  0
   -0.3931    1.7846    1.4595 H   0  0  0  0  0  0  0  0  0  0  0  0
    1.0030    2.4461    0.4997 H   0  0  0  0  0  0  0  0  0  0  0  0
   -0.6685    2.8360    0.0573 H   0  0  0  0  0  0  0  0  0  0  0  0
   -0.6135    1.1113   -1.3985 H   0  0  0  0  0  0  0  0  0  0  0  0
    1.5273    0.2061   -1.8767 H   0  0  0  0  0  0  0  0  0  0  0  0
    3.2634   -0.2994   -0.1692 H   0  0  0  0  0  0  0  0  0  0  0  0
    2.2205    0.2888    1.2315 H   0  0  0  0  0  0  0  0  0  0  0  0
    1.4603   -2.0313   -0.7909 H   0  0  0  0  0  0  0  0  0  0  0  0
    0.4102   -0.9807    1.7977 H   0  0  0  0  0  0  0  0  0  0  0  0
   -0.3818   -2.2864    0.7972 H   0  0  0  0  0  0  0  0  0  0  0  0
   -1.1810   -0.9096   -1.8010 H   0  0  0  0  0  0  0  0  0  0  0  0
   -1.8411   -2.0329   -0.5231 H   0  0  0  0  0  0  0  0  0  0  0  0
   -2.7631   -0.5376   -0.9145 H   0  0  0  0  0  0  0  0  0  0  0  0
   -2.2705    0.9726    1.0069 H   0  0  0  0  0  0  0  0  0  0  0  0
  1  2  1  0
  2  3  1  0
  3  4  1  0
  4  5  1  0
  5  6  1  0
  6  7  1  0
  7  8  1  0
  7  9  1  0
  7  2  1  0
  5  3  1  0
  1 10  1  0
  1 11  1  0
  1 12  1  0
  2 13  1  0
  3 14  1  0
  4 15  1  0
  4 16  1  0
  5 17  1  0
  6 18  1  0
  6 19  1  0
  8 20  1  0
  8 21  1  0
  8 22  1  0
  9 23  1  0
M  END
