
     RDKit          3D

 23 24  0  0  0  0  0  0  0  0999 V2000
    2.3536    0.0402    0.2893 C   0  0  0  0  0  0  0  0  0  0  0  0
    1.2134   -0.6814   -0.3771 C   0  0  0  0  0  0  0  0  0  0  0  0
    0.2328   -1.1965    0.6870 C   0  0  0  0  0  0  0  0  0  0  0  0
   -0.8166   -0.3836    0.0283 C   0  0  0  0  0  0  0  0  0  0  0  0
   -2.0695   -1.0010   -0.3941 C   0  0  0  0  0  0  0  0  0  0  0  0
   -2.6338   -0.6399    0.8530 O   0  0  0  0  0  0  0  0  0  0  0  0
   -1.7192    0.4382    0.8444 C   0  0  0  0  0  0  0  0  0  0  0  0
    0.1173    0.2227   -0.9120 C   0  0  0  0  0  0  0  0  0  0  0  0
    0.3764    1.6934   -0.5759 C   0  0  0  0  0  0  0  0  0  0  0  0
    1.9804    0.5027    1.2159 H   0  0  0  0  0  0  0  0  0  0  0  0
    3.0957   -0.7239    0.5861 H   0  0  0  0  0  0  0  0  0  0  0  0
    2.8621    0.7676   -0.3470 H   0  0  0  0  0  0  0  0  0  0  0  0
    1.4716   -1.4630   -1.0912 H   0  0  0  0  0  0  0  0  0  0  0  0
    0.4920   -0.8889    1.7192 H   0  0  0  0  0  0  0  0  0  0  0  0
    0.0111   -2.2771    0.6018 H   0  0  0  0  0  0  0  0  0  0  0  0
   -2.0164   -2.0945   -0.5431 H   0  0  0  0  0  0  0  0  0  0  0  0
   -2.5996   -0.5328   -1.2332 H   0  0  0  0  0  0  0  0  0  0  0  0
   -2.1909    1.2639    0.2601 H   0  0  0  0  0  0  0  0  0  0  0  0
   -1.3046    0.7073    1.8122 H   0  0  0  0  0  0  0  0  0  0  0  0
   -0.0448    0.0998   -1.9998 H   0  0  0  0  0  0  0  0  0  0  0  0
   -0.3984    2.3074   -1.0596 H   0  0  0  0  0  0  0  0  0  0  0  0
    0.2291    1.8061    0.5281 H   0  0  0  0  0  0  0  0  0  0  0  0
    1.3583    2.0334   -0.8925 H   0  0  0  0  0  0  0  0  0  0  0  0
  1  2  1  0
  2  3  1  0
  3  4  1  0
  4  5  1  0
  5  6  1  0
  6  7  1  0
  4  8  1  0
  8  9  1  0
  8  2  1  0
  7  4  1  0
  1 10  1  0
  1 11  1  0
  1 12  1  0
  2 13  1  0
  3 14  1  0
  3 15  1  0
  5 16  1  0
  5 17  1  0
  7 18  1  0
  7 19  1  0
  8 20  1  0
  9 21  1  0
  9 22  1  0
  9 23  1  0
M  END
