
     RDKit          3D

 25 26  0  0  0  0  0  0  0  0999 V2000
    2.5436    0.5757    0.4490 C   0  0  0  0  0  0  0  0  0  0  0  0
    1.0801    0.1143    0.5789 C   0  0  0  0  0  0  0  0  0  0  0  0
    0.9134   -0.9462   -0.4384 C   0  0  0  0  0  0  0  0  0  0  0  0
   -0.3825   -1.6775   -0.4061 C   0  0  0  0  0  0  0  0  0  0  0  0
   -1.5976   -0.8447   -0.5319 C   0  0  0  0  0  0  0  0  0  0  0  0
   -1.7987   -0.1250    0.8060 C   0  0  0  0  0  0  0  0  0  0  0  0
   -1.1991    1.0920    0.1271 C   0  0  0  0  0  0  0  0  0  0  0  0
    0.2281    1.2983    0.4940 C   0  0  0  0  0  0  0  0  0  0  0  0
   -1.4048    0.4698   -1.2187 C   0  0  0  0  0  0  0  0  0  0  0  0
    3.2258   -0.2951    0.3641 H   0  0  0  0  0  0  0  0  0  0  0  0
    2.8161    1.2790    1.2439 H   0  0  0  0  0  0  0  0  0  0  0  0
    2.6205    1.1026   -0.5471 H   0  0  0  0  0  0  0  0  0  0  0  0
    1.0430   -0.3776    1.5945 H   0  0  0  0  0  0  0  0  0  0  0  0
    1.7108   -1.7226   -0.2266 H   0  0  0  0  0  0  0  0  0  0  0  0
    1.1902   -0.5615   -1.4466 H   0  0  0  0  0  0  0  0  0  0  0  0
   -0.4267   -2.2448    0.5565 H   0  0  0  0  0  0  0  0  0  0  0  0
   -0.3769   -2.4329   -1.2116 H   0  0  0  0  0  0  0  0  0  0  0  0
   -2.4894   -1.4199   -0.8351 H   0  0  0  0  0  0  0  0  0  0  0  0
   -2.8592   -0.0116    1.0794 H   0  0  0  0  0  0  0  0  0  0  0  0
   -1.1513   -0.4659    1.6141 H   0  0  0  0  0  0  0  0  0  0  0  0
   -1.8055    1.9757    0.3417 H   0  0  0  0  0  0  0  0  0  0  0  0
    0.6609    2.0387   -0.2313 H   0  0  0  0  0  0  0  0  0  0  0  0
    0.2389    1.8316    1.4779 H   0  0  0  0  0  0  0  0  0  0  0  0
   -2.2725    0.8475   -1.7977 H   0  0  0  0  0  0  0  0  0  0  0  0
   -0.5074    0.5001   -1.8361 H   0  0  0  0  0  0  0  0  0  0  0  0
  1  2  1  0
  2  3  1  0
  3  4  1  0
  4  5  1  0
  5  6  1  0
  6  7  1  0
  7  8  1  0
  7  9  1  0
  8  2  1  0
  9  5  1  0
  1 10  1  0
  1 11  1  0
  1 12  1  0
  2 13  1  0
  3 14  1  0
  3 15  1  0
  4 16  1  0
  4 17  1  0
  5 18  1  0
  6 19  1  0
  6 20  1  0
  7 21  1  0
  8 22  1  0
  8 23  1  0
  9 24  1  0
  9 25  1  0
M  END
