
     RDKit          3D

 18 18  0  0  0  0  0  0  0  0999 V2000
    1.7396   -0.3707    0.8671 C   0  0  0  0  0  0  0  0  0  0  0  0
    0.7624    0.4332    0.0960 C   0  0  0  0  0  0  0  0  0  0  0  0
    0.5051    0.0369   -1.2969 C   0  0  0  0  0  0  0  0  0  0  0  0
    1.1160   -0.5083   -2.1640 O   0  0  0  0  0  0  0  0  0  0  0  0
   -0.8373    0.6189   -1.1212 C   0  0  0  0  0  0  0  0  0  0  0  0
   -0.9048    1.9917   -1.3098 O   0  0  0  0  0  0  0  0  0  0  0  0
   -0.6914    0.2304    0.3623 C   0  0  0  0  0  0  0  0  0  0  0  0
   -1.1648   -1.1703    0.5436 C   0  0  0  0  0  0  0  0  0  0  0  0
    2.7375   -0.2785    0.3452 H   0  0  0  0  0  0  0  0  0  0  0  0
    1.8080    0.0562    1.8904 H   0  0  0  0  0  0  0  0  0  0  0  0
    1.5349   -1.4336    0.9438 H   0  0  0  0  0  0  0  0  0  0  0  0
    1.0143    1.5131    0.1422 H   0  0  0  0  0  0  0  0  0  0  0  0
   -1.6696    0.0972   -1.6307 H   0  0  0  0  0  0  0  0  0  0  0  0
   -0.7994    2.5037   -0.4717 H   0  0  0  0  0  0  0  0  0  0  0  0
   -1.1432    1.0001    1.0193 H   0  0  0  0  0  0  0  0  0  0  0  0
   -2.1077   -1.1985    1.1538 H   0  0  0  0  0  0  0  0  0  0  0  0
   -1.4390   -1.6793   -0.4185 H   0  0  0  0  0  0  0  0  0  0  0  0
   -0.4606   -1.8421    1.0491 H   0  0  0  0  0  0  0  0  0  0  0  0
  1  2  1  0
  2  3  1  0
  3  4  2  0
  3  5  1  0
  5  6  1  0
  5  7  1  0
  7  8  1  0
  7  2  1  0
  1  9  1  0
  1 10  1  0
  1 11  1  0
  2 12  1  0
  5 13  1  0
  6 14  1  0
  7 15  1  0
  8 16  1  0
  8 17  1  0
  8 18  1  0
M  END
