
     RDKit          3D

 19 20  0  0  0  0  0  0  0  0999 V2000
   -2.2395   -0.1262    0.2054 C   0  0  0  0  0  0  0  0  0  0  0  0
   -0.8099   -0.3611    0.6189 C   0  0  0  0  0  0  0  0  0  0  0  0
    0.0756   -0.8885   -0.4884 C   0  0  0  0  0  0  0  0  0  0  0  0
    1.3826   -1.4842   -0.1404 C   0  0  0  0  0  0  0  0  0  0  0  0
    1.6290   -2.6598   -0.0974 O   0  0  0  0  0  0  0  0  0  0  0  0
    2.2994   -0.3610    0.1363 C   0  0  0  0  0  0  0  0  0  0  0  0
    1.4638    0.6360    0.5958 O   0  0  0  0  0  0  0  0  0  0  0  0
    0.2364    0.5167   -0.0325 C   0  0  0  0  0  0  0  0  0  0  0  0
   -0.1827    1.6662   -0.8946 C   0  0  0  0  0  0  0  0  0  0  0  0
   -2.8689   -0.8791    0.7130 H   0  0  0  0  0  0  0  0  0  0  0  0
   -2.3917   -0.2957   -0.8909 H   0  0  0  0  0  0  0  0  0  0  0  0
   -2.6075    0.8760    0.4571 H   0  0  0  0  0  0  0  0  0  0  0  0
   -0.6101   -0.8234    1.5998 H   0  0  0  0  0  0  0  0  0  0  0  0
   -0.3853   -1.1215   -1.4703 H   0  0  0  0  0  0  0  0  0  0  0  0
    3.0677   -0.6092    0.8951 H   0  0  0  0  0  0  0  0  0  0  0  0
    2.8190   -0.0934   -0.8062 H   0  0  0  0  0  0  0  0  0  0  0  0
   -1.2796    1.8538   -0.8550 H   0  0  0  0  0  0  0  0  0  0  0  0
    0.2885    2.6066   -0.4951 H   0  0  0  0  0  0  0  0  0  0  0  0
    0.1130    1.5479   -1.9624 H   0  0  0  0  0  0  0  0  0  0  0  0
  1  2  1  0
  2  3  1  0
  3  4  1  0
  4  5  2  0
  4  6  1  0
  6  7  1  0
  7  8  1  0
  8  9  1  0
  8  2  1  0
  8  3  1  0
  1 10  1  0
  1 11  1  0
  1 12  1  0
  2 13  1  0
  3 14  1  0
  6 15  1  0
  6 16  1  0
  9 17  1  0
  9 18  1  0
  9 19  1  0
M  END
