
     RDKit          3D

 17 18  0  0  0  0  0  0  0  0999 V2000
   -1.9642    0.4285   -0.4499 C   0  0  0  0  0  0  0  0  0  0  0  0
   -0.6328   -0.3232   -0.5172 C   0  0  0  0  0  0  0  0  0  0  0  0
   -0.6729   -1.5866    0.2944 C   0  0  0  0  0  0  0  0  0  0  0  0
   -1.1952   -2.6870    0.2183 O   0  0  0  0  0  0  0  0  0  0  0  0
    0.2122   -0.9569    1.2797 C   0  0  0  0  0  0  0  0  0  0  0  0
   -0.0685    0.3060    1.7822 O   0  0  0  0  0  0  0  0  0  0  0  0
    0.3185    0.2371    0.4743 C   0  0  0  0  0  0  0  0  0  0  0  0
    1.6677    0.7618    0.0598 C   0  0  0  0  0  0  0  0  0  0  0  0
    1.9121    0.6226   -1.2851 O   0  0  0  0  0  0  0  0  0  0  0  0
   -1.7853    1.5116   -0.3571 H   0  0  0  0  0  0  0  0  0  0  0  0
   -2.5763    0.2312   -1.3591 H   0  0  0  0  0  0  0  0  0  0  0  0
   -2.5238    0.0566    0.4498 H   0  0  0  0  0  0  0  0  0  0  0  0
   -0.2706   -0.5309   -1.5224 H   0  0  0  0  0  0  0  0  0  0  0  0
    1.1532   -1.4672    1.5949 H   0  0  0  0  0  0  0  0  0  0  0  0
    2.4268    0.1491    0.5997 H   0  0  0  0  0  0  0  0  0  0  0  0
    1.7736    1.7948    0.4351 H   0  0  0  0  0  0  0  0  0  0  0  0
    2.2255    1.4523   -1.6976 H   0  0  0  0  0  0  0  0  0  0  0  0
  1  2  1  0
  2  3  1  0
  3  4  2  0
  3  5  1  0
  5  6  1  0
  6  7  1  0
  7  8  1  0
  8  9  1  0
  7  2  1  0
  7  5  1  0
  1 10  1  0
  1 11  1  0
  1 12  1  0
  2 13  1  0
  5 14  1  0
  8 15  1  0
  8 16  1  0
  9 17  1  0
M  END
