
     RDKit          3D

 23 24  0  0  0  0  0  0  0  0999 V2000
   -2.0871   -0.4362    1.0736 C   0  0  0  0  0  0  0  0  0  0  0  0
   -2.0094    0.5312   -0.0698 C   0  0  0  0  0  0  0  0  0  0  0  0
   -1.9612   -0.0904   -1.4489 C   0  0  0  0  0  0  0  0  0  0  0  0
   -0.7869    0.7236   -0.8674 C   0  0  0  0  0  0  0  0  0  0  0  0
    0.4624   -0.0426   -0.6727 C   0  0  0  0  0  0  0  0  0  0  0  0
    1.4170    0.3927   -1.5948 O   0  0  0  0  0  0  0  0  0  0  0  0
    1.0756    0.0874    0.6950 C   0  0  0  0  0  0  0  0  0  0  0  0
    2.3610   -0.7174    0.8541 C   0  0  0  0  0  0  0  0  0  0  0  0
    2.4246    0.7613    0.8218 C   0  0  0  0  0  0  0  0  0  0  0  0
   -1.9544    0.0918    2.0368 H   0  0  0  0  0  0  0  0  0  0  0  0
   -1.4209   -1.3060    0.9704 H   0  0  0  0  0  0  0  0  0  0  0  0
   -3.1334   -0.8612    1.0928 H   0  0  0  0  0  0  0  0  0  0  0  0
   -2.7087    1.3775    0.0051 H   0  0  0  0  0  0  0  0  0  0  0  0
   -2.5460    0.3688   -2.2653 H   0  0  0  0  0  0  0  0  0  0  0  0
   -1.8472   -1.1768   -1.4992 H   0  0  0  0  0  0  0  0  0  0  0  0
   -0.6647    1.7292   -1.3649 H   0  0  0  0  0  0  0  0  0  0  0  0
    0.3312   -1.1374   -0.8649 H   0  0  0  0  0  0  0  0  0  0  0  0
    1.8745   -0.3528   -2.0530 H   0  0  0  0  0  0  0  0  0  0  0  0
    0.4014    0.1316    1.5809 H   0  0  0  0  0  0  0  0  0  0  0  0
    2.7351   -1.3085    0.0071 H   0  0  0  0  0  0  0  0  0  0  0  0
    2.5169   -1.2486    1.8364 H   0  0  0  0  0  0  0  0  0  0  0  0
    2.8414    1.2413   -0.0630 H   0  0  0  0  0  0  0  0  0  0  0  0
    2.6789    1.2414    1.7902 H   0  0  0  0  0  0  0  0  0  0  0  0
  1  2  1  0
  2  3  1  0
  3  4  1  0
  4  5  1  0
  5  6  1  0
  5  7  1  0
  7  8  1  0
  8  9  1  0
  4  2  1  0
  9  7  1  0
  1 10  1  0
  1 11  1  0
  1 12  1  0
  2 13  1  0
  3 14  1  0
  3 15  1  0
  4 16  1  0
  5 17  1  0
  6 18  1  0
  7 19  1  0
  8 20  1  0
  8 21  1  0
  9 22  1  0
  9 23  1  0
M  END
