
     RDKit          3D

 23 25  0  0  0  0  0  0  0  0999 V2000
   -1.4713   -1.6595    0.8986 C   0  0  0  0  0  0  0  0  0  0  0  0
   -0.9756   -0.2585    0.7570 C   0  0  0  0  0  0  0  0  0  0  0  0
   -1.5277    0.3852   -0.4909 C   0  0  0  0  0  0  0  0  0  0  0  0
   -1.5621    1.8823   -0.4819 C   0  0  0  0  0  0  0  0  0  0  0  0
   -0.4382    1.1594   -1.1035 C   0  0  0  0  0  0  0  0  0  0  0  0
    0.8029    0.8957   -0.2999 C   0  0  0  0  0  0  0  0  0  0  0  0
    1.3432   -0.4999   -0.4123 C   0  0  0  0  0  0  0  0  0  0  0  0
    2.8339   -0.6031   -0.1596 C   0  0  0  0  0  0  0  0  0  0  0  0
    0.5071   -0.1214    0.7269 C   0  0  0  0  0  0  0  0  0  0  0  0
   -2.1644   -1.9719    0.0742 H   0  0  0  0  0  0  0  0  0  0  0  0
   -0.6826   -2.4254    0.9386 H   0  0  0  0  0  0  0  0  0  0  0  0
   -2.0725   -1.7776    1.8338 H   0  0  0  0  0  0  0  0  0  0  0  0
   -1.3529    0.3495    1.6177 H   0  0  0  0  0  0  0  0  0  0  0  0
   -2.2155   -0.1781   -1.1485 H   0  0  0  0  0  0  0  0  0  0  0  0
   -1.3990    2.4405    0.4648 H   0  0  0  0  0  0  0  0  0  0  0  0
   -2.2894    2.3729   -1.1498 H   0  0  0  0  0  0  0  0  0  0  0  0
   -0.3719    1.2026   -2.2211 H   0  0  0  0  0  0  0  0  0  0  0  0
    1.4490    1.7358   -0.0025 H   0  0  0  0  0  0  0  0  0  0  0  0
    0.9728   -1.1780   -1.1957 H   0  0  0  0  0  0  0  0  0  0  0  0
    3.3384    0.0056   -0.9580 H   0  0  0  0  0  0  0  0  0  0  0  0
    3.0750   -0.0988    0.7912 H   0  0  0  0  0  0  0  0  0  0  0  0
    3.2041   -1.6363   -0.1958 H   0  0  0  0  0  0  0  0  0  0  0  0
    0.9965   -0.0210    1.7168 H   0  0  0  0  0  0  0  0  0  0  0  0
  1  2  1  0
  2  3  1  0
  3  4  1  0
  4  5  1  0
  5  6  1  0
  6  7  1  0
  7  8  1  0
  7  9  1  0
  9  2  1  0
  5  3  1  0
  9  6  1  0
  1 10  1  0
  1 11  1  0
  1 12  1  0
  2 13  1  0
  3 14  1  0
  4 15  1  0
  4 16  1  0
  5 17  1  0
  6 18  1  0
  7 19  1  0
  8 20  1  0
  8 21  1  0
  8 22  1  0
  9 23  1  0
M  END
