
     RDKit          3D

 21 21  0  0  0  0  0  0  0  0999 V2000
    2.6982   -0.4670   -0.3950 C   0  0  0  0  0  0  0  0  0  0  0  0
    1.3501   -0.3908    0.2507 C   0  0  0  0  0  0  0  0  0  0  0  0
    0.9448    1.0186    0.5533 C   0  0  0  0  0  0  0  0  0  0  0  0
   -0.1259    1.7837    0.3152 C   0  0  0  0  0  0  0  0  0  0  0  0
   -1.3802    1.5095   -0.3741 C   0  0  0  0  0  0  0  0  0  0  0  0
   -2.1712    0.4775   -0.6262 C   0  0  0  0  0  0  0  0  0  0  0  0
   -2.0646   -0.9554   -0.2580 C   0  0  0  0  0  0  0  0  0  0  0  0
   -0.7211   -1.2870    0.3413 C   0  0  0  0  0  0  0  0  0  0  0  0
    0.3416   -0.9746   -0.4808 O   0  0  0  0  0  0  0  0  0  0  0  0
    3.1051    0.5276   -0.6796 H   0  0  0  0  0  0  0  0  0  0  0  0
    3.4776   -0.9105    0.2899 H   0  0  0  0  0  0  0  0  0  0  0  0
    2.7077   -1.1297   -1.2910 H   0  0  0  0  0  0  0  0  0  0  0  0
    1.4238   -0.9324    1.2320 H   0  0  0  0  0  0  0  0  0  0  0  0
    1.6888    1.5787    1.1016 H   0  0  0  0  0  0  0  0  0  0  0  0
   -0.0133    2.7809    0.7183 H   0  0  0  0  0  0  0  0  0  0  0  0
   -1.7581    2.4521   -0.7990 H   0  0  0  0  0  0  0  0  0  0  0  0
   -3.0391    0.7414   -1.2003 H   0  0  0  0  0  0  0  0  0  0  0  0
   -2.8272   -1.2130    0.5159 H   0  0  0  0  0  0  0  0  0  0  0  0
   -2.2915   -1.6213   -1.1230 H   0  0  0  0  0  0  0  0  0  0  0  0
   -0.6345   -0.6474    1.2683 H   0  0  0  0  0  0  0  0  0  0  0  0
   -0.7110   -2.3410    0.6404 H   0  0  0  0  0  0  0  0  0  0  0  0
  1  2  1  0
  2  3  1  0
  3  4  2  3
  4  5  1  0
  5  6  2  3
  6  7  1  0
  7  8  1  0
  8  9  1  0
  9  2  1  0
  1 10  1  0
  1 11  1  0
  1 12  1  0
  2 13  1  0
  3 14  1  0
  4 15  1  0
  5 16  1  0
  6 17  1  0
  7 18  1  0
  7 19  1  0
  8 20  1  0
  8 21  1  0
M  END
