
     RDKit          3D

 19 20  0  0  0  0  0  0  0  0999 V2000
   -0.3081    1.9036    0.8321 C   0  0  0  0  0  0  0  0  0  0  0  0
   -0.5559    0.7640   -0.0722 C   0  0  0  0  0  0  0  0  0  0  0  0
    0.5883    0.5191   -1.0367 C   0  0  0  0  0  0  0  0  0  0  0  0
    0.8737    1.1470   -2.0322 O   0  0  0  0  0  0  0  0  0  0  0  0
    1.3126   -0.6905   -0.4916 C   0  0  0  0  0  0  0  0  0  0  0  0
    0.9029   -0.5939    0.9330 C   0  0  0  0  0  0  0  0  0  0  0  0
   -0.0801   -1.0780    1.6426 O   0  0  0  0  0  0  0  0  0  0  0  0
   -0.6180   -0.5763    0.5691 C   0  0  0  0  0  0  0  0  0  0  0  0
   -1.0371   -1.6565   -0.4459 C   0  0  0  0  0  0  0  0  0  0  0  0
   -1.1841    2.6162    0.7840 H   0  0  0  0  0  0  0  0  0  0  0  0
    0.5472    2.5121    0.4145 H   0  0  0  0  0  0  0  0  0  0  0  0
   -0.1804    1.6643    1.8915 H   0  0  0  0  0  0  0  0  0  0  0  0
   -1.4379    0.9387   -0.7020 H   0  0  0  0  0  0  0  0  0  0  0  0
    1.0644   -1.6046   -1.0131 H   0  0  0  0  0  0  0  0  0  0  0  0
    2.3885   -0.4508   -0.5827 H   0  0  0  0  0  0  0  0  0  0  0  0
    1.3096    0.3717    1.3709 H   0  0  0  0  0  0  0  0  0  0  0  0
   -0.9019   -1.3420   -1.4826 H   0  0  0  0  0  0  0  0  0  0  0  0
   -2.1369   -1.8327   -0.3053 H   0  0  0  0  0  0  0  0  0  0  0  0
   -0.5466   -2.6113   -0.2734 H   0  0  0  0  0  0  0  0  0  0  0  0
  1  2  1  0
  2  3  1  0
  3  4  2  0
  3  5  1  0
  5  6  1  0
  6  7  1  0
  7  8  1  0
  8  9  1  0
  8  2  1  0
  8  6  1  0
  1 10  1  0
  1 11  1  0
  1 12  1  0
  2 13  1  0
  5 14  1  0
  5 15  1  0
  6 16  1  0
  9 17  1  0
  9 18  1  0
  9 19  1  0
M  END
