
     RDKit          3D

 20 21  0  0  0  0  0  0  0  0999 V2000
    2.8852    0.4734   -0.1134 C   0  0  0  0  0  0  0  0  0  0  0  0
    1.6196    0.0926    0.5775 C   0  0  0  0  0  0  0  0  0  0  0  0
    0.8977   -1.1221   -0.0175 C   0  0  0  0  0  0  0  0  0  0  0  0
   -0.2644   -0.3010    0.4744 C   0  0  0  0  0  0  0  0  0  0  0  0
   -1.5418   -0.4564   -0.2984 C   0  0  0  0  0  0  0  0  0  0  0  0
   -2.7192    0.3934    0.2220 C   0  0  0  0  0  0  0  0  0  0  0  0
   -2.1217    0.5984   -1.1200 C   0  0  0  0  0  0  0  0  0  0  0  0
    0.4807    0.8395    0.1935 O   0  0  0  0  0  0  0  0  0  0  0  0
    3.4837   -0.4042   -0.4333 H   0  0  0  0  0  0  0  0  0  0  0  0
    3.5283    1.0018    0.6504 H   0  0  0  0  0  0  0  0  0  0  0  0
    2.7477    1.2150   -0.9263 H   0  0  0  0  0  0  0  0  0  0  0  0
    1.6487    0.0542    1.6733 H   0  0  0  0  0  0  0  0  0  0  0  0
    1.0041   -1.1556   -1.1200 H   0  0  0  0  0  0  0  0  0  0  0  0
    1.1028   -2.0506    0.5229 H   0  0  0  0  0  0  0  0  0  0  0  0
   -0.4220   -0.4770    1.5588 H   0  0  0  0  0  0  0  0  0  0  0  0
   -1.8045   -1.5205   -0.5068 H   0  0  0  0  0  0  0  0  0  0  0  0
   -2.5005    1.1381    1.0107 H   0  0  0  0  0  0  0  0  0  0  0  0
   -3.6855   -0.1241    0.3661 H   0  0  0  0  0  0  0  0  0  0  0  0
   -1.6264    1.5569   -1.3076 H   0  0  0  0  0  0  0  0  0  0  0  0
   -2.7126    0.2481   -2.0169 H   0  0  0  0  0  0  0  0  0  0  0  0
  1  2  1  0
  2  3  1  0
  3  4  1  0
  4  5  1  0
  5  6  1  0
  6  7  1  0
  4  8  1  0
  8  2  1  0
  7  5  1  0
  1  9  1  0
  1 10  1  0
  1 11  1  0
  2 12  1  0
  3 13  1  0
  3 14  1  0
  4 15  1  0
  5 16  1  0
  6 17  1  0
  6 18  1  0
  7 19  1  0
  7 20  1  0
M  END
