
     RDKit          3D

 23 24  0  0  0  0  0  0  0  0999 V2000
   -2.7279   -0.7997    0.0638 C   0  0  0  0  0  0  0  0  0  0  0  0
   -1.4209   -0.3628    0.6554 C   0  0  0  0  0  0  0  0  0  0  0  0
   -1.1739    1.0880    0.3375 C   0  0  0  0  0  0  0  0  0  0  0  0
    0.3414    1.2706    0.3220 C   0  0  0  0  0  0  0  0  0  0  0  0
    0.8774   -0.1241    0.2482 C   0  0  0  0  0  0  0  0  0  0  0  0
    2.1131   -0.3201   -0.5912 C   0  0  0  0  0  0  0  0  0  0  0  0
    2.7193    0.2286    0.7037 C   0  0  0  0  0  0  0  0  0  0  0  0
    1.6643   -0.4345    1.3707 O   0  0  0  0  0  0  0  0  0  0  0  0
   -0.2574   -1.0553   -0.0190 C   0  0  0  0  0  0  0  0  0  0  0  0
   -3.5250   -0.1109    0.4367 H   0  0  0  0  0  0  0  0  0  0  0  0
   -2.6617   -0.6181   -1.0383 H   0  0  0  0  0  0  0  0  0  0  0  0
   -2.9647   -1.8475    0.3005 H   0  0  0  0  0  0  0  0  0  0  0  0
   -1.3246   -0.5292    1.7298 H   0  0  0  0  0  0  0  0  0  0  0  0
   -1.6127    1.3606   -0.6351 H   0  0  0  0  0  0  0  0  0  0  0  0
   -1.6448    1.6795    1.1577 H   0  0  0  0  0  0  0  0  0  0  0  0
    0.6785    1.9252   -0.4907 H   0  0  0  0  0  0  0  0  0  0  0  0
    0.6283    1.7666    1.2823 H   0  0  0  0  0  0  0  0  0  0  0  0
    2.2264    0.3133   -1.4659 H   0  0  0  0  0  0  0  0  0  0  0  0
    2.3020   -1.4072   -0.7174 H   0  0  0  0  0  0  0  0  0  0  0  0
    2.5859    1.3184    0.7325 H   0  0  0  0  0  0  0  0  0  0  0  0
    3.7130   -0.1777    0.8838 H   0  0  0  0  0  0  0  0  0  0  0  0
   -0.0770   -2.0721    0.3541 H   0  0  0  0  0  0  0  0  0  0  0  0
   -0.4589   -1.0918   -1.1203 H   0  0  0  0  0  0  0  0  0  0  0  0
  1  2  1  0
  2  3  1  0
  3  4  1  0
  4  5  1  0
  5  6  1  0
  6  7  1  0
  7  8  1  0
  5  9  1  0
  9  2  1  0
  8  5  1  0
  1 10  1  0
  1 11  1  0
  1 12  1  0
  2 13  1  0
  3 14  1  0
  3 15  1  0
  4 16  1  0
  4 17  1  0
  6 18  1  0
  6 19  1  0
  7 20  1  0
  7 21  1  0
  9 22  1  0
  9 23  1  0
M  END
