
     RDKit          3D

 21 23  0  0  0  0  0  0  0  0999 V2000
   -2.2796   -0.3038   -0.2551 C   0  0  0  0  0  0  0  0  0  0  0  0
   -0.9717   -0.5873    0.4059 C   0  0  0  0  0  0  0  0  0  0  0  0
    0.0281   -1.2736   -0.4760 C   0  0  0  0  0  0  0  0  0  0  0  0
    1.3584   -0.6627   -0.0469 C   0  0  0  0  0  0  0  0  0  0  0  0
    2.4444   -1.4717    0.1448 O   0  0  0  0  0  0  0  0  0  0  0  0
    1.4626    0.7726   -0.3889 C   0  0  0  0  0  0  0  0  0  0  0  0
    0.1201    1.4903   -0.5136 C   0  0  0  0  0  0  0  0  0  0  0  0
   -0.3261    0.7546    0.7464 C   0  0  0  0  0  0  0  0  0  0  0  0
    1.0939    0.3644    0.9608 C   0  0  0  0  0  0  0  0  0  0  0  0
   -2.9529   -1.1820   -0.3080 H   0  0  0  0  0  0  0  0  0  0  0  0
   -2.8133    0.4520    0.3631 H   0  0  0  0  0  0  0  0  0  0  0  0
   -2.1526    0.1288   -1.2491 H   0  0  0  0  0  0  0  0  0  0  0  0
   -1.0930   -1.1902    1.3169 H   0  0  0  0  0  0  0  0  0  0  0  0
    0.0092   -2.3564   -0.3882 H   0  0  0  0  0  0  0  0  0  0  0  0
   -0.1147   -0.9489   -1.5374 H   0  0  0  0  0  0  0  0  0  0  0  0
    3.2289   -0.9233    0.3011 H   0  0  0  0  0  0  0  0  0  0  0  0
    2.3785    1.2705   -0.6783 H   0  0  0  0  0  0  0  0  0  0  0  0
    0.1831    2.5754   -0.3305 H   0  0  0  0  0  0  0  0  0  0  0  0
   -0.4188    1.1994   -1.4240 H   0  0  0  0  0  0  0  0  0  0  0  0
   -0.8302    1.3496    1.4954 H   0  0  0  0  0  0  0  0  0  0  0  0
    1.6458    0.5425    1.8616 H   0  0  0  0  0  0  0  0  0  0  0  0
  1  2  1  0
  2  3  1  0
  3  4  1  0
  4  5  1  0
  4  6  1  0
  6  7  1  0
  7  8  1  0
  8  9  1  0
  8  2  1  0
  9  4  1  0
  9  6  1  0
  1 10  1  0
  1 11  1  0
  1 12  1  0
  2 13  1  0
  3 14  1  0
  3 15  1  0
  5 16  1  0
  6 17  1  0
  7 18  1  0
  7 19  1  0
  8 20  1  0
  9 21  1  0
M  END
