
     RDKit          3D

 23 24  0  0  0  0  0  0  0  0999 V2000
   -2.5894    0.8716   -0.0198 C   0  0  0  0  0  0  0  0  0  0  0  0
   -1.2729    0.3921    0.5203 C   0  0  0  0  0  0  0  0  0  0  0  0
   -1.1111   -1.0920    0.6612 C   0  0  0  0  0  0  0  0  0  0  0  0
   -0.0281   -1.1075   -0.3681 C   0  0  0  0  0  0  0  0  0  0  0  0
    1.3700   -1.2735    0.1005 C   0  0  0  0  0  0  0  0  0  0  0  0
    2.0755   -0.0370   -0.4268 C   0  0  0  0  0  0  0  0  0  0  0  0
    3.2037    0.2687    0.3076 O   0  0  0  0  0  0  0  0  0  0  0  0
    1.0459    1.0632   -0.2232 C   0  0  0  0  0  0  0  0  0  0  0  0
   -0.2313    0.3732   -0.5662 C   0  0  0  0  0  0  0  0  0  0  0  0
   -3.3387    0.0663   -0.1458 H   0  0  0  0  0  0  0  0  0  0  0  0
   -2.4704    1.3368   -1.0404 H   0  0  0  0  0  0  0  0  0  0  0  0
   -3.0116    1.6944    0.6101 H   0  0  0  0  0  0  0  0  0  0  0  0
   -1.0057    0.9037    1.4518 H   0  0  0  0  0  0  0  0  0  0  0  0
   -2.0437   -1.6149    0.3277 H   0  0  0  0  0  0  0  0  0  0  0  0
   -0.8360   -1.4277    1.6785 H   0  0  0  0  0  0  0  0  0  0  0  0
   -0.2670   -1.7548   -1.2191 H   0  0  0  0  0  0  0  0  0  0  0  0
    1.5031   -1.4100    1.1749 H   0  0  0  0  0  0  0  0  0  0  0  0
    1.8575   -2.1453   -0.4073 H   0  0  0  0  0  0  0  0  0  0  0  0
    2.3383   -0.1482   -1.4890 H   0  0  0  0  0  0  0  0  0  0  0  0
    3.0960    1.1256    0.7872 H   0  0  0  0  0  0  0  0  0  0  0  0
    1.2410    1.8894   -0.9477 H   0  0  0  0  0  0  0  0  0  0  0  0
    1.0880    1.4512    0.8122 H   0  0  0  0  0  0  0  0  0  0  0  0
   -0.6132    0.5746   -1.5787 H   0  0  0  0  0  0  0  0  0  0  0  0
  1  2  1  0
  2  3  1  0
  3  4  1  0
  4  5  1  0
  5  6  1  0
  6  7  1  0
  6  8  1  0
  8  9  1  0
  9  2  1  0
  9  4  1  0
  1 10  1  0
  1 11  1  0
  1 12  1  0
  2 13  1  0
  3 14  1  0
  3 15  1  0
  4 16  1  0
  5 17  1  0
  5 18  1  0
  6 19  1  0
  7 20  1  0
  8 21  1  0
  8 22  1  0
  9 23  1  0
M  END
