
     RDKit          3D

 23 24  0  0  0  0  0  0  0  0999 V2000
    2.6227    0.2276    0.1082 C   0  0  0  0  0  0  0  0  0  0  0  0
    1.2371    0.1240    0.6686 C   0  0  0  0  0  0  0  0  0  0  0  0
    0.7577   -1.3149    0.3973 C   0  0  0  0  0  0  0  0  0  0  0  0
   -0.2422   -0.9751   -0.6792 C   0  0  0  0  0  0  0  0  0  0  0  0
    0.4592    0.0046   -1.4256 O   0  0  0  0  0  0  0  0  0  0  0  0
    0.2940    0.8178   -0.2851 C   0  0  0  0  0  0  0  0  0  0  0  0
   -1.0424    0.1546   -0.1510 C   0  0  0  0  0  0  0  0  0  0  0  0
   -1.6231    0.0443    1.2088 C   0  0  0  0  0  0  0  0  0  0  0  0
   -1.9834    0.6823   -1.2254 C   0  0  0  0  0  0  0  0  0  0  0  0
    3.4207    0.0402    0.8259 H   0  0  0  0  0  0  0  0  0  0  0  0
    2.7000    1.2386   -0.3878 H   0  0  0  0  0  0  0  0  0  0  0  0
    2.7352   -0.4962   -0.7461 H   0  0  0  0  0  0  0  0  0  0  0  0
    1.1267    0.4089    1.7036 H   0  0  0  0  0  0  0  0  0  0  0  0
    1.5710   -1.9559    0.0656 H   0  0  0  0  0  0  0  0  0  0  0  0
    0.3202   -1.6828    1.3214 H   0  0  0  0  0  0  0  0  0  0  0  0
   -0.6986   -1.7667   -1.2322 H   0  0  0  0  0  0  0  0  0  0  0  0
    0.3610    1.8729   -0.4129 H   0  0  0  0  0  0  0  0  0  0  0  0
   -1.2459    0.7736    1.9451 H   0  0  0  0  0  0  0  0  0  0  0  0
   -1.5929   -0.9998    1.6217 H   0  0  0  0  0  0  0  0  0  0  0  0
   -2.7291    0.2637    1.1193 H   0  0  0  0  0  0  0  0  0  0  0  0
   -1.3523    0.7935   -2.1430 H   0  0  0  0  0  0  0  0  0  0  0  0
   -2.8472    0.0316   -1.3870 H   0  0  0  0  0  0  0  0  0  0  0  0
   -2.2483    1.7130   -0.9101 H   0  0  0  0  0  0  0  0  0  0  0  0
  1  2  1  0
  2  3  1  0
  3  4  1  0
  4  5  1  0
  5  6  1  0
  6  7  1  0
  7  8  1  0
  7  9  1  0
  6  2  1  0
  7  4  1  0
  1 10  1  0
  1 11  1  0
  1 12  1  0
  2 13  1  0
  3 14  1  0
  3 15  1  0
  4 16  1  0
  6 17  1  0
  8 18  1  0
  8 19  1  0
  8 20  1  0
  9 21  1  0
  9 22  1  0
  9 23  1  0
M  END
