
     RDKit          3D

 19 20  0  0  0  0  0  0  0  0999 V2000
   -0.9957   -1.4073   -0.4461 C   0  0  0  0  0  0  0  0  0  0  0  0
   -0.4279   -0.0221   -0.5914 C   0  0  0  0  0  0  0  0  0  0  0  0
   -0.8444    0.9127    0.5449 C   0  0  0  0  0  0  0  0  0  0  0  0
   -1.9555    1.8128    0.1475 C   0  0  0  0  0  0  0  0  0  0  0  0
   -3.0959    1.4042    0.1974 O   0  0  0  0  0  0  0  0  0  0  0  0
    0.4269    1.4802    0.4508 O   0  0  0  0  0  0  0  0  0  0  0  0
    0.8741    0.2598    0.0213 C   0  0  0  0  0  0  0  0  0  0  0  0
    2.1788   -0.0540   -0.4926 C   0  0  0  0  0  0  0  0  0  0  0  0
    1.6786   -0.6635    0.8008 C   0  0  0  0  0  0  0  0  0  0  0  0
   -0.2655   -2.1508   -0.1232 H   0  0  0  0  0  0  0  0  0  0  0  0
   -1.4187   -1.7400   -1.4310 H   0  0  0  0  0  0  0  0  0  0  0  0
   -1.8316   -1.3511    0.2715 H   0  0  0  0  0  0  0  0  0  0  0  0
   -0.6858    0.4530   -1.5462 H   0  0  0  0  0  0  0  0  0  0  0  0
   -0.9456    0.4213    1.5278 H   0  0  0  0  0  0  0  0  0  0  0  0
   -1.6849    2.8128   -0.1746 H   0  0  0  0  0  0  0  0  0  0  0  0
    3.0525    0.6197   -0.3429 H   0  0  0  0  0  0  0  0  0  0  0  0
    2.3176   -0.7205   -1.3750 H   0  0  0  0  0  0  0  0  0  0  0  0
    2.0972   -0.3019    1.7667 H   0  0  0  0  0  0  0  0  0  0  0  0
    1.5259   -1.7651    0.7942 H   0  0  0  0  0  0  0  0  0  0  0  0
  1  2  1  0
  2  3  1  0
  3  4  1  0
  4  5  2  0
  3  6  1  0
  6  7  1  0
  7  8  1  0
  8  9  1  0
  7  2  1  0
  9  7  1  0
  1 10  1  0
  1 11  1  0
  1 12  1  0
  2 13  1  0
  3 14  1  0
  4 15  1  0
  8 16  1  0
  8 17  1  0
  9 18  1  0
  9 19  1  0
M  END
