
     RDKit          3D

 20 21  0  0  0  0  0  0  0  0999 V2000
   -2.2234   -0.3091    0.5723 C   0  0  0  0  0  0  0  0  0  0  0  0
   -0.9112   -0.8388    0.1115 C   0  0  0  0  0  0  0  0  0  0  0  0
    0.3160   -0.1997    0.7838 C   0  0  0  0  0  0  0  0  0  0  0  0
    0.0284    1.2522    0.5690 C   0  0  0  0  0  0  0  0  0  0  0  0
   -0.4090    1.2284   -0.7796 O   0  0  0  0  0  0  0  0  0  0  0  0
   -0.3157   -0.0999   -1.1002 C   0  0  0  0  0  0  0  0  0  0  0  0
    1.0088   -0.5895   -0.4916 C   0  0  0  0  0  0  0  0  0  0  0  0
    2.1984    0.2050   -0.8922 C   0  0  0  0  0  0  0  0  0  0  0  0
   -2.1212    0.1189    1.5680 H   0  0  0  0  0  0  0  0  0  0  0  0
   -2.9362   -1.1716    0.6538 H   0  0  0  0  0  0  0  0  0  0  0  0
   -2.6866    0.3966   -0.1697 H   0  0  0  0  0  0  0  0  0  0  0  0
   -0.8213   -1.9227   -0.0452 H   0  0  0  0  0  0  0  0  0  0  0  0
    0.6271   -0.5785    1.7134 H   0  0  0  0  0  0  0  0  0  0  0  0
    0.9092    1.8745    0.7100 H   0  0  0  0  0  0  0  0  0  0  0  0
   -0.7837    1.6520    1.2051 H   0  0  0  0  0  0  0  0  0  0  0  0
   -0.5721   -0.4635   -2.0623 H   0  0  0  0  0  0  0  0  0  0  0  0
    1.1247   -1.6588   -0.6606 H   0  0  0  0  0  0  0  0  0  0  0  0
    2.4976   -0.1120   -1.9119 H   0  0  0  0  0  0  0  0  0  0  0  0
    3.0362   -0.0771   -0.2190 H   0  0  0  0  0  0  0  0  0  0  0  0
    2.0340    1.2936   -0.8891 H   0  0  0  0  0  0  0  0  0  0  0  0
  1  2  1  0
  2  3  1  0
  3  4  1  0
  4  5  1  0
  5  6  1  0
  6  7  1  0
  7  8  1  0
  6  2  1  0
  7  3  1  0
  1  9  1  0
  1 10  1  0
  1 11  1  0
  2 12  1  0
  3 13  1  0
  4 14  1  0
  4 15  1  0
  6 16  1  0
  7 17  1  0
  8 18  1  0
  8 19  1  0
  8 20  1  0
M  END
