
     RDKit          3D

 21 22  0  0  0  0  0  0  0  0999 V2000
    2.1633   -0.5207   -0.0130 C   0  0  0  0  0  0  0  0  0  0  0  0
    0.6756   -0.3857   -0.2184 C   0  0  0  0  0  0  0  0  0  0  0  0
   -0.0778   -0.5253    1.0898 C   0  0  0  0  0  0  0  0  0  0  0  0
   -0.2706   -1.8925    1.2967 O   0  0  0  0  0  0  0  0  0  0  0  0
   -1.4077    0.1308    0.7874 C   0  0  0  0  0  0  0  0  0  0  0  0
   -2.0271   -0.2409   -0.4945 C   0  0  0  0  0  0  0  0  0  0  0  0
   -1.2199    0.9791   -0.4331 C   0  0  0  0  0  0  0  0  0  0  0  0
    0.2653    0.9911   -0.6660 C   0  0  0  0  0  0  0  0  0  0  0  0
    0.6074    1.2908   -1.9564 O   0  0  0  0  0  0  0  0  0  0  0  0
    2.3444   -1.5523    0.3524 H   0  0  0  0  0  0  0  0  0  0  0  0
    2.5951    0.2576    0.6288 H   0  0  0  0  0  0  0  0  0  0  0  0
    2.6207   -0.4873   -1.0419 H   0  0  0  0  0  0  0  0  0  0  0  0
    0.3763   -1.1679   -0.9408 H   0  0  0  0  0  0  0  0  0  0  0  0
    0.4587   -0.0459    1.9208 H   0  0  0  0  0  0  0  0  0  0  0  0
   -0.0187   -2.1713    2.2142 H   0  0  0  0  0  0  0  0  0  0  0  0
   -1.9561    0.6332    1.6047 H   0  0  0  0  0  0  0  0  0  0  0  0
   -3.1224   -0.0947   -0.6839 H   0  0  0  0  0  0  0  0  0  0  0  0
   -1.6630   -1.1782   -0.9863 H   0  0  0  0  0  0  0  0  0  0  0  0
   -1.7268    1.9715   -0.5111 H   0  0  0  0  0  0  0  0  0  0  0  0
    0.7043    1.7128    0.0732 H   0  0  0  0  0  0  0  0  0  0  0  0
    0.6790    2.2959   -2.0227 H   0  0  0  0  0  0  0  0  0  0  0  0
  1  2  1  0
  2  3  1  0
  3  4  1  0
  3  5  1  0
  5  6  1  0
  6  7  1  0
  7  8  1  0
  8  9  1  0
  8  2  1  0
  7  5  1  0
  1 10  1  0
  1 11  1  0
  1 12  1  0
  2 13  1  0
  3 14  1  0
  4 15  1  0
  5 16  1  0
  6 17  1  0
  6 18  1  0
  7 19  1  0
  8 20  1  0
  9 21  1  0
M  END
