
     RDKit          3D

 23 23  0  0  0  0  0  0  0  0999 V2000
   -2.4643    0.2478   -0.2502 C   0  0  0  0  0  0  0  0  0  0  0  0
   -1.0297   -0.0301    0.2169 C   0  0  0  0  0  0  0  0  0  0  0  0
   -0.5837   -1.3514   -0.3812 C   0  0  0  0  0  0  0  0  0  0  0  0
    0.6373   -1.8883    0.3327 C   0  0  0  0  0  0  0  0  0  0  0  0
    1.8065   -1.1027   -0.1646 C   0  0  0  0  0  0  0  0  0  0  0  0
    2.0247    0.1962   -0.1135 C   0  0  0  0  0  0  0  0  0  0  0  0
    1.1222    1.2199    0.4738 C   0  0  0  0  0  0  0  0  0  0  0  0
    1.5970    2.4998    0.3444 O   0  0  0  0  0  0  0  0  0  0  0  0
   -0.1940    1.1268   -0.2904 C   0  0  0  0  0  0  0  0  0  0  0  0
   -3.1104   -0.6028   -0.0092 H   0  0  0  0  0  0  0  0  0  0  0  0
   -2.4423    0.4706   -1.3385 H   0  0  0  0  0  0  0  0  0  0  0  0
   -2.7599    1.1975    0.2469 H   0  0  0  0  0  0  0  0  0  0  0  0
   -1.0513   -0.0534    1.3258 H   0  0  0  0  0  0  0  0  0  0  0  0
   -0.2644   -1.1309   -1.4317 H   0  0  0  0  0  0  0  0  0  0  0  0
   -1.4006   -2.0886   -0.4176 H   0  0  0  0  0  0  0  0  0  0  0  0
    0.7762   -2.9556    0.1645 H   0  0  0  0  0  0  0  0  0  0  0  0
    0.4854   -1.6424    1.4226 H   0  0  0  0  0  0  0  0  0  0  0  0
    2.5779   -1.7104   -0.6332 H   0  0  0  0  0  0  0  0  0  0  0  0
    2.9448    0.5882   -0.5331 H   0  0  0  0  0  0  0  0  0  0  0  0
    0.8931    0.9362    1.5185 H   0  0  0  0  0  0  0  0  0  0  0  0
    1.2100    3.0682    1.0687 H   0  0  0  0  0  0  0  0  0  0  0  0
   -0.7687    2.0655   -0.1834 H   0  0  0  0  0  0  0  0  0  0  0  0
   -0.0057    0.9400   -1.3679 H   0  0  0  0  0  0  0  0  0  0  0  0
  1  2  1  0
  2  3  1  0
  3  4  1  0
  4  5  1  0
  5  6  2  0
  6  7  1  0
  7  8  1  0
  7  9  1  0
  9  2  1  0
  1 10  1  0
  1 11  1  0
  1 12  1  0
  2 13  1  0
  3 14  1  0
  3 15  1  0
  4 16  1  0
  4 17  1  0
  5 18  1  0
  6 19  1  0
  7 20  1  0
  8 21  1  0
  9 22  1  0
  9 23  1  0
M  END
