
     RDKit          3D

 23 23  0  0  0  0  0  0  0  0999 V2000
    2.4394   -0.6792    0.5760 C   0  0  0  0  0  0  0  0  0  0  0  0
    1.0124   -0.7588    0.0495 C   0  0  0  0  0  0  0  0  0  0  0  0
    0.7811   -0.0812   -1.2305 C   0  0  0  0  0  0  0  0  0  0  0  0
    0.1512    0.4314    0.0100 C   0  0  0  0  0  0  0  0  0  0  0  0
    0.7067    1.7869    0.4758 C   0  0  0  0  0  0  0  0  0  0  0  0
   -1.2852    0.2480    0.3224 C   0  0  0  0  0  0  0  0  0  0  0  0
   -1.9830    1.4792    0.2469 O   0  0  0  0  0  0  0  0  0  0  0  0
   -2.0338   -0.6948   -0.5559 C   0  0  0  0  0  0  0  0  0  0  0  0
   -1.5529   -1.9658   -0.6512 O   0  0  0  0  0  0  0  0  0  0  0  0
    2.9338   -1.6278    0.2838 H   0  0  0  0  0  0  0  0  0  0  0  0
    2.9945    0.1555    0.1312 H   0  0  0  0  0  0  0  0  0  0  0  0
    2.4669   -0.5972    1.6714 H   0  0  0  0  0  0  0  0  0  0  0  0
    0.5659   -1.7629    0.2883 H   0  0  0  0  0  0  0  0  0  0  0  0
    1.6113    0.4930   -1.6963 H   0  0  0  0  0  0  0  0  0  0  0  0
    0.1025   -0.4984   -2.0159 H   0  0  0  0  0  0  0  0  0  0  0  0
   -0.1045    2.4823    0.7604 H   0  0  0  0  0  0  0  0  0  0  0  0
    1.2392    2.2967   -0.3791 H   0  0  0  0  0  0  0  0  0  0  0  0
    1.3656    1.6648    1.3516 H   0  0  0  0  0  0  0  0  0  0  0  0
   -1.3830   -0.0832    1.3758 H   0  0  0  0  0  0  0  0  0  0  0  0
   -2.8528    1.2877    0.7210 H   0  0  0  0  0  0  0  0  0  0  0  0
   -3.0767   -0.7641   -0.1411 H   0  0  0  0  0  0  0  0  0  0  0  0
   -2.1682   -0.1891   -1.5486 H   0  0  0  0  0  0  0  0  0  0  0  0
   -1.9302   -2.6230   -0.0454 H   0  0  0  0  0  0  0  0  0  0  0  0
  1  2  1  0
  2  3  1  0
  3  4  1  0
  4  5  1  0
  4  6  1  0
  6  7  1  0
  6  8  1  0
  8  9  1  0
  4  2  1  0
  1 10  1  0
  1 11  1  0
  1 12  1  0
  2 13  1  0
  3 14  1  0
  3 15  1  0
  5 16  1  0
  5 17  1  0
  5 18  1  0
  6 19  1  0
  7 20  1  0
  8 21  1  0
  8 22  1  0
  9 23  1  0
M  END
