
     RDKit          3D

 22 22  0  0  0  0  0  0  0  0999 V2000
   -2.4325   -0.5957    0.4210 C   0  0  0  0  0  0  0  0  0  0  0  0
   -1.2090   -0.2976   -0.4086 C   0  0  0  0  0  0  0  0  0  0  0  0
   -0.0520   -1.0518    0.2108 C   0  0  0  0  0  0  0  0  0  0  0  0
    1.0718   -0.0689    0.3881 C   0  0  0  0  0  0  0  0  0  0  0  0
    2.3735   -0.7548    0.0937 C   0  0  0  0  0  0  0  0  0  0  0  0
    0.7237    1.0186   -0.5736 C   0  0  0  0  0  0  0  0  0  0  0  0
    1.3098    2.2284   -0.2612 O   0  0  0  0  0  0  0  0  0  0  0  0
   -0.7916    1.1410   -0.3572 C   0  0  0  0  0  0  0  0  0  0  0  0
   -2.1189   -0.5263    1.4857 H   0  0  0  0  0  0  0  0  0  0  0  0
   -3.3013    0.0148    0.1673 H   0  0  0  0  0  0  0  0  0  0  0  0
   -2.6706   -1.6771    0.2454 H   0  0  0  0  0  0  0  0  0  0  0  0
   -1.4077   -0.5673   -1.4464 H   0  0  0  0  0  0  0  0  0  0  0  0
    0.2457   -1.8684   -0.4762 H   0  0  0  0  0  0  0  0  0  0  0  0
   -0.3089   -1.4248    1.2339 H   0  0  0  0  0  0  0  0  0  0  0  0
    1.1258    0.3700    1.3982 H   0  0  0  0  0  0  0  0  0  0  0  0
    2.4975   -1.5522    0.8708 H   0  0  0  0  0  0  0  0  0  0  0  0
    3.2527   -0.1015    0.1721 H   0  0  0  0  0  0  0  0  0  0  0  0
    2.3278   -1.3149   -0.8768 H   0  0  0  0  0  0  0  0  0  0  0  0
    0.9186    0.7584   -1.6391 H   0  0  0  0  0  0  0  0  0  0  0  0
    0.6321    2.9179   -0.0597 H   0  0  0  0  0  0  0  0  0  0  0  0
   -1.1970    1.7155   -1.1942 H   0  0  0  0  0  0  0  0  0  0  0  0
   -0.9895    1.6366    0.6061 H   0  0  0  0  0  0  0  0  0  0  0  0
  1  2  1  0
  2  3  1  0
  3  4  1  0
  4  5  1  0
  4  6  1  0
  6  7  1  0
  6  8  1  0
  8  2  1  0
  1  9  1  0
  1 10  1  0
  1 11  1  0
  2 12  1  0
  3 13  1  0
  3 14  1  0
  4 15  1  0
  5 16  1  0
  5 17  1  0
  5 18  1  0
  6 19  1  0
  7 20  1  0
  8 21  1  0
  8 22  1  0
M  END
