
     RDKit          3D

 21 22  0  0  0  0  0  0  0  0999 V2000
   -1.9686   -0.9222    0.7612 C   0  0  0  0  0  0  0  0  0  0  0  0
   -0.8506    0.0902    0.6994 C   0  0  0  0  0  0  0  0  0  0  0  0
   -1.2150    1.2731   -0.1330 C   0  0  0  0  0  0  0  0  0  0  0  0
   -0.3861    1.3950   -1.1643 C   0  0  0  0  0  0  0  0  0  0  0  0
    0.6344    0.3491   -1.1904 C   0  0  0  0  0  0  0  0  0  0  0  0
    1.9471    0.6764   -0.5199 C   0  0  0  0  0  0  0  0  0  0  0  0
    1.6045   -0.2106    0.6373 C   0  0  0  0  0  0  0  0  0  0  0  0
    0.3031   -0.5310   -0.0164 C   0  0  0  0  0  0  0  0  0  0  0  0
    0.1338   -1.8444   -0.4361 O   0  0  0  0  0  0  0  0  0  0  0  0
   -2.9124   -0.3753    0.5064 H   0  0  0  0  0  0  0  0  0  0  0  0
   -1.7983   -1.7516    0.0398 H   0  0  0  0  0  0  0  0  0  0  0  0
   -2.0507   -1.3750    1.7551 H   0  0  0  0  0  0  0  0  0  0  0  0
   -0.6000    0.4606    1.7081 H   0  0  0  0  0  0  0  0  0  0  0  0
   -2.0501    1.9220    0.1035 H   0  0  0  0  0  0  0  0  0  0  0  0
   -0.4729    2.1912   -1.8975 H   0  0  0  0  0  0  0  0  0  0  0  0
    0.8239   -0.1598   -2.1487 H   0  0  0  0  0  0  0  0  0  0  0  0
    2.8547    0.2740   -1.0429 H   0  0  0  0  0  0  0  0  0  0  0  0
    2.0667    1.7461   -0.3086 H   0  0  0  0  0  0  0  0  0  0  0  0
    1.4993    0.3804    1.5892 H   0  0  0  0  0  0  0  0  0  0  0  0
    2.2246   -1.1046    0.7498 H   0  0  0  0  0  0  0  0  0  0  0  0
    0.2125   -2.4836    0.3076 H   0  0  0  0  0  0  0  0  0  0  0  0
  1  2  1  0
  2  3  1  0
  3  4  2  0
  4  5  1  0
  5  6  1  0
  6  7  1  0
  7  8  1  0
  8  9  1  0
  8  2  1  0
  8  5  1  0
  1 10  1  0
  1 11  1  0
  1 12  1  0
  2 13  1  0
  3 14  1  0
  4 15  1  0
  5 16  1  0
  6 17  1  0
  6 18  1  0
  7 19  1  0
  7 20  1  0
  9 21  1  0
M  END
