
     RDKit          3D

 23 24  0  0  0  0  0  0  0  0999 V2000
    2.6799    0.5434    0.1260 C   0  0  0  0  0  0  0  0  0  0  0  0
    1.2892    0.0534    0.3732 C   0  0  0  0  0  0  0  0  0  0  0  0
    0.2450    1.1427    0.1064 C   0  0  0  0  0  0  0  0  0  0  0  0
   -1.0246    0.3128    0.1253 C   0  0  0  0  0  0  0  0  0  0  0  0
   -1.9847    0.5365    1.2438 C   0  0  0  0  0  0  0  0  0  0  0  0
   -1.5430   -0.1258   -1.1718 C   0  0  0  0  0  0  0  0  0  0  0  0
   -0.6535   -1.0273   -0.3623 C   0  0  0  0  0  0  0  0  0  0  0  0
   -1.2214   -2.1847    0.1195 O   0  0  0  0  0  0  0  0  0  0  0  0
    0.8457   -0.9892   -0.6350 C   0  0  0  0  0  0  0  0  0  0  0  0
    2.8137    1.4704    0.7461 H   0  0  0  0  0  0  0  0  0  0  0  0
    2.8636    0.8503   -0.9128 H   0  0  0  0  0  0  0  0  0  0  0  0
    3.3839   -0.2032    0.5109 H   0  0  0  0  0  0  0  0  0  0  0  0
    1.2048   -0.3637    1.3737 H   0  0  0  0  0  0  0  0  0  0  0  0
    0.4467    1.5274   -0.9150 H   0  0  0  0  0  0  0  0  0  0  0  0
    0.2639    1.9341    0.8532 H   0  0  0  0  0  0  0  0  0  0  0  0
   -2.5970   -0.3320    1.5131 H   0  0  0  0  0  0  0  0  0  0  0  0
   -1.4805    0.9099    2.1728 H   0  0  0  0  0  0  0  0  0  0  0  0
   -2.6649    1.3824    0.9324 H   0  0  0  0  0  0  0  0  0  0  0  0
   -1.0871    0.3000   -2.1006 H   0  0  0  0  0  0  0  0  0  0  0  0
   -2.6128   -0.4356   -1.2615 H   0  0  0  0  0  0  0  0  0  0  0  0
   -1.4441   -2.7579   -0.6725 H   0  0  0  0  0  0  0  0  0  0  0  0
    0.9425   -0.5942   -1.6819 H   0  0  0  0  0  0  0  0  0  0  0  0
    1.3346   -1.9497   -0.4829 H   0  0  0  0  0  0  0  0  0  0  0  0
  1  2  1  0
  2  3  1  0
  3  4  1  0
  4  5  1  0
  4  6  1  0
  6  7  1  0
  7  8  1  0
  7  9  1  0
  9  2  1  0
  7  4  1  0
  1 10  1  0
  1 11  1  0
  1 12  1  0
  2 13  1  0
  3 14  1  0
  3 15  1  0
  5 16  1  0
  5 17  1  0
  5 18  1  0
  6 19  1  0
  6 20  1  0
  8 21  1  0
  9 22  1  0
  9 23  1  0
M  END
