
     RDKit          3D

 21 22  0  0  0  0  0  0  0  0999 V2000
   -2.5595    0.0236   -0.1599 C   0  0  0  0  0  0  0  0  0  0  0  0
   -1.2300   -0.0380   -0.8766 C   0  0  0  0  0  0  0  0  0  0  0  0
   -0.2668    1.0096   -0.4333 C   0  0  0  0  0  0  0  0  0  0  0  0
    0.7550    0.2455    0.3424 C   0  0  0  0  0  0  0  0  0  0  0  0
    2.2216    0.4619    0.0913 C   0  0  0  0  0  0  0  0  0  0  0  0
    2.4966    0.1502   -1.2375 O   0  0  0  0  0  0  0  0  0  0  0  0
    0.2670   -0.4800    1.5345 C   0  0  0  0  0  0  0  0  0  0  0  0
    0.3167   -1.1847    0.2626 C   0  0  0  0  0  0  0  0  0  0  0  0
   -0.6908   -1.2733   -0.6408 O   0  0  0  0  0  0  0  0  0  0  0  0
   -2.8466    1.0471    0.1374 H   0  0  0  0  0  0  0  0  0  0  0  0
   -2.5865   -0.6948    0.7105 H   0  0  0  0  0  0  0  0  0  0  0  0
   -3.3339   -0.3944   -0.8678 H   0  0  0  0  0  0  0  0  0  0  0  0
   -1.4401    0.1450   -1.9657 H   0  0  0  0  0  0  0  0  0  0  0  0
   -0.7751    1.7755    0.2211 H   0  0  0  0  0  0  0  0  0  0  0  0
    0.2266    1.5646   -1.2348 H   0  0  0  0  0  0  0  0  0  0  0  0
    2.7810   -0.2516    0.7312 H   0  0  0  0  0  0  0  0  0  0  0  0
    2.4840    1.5143    0.2837 H   0  0  0  0  0  0  0  0  0  0  0  0
    2.6927   -0.8185   -1.3297 H   0  0  0  0  0  0  0  0  0  0  0  0
   -0.6544   -0.0790    1.9941 H   0  0  0  0  0  0  0  0  0  0  0  0
    1.0386   -0.7379    2.2934 H   0  0  0  0  0  0  0  0  0  0  0  0
    1.1038   -1.9850    0.1437 H   0  0  0  0  0  0  0  0  0  0  0  0
  1  2  1  0
  2  3  1  0
  3  4  1  0
  4  5  1  0
  5  6  1  0
  4  7  1  0
  7  8  1  0
  8  9  1  0
  9  2  1  0
  8  4  1  0
  1 10  1  0
  1 11  1  0
  1 12  1  0
  2 13  1  0
  3 14  1  0
  3 15  1  0
  5 16  1  0
  5 17  1  0
  6 18  1  0
  7 19  1  0
  7 20  1  0
  8 21  1  0
M  END
