
     RDKit          3D

 18 19  0  0  0  0  0  0  0  0999 V2000
    2.3731   -0.2893    0.1437 C   0  0  0  0  0  0  0  0  0  0  0  0
    1.2135    0.4299   -0.4889 C   0  0  0  0  0  0  0  0  0  0  0  0
    0.1689    0.9495    0.4716 C   0  0  0  0  0  0  0  0  0  0  0  0
   -0.6229   -0.0847   -0.1797 C   0  0  0  0  0  0  0  0  0  0  0  0
   -1.9894    0.2150   -0.6807 C   0  0  0  0  0  0  0  0  0  0  0  0
   -2.2751   -1.1574   -0.4777 O   0  0  0  0  0  0  0  0  0  0  0  0
   -1.3922   -1.0614    0.6260 C   0  0  0  0  0  0  0  0  0  0  0  0
    0.3256   -0.5021   -1.0348 O   0  0  0  0  0  0  0  0  0  0  0  0
    3.3116    0.1678   -0.2419 H   0  0  0  0  0  0  0  0  0  0  0  0
    2.3128   -0.1434    1.2348 H   0  0  0  0  0  0  0  0  0  0  0  0
    2.4150   -1.3727   -0.1415 H   0  0  0  0  0  0  0  0  0  0  0  0
    1.4870    1.2137   -1.2383 H   0  0  0  0  0  0  0  0  0  0  0  0
    0.4279    0.8425    1.5462 H   0  0  0  0  0  0  0  0  0  0  0  0
   -0.2127    1.9812    0.2238 H   0  0  0  0  0  0  0  0  0  0  0  0
   -2.5915    0.7729    0.0878 H   0  0  0  0  0  0  0  0  0  0  0  0
   -2.0687    0.5605   -1.7049 H   0  0  0  0  0  0  0  0  0  0  0  0
   -1.9663   -0.5316    1.4410 H   0  0  0  0  0  0  0  0  0  0  0  0
   -0.9165   -1.9905    0.9227 H   0  0  0  0  0  0  0  0  0  0  0  0
  1  2  1  0
  2  3  1  0
  3  4  1  0
  4  5  1  0
  5  6  1  0
  6  7  1  0
  4  8  1  0
  8  2  1  0
  7  4  1  0
  1  9  1  0
  1 10  1  0
  1 11  1  0
  2 12  1  0
  3 13  1  0
  3 14  1  0
  5 15  1  0
  5 16  1  0
  7 17  1  0
  7 18  1  0
M  END
