
     RDKit          3D

 19 20  0  0  0  0  0  0  0  0999 V2000
    2.0515   -0.0701   -0.1806 C   0  0  0  0  0  0  0  0  0  0  0  0
    0.7530    0.1987    0.5022 C   0  0  0  0  0  0  0  0  0  0  0  0
    0.0981    1.4669    0.0660 C   0  0  0  0  0  0  0  0  0  0  0  0
   -1.0447    1.3180   -0.6700 O   0  0  0  0  0  0  0  0  0  0  0  0
   -1.7356    0.1378   -0.4326 C   0  0  0  0  0  0  0  0  0  0  0  0
   -0.8809   -1.0312   -0.9426 C   0  0  0  0  0  0  0  0  0  0  0  0
   -0.2238   -0.9528    0.4178 C   0  0  0  0  0  0  0  0  0  0  0  0
   -1.5158   -0.4009    0.9200 C   0  0  0  0  0  0  0  0  0  0  0  0
   -2.0427   -0.4479    2.0044 O   0  0  0  0  0  0  0  0  0  0  0  0
    2.3807   -1.1029   -0.0519 H   0  0  0  0  0  0  0  0  0  0  0  0
    2.8284    0.5699    0.3318 H   0  0  0  0  0  0  0  0  0  0  0  0
    2.0756    0.2747   -1.2481 H   0  0  0  0  0  0  0  0  0  0  0  0
    0.9791    0.3113    1.6028 H   0  0  0  0  0  0  0  0  0  0  0  0
   -0.1580    2.1406    0.9365 H   0  0  0  0  0  0  0  0  0  0  0  0
    0.8788    2.0582   -0.4978 H   0  0  0  0  0  0  0  0  0  0  0  0
   -2.7534    0.1467   -0.8188 H   0  0  0  0  0  0  0  0  0  0  0  0
   -1.5261   -1.9246   -0.9943 H   0  0  0  0  0  0  0  0  0  0  0  0
   -0.2628   -0.7986   -1.8026 H   0  0  0  0  0  0  0  0  0  0  0  0
    0.0984   -1.8940    0.8577 H   0  0  0  0  0  0  0  0  0  0  0  0
  1  2  1  0
  2  3  1  0
  3  4  1  0
  4  5  1  0
  5  6  1  0
  6  7  1  0
  7  8  1  0
  8  9  2  0
  7  2  1  0
  8  5  1  0
  1 10  1  0
  1 11  1  0
  1 12  1  0
  2 13  1  0
  3 14  1  0
  3 15  1  0
  5 16  1  0
  6 17  1  0
  6 18  1  0
  7 19  1  0
M  END
