
     RDKit          3D

 19 20  0  0  0  0  0  0  0  0999 V2000
   -2.1466   -0.6312   -0.5911 C   0  0  0  0  0  0  0  0  0  0  0  0
   -0.8894    0.1448   -0.4747 C   0  0  0  0  0  0  0  0  0  0  0  0
   -0.5658    0.7208    0.8812 C   0  0  0  0  0  0  0  0  0  0  0  0
    0.7762    1.3210    0.6209 C   0  0  0  0  0  0  0  0  0  0  0  0
    1.3843    0.3704   -0.0843 C   0  0  0  0  0  0  0  0  0  0  0  0
    2.7374    0.3602   -0.6236 C   0  0  0  0  0  0  0  0  0  0  0  0
    3.5334    1.3221   -0.4671 O   0  0  0  0  0  0  0  0  0  0  0  0
    0.3714   -0.6755   -0.1963 C   0  0  0  0  0  0  0  0  0  0  0  0
   -0.1557   -0.7074    1.2474 C   0  0  0  0  0  0  0  0  0  0  0  0
   -2.6366   -0.8720    0.3812 H   0  0  0  0  0  0  0  0  0  0  0  0
   -1.9984   -1.5301   -1.2277 H   0  0  0  0  0  0  0  0  0  0  0  0
   -2.8940    0.0032   -1.1385 H   0  0  0  0  0  0  0  0  0  0  0  0
   -0.7452    0.8229   -1.3303 H   0  0  0  0  0  0  0  0  0  0  0  0
   -1.2808    1.2206    1.4542 H   0  0  0  0  0  0  0  0  0  0  0  0
    1.1456    2.2901    0.9355 H   0  0  0  0  0  0  0  0  0  0  0  0
    3.1073   -0.4866   -1.1840 H   0  0  0  0  0  0  0  0  0  0  0  0
    0.5220   -1.5784   -0.6994 H   0  0  0  0  0  0  0  0  0  0  0  0
   -0.9676   -1.3993    1.4291 H   0  0  0  0  0  0  0  0  0  0  0  0
    0.7024   -0.6955    1.9246 H   0  0  0  0  0  0  0  0  0  0  0  0
  1  2  1  0
  2  3  1  0
  3  4  1  0
  4  5  2  0
  5  6  1  0
  6  7  2  0
  5  8  1  0
  8  9  1  0
  8  2  1  0
  9  3  1  0
  1 10  1  0
  1 11  1  0
  1 12  1  0
  2 13  1  0
  3 14  1  0
  4 15  1  0
  6 16  1  0
  8 17  1  0
  9 18  1  0
  9 19  1  0
M  END
