
     RDKit          3D

 21 22  0  0  0  0  0  0  0  0999 V2000
   -2.1493   -0.7554    0.2001 C   0  0  0  0  0  0  0  0  0  0  0  0
   -0.6339   -0.6223    0.0857 C   0  0  0  0  0  0  0  0  0  0  0  0
   -0.1591   -0.0203   -1.1783 C   0  0  0  0  0  0  0  0  0  0  0  0
   -0.8223    1.2560   -0.6806 C   0  0  0  0  0  0  0  0  0  0  0  0
   -0.0744    0.6778    0.5325 C   0  0  0  0  0  0  0  0  0  0  0  0
   -0.0610    1.1927    1.6759 O   0  0  0  0  0  0  0  0  0  0  0  0
    1.0195    0.4994   -0.4419 C   0  0  0  0  0  0  0  0  0  0  0  0
    2.1919   -0.3435   -0.1592 C   0  0  0  0  0  0  0  0  0  0  0  0
    1.9693   -1.4570    0.5973 O   0  0  0  0  0  0  0  0  0  0  0  0
   -2.3883   -1.7942    0.4946 H   0  0  0  0  0  0  0  0  0  0  0  0
   -2.6529   -0.6086   -0.7842 H   0  0  0  0  0  0  0  0  0  0  0  0
   -2.5842   -0.0840    0.9467 H   0  0  0  0  0  0  0  0  0  0  0  0
   -0.1776   -1.5013    0.5077 H   0  0  0  0  0  0  0  0  0  0  0  0
   -0.2134   -0.3752   -2.1120 H   0  0  0  0  0  0  0  0  0  0  0  0
   -0.3297    2.1714   -1.0142 H   0  0  0  0  0  0  0  0  0  0  0  0
   -1.9007    1.2711   -0.6032 H   0  0  0  0  0  0  0  0  0  0  0  0
   -0.7143    0.8491    2.3128 H   0  0  0  0  0  0  0  0  0  0  0  0
    1.2943    1.5354   -0.8474 H   0  0  0  0  0  0  0  0  0  0  0  0
    2.7069   -0.5730   -1.1298 H   0  0  0  0  0  0  0  0  0  0  0  0
    2.9629    0.3065    0.3691 H   0  0  0  0  0  0  0  0  0  0  0  0
    2.7164   -1.6246    1.2283 H   0  0  0  0  0  0  0  0  0  0  0  0
  1  2  1  0
  2  3  1  0
  3  4  1  0
  4  5  1  0
  5  6  1  0
  5  7  1  0
  7  8  1  0
  8  9  1  0
  5  2  1  0
  7  3  1  0
  1 10  1  0
  1 11  1  0
  1 12  1  0
  2 13  1  0
  3 14  1  0
  4 15  1  0
  4 16  1  0
  6 17  1  0
  7 18  1  0
  8 19  1  0
  8 20  1  0
  9 21  1  0
M  END
