
     RDKit          3D

 19 20  0  0  0  0  0  0  0  0999 V2000
    1.7658   -0.3492    0.6623 C   0  0  0  0  0  0  0  0  0  0  0  0
    0.8451   -0.0159   -0.4933 C   0  0  0  0  0  0  0  0  0  0  0  0
   -0.0869   -1.1385   -0.8351 C   0  0  0  0  0  0  0  0  0  0  0  0
    0.2219   -2.3167   -0.1764 O   0  0  0  0  0  0  0  0  0  0  0  0
   -1.2343   -0.3474   -0.2899 C   0  0  0  0  0  0  0  0  0  0  0  0
   -1.1836    0.2668    1.0595 C   0  0  0  0  0  0  0  0  0  0  0  0
   -0.3435    0.7960   -0.0233 C   0  0  0  0  0  0  0  0  0  0  0  0
   -0.5702    2.1370   -0.5690 C   0  0  0  0  0  0  0  0  0  0  0  0
   -0.1735    2.4775   -1.6680 O   0  0  0  0  0  0  0  0  0  0  0  0
    1.3611   -1.2193    1.2263 H   0  0  0  0  0  0  0  0  0  0  0  0
    1.8737    0.5458    1.3150 H   0  0  0  0  0  0  0  0  0  0  0  0
    2.7873   -0.5698    0.2424 H   0  0  0  0  0  0  0  0  0  0  0  0
    1.3411    0.4845   -1.3413 H   0  0  0  0  0  0  0  0  0  0  0  0
   -0.1552   -1.3038   -1.9244 H   0  0  0  0  0  0  0  0  0  0  0  0
   -0.4765   -2.6485    0.4188 H   0  0  0  0  0  0  0  0  0  0  0  0
   -2.1729   -0.2596   -0.8681 H   0  0  0  0  0  0  0  0  0  0  0  0
   -0.6312   -0.2537    1.8841 H   0  0  0  0  0  0  0  0  0  0  0  0
   -2.0566    0.8463    1.3638 H   0  0  0  0  0  0  0  0  0  0  0  0
   -1.1115    2.8684    0.0165 H   0  0  0  0  0  0  0  0  0  0  0  0
  1  2  1  0
  2  3  1  0
  3  4  1  0
  3  5  1  0
  5  6  1  0
  6  7  1  0
  7  8  1  0
  8  9  2  0
  7  2  1  0
  7  5  1  0
  1 10  1  0
  1 11  1  0
  1 12  1  0
  2 13  1  0
  3 14  1  0
  4 15  1  0
  5 16  1  0
  6 17  1  0
  6 18  1  0
  8 19  1  0
M  END
