
     RDKit          3D

 23 24  0  0  0  0  0  0  0  0999 V2000
   -0.3929    1.7605   -0.5644 C   0  0  0  0  0  0  0  0  0  0  0  0
   -0.0648    0.7313    0.4448 C   0  0  0  0  0  0  0  0  0  0  0  0
   -0.7773   -0.6169    0.2455 C   0  0  0  0  0  0  0  0  0  0  0  0
   -2.1724   -0.6285   -0.0742 C   0  0  0  0  0  0  0  0  0  0  0  0
   -0.2045   -1.3567    1.4027 C   0  0  0  0  0  0  0  0  0  0  0  0
    1.1665   -1.0244    1.2311 O   0  0  0  0  0  0  0  0  0  0  0  0
    1.1560   -0.1239    0.1852 C   0  0  0  0  0  0  0  0  0  0  0  0
    2.3724    0.4825   -0.2919 C   0  0  0  0  0  0  0  0  0  0  0  0
    0.2649   -0.8591   -0.8321 C   0  0  0  0  0  0  0  0  0  0  0  0
   -1.0982    2.4967   -0.0751 H   0  0  0  0  0  0  0  0  0  0  0  0
    0.4385    2.3545   -0.9451 H   0  0  0  0  0  0  0  0  0  0  0  0
   -0.9696    1.3727   -1.4387 H   0  0  0  0  0  0  0  0  0  0  0  0
   -0.0978    1.0491    1.4953 H   0  0  0  0  0  0  0  0  0  0  0  0
   -2.7851   -0.9996    0.7688 H   0  0  0  0  0  0  0  0  0  0  0  0
   -2.3810   -1.3052   -0.9346 H   0  0  0  0  0  0  0  0  0  0  0  0
   -2.5226    0.3782   -0.3836 H   0  0  0  0  0  0  0  0  0  0  0  0
   -0.3600   -2.4360    1.3876 H   0  0  0  0  0  0  0  0  0  0  0  0
   -0.4785   -0.9066    2.3861 H   0  0  0  0  0  0  0  0  0  0  0  0
    3.1958    0.3727    0.4416 H   0  0  0  0  0  0  0  0  0  0  0  0
    2.2646    1.5296   -0.5647 H   0  0  0  0  0  0  0  0  0  0  0  0
    2.7342   -0.0483   -1.2207 H   0  0  0  0  0  0  0  0  0  0  0  0
    0.5814   -1.9087   -0.8986 H   0  0  0  0  0  0  0  0  0  0  0  0
    0.1303   -0.3139   -1.7652 H   0  0  0  0  0  0  0  0  0  0  0  0
  1  2  1  0
  2  3  1  0
  3  4  1  0
  3  5  1  0
  5  6  1  0
  6  7  1  0
  7  8  1  0
  7  9  1  0
  7  2  1  0
  9  3  1  0
  1 10  1  0
  1 11  1  0
  1 12  1  0
  2 13  1  0
  4 14  1  0
  4 15  1  0
  4 16  1  0
  5 17  1  0
  5 18  1  0
  8 19  1  0
  8 20  1  0
  8 21  1  0
  9 22  1  0
  9 23  1  0
M  END
