
     RDKit          3D

 23 24  0  0  0  0  0  0  0  0999 V2000
   -1.1023   -0.2795    1.7603 C   0  0  0  0  0  0  0  0  0  0  0  0
   -0.8297    0.5947    0.5567 C   0  0  0  0  0  0  0  0  0  0  0  0
   -1.9749    0.4118   -0.4109 C   0  0  0  0  0  0  0  0  0  0  0  0
   -1.3483    0.5780   -1.7366 C   0  0  0  0  0  0  0  0  0  0  0  0
   -0.0501    0.4120   -1.6444 C   0  0  0  0  0  0  0  0  0  0  0  0
    0.3390    0.1184   -0.2578 C   0  0  0  0  0  0  0  0  0  0  0  0
    1.6671    0.7468    0.0897 C   0  0  0  0  0  0  0  0  0  0  0  0
    2.2881   -0.6455   -0.0797 C   0  0  0  0  0  0  0  0  0  0  0  0
    0.8955   -1.2129    0.0487 C   0  0  0  0  0  0  0  0  0  0  0  0
   -2.0953    0.0701    2.1700 H   0  0  0  0  0  0  0  0  0  0  0  0
   -1.2977   -1.3049    1.3843 H   0  0  0  0  0  0  0  0  0  0  0  0
   -0.3226   -0.2346    2.5240 H   0  0  0  0  0  0  0  0  0  0  0  0
   -0.7347    1.6374    0.9063 H   0  0  0  0  0  0  0  0  0  0  0  0
   -2.7980    1.1304   -0.2288 H   0  0  0  0  0  0  0  0  0  0  0  0
   -2.3428   -0.6512   -0.3173 H   0  0  0  0  0  0  0  0  0  0  0  0
   -1.9150    0.8136   -2.6837 H   0  0  0  0  0  0  0  0  0  0  0  0
    0.6461    0.4880   -2.5140 H   0  0  0  0  0  0  0  0  0  0  0  0
    1.7610    1.1648    1.0985 H   0  0  0  0  0  0  0  0  0  0  0  0
    2.0800    1.4353   -0.6637 H   0  0  0  0  0  0  0  0  0  0  0  0
    2.9622   -0.8316    0.7856 H   0  0  0  0  0  0  0  0  0  0  0  0
    2.7808   -0.7992   -1.0536 H   0  0  0  0  0  0  0  0  0  0  0  0
    0.6772   -1.6714    1.0231 H   0  0  0  0  0  0  0  0  0  0  0  0
    0.7143   -1.9705   -0.7567 H   0  0  0  0  0  0  0  0  0  0  0  0
  1  2  1  0
  2  3  1  0
  3  4  1  0
  4  5  2  0
  5  6  1  0
  6  7  1  0
  7  8  1  0
  8  9  1  0
  6  2  1  0
  9  6  1  0
  1 10  1  0
  1 11  1  0
  1 12  1  0
  2 13  1  0
  3 14  1  0
  3 15  1  0
  4 16  1  0
  5 17  1  0
  7 18  1  0
  7 19  1  0
  8 20  1  0
  8 21  1  0
  9 22  1  0
  9 23  1  0
M  END
