
     RDKit          3D

 25 26  0  0  0  0  0  0  0  0999 V2000
    2.7320    0.7107   -0.0279 C   0  0  0  0  0  0  0  0  0  0  0  0
    1.5435   -0.0410    0.5608 C   0  0  0  0  0  0  0  0  0  0  0  0
    1.3723   -1.3175   -0.2086 C   0  0  0  0  0  0  0  0  0  0  0  0
    0.0122   -1.2662   -0.8674 C   0  0  0  0  0  0  0  0  0  0  0  0
   -0.7214   -0.1327   -0.2474 C   0  0  0  0  0  0  0  0  0  0  0  0
   -1.5925    0.6196   -1.2646 C   0  0  0  0  0  0  0  0  0  0  0  0
   -2.5743    0.8291   -0.1075 C   0  0  0  0  0  0  0  0  0  0  0  0
   -1.9804   -0.4496    0.4980 C   0  0  0  0  0  0  0  0  0  0  0  0
    0.2702    0.7473    0.4294 C   0  0  0  0  0  0  0  0  0  0  0  0
    3.5342   -0.0221   -0.2338 H   0  0  0  0  0  0  0  0  0  0  0  0
    2.3929    1.1064   -1.0198 H   0  0  0  0  0  0  0  0  0  0  0  0
    3.0534    1.5454    0.6246 H   0  0  0  0  0  0  0  0  0  0  0  0
    1.7214   -0.3138    1.6204 H   0  0  0  0  0  0  0  0  0  0  0  0
    2.1466   -1.4586   -1.0028 H   0  0  0  0  0  0  0  0  0  0  0  0
    1.4427   -2.2276    0.4348 H   0  0  0  0  0  0  0  0  0  0  0  0
   -0.4794   -2.2430   -0.7983 H   0  0  0  0  0  0  0  0  0  0  0  0
    0.1312   -1.0465   -1.9547 H   0  0  0  0  0  0  0  0  0  0  0  0
   -1.0581    1.5091   -1.5889 H   0  0  0  0  0  0  0  0  0  0  0  0
   -1.9495   -0.0855   -2.0267 H   0  0  0  0  0  0  0  0  0  0  0  0
   -3.6320    0.7407   -0.3810 H   0  0  0  0  0  0  0  0  0  0  0  0
   -2.3320    1.7226    0.4861 H   0  0  0  0  0  0  0  0  0  0  0  0
   -1.9614   -0.3710    1.5864 H   0  0  0  0  0  0  0  0  0  0  0  0
   -2.4903   -1.3427    0.0841 H   0  0  0  0  0  0  0  0  0  0  0  0
   -0.0768    1.1792    1.3865 H   0  0  0  0  0  0  0  0  0  0  0  0
    0.4954    1.6076   -0.2506 H   0  0  0  0  0  0  0  0  0  0  0  0
  1  2  1  0
  2  3  1  0
  3  4  1  0
  4  5  1  0
  5  6  1  0
  6  7  1  0
  7  8  1  0
  5  9  1  0
  9  2  1  0
  8  5  1  0
  1 10  1  0
  1 11  1  0
  1 12  1  0
  2 13  1  0
  3 14  1  0
  3 15  1  0
  4 16  1  0
  4 17  1  0
  6 18  1  0
  6 19  1  0
  7 20  1  0
  7 21  1  0
  8 22  1  0
  8 23  1  0
  9 24  1  0
  9 25  1  0
M  END
