
     RDKit          3D

 21 22  0  0  0  0  0  0  0  0999 V2000
    2.1101   -0.6201   -0.5171 C   0  0  0  0  0  0  0  0  0  0  0  0
    1.4151    0.4445    0.3055 C   0  0  0  0  0  0  0  0  0  0  0  0
    0.9458   -0.0354    1.6075 C   0  0  0  0  0  0  0  0  0  0  0  0
   -0.3538   -0.3048    1.6037 C   0  0  0  0  0  0  0  0  0  0  0  0
   -0.8807   -0.0148    0.2423 C   0  0  0  0  0  0  0  0  0  0  0  0
   -1.7228   -0.9842   -0.4465 C   0  0  0  0  0  0  0  0  0  0  0  0
   -2.2993    0.3124    0.0149 C   0  0  0  0  0  0  0  0  0  0  0  0
    0.1424    0.8379   -0.4418 C   0  0  0  0  0  0  0  0  0  0  0  0
    0.2409    0.6314   -1.7973 O   0  0  0  0  0  0  0  0  0  0  0  0
    1.3657   -1.4221   -0.6880 H   0  0  0  0  0  0  0  0  0  0  0  0
    2.9958   -0.9621    0.0341 H   0  0  0  0  0  0  0  0  0  0  0  0
    2.3707   -0.1406   -1.4885 H   0  0  0  0  0  0  0  0  0  0  0  0
    2.0797    1.3098    0.4336 H   0  0  0  0  0  0  0  0  0  0  0  0
    1.5623   -0.1645    2.4845 H   0  0  0  0  0  0  0  0  0  0  0  0
   -0.9781   -0.6736    2.4179 H   0  0  0  0  0  0  0  0  0  0  0  0
   -2.0617   -1.8641    0.1757 H   0  0  0  0  0  0  0  0  0  0  0  0
   -1.6311   -1.1960   -1.5234 H   0  0  0  0  0  0  0  0  0  0  0  0
   -2.5192    1.0599   -0.8018 H   0  0  0  0  0  0  0  0  0  0  0  0
   -2.9161    0.3728    0.9356 H   0  0  0  0  0  0  0  0  0  0  0  0
   -0.1152    1.9140   -0.2505 H   0  0  0  0  0  0  0  0  0  0  0  0
    0.2495    1.4996   -2.3004 H   0  0  0  0  0  0  0  0  0  0  0  0
  1  2  1  0
  2  3  1  0
  3  4  2  0
  4  5  1  0
  5  6  1  0
  6  7  1  0
  5  8  1  0
  8  9  1  0
  8  2  1  0
  7  5  1  0
  1 10  1  0
  1 11  1  0
  1 12  1  0
  2 13  1  0
  3 14  1  0
  4 15  1  0
  6 16  1  0
  6 17  1  0
  7 18  1  0
  7 19  1  0
  8 20  1  0
  9 21  1  0
M  END
