
     RDKit          3D

 19 20  0  0  0  0  0  0  0  0999 V2000
   -1.7655   -0.7752    0.3698 C   0  0  0  0  0  0  0  0  0  0  0  0
   -0.9495    0.4686    0.2937 C   0  0  0  0  0  0  0  0  0  0  0  0
   -1.0643    1.0905   -1.1002 C   0  0  0  0  0  0  0  0  0  0  0  0
    0.3266    1.3063   -1.1314 O   0  0  0  0  0  0  0  0  0  0  0  0
    0.4515    0.3792   -0.1354 C   0  0  0  0  0  0  0  0  0  0  0  0
    1.0289   -0.9483   -0.4732 C   0  0  0  0  0  0  0  0  0  0  0  0
    2.2691   -0.5356    0.2824 C   0  0  0  0  0  0  0  0  0  0  0  0
    3.4074   -0.9196    0.3901 O   0  0  0  0  0  0  0  0  0  0  0  0
    1.5136    0.6163    0.8996 C   0  0  0  0  0  0  0  0  0  0  0  0
   -1.2776   -1.6257    0.8563 H   0  0  0  0  0  0  0  0  0  0  0  0
   -2.1700   -1.0767   -0.6326 H   0  0  0  0  0  0  0  0  0  0  0  0
   -2.6811   -0.5354    0.9766 H   0  0  0  0  0  0  0  0  0  0  0  0
   -1.0872    1.2100    1.1105 H   0  0  0  0  0  0  0  0  0  0  0  0
   -1.3640    0.3616   -1.8616 H   0  0  0  0  0  0  0  0  0  0  0  0
   -1.6807    1.9852   -1.0426 H   0  0  0  0  0  0  0  0  0  0  0  0
    0.5518   -1.8206   -0.0291 H   0  0  0  0  0  0  0  0  0  0  0  0
    1.3197   -1.1082   -1.5419 H   0  0  0  0  0  0  0  0  0  0  0  0
    2.0417    1.5766    0.8604 H   0  0  0  0  0  0  0  0  0  0  0  0
    1.1296    0.3511    1.9086 H   0  0  0  0  0  0  0  0  0  0  0  0
  1  2  1  0
  2  3  1  0
  3  4  1  0
  4  5  1  0
  5  6  1  0
  6  7  1  0
  7  8  2  0
  7  9  1  0
  5  2  1  0
  9  5  1  0
  1 10  1  0
  1 11  1  0
  1 12  1  0
  2 13  1  0
  3 14  1  0
  3 15  1  0
  6 16  1  0
  6 17  1  0
  9 18  1  0
  9 19  1  0
M  END
