
     RDKit          3D

 21 22  0  0  0  0  0  0  0  0999 V2000
    1.8507    1.4454   -0.0325 C   0  0  0  0  0  0  0  0  0  0  0  0
    0.9232    0.2981   -0.2453 C   0  0  0  0  0  0  0  0  0  0  0  0
    1.6902   -0.9790    0.1586 C   0  0  0  0  0  0  0  0  0  0  0  0
    0.8129   -1.6662    1.0434 O   0  0  0  0  0  0  0  0  0  0  0  0
   -0.3793   -1.3482    0.4706 C   0  0  0  0  0  0  0  0  0  0  0  0
   -1.4231   -0.4566    0.7508 C   0  0  0  0  0  0  0  0  0  0  0  0
   -2.4366   -0.0931   -0.3429 C   0  0  0  0  0  0  0  0  0  0  0  0
   -1.7793    0.4998   -1.4295 O   0  0  0  0  0  0  0  0  0  0  0  0
   -0.1879    0.2039    0.7276 C   0  0  0  0  0  0  0  0  0  0  0  0
    2.6055    1.4245   -0.8607 H   0  0  0  0  0  0  0  0  0  0  0  0
    2.4258    1.2722    0.9054 H   0  0  0  0  0  0  0  0  0  0  0  0
    1.3484    2.4256    0.0417 H   0  0  0  0  0  0  0  0  0  0  0  0
    0.5356    0.2159   -1.2742 H   0  0  0  0  0  0  0  0  0  0  0  0
    2.6388   -0.7433    0.6368 H   0  0  0  0  0  0  0  0  0  0  0  0
    1.8018   -1.5904   -0.7628 H   0  0  0  0  0  0  0  0  0  0  0  0
   -0.3226   -1.6702   -0.6172 H   0  0  0  0  0  0  0  0  0  0  0  0
   -1.9776   -0.5814    1.7259 H   0  0  0  0  0  0  0  0  0  0  0  0
   -3.2457    0.5274    0.0532 H   0  0  0  0  0  0  0  0  0  0  0  0
   -2.8960   -1.0314   -0.7199 H   0  0  0  0  0  0  0  0  0  0  0  0
   -2.2178    1.3805   -1.5640 H   0  0  0  0  0  0  0  0  0  0  0  0
    0.2328    0.4666    1.7511 H   0  0  0  0  0  0  0  0  0  0  0  0
  1  2  1  0
  2  3  1  0
  3  4  1  0
  4  5  1  0
  5  6  1  0
  6  7  1  0
  7  8  1  0
  6  9  1  0
  9  2  1  0
  9  5  1  0
  1 10  1  0
  1 11  1  0
  1 12  1  0
  2 13  1  0
  3 14  1  0
  3 15  1  0
  5 16  1  0
  6 17  1  0
  7 18  1  0
  7 19  1  0
  8 20  1  0
  9 21  1  0
M  END
