
     RDKit          3D

 21 22  0  0  0  0  0  0  0  0999 V2000
    2.7821    0.6899    0.1358 C   0  0  0  0  0  0  0  0  0  0  0  0
    1.4925    0.1634   -0.4894 C   0  0  0  0  0  0  0  0  0  0  0  0
    1.0336   -1.1318    0.1370 C   0  0  0  0  0  0  0  0  0  0  0  0
    0.3036    0.2093    0.3468 C   0  0  0  0  0  0  0  0  0  0  0  0
   -1.1068    0.1693   -0.1528 C   0  0  0  0  0  0  0  0  0  0  0  0
   -1.5730    1.2308   -1.0968 C   0  0  0  0  0  0  0  0  0  0  0  0
   -0.7981    1.9235   -1.7186 O   0  0  0  0  0  0  0  0  0  0  0  0
   -1.8572   -1.1473   -0.1722 C   0  0  0  0  0  0  0  0  0  0  0  0
   -2.1442   -0.1938    0.9277 C   0  0  0  0  0  0  0  0  0  0  0  0
    3.6470    0.0651   -0.1624 H   0  0  0  0  0  0  0  0  0  0  0  0
    2.8952    1.7553   -0.0945 H   0  0  0  0  0  0  0  0  0  0  0  0
    2.7016    0.6051    1.2373 H   0  0  0  0  0  0  0  0  0  0  0  0
    1.4651    0.3019   -1.5781 H   0  0  0  0  0  0  0  0  0  0  0  0
    1.5375   -1.5172    1.0443 H   0  0  0  0  0  0  0  0  0  0  0  0
    0.6450   -1.8479   -0.5877 H   0  0  0  0  0  0  0  0  0  0  0  0
    0.3892    0.6665    1.3560 H   0  0  0  0  0  0  0  0  0  0  0  0
   -2.6293    1.4135   -1.2541 H   0  0  0  0  0  0  0  0  0  0  0  0
   -1.2608   -2.0385    0.1055 H   0  0  0  0  0  0  0  0  0  0  0  0
   -2.6742   -1.3198   -0.8747 H   0  0  0  0  0  0  0  0  0  0  0  0
   -1.7659   -0.4029    1.9473 H   0  0  0  0  0  0  0  0  0  0  0  0
   -3.0831    0.4057    0.9434 H   0  0  0  0  0  0  0  0  0  0  0  0
  1  2  1  0
  2  3  1  0
  3  4  1  0
  4  5  1  0
  5  6  1  0
  6  7  2  0
  5  8  1  0
  8  9  1  0
  4  2  1  0
  9  5  1  0
  1 10  1  0
  1 11  1  0
  1 12  1  0
  2 13  1  0
  3 14  1  0
  3 15  1  0
  4 16  1  0
  6 17  1  0
  8 18  1  0
  8 19  1  0
  9 20  1  0
  9 21  1  0
M  END
