
     RDKit          3D

 19 20  0  0  0  0  0  0  0  0999 V2000
    1.9201    0.8220    0.2710 C   0  0  0  0  0  0  0  0  0  0  0  0
    1.1429   -0.4431   -0.0335 C   0  0  0  0  0  0  0  0  0  0  0  0
    0.4560   -0.9696    1.1727 C   0  0  0  0  0  0  0  0  0  0  0  0
   -0.8339   -0.6746    1.1409 C   0  0  0  0  0  0  0  0  0  0  0  0
   -1.1516    0.0734   -0.0750 C   0  0  0  0  0  0  0  0  0  0  0  0
   -2.3401    0.6824   -0.3256 C   0  0  0  0  0  0  0  0  0  0  0  0
   -1.2817    1.5289    0.2925 O   0  0  0  0  0  0  0  0  0  0  0  0
    0.0019   -0.1108   -0.9960 C   0  0  0  0  0  0  0  0  0  0  0  0
   -0.2094   -1.2265   -1.8058 O   0  0  0  0  0  0  0  0  0  0  0  0
    1.9164    1.4773   -0.6306 H   0  0  0  0  0  0  0  0  0  0  0  0
    2.9720    0.5894    0.5611 H   0  0  0  0  0  0  0  0  0  0  0  0
    1.4705    1.3905    1.1139 H   0  0  0  0  0  0  0  0  0  0  0  0
    1.8102   -1.1927   -0.4847 H   0  0  0  0  0  0  0  0  0  0  0  0
    0.9486   -1.5164    1.9615 H   0  0  0  0  0  0  0  0  0  0  0  0
   -1.5309   -0.9557    1.9118 H   0  0  0  0  0  0  0  0  0  0  0  0
   -2.5822    1.1992   -1.2971 H   0  0  0  0  0  0  0  0  0  0  0  0
   -3.2388    0.5935    0.3126 H   0  0  0  0  0  0  0  0  0  0  0  0
    0.2278    0.7567   -1.6281 H   0  0  0  0  0  0  0  0  0  0  0  0
    0.3023   -2.0240   -1.4616 H   0  0  0  0  0  0  0  0  0  0  0  0
  1  2  1  0
  2  3  1  0
  3  4  2  0
  4  5  1  0
  5  6  1  0
  6  7  1  0
  5  8  1  0
  8  9  1  0
  8  2  1  0
  7  5  1  0
  1 10  1  0
  1 11  1  0
  1 12  1  0
  2 13  1  0
  3 14  1  0
  4 15  1  0
  6 16  1  0
  6 17  1  0
  8 18  1  0
  9 19  1  0
M  END
