
     RDKit          3D

 21 23  0  0  0  0  0  0  0  0999 V2000
    2.0569   -0.8768   -0.3020 C   0  0  0  0  0  0  0  0  0  0  0  0
    0.9323   -0.1282    0.3096 C   0  0  0  0  0  0  0  0  0  0  0  0
   -0.3561   -0.9057    0.3993 C   0  0  0  0  0  0  0  0  0  0  0  0
   -1.2089   -0.2195    1.4587 C   0  0  0  0  0  0  0  0  0  0  0  0
   -1.0764    1.1323    1.3896 O   0  0  0  0  0  0  0  0  0  0  0  0
   -0.7041    1.6723    0.2118 C   0  0  0  0  0  0  0  0  0  0  0  0
   -0.8187    0.9075   -1.0082 C   0  0  0  0  0  0  0  0  0  0  0  0
   -1.0230   -0.5544   -0.9137 C   0  0  0  0  0  0  0  0  0  0  0  0
    0.5353    1.1207   -0.4004 C   0  0  0  0  0  0  0  0  0  0  0  0
    1.7815   -1.5406   -1.1336 H   0  0  0  0  0  0  0  0  0  0  0  0
    2.8197   -0.1499   -0.6666 H   0  0  0  0  0  0  0  0  0  0  0  0
    2.5643   -1.4568    0.5242 H   0  0  0  0  0  0  0  0  0  0  0  0
    1.2124    0.1479    1.3632 H   0  0  0  0  0  0  0  0  0  0  0  0
   -0.2291   -1.9703    0.5654 H   0  0  0  0  0  0  0  0  0  0  0  0
   -2.2933   -0.4860    1.2953 H   0  0  0  0  0  0  0  0  0  0  0  0
   -0.8957   -0.6567    2.4309 H   0  0  0  0  0  0  0  0  0  0  0  0
   -0.9184    2.7787    0.1226 H   0  0  0  0  0  0  0  0  0  0  0  0
   -1.0418    1.3924   -1.9694 H   0  0  0  0  0  0  0  0  0  0  0  0
   -0.5035   -1.0433   -1.7655 H   0  0  0  0  0  0  0  0  0  0  0  0
   -2.0713   -0.8935   -0.9455 H   0  0  0  0  0  0  0  0  0  0  0  0
    1.2380    1.7299   -0.9654 H   0  0  0  0  0  0  0  0  0  0  0  0
  1  2  1  0
  2  3  1  0
  3  4  1  0
  4  5  1  0
  5  6  1  0
  6  7  1  0
  7  8  1  0
  7  9  1  0
  9  2  1  0
  8  3  1  0
  9  6  1  0
  1 10  1  0
  1 11  1  0
  1 12  1  0
  2 13  1  0
  3 14  1  0
  4 15  1  0
  4 16  1  0
  6 17  1  0
  7 18  1  0
  8 19  1  0
  8 20  1  0
  9 21  1  0
M  END
