
     RDKit          3D

 19 19  0  0  0  0  0  0  0  0999 V2000
   -1.8700   -0.7993    0.4681 C   0  0  0  0  0  0  0  0  0  0  0  0
   -0.7309    0.1578    0.5753 C   0  0  0  0  0  0  0  0  0  0  0  0
   -1.1033    1.5587    0.0900 C   0  0  0  0  0  0  0  0  0  0  0  0
    0.1627    1.6340   -0.5259 O   0  0  0  0  0  0  0  0  0  0  0  0
    0.0804    0.2504   -0.6968 C   0  0  0  0  0  0  0  0  0  0  0  0
    1.4462   -0.3743   -0.6338 C   0  0  0  0  0  0  0  0  0  0  0  0
    1.4294   -1.7383   -0.7959 O   0  0  0  0  0  0  0  0  0  0  0  0
    2.1250    0.0176    0.6517 C   0  0  0  0  0  0  0  0  0  0  0  0
    2.2398    1.1867    0.9750 O   0  0  0  0  0  0  0  0  0  0  0  0
   -2.6287   -0.4526   -0.2680 H   0  0  0  0  0  0  0  0  0  0  0  0
   -1.5566   -1.8110    0.1271 H   0  0  0  0  0  0  0  0  0  0  0  0
   -2.3551   -0.8566    1.4748 H   0  0  0  0  0  0  0  0  0  0  0  0
   -0.1784    0.1986    1.5092 H   0  0  0  0  0  0  0  0  0  0  0  0
   -1.8979    1.5305   -0.6599 H   0  0  0  0  0  0  0  0  0  0  0  0
   -1.2577    2.2741    0.8949 H   0  0  0  0  0  0  0  0  0  0  0  0
   -0.5096   -0.0823   -1.5507 H   0  0  0  0  0  0  0  0  0  0  0  0
    2.0595    0.0745   -1.4447 H   0  0  0  0  0  0  0  0  0  0  0  0
    2.0083   -2.0554   -1.5293 H   0  0  0  0  0  0  0  0  0  0  0  0
    2.5369   -0.7131    1.3388 H   0  0  0  0  0  0  0  0  0  0  0  0
  1  2  1  0
  2  3  1  0
  3  4  1  0
  4  5  1  0
  5  6  1  0
  6  7  1  0
  6  8  1  0
  8  9  2  0
  5  2  1  0
  1 10  1  0
  1 11  1  0
  1 12  1  0
  2 13  1  0
  3 14  1  0
  3 15  1  0
  5 16  1  0
  6 17  1  0
  7 18  1  0
  8 19  1  0
M  END
