
     RDKit          3D

 23 23  0  0  0  0  0  0  0  0999 V2000
   -1.0052   -1.0347   -1.6306 C   0  0  0  0  0  0  0  0  0  0  0  0
   -0.0725    0.0182   -1.0951 C   0  0  0  0  0  0  0  0  0  0  0  0
   -0.6163    0.7856    0.0835 C   0  0  0  0  0  0  0  0  0  0  0  0
   -1.9443    0.4198    0.6524 C   0  0  0  0  0  0  0  0  0  0  0  0
   -0.4102    2.1742   -0.0248 O   0  0  0  0  0  0  0  0  0  0  0  0
    0.5679   -0.0963    0.2160 C   0  0  0  0  0  0  0  0  0  0  0  0
    0.4655   -1.4070    0.9782 C   0  0  0  0  0  0  0  0  0  0  0  0
    1.8773    0.6277    0.4668 C   0  0  0  0  0  0  0  0  0  0  0  0
    2.8808    0.2044   -0.4092 O   0  0  0  0  0  0  0  0  0  0  0  0
   -1.7044   -0.5144   -2.3399 H   0  0  0  0  0  0  0  0  0  0  0  0
   -0.4992   -1.8475   -2.1693 H   0  0  0  0  0  0  0  0  0  0  0  0
   -1.6300   -1.4852   -0.8525 H   0  0  0  0  0  0  0  0  0  0  0  0
    0.4822    0.5656   -1.8963 H   0  0  0  0  0  0  0  0  0  0  0  0
   -2.2239    1.1609    1.4216 H   0  0  0  0  0  0  0  0  0  0  0  0
   -2.7013    0.5374   -0.1692 H   0  0  0  0  0  0  0  0  0  0  0  0
   -2.0121   -0.5869    1.0751 H   0  0  0  0  0  0  0  0  0  0  0  0
   -0.5253    2.6369    0.8216 H   0  0  0  0  0  0  0  0  0  0  0  0
    1.4726   -1.8772    0.9241 H   0  0  0  0  0  0  0  0  0  0  0  0
    0.2332   -1.2553    2.0398 H   0  0  0  0  0  0  0  0  0  0  0  0
   -0.2297   -2.1172    0.4947 H   0  0  0  0  0  0  0  0  0  0  0  0
    2.2577    0.4594    1.4862 H   0  0  0  0  0  0  0  0  0  0  0  0
    1.7652    1.7141    0.3238 H   0  0  0  0  0  0  0  0  0  0  0  0
    3.5717    0.9175   -0.3968 H   0  0  0  0  0  0  0  0  0  0  0  0
  1  2  1  0
  2  3  1  0
  3  4  1  0
  3  5  1  0
  3  6  1  0
  6  7  1  0
  6  8  1  0
  8  9  1  0
  6  2  1  0
  1 10  1  0
  1 11  1  0
  1 12  1  0
  2 13  1  0
  4 14  1  0
  4 15  1  0
  4 16  1  0
  5 17  1  0
  7 18  1  0
  7 19  1  0
  7 20  1  0
  8 21  1  0
  8 22  1  0
  9 23  1  0
M  END
