
     RDKit          3D

 18 18  0  0  0  0  0  0  0  0999 V2000
    1.5220   -0.7394    0.8447 C   0  0  0  0  0  0  0  0  0  0  0  0
    0.6336    0.3212    0.3037 C   0  0  0  0  0  0  0  0  0  0  0  0
    1.1049    0.9853   -0.9874 C   0  0  0  0  0  0  0  0  0  0  0  0
   -0.3161    1.0150   -1.3973 C   0  0  0  0  0  0  0  0  0  0  0  0
   -1.0100    1.7093   -2.0940 O   0  0  0  0  0  0  0  0  0  0  0  0
   -0.5125   -0.1938   -0.5681 C   0  0  0  0  0  0  0  0  0  0  0  0
   -1.8287   -0.2870    0.1502 C   0  0  0  0  0  0  0  0  0  0  0  0
   -1.6706   -1.1629    1.2187 O   0  0  0  0  0  0  0  0  0  0  0  0
    2.3497   -1.0401    0.1805 H   0  0  0  0  0  0  0  0  0  0  0  0
    0.9153   -1.6287    1.1738 H   0  0  0  0  0  0  0  0  0  0  0  0
    1.9763   -0.3468    1.7983 H   0  0  0  0  0  0  0  0  0  0  0  0
    0.2636    1.0749    1.0237 H   0  0  0  0  0  0  0  0  0  0  0  0
    1.6081    1.9433   -0.8672 H   0  0  0  0  0  0  0  0  0  0  0  0
    1.6626    0.2757   -1.6393 H   0  0  0  0  0  0  0  0  0  0  0  0
   -0.1972   -1.1086   -1.1064 H   0  0  0  0  0  0  0  0  0  0  0  0
   -2.5338   -0.8032   -0.5607 H   0  0  0  0  0  0  0  0  0  0  0  0
   -2.1995    0.7044    0.4362 H   0  0  0  0  0  0  0  0  0  0  0  0
   -1.7676   -0.7185    2.0909 H   0  0  0  0  0  0  0  0  0  0  0  0
  1  2  1  0
  2  3  1  0
  3  4  1  0
  4  5  2  0
  4  6  1  0
  6  7  1  0
  7  8  1  0
  6  2  1  0
  1  9  1  0
  1 10  1  0
  1 11  1  0
  2 12  1  0
  3 13  1  0
  3 14  1  0
  6 15  1  0
  7 16  1  0
  7 17  1  0
  8 18  1  0
M  END
