
     RDKit          3D

 23 24  0  0  0  0  0  0  0  0999 V2000
    2.0411   -0.9726    0.0826 C   0  0  0  0  0  0  0  0  0  0  0  0
    0.9760   -0.0459   -0.4310 C   0  0  0  0  0  0  0  0  0  0  0  0
    1.2040    1.3457    0.0837 C   0  0  0  0  0  0  0  0  0  0  0  0
    0.1163    2.1390    0.0742 C   0  0  0  0  0  0  0  0  0  0  0  0
   -1.1913    1.4585    0.2285 C   0  0  0  0  0  0  0  0  0  0  0  0
   -1.3660    0.4345   -0.8829 C   0  0  0  0  0  0  0  0  0  0  0  0
   -0.4098   -0.4518   -0.0742 C   0  0  0  0  0  0  0  0  0  0  0  0
   -0.7601   -1.8953   -0.1747 C   0  0  0  0  0  0  0  0  0  0  0  0
   -0.9440    0.2639    1.1602 C   0  0  0  0  0  0  0  0  0  0  0  0
    3.0239   -0.5421   -0.1951 H   0  0  0  0  0  0  0  0  0  0  0  0
    1.9669   -1.9465   -0.4178 H   0  0  0  0  0  0  0  0  0  0  0  0
    1.9698   -1.0083    1.1778 H   0  0  0  0  0  0  0  0  0  0  0  0
    1.0469    0.0459   -1.5538 H   0  0  0  0  0  0  0  0  0  0  0  0
    2.1702    1.6885    0.4370 H   0  0  0  0  0  0  0  0  0  0  0  0
    0.1895    3.2143   -0.0397 H   0  0  0  0  0  0  0  0  0  0  0  0
   -2.0521    2.0670    0.4673 H   0  0  0  0  0  0  0  0  0  0  0  0
   -2.3463   -0.0322   -0.9391 H   0  0  0  0  0  0  0  0  0  0  0  0
   -0.9559    0.7362   -1.8606 H   0  0  0  0  0  0  0  0  0  0  0  0
   -1.0496   -2.1141   -1.2224 H   0  0  0  0  0  0  0  0  0  0  0  0
   -1.6445   -2.0805    0.4945 H   0  0  0  0  0  0  0  0  0  0  0  0
    0.0414   -2.5433    0.1957 H   0  0  0  0  0  0  0  0  0  0  0  0
   -1.8766   -0.1930    1.4962 H   0  0  0  0  0  0  0  0  0  0  0  0
   -0.1498    0.4321    1.8935 H   0  0  0  0  0  0  0  0  0  0  0  0
  1  2  1  0
  2  3  1  0
  3  4  2  0
  4  5  1  0
  5  6  1  0
  6  7  1  0
  7  8  1  0
  7  9  1  0
  7  2  1  0
  9  5  1  0
  1 10  1  0
  1 11  1  0
  1 12  1  0
  2 13  1  0
  3 14  1  0
  4 15  1  0
  5 16  1  0
  6 17  1  0
  6 18  1  0
  8 19  1  0
  8 20  1  0
  8 21  1  0
  9 22  1  0
  9 23  1  0
M  END
