
     RDKit          3D

 21 22  0  0  0  0  0  0  0  0999 V2000
    2.0573   -0.4919   -0.5553 C   0  0  0  0  0  0  0  0  0  0  0  0
    1.1952   -0.1660    0.6190 C   0  0  0  0  0  0  0  0  0  0  0  0
    0.4094    1.1193    0.5054 C   0  0  0  0  0  0  0  0  0  0  0  0
    0.2140    1.5925   -0.7757 O   0  0  0  0  0  0  0  0  0  0  0  0
   -0.8228    0.4050    1.0192 C   0  0  0  0  0  0  0  0  0  0  0  0
   -2.0023    0.4557    0.1132 C   0  0  0  0  0  0  0  0  0  0  0  0
   -1.7719   -0.5802   -0.9204 C   0  0  0  0  0  0  0  0  0  0  0  0
   -0.7299   -1.2973   -0.5567 C   0  0  0  0  0  0  0  0  0  0  0  0
   -0.1196   -0.8962    0.6988 C   0  0  0  0  0  0  0  0  0  0  0  0
    2.1564   -1.5726   -0.7366 H   0  0  0  0  0  0  0  0  0  0  0  0
    1.7195   -0.0236   -1.4980 H   0  0  0  0  0  0  0  0  0  0  0  0
    3.0770   -0.0981   -0.3608 H   0  0  0  0  0  0  0  0  0  0  0  0
    1.7567   -0.1873    1.5704 H   0  0  0  0  0  0  0  0  0  0  0  0
    0.7103    1.9048    1.2246 H   0  0  0  0  0  0  0  0  0  0  0  0
    1.0260    2.0193   -1.1463 H   0  0  0  0  0  0  0  0  0  0  0  0
   -1.0175    0.5423    2.0992 H   0  0  0  0  0  0  0  0  0  0  0  0
   -2.9727    0.3431    0.6283 H   0  0  0  0  0  0  0  0  0  0  0  0
   -1.9705    1.4414   -0.4212 H   0  0  0  0  0  0  0  0  0  0  0  0
   -2.3818   -0.7200   -1.8445 H   0  0  0  0  0  0  0  0  0  0  0  0
   -0.3633   -2.1356   -1.1728 H   0  0  0  0  0  0  0  0  0  0  0  0
   -0.1695   -1.6546    1.5103 H   0  0  0  0  0  0  0  0  0  0  0  0
  1  2  1  0
  2  3  1  0
  3  4  1  0
  3  5  1  0
  5  6  1  0
  6  7  1  0
  7  8  2  0
  8  9  1  0
  9  2  1  0
  9  5  1  0
  1 10  1  0
  1 11  1  0
  1 12  1  0
  2 13  1  0
  3 14  1  0
  4 15  1  0
  5 16  1  0
  6 17  1  0
  6 18  1  0
  7 19  1  0
  8 20  1  0
  9 21  1  0
M  END
