
     RDKit          3D

 23 24  0  0  0  0  0  0  0  0999 V2000
    2.4482    0.3399   -0.3782 C   0  0  0  0  0  0  0  0  0  0  0  0
    1.1131    0.2844    0.3695 C   0  0  0  0  0  0  0  0  0  0  0  0
    0.7067   -1.1564    0.4433 C   0  0  0  0  0  0  0  0  0  0  0  0
   -0.7872   -1.3099    0.5803 C   0  0  0  0  0  0  0  0  0  0  0  0
   -1.3516   -0.8897   -0.7848 C   0  0  0  0  0  0  0  0  0  0  0  0
   -1.2887    0.5265   -0.2795 C   0  0  0  0  0  0  0  0  0  0  0  0
   -2.2920    1.3645   -0.6763 O   0  0  0  0  0  0  0  0  0  0  0  0
    0.0977    1.1132   -0.3488 C   0  0  0  0  0  0  0  0  0  0  0  0
   -1.4400   -0.0492    1.1364 C   0  0  0  0  0  0  0  0  0  0  0  0
    3.1340    1.0879    0.0714 H   0  0  0  0  0  0  0  0  0  0  0  0
    2.9389   -0.6628   -0.3534 H   0  0  0  0  0  0  0  0  0  0  0  0
    2.3015    0.6618   -1.4347 H   0  0  0  0  0  0  0  0  0  0  0  0
    1.3369    0.6874    1.3889 H   0  0  0  0  0  0  0  0  0  0  0  0
    1.2298   -1.7441    1.1916 H   0  0  0  0  0  0  0  0  0  0  0  0
    0.9706   -1.6120   -0.5565 H   0  0  0  0  0  0  0  0  0  0  0  0
   -1.1601   -2.2517    0.9662 H   0  0  0  0  0  0  0  0  0  0  0  0
   -2.4212   -1.1931   -0.8945 H   0  0  0  0  0  0  0  0  0  0  0  0
   -0.6957   -1.1374   -1.6321 H   0  0  0  0  0  0  0  0  0  0  0  0
   -1.9585    2.2829   -0.8631 H   0  0  0  0  0  0  0  0  0  0  0  0
    0.0479    2.1012    0.1757 H   0  0  0  0  0  0  0  0  0  0  0  0
    0.4524    1.3129   -1.3604 H   0  0  0  0  0  0  0  0  0  0  0  0
   -0.8776    0.4752    1.9083 H   0  0  0  0  0  0  0  0  0  0  0  0
   -2.5051   -0.2319    1.3307 H   0  0  0  0  0  0  0  0  0  0  0  0
  1  2  1  0
  2  3  1  0
  3  4  1  0
  4  5  1  0
  5  6  1  0
  6  7  1  0
  6  8  1  0
  6  9  1  0
  8  2  1  0
  9  4  1  0
  1 10  1  0
  1 11  1  0
  1 12  1  0
  2 13  1  0
  3 14  1  0
  3 15  1  0
  4 16  1  0
  5 17  1  0
  5 18  1  0
  7 19  1  0
  8 20  1  0
  8 21  1  0
  9 22  1  0
  9 23  1  0
M  END
