
     RDKit          3D

 22 22  0  0  0  0  0  0  0  0999 V2000
   -1.0899   -1.1352    1.1898 C   0  0  0  0  0  0  0  0  0  0  0  0
   -0.8162   -0.3689   -0.0531 C   0  0  0  0  0  0  0  0  0  0  0  0
   -1.0072    1.1495    0.0585 C   0  0  0  0  0  0  0  0  0  0  0  0
   -2.2379    1.5796   -0.4560 O   0  0  0  0  0  0  0  0  0  0  0  0
    0.1370    1.2490   -0.9613 C   0  0  0  0  0  0  0  0  0  0  0  0
    0.6553   -0.0466   -0.3185 C   0  0  0  0  0  0  0  0  0  0  0  0
    1.3464   -0.9772   -1.2565 C   0  0  0  0  0  0  0  0  0  0  0  0
    1.4318    0.3268    0.9295 C   0  0  0  0  0  0  0  0  0  0  0  0
   -1.6399   -0.5753    1.9712 H   0  0  0  0  0  0  0  0  0  0  0  0
   -1.7578   -2.0017    0.9060 H   0  0  0  0  0  0  0  0  0  0  0  0
   -0.1844   -1.5493    1.6866 H   0  0  0  0  0  0  0  0  0  0  0  0
   -1.2564   -0.7598   -0.9854 H   0  0  0  0  0  0  0  0  0  0  0  0
   -0.7923    1.5707    1.0360 H   0  0  0  0  0  0  0  0  0  0  0  0
   -2.8880    0.8552   -0.1923 H   0  0  0  0  0  0  0  0  0  0  0  0
    0.8088    2.0937   -0.8183 H   0  0  0  0  0  0  0  0  0  0  0  0
   -0.3062    1.1054   -1.9639 H   0  0  0  0  0  0  0  0  0  0  0  0
    0.6656   -1.8249   -1.5105 H   0  0  0  0  0  0  0  0  0  0  0  0
    1.6882   -0.5229   -2.1919 H   0  0  0  0  0  0  0  0  0  0  0  0
    2.2451   -1.4005   -0.7316 H   0  0  0  0  0  0  0  0  0  0  0  0
    0.7854    0.5142    1.7976 H   0  0  0  0  0  0  0  0  0  0  0  0
    2.1419   -0.4871    1.2005 H   0  0  0  0  0  0  0  0  0  0  0  0
    2.0709    1.2054    0.6634 H   0  0  0  0  0  0  0  0  0  0  0  0
  1  2  1  0
  2  3  1  0
  3  4  1  0
  3  5  1  0
  5  6  1  0
  6  7  1  0
  6  8  1  0
  6  2  1  0
  1  9  1  0
  1 10  1  0
  1 11  1  0
  2 12  1  0
  3 13  1  0
  4 14  1  0
  5 15  1  0
  5 16  1  0
  7 17  1  0
  7 18  1  0
  7 19  1  0
  8 20  1  0
  8 21  1  0
  8 22  1  0
M  END
