
     RDKit          3D

 21 22  0  0  0  0  0  0  0  0999 V2000
    2.6309   -0.2877    0.5950 C   0  0  0  0  0  0  0  0  0  0  0  0
    1.4480   -0.1655   -0.3102 C   0  0  0  0  0  0  0  0  0  0  0  0
    0.5324   -1.3419   -0.1543 C   0  0  0  0  0  0  0  0  0  0  0  0
   -0.7361   -0.9815   -0.1583 C   0  0  0  0  0  0  0  0  0  0  0  0
   -2.2162   -0.8646   -0.1289 C   0  0  0  0  0  0  0  0  0  0  0  0
   -1.9603    0.5270    0.5049 C   0  0  0  0  0  0  0  0  0  0  0  0
   -0.7565    0.5244   -0.3689 C   0  0  0  0  0  0  0  0  0  0  0  0
   -1.0278    0.9017   -1.6661 O   0  0  0  0  0  0  0  0  0  0  0  0
    0.5514    0.9954    0.1704 C   0  0  0  0  0  0  0  0  0  0  0  0
    2.4040   -1.0236    1.4125 H   0  0  0  0  0  0  0  0  0  0  0  0
    3.4926   -0.6349   -0.0104 H   0  0  0  0  0  0  0  0  0  0  0  0
    2.8214    0.6733    1.1152 H   0  0  0  0  0  0  0  0  0  0  0  0
    1.6738   -0.0689   -1.3705 H   0  0  0  0  0  0  0  0  0  0  0  0
    0.9115   -2.3609   -0.0524 H   0  0  0  0  0  0  0  0  0  0  0  0
   -2.6610   -0.8094   -1.1262 H   0  0  0  0  0  0  0  0  0  0  0  0
   -2.7530   -1.5396    0.5354 H   0  0  0  0  0  0  0  0  0  0  0  0
   -1.7843    0.3979    1.5852 H   0  0  0  0  0  0  0  0  0  0  0  0
   -2.7725    1.2081    0.2141 H   0  0  0  0  0  0  0  0  0  0  0  0
   -1.2979    1.8537   -1.6451 H   0  0  0  0  0  0  0  0  0  0  0  0
    0.5908    1.1100    1.2540 H   0  0  0  0  0  0  0  0  0  0  0  0
    0.9087    1.8873   -0.3956 H   0  0  0  0  0  0  0  0  0  0  0  0
  1  2  1  0
  2  3  1  0
  3  4  2  0
  4  5  1  0
  5  6  1  0
  6  7  1  0
  7  8  1  0
  7  9  1  0
  9  2  1  0
  7  4  1  0
  1 10  1  0
  1 11  1  0
  1 12  1  0
  2 13  1  0
  3 14  1  0
  5 15  1  0
  5 16  1  0
  6 17  1  0
  6 18  1  0
  8 19  1  0
  9 20  1  0
  9 21  1  0
M  END
