
     RDKit          3D

 21 23  0  0  0  0  0  0  0  0999 V2000
    2.5723   -0.5166    0.7897 C   0  0  0  0  0  0  0  0  0  0  0  0
    1.7283   -0.4038   -0.4913 C   0  0  0  0  0  0  0  0  0  0  0  0
    0.9931    0.8013   -0.8580 C   0  0  0  0  0  0  0  0  0  0  0  0
   -0.5171    0.9726   -1.1012 C   0  0  0  0  0  0  0  0  0  0  0  0
   -1.1969    1.6757   -0.0411 C   0  0  0  0  0  0  0  0  0  0  0  0
   -0.7121    0.3249    0.2853 C   0  0  0  0  0  0  0  0  0  0  0  0
   -1.9233   -0.5317    0.6078 C   0  0  0  0  0  0  0  0  0  0  0  0
   -2.0250   -1.6459   -0.2213 O   0  0  0  0  0  0  0  0  0  0  0  0
    0.3439   -0.5049   -0.3517 C   0  0  0  0  0  0  0  0  0  0  0  0
    1.9145   -0.5768    1.6828 H   0  0  0  0  0  0  0  0  0  0  0  0
    3.2389   -1.3716    0.7624 H   0  0  0  0  0  0  0  0  0  0  0  0
    3.1841    0.4054    0.9118 H   0  0  0  0  0  0  0  0  0  0  0  0
    2.3047   -0.8481   -1.3465 H   0  0  0  0  0  0  0  0  0  0  0  0
    1.3644    1.6061   -0.2321 H   0  0  0  0  0  0  0  0  0  0  0  0
   -0.9757    0.3908   -1.8968 H   0  0  0  0  0  0  0  0  0  0  0  0
   -0.6107    2.5038    0.4633 H   0  0  0  0  0  0  0  0  0  0  0  0
   -2.2268    1.9810   -0.2152 H   0  0  0  0  0  0  0  0  0  0  0  0
   -1.8354   -0.9018    1.6701 H   0  0  0  0  0  0  0  0  0  0  0  0
   -2.8844   -0.0194    0.5670 H   0  0  0  0  0  0  0  0  0  0  0  0
   -2.6065   -2.2939    0.2655 H   0  0  0  0  0  0  0  0  0  0  0  0
   -0.1303   -1.0471   -1.2502 H   0  0  0  0  0  0  0  0  0  0  0  0
  1  2  1  0
  2  3  1  0
  3  4  1  0
  4  5  1  0
  5  6  1  0
  6  7  1  0
  7  8  1  0
  6  9  1  0
  9  2  1  0
  9  3  1  0
  6  4  1  0
  1 10  1  0
  1 11  1  0
  1 12  1  0
  2 13  1  0
  3 14  1  0
  4 15  1  0
  5 16  1  0
  5 17  1  0
  7 18  1  0
  7 19  1  0
  8 20  1  0
  9 21  1  0
M  END
