
     RDKit          3D

 20 21  0  0  0  0  0  0  0  0999 V2000
   -1.1874    1.7761    0.1408 C   0  0  0  0  0  0  0  0  0  0  0  0
   -1.1488    0.4256   -0.4749 C   0  0  0  0  0  0  0  0  0  0  0  0
   -1.3595   -0.7442    0.4942 C   0  0  0  0  0  0  0  0  0  0  0  0
   -0.3825   -1.5026   -0.4160 C   0  0  0  0  0  0  0  0  0  0  0  0
    0.2252   -0.1573   -0.7368 C   0  0  0  0  0  0  0  0  0  0  0  0
    1.2703    0.2214    0.2665 C   0  0  0  0  0  0  0  0  0  0  0  0
    2.5931   -0.2295    0.1481 C   0  0  0  0  0  0  0  0  0  0  0  0
    1.7217   -0.9766    1.0177 O   0  0  0  0  0  0  0  0  0  0  0  0
   -1.3493    1.7721    1.2460 H   0  0  0  0  0  0  0  0  0  0  0  0
   -0.3212    2.4236   -0.1280 H   0  0  0  0  0  0  0  0  0  0  0  0
   -2.0832    2.3132   -0.2798 H   0  0  0  0  0  0  0  0  0  0  0  0
   -1.7904    0.2464   -1.3606 H   0  0  0  0  0  0  0  0  0  0  0  0
   -0.9846   -0.5609    1.5092 H   0  0  0  0  0  0  0  0  0  0  0  0
   -2.3807   -1.1247    0.4892 H   0  0  0  0  0  0  0  0  0  0  0  0
    0.2758   -2.1972    0.1030 H   0  0  0  0  0  0  0  0  0  0  0  0
   -0.9688   -1.9620   -1.2374 H   0  0  0  0  0  0  0  0  0  0  0  0
    0.5451   -0.1129   -1.8004 H   0  0  0  0  0  0  0  0  0  0  0  0
    0.9627    0.9714    1.0256 H   0  0  0  0  0  0  0  0  0  0  0  0
    3.4243    0.2039    0.7448 H   0  0  0  0  0  0  0  0  0  0  0  0
    2.9381   -0.7857   -0.7515 H   0  0  0  0  0  0  0  0  0  0  0  0
  1  2  1  0
  2  3  1  0
  3  4  1  0
  4  5  1  0
  5  6  1  0
  6  7  1  0
  7  8  1  0
  5  2  1  0
  8  6  1  0
  1  9  1  0
  1 10  1  0
  1 11  1  0
  2 12  1  0
  3 13  1  0
  3 14  1  0
  4 15  1  0
  4 16  1  0
  5 17  1  0
  6 18  1  0
  7 19  1  0
  7 20  1  0
M  END
