
     RDKit          3D

 23 25  0  0  0  0  0  0  0  0999 V2000
   -1.6901    1.2230    0.9464 C   0  0  0  0  0  0  0  0  0  0  0  0
   -1.9661   -0.1763    0.5530 C   0  0  0  0  0  0  0  0  0  0  0  0
   -1.7780   -0.6531   -0.8547 C   0  0  0  0  0  0  0  0  0  0  0  0
   -1.0262   -1.2531    0.3517 C   0  0  0  0  0  0  0  0  0  0  0  0
    0.4338   -1.2422    0.1543 C   0  0  0  0  0  0  0  0  0  0  0  0
    1.2316   -0.6373   -0.8578 C   0  0  0  0  0  0  0  0  0  0  0  0
    2.5656    0.1042   -0.6902 C   0  0  0  0  0  0  0  0  0  0  0  0
    1.5535    1.1670   -0.2054 C   0  0  0  0  0  0  0  0  0  0  0  0
    1.1078   -0.0424    0.6068 C   0  0  0  0  0  0  0  0  0  0  0  0
   -1.0450    1.1959    1.8738 H   0  0  0  0  0  0  0  0  0  0  0  0
   -2.6078    1.7598    1.2585 H   0  0  0  0  0  0  0  0  0  0  0  0
   -1.2190    1.8645    0.1998 H   0  0  0  0  0  0  0  0  0  0  0  0
   -2.9716   -0.4698    0.9387 H   0  0  0  0  0  0  0  0  0  0  0  0
   -1.3046    0.0617   -1.5091 H   0  0  0  0  0  0  0  0  0  0  0  0
   -2.5040   -1.3416   -1.3341 H   0  0  0  0  0  0  0  0  0  0  0  0
   -1.4041   -2.2718    0.6868 H   0  0  0  0  0  0  0  0  0  0  0  0
    0.8938   -2.2692    0.3962 H   0  0  0  0  0  0  0  0  0  0  0  0
    0.6821   -0.0946   -1.6495 H   0  0  0  0  0  0  0  0  0  0  0  0
    3.1486   -0.3684    0.0906 H   0  0  0  0  0  0  0  0  0  0  0  0
    3.0495    0.3343   -1.6315 H   0  0  0  0  0  0  0  0  0  0  0  0
    1.9639    1.9491    0.4197 H   0  0  0  0  0  0  0  0  0  0  0  0
    0.9029    1.4511   -1.0297 H   0  0  0  0  0  0  0  0  0  0  0  0
    1.9835   -0.2907    1.2857 H   0  0  0  0  0  0  0  0  0  0  0  0
  1  2  1  0
  2  3  1  0
  3  4  1  0
  4  5  1  0
  5  6  1  0
  6  7  1  0
  7  8  1  0
  8  9  1  0
  4  2  1  0
  9  5  1  0
  9  6  1  0
  1 10  1  0
  1 11  1  0
  1 12  1  0
  2 13  1  0
  3 14  1  0
  3 15  1  0
  4 16  1  0
  5 17  1  0
  6 18  1  0
  7 19  1  0
  7 20  1  0
  8 21  1  0
  8 22  1  0
  9 23  1  0
M  END
