
     RDKit          3D

 21 21  0  0  0  0  0  0  0  0999 V2000
    1.8528    0.8577    0.2569 C   0  0  0  0  0  0  0  0  0  0  0  0
    0.8048    0.1500   -0.5416 C   0  0  0  0  0  0  0  0  0  0  0  0
    0.8749   -1.3714   -0.4833 C   0  0  0  0  0  0  0  0  0  0  0  0
   -0.5426   -1.4436    0.0078 C   0  0  0  0  0  0  0  0  0  0  0  0
   -0.5629    0.0780    0.0138 C   0  0  0  0  0  0  0  0  0  0  0  0
   -0.7912    0.5664    1.4093 C   0  0  0  0  0  0  0  0  0  0  0  0
   -1.5741    0.6576   -0.9820 C   0  0  0  0  0  0  0  0  0  0  0  0
    1.6792    0.7599    1.3282 H   0  0  0  0  0  0  0  0  0  0  0  0
    1.8506    1.9299   -0.0807 H   0  0  0  0  0  0  0  0  0  0  0  0
    2.8488    0.4284   -0.0414 H   0  0  0  0  0  0  0  0  0  0  0  0
    0.8814    0.4795   -1.6193 H   0  0  0  0  0  0  0  0  0  0  0  0
    1.6068   -1.6901    0.2988 H   0  0  0  0  0  0  0  0  0  0  0  0
    1.0746   -1.8558   -1.4472 H   0  0  0  0  0  0  0  0  0  0  0  0
   -1.2849   -1.8776   -0.6733 H   0  0  0  0  0  0  0  0  0  0  0  0
   -0.6206   -1.9186    0.9984 H   0  0  0  0  0  0  0  0  0  0  0  0
   -0.6159    1.6271    1.5681 H   0  0  0  0  0  0  0  0  0  0  0  0
   -0.1914   -0.0911    2.1048 H   0  0  0  0  0  0  0  0  0  0  0  0
   -1.8613    0.3016    1.6601 H   0  0  0  0  0  0  0  0  0  0  0  0
   -2.1927   -0.1639   -1.4185 H   0  0  0  0  0  0  0  0  0  0  0  0
   -2.1782    1.4492   -0.5091 H   0  0  0  0  0  0  0  0  0  0  0  0
   -1.0582    1.1268   -1.8496 H   0  0  0  0  0  0  0  0  0  0  0  0
  1  2  1  0
  2  3  1  0
  3  4  1  0
  4  5  1  0
  5  6  1  0
  5  7  1  0
  5  2  1  0
  1  8  1  0
  1  9  1  0
  1 10  1  0
  2 11  1  0
  3 12  1  0
  3 13  1  0
  4 14  1  0
  4 15  1  0
  6 16  1  0
  6 17  1  0
  6 18  1  0
  7 19  1  0
  7 20  1  0
  7 21  1  0
M  END
