
     RDKit          3D

 21 22  0  0  0  0  0  0  0  0999 V2000
    2.2653    0.9055    0.1889 C   0  0  0  0  0  0  0  0  0  0  0  0
    1.3505    0.0398   -0.6480 C   0  0  0  0  0  0  0  0  0  0  0  0
    0.8281   -1.1991    0.0931 C   0  0  0  0  0  0  0  0  0  0  0  0
   -0.5171   -0.9054   -0.5253 C   0  0  0  0  0  0  0  0  0  0  0  0
   -1.7073   -1.0930    0.3467 C   0  0  0  0  0  0  0  0  0  0  0  0
   -1.8835   -0.1091    1.3006 O   0  0  0  0  0  0  0  0  0  0  0  0
   -1.7370    1.1267    0.6971 C   0  0  0  0  0  0  0  0  0  0  0  0
   -0.3522    1.2895    0.4632 O   0  0  0  0  0  0  0  0  0  0  0  0
   -0.0798    0.5294   -0.6697 C   0  0  0  0  0  0  0  0  0  0  0  0
    1.9565    0.8147    1.2474 H   0  0  0  0  0  0  0  0  0  0  0  0
    2.2192    1.9475   -0.1933 H   0  0  0  0  0  0  0  0  0  0  0  0
    3.3059    0.5340    0.0137 H   0  0  0  0  0  0  0  0  0  0  0  0
    1.7806   -0.1941   -1.6454 H   0  0  0  0  0  0  0  0  0  0  0  0
    1.3611   -2.0742   -0.2746 H   0  0  0  0  0  0  0  0  0  0  0  0
    0.8703   -1.1286    1.1853 H   0  0  0  0  0  0  0  0  0  0  0  0
   -0.6258   -1.3542   -1.5426 H   0  0  0  0  0  0  0  0  0  0  0  0
   -1.6865   -2.0825    0.8479 H   0  0  0  0  0  0  0  0  0  0  0  0
   -2.6123   -1.0994   -0.3087 H   0  0  0  0  0  0  0  0  0  0  0  0
   -2.0526    1.9745    1.2994 H   0  0  0  0  0  0  0  0  0  0  0  0
   -2.2655    1.0625   -0.2903 H   0  0  0  0  0  0  0  0  0  0  0  0
   -0.4179    1.0155   -1.5852 H   0  0  0  0  0  0  0  0  0  0  0  0
  1  2  1  0
  2  3  1  0
  3  4  1  0
  4  5  1  0
  5  6  1  0
  6  7  1  0
  7  8  1  0
  8  9  1  0
  9  2  1  0
  9  4  1  0
  1 10  1  0
  1 11  1  0
  1 12  1  0
  2 13  1  0
  3 14  1  0
  3 15  1  0
  4 16  1  0
  5 17  1  0
  5 18  1  0
  7 19  1  0
  7 20  1  0
  9 21  1  0
M  END
