
     RDKit          3D

 19 21  0  0  0  0  0  0  0  0999 V2000
   -1.9593   -0.9416   -0.1222 C   0  0  0  0  0  0  0  0  0  0  0  0
   -1.1161    0.2664   -0.2607 C   0  0  0  0  0  0  0  0  0  0  0  0
    0.1986    0.0681   -1.0315 C   0  0  0  0  0  0  0  0  0  0  0  0
    0.7222    1.4722   -0.9571 C   0  0  0  0  0  0  0  0  0  0  0  0
    0.5142    1.7814    0.3409 C   0  0  0  0  0  0  0  0  0  0  0  0
   -0.1434    0.5521    0.8655 C   0  0  0  0  0  0  0  0  0  0  0  0
    0.7270   -0.5032    0.2357 C   0  0  0  0  0  0  0  0  0  0  0  0
    1.9353   -0.9648    0.6090 C   0  0  0  0  0  0  0  0  0  0  0  0
    0.6893   -1.8001    0.5760 O   0  0  0  0  0  0  0  0  0  0  0  0
   -2.0215   -1.2145    0.9549 H   0  0  0  0  0  0  0  0  0  0  0  0
   -1.6189   -1.7750   -0.7606 H   0  0  0  0  0  0  0  0  0  0  0  0
   -3.0161   -0.6523   -0.3995 H   0  0  0  0  0  0  0  0  0  0  0  0
   -1.6072    1.1886   -0.6357 H   0  0  0  0  0  0  0  0  0  0  0  0
    0.1833   -0.4471   -1.9401 H   0  0  0  0  0  0  0  0  0  0  0  0
    1.1533    2.0792   -1.7366 H   0  0  0  0  0  0  0  0  0  0  0  0
    0.7472    2.6732    0.8953 H   0  0  0  0  0  0  0  0  0  0  0  0
   -0.4472    0.4863    1.8628 H   0  0  0  0  0  0  0  0  0  0  0  0
    2.6961   -1.3628   -0.1246 H   0  0  0  0  0  0  0  0  0  0  0  0
    2.3633   -0.9061    1.6287 H   0  0  0  0  0  0  0  0  0  0  0  0
  1  2  1  0
  2  3  1  0
  3  4  1  0
  4  5  2  0
  5  6  1  0
  6  7  1  0
  7  8  1  0
  8  9  1  0
  6  2  1  0
  9  7  1  0
  7  3  1  0
  1 10  1  0
  1 11  1  0
  1 12  1  0
  2 13  1  0
  3 14  1  0
  4 15  1  0
  5 16  1  0
  6 17  1  0
  8 18  1  0
  8 19  1  0
M  END
