
     RDKit          3D

 20 20  0  0  0  0  0  0  0  0999 V2000
   -2.2580   -0.6777    0.0626 C   0  0  0  0  0  0  0  0  0  0  0  0
   -1.0696    0.0878   -0.4554 C   0  0  0  0  0  0  0  0  0  0  0  0
    0.0929   -0.8065   -0.8488 C   0  0  0  0  0  0  0  0  0  0  0  0
    1.0077    0.2071   -0.1686 C   0  0  0  0  0  0  0  0  0  0  0  0
    2.1193   -0.4973    0.5394 C   0  0  0  0  0  0  0  0  0  0  0  0
    1.4595    1.2196   -0.9875 O   0  0  0  0  0  0  0  0  0  0  0  0
   -0.1634    0.6313    0.6574 C   0  0  0  0  0  0  0  0  0  0  0  0
   -0.3091    2.0215    0.7169 O   0  0  0  0  0  0  0  0  0  0  0  0
   -1.9662   -1.6058    0.6097 H   0  0  0  0  0  0  0  0  0  0  0  0
   -2.9126   -0.0667    0.7062 H   0  0  0  0  0  0  0  0  0  0  0  0
   -2.8461   -1.0045   -0.8063 H   0  0  0  0  0  0  0  0  0  0  0  0
   -1.3784    0.8266   -1.1929 H   0  0  0  0  0  0  0  0  0  0  0  0
    0.0309   -1.7441   -0.2450 H   0  0  0  0  0  0  0  0  0  0  0  0
    0.2553   -0.9329   -1.9255 H   0  0  0  0  0  0  0  0  0  0  0  0
    2.6756    0.1516    1.2543 H   0  0  0  0  0  0  0  0  0  0  0  0
    2.8678   -0.7966   -0.2301 H   0  0  0  0  0  0  0  0  0  0  0  0
    1.8023   -1.4370    1.0327 H   0  0  0  0  0  0  0  0  0  0  0  0
    1.8367    1.9251   -0.3968 H   0  0  0  0  0  0  0  0  0  0  0  0
   -0.3036    0.1262    1.6256 H   0  0  0  0  0  0  0  0  0  0  0  0
   -0.9412    2.3724    0.0521 H   0  0  0  0  0  0  0  0  0  0  0  0
  1  2  1  0
  2  3  1  0
  3  4  1  0
  4  5  1  0
  4  6  1  0
  4  7  1  0
  7  8  1  0
  7  2  1  0
  1  9  1  0
  1 10  1  0
  1 11  1  0
  2 12  1  0
  3 13  1  0
  3 14  1  0
  5 15  1  0
  5 16  1  0
  5 17  1  0
  6 18  1  0
  7 19  1  0
  8 20  1  0
M  END
