
     RDKit          3D

 21 23  0  0  0  0  0  0  0  0999 V2000
    2.3484    0.3277   -0.0796 C   0  0  0  0  0  0  0  0  0  0  0  0
    0.9035    0.3325    0.3236 C   0  0  0  0  0  0  0  0  0  0  0  0
    0.4074   -0.9360    0.9871 C   0  0  0  0  0  0  0  0  0  0  0  0
    0.2994   -1.4838   -0.4440 C   0  0  0  0  0  0  0  0  0  0  0  0
   -0.0747   -0.0469   -0.7556 C   0  0  0  0  0  0  0  0  0  0  0  0
   -1.4026    0.0627   -0.0441 C   0  0  0  0  0  0  0  0  0  0  0  0
   -2.0614    1.3952    0.1125 C   0  0  0  0  0  0  0  0  0  0  0  0
   -2.0261   -1.0919    0.4152 O   0  0  0  0  0  0  0  0  0  0  0  0
   -1.0268   -0.6432    1.2753 C   0  0  0  0  0  0  0  0  0  0  0  0
    2.9248    0.7436    0.7902 H   0  0  0  0  0  0  0  0  0  0  0  0
    2.5766    0.9479   -0.9511 H   0  0  0  0  0  0  0  0  0  0  0  0
    2.7655   -0.6731   -0.2615 H   0  0  0  0  0  0  0  0  0  0  0  0
    0.6182    1.2725    0.7954 H   0  0  0  0  0  0  0  0  0  0  0  0
    1.0248   -1.4487    1.6705 H   0  0  0  0  0  0  0  0  0  0  0  0
   -0.5062   -2.2154   -0.4906 H   0  0  0  0  0  0  0  0  0  0  0  0
    1.2199   -1.8553   -0.8721 H   0  0  0  0  0  0  0  0  0  0  0  0
    0.0377    0.3205   -1.7387 H   0  0  0  0  0  0  0  0  0  0  0  0
   -2.2226    1.8038   -0.9218 H   0  0  0  0  0  0  0  0  0  0  0  0
   -1.4140    2.1330    0.6338 H   0  0  0  0  0  0  0  0  0  0  0  0
   -3.0238    1.2683    0.6119 H   0  0  0  0  0  0  0  0  0  0  0  0
   -1.3679   -0.2132    2.2140 H   0  0  0  0  0  0  0  0  0  0  0  0
  1  2  1  0
  2  3  1  0
  3  4  1  0
  4  5  1  0
  5  6  1  0
  6  7  1  0
  6  8  1  0
  8  9  1  0
  5  2  1  0
  9  6  1  0
  9  3  1  0
  1 10  1  0
  1 11  1  0
  1 12  1  0
  2 13  1  0
  3 14  1  0
  4 15  1  0
  4 16  1  0
  5 17  1  0
  7 18  1  0
  7 19  1  0
  7 20  1  0
  9 21  1  0
M  END
