
     RDKit          3D

 21 22  0  0  0  0  0  0  0  0999 V2000
    2.0590   -0.7653    0.3031 C   0  0  0  0  0  0  0  0  0  0  0  0
    0.7445   -0.5043   -0.3546 C   0  0  0  0  0  0  0  0  0  0  0  0
    0.6793    0.8890   -0.9787 C   0  0  0  0  0  0  0  0  0  0  0  0
   -0.6789    1.3472   -0.5155 C   0  0  0  0  0  0  0  0  0  0  0  0
   -1.6722    0.3736   -1.0321 C   0  0  0  0  0  0  0  0  0  0  0  0
   -1.6483   -0.7443   -0.2887 C   0  0  0  0  0  0  0  0  0  0  0  0
   -0.4270   -0.5961    0.5729 C   0  0  0  0  0  0  0  0  0  0  0  0
   -0.3391   -1.4319    1.6049 O   0  0  0  0  0  0  0  0  0  0  0  0
   -0.6049    0.8857    0.9527 C   0  0  0  0  0  0  0  0  0  0  0  0
    2.2736    0.0739    0.9973 H   0  0  0  0  0  0  0  0  0  0  0  0
    2.8381   -0.8641   -0.4724 H   0  0  0  0  0  0  0  0  0  0  0  0
    1.9748   -1.6892    0.8928 H   0  0  0  0  0  0  0  0  0  0  0  0
    0.5644   -1.2205   -1.2017 H   0  0  0  0  0  0  0  0  0  0  0  0
    1.4376    1.4920   -0.4435 H   0  0  0  0  0  0  0  0  0  0  0  0
    0.8022    0.8722   -2.0625 H   0  0  0  0  0  0  0  0  0  0  0  0
   -0.9077    2.3771   -0.6373 H   0  0  0  0  0  0  0  0  0  0  0  0
   -2.3099    0.5671   -1.8879 H   0  0  0  0  0  0  0  0  0  0  0  0
   -2.3235   -1.5655   -0.2859 H   0  0  0  0  0  0  0  0  0  0  0  0
   -1.1697   -1.8300    1.9092 H   0  0  0  0  0  0  0  0  0  0  0  0
    0.2705    1.2845    1.4593 H   0  0  0  0  0  0  0  0  0  0  0  0
   -1.5628    1.0488    1.4686 H   0  0  0  0  0  0  0  0  0  0  0  0
  1  2  1  0
  2  3  1  0
  3  4  1  0
  4  5  1  0
  5  6  2  0
  6  7  1  0
  7  8  1  0
  7  9  1  0
  7  2  1  0
  9  4  1  0
  1 10  1  0
  1 11  1  0
  1 12  1  0
  2 13  1  0
  3 14  1  0
  3 15  1  0
  4 16  1  0
  5 17  1  0
  6 18  1  0
  8 19  1  0
  9 20  1  0
  9 21  1  0
M  END
