
     RDKit          3D

 21 22  0  0  0  0  0  0  0  0999 V2000
    2.1718    0.4332   -0.4414 C   0  0  0  0  0  0  0  0  0  0  0  0
    0.9717   -0.3820   -0.1620 C   0  0  0  0  0  0  0  0  0  0  0  0
   -0.1246   -0.2995   -1.1657 C   0  0  0  0  0  0  0  0  0  0  0  0
   -0.9283    0.9461   -0.7884 C   0  0  0  0  0  0  0  0  0  0  0  0
   -1.1671    0.1638    0.5047 C   0  0  0  0  0  0  0  0  0  0  0  0
   -2.2316    0.4521    1.2384 O   0  0  0  0  0  0  0  0  0  0  0  0
   -1.2306   -1.0569   -0.4267 C   0  0  0  0  0  0  0  0  0  0  0  0
    0.2033    0.1038    1.0847 C   0  0  0  0  0  0  0  0  0  0  0  0
    0.3433   -0.7927    2.1191 O   0  0  0  0  0  0  0  0  0  0  0  0
    3.0653   -0.2530   -0.4692 H   0  0  0  0  0  0  0  0  0  0  0  0
    2.1775    0.9931   -1.3730 H   0  0  0  0  0  0  0  0  0  0  0  0
    2.3737    1.1148    0.4336 H   0  0  0  0  0  0  0  0  0  0  0  0
    1.2176   -1.4557    0.0202 H   0  0  0  0  0  0  0  0  0  0  0  0
    0.0300   -0.5097   -2.1880 H   0  0  0  0  0  0  0  0  0  0  0  0
   -1.8897    1.0109   -1.3304 H   0  0  0  0  0  0  0  0  0  0  0  0
   -0.3429    1.8523   -0.6908 H   0  0  0  0  0  0  0  0  0  0  0  0
   -2.3073    1.3997    1.4387 H   0  0  0  0  0  0  0  0  0  0  0  0
   -0.8500   -1.9873    0.0248 H   0  0  0  0  0  0  0  0  0  0  0  0
   -2.1684   -1.1595   -0.9734 H   0  0  0  0  0  0  0  0  0  0  0  0
    0.5500    1.1206    1.3578 H   0  0  0  0  0  0  0  0  0  0  0  0
    0.1363   -1.6943    1.7871 H   0  0  0  0  0  0  0  0  0  0  0  0
  1  2  1  0
  2  3  1  0
  3  4  1  0
  4  5  1  0
  5  6  1  0
  5  7  1  0
  5  8  1  0
  8  9  1  0
  8  2  1  0
  7  3  1  0
  1 10  1  0
  1 11  1  0
  1 12  1  0
  2 13  1  0
  3 14  1  0
  4 15  1  0
  4 16  1  0
  6 17  1  0
  7 18  1  0
  7 19  1  0
  8 20  1  0
  9 21  1  0
M  END
