
     RDKit          3D

 25 25  0  0  0  0  0  0  0  0999 V2000
    2.8201    1.1021   -0.0824 C   0  0  0  0  0  0  0  0  0  0  0  0
    1.4914    0.5320   -0.5882 C   0  0  0  0  0  0  0  0  0  0  0  0
    0.3919    1.4941   -0.3325 C   0  0  0  0  0  0  0  0  0  0  0  0
   -0.8197    1.1923    0.1119 C   0  0  0  0  0  0  0  0  0  0  0  0
   -1.4019   -0.0974    0.4622 C   0  0  0  0  0  0  0  0  0  0  0  0
   -2.9290    0.0501    0.5451 C   0  0  0  0  0  0  0  0  0  0  0  0
   -1.1367   -1.2025   -0.5026 C   0  0  0  0  0  0  0  0  0  0  0  0
    0.2765   -1.6133   -0.6341 C   0  0  0  0  0  0  0  0  0  0  0  0
    1.2571   -0.7550    0.1213 C   0  0  0  0  0  0  0  0  0  0  0  0
    2.7616    1.2411    1.0244 H   0  0  0  0  0  0  0  0  0  0  0  0
    3.6116    0.3526   -0.3606 H   0  0  0  0  0  0  0  0  0  0  0  0
    3.0299    2.0881   -0.5607 H   0  0  0  0  0  0  0  0  0  0  0  0
    1.6128    0.3938   -1.6877 H   0  0  0  0  0  0  0  0  0  0  0  0
    0.6512    2.5206   -0.5425 H   0  0  0  0  0  0  0  0  0  0  0  0
   -1.4601    2.0567    0.2246 H   0  0  0  0  0  0  0  0  0  0  0  0
   -1.0956   -0.4174    1.5015 H   0  0  0  0  0  0  0  0  0  0  0  0
   -3.2300    0.5413    1.4742 H   0  0  0  0  0  0  0  0  0  0  0  0
   -3.4283   -0.9406    0.4805 H   0  0  0  0  0  0  0  0  0  0  0  0
   -3.2343    0.6417   -0.3305 H   0  0  0  0  0  0  0  0  0  0  0  0
   -1.8051   -2.0630   -0.2054 H   0  0  0  0  0  0  0  0  0  0  0  0
   -1.5174   -0.8869   -1.5083 H   0  0  0  0  0  0  0  0  0  0  0  0
    0.5861   -1.6770   -1.6969 H   0  0  0  0  0  0  0  0  0  0  0  0
    0.3689   -2.6680   -0.2396 H   0  0  0  0  0  0  0  0  0  0  0  0
    2.2273   -1.3134    0.1420 H   0  0  0  0  0  0  0  0  0  0  0  0
    0.9716   -0.5720    1.1534 H   0  0  0  0  0  0  0  0  0  0  0  0
  1  2  1  0
  2  3  1  0
  3  4  2  0
  4  5  1  0
  5  6  1  0
  5  7  1  0
  7  8  1  0
  8  9  1  0
  9  2  1  0
  1 10  1  0
  1 11  1  0
  1 12  1  0
  2 13  1  0
  3 14  1  0
  4 15  1  0
  5 16  1  0
  6 17  1  0
  6 18  1  0
  6 19  1  0
  7 20  1  0
  7 21  1  0
  8 22  1  0
  8 23  1  0
  9 24  1  0
  9 25  1  0
M  END
