
     RDKit          3D

 22 23  0  0  0  0  0  0  0  0999 V2000
   -2.8415    0.3852    0.4159 C   0  0  0  0  0  0  0  0  0  0  0  0
   -1.6829   -0.4700   -0.0262 C   0  0  0  0  0  0  0  0  0  0  0  0
   -0.8376    0.1632   -1.1308 C   0  0  0  0  0  0  0  0  0  0  0  0
    0.3538   -0.1451   -0.3008 C   0  0  0  0  0  0  0  0  0  0  0  0
   -0.4554   -0.3780    0.8935 C   0  0  0  0  0  0  0  0  0  0  0  0
    1.4289   -1.0527   -0.7020 C   0  0  0  0  0  0  0  0  0  0  0  0
    1.6589    0.4119   -0.4372 C   0  0  0  0  0  0  0  0  0  0  0  0
    2.6100    0.7157    0.6832 C   0  0  0  0  0  0  0  0  0  0  0  0
   -2.4082    1.3232    0.8291 H   0  0  0  0  0  0  0  0  0  0  0  0
   -3.3917   -0.1819    1.1862 H   0  0  0  0  0  0  0  0  0  0  0  0
   -3.4694    0.6669   -0.4468 H   0  0  0  0  0  0  0  0  0  0  0  0
   -1.9458   -1.5040   -0.3181 H   0  0  0  0  0  0  0  0  0  0  0  0
   -0.8153   -0.4282   -2.0762 H   0  0  0  0  0  0  0  0  0  0  0  0
   -1.0533    1.2218   -1.3297 H   0  0  0  0  0  0  0  0  0  0  0  0
   -0.5999    0.4187    1.6288 H   0  0  0  0  0  0  0  0  0  0  0  0
   -0.3077   -1.3761    1.3674 H   0  0  0  0  0  0  0  0  0  0  0  0
    1.4191   -1.4314   -1.7313 H   0  0  0  0  0  0  0  0  0  0  0  0
    1.7373   -1.8056    0.0615 H   0  0  0  0  0  0  0  0  0  0  0  0
    1.8770    1.0262   -1.3607 H   0  0  0  0  0  0  0  0  0  0  0  0
    2.2307    0.4945    1.6782 H   0  0  0  0  0  0  0  0  0  0  0  0
    2.9295    1.7968    0.6382 H   0  0  0  0  0  0  0  0  0  0  0  0
    3.5634    0.1490    0.4778 H   0  0  0  0  0  0  0  0  0  0  0  0
  1  2  1  0
  2  3  1  0
  3  4  1  0
  4  5  1  0
  4  6  1  0
  6  7  1  0
  7  8  1  0
  5  2  1  0
  7  4  1  0
  1  9  1  0
  1 10  1  0
  1 11  1  0
  2 12  1  0
  3 13  1  0
  3 14  1  0
  5 15  1  0
  5 16  1  0
  6 17  1  0
  6 18  1  0
  7 19  1  0
  8 20  1  0
  8 21  1  0
  8 22  1  0
M  END
