
     RDKit          3D

 18 20  0  0  0  0  0  0  0  0999 V2000
   -2.0739   -0.6093    0.4209 C   0  0  0  0  0  0  0  0  0  0  0  0
   -1.2857    0.2458   -0.5218 C   0  0  0  0  0  0  0  0  0  0  0  0
    0.0223   -0.3851   -0.9739 C   0  0  0  0  0  0  0  0  0  0  0  0
    0.9322   -0.9746    0.0614 C   0  0  0  0  0  0  0  0  0  0  0  0
    2.2303   -0.2621    0.2516 C   0  0  0  0  0  0  0  0  0  0  0  0
    0.9560    0.3240    0.8050 C   0  0  0  0  0  0  0  0  0  0  0  0
   -0.0337    0.9183   -0.1314 C   0  0  0  0  0  0  0  0  0  0  0  0
    0.3892    2.0350   -0.8217 O   0  0  0  0  0  0  0  0  0  0  0  0
   -2.5762   -1.4018   -0.2070 H   0  0  0  0  0  0  0  0  0  0  0  0
   -2.8422   -0.0776    0.9906 H   0  0  0  0  0  0  0  0  0  0  0  0
   -1.3725   -1.1170    1.1024 H   0  0  0  0  0  0  0  0  0  0  0  0
   -1.8479    0.7146   -1.3505 H   0  0  0  0  0  0  0  0  0  0  0  0
    0.3381   -0.2998   -2.0171 H   0  0  0  0  0  0  0  0  0  0  0  0
    0.6473   -1.8436    0.6558 H   0  0  0  0  0  0  0  0  0  0  0  0
    2.9264   -0.7272    0.9545 H   0  0  0  0  0  0  0  0  0  0  0  0
    2.7052    0.2062   -0.6453 H   0  0  0  0  0  0  0  0  0  0  0  0
    0.7894    0.3678    1.8922 H   0  0  0  0  0  0  0  0  0  0  0  0
    0.0957    2.8865   -0.4657 H   0  0  0  0  0  0  0  0  0  0  0  0
  1  2  1  0
  2  3  1  0
  3  4  1  0
  4  5  1  0
  5  6  1  0
  6  7  1  0
  7  8  1  0
  7  2  1  0
  7  3  1  0
  6  4  1  0
  1  9  1  0
  1 10  1  0
  1 11  1  0
  2 12  1  0
  3 13  1  0
  4 14  1  0
  5 15  1  0
  5 16  1  0
  6 17  1  0
  8 18  1  0
M  END
