
     RDKit          3D

 21 23  0  0  0  0  0  0  0  0999 V2000
    2.6866   -0.5424    0.3005 C   0  0  0  0  0  0  0  0  0  0  0  0
    1.3248    0.1339    0.3590 C   0  0  0  0  0  0  0  0  0  0  0  0
    0.1896   -0.7435    0.6615 C   0  0  0  0  0  0  0  0  0  0  0  0
   -1.2036   -0.2659    0.8614 C   0  0  0  0  0  0  0  0  0  0  0  0
   -1.8386   -0.5994   -0.5003 C   0  0  0  0  0  0  0  0  0  0  0  0
   -0.8859    0.5133   -0.9730 C   0  0  0  0  0  0  0  0  0  0  0  0
   -1.1730    1.1301   -2.1161 O   0  0  0  0  0  0  0  0  0  0  0  0
   -1.2438    1.1666    0.3432 C   0  0  0  0  0  0  0  0  0  0  0  0
    0.4356   -0.1724   -0.7823 C   0  0  0  0  0  0  0  0  0  0  0  0
    3.4930    0.0929    0.7084 H   0  0  0  0  0  0  0  0  0  0  0  0
    2.6518   -1.5187    0.8187 H   0  0  0  0  0  0  0  0  0  0  0  0
    2.9511   -0.6947   -0.7866 H   0  0  0  0  0  0  0  0  0  0  0  0
    1.3918    1.1889    0.6740 H   0  0  0  0  0  0  0  0  0  0  0  0
    0.3705   -1.8148    0.7919 H   0  0  0  0  0  0  0  0  0  0  0  0
   -1.7622   -0.5076    1.7303 H   0  0  0  0  0  0  0  0  0  0  0  0
   -2.8802   -0.2563   -0.5615 H   0  0  0  0  0  0  0  0  0  0  0  0
   -1.5890   -1.5807   -0.8933 H   0  0  0  0  0  0  0  0  0  0  0  0
   -0.7924    2.0187   -2.1627 H   0  0  0  0  0  0  0  0  0  0  0  0
   -2.2843    1.5444    0.2922 H   0  0  0  0  0  0  0  0  0  0  0  0
   -0.5311    1.8571    0.7699 H   0  0  0  0  0  0  0  0  0  0  0  0
    0.6894   -0.9497   -1.5166 H   0  0  0  0  0  0  0  0  0  0  0  0
  1  2  1  0
  2  3  1  0
  3  4  1  0
  4  5  1  0
  5  6  1  0
  6  7  1  0
  6  8  1  0
  6  9  1  0
  9  2  1  0
  9  3  1  0
  8  4  1  0
  1 10  1  0
  1 11  1  0
  1 12  1  0
  2 13  1  0
  3 14  1  0
  4 15  1  0
  5 16  1  0
  5 17  1  0
  7 18  1  0
  8 19  1  0
  8 20  1  0
  9 21  1  0
M  END
