
     RDKit          3D

 21 23  0  0  0  0  0  0  0  0999 V2000
   -1.3976   -1.3283    0.8168 C   0  0  0  0  0  0  0  0  0  0  0  0
   -1.0610   -0.0564    0.2372 C   0  0  0  0  0  0  0  0  0  0  0  0
   -0.3755   -0.0243   -1.1154 C   0  0  0  0  0  0  0  0  0  0  0  0
   -0.4007    1.4845   -1.2820 C   0  0  0  0  0  0  0  0  0  0  0  0
   -0.1003    1.9588   -0.0732 C   0  0  0  0  0  0  0  0  0  0  0  0
    0.0120    0.7875    0.8960 C   0  0  0  0  0  0  0  0  0  0  0  0
    1.3217    0.1781    0.5789 C   0  0  0  0  0  0  0  0  0  0  0  0
    1.5903   -1.1770    0.1770 C   0  0  0  0  0  0  0  0  0  0  0  0
    1.0646   -0.3343   -0.8808 C   0  0  0  0  0  0  0  0  0  0  0  0
   -1.2883   -2.1565    0.0560 H   0  0  0  0  0  0  0  0  0  0  0  0
   -2.5078   -1.3596    1.0488 H   0  0  0  0  0  0  0  0  0  0  0  0
   -0.9294   -1.6018    1.7932 H   0  0  0  0  0  0  0  0  0  0  0  0
   -1.9565    0.6268    0.1429 H   0  0  0  0  0  0  0  0  0  0  0  0
   -0.8697   -0.5535   -1.8959 H   0  0  0  0  0  0  0  0  0  0  0  0
   -0.6196    1.9668   -2.1979 H   0  0  0  0  0  0  0  0  0  0  0  0
    0.0369    2.9897    0.1671 H   0  0  0  0  0  0  0  0  0  0  0  0
   -0.1851    1.0684    1.9113 H   0  0  0  0  0  0  0  0  0  0  0  0
    2.1811    0.9069    0.6718 H   0  0  0  0  0  0  0  0  0  0  0  0
    2.6872   -1.4382    0.0555 H   0  0  0  0  0  0  0  0  0  0  0  0
    1.0527   -2.0746    0.5414 H   0  0  0  0  0  0  0  0  0  0  0  0
    1.7449    0.1371   -1.6488 H   0  0  0  0  0  0  0  0  0  0  0  0
  1  2  1  0
  2  3  1  0
  3  4  1  0
  4  5  2  0
  5  6  1  0
  6  7  1  0
  7  8  1  0
  8  9  1  0
  6  2  1  0
  9  7  1  0
  9  3  1  0
  1 10  1  0
  1 11  1  0
  1 12  1  0
  2 13  1  0
  3 14  1  0
  4 15  1  0
  5 16  1  0
  6 17  1  0
  7 18  1  0
  8 19  1  0
  8 20  1  0
  9 21  1  0
M  END
