
     RDKit          3D

 23 24  0  0  0  0  0  0  0  0999 V2000
    2.3478    0.3412    0.2489 C   0  0  0  0  0  0  0  0  0  0  0  0
    1.1862   -0.4741   -0.2282 C   0  0  0  0  0  0  0  0  0  0  0  0
    0.2970   -0.9398    0.9021 C   0  0  0  0  0  0  0  0  0  0  0  0
   -1.1232   -0.6018    0.4799 C   0  0  0  0  0  0  0  0  0  0  0  0
   -2.0759   -1.4051    0.9825 O   0  0  0  0  0  0  0  0  0  0  0  0
   -1.3109    0.8682    0.6634 C   0  0  0  0  0  0  0  0  0  0  0  0
   -0.3717    1.4595   -0.3856 C   0  0  0  0  0  0  0  0  0  0  0  0
    0.2357    0.2642   -1.1115 C   0  0  0  0  0  0  0  0  0  0  0  0
   -0.9746   -0.6864   -1.0478 C   0  0  0  0  0  0  0  0  0  0  0  0
    3.0046   -0.3288    0.8409 H   0  0  0  0  0  0  0  0  0  0  0  0
    2.0756    1.2597    0.7748 H   0  0  0  0  0  0  0  0  0  0  0  0
    2.9367    0.6354   -0.6441 H   0  0  0  0  0  0  0  0  0  0  0  0
    1.5636   -1.3583   -0.7524 H   0  0  0  0  0  0  0  0  0  0  0  0
    0.3755   -2.0082    1.1079 H   0  0  0  0  0  0  0  0  0  0  0  0
    0.5052   -0.3758    1.8510 H   0  0  0  0  0  0  0  0  0  0  0  0
   -2.7437   -1.6267    0.2653 H   0  0  0  0  0  0  0  0  0  0  0  0
   -2.3602    1.1953    0.4945 H   0  0  0  0  0  0  0  0  0  0  0  0
   -0.9605    1.1309    1.6904 H   0  0  0  0  0  0  0  0  0  0  0  0
   -1.0097    1.9843   -1.1294 H   0  0  0  0  0  0  0  0  0  0  0  0
    0.3786    2.1249    0.0451 H   0  0  0  0  0  0  0  0  0  0  0  0
    0.5610    0.4698   -2.1124 H   0  0  0  0  0  0  0  0  0  0  0  0
   -0.6856   -1.6783   -1.3823 H   0  0  0  0  0  0  0  0  0  0  0  0
   -1.8519   -0.2500   -1.5529 H   0  0  0  0  0  0  0  0  0  0  0  0
  1  2  1  0
  2  3  1  0
  3  4  1  0
  4  5  1  0
  4  6  1  0
  6  7  1  0
  7  8  1  0
  8  9  1  0
  8  2  1  0
  9  4  1  0
  1 10  1  0
  1 11  1  0
  1 12  1  0
  2 13  1  0
  3 14  1  0
  3 15  1  0
  5 16  1  0
  6 17  1  0
  6 18  1  0
  7 19  1  0
  7 20  1  0
  8 21  1  0
  9 22  1  0
  9 23  1  0
M  END
