
     RDKit          3D

 23 24  0  0  0  0  0  0  0  0999 V2000
    2.3843   -0.5081    0.4738 C   0  0  0  0  0  0  0  0  0  0  0  0
    0.9059   -0.1104    0.5724 C   0  0  0  0  0  0  0  0  0  0  0  0
    0.0256   -1.0548   -0.1526 C   0  0  0  0  0  0  0  0  0  0  0  0
   -1.3847   -1.1073    0.3171 C   0  0  0  0  0  0  0  0  0  0  0  0
   -2.1061    0.1786    0.3498 C   0  0  0  0  0  0  0  0  0  0  0  0
   -1.6758    1.1403   -0.5196 O   0  0  0  0  0  0  0  0  0  0  0  0
   -0.5099    1.7626   -0.0673 C   0  0  0  0  0  0  0  0  0  0  0  0
    0.6434    0.9162   -0.5360 C   0  0  0  0  0  0  0  0  0  0  0  0
    0.1908   -0.2486   -1.3982 C   0  0  0  0  0  0  0  0  0  0  0  0
    2.9724    0.3506    0.8359 H   0  0  0  0  0  0  0  0  0  0  0  0
    2.6200   -0.6113   -0.6164 H   0  0  0  0  0  0  0  0  0  0  0  0
    2.6128   -1.4095    1.0386 H   0  0  0  0  0  0  0  0  0  0  0  0
    0.5948    0.2323    1.5612 H   0  0  0  0  0  0  0  0  0  0  0  0
    0.4665   -2.0697   -0.1864 H   0  0  0  0  0  0  0  0  0  0  0  0
   -1.4014   -1.5403    1.3605 H   0  0  0  0  0  0  0  0  0  0  0  0
   -1.9214   -1.8633   -0.3023 H   0  0  0  0  0  0  0  0  0  0  0  0
   -2.1435    0.6287    1.3788 H   0  0  0  0  0  0  0  0  0  0  0  0
   -3.1901   -0.0250    0.1073 H   0  0  0  0  0  0  0  0  0  0  0  0
   -0.4936    1.8048    1.0618 H   0  0  0  0  0  0  0  0  0  0  0  0
   -0.4327    2.8172   -0.3984 H   0  0  0  0  0  0  0  0  0  0  0  0
    1.5252    1.4318   -0.9082 H   0  0  0  0  0  0  0  0  0  0  0  0
   -0.7357   -0.0699   -1.9791 H   0  0  0  0  0  0  0  0  0  0  0  0
    1.0529   -0.6447   -1.9926 H   0  0  0  0  0  0  0  0  0  0  0  0
  1  2  1  0
  2  3  1  0
  3  4  1  0
  4  5  1  0
  5  6  1  0
  6  7  1  0
  7  8  1  0
  8  9  1  0
  8  2  1  0
  9  3  1  0
  1 10  1  0
  1 11  1  0
  1 12  1  0
  2 13  1  0
  3 14  1  0
  4 15  1  0
  4 16  1  0
  5 17  1  0
  5 18  1  0
  7 19  1  0
  7 20  1  0
  8 21  1  0
  9 22  1  0
  9 23  1  0
M  END
