
     RDKit          3D

 22 23  0  0  0  0  0  0  0  0999 V2000
    1.8774   -0.5812   -0.6463 C   0  0  0  0  0  0  0  0  0  0  0  0
    0.7966   -0.4333    0.3895 C   0  0  0  0  0  0  0  0  0  0  0  0
    0.9291    0.9475    1.0380 C   0  0  0  0  0  0  0  0  0  0  0  0
   -0.0980    1.8223    0.3886 C   0  0  0  0  0  0  0  0  0  0  0  0
   -0.6884    0.9927   -0.7343 C   0  0  0  0  0  0  0  0  0  0  0  0
   -0.5757   -0.3964   -0.1601 C   0  0  0  0  0  0  0  0  0  0  0  0
   -1.3092   -1.5023   -0.7306 C   0  0  0  0  0  0  0  0  0  0  0  0
   -1.6543   -0.9920    0.6548 C   0  0  0  0  0  0  0  0  0  0  0  0
    1.7846   -1.5999   -1.0995 H   0  0  0  0  0  0  0  0  0  0  0  0
    1.8778    0.2113   -1.4088 H   0  0  0  0  0  0  0  0  0  0  0  0
    2.8584   -0.5194   -0.1253 H   0  0  0  0  0  0  0  0  0  0  0  0
    0.9456   -1.2355    1.1377 H   0  0  0  0  0  0  0  0  0  0  0  0
    1.9530    1.3301    0.8712 H   0  0  0  0  0  0  0  0  0  0  0  0
    0.6721    0.8156    2.1043 H   0  0  0  0  0  0  0  0  0  0  0  0
   -0.9477    2.0739    1.0896 H   0  0  0  0  0  0  0  0  0  0  0  0
    0.3221    2.7361   -0.0668 H   0  0  0  0  0  0  0  0  0  0  0  0
   -0.0322    1.0372   -1.6417 H   0  0  0  0  0  0  0  0  0  0  0  0
   -1.6977    1.2825   -1.0144 H   0  0  0  0  0  0  0  0  0  0  0  0
   -2.1152   -1.2400   -1.4777 H   0  0  0  0  0  0  0  0  0  0  0  0
   -0.9462   -2.5256   -0.8682 H   0  0  0  0  0  0  0  0  0  0  0  0
   -2.6134   -0.5070    0.8458 H   0  0  0  0  0  0  0  0  0  0  0  0
   -1.3386   -1.7165    1.4541 H   0  0  0  0  0  0  0  0  0  0  0  0
  1  2  1  0
  2  3  1  0
  3  4  1  0
  4  5  1  0
  5  6  1  0
  6  7  1  0
  7  8  1  0
  6  2  1  0
  8  6  1  0
  1  9  1  0
  1 10  1  0
  1 11  1  0
  2 12  1  0
  3 13  1  0
  3 14  1  0
  4 15  1  0
  4 16  1  0
  5 17  1  0
  5 18  1  0
  7 19  1  0
  7 20  1  0
  8 21  1  0
  8 22  1  0
M  END
