
     RDKit          3D

 25 26  0  0  0  0  0  0  0  0999 V2000
    2.1775    0.6599    0.1005 C   0  0  0  0  0  0  0  0  0  0  0  0
    0.8070    0.2365    0.5458 C   0  0  0  0  0  0  0  0  0  0  0  0
    0.7550   -1.2506    0.8909 C   0  0  0  0  0  0  0  0  0  0  0  0
   -0.6670   -1.5682    0.4234 C   0  0  0  0  0  0  0  0  0  0  0  0
   -1.6282   -0.6240    1.0747 C   0  0  0  0  0  0  0  0  0  0  0  0
   -1.5520    0.6914    0.2977 C   0  0  0  0  0  0  0  0  0  0  0  0
   -0.2615    0.4671   -0.4690 C   0  0  0  0  0  0  0  0  0  0  0  0
    0.0245    1.4323   -1.5240 C   0  0  0  0  0  0  0  0  0  0  0  0
   -0.5616   -0.9529   -0.9813 C   0  0  0  0  0  0  0  0  0  0  0  0
    2.3704    0.5338   -0.9624 H   0  0  0  0  0  0  0  0  0  0  0  0
    2.9258    0.1522    0.7407 H   0  0  0  0  0  0  0  0  0  0  0  0
    2.2702    1.7529    0.3200 H   0  0  0  0  0  0  0  0  0  0  0  0
    0.5854    0.7645    1.5105 H   0  0  0  0  0  0  0  0  0  0  0  0
    1.4239   -1.8394    0.2422 H   0  0  0  0  0  0  0  0  0  0  0  0
    0.8729   -1.4279    1.9600 H   0  0  0  0  0  0  0  0  0  0  0  0
   -0.9169   -2.6030    0.4280 H   0  0  0  0  0  0  0  0  0  0  0  0
   -2.6483   -1.0038    1.1505 H   0  0  0  0  0  0  0  0  0  0  0  0
   -1.2522   -0.4292    2.1049 H   0  0  0  0  0  0  0  0  0  0  0  0
   -1.4058    1.5348    1.0026 H   0  0  0  0  0  0  0  0  0  0  0  0
   -2.4237    0.8236   -0.3503 H   0  0  0  0  0  0  0  0  0  0  0  0
    0.6571    0.9323   -2.3136 H   0  0  0  0  0  0  0  0  0  0  0  0
    0.6138    2.2764   -1.1256 H   0  0  0  0  0  0  0  0  0  0  0  0
   -0.9020    1.7293   -2.0395 H   0  0  0  0  0  0  0  0  0  0  0  0
    0.2671   -1.3608   -1.5516 H   0  0  0  0  0  0  0  0  0  0  0  0
   -1.5312   -0.9273   -1.4748 H   0  0  0  0  0  0  0  0  0  0  0  0
  1  2  1  0
  2  3  1  0
  3  4  1  0
  4  5  1  0
  5  6  1  0
  6  7  1  0
  7  8  1  0
  7  9  1  0
  7  2  1  0
  9  4  1  0
  1 10  1  0
  1 11  1  0
  1 12  1  0
  2 13  1  0
  3 14  1  0
  3 15  1  0
  4 16  1  0
  5 17  1  0
  5 18  1  0
  6 19  1  0
  6 20  1  0
  8 21  1  0
  8 22  1  0
  8 23  1  0
  9 24  1  0
  9 25  1  0
M  END
