
     RDKit          3D

 21 22  0  0  0  0  0  0  0  0999 V2000
    0.6961    1.8671   -0.0359 C   0  0  0  0  0  0  0  0  0  0  0  0
    0.1921    0.7121    0.7641 C   0  0  0  0  0  0  0  0  0  0  0  0
    0.6059   -0.7037    0.3822 C   0  0  0  0  0  0  0  0  0  0  0  0
    1.5934   -0.8127   -0.7847 C   0  0  0  0  0  0  0  0  0  0  0  0
    1.0044   -1.4721    1.4758 O   0  0  0  0  0  0  0  0  0  0  0  0
   -0.7233   -0.2323    0.1528 C   0  0  0  0  0  0  0  0  0  0  0  0
   -1.4425   -0.0810   -1.1097 C   0  0  0  0  0  0  0  0  0  0  0  0
   -2.6510   -0.2344   -0.3883 O   0  0  0  0  0  0  0  0  0  0  0  0
   -1.9821   -0.7278    0.7518 C   0  0  0  0  0  0  0  0  0  0  0  0
    1.0776    2.6809    0.6355 H   0  0  0  0  0  0  0  0  0  0  0  0
    1.5165    1.6330   -0.7244 H   0  0  0  0  0  0  0  0  0  0  0  0
   -0.1537    2.2268   -0.6712 H   0  0  0  0  0  0  0  0  0  0  0  0
    0.0305    0.9351    1.8516 H   0  0  0  0  0  0  0  0  0  0  0  0
    1.9721   -1.8586   -0.8152 H   0  0  0  0  0  0  0  0  0  0  0  0
    2.4715   -0.1675   -0.6385 H   0  0  0  0  0  0  0  0  0  0  0  0
    1.0332   -0.6139   -1.7163 H   0  0  0  0  0  0  0  0  0  0  0  0
    1.8667   -1.1296    1.8557 H   0  0  0  0  0  0  0  0  0  0  0  0
   -1.3769    0.8890   -1.6534 H   0  0  0  0  0  0  0  0  0  0  0  0
   -1.3681   -0.9349   -1.8342 H   0  0  0  0  0  0  0  0  0  0  0  0
   -2.2220   -0.1620    1.6880 H   0  0  0  0  0  0  0  0  0  0  0  0
   -2.1403   -1.8135    0.8144 H   0  0  0  0  0  0  0  0  0  0  0  0
  1  2  1  0
  2  3  1  0
  3  4  1  0
  3  5  1  0
  3  6  1  0
  6  7  1  0
  7  8  1  0
  8  9  1  0
  6  2  1  0
  9  6  1  0
  1 10  1  0
  1 11  1  0
  1 12  1  0
  2 13  1  0
  4 14  1  0
  4 15  1  0
  4 16  1  0
  5 17  1  0
  7 18  1  0
  7 19  1  0
  9 20  1  0
  9 21  1  0
M  END
