
     RDKit          3D

 20 20  0  0  0  0  0  0  0  0999 V2000
   -2.4205   -0.0661   -0.2491 C   0  0  0  0  0  0  0  0  0  0  0  0
   -0.9548    0.0420   -0.5779 C   0  0  0  0  0  0  0  0  0  0  0  0
   -0.1821   -1.1561   -0.1119 C   0  0  0  0  0  0  0  0  0  0  0  0
    0.5985   -0.2504    0.8238 C   0  0  0  0  0  0  0  0  0  0  0  0
    2.0548   -0.2969    0.4864 C   0  0  0  0  0  0  0  0  0  0  0  0
    2.2012    0.1378   -0.8322 O   0  0  0  0  0  0  0  0  0  0  0  0
   -0.1649    0.9526    0.3666 C   0  0  0  0  0  0  0  0  0  0  0  0
    0.6380    1.8763   -0.2618 O   0  0  0  0  0  0  0  0  0  0  0  0
   -2.9809   -0.3017   -1.1802 H   0  0  0  0  0  0  0  0  0  0  0  0
   -2.5916   -0.9299    0.4311 H   0  0  0  0  0  0  0  0  0  0  0  0
   -2.8086    0.8263    0.2668 H   0  0  0  0  0  0  0  0  0  0  0  0
   -0.8189    0.3409   -1.6321 H   0  0  0  0  0  0  0  0  0  0  0  0
    0.4215   -1.5690   -0.9612 H   0  0  0  0  0  0  0  0  0  0  0  0
   -0.7351   -1.9476    0.3957 H   0  0  0  0  0  0  0  0  0  0  0  0
    0.3605   -0.4738    1.8829 H   0  0  0  0  0  0  0  0  0  0  0  0
    2.3746   -1.3629    0.5105 H   0  0  0  0  0  0  0  0  0  0  0  0
    2.6812    0.3384    1.1451 H   0  0  0  0  0  0  0  0  0  0  0  0
    3.0214   -0.2918   -1.1803 H   0  0  0  0  0  0  0  0  0  0  0  0
   -0.8636    1.3987    1.1079 H   0  0  0  0  0  0  0  0  0  0  0  0
    0.1693    2.7331   -0.4302 H   0  0  0  0  0  0  0  0  0  0  0  0
  1  2  1  0
  2  3  1  0
  3  4  1  0
  4  5  1  0
  5  6  1  0
  4  7  1  0
  7  8  1  0
  7  2  1  0
  1  9  1  0
  1 10  1  0
  1 11  1  0
  2 12  1  0
  3 13  1  0
  3 14  1  0
  4 15  1  0
  5 16  1  0
  5 17  1  0
  6 18  1  0
  7 19  1  0
  8 20  1  0
M  END
