
     RDKit          3D

 19 20  0  0  0  0  0  0  0  0999 V2000
    2.1976    0.2580   -0.1594 C   0  0  0  0  0  0  0  0  0  0  0  0
    0.7196   -0.0176   -0.4140 C   0  0  0  0  0  0  0  0  0  0  0  0
    0.3472   -1.2078    0.4298 C   0  0  0  0  0  0  0  0  0  0  0  0
   -1.1130   -1.4353    0.3197 C   0  0  0  0  0  0  0  0  0  0  0  0
   -1.5039   -2.5796    0.4039 O   0  0  0  0  0  0  0  0  0  0  0  0
   -2.0486   -0.3119    0.1159 C   0  0  0  0  0  0  0  0  0  0  0  0
   -2.0114    0.3611   -1.1263 O   0  0  0  0  0  0  0  0  0  0  0  0
   -1.5376    0.9958    0.0030 C   0  0  0  0  0  0  0  0  0  0  0  0
   -0.0433    1.1809    0.0464 C   0  0  0  0  0  0  0  0  0  0  0  0
    2.7484   -0.6999    0.0163 H   0  0  0  0  0  0  0  0  0  0  0  0
    2.3167    0.8723    0.7755 H   0  0  0  0  0  0  0  0  0  0  0  0
    2.5721    0.7967   -1.0549 H   0  0  0  0  0  0  0  0  0  0  0  0
    0.5772   -0.1650   -1.4829 H   0  0  0  0  0  0  0  0  0  0  0  0
    0.9464   -2.0975    0.1422 H   0  0  0  0  0  0  0  0  0  0  0  0
    0.5393   -0.9145    1.4946 H   0  0  0  0  0  0  0  0  0  0  0  0
   -3.1012   -0.4563    0.4618 H   0  0  0  0  0  0  0  0  0  0  0  0
   -2.0933    1.8587    0.4391 H   0  0  0  0  0  0  0  0  0  0  0  0
    0.1858    2.0111   -0.6856 H   0  0  0  0  0  0  0  0  0  0  0  0
    0.3018    1.5507    1.0515 H   0  0  0  0  0  0  0  0  0  0  0  0
  1  2  1  0
  2  3  1  0
  3  4  1  0
  4  5  2  0
  4  6  1  0
  6  7  1  0
  7  8  1  0
  8  9  1  0
  9  2  1  0
  8  6  1  0
  1 10  1  0
  1 11  1  0
  1 12  1  0
  2 13  1  0
  3 14  1  0
  3 15  1  0
  6 16  1  0
  8 17  1  0
  9 18  1  0
  9 19  1  0
M  END
