
     RDKit          3D

 21 23  0  0  0  0  0  0  0  0999 V2000
    1.7861   -0.1408   -1.1696 C   0  0  0  0  0  0  0  0  0  0  0  0
    1.1240   -0.1430    0.1898 C   0  0  0  0  0  0  0  0  0  0  0  0
    0.2823   -1.3588    0.4618 C   0  0  0  0  0  0  0  0  0  0  0  0
   -1.1617   -1.3998    0.0665 C   0  0  0  0  0  0  0  0  0  0  0  0
   -1.6140   -0.4777   -1.0619 C   0  0  0  0  0  0  0  0  0  0  0  0
   -0.7789    0.6086   -1.0029 O   0  0  0  0  0  0  0  0  0  0  0  0
   -0.1730    0.6769    0.2268 C   0  0  0  0  0  0  0  0  0  0  0  0
   -0.0560    2.0092    0.8717 C   0  0  0  0  0  0  0  0  0  0  0  0
   -0.7337   -0.4417    1.0611 C   0  0  0  0  0  0  0  0  0  0  0  0
    2.6968   -0.7627   -1.0801 H   0  0  0  0  0  0  0  0  0  0  0  0
    1.1319   -0.6104   -1.9279 H   0  0  0  0  0  0  0  0  0  0  0  0
    2.1077    0.8838   -1.4399 H   0  0  0  0  0  0  0  0  0  0  0  0
    1.7992    0.0675    1.0185 H   0  0  0  0  0  0  0  0  0  0  0  0
    0.6925   -2.2034    1.0122 H   0  0  0  0  0  0  0  0  0  0  0  0
   -1.6716   -2.3388    0.2265 H   0  0  0  0  0  0  0  0  0  0  0  0
   -2.6419   -0.1202   -0.7682 H   0  0  0  0  0  0  0  0  0  0  0  0
   -1.6270   -0.9892   -2.0318 H   0  0  0  0  0  0  0  0  0  0  0  0
    0.9743    2.3523    1.0368 H   0  0  0  0  0  0  0  0  0  0  0  0
   -0.5358    1.9529    1.8853 H   0  0  0  0  0  0  0  0  0  0  0  0
   -0.6397    2.8081    0.3317 H   0  0  0  0  0  0  0  0  0  0  0  0
   -0.9617   -0.3728    2.0939 H   0  0  0  0  0  0  0  0  0  0  0  0
  1  2  1  0
  2  3  1  0
  3  4  1  0
  4  5  1  0
  5  6  1  0
  6  7  1  0
  7  8  1  0
  7  9  1  0
  7  2  1  0
  9  3  1  0
  9  4  1  0
  1 10  1  0
  1 11  1  0
  1 12  1  0
  2 13  1  0
  3 14  1  0
  4 15  1  0
  5 16  1  0
  5 17  1  0
  8 18  1  0
  8 19  1  0
  8 20  1  0
  9 21  1  0
M  END
