
     RDKit          3D

 21 22  0  0  0  0  0  0  0  0999 V2000
   -2.3851   -0.1238    0.2388 C   0  0  0  0  0  0  0  0  0  0  0  0
   -1.1125   -0.1692   -0.5410 C   0  0  0  0  0  0  0  0  0  0  0  0
   -0.5129   -1.5337   -0.6554 C   0  0  0  0  0  0  0  0  0  0  0  0
    0.8509   -1.4284   -0.5510 O   0  0  0  0  0  0  0  0  0  0  0  0
    1.1725   -0.2130   -0.0110 C   0  0  0  0  0  0  0  0  0  0  0  0
    2.3081   -0.1232    0.9993 C   0  0  0  0  0  0  0  0  0  0  0  0
    1.0845    1.0376   -0.9074 C   0  0  0  0  0  0  0  0  0  0  0  0
   -0.0001    0.6474    0.0667 C   0  0  0  0  0  0  0  0  0  0  0  0
   -0.2008    1.3725    1.2127 O   0  0  0  0  0  0  0  0  0  0  0  0
   -3.1693    0.4696   -0.3084 H   0  0  0  0  0  0  0  0  0  0  0  0
   -2.8479   -1.1304    0.3869 H   0  0  0  0  0  0  0  0  0  0  0  0
   -2.2974    0.3258    1.2359 H   0  0  0  0  0  0  0  0  0  0  0  0
   -1.2992    0.2782   -1.5612 H   0  0  0  0  0  0  0  0  0  0  0  0
   -0.9339   -2.2760    0.0300 H   0  0  0  0  0  0  0  0  0  0  0  0
   -0.7372   -1.9037   -1.6918 H   0  0  0  0  0  0  0  0  0  0  0  0
    3.1855    0.2741    0.4182 H   0  0  0  0  0  0  0  0  0  0  0  0
    2.5852   -1.0944    1.4134 H   0  0  0  0  0  0  0  0  0  0  0  0
    2.0791    0.5829    1.8223 H   0  0  0  0  0  0  0  0  0  0  0  0
    0.9789    0.7763   -1.9694 H   0  0  0  0  0  0  0  0  0  0  0  0
    1.6714    1.9186   -0.6299 H   0  0  0  0  0  0  0  0  0  0  0  0
   -0.4197    2.3128    1.0023 H   0  0  0  0  0  0  0  0  0  0  0  0
  1  2  1  0
  2  3  1  0
  3  4  1  0
  4  5  1  0
  5  6  1  0
  5  7  1  0
  7  8  1  0
  8  9  1  0
  8  2  1  0
  8  5  1  0
  1 10  1  0
  1 11  1  0
  1 12  1  0
  2 13  1  0
  3 14  1  0
  3 15  1  0
  6 16  1  0
  6 17  1  0
  6 18  1  0
  7 19  1  0
  7 20  1  0
  9 21  1  0
M  END
