
     RDKit          3D

 20 20  0  0  0  0  0  0  0  0999 V2000
   -2.5435    0.8148    0.0570 C   0  0  0  0  0  0  0  0  0  0  0  0
   -1.1647    0.3145    0.2887 C   0  0  0  0  0  0  0  0  0  0  0  0
   -0.8657   -1.0149   -0.3146 C   0  0  0  0  0  0  0  0  0  0  0  0
    0.6699   -1.0375   -0.2661 C   0  0  0  0  0  0  0  0  0  0  0  0
    1.0340   -1.8650    0.7909 O   0  0  0  0  0  0  0  0  0  0  0  0
    0.9567    0.3836    0.1587 C   0  0  0  0  0  0  0  0  0  0  0  0
    2.2363    0.9266   -0.3316 C   0  0  0  0  0  0  0  0  0  0  0  0
   -0.1701    1.1280   -0.2617 O   0  0  0  0  0  0  0  0  0  0  0  0
   -3.2322    0.2556    0.7108 H   0  0  0  0  0  0  0  0  0  0  0  0
   -2.8030    0.7810   -1.0068 H   0  0  0  0  0  0  0  0  0  0  0  0
   -2.5838    1.8790    0.3938 H   0  0  0  0  0  0  0  0  0  0  0  0
   -0.9407    0.2627    1.3846 H   0  0  0  0  0  0  0  0  0  0  0  0
   -1.2700   -1.8719    0.2237 H   0  0  0  0  0  0  0  0  0  0  0  0
   -1.1218   -1.0488   -1.3905 H   0  0  0  0  0  0  0  0  0  0  0  0
    1.1107   -1.3174   -1.2204 H   0  0  0  0  0  0  0  0  0  0  0  0
    1.9185   -2.2553    0.7076 H   0  0  0  0  0  0  0  0  0  0  0  0
    0.9332    0.4593    1.2830 H   0  0  0  0  0  0  0  0  0  0  0  0
    2.6002    0.5117   -1.2895 H   0  0  0  0  0  0  0  0  0  0  0  0
    3.0364    0.6645    0.4218 H   0  0  0  0  0  0  0  0  0  0  0  0
    2.1997    2.0295   -0.3393 H   0  0  0  0  0  0  0  0  0  0  0  0
  1  2  1  0
  2  3  1  0
  3  4  1  0
  4  5  1  0
  4  6  1  0
  6  7  1  0
  6  8  1  0
  8  2  1  0
  1  9  1  0
  1 10  1  0
  1 11  1  0
  2 12  1  0
  3 13  1  0
  3 14  1  0
  4 15  1  0
  5 16  1  0
  6 17  1  0
  7 18  1  0
  7 19  1  0
  7 20  1  0
M  END
