
     RDKit          3D

 21 21  0  0  0  0  0  0  0  0999 V2000
    1.6969   -0.6254   -0.8489 C   0  0  0  0  0  0  0  0  0  0  0  0
    0.7610   -0.3983    0.2691 C   0  0  0  0  0  0  0  0  0  0  0  0
    1.1939    0.8806    0.9947 C   0  0  0  0  0  0  0  0  0  0  0  0
    0.6458    1.8523    0.1447 O   0  0  0  0  0  0  0  0  0  0  0  0
   -0.6962    1.4311    0.0886 C   0  0  0  0  0  0  0  0  0  0  0  0
   -0.6443   -0.0681   -0.1108 C   0  0  0  0  0  0  0  0  0  0  0  0
   -1.6017   -0.7674    0.8446 C   0  0  0  0  0  0  0  0  0  0  0  0
   -1.0175   -0.4069   -1.4760 C   0  0  0  0  0  0  0  0  0  0  0  0
   -0.7921   -1.4859   -1.9824 O   0  0  0  0  0  0  0  0  0  0  0  0
    2.6264    0.0120   -0.7740 H   0  0  0  0  0  0  0  0  0  0  0  0
    1.3060   -0.4635   -1.8561 H   0  0  0  0  0  0  0  0  0  0  0  0
    2.0773   -1.6830   -0.7877 H   0  0  0  0  0  0  0  0  0  0  0  0
    0.7733   -1.2134    0.9966 H   0  0  0  0  0  0  0  0  0  0  0  0
    2.2811    0.9617    1.0691 H   0  0  0  0  0  0  0  0  0  0  0  0
    0.6522    0.9066    1.9389 H   0  0  0  0  0  0  0  0  0  0  0  0
   -1.2559    1.9574   -0.6920 H   0  0  0  0  0  0  0  0  0  0  0  0
   -1.1249    1.6704    1.1025 H   0  0  0  0  0  0  0  0  0  0  0  0
   -1.7922   -1.7729    0.3936 H   0  0  0  0  0  0  0  0  0  0  0  0
   -2.5153   -0.1819    0.9816 H   0  0  0  0  0  0  0  0  0  0  0  0
   -1.0518   -0.9253    1.7965 H   0  0  0  0  0  0  0  0  0  0  0  0
   -1.5219    0.3198   -2.0925 H   0  0  0  0  0  0  0  0  0  0  0  0
  1  2  1  0
  2  3  1  0
  3  4  1  0
  4  5  1  0
  5  6  1  0
  6  7  1  0
  6  8  1  0
  8  9  2  0
  6  2  1  0
  1 10  1  0
  1 11  1  0
  1 12  1  0
  2 13  1  0
  3 14  1  0
  3 15  1  0
  5 16  1  0
  5 17  1  0
  7 18  1  0
  7 19  1  0
  7 20  1  0
  8 21  1  0
M  END
