
     RDKit          2D

 19 21  0  0  0  0  0  0  0  0999 V2000
   -0.0000   -3.1820    0.0000 C   0  0  0  0  0  0  0  0  0  0  0  0
   -1.0607   -1.4213    0.0000 C   0  0  0  0  0  0  0  0  0  0  0  0
   -2.1213   -1.0607    0.0000 C   0  0  0  0  0  0  0  0  0  0  0  0
   -1.6578   -2.4872    0.0000 O   0  0  0  0  0  0  0  0  0  0  0  0
   -0.1578   -2.4872    0.0000 C   0  0  0  0  0  0  0  0  0  0  0  0
   -0.0000   -1.0607    0.0000 C   0  0  0  0  0  0  0  0  0  0  0  0
    1.0607    0.0000    0.0000 C   0  0  0  0  0  0  0  0  0  0  0  0
    0.0000    1.0607    0.0000 O   0  0  0  0  0  0  0  0  0  0  0  0
   -1.0607    0.0000    0.0000 C   0  0  0  0  0  0  0  0  0  0  0  0
    1.0607   -4.2426    0.0000 H   0  0  0  0  0  0  0  0  0  0  0  0
   -0.8311   -4.2458    0.0000 H   0  0  0  0  0  0  0  0  0  0  0  0
    1.1820   -2.2585    0.0000 H   0  0  0  0  0  0  0  0  0  0  0  0
   -1.8331   -3.4071    0.0000 H   0  0  0  0  0  0  0  0  0  0  0  0
   -3.6213   -1.0607    0.0000 H   0  0  0  0  0  0  0  0  0  0  0  0
   -0.3371   -3.2640    0.0000 H   0  0  0  0  0  0  0  0  0  0  0  0
    1.3365   -2.6179    0.0000 H   0  0  0  0  0  0  0  0  0  0  0  0
    2.1213    1.0607    0.0000 H   0  0  0  0  0  0  0  0  0  0  0  0
    2.1213   -1.0607    0.0000 H   0  0  0  0  0  0  0  0  0  0  0  0
   -2.1213    1.0607    0.0000 H   0  0  0  0  0  0  0  0  0  0  0  0
  1  2  1  0
  2  3  1  0
  3  4  1  0
  4  5  1  0
  5  6  1  0
  6  7  1  0
  7  8  1  0
  8  9  1  0
  6  2  1  0
  9  3  1  0
  9  6  1  0
  1 10  1  0
  1 11  1  0
  1 12  1  0
  2 13  1  0
  3 14  1  0
  5 15  1  0
  5 16  1  0
  7 17  1  0
  7 18  1  0
  9 19  1  0
M  END
