
     RDKit          3D

 19 21  0  0  0  0  0  0  0  0999 V2000
    1.7973    0.2077    0.7356 C   0  0  0  0  0  0  0  0  0  0  0  0
    0.9140    0.0970   -0.4622 C   0  0  0  0  0  0  0  0  0  0  0  0
   -0.0401    1.2669   -0.5980 C   0  0  0  0  0  0  0  0  0  0  0  0
   -0.9007    1.0400    0.6508 C   0  0  0  0  0  0  0  0  0  0  0  0
   -1.3255   -0.4030    0.3372 C   0  0  0  0  0  0  0  0  0  0  0  0
   -1.2684   -0.4512   -1.1185 C   0  0  0  0  0  0  0  0  0  0  0  0
   -0.8896    0.8291   -1.5795 O   0  0  0  0  0  0  0  0  0  0  0  0
   -0.1502   -0.9886   -0.3066 C   0  0  0  0  0  0  0  0  0  0  0  0
    0.1950   -2.3000   -0.2774 O   0  0  0  0  0  0  0  0  0  0  0  0
    1.3481   -0.2370    1.6372 H   0  0  0  0  0  0  0  0  0  0  0  0
    2.7618   -0.3517    0.5590 H   0  0  0  0  0  0  0  0  0  0  0  0
    2.1240    1.2565    0.9466 H   0  0  0  0  0  0  0  0  0  0  0  0
    1.4430   -0.0836   -1.4032 H   0  0  0  0  0  0  0  0  0  0  0  0
    0.3937    2.2276   -0.6793 H   0  0  0  0  0  0  0  0  0  0  0  0
   -0.2609    1.0257    1.5308 H   0  0  0  0  0  0  0  0  0  0  0  0
   -1.7571    1.7152    0.6835 H   0  0  0  0  0  0  0  0  0  0  0  0
   -2.0172   -0.9128    0.9806 H   0  0  0  0  0  0  0  0  0  0  0  0
   -1.8143   -1.1246   -1.7651 H   0  0  0  0  0  0  0  0  0  0  0  0
   -0.5526   -2.8133    0.1284 H   0  0  0  0  0  0  0  0  0  0  0  0
  1  2  1  0
  2  3  1  0
  3  4  1  0
  4  5  1  0
  5  6  1  0
  6  7  1  0
  6  8  1  0
  8  9  1  0
  8  2  1  0
  7  3  1  0
  8  5  1  0
  1 10  1  0
  1 11  1  0
  1 12  1  0
  2 13  1  0
  3 14  1  0
  4 15  1  0
  4 16  1  0
  5 17  1  0
  6 18  1  0
  9 19  1  0
M  END
