
     RDKit          3D

 23 24  0  0  0  0  0  0  0  0999 V2000
   -2.0362   -0.9625    0.3092 C   0  0  0  0  0  0  0  0  0  0  0  0
   -1.1004    0.1850    0.3690 C   0  0  0  0  0  0  0  0  0  0  0  0
   -0.5618    0.5782   -1.0122 C   0  0  0  0  0  0  0  0  0  0  0  0
    0.8606    0.8855   -0.7103 C   0  0  0  0  0  0  0  0  0  0  0  0
    0.8586    1.9344    0.4110 C   0  0  0  0  0  0  0  0  0  0  0  0
    0.5644    1.2404    1.5858 O   0  0  0  0  0  0  0  0  0  0  0  0
    0.1321   -0.0441    1.1795 C   0  0  0  0  0  0  0  0  0  0  0  0
    1.2539   -0.3079    0.1656 C   0  0  0  0  0  0  0  0  0  0  0  0
    1.1838   -1.6018   -0.5062 C   0  0  0  0  0  0  0  0  0  0  0  0
   -2.7851   -0.7457   -0.5044 H   0  0  0  0  0  0  0  0  0  0  0  0
   -2.6524   -0.9511    1.2506 H   0  0  0  0  0  0  0  0  0  0  0  0
   -1.5923   -1.9424    0.1474 H   0  0  0  0  0  0  0  0  0  0  0  0
   -1.6650    1.0648    0.7873 H   0  0  0  0  0  0  0  0  0  0  0  0
   -0.7460   -0.1757   -1.7680 H   0  0  0  0  0  0  0  0  0  0  0  0
   -1.0524    1.5419   -1.3302 H   0  0  0  0  0  0  0  0  0  0  0  0
    1.5226    1.0921   -1.5135 H   0  0  0  0  0  0  0  0  0  0  0  0
    0.0389    2.6329    0.1621 H   0  0  0  0  0  0  0  0  0  0  0  0
    1.8329    2.4330    0.4335 H   0  0  0  0  0  0  0  0  0  0  0  0
    0.0838   -0.7442    1.9758 H   0  0  0  0  0  0  0  0  0  0  0  0
    2.2004   -0.1143    0.7056 H   0  0  0  0  0  0  0  0  0  0  0  0
    2.2367   -1.9450   -0.7416 H   0  0  0  0  0  0  0  0  0  0  0  0
    0.7561   -2.4333    0.0984 H   0  0  0  0  0  0  0  0  0  0  0  0
    0.6669   -1.6201   -1.4942 H   0  0  0  0  0  0  0  0  0  0  0  0
  1  2  1  0
  2  3  1  0
  3  4  1  0
  4  5  1  0
  5  6  1  0
  6  7  1  0
  7  8  1  0
  8  9  1  0
  7  2  1  0
  8  4  1  0
  1 10  1  0
  1 11  1  0
  1 12  1  0
  2 13  1  0
  3 14  1  0
  3 15  1  0
  4 16  1  0
  5 17  1  0
  5 18  1  0
  7 19  1  0
  8 20  1  0
  9 21  1  0
  9 22  1  0
  9 23  1  0
M  END
