
     RDKit          3D

 21 22  0  0  0  0  0  0  0  0999 V2000
    2.3883    0.4041    0.3358 C   0  0  0  0  0  0  0  0  0  0  0  0
    1.2758   -0.3943   -0.1953 C   0  0  0  0  0  0  0  0  0  0  0  0
    0.2530    0.2849   -1.0612 C   0  0  0  0  0  0  0  0  0  0  0  0
   -0.6411   -0.8559   -0.6635 C   0  0  0  0  0  0  0  0  0  0  0  0
   -2.1006   -0.6746   -0.8040 C   0  0  0  0  0  0  0  0  0  0  0  0
   -0.0030   -0.4313    0.6335 C   0  0  0  0  0  0  0  0  0  0  0  0
   -0.1447   -0.9246    1.7684 O   0  0  0  0  0  0  0  0  0  0  0  0
   -0.2209    0.9806    0.1744 C   0  0  0  0  0  0  0  0  0  0  0  0
   -1.5072    1.4564    0.1859 O   0  0  0  0  0  0  0  0  0  0  0  0
    2.4490    0.2324    1.4501 H   0  0  0  0  0  0  0  0  0  0  0  0
    3.3554   -0.0376   -0.0484 H   0  0  0  0  0  0  0  0  0  0  0  0
    2.4177    1.4616    0.0653 H   0  0  0  0  0  0  0  0  0  0  0  0
    1.5571   -1.4066   -0.5315 H   0  0  0  0  0  0  0  0  0  0  0  0
    0.3853    0.6637   -1.9784 H   0  0  0  0  0  0  0  0  0  0  0  0
   -0.2203   -1.8385   -0.9736 H   0  0  0  0  0  0  0  0  0  0  0  0
   -2.5199   -1.6253   -1.2515 H   0  0  0  0  0  0  0  0  0  0  0  0
   -2.4173    0.1241   -1.5036 H   0  0  0  0  0  0  0  0  0  0  0  0
   -2.6128   -0.6016    0.1901 H   0  0  0  0  0  0  0  0  0  0  0  0
   -0.4425   -0.2975    2.5017 H   0  0  0  0  0  0  0  0  0  0  0  0
    0.4683    1.7363    0.5999 H   0  0  0  0  0  0  0  0  0  0  0  0
   -1.7193    1.7437    1.1057 H   0  0  0  0  0  0  0  0  0  0  0  0
  1  2  1  0
  2  3  1  0
  3  4  1  0
  4  5  1  0
  4  6  1  0
  6  7  1  0
  6  8  1  0
  8  9  1  0
  6  2  1  0
  8  3  1  0
  1 10  1  0
  1 11  1  0
  1 12  1  0
  2 13  1  0
  3 14  1  0
  4 15  1  0
  5 16  1  0
  5 17  1  0
  5 18  1  0
  7 19  1  0
  8 20  1  0
  9 21  1  0
M  END
