
     RDKit          3D

 23 24  0  0  0  0  0  0  0  0999 V2000
   -1.8722   -1.0209    0.3794 C   0  0  0  0  0  0  0  0  0  0  0  0
   -1.4598    0.0591   -0.5715 C   0  0  0  0  0  0  0  0  0  0  0  0
   -1.9377    1.4112   -0.0176 C   0  0  0  0  0  0  0  0  0  0  0  0
   -0.7979    1.3218    0.8227 O   0  0  0  0  0  0  0  0  0  0  0  0
   -0.1695    0.7576   -0.2603 C   0  0  0  0  0  0  0  0  0  0  0  0
    1.0303   -0.0730   -0.0413 C   0  0  0  0  0  0  0  0  0  0  0  0
    1.4019   -0.9407   -1.2499 C   0  0  0  0  0  0  0  0  0  0  0  0
    1.5119   -0.5196    1.2721 C   0  0  0  0  0  0  0  0  0  0  0  0
    2.1941    0.6813    0.6313 C   0  0  0  0  0  0  0  0  0  0  0  0
   -1.4078   -1.9898    0.2132 H   0  0  0  0  0  0  0  0  0  0  0  0
   -2.9815   -1.1756    0.2288 H   0  0  0  0  0  0  0  0  0  0  0  0
   -1.7608   -0.6313    1.4175 H   0  0  0  0  0  0  0  0  0  0  0  0
   -1.6722   -0.0953   -1.6311 H   0  0  0  0  0  0  0  0  0  0  0  0
   -2.8943    1.3702    0.5004 H   0  0  0  0  0  0  0  0  0  0  0  0
   -1.7854    2.2376   -0.7431 H   0  0  0  0  0  0  0  0  0  0  0  0
    0.0213    1.5421   -1.0340 H   0  0  0  0  0  0  0  0  0  0  0  0
    2.1381   -1.7058   -0.9954 H   0  0  0  0  0  0  0  0  0  0  0  0
    1.7432   -0.2776   -2.0762 H   0  0  0  0  0  0  0  0  0  0  0  0
    0.4357   -1.3743   -1.5982 H   0  0  0  0  0  0  0  0  0  0  0  0
    2.1671   -1.4194    1.2837 H   0  0  0  0  0  0  0  0  0  0  0  0
    0.9752   -0.3628    2.2121 H   0  0  0  0  0  0  0  0  0  0  0  0
    1.9592    1.6456    1.1220 H   0  0  0  0  0  0  0  0  0  0  0  0
    3.1610    0.5596    0.1354 H   0  0  0  0  0  0  0  0  0  0  0  0
  1  2  1  0
  2  3  1  0
  3  4  1  0
  4  5  1  0
  5  6  1  0
  6  7  1  0
  6  8  1  0
  8  9  1  0
  5  2  1  0
  9  6  1  0
  1 10  1  0
  1 11  1  0
  1 12  1  0
  2 13  1  0
  3 14  1  0
  3 15  1  0
  5 16  1  0
  7 17  1  0
  7 18  1  0
  7 19  1  0
  8 20  1  0
  8 21  1  0
  9 22  1  0
  9 23  1  0
M  END
