
     RDKit          3D

 24 24  0  0  0  0  0  0  0  0999 V2000
   -1.4520    1.7350   -0.0116 C   0  0  0  0  0  0  0  0  0  0  0  0
   -0.4670    0.6530   -0.4393 C   0  0  0  0  0  0  0  0  0  0  0  0
    0.8931    1.2786   -0.4638 C   0  0  0  0  0  0  0  0  0  0  0  0
    2.0153    0.3354   -0.2095 C   0  0  0  0  0  0  0  0  0  0  0  0
    1.6203   -1.0679   -0.5754 C   0  0  0  0  0  0  0  0  0  0  0  0
    0.5319   -1.4919    0.4058 C   0  0  0  0  0  0  0  0  0  0  0  0
   -0.5557   -0.4851    0.5367 C   0  0  0  0  0  0  0  0  0  0  0  0
   -1.8794   -1.1731    0.4438 C   0  0  0  0  0  0  0  0  0  0  0  0
   -1.0041    2.1910    0.9095 H   0  0  0  0  0  0  0  0  0  0  0  0
   -1.4557    2.5475   -0.7889 H   0  0  0  0  0  0  0  0  0  0  0  0
   -2.4438    1.3456    0.2151 H   0  0  0  0  0  0  0  0  0  0  0  0
   -0.7712    0.3568   -1.4675 H   0  0  0  0  0  0  0  0  0  0  0  0
    0.9611    2.1475    0.2487 H   0  0  0  0  0  0  0  0  0  0  0  0
    1.0540    1.7339   -1.4723 H   0  0  0  0  0  0  0  0  0  0  0  0
    2.9274    0.6639   -0.7497 H   0  0  0  0  0  0  0  0  0  0  0  0
    2.2161    0.3346    0.8919 H   0  0  0  0  0  0  0  0  0  0  0  0
    1.3113   -1.1875   -1.6219 H   0  0  0  0  0  0  0  0  0  0  0  0
    2.5188   -1.7112   -0.3961 H   0  0  0  0  0  0  0  0  0  0  0  0
    0.1307   -2.5049    0.1555 H   0  0  0  0  0  0  0  0  0  0  0  0
    1.0661   -1.6375    1.3856 H   0  0  0  0  0  0  0  0  0  0  0  0
   -0.5005   -0.0257    1.5668 H   0  0  0  0  0  0  0  0  0  0  0  0
   -2.6374   -0.6037    1.0446 H   0  0  0  0  0  0  0  0  0  0  0  0
   -2.2885   -1.2631   -0.5632 H   0  0  0  0  0  0  0  0  0  0  0  0
   -1.7909   -2.1711    0.9553 H   0  0  0  0  0  0  0  0  0  0  0  0
  1  2  1  0
  2  3  1  0
  3  4  1  0
  4  5  1  0
  5  6  1  0
  6  7  1  0
  7  8  1  0
  7  2  1  0
  1  9  1  0
  1 10  1  0
  1 11  1  0
  2 12  1  0
  3 13  1  0
  3 14  1  0
  4 15  1  0
  4 16  1  0
  5 17  1  0
  5 18  1  0
  6 19  1  0
  6 20  1  0
  7 21  1  0
  8 22  1  0
  8 23  1  0
  8 24  1  0
M  END
