
     RDKit          3D

 21 22  0  0  0  0  0  0  0  0999 V2000
   -2.3692    0.3762    0.0538 C   0  0  0  0  0  0  0  0  0  0  0  0
   -1.0985   -0.3840    0.3002 C   0  0  0  0  0  0  0  0  0  0  0  0
   -0.4909   -0.6749   -1.0575 C   0  0  0  0  0  0  0  0  0  0  0  0
    0.8948   -0.1134   -1.0556 C   0  0  0  0  0  0  0  0  0  0  0  0
    1.8345   -1.1313   -0.9600 O   0  0  0  0  0  0  0  0  0  0  0  0
    2.0772   -0.7886    0.3766 C   0  0  0  0  0  0  0  0  0  0  0  0
    1.1869    0.4105    0.3067 C   0  0  0  0  0  0  0  0  0  0  0  0
    1.9098    1.5771    0.4012 O   0  0  0  0  0  0  0  0  0  0  0  0
   -0.0868    0.3474    1.1049 C   0  0  0  0  0  0  0  0  0  0  0  0
   -2.8613    0.7554    0.9420 H   0  0  0  0  0  0  0  0  0  0  0  0
   -2.2118    1.1763   -0.7174 H   0  0  0  0  0  0  0  0  0  0  0  0
   -3.0734   -0.3492   -0.4512 H   0  0  0  0  0  0  0  0  0  0  0  0
   -1.3750   -1.3136    0.8473 H   0  0  0  0  0  0  0  0  0  0  0  0
   -1.0476   -0.2093   -1.8873 H   0  0  0  0  0  0  0  0  0  0  0  0
   -0.5415   -1.7661   -1.2091 H   0  0  0  0  0  0  0  0  0  0  0  0
    1.1418    0.6256   -1.8326 H   0  0  0  0  0  0  0  0  0  0  0  0
    1.7281   -1.5983    1.0285 H   0  0  0  0  0  0  0  0  0  0  0  0
    3.1738   -0.5548    0.4688 H   0  0  0  0  0  0  0  0  0  0  0  0
    1.5340    2.3443   -0.0714 H   0  0  0  0  0  0  0  0  0  0  0  0
   -0.3952    1.4019    1.3010 H   0  0  0  0  0  0  0  0  0  0  0  0
    0.0701   -0.1312    2.1113 H   0  0  0  0  0  0  0  0  0  0  0  0
  1  2  1  0
  2  3  1  0
  3  4  1  0
  4  5  1  0
  5  6  1  0
  6  7  1  0
  7  8  1  0
  7  9  1  0
  9  2  1  0
  7  4  1  0
  1 10  1  0
  1 11  1  0
  1 12  1  0
  2 13  1  0
  3 14  1  0
  3 15  1  0
  4 16  1  0
  6 17  1  0
  6 18  1  0
  8 19  1  0
  9 20  1  0
  9 21  1  0
M  END
