
     RDKit          3D

 21 22  0  0  0  0  0  0  0  0999 V2000
    1.6934   -0.6059   -0.7335 C   0  0  0  0  0  0  0  0  0  0  0  0
    0.3901    0.1108   -0.8508 C   0  0  0  0  0  0  0  0  0  0  0  0
    0.4486    1.4910   -0.1671 C   0  0  0  0  0  0  0  0  0  0  0  0
   -0.9793    1.8495   -0.1687 C   0  0  0  0  0  0  0  0  0  0  0  0
   -1.6367    0.6984    0.0696 C   0  0  0  0  0  0  0  0  0  0  0  0
   -0.6280   -0.4062    0.1894 C   0  0  0  0  0  0  0  0  0  0  0  0
   -1.1174   -1.7452   -0.0527 C   0  0  0  0  0  0  0  0  0  0  0  0
    0.1410   -0.1468    1.4095 C   0  0  0  0  0  0  0  0  0  0  0  0
    0.7681    1.0215    1.2265 C   0  0  0  0  0  0  0  0  0  0  0  0
    1.6628   -1.4550    0.0027 H   0  0  0  0  0  0  0  0  0  0  0  0
    2.4921    0.0841   -0.3533 H   0  0  0  0  0  0  0  0  0  0  0  0
    2.0091   -1.0725   -1.6924 H   0  0  0  0  0  0  0  0  0  0  0  0
   -0.0358    0.1627   -1.8462 H   0  0  0  0  0  0  0  0  0  0  0  0
    1.1396    2.1676   -0.5944 H   0  0  0  0  0  0  0  0  0  0  0  0
   -1.5021    2.7744   -0.3134 H   0  0  0  0  0  0  0  0  0  0  0  0
   -2.7024    0.5602    0.1636 H   0  0  0  0  0  0  0  0  0  0  0  0
   -0.5010   -2.5021    0.4432 H   0  0  0  0  0  0  0  0  0  0  0  0
   -2.1969   -1.8195    0.1927 H   0  0  0  0  0  0  0  0  0  0  0  0
   -1.0595   -1.9772   -1.1572 H   0  0  0  0  0  0  0  0  0  0  0  0
    0.2177   -0.7467    2.3014 H   0  0  0  0  0  0  0  0  0  0  0  0
    1.3966    1.5567    1.9310 H   0  0  0  0  0  0  0  0  0  0  0  0
  1  2  1  0
  2  3  1  0
  3  4  1  0
  4  5  2  0
  5  6  1  0
  6  7  1  0
  6  8  1  0
  8  9  2  0
  6  2  1  0
  9  3  1  0
  1 10  1  0
  1 11  1  0
  1 12  1  0
  2 13  1  0
  3 14  1  0
  4 15  1  0
  5 16  1  0
  7 17  1  0
  7 18  1  0
  7 19  1  0
  8 20  1  0
  9 21  1  0
M  END
