
     RDKit          3D

 21 21  0  0  0  0  0  0  0  0999 V2000
    0.8215   -1.8347   -0.4101 C   0  0  0  0  0  0  0  0  0  0  0  0
    0.2346   -0.4850   -0.3290 C   0  0  0  0  0  0  0  0  0  0  0  0
    1.1325    0.5324    0.3708 C   0  0  0  0  0  0  0  0  0  0  0  0
    2.4340    0.4613   -0.0550 O   0  0  0  0  0  0  0  0  0  0  0  0
    0.5019    1.8718   -0.0402 C   0  0  0  0  0  0  0  0  0  0  0  0
   -0.7662    2.0011    0.4452 O   0  0  0  0  0  0  0  0  0  0  0  0
   -1.6363    0.9983    0.1373 C   0  0  0  0  0  0  0  0  0  0  0  0
   -1.0769   -0.3940    0.3911 C   0  0  0  0  0  0  0  0  0  0  0  0
   -1.9931   -1.3309   -0.0063 O   0  0  0  0  0  0  0  0  0  0  0  0
    1.5278   -1.8539   -1.2918 H   0  0  0  0  0  0  0  0  0  0  0  0
    0.0193   -2.5701   -0.6101 H   0  0  0  0  0  0  0  0  0  0  0  0
    1.4288   -2.1483    0.4538 H   0  0  0  0  0  0  0  0  0  0  0  0
    0.0675   -0.1060   -1.3768 H   0  0  0  0  0  0  0  0  0  0  0  0
    1.0130    0.4844    1.4744 H   0  0  0  0  0  0  0  0  0  0  0  0
    2.6874   -0.4481   -0.3601 H   0  0  0  0  0  0  0  0  0  0  0  0
    0.5446    1.8545   -1.1689 H   0  0  0  0  0  0  0  0  0  0  0  0
    1.1102    2.7121    0.2859 H   0  0  0  0  0  0  0  0  0  0  0  0
   -1.9600    1.0390   -0.9132 H   0  0  0  0  0  0  0  0  0  0  0  0
   -2.5142    1.0890    0.8430 H   0  0  0  0  0  0  0  0  0  0  0  0
   -0.8631   -0.5121    1.4786 H   0  0  0  0  0  0  0  0  0  0  0  0
   -2.7132   -1.3609    0.6815 H   0  0  0  0  0  0  0  0  0  0  0  0
  1  2  1  0
  2  3  1  0
  3  4  1  0
  3  5  1  0
  5  6  1  0
  6  7  1  0
  7  8  1  0
  8  9  1  0
  8  2  1  0
  1 10  1  0
  1 11  1  0
  1 12  1  0
  2 13  1  0
  3 14  1  0
  4 15  1  0
  5 16  1  0
  5 17  1  0
  7 18  1  0
  7 19  1  0
  8 20  1  0
  9 21  1  0
M  END
