
     RDKit          3D

 23 24  0  0  0  0  0  0  0  0999 V2000
   -2.6127   -0.6655   -0.3295 C   0  0  0  0  0  0  0  0  0  0  0  0
   -1.1497   -0.6597   -0.7315 C   0  0  0  0  0  0  0  0  0  0  0  0
   -0.5443    0.7205   -0.6685 C   0  0  0  0  0  0  0  0  0  0  0  0
    0.4953    0.6380    0.3950 C   0  0  0  0  0  0  0  0  0  0  0  0
    0.6100    1.8425    1.2998 C   0  0  0  0  0  0  0  0  0  0  0  0
    1.6355   -0.2821    0.3557 C   0  0  0  0  0  0  0  0  0  0  0  0
    2.0837   -0.9710   -0.9052 C   0  0  0  0  0  0  0  0  0  0  0  0
    0.3222   -0.7202    0.9524 C   0  0  0  0  0  0  0  0  0  0  0  0
   -0.4676   -1.4699    0.1307 O   0  0  0  0  0  0  0  0  0  0  0  0
   -2.9854    0.3669   -0.4973 H   0  0  0  0  0  0  0  0  0  0  0  0
   -3.2188   -1.3187   -0.9969 H   0  0  0  0  0  0  0  0  0  0  0  0
   -2.7408   -0.9872    0.7419 H   0  0  0  0  0  0  0  0  0  0  0  0
   -1.1272   -1.0097   -1.7897 H   0  0  0  0  0  0  0  0  0  0  0  0
   -0.1930    1.0902   -1.6373 H   0  0  0  0  0  0  0  0  0  0  0  0
   -1.3573    1.4032   -0.2923 H   0  0  0  0  0  0  0  0  0  0  0  0
   -0.2746    1.9720    1.9528 H   0  0  0  0  0  0  0  0  0  0  0  0
    1.4931    1.7547    1.9859 H   0  0  0  0  0  0  0  0  0  0  0  0
    0.7506    2.7293    0.6168 H   0  0  0  0  0  0  0  0  0  0  0  0
    2.4330   -0.1252    1.0870 H   0  0  0  0  0  0  0  0  0  0  0  0
    2.5079   -1.9818   -0.6324 H   0  0  0  0  0  0  0  0  0  0  0  0
    1.2647   -1.1343   -1.6330 H   0  0  0  0  0  0  0  0  0  0  0  0
    2.8637   -0.3866   -1.4372 H   0  0  0  0  0  0  0  0  0  0  0  0
    0.2120   -0.8055    2.0328 H   0  0  0  0  0  0  0  0  0  0  0  0
  1  2  1  0
  2  3  1  0
  3  4  1  0
  4  5  1  0
  4  6  1  0
  6  7  1  0
  6  8  1  0
  8  9  1  0
  9  2  1  0
  8  4  1  0
  1 10  1  0
  1 11  1  0
  1 12  1  0
  2 13  1  0
  3 14  1  0
  3 15  1  0
  5 16  1  0
  5 17  1  0
  5 18  1  0
  6 19  1  0
  7 20  1  0
  7 21  1  0
  7 22  1  0
  8 23  1  0
M  END
