
     RDKit          3D

 23 25  0  0  0  0  0  0  0  0999 V2000
    0.3110    2.0655    0.4965 C   0  0  0  0  0  0  0  0  0  0  0  0
   -0.0708    0.9173   -0.3724 C   0  0  0  0  0  0  0  0  0  0  0  0
   -1.4321    0.3461   -0.0521 C   0  0  0  0  0  0  0  0  0  0  0  0
   -1.4356   -0.8503   -1.0065 C   0  0  0  0  0  0  0  0  0  0  0  0
   -0.1220   -1.4872   -0.5318 C   0  0  0  0  0  0  0  0  0  0  0  0
    0.0744   -1.1611    0.8730 C   0  0  0  0  0  0  0  0  0  0  0  0
   -1.1786   -0.3537    1.2498 C   0  0  0  0  0  0  0  0  0  0  0  0
    0.7646   -0.3294   -0.1081 C   0  0  0  0  0  0  0  0  0  0  0  0
    2.1923   -0.3835   -0.4412 C   0  0  0  0  0  0  0  0  0  0  0  0
   -0.4111    2.2760    1.2909 H   0  0  0  0  0  0  0  0  0  0  0  0
    1.3626    1.9411    0.8874 H   0  0  0  0  0  0  0  0  0  0  0  0
    0.3828    2.9771   -0.1662 H   0  0  0  0  0  0  0  0  0  0  0  0
   -0.0609    1.1424   -1.4531 H   0  0  0  0  0  0  0  0  0  0  0  0
   -2.2622    0.9941   -0.1219 H   0  0  0  0  0  0  0  0  0  0  0  0
   -2.2909   -1.5124   -0.8437 H   0  0  0  0  0  0  0  0  0  0  0  0
   -1.3329   -0.4629   -2.0309 H   0  0  0  0  0  0  0  0  0  0  0  0
    0.3031   -2.3161   -1.0728 H   0  0  0  0  0  0  0  0  0  0  0  0
    0.5387   -1.7946    1.6166 H   0  0  0  0  0  0  0  0  0  0  0  0
   -1.0115    0.2988    2.1013 H   0  0  0  0  0  0  0  0  0  0  0  0
   -2.0188   -1.0861    1.3962 H   0  0  0  0  0  0  0  0  0  0  0  0
    2.2942   -0.6614   -1.5305 H   0  0  0  0  0  0  0  0  0  0  0  0
    2.7085   -1.1503    0.1618 H   0  0  0  0  0  0  0  0  0  0  0  0
    2.6950    0.5905   -0.3423 H   0  0  0  0  0  0  0  0  0  0  0  0
  1  2  1  0
  2  3  1  0
  3  4  1  0
  4  5  1  0
  5  6  1  0
  6  7  1  0
  6  8  1  0
  8  9  1  0
  8  2  1  0
  7  3  1  0
  8  5  1  0
  1 10  1  0
  1 11  1  0
  1 12  1  0
  2 13  1  0
  3 14  1  0
  4 15  1  0
  4 16  1  0
  5 17  1  0
  6 18  1  0
  7 19  1  0
  7 20  1  0
  9 21  1  0
  9 22  1  0
  9 23  1  0
M  END
