
     RDKit          3D

 23 24  0  0  0  0  0  0  0  0999 V2000
   -2.8763   -0.0646    0.6362 C   0  0  0  0  0  0  0  0  0  0  0  0
   -1.5936    0.5604    0.0918 C   0  0  0  0  0  0  0  0  0  0  0  0
   -0.5398    0.3734    1.1539 C   0  0  0  0  0  0  0  0  0  0  0  0
    0.5831   -0.3837    0.4959 C   0  0  0  0  0  0  0  0  0  0  0  0
    1.3164    0.4391   -0.5594 C   0  0  0  0  0  0  0  0  0  0  0  0
    2.7618    0.0657   -0.7099 C   0  0  0  0  0  0  0  0  0  0  0  0
    3.4762    0.2410    0.4830 O   0  0  0  0  0  0  0  0  0  0  0  0
    0.2920   -0.5534   -0.9204 C   0  0  0  0  0  0  0  0  0  0  0  0
   -1.1425   -0.2111   -1.1117 C   0  0  0  0  0  0  0  0  0  0  0  0
   -3.2184    0.5480    1.4994 H   0  0  0  0  0  0  0  0  0  0  0  0
   -3.5949   -0.1281   -0.1796 H   0  0  0  0  0  0  0  0  0  0  0  0
   -2.5641   -1.0800    1.0114 H   0  0  0  0  0  0  0  0  0  0  0  0
   -1.7430    1.6198   -0.1864 H   0  0  0  0  0  0  0  0  0  0  0  0
   -0.9075   -0.0751    2.0754 H   0  0  0  0  0  0  0  0  0  0  0  0
   -0.1345    1.4034    1.3794 H   0  0  0  0  0  0  0  0  0  0  0  0
    1.1105   -1.1853    1.0190 H   0  0  0  0  0  0  0  0  0  0  0  0
    1.1032    1.5049   -0.6492 H   0  0  0  0  0  0  0  0  0  0  0  0
    3.2402    0.7709   -1.4455 H   0  0  0  0  0  0  0  0  0  0  0  0
    2.9223   -0.9430   -1.1235 H   0  0  0  0  0  0  0  0  0  0  0  0
    3.9403   -0.5880    0.7622 H   0  0  0  0  0  0  0  0  0  0  0  0
    0.6463   -1.4411   -1.4768 H   0  0  0  0  0  0  0  0  0  0  0  0
   -1.3606    0.3088   -2.0740 H   0  0  0  0  0  0  0  0  0  0  0  0
   -1.7172   -1.1822   -1.1704 H   0  0  0  0  0  0  0  0  0  0  0  0
  1  2  1  0
  2  3  1  0
  3  4  1  0
  4  5  1  0
  5  6  1  0
  6  7  1  0
  5  8  1  0
  8  9  1  0
  9  2  1  0
  8  4  1  0
  1 10  1  0
  1 11  1  0
  1 12  1  0
  2 13  1  0
  3 14  1  0
  3 15  1  0
  4 16  1  0
  5 17  1  0
  6 18  1  0
  6 19  1  0
  7 20  1  0
  8 21  1  0
  9 22  1  0
  9 23  1  0
M  END
