
     RDKit          3D

 19 19  0  0  0  0  0  0  0  0999 V2000
    1.7582   -1.4426    0.0464 C   0  0  0  0  0  0  0  0  0  0  0  0
    0.9306   -0.3076    0.5977 C   0  0  0  0  0  0  0  0  0  0  0  0
   -0.5063   -0.6959    0.6129 C   0  0  0  0  0  0  0  0  0  0  0  0
   -1.3274    0.0085   -0.4383 C   0  0  0  0  0  0  0  0  0  0  0  0
   -2.6563   -0.3601   -0.2494 O   0  0  0  0  0  0  0  0  0  0  0  0
   -1.1501    1.4692   -0.3493 C   0  0  0  0  0  0  0  0  0  0  0  0
    0.0813    1.9274   -0.1882 C   0  0  0  0  0  0  0  0  0  0  0  0
    1.1683    0.9621   -0.1102 C   0  0  0  0  0  0  0  0  0  0  0  0
    2.2685    1.2584   -0.6540 O   0  0  0  0  0  0  0  0  0  0  0  0
    1.9850   -2.1599    0.8838 H   0  0  0  0  0  0  0  0  0  0  0  0
    1.1468   -2.0274   -0.6814 H   0  0  0  0  0  0  0  0  0  0  0  0
    2.7224   -1.1170   -0.3475 H   0  0  0  0  0  0  0  0  0  0  0  0
    1.2488   -0.1710    1.6716 H   0  0  0  0  0  0  0  0  0  0  0  0
   -1.0082   -0.5316    1.6020 H   0  0  0  0  0  0  0  0  0  0  0  0
   -0.6084   -1.7874    0.4161 H   0  0  0  0  0  0  0  0  0  0  0  0
   -1.0483   -0.3399   -1.4673 H   0  0  0  0  0  0  0  0  0  0  0  0
   -3.2859    0.1381   -0.8158 H   0  0  0  0  0  0  0  0  0  0  0  0
   -1.9711    2.1783   -0.4086 H   0  0  0  0  0  0  0  0  0  0  0  0
    0.2521    2.9986   -0.1205 H   0  0  0  0  0  0  0  0  0  0  0  0
  1  2  1  0
  2  3  1  0
  3  4  1  0
  4  5  1  0
  4  6  1  0
  6  7  2  0
  7  8  1  0
  8  9  2  0
  8  2  1  0
  1 10  1  0
  1 11  1  0
  1 12  1  0
  2 13  1  0
  3 14  1  0
  3 15  1  0
  4 16  1  0
  5 17  1  0
  6 18  1  0
  7 19  1  0
M  END
