
     RDKit          3D

 21 22  0  0  0  0  0  0  0  0999 V2000
    2.5185   -0.0163    0.3076 C   0  0  0  0  0  0  0  0  0  0  0  0
    1.4635   -0.5652   -0.6363 C   0  0  0  0  0  0  0  0  0  0  0  0
    0.5632   -1.4816    0.1254 C   0  0  0  0  0  0  0  0  0  0  0  0
    0.7630   -2.5583    0.6653 O   0  0  0  0  0  0  0  0  0  0  0  0
   -0.5523   -0.5572   -0.0718 C   0  0  0  0  0  0  0  0  0  0  0  0
   -1.8319   -1.1451   -0.5346 C   0  0  0  0  0  0  0  0  0  0  0  0
   -0.3998    0.8441    0.3563 C   0  0  0  0  0  0  0  0  0  0  0  0
   -1.4552    1.8684    0.1156 C   0  0  0  0  0  0  0  0  0  0  0  0
    0.2888    0.3326   -0.8795 C   0  0  0  0  0  0  0  0  0  0  0  0
    2.0740    0.1419    1.3056 H   0  0  0  0  0  0  0  0  0  0  0  0
    3.2776   -0.8302    0.4334 H   0  0  0  0  0  0  0  0  0  0  0  0
    2.9546    0.9102   -0.1067 H   0  0  0  0  0  0  0  0  0  0  0  0
    1.8670   -0.9776   -1.5748 H   0  0  0  0  0  0  0  0  0  0  0  0
   -2.0523   -2.0330    0.1298 H   0  0  0  0  0  0  0  0  0  0  0  0
   -1.8011   -1.5742   -1.5633 H   0  0  0  0  0  0  0  0  0  0  0  0
   -2.7122   -0.4975   -0.4591 H   0  0  0  0  0  0  0  0  0  0  0  0
    0.2333    1.0196    1.2378 H   0  0  0  0  0  0  0  0  0  0  0  0
   -1.3377    2.3216   -0.9074 H   0  0  0  0  0  0  0  0  0  0  0  0
   -1.4350    2.6722    0.9067 H   0  0  0  0  0  0  0  0  0  0  0  0
   -2.4644    1.4202    0.1908 H   0  0  0  0  0  0  0  0  0  0  0  0
    0.0385    0.7054   -1.8656 H   0  0  0  0  0  0  0  0  0  0  0  0
  1  2  1  0
  2  3  1  0
  3  4  2  0
  3  5  1  0
  5  6  1  0
  5  7  1  0
  7  8  1  0
  7  9  1  0
  9  2  1  0
  9  5  1  0
  1 10  1  0
  1 11  1  0
  1 12  1  0
  2 13  1  0
  6 14  1  0
  6 15  1  0
  6 16  1  0
  7 17  1  0
  8 18  1  0
  8 19  1  0
  8 20  1  0
  9 21  1  0
M  END
