
     RDKit          3D

 20 21  0  0  0  0  0  0  0  0999 V2000
   -2.3224    0.5592    0.5486 C   0  0  0  0  0  0  0  0  0  0  0  0
   -0.8528    0.3035    0.6169 C   0  0  0  0  0  0  0  0  0  0  0  0
   -0.1302    0.5042   -0.7247 C   0  0  0  0  0  0  0  0  0  0  0  0
    1.2835    0.9884   -0.6575 C   0  0  0  0  0  0  0  0  0  0  0  0
    2.0187    0.0321    0.2353 C   0  0  0  0  0  0  0  0  0  0  0  0
    1.1744   -1.2133    0.2492 C   0  0  0  0  0  0  0  0  0  0  0  0
   -0.2217   -0.8297   -0.1009 C   0  0  0  0  0  0  0  0  0  0  0  0
   -0.9817   -1.8308   -0.6824 O   0  0  0  0  0  0  0  0  0  0  0  0
   -2.5003    1.6550    0.7375 H   0  0  0  0  0  0  0  0  0  0  0  0
   -2.9153    0.0048    1.3051 H   0  0  0  0  0  0  0  0  0  0  0  0
   -2.7059    0.3941   -0.4922 H   0  0  0  0  0  0  0  0  0  0  0  0
   -0.3431    0.7531    1.5070 H   0  0  0  0  0  0  0  0  0  0  0  0
   -0.7462    0.6590   -1.6265 H   0  0  0  0  0  0  0  0  0  0  0  0
    1.7241    0.9679   -1.6604 H   0  0  0  0  0  0  0  0  0  0  0  0
    1.2848    1.9863   -0.1773 H   0  0  0  0  0  0  0  0  0  0  0  0
    2.1860    0.4123    1.2547 H   0  0  0  0  0  0  0  0  0  0  0  0
    3.0134   -0.1961   -0.2220 H   0  0  0  0  0  0  0  0  0  0  0  0
    1.2738   -1.7798    1.1920 H   0  0  0  0  0  0  0  0  0  0  0  0
    1.5579   -1.8893   -0.5618 H   0  0  0  0  0  0  0  0  0  0  0  0
   -1.7972   -1.4808   -1.1038 H   0  0  0  0  0  0  0  0  0  0  0  0
  1  2  1  0
  2  3  1  0
  3  4  1  0
  4  5  1  0
  5  6  1  0
  6  7  1  0
  7  8  1  0
  7  2  1  0
  7  3  1  0
  1  9  1  0
  1 10  1  0
  1 11  1  0
  2 12  1  0
  3 13  1  0
  4 14  1  0
  4 15  1  0
  5 16  1  0
  5 17  1  0
  6 18  1  0
  6 19  1  0
  8 20  1  0
M  END
