
     RDKit          3D

 17 17  0  0  0  0  0  0  0  0999 V2000
   -1.8593   -0.8595    0.3976 C   0  0  0  0  0  0  0  0  0  0  0  0
   -0.7591   -0.2618   -0.4524 C   0  0  0  0  0  0  0  0  0  0  0  0
   -0.2375    1.0887   -0.1364 C   0  0  0  0  0  0  0  0  0  0  0  0
    0.0618    1.9154   -1.2582 O   0  0  0  0  0  0  0  0  0  0  0  0
    0.6270   -0.0958    0.0157 C   0  0  0  0  0  0  0  0  0  0  0  0
    1.7177   -0.2672   -1.0013 C   0  0  0  0  0  0  0  0  0  0  0  0
    2.2552    0.7506   -1.5219 O   0  0  0  0  0  0  0  0  0  0  0  0
    1.0655   -0.5070    1.3634 C   0  0  0  0  0  0  0  0  0  0  0  0
    0.4881   -1.1290    2.2339 O   0  0  0  0  0  0  0  0  0  0  0  0
   -2.1814   -1.8292   -0.0511 H   0  0  0  0  0  0  0  0  0  0  0  0
   -1.5666   -1.0960    1.4250 H   0  0  0  0  0  0  0  0  0  0  0  0
   -2.7560   -0.1950    0.3813 H   0  0  0  0  0  0  0  0  0  0  0  0
   -0.9651   -0.4384   -1.5503 H   0  0  0  0  0  0  0  0  0  0  0  0
   -0.6021    1.6251    0.7271 H   0  0  0  0  0  0  0  0  0  0  0  0
    0.4916    2.7110   -0.8675 H   0  0  0  0  0  0  0  0  0  0  0  0
    2.0929   -1.2361   -1.3505 H   0  0  0  0  0  0  0  0  0  0  0  0
    2.1271   -0.1758    1.6454 H   0  0  0  0  0  0  0  0  0  0  0  0
  1  2  1  0
  2  3  1  0
  3  4  1  0
  3  5  1  0
  5  6  1  0
  6  7  2  0
  5  8  1  0
  8  9  2  0
  5  2  1  0
  1 10  1  0
  1 11  1  0
  1 12  1  0
  2 13  1  0
  3 14  1  0
  4 15  1  0
  6 16  1  0
  8 17  1  0
M  END
