
     RDKit          3D

 21 23  0  0  0  0  0  0  0  0999 V2000
    2.9857   -0.2399   -0.7625 C   0  0  0  0  0  0  0  0  0  0  0  0
    1.6124   -0.6632   -0.2839 C   0  0  0  0  0  0  0  0  0  0  0  0
    1.1317   -0.0361    0.9452 C   0  0  0  0  0  0  0  0  0  0  0  0
   -0.1399   -0.1551    1.4353 O   0  0  0  0  0  0  0  0  0  0  0  0
   -0.7256    0.1352    0.2399 C   0  0  0  0  0  0  0  0  0  0  0  0
   -1.8098    1.1310    0.1809 C   0  0  0  0  0  0  0  0  0  0  0  0
   -2.7150    0.0321   -0.3977 C   0  0  0  0  0  0  0  0  0  0  0  0
   -1.5508   -0.9467   -0.3554 C   0  0  0  0  0  0  0  0  0  0  0  0
    0.5843    0.4478   -0.3722 C   0  0  0  0  0  0  0  0  0  0  0  0
    2.9558    0.3062   -1.7240 H   0  0  0  0  0  0  0  0  0  0  0  0
    3.4737    0.4344   -0.0316 H   0  0  0  0  0  0  0  0  0  0  0  0
    3.6601   -1.1079   -0.8935 H   0  0  0  0  0  0  0  0  0  0  0  0
    1.3226   -1.6848   -0.6095 H   0  0  0  0  0  0  0  0  0  0  0  0
    1.8311    0.5695    1.5267 H   0  0  0  0  0  0  0  0  0  0  0  0
   -2.1486    1.5070    1.1672 H   0  0  0  0  0  0  0  0  0  0  0  0
   -1.6782    1.9734   -0.5457 H   0  0  0  0  0  0  0  0  0  0  0  0
   -3.5643   -0.2208    0.2592 H   0  0  0  0  0  0  0  0  0  0  0  0
   -3.0471    0.2374   -1.4361 H   0  0  0  0  0  0  0  0  0  0  0  0
   -1.2490   -1.3722   -1.3092 H   0  0  0  0  0  0  0  0  0  0  0  0
   -1.7888   -1.7766    0.3590 H   0  0  0  0  0  0  0  0  0  0  0  0
    0.8597    1.4293   -0.7543 H   0  0  0  0  0  0  0  0  0  0  0  0
  1  2  1  0
  2  3  1  0
  3  4  1  0
  4  5  1  0
  5  6  1  0
  6  7  1  0
  7  8  1  0
  5  9  1  0
  9  2  1  0
  9  3  1  0
  8  5  1  0
  1 10  1  0
  1 11  1  0
  1 12  1  0
  2 13  1  0
  3 14  1  0
  6 15  1  0
  6 16  1  0
  7 17  1  0
  7 18  1  0
  8 19  1  0
  8 20  1  0
  9 21  1  0
M  END
