
     RDKit          3D

 23 24  0  0  0  0  0  0  0  0999 V2000
    2.1264   -0.7003   -0.4169 C   0  0  0  0  0  0  0  0  0  0  0  0
    1.1686    0.3060   -0.9979 C   0  0  0  0  0  0  0  0  0  0  0  0
    1.4978    1.6885   -0.4140 C   0  0  0  0  0  0  0  0  0  0  0  0
    0.4873    1.3411    0.6891 C   0  0  0  0  0  0  0  0  0  0  0  0
   -0.1617    0.4159   -0.3457 C   0  0  0  0  0  0  0  0  0  0  0  0
   -0.7439   -0.8449    0.2287 C   0  0  0  0  0  0  0  0  0  0  0  0
   -2.0519   -0.8635    0.8981 C   0  0  0  0  0  0  0  0  0  0  0  0
   -1.9909   -1.3230   -0.5207 C   0  0  0  0  0  0  0  0  0  0  0  0
   -2.5420   -0.4937   -1.4829 O   0  0  0  0  0  0  0  0  0  0  0  0
    3.1590   -0.3242   -0.6407 H   0  0  0  0  0  0  0  0  0  0  0  0
    2.0089   -1.6725   -0.9372 H   0  0  0  0  0  0  0  0  0  0  0  0
    2.0614   -0.7920    0.6706 H   0  0  0  0  0  0  0  0  0  0  0  0
    1.2051    0.2830   -2.0974 H   0  0  0  0  0  0  0  0  0  0  0  0
    1.0815    2.4564   -1.0818 H   0  0  0  0  0  0  0  0  0  0  0  0
    2.5273    1.8047   -0.0733 H   0  0  0  0  0  0  0  0  0  0  0  0
    0.9089    0.7173    1.4904 H   0  0  0  0  0  0  0  0  0  0  0  0
   -0.1914    2.1430    0.9630 H   0  0  0  0  0  0  0  0  0  0  0  0
   -0.8683    0.9952   -0.9717 H   0  0  0  0  0  0  0  0  0  0  0  0
   -0.0231   -1.6251    0.5631 H   0  0  0  0  0  0  0  0  0  0  0  0
   -2.5975    0.1054    1.0761 H   0  0  0  0  0  0  0  0  0  0  0  0
   -2.2580   -1.5929    1.7094 H   0  0  0  0  0  0  0  0  0  0  0  0
   -1.9859   -2.3999   -0.7696 H   0  0  0  0  0  0  0  0  0  0  0  0
   -2.8175    0.3756   -1.0525 H   0  0  0  0  0  0  0  0  0  0  0  0
  1  2  1  0
  2  3  1  0
  3  4  1  0
  4  5  1  0
  5  6  1  0
  6  7  1  0
  7  8  1  0
  8  9  1  0
  5  2  1  0
  8  6  1  0
  1 10  1  0
  1 11  1  0
  1 12  1  0
  2 13  1  0
  3 14  1  0
  3 15  1  0
  4 16  1  0
  4 17  1  0
  5 18  1  0
  6 19  1  0
  7 20  1  0
  7 21  1  0
  8 22  1  0
  9 23  1  0
M  END
