
     RDKit          3D

 19 20  0  0  0  0  0  0  0  0999 V2000
   -0.1041    1.8526    0.6682 C   0  0  0  0  0  0  0  0  0  0  0  0
   -0.2735    0.8061   -0.3699 C   0  0  0  0  0  0  0  0  0  0  0  0
   -1.3506   -0.1981   -0.1963 C   0  0  0  0  0  0  0  0  0  0  0  0
   -1.1959   -1.4814    0.4891 C   0  0  0  0  0  0  0  0  0  0  0  0
   -0.3005   -1.2415   -0.6712 C   0  0  0  0  0  0  0  0  0  0  0  0
    0.8162   -0.2581   -0.4071 C   0  0  0  0  0  0  0  0  0  0  0  0
    1.7056   -0.1239   -1.4715 O   0  0  0  0  0  0  0  0  0  0  0  0
    1.5342   -0.4337    0.8685 C   0  0  0  0  0  0  0  0  0  0  0  0
    2.7533   -0.4502    0.9157 O   0  0  0  0  0  0  0  0  0  0  0  0
    0.2511    2.8187    0.2017 H   0  0  0  0  0  0  0  0  0  0  0  0
   -1.0565    2.1235    1.1750 H   0  0  0  0  0  0  0  0  0  0  0  0
    0.7018    1.6092    1.4166 H   0  0  0  0  0  0  0  0  0  0  0  0
   -0.3262    1.2712   -1.3988 H   0  0  0  0  0  0  0  0  0  0  0  0
   -2.2498   -0.0795   -0.8409 H   0  0  0  0  0  0  0  0  0  0  0  0
   -0.7405   -1.5702    1.4999 H   0  0  0  0  0  0  0  0  0  0  0  0
   -1.9581   -2.2651    0.3004 H   0  0  0  0  0  0  0  0  0  0  0  0
   -0.4897   -1.6295   -1.6685 H   0  0  0  0  0  0  0  0  0  0  0  0
    1.2526   -0.1926   -2.3420 H   0  0  0  0  0  0  0  0  0  0  0  0
    1.0305   -0.5576    1.8311 H   0  0  0  0  0  0  0  0  0  0  0  0
  1  2  1  0
  2  3  1  0
  3  4  1  0
  4  5  1  0
  5  6  1  0
  6  7  1  0
  6  8  1  0
  8  9  2  0
  6  2  1  0
  5  3  1  0
  1 10  1  0
  1 11  1  0
  1 12  1  0
  2 13  1  0
  3 14  1  0
  4 15  1  0
  4 16  1  0
  5 17  1  0
  7 18  1  0
  8 19  1  0
M  END
