
     RDKit          3D

 21 22  0  0  0  0  0  0  0  0999 V2000
   -0.7808   -1.1663    1.3692 C   0  0  0  0  0  0  0  0  0  0  0  0
   -0.3631   -0.7925   -0.0104 C   0  0  0  0  0  0  0  0  0  0  0  0
   -1.3301    0.1739   -0.6613 C   0  0  0  0  0  0  0  0  0  0  0  0
   -1.2922    1.4415    0.1509 C   0  0  0  0  0  0  0  0  0  0  0  0
   -0.1810    2.1402   -0.3591 O   0  0  0  0  0  0  0  0  0  0  0  0
    0.5108    1.1290   -1.0428 C   0  0  0  0  0  0  0  0  0  0  0  0
   -0.5614    0.5698   -1.7825 O   0  0  0  0  0  0  0  0  0  0  0  0
    0.8907    0.0947   -0.0204 C   0  0  0  0  0  0  0  0  0  0  0  0
    2.1083   -0.7024   -0.4034 C   0  0  0  0  0  0  0  0  0  0  0  0
   -0.2448   -0.5416    2.1119 H   0  0  0  0  0  0  0  0  0  0  0  0
   -1.8796   -0.9345    1.4885 H   0  0  0  0  0  0  0  0  0  0  0  0
   -0.6495   -2.2478    1.5936 H   0  0  0  0  0  0  0  0  0  0  0  0
   -0.2461   -1.6432   -0.7029 H   0  0  0  0  0  0  0  0  0  0  0  0
   -2.2918   -0.2149   -0.8981 H   0  0  0  0  0  0  0  0  0  0  0  0
   -1.0196    1.2347    1.2266 H   0  0  0  0  0  0  0  0  0  0  0  0
   -2.1736    2.0692    0.0551 H   0  0  0  0  0  0  0  0  0  0  0  0
    1.3139    1.4841   -1.6656 H   0  0  0  0  0  0  0  0  0  0  0  0
    0.9873    0.5140    0.9798 H   0  0  0  0  0  0  0  0  0  0  0  0
    2.3339   -1.3823    0.4364 H   0  0  0  0  0  0  0  0  0  0  0  0
    1.9217   -1.2252   -1.3593 H   0  0  0  0  0  0  0  0  0  0  0  0
    2.9468   -0.0002   -0.5062 H   0  0  0  0  0  0  0  0  0  0  0  0
  1  2  1  0
  2  3  1  0
  3  4  1  0
  4  5  1  0
  5  6  1  0
  6  7  1  0
  6  8  1  0
  8  9  1  0
  8  2  1  0
  7  3  1  0
  1 10  1  0
  1 11  1  0
  1 12  1  0
  2 13  1  0
  3 14  1  0
  4 15  1  0
  4 16  1  0
  6 17  1  0
  8 18  1  0
  9 19  1  0
  9 20  1  0
  9 21  1  0
M  END
