
     RDKit          3D

 22 22  0  0  0  0  0  0  0  0999 V2000
    2.5986    0.4982   -0.1922 C   0  0  0  0  0  0  0  0  0  0  0  0
    1.2290    0.0266   -0.5436 C   0  0  0  0  0  0  0  0  0  0  0  0
    0.8886   -1.3313   -0.0019 C   0  0  0  0  0  0  0  0  0  0  0  0
   -0.3205   -1.2504    0.6441 O   0  0  0  0  0  0  0  0  0  0  0  0
   -0.9638   -0.1038    0.2577 C   0  0  0  0  0  0  0  0  0  0  0  0
   -1.9518    0.2671    1.3524 C   0  0  0  0  0  0  0  0  0  0  0  0
   -1.7701   -0.2636   -1.0148 C   0  0  0  0  0  0  0  0  0  0  0  0
    0.1483    0.8911    0.1221 C   0  0  0  0  0  0  0  0  0  0  0  0
    2.5857    1.3939    0.4546 H   0  0  0  0  0  0  0  0  0  0  0  0
    3.1196    0.8199   -1.1356 H   0  0  0  0  0  0  0  0  0  0  0  0
    3.1489   -0.3120    0.3294 H   0  0  0  0  0  0  0  0  0  0  0  0
    1.0563    0.0639   -1.6419 H   0  0  0  0  0  0  0  0  0  0  0  0
    0.7557   -2.0514   -0.8543 H   0  0  0  0  0  0  0  0  0  0  0  0
    1.7135   -1.6784    0.6681 H   0  0  0  0  0  0  0  0  0  0  0  0
   -1.4338    0.7361    2.1906 H   0  0  0  0  0  0  0  0  0  0  0  0
   -2.4645   -0.6912    1.6292 H   0  0  0  0  0  0  0  0  0  0  0  0
   -2.7165    0.9428    0.8905 H   0  0  0  0  0  0  0  0  0  0  0  0
   -2.5468   -1.0418   -0.7852 H   0  0  0  0  0  0  0  0  0  0  0  0
   -2.3521    0.6885   -1.1447 H   0  0  0  0  0  0  0  0  0  0  0  0
   -1.1645   -0.4991   -1.8880 H   0  0  0  0  0  0  0  0  0  0  0  0
   -0.0934    1.7750   -0.4665 H   0  0  0  0  0  0  0  0  0  0  0  0
    0.5335    1.1199    1.1299 H   0  0  0  0  0  0  0  0  0  0  0  0
  1  2  1  0
  2  3  1  0
  3  4  1  0
  4  5  1  0
  5  6  1  0
  5  7  1  0
  5  8  1  0
  8  2  1  0
  1  9  1  0
  1 10  1  0
  1 11  1  0
  2 12  1  0
  3 13  1  0
  3 14  1  0
  6 15  1  0
  6 16  1  0
  6 17  1  0
  7 18  1  0
  7 19  1  0
  7 20  1  0
  8 21  1  0
  8 22  1  0
M  END
