
     RDKit          3D

 16 17  0  0  0  0  0  0  0  0999 V2000
    1.8088    0.0990   -0.6409 C   0  0  0  0  0  0  0  0  0  0  0  0
    0.3127    0.2073   -0.7304 C   0  0  0  0  0  0  0  0  0  0  0  0
   -0.1237    1.5165   -0.1297 C   0  0  0  0  0  0  0  0  0  0  0  0
    0.0406    2.6666   -0.4664 O   0  0  0  0  0  0  0  0  0  0  0  0
   -0.8014    0.7852    0.9893 C   0  0  0  0  0  0  0  0  0  0  0  0
   -0.4924   -0.4886    0.2883 C   0  0  0  0  0  0  0  0  0  0  0  0
   -1.3700   -1.5504    0.2073 C   0  0  0  0  0  0  0  0  0  0  0  0
   -0.1218   -1.6251    0.9245 O   0  0  0  0  0  0  0  0  0  0  0  0
    2.2443   -0.4398   -1.5122 H   0  0  0  0  0  0  0  0  0  0  0  0
    2.3105    1.1098   -0.6501 H   0  0  0  0  0  0  0  0  0  0  0  0
    2.1304   -0.4313    0.2678 H   0  0  0  0  0  0  0  0  0  0  0  0
   -0.0051    0.0710   -1.7875 H   0  0  0  0  0  0  0  0  0  0  0  0
   -1.8747    0.9535    1.0741 H   0  0  0  0  0  0  0  0  0  0  0  0
   -0.3112    0.9514    1.9706 H   0  0  0  0  0  0  0  0  0  0  0  0
   -2.2813   -1.6193    0.8703 H   0  0  0  0  0  0  0  0  0  0  0  0
   -1.4658   -2.2059   -0.6747 H   0  0  0  0  0  0  0  0  0  0  0  0
  1  2  1  0
  2  3  1  0
  3  4  2  0
  3  5  1  0
  5  6  1  0
  6  7  1  0
  7  8  1  0
  6  2  1  0
  8  6  1  0
  1  9  1  0
  1 10  1  0
  1 11  1  0
  2 12  1  0
  5 13  1  0
  5 14  1  0
  7 15  1  0
  7 16  1  0
M  END
