
     RDKit          3D

 17 18  0  0  0  0  0  0  0  0999 V2000
   -2.2455   -0.3890    0.1352 C   0  0  0  0  0  0  0  0  0  0  0  0
   -0.9976    0.0957   -0.4877 C   0  0  0  0  0  0  0  0  0  0  0  0
    0.0442   -0.9103   -0.8057 C   0  0  0  0  0  0  0  0  0  0  0  0
    0.0529   -2.0192   -1.3325 O   0  0  0  0  0  0  0  0  0  0  0  0
    1.1379   -0.0897   -0.2457 C   0  0  0  0  0  0  0  0  0  0  0  0
    2.1068   -0.7027    0.6913 C   0  0  0  0  0  0  0  0  0  0  0  0
    1.8576   -1.0088    1.8447 O   0  0  0  0  0  0  0  0  0  0  0  0
    1.1564    1.3765   -0.3534 C   0  0  0  0  0  0  0  0  0  0  0  0
    0.0064    0.7773    0.3944 C   0  0  0  0  0  0  0  0  0  0  0  0
   -2.1154   -1.3525    0.6394 H   0  0  0  0  0  0  0  0  0  0  0  0
   -3.0021   -0.5557   -0.6852 H   0  0  0  0  0  0  0  0  0  0  0  0
   -2.6244    0.3999    0.8351 H   0  0  0  0  0  0  0  0  0  0  0  0
   -1.1826    0.7385   -1.3933 H   0  0  0  0  0  0  0  0  0  0  0  0
    3.1116   -0.8971    0.3356 H   0  0  0  0  0  0  0  0  0  0  0  0
    0.8462    1.9002   -1.2973 H   0  0  0  0  0  0  0  0  0  0  0  0
    1.8719    1.9250    0.2510 H   0  0  0  0  0  0  0  0  0  0  0  0
   -0.0243    0.7118    1.4739 H   0  0  0  0  0  0  0  0  0  0  0  0
  1  2  1  0
  2  3  1  0
  3  4  2  0
  3  5  1  0
  5  6  1  0
  6  7  2  0
  5  8  1  0
  8  9  1  0
  9  2  1  0
  9  5  1  0
  1 10  1  0
  1 11  1  0
  1 12  1  0
  2 13  1  0
  6 14  1  0
  8 15  1  0
  8 16  1  0
  9 17  1  0
M  END
