
     RDKit          3D

 10 10  0  0  0  0  0  0  0  0999 V2000
    1.2140   -0.0343   -0.0052 C   0  0  0  0  0  0  0  0  0  0  0  0
   -0.1589    0.0118    0.5880 C   0  0  0  0  0  0  0  0  0  0  0  0
   -1.2753    0.0716   -0.4326 C   0  0  0  0  0  0  0  0  0  0  0  0
   -1.0205   -1.0636    0.4623 O   0  0  0  0  0  0  0  0  0  0  0  0
    1.2237   -0.4468   -1.0192 H   0  0  0  0  0  0  0  0  0  0  0  0
    1.9572   -0.5507    0.6372 H   0  0  0  0  0  0  0  0  0  0  0  0
    1.5706    1.0269   -0.0976 H   0  0  0  0  0  0  0  0  0  0  0  0
   -0.2788    0.5867    1.5172 H   0  0  0  0  0  0  0  0  0  0  0  0
   -1.0547   -0.2472   -1.4601 H   0  0  0  0  0  0  0  0  0  0  0  0
   -2.1772    0.6456   -0.1901 H   0  0  0  0  0  0  0  0  0  0  0  0
  1  2  1  0
  2  3  1  0
  3  4  1  0
  4  2  1  0
  1  5  1  0
  1  6  1  0
  1  7  1  0
  2  8  1  0
  3  9  1  0
  3 10  1  0
M  END
