
     RDKit          3D

 23 24  0  0  0  0  0  0  0  0999 V2000
    2.6639    0.6312   -0.0014 C   0  0  0  0  0  0  0  0  0  0  0  0
    1.6649   -0.3834    0.4803 C   0  0  0  0  0  0  0  0  0  0  0  0
    0.4195    0.1828    1.1241 C   0  0  0  0  0  0  0  0  0  0  0  0
   -0.3594   -0.2635   -0.0670 C   0  0  0  0  0  0  0  0  0  0  0  0
   -1.5234   -1.1622    0.1621 C   0  0  0  0  0  0  0  0  0  0  0  0
   -2.6708   -0.2294    0.2750 C   0  0  0  0  0  0  0  0  0  0  0  0
   -2.3563    0.9270   -0.2678 C   0  0  0  0  0  0  0  0  0  0  0  0
   -0.9532    0.9091   -0.8126 C   0  0  0  0  0  0  0  0  0  0  0  0
    0.8474   -0.8896   -0.7103 C   0  0  0  0  0  0  0  0  0  0  0  0
    2.1322    1.5044   -0.4494 H   0  0  0  0  0  0  0  0  0  0  0  0
    3.4182    0.9119    0.7380 H   0  0  0  0  0  0  0  0  0  0  0  0
    3.2244    0.1404   -0.8505 H   0  0  0  0  0  0  0  0  0  0  0  0
    2.1348   -1.1610    1.0851 H   0  0  0  0  0  0  0  0  0  0  0  0
    0.0897   -0.3242    2.0441 H   0  0  0  0  0  0  0  0  0  0  0  0
    0.4597    1.2909    1.3002 H   0  0  0  0  0  0  0  0  0  0  0  0
   -1.7069   -1.7865   -0.7501 H   0  0  0  0  0  0  0  0  0  0  0  0
   -1.4027   -1.7882    1.0711 H   0  0  0  0  0  0  0  0  0  0  0  0
   -3.6165   -0.4862    0.7399 H   0  0  0  0  0  0  0  0  0  0  0  0
   -2.9776    1.8157   -0.3459 H   0  0  0  0  0  0  0  0  0  0  0  0
   -0.9266    0.7057   -1.8895 H   0  0  0  0  0  0  0  0  0  0  0  0
   -0.4615    1.8602   -0.5200 H   0  0  0  0  0  0  0  0  0  0  0  0
    1.0933   -0.4265   -1.6714 H   0  0  0  0  0  0  0  0  0  0  0  0
    0.8067   -1.9790   -0.6839 H   0  0  0  0  0  0  0  0  0  0  0  0
  1  2  1  0
  2  3  1  0
  3  4  1  0
  4  5  1  0
  5  6  1  0
  6  7  2  0
  7  8  1  0
  4  9  1  0
  9  2  1  0
  8  4  1  0
  1 10  1  0
  1 11  1  0
  1 12  1  0
  2 13  1  0
  3 14  1  0
  3 15  1  0
  5 16  1  0
  5 17  1  0
  6 18  1  0
  7 19  1  0
  8 20  1  0
  8 21  1  0
  9 22  1  0
  9 23  1  0
M  END
