
     RDKit          3D

 23 23  0  0  0  0  0  0  0  0999 V2000
   -2.7280    0.5085   -0.3342 C   0  0  0  0  0  0  0  0  0  0  0  0
   -1.3923    0.1003    0.2102 C   0  0  0  0  0  0  0  0  0  0  0  0
   -1.2074   -1.3896    0.0993 C   0  0  0  0  0  0  0  0  0  0  0  0
   -0.0130   -1.7278    0.7520 O   0  0  0  0  0  0  0  0  0  0  0  0
    1.0413   -1.2558   -0.0045 C   0  0  0  0  0  0  0  0  0  0  0  0
    1.0525    0.2639    0.0217 C   0  0  0  0  0  0  0  0  0  0  0  0
    2.2358    0.7207   -0.7729 C   0  0  0  0  0  0  0  0  0  0  0  0
    3.3804    0.1797   -0.1468 O   0  0  0  0  0  0  0  0  0  0  0  0
   -0.2463    0.8603   -0.4120 C   0  0  0  0  0  0  0  0  0  0  0  0
   -2.6614    1.3328   -1.0774 H   0  0  0  0  0  0  0  0  0  0  0  0
   -3.4279    0.8773    0.4541 H   0  0  0  0  0  0  0  0  0  0  0  0
   -3.2410   -0.3550   -0.8053 H   0  0  0  0  0  0  0  0  0  0  0  0
   -1.4030    0.3425    1.3134 H   0  0  0  0  0  0  0  0  0  0  0  0
   -1.2327   -1.7392   -0.9434 H   0  0  0  0  0  0  0  0  0  0  0  0
   -2.0178   -1.8708    0.6863 H   0  0  0  0  0  0  0  0  0  0  0  0
    0.9360   -1.5615   -1.0746 H   0  0  0  0  0  0  0  0  0  0  0  0
    1.9800   -1.6179    0.4431 H   0  0  0  0  0  0  0  0  0  0  0  0
    1.2489    0.5550    1.0916 H   0  0  0  0  0  0  0  0  0  0  0  0
    2.2158    0.2311   -1.7882 H   0  0  0  0  0  0  0  0  0  0  0  0
    2.3615    1.8073   -0.8266 H   0  0  0  0  0  0  0  0  0  0  0  0
    3.7636    0.8925    0.4431 H   0  0  0  0  0  0  0  0  0  0  0  0
   -0.2909    1.8972    0.0337 H   0  0  0  0  0  0  0  0  0  0  0  0
   -0.3541    0.9483   -1.5035 H   0  0  0  0  0  0  0  0  0  0  0  0
  1  2  1  0
  2  3  1  0
  3  4  1  0
  4  5  1  0
  5  6  1  0
  6  7  1  0
  7  8  1  0
  6  9  1  0
  9  2  1  0
  1 10  1  0
  1 11  1  0
  1 12  1  0
  2 13  1  0
  3 14  1  0
  3 15  1  0
  5 16  1  0
  5 17  1  0
  6 18  1  0
  7 19  1  0
  7 20  1  0
  8 21  1  0
  9 22  1  0
  9 23  1  0
M  END
