
     RDKit          3D

 23 24  0  0  0  0  0  0  0  0999 V2000
    2.1085    0.0527   -0.8946 C   0  0  0  0  0  0  0  0  0  0  0  0
    0.6553   -0.4183   -0.8523 C   0  0  0  0  0  0  0  0  0  0  0  0
    0.6607   -1.7149   -0.1667 C   0  0  0  0  0  0  0  0  0  0  0  0
   -0.1860   -1.7382    0.8076 C   0  0  0  0  0  0  0  0  0  0  0  0
   -0.8917   -0.4573    0.9259 C   0  0  0  0  0  0  0  0  0  0  0  0
   -2.2361   -0.6166    0.2265 C   0  0  0  0  0  0  0  0  0  0  0  0
   -0.0694    0.4722    0.0937 C   0  0  0  0  0  0  0  0  0  0  0  0
    0.6045    1.6490    0.6336 C   0  0  0  0  0  0  0  0  0  0  0  0
   -0.6053    1.7894   -0.2695 C   0  0  0  0  0  0  0  0  0  0  0  0
    2.4068    0.2084    0.1633 H   0  0  0  0  0  0  0  0  0  0  0  0
    2.2190    0.9960   -1.4269 H   0  0  0  0  0  0  0  0  0  0  0  0
    2.7764   -0.7344   -1.2889 H   0  0  0  0  0  0  0  0  0  0  0  0
    0.2140   -0.4479   -1.8666 H   0  0  0  0  0  0  0  0  0  0  0  0
    1.3050   -2.5484   -0.4540 H   0  0  0  0  0  0  0  0  0  0  0  0
   -0.3919   -2.5777    1.4894 H   0  0  0  0  0  0  0  0  0  0  0  0
   -1.0193   -0.1149    1.9725 H   0  0  0  0  0  0  0  0  0  0  0  0
   -2.0133   -0.6082   -0.8599 H   0  0  0  0  0  0  0  0  0  0  0  0
   -2.7123   -1.5782    0.4708 H   0  0  0  0  0  0  0  0  0  0  0  0
   -2.8672    0.2661    0.4240 H   0  0  0  0  0  0  0  0  0  0  0  0
    1.5289    2.0481    0.1767 H   0  0  0  0  0  0  0  0  0  0  0  0
    0.4898    1.8320    1.7235 H   0  0  0  0  0  0  0  0  0  0  0  0
   -0.4661    2.1168   -1.3051 H   0  0  0  0  0  0  0  0  0  0  0  0
   -1.5104    2.1241    0.2770 H   0  0  0  0  0  0  0  0  0  0  0  0
  1  2  1  0
  2  3  1  0
  3  4  2  0
  4  5  1  0
  5  6  1  0
  5  7  1  0
  7  8  1  0
  8  9  1  0
  7  2  1  0
  9  7  1  0
  1 10  1  0
  1 11  1  0
  1 12  1  0
  2 13  1  0
  3 14  1  0
  4 15  1  0
  5 16  1  0
  6 17  1  0
  6 18  1  0
  6 19  1  0
  8 20  1  0
  8 21  1  0
  9 22  1  0
  9 23  1  0
M  END
