
     RDKit          3D

 23 24  0  0  0  0  0  0  0  0999 V2000
   -1.9565   -1.3460   -0.0736 C   0  0  0  0  0  0  0  0  0  0  0  0
   -1.1725   -0.1575    0.4859 C   0  0  0  0  0  0  0  0  0  0  0  0
   -1.3788    1.0079   -0.4135 C   0  0  0  0  0  0  0  0  0  0  0  0
   -0.1346    1.8682   -0.5434 C   0  0  0  0  0  0  0  0  0  0  0  0
    0.9248    1.1054   -0.9085 O   0  0  0  0  0  0  0  0  0  0  0  0
    1.2653    0.0767   -0.0963 C   0  0  0  0  0  0  0  0  0  0  0  0
    2.3347   -0.8549   -0.6874 C   0  0  0  0  0  0  0  0  0  0  0  0
    1.2310    0.3031    1.3722 C   0  0  0  0  0  0  0  0  0  0  0  0
    0.2359   -0.5693    0.6908 C   0  0  0  0  0  0  0  0  0  0  0  0
   -2.9744   -1.4022    0.3439 H   0  0  0  0  0  0  0  0  0  0  0  0
   -1.9795   -1.2527   -1.1755 H   0  0  0  0  0  0  0  0  0  0  0  0
   -1.4325   -2.2634    0.1932 H   0  0  0  0  0  0  0  0  0  0  0  0
   -1.6616    0.0566    1.4808 H   0  0  0  0  0  0  0  0  0  0  0  0
   -2.2824    1.6046   -0.1760 H   0  0  0  0  0  0  0  0  0  0  0  0
   -1.5687    0.6059   -1.4508 H   0  0  0  0  0  0  0  0  0  0  0  0
   -0.3554    2.5740   -1.3972 H   0  0  0  0  0  0  0  0  0  0  0  0
    0.0067    2.5124    0.3361 H   0  0  0  0  0  0  0  0  0  0  0  0
    2.7694   -1.5141    0.0663 H   0  0  0  0  0  0  0  0  0  0  0  0
    1.7644   -1.5228   -1.3945 H   0  0  0  0  0  0  0  0  0  0  0  0
    3.0553   -0.3116   -1.3058 H   0  0  0  0  0  0  0  0  0  0  0  0
    2.0685   -0.1316    1.9458 H   0  0  0  0  0  0  0  0  0  0  0  0
    0.8844    1.2754    1.7639 H   0  0  0  0  0  0  0  0  0  0  0  0
    0.3565   -1.6641    0.9435 H   0  0  0  0  0  0  0  0  0  0  0  0
  1  2  1  0
  2  3  1  0
  3  4  1  0
  4  5  1  0
  5  6  1  0
  6  7  1  0
  6  8  1  0
  8  9  1  0
  9  2  1  0
  9  6  1  0
  1 10  1  0
  1 11  1  0
  1 12  1  0
  2 13  1  0
  3 14  1  0
  3 15  1  0
  4 16  1  0
  4 17  1  0
  7 18  1  0
  7 19  1  0
  7 20  1  0
  8 21  1  0
  8 22  1  0
  9 23  1  0
M  END
