
     RDKit          3D

 18 19  0  0  0  0  0  0  0  0999 V2000
   -2.0532   -0.5027   -0.2222 C   0  0  0  0  0  0  0  0  0  0  0  0
   -0.5506   -0.5105   -0.0423 C   0  0  0  0  0  0  0  0  0  0  0  0
    0.1216    0.7314   -0.6641 C   0  0  0  0  0  0  0  0  0  0  0  0
   -0.6330    1.8625   -0.4822 O   0  0  0  0  0  0  0  0  0  0  0  0
    1.1722    0.4280    0.3507 C   0  0  0  0  0  0  0  0  0  0  0  0
    2.0138   -0.7722   -0.0732 C   0  0  0  0  0  0  0  0  0  0  0  0
    1.1073    0.4266    1.6676 O   0  0  0  0  0  0  0  0  0  0  0  0
   -0.0842    0.1175    1.2191 C   0  0  0  0  0  0  0  0  0  0  0  0
   -2.3570    0.2207   -1.0283 H   0  0  0  0  0  0  0  0  0  0  0  0
   -2.5087   -0.0863    0.7144 H   0  0  0  0  0  0  0  0  0  0  0  0
   -2.4675   -1.5066   -0.3862 H   0  0  0  0  0  0  0  0  0  0  0  0
   -0.1384   -1.4550   -0.3595 H   0  0  0  0  0  0  0  0  0  0  0  0
    0.4269    0.5282   -1.6847 H   0  0  0  0  0  0  0  0  0  0  0  0
   -0.1873    2.5598    0.0709 H   0  0  0  0  0  0  0  0  0  0  0  0
    1.7302   -1.6977    0.4125 H   0  0  0  0  0  0  0  0  0  0  0  0
    2.0919   -0.8150   -1.1788 H   0  0  0  0  0  0  0  0  0  0  0  0
    3.0688   -0.5500    0.2722 H   0  0  0  0  0  0  0  0  0  0  0  0
   -0.7529    1.0212    1.4141 H   0  0  0  0  0  0  0  0  0  0  0  0
  1  2  1  0
  2  3  1  0
  3  4  1  0
  3  5  1  0
  5  6  1  0
  5  7  1  0
  7  8  1  0
  8  2  1  0
  8  5  1  0
  1  9  1  0
  1 10  1  0
  1 11  1  0
  2 12  1  0
  3 13  1  0
  4 14  1  0
  6 15  1  0
  6 16  1  0
  6 17  1  0
  8 18  1  0
M  END
