
     RDKit          3D

 17 17  0  0  0  0  0  0  0  0999 V2000
    1.8129    0.9859   -0.3102 C   0  0  0  0  0  0  0  0  0  0  0  0
    1.0348   -0.1575    0.2952 C   0  0  0  0  0  0  0  0  0  0  0  0
    0.2918   -0.8114   -0.8426 C   0  0  0  0  0  0  0  0  0  0  0  0
    0.8299   -1.0100   -1.9156 O   0  0  0  0  0  0  0  0  0  0  0  0
   -1.0814   -1.1207   -0.4074 C   0  0  0  0  0  0  0  0  0  0  0  0
   -1.3676   -0.1091    0.6835 C   0  0  0  0  0  0  0  0  0  0  0  0
   -2.0514    0.9962    0.2095 O   0  0  0  0  0  0  0  0  0  0  0  0
   -0.0324    0.3006    1.1965 C   0  0  0  0  0  0  0  0  0  0  0  0
    0.1628    0.9277    2.2182 O   0  0  0  0  0  0  0  0  0  0  0  0
    1.5460    1.1773   -1.3703 H   0  0  0  0  0  0  0  0  0  0  0  0
    1.6314    1.9345    0.2297 H   0  0  0  0  0  0  0  0  0  0  0  0
    2.8875    0.7487   -0.2767 H   0  0  0  0  0  0  0  0  0  0  0  0
    1.6837   -0.9285    0.7429 H   0  0  0  0  0  0  0  0  0  0  0  0
   -1.8194   -1.0282   -1.2295 H   0  0  0  0  0  0  0  0  0  0  0  0
   -1.0888   -2.1495   -0.0102 H   0  0  0  0  0  0  0  0  0  0  0  0
   -1.9771   -0.6334    1.4506 H   0  0  0  0  0  0  0  0  0  0  0  0
   -2.4630    0.8773   -0.6635 H   0  0  0  0  0  0  0  0  0  0  0  0
  1  2  1  0
  2  3  1  0
  3  4  2  0
  3  5  1  0
  5  6  1  0
  6  7  1  0
  6  8  1  0
  8  9  2  0
  8  2  1  0
  1 10  1  0
  1 11  1  0
  1 12  1  0
  2 13  1  0
  5 14  1  0
  5 15  1  0
  6 16  1  0
  7 17  1  0
M  END
