
     RDKit          3D

 23 23  0  0  0  0  0  0  0  0999 V2000
    2.0995    0.5307    0.6679 C   0  0  0  0  0  0  0  0  0  0  0  0
    1.0015   -0.1110   -0.1522 C   0  0  0  0  0  0  0  0  0  0  0  0
    0.8552   -1.5833    0.1343 C   0  0  0  0  0  0  0  0  0  0  0  0
   -0.4931   -2.0939   -0.1879 C   0  0  0  0  0  0  0  0  0  0  0  0
   -1.4909   -1.3630   -0.6471 C   0  0  0  0  0  0  0  0  0  0  0  0
   -1.3047    0.1115   -0.8821 C   0  0  0  0  0  0  0  0  0  0  0  0
   -2.4852    0.8140   -0.7357 O   0  0  0  0  0  0  0  0  0  0  0  0
   -0.3041    0.5503    0.1940 C   0  0  0  0  0  0  0  0  0  0  0  0
   -0.2195    2.0330    0.3194 C   0  0  0  0  0  0  0  0  0  0  0  0
    3.0821    0.0399    0.4582 H   0  0  0  0  0  0  0  0  0  0  0  0
    1.8363    0.5359    1.7305 H   0  0  0  0  0  0  0  0  0  0  0  0
    2.1882    1.5813    0.3193 H   0  0  0  0  0  0  0  0  0  0  0  0
    1.2070    0.0013   -1.2235 H   0  0  0  0  0  0  0  0  0  0  0  0
    1.6674   -2.1818   -0.3354 H   0  0  0  0  0  0  0  0  0  0  0  0
    1.0193   -1.7067    1.2446 H   0  0  0  0  0  0  0  0  0  0  0  0
   -0.6735   -3.1511   -0.0341 H   0  0  0  0  0  0  0  0  0  0  0  0
   -2.4778   -1.7650   -0.8774 H   0  0  0  0  0  0  0  0  0  0  0  0
   -0.8400    0.2451   -1.8798 H   0  0  0  0  0  0  0  0  0  0  0  0
   -3.2045    0.2083   -0.4328 H   0  0  0  0  0  0  0  0  0  0  0  0
   -0.6905    0.0968    1.1416 H   0  0  0  0  0  0  0  0  0  0  0  0
   -1.2695    2.4317    0.2085 H   0  0  0  0  0  0  0  0  0  0  0  0
    0.0547    2.2779    1.3805 H   0  0  0  0  0  0  0  0  0  0  0  0
    0.4419    2.4979   -0.4110 H   0  0  0  0  0  0  0  0  0  0  0  0
  1  2  1  0
  2  3  1  0
  3  4  1  0
  4  5  2  0
  5  6  1  0
  6  7  1  0
  6  8  1  0
  8  9  1  0
  8  2  1  0
  1 10  1  0
  1 11  1  0
  1 12  1  0
  2 13  1  0
  3 14  1  0
  3 15  1  0
  4 16  1  0
  5 17  1  0
  6 18  1  0
  7 19  1  0
  8 20  1  0
  9 21  1  0
  9 22  1  0
  9 23  1  0
M  END
