
     RDKit          3D

 18 18  0  0  0  0  0  0  0  0999 V2000
    1.4776   -1.0340    0.2058 C   0  0  0  0  0  0  0  0  0  0  0  0
    0.9519    0.2781   -0.3009 C   0  0  0  0  0  0  0  0  0  0  0  0
    0.5927    1.2576    0.7639 C   0  0  0  0  0  0  0  0  0  0  0  0
    1.0195    1.5133    1.8765 O   0  0  0  0  0  0  0  0  0  0  0  0
   -0.4835    1.7317   -0.1673 C   0  0  0  0  0  0  0  0  0  0  0  0
   -0.4980    0.2953   -0.7113 C   0  0  0  0  0  0  0  0  0  0  0  0
   -1.3879   -0.5582    0.1723 C   0  0  0  0  0  0  0  0  0  0  0  0
   -0.9270   -1.8517    0.0942 O   0  0  0  0  0  0  0  0  0  0  0  0
    1.1266   -1.2479    1.2370 H   0  0  0  0  0  0  0  0  0  0  0  0
    2.5953   -0.9084    0.2951 H   0  0  0  0  0  0  0  0  0  0  0  0
    1.3330   -1.8657   -0.4967 H   0  0  0  0  0  0  0  0  0  0  0  0
    1.5920    0.7314   -1.0956 H   0  0  0  0  0  0  0  0  0  0  0  0
   -1.4178    2.0335    0.3132 H   0  0  0  0  0  0  0  0  0  0  0  0
   -0.0653    2.4209   -0.9286 H   0  0  0  0  0  0  0  0  0  0  0  0
   -0.7029    0.2303   -1.7881 H   0  0  0  0  0  0  0  0  0  0  0  0
   -2.4389   -0.4465   -0.1653 H   0  0  0  0  0  0  0  0  0  0  0  0
   -1.3122   -0.1564    1.2233 H   0  0  0  0  0  0  0  0  0  0  0  0
   -1.4553   -2.4234   -0.5277 H   0  0  0  0  0  0  0  0  0  0  0  0
  1  2  1  0
  2  3  1  0
  3  4  2  0
  3  5  1  0
  5  6  1  0
  6  7  1  0
  7  8  1  0
  6  2  1  0
  1  9  1  0
  1 10  1  0
  1 11  1  0
  2 12  1  0
  5 13  1  0
  5 14  1  0
  6 15  1  0
  7 16  1  0
  7 17  1  0
  8 18  1  0
M  END
