
     RDKit          3D

 21 22  0  0  0  0  0  0  0  0999 V2000
    2.2960    0.7376    0.3104 C   0  0  0  0  0  0  0  0  0  0  0  0
    1.5986   -0.5804    0.3115 C   0  0  0  0  0  0  0  0  0  0  0  0
    1.1804   -0.9535   -1.1192 C   0  0  0  0  0  0  0  0  0  0  0  0
   -0.1567   -0.3586   -0.8482 C   0  0  0  0  0  0  0  0  0  0  0  0
   -1.2980    0.1865   -1.2426 C   0  0  0  0  0  0  0  0  0  0  0  0
   -2.2970    0.5831   -0.2322 C   0  0  0  0  0  0  0  0  0  0  0  0
   -1.7720    0.3481    1.1607 C   0  0  0  0  0  0  0  0  0  0  0  0
   -0.3942    0.5495    1.2352 O   0  0  0  0  0  0  0  0  0  0  0  0
    0.1487   -0.5846    0.6141 C   0  0  0  0  0  0  0  0  0  0  0  0
    1.7063    1.5300   -0.1505 H   0  0  0  0  0  0  0  0  0  0  0  0
    3.2506    0.6457   -0.2801 H   0  0  0  0  0  0  0  0  0  0  0  0
    2.5849    1.0645    1.3233 H   0  0  0  0  0  0  0  0  0  0  0  0
    2.2186   -1.3977    0.7185 H   0  0  0  0  0  0  0  0  0  0  0  0
    1.0782   -2.0431   -1.2708 H   0  0  0  0  0  0  0  0  0  0  0  0
    1.7848   -0.4608   -1.8796 H   0  0  0  0  0  0  0  0  0  0  0  0
   -1.4695    0.3294   -2.3260 H   0  0  0  0  0  0  0  0  0  0  0  0
   -2.5984    1.6547   -0.3309 H   0  0  0  0  0  0  0  0  0  0  0  0
   -3.2342    0.0042   -0.3656 H   0  0  0  0  0  0  0  0  0  0  0  0
   -2.0164   -0.7235    1.4112 H   0  0  0  0  0  0  0  0  0  0  0  0
   -2.3194    0.9497    1.9158 H   0  0  0  0  0  0  0  0  0  0  0  0
   -0.2913   -1.4811    1.0449 H   0  0  0  0  0  0  0  0  0  0  0  0
  1  2  1  0
  2  3  1  0
  3  4  1  0
  4  5  2  0
  5  6  1  0
  6  7  1  0
  7  8  1  0
  8  9  1  0
  9  2  1  0
  9  4  1  0
  1 10  1  0
  1 11  1  0
  1 12  1  0
  2 13  1  0
  3 14  1  0
  3 15  1  0
  5 16  1  0
  6 17  1  0
  6 18  1  0
  7 19  1  0
  7 20  1  0
  9 21  1  0
M  END
