
     RDKit          3D

 21 22  0  0  0  0  0  0  0  0999 V2000
   -1.2270    1.4532    0.8102 C   0  0  0  0  0  0  0  0  0  0  0  0
   -1.1738    0.2337    0.0291 C   0  0  0  0  0  0  0  0  0  0  0  0
   -0.3396   -0.9512    0.5232 C   0  0  0  0  0  0  0  0  0  0  0  0
   -0.8862   -1.9606   -0.4705 C   0  0  0  0  0  0  0  0  0  0  0  0
   -0.7785   -1.2654   -1.6336 C   0  0  0  0  0  0  0  0  0  0  0  0
   -0.2211    0.0576   -1.1283 C   0  0  0  0  0  0  0  0  0  0  0  0
    0.8531   -0.4946   -0.2439 C   0  0  0  0  0  0  0  0  0  0  0  0
    1.9045    0.3111    0.3144 C   0  0  0  0  0  0  0  0  0  0  0  0
    1.7116    1.5377    0.8342 O   0  0  0  0  0  0  0  0  0  0  0  0
   -2.2968    1.7788    1.0228 H   0  0  0  0  0  0  0  0  0  0  0  0
   -0.8141    1.3907    1.8614 H   0  0  0  0  0  0  0  0  0  0  0  0
   -0.8301    2.3648    0.2707 H   0  0  0  0  0  0  0  0  0  0  0  0
   -2.2157   -0.0869   -0.2799 H   0  0  0  0  0  0  0  0  0  0  0  0
   -0.3232   -1.1914    1.5336 H   0  0  0  0  0  0  0  0  0  0  0  0
   -1.2533   -2.9440   -0.3013 H   0  0  0  0  0  0  0  0  0  0  0  0
   -1.0183   -1.5617   -2.6336 H   0  0  0  0  0  0  0  0  0  0  0  0
   -0.0490    0.8235   -1.8187 H   0  0  0  0  0  0  0  0  0  0  0  0
    1.3355   -1.3987   -0.7417 H   0  0  0  0  0  0  0  0  0  0  0  0
    2.4397   -0.2976    1.1078 H   0  0  0  0  0  0  0  0  0  0  0  0
    2.7105    0.4232   -0.4767 H   0  0  0  0  0  0  0  0  0  0  0  0
    2.4718    1.7778    1.4207 H   0  0  0  0  0  0  0  0  0  0  0  0
  1  2  1  0
  2  3  1  0
  3  4  1  0
  4  5  2  0
  5  6  1  0
  6  7  1  0
  7  8  1  0
  8  9  1  0
  6  2  1  0
  7  3  1  0
  1 10  1  0
  1 11  1  0
  1 12  1  0
  2 13  1  0
  3 14  1  0
  4 15  1  0
  5 16  1  0
  6 17  1  0
  7 18  1  0
  8 19  1  0
  8 20  1  0
  9 21  1  0
M  END
