
     RDKit          3D

 23 24  0  0  0  0  0  0  0  0999 V2000
   -2.3315   -0.4508   -0.1002 C   0  0  0  0  0  0  0  0  0  0  0  0
   -0.8837   -0.2164   -0.5315 C   0  0  0  0  0  0  0  0  0  0  0  0
   -0.1230   -1.5342   -0.4125 C   0  0  0  0  0  0  0  0  0  0  0  0
    1.2395   -1.1561    0.0654 C   0  0  0  0  0  0  0  0  0  0  0  0
    1.9158   -0.0826   -0.7526 C   0  0  0  0  0  0  0  0  0  0  0  0
    3.2994   -0.1246   -0.6974 O   0  0  0  0  0  0  0  0  0  0  0  0
    1.2031    0.3047    0.4603 C   0  0  0  0  0  0  0  0  0  0  0  0
   -0.2401    0.6000    0.5502 C   0  0  0  0  0  0  0  0  0  0  0  0
   -0.6114    2.0423    0.5223 C   0  0  0  0  0  0  0  0  0  0  0  0
   -2.7855    0.4677    0.3250 H   0  0  0  0  0  0  0  0  0  0  0  0
   -2.2809   -1.2628    0.6627 H   0  0  0  0  0  0  0  0  0  0  0  0
   -2.8843   -0.7177   -1.0012 H   0  0  0  0  0  0  0  0  0  0  0  0
   -0.8053    0.2127   -1.5316 H   0  0  0  0  0  0  0  0  0  0  0  0
   -0.6605   -2.2443    0.2209 H   0  0  0  0  0  0  0  0  0  0  0  0
   -0.0121   -1.8971   -1.4740 H   0  0  0  0  0  0  0  0  0  0  0  0
    1.8094   -1.7825    0.7579 H   0  0  0  0  0  0  0  0  0  0  0  0
    1.5210    0.0934   -1.7829 H   0  0  0  0  0  0  0  0  0  0  0  0
    3.6230   -0.3292    0.2215 H   0  0  0  0  0  0  0  0  0  0  0  0
    1.8128    0.6530    1.3197 H   0  0  0  0  0  0  0  0  0  0  0  0
   -0.6171    0.1803    1.5286 H   0  0  0  0  0  0  0  0  0  0  0  0
   -0.7149    2.4322    1.5685 H   0  0  0  0  0  0  0  0  0  0  0  0
    0.1440    2.6905    0.0402 H   0  0  0  0  0  0  0  0  0  0  0  0
   -1.6177    2.1215    0.0408 H   0  0  0  0  0  0  0  0  0  0  0  0
  1  2  1  0
  2  3  1  0
  3  4  1  0
  4  5  1  0
  5  6  1  0
  5  7  1  0
  7  8  1  0
  8  9  1  0
  8  2  1  0
  7  4  1  0
  1 10  1  0
  1 11  1  0
  1 12  1  0
  2 13  1  0
  3 14  1  0
  3 15  1  0
  4 16  1  0
  5 17  1  0
  6 18  1  0
  7 19  1  0
  8 20  1  0
  9 21  1  0
  9 22  1  0
  9 23  1  0
M  END
