
     RDKit          3D

 19 21  0  0  0  0  0  0  0  0999 V2000
    2.3955    0.0691    0.1550 C   0  0  0  0  0  0  0  0  0  0  0  0
    1.0598   -0.5003    0.5059 C   0  0  0  0  0  0  0  0  0  0  0  0
    0.1075   -0.6757   -0.6291 C   0  0  0  0  0  0  0  0  0  0  0  0
   -1.2169   -1.3027   -0.2570 C   0  0  0  0  0  0  0  0  0  0  0  0
   -2.4108   -0.4940   -0.5112 C   0  0  0  0  0  0  0  0  0  0  0  0
   -1.5032   -0.0347    0.5587 C   0  0  0  0  0  0  0  0  0  0  0  0
   -0.1209    0.4420    0.3017 C   0  0  0  0  0  0  0  0  0  0  0  0
    0.1794    1.8348   -0.0361 C   0  0  0  0  0  0  0  0  0  0  0  0
    0.8537    2.4851    0.7607 O   0  0  0  0  0  0  0  0  0  0  0  0
    2.8372    0.5336    1.0574 H   0  0  0  0  0  0  0  0  0  0  0  0
    3.0817   -0.6632   -0.3313 H   0  0  0  0  0  0  0  0  0  0  0  0
    2.2443    0.8755   -0.6001 H   0  0  0  0  0  0  0  0  0  0  0  0
    1.0108   -1.2696    1.2815 H   0  0  0  0  0  0  0  0  0  0  0  0
    0.4004   -0.5533   -1.6686 H   0  0  0  0  0  0  0  0  0  0  0  0
   -1.1993   -2.2147    0.3319 H   0  0  0  0  0  0  0  0  0  0  0  0
   -2.4021    0.1385   -1.4396 H   0  0  0  0  0  0  0  0  0  0  0  0
   -3.3975   -0.8548   -0.1878 H   0  0  0  0  0  0  0  0  0  0  0  0
   -1.7844   -0.1706    1.6332 H   0  0  0  0  0  0  0  0  0  0  0  0
   -0.1353    2.3548   -0.9251 H   0  0  0  0  0  0  0  0  0  0  0  0
  1  2  1  0
  2  3  1  0
  3  4  1  0
  4  5  1  0
  5  6  1  0
  6  7  1  0
  7  8  1  0
  8  9  2  0
  7  2  1  0
  7  3  1  0
  6  4  1  0
  1 10  1  0
  1 11  1  0
  1 12  1  0
  2 13  1  0
  3 14  1  0
  4 15  1  0
  5 16  1  0
  5 17  1  0
  6 18  1  0
  8 19  1  0
M  END
