
     RDKit          3D

 18 20  0  0  0  0  0  0  0  0999 V2000
    1.3379    0.8443    1.1172 C   0  0  0  0  0  0  0  0  0  0  0  0
    0.7709    0.6092   -0.2342 C   0  0  0  0  0  0  0  0  0  0  0  0
    1.3958   -0.6284   -0.8925 C   0  0  0  0  0  0  0  0  0  0  0  0
    1.0269   -0.8078   -2.1854 O   0  0  0  0  0  0  0  0  0  0  0  0
   -0.0142   -1.0553   -1.3344 C   0  0  0  0  0  0  0  0  0  0  0  0
   -0.5303   -0.0621   -0.3652 C   0  0  0  0  0  0  0  0  0  0  0  0
   -1.3904   -0.4578    0.7511 C   0  0  0  0  0  0  0  0  0  0  0  0
   -1.8366    0.5276   -0.3442 C   0  0  0  0  0  0  0  0  0  0  0  0
    1.6960    1.9117    1.1592 H   0  0  0  0  0  0  0  0  0  0  0  0
    0.6404    0.7287    1.9510 H   0  0  0  0  0  0  0  0  0  0  0  0
    2.2317    0.2025    1.3112 H   0  0  0  0  0  0  0  0  0  0  0  0
    0.8734    1.4590   -0.9428 H   0  0  0  0  0  0  0  0  0  0  0  0
    1.8744   -1.3772   -0.2721 H   0  0  0  0  0  0  0  0  0  0  0  0
   -0.3025   -2.1062   -1.2269 H   0  0  0  0  0  0  0  0  0  0  0  0
   -1.2440   -0.0271    1.7513 H   0  0  0  0  0  0  0  0  0  0  0  0
   -1.8457   -1.4598    0.7625 H   0  0  0  0  0  0  0  0  0  0  0  0
   -2.6709    0.1218   -0.9701 H   0  0  0  0  0  0  0  0  0  0  0  0
   -2.0129    1.5769   -0.0357 H   0  0  0  0  0  0  0  0  0  0  0  0
  1  2  1  0
  2  3  1  0
  3  4  1  0
  4  5  1  0
  5  6  1  0
  6  7  1  0
  7  8  1  0
  6  2  1  0
  5  3  1  0
  8  6  1  0
  1  9  1  0
  1 10  1  0
  1 11  1  0
  2 12  1  0
  3 13  1  0
  5 14  1  0
  7 15  1  0
  7 16  1  0
  8 17  1  0
  8 18  1  0
M  END
