
     RDKit          3D

 23 24  0  0  0  0  0  0  0  0999 V2000
    1.7577   -1.2042   -0.4587 C   0  0  0  0  0  0  0  0  0  0  0  0
    1.2244   -0.0761    0.3763 C   0  0  0  0  0  0  0  0  0  0  0  0
    0.3010   -0.5616    1.4688 C   0  0  0  0  0  0  0  0  0  0  0  0
   -0.8268    0.2178    0.8750 C   0  0  0  0  0  0  0  0  0  0  0  0
   -1.5449    1.0915    1.6690 O   0  0  0  0  0  0  0  0  0  0  0  0
   -1.1990    0.0926   -0.5444 C   0  0  0  0  0  0  0  0  0  0  0  0
   -1.3077   -1.3001   -1.0908 C   0  0  0  0  0  0  0  0  0  0  0  0
    0.0911    0.7083   -0.1916 C   0  0  0  0  0  0  0  0  0  0  0  0
    0.2836    2.2070   -0.3861 C   0  0  0  0  0  0  0  0  0  0  0  0
    1.2525   -2.1673   -0.2363 H   0  0  0  0  0  0  0  0  0  0  0  0
    1.7978   -0.9607   -1.5314 H   0  0  0  0  0  0  0  0  0  0  0  0
    2.8291   -1.3640   -0.1481 H   0  0  0  0  0  0  0  0  0  0  0  0
    2.0373    0.6144    0.7194 H   0  0  0  0  0  0  0  0  0  0  0  0
    0.2055   -1.6454    1.5236 H   0  0  0  0  0  0  0  0  0  0  0  0
    0.6463   -0.1392    2.4505 H   0  0  0  0  0  0  0  0  0  0  0  0
   -2.5095    1.0541    1.3716 H   0  0  0  0  0  0  0  0  0  0  0  0
   -1.9769    0.7985   -0.9022 H   0  0  0  0  0  0  0  0  0  0  0  0
   -0.5053   -1.5925   -1.7681 H   0  0  0  0  0  0  0  0  0  0  0  0
   -1.3939   -2.0336   -0.2399 H   0  0  0  0  0  0  0  0  0  0  0  0
   -2.2667   -1.4290   -1.6606 H   0  0  0  0  0  0  0  0  0  0  0  0
    1.0272    2.3197   -1.2114 H   0  0  0  0  0  0  0  0  0  0  0  0
   -0.6758    2.6959   -0.5969 H   0  0  0  0  0  0  0  0  0  0  0  0
    0.7531    2.6738    0.5122 H   0  0  0  0  0  0  0  0  0  0  0  0
  1  2  1  0
  2  3  1  0
  3  4  1  0
  4  5  1  0
  4  6  1  0
  6  7  1  0
  6  8  1  0
  8  9  1  0
  8  2  1  0
  8  4  1  0
  1 10  1  0
  1 11  1  0
  1 12  1  0
  2 13  1  0
  3 14  1  0
  3 15  1  0
  5 16  1  0
  6 17  1  0
  7 18  1  0
  7 19  1  0
  7 20  1  0
  9 21  1  0
  9 22  1  0
  9 23  1  0
M  END
