
     RDKit          3D

 23 24  0  0  0  0  0  0  0  0999 V2000
    2.4189   -0.6125   -0.2309 C   0  0  0  0  0  0  0  0  0  0  0  0
    0.9836   -0.1851   -0.3441 C   0  0  0  0  0  0  0  0  0  0  0  0
    0.7776    0.9767    0.6149 C   0  0  0  0  0  0  0  0  0  0  0  0
   -0.2403    1.9351    0.0692 C   0  0  0  0  0  0  0  0  0  0  0  0
   -1.5633    1.4966    0.3111 O   0  0  0  0  0  0  0  0  0  0  0  0
   -1.7033    0.3102   -0.3552 C   0  0  0  0  0  0  0  0  0  0  0  0
   -2.5302   -0.8076    0.0349 C   0  0  0  0  0  0  0  0  0  0  0  0
   -1.1992   -0.7750    0.6089 C   0  0  0  0  0  0  0  0  0  0  0  0
    0.0311   -1.3311   -0.0146 C   0  0  0  0  0  0  0  0  0  0  0  0
    3.0444    0.2867   -0.3814 H   0  0  0  0  0  0  0  0  0  0  0  0
    2.6744   -1.0027    0.7763 H   0  0  0  0  0  0  0  0  0  0  0  0
    2.7226   -1.3510   -0.9920 H   0  0  0  0  0  0  0  0  0  0  0  0
    0.8113    0.1592   -1.3774 H   0  0  0  0  0  0  0  0  0  0  0  0
    1.7497    1.5469    0.6650 H   0  0  0  0  0  0  0  0  0  0  0  0
    0.5810    0.6480    1.6469 H   0  0  0  0  0  0  0  0  0  0  0  0
   -0.0905    2.9740    0.3938 H   0  0  0  0  0  0  0  0  0  0  0  0
   -0.1366    1.9218   -1.0464 H   0  0  0  0  0  0  0  0  0  0  0  0
   -1.3060    0.3256   -1.3895 H   0  0  0  0  0  0  0  0  0  0  0  0
   -3.3827   -0.6163    0.7286 H   0  0  0  0  0  0  0  0  0  0  0  0
   -2.8080   -1.5444   -0.7499 H   0  0  0  0  0  0  0  0  0  0  0  0
   -1.0922   -0.5176    1.6800 H   0  0  0  0  0  0  0  0  0  0  0  0
    0.5311   -2.0195    0.6668 H   0  0  0  0  0  0  0  0  0  0  0  0
   -0.2732   -1.8180   -0.9837 H   0  0  0  0  0  0  0  0  0  0  0  0
  1  2  1  0
  2  3  1  0
  3  4  1  0
  4  5  1  0
  5  6  1  0
  6  7  1  0
  7  8  1  0
  8  9  1  0
  9  2  1  0
  8  6  1  0
  1 10  1  0
  1 11  1  0
  1 12  1  0
  2 13  1  0
  3 14  1  0
  3 15  1  0
  4 16  1  0
  4 17  1  0
  6 18  1  0
  7 19  1  0
  7 20  1  0
  8 21  1  0
  9 22  1  0
  9 23  1  0
M  END
