
     RDKit          3D

 23 23  0  0  0  0  0  0  0  0999 V2000
   -1.0528   -1.2889    1.4035 C   0  0  0  0  0  0  0  0  0  0  0  0
   -0.5091   -0.8740    0.0383 C   0  0  0  0  0  0  0  0  0  0  0  0
   -1.5770   -0.0602   -0.6703 C   0  0  0  0  0  0  0  0  0  0  0  0
   -1.6876    1.3051   -0.0594 C   0  0  0  0  0  0  0  0  0  0  0  0
   -0.5408    1.9857    0.0417 C   0  0  0  0  0  0  0  0  0  0  0  0
    0.6773    1.2715   -0.4742 C   0  0  0  0  0  0  0  0  0  0  0  0
    0.7892   -0.1043    0.1713 C   0  0  0  0  0  0  0  0  0  0  0  0
    1.8684   -0.8463   -0.6022 C   0  0  0  0  0  0  0  0  0  0  0  0
    3.0846   -0.2023   -0.5268 O   0  0  0  0  0  0  0  0  0  0  0  0
   -1.3126   -2.3699    1.3859 H   0  0  0  0  0  0  0  0  0  0  0  0
   -0.3405   -1.0436    2.2168 H   0  0  0  0  0  0  0  0  0  0  0  0
   -1.9888   -0.7156    1.6288 H   0  0  0  0  0  0  0  0  0  0  0  0
   -0.3620   -1.7991   -0.5826 H   0  0  0  0  0  0  0  0  0  0  0  0
   -1.2552    0.0366   -1.7364 H   0  0  0  0  0  0  0  0  0  0  0  0
   -2.5233   -0.6133   -0.5678 H   0  0  0  0  0  0  0  0  0  0  0  0
   -2.6260    1.7086    0.2744 H   0  0  0  0  0  0  0  0  0  0  0  0
   -0.5097    2.9744    0.4652 H   0  0  0  0  0  0  0  0  0  0  0  0
    1.5966    1.8205   -0.2723 H   0  0  0  0  0  0  0  0  0  0  0  0
    0.5147    1.0796   -1.5657 H   0  0  0  0  0  0  0  0  0  0  0  0
    1.1138    0.0066    1.2242 H   0  0  0  0  0  0  0  0  0  0  0  0
    1.9746   -1.8927   -0.2621 H   0  0  0  0  0  0  0  0  0  0  0  0
    1.5579   -0.8910   -1.6652 H   0  0  0  0  0  0  0  0  0  0  0  0
    3.1085    0.5126    0.1350 H   0  0  0  0  0  0  0  0  0  0  0  0
  1  2  1  0
  2  3  1  0
  3  4  1  0
  4  5  2  0
  5  6  1  0
  6  7  1  0
  7  8  1  0
  8  9  1  0
  7  2  1  0
  1 10  1  0
  1 11  1  0
  1 12  1  0
  2 13  1  0
  3 14  1  0
  3 15  1  0
  4 16  1  0
  5 17  1  0
  6 18  1  0
  6 19  1  0
  7 20  1  0
  8 21  1  0
  8 22  1  0
  9 23  1  0
M  END
