
     RDKit          3D

 19 20  0  0  0  0  0  0  0  0999 V2000
   -2.4555    0.4792   -0.4302 C   0  0  0  0  0  0  0  0  0  0  0  0
   -1.1403    0.1896    0.2395 C   0  0  0  0  0  0  0  0  0  0  0  0
   -0.7646   -1.2765    0.1786 C   0  0  0  0  0  0  0  0  0  0  0  0
    0.4814   -1.3577   -0.4066 O   0  0  0  0  0  0  0  0  0  0  0  0
    1.0901   -0.1274   -0.3110 C   0  0  0  0  0  0  0  0  0  0  0  0
    2.5047    0.1239   -0.4807 C   0  0  0  0  0  0  0  0  0  0  0  0
    1.9697    0.0455    0.9138 C   0  0  0  0  0  0  0  0  0  0  0  0
    0.0083    0.8239   -0.4410 C   0  0  0  0  0  0  0  0  0  0  0  0
    0.0107    1.8988   -0.9769 O   0  0  0  0  0  0  0  0  0  0  0  0
   -2.6719   -0.2429   -1.2428 H   0  0  0  0  0  0  0  0  0  0  0  0
   -2.3824    1.4744   -0.8984 H   0  0  0  0  0  0  0  0  0  0  0  0
   -3.2628    0.5153    0.3395 H   0  0  0  0  0  0  0  0  0  0  0  0
   -1.1684    0.4762    1.3304 H   0  0  0  0  0  0  0  0  0  0  0  0
   -0.6878   -1.7381    1.1844 H   0  0  0  0  0  0  0  0  0  0  0  0
   -1.5482   -1.8178   -0.4271 H   0  0  0  0  0  0  0  0  0  0  0  0
    2.8333    1.1291   -0.7969 H   0  0  0  0  0  0  0  0  0  0  0  0
    3.1539   -0.6951   -0.8481 H   0  0  0  0  0  0  0  0  0  0  0  0
    2.1837   -0.8556    1.5426 H   0  0  0  0  0  0  0  0  0  0  0  0
    1.8463    0.9553    1.5308 H   0  0  0  0  0  0  0  0  0  0  0  0
  1  2  1  0
  2  3  1  0
  3  4  1  0
  4  5  1  0
  5  6  1  0
  6  7  1  0
  5  8  1  0
  8  9  2  0
  8  2  1  0
  7  5  1  0
  1 10  1  0
  1 11  1  0
  1 12  1  0
  2 13  1  0
  3 14  1  0
  3 15  1  0
  6 16  1  0
  6 17  1  0
  7 18  1  0
  7 19  1  0
M  END
