
     RDKit          3D

 22 23  0  0  0  0  0  0  0  0999 V2000
   -1.5763   -1.2137   -0.7021 C   0  0  0  0  0  0  0  0  0  0  0  0
   -0.4579   -0.9475    0.2751 C   0  0  0  0  0  0  0  0  0  0  0  0
   -0.8344    0.2123    1.2247 C   0  0  0  0  0  0  0  0  0  0  0  0
   -0.1457    1.4422    0.5979 C   0  0  0  0  0  0  0  0  0  0  0  0
   -0.0457    0.9726   -0.8014 C   0  0  0  0  0  0  0  0  0  0  0  0
    0.9395    0.3335   -1.5727 C   0  0  0  0  0  0  0  0  0  0  0  0
    0.7321   -0.3363   -0.3570 C   0  0  0  0  0  0  0  0  0  0  0  0
    1.8344   -0.1116    0.6952 C   0  0  0  0  0  0  0  0  0  0  0  0
   -1.9464   -2.2647   -0.5469 H   0  0  0  0  0  0  0  0  0  0  0  0
   -1.1868   -1.1678   -1.7211 H   0  0  0  0  0  0  0  0  0  0  0  0
   -2.4671   -0.5710   -0.5245 H   0  0  0  0  0  0  0  0  0  0  0  0
   -0.2069   -1.8225    0.8832 H   0  0  0  0  0  0  0  0  0  0  0  0
   -0.4957    0.0287    2.2411 H   0  0  0  0  0  0  0  0  0  0  0  0
   -1.9302    0.3421    1.2481 H   0  0  0  0  0  0  0  0  0  0  0  0
    0.7777    1.7018    1.1006 H   0  0  0  0  0  0  0  0  0  0  0  0
   -0.8805    2.2862    0.6776 H   0  0  0  0  0  0  0  0  0  0  0  0
   -1.1066    0.8040   -1.1730 H   0  0  0  0  0  0  0  0  0  0  0  0
    1.8988    0.8767   -1.7663 H   0  0  0  0  0  0  0  0  0  0  0  0
    0.6592   -0.2161   -2.5193 H   0  0  0  0  0  0  0  0  0  0  0  0
    1.4707   -0.1126    1.7180 H   0  0  0  0  0  0  0  0  0  0  0  0
    2.5032   -1.0004    0.5830 H   0  0  0  0  0  0  0  0  0  0  0  0
    2.4646    0.7644    0.4397 H   0  0  0  0  0  0  0  0  0  0  0  0
  1  2  1  0
  2  3  1  0
  3  4  1  0
  4  5  1  0
  5  6  1  0
  6  7  1  0
  7  8  1  0
  7  2  1  0
  7  5  1  0
  1  9  1  0
  1 10  1  0
  1 11  1  0
  2 12  1  0
  3 13  1  0
  3 14  1  0
  4 15  1  0
  4 16  1  0
  5 17  1  0
  6 18  1  0
  6 19  1  0
  8 20  1  0
  8 21  1  0
  8 22  1  0
M  END
