
     RDKit          3D

 21 22  0  0  0  0  0  0  0  0999 V2000
   -2.8192    0.2555   -0.1403 C   0  0  0  0  0  0  0  0  0  0  0  0
   -1.5447   -0.5204    0.0732 C   0  0  0  0  0  0  0  0  0  0  0  0
   -0.6384   -0.8579   -1.0329 C   0  0  0  0  0  0  0  0  0  0  0  0
   -0.2771    0.3090   -0.1845 C   0  0  0  0  0  0  0  0  0  0  0  0
   -0.4380    1.5498   -0.8064 O   0  0  0  0  0  0  0  0  0  0  0  0
    0.7317    0.1751    0.9316 C   0  0  0  0  0  0  0  0  0  0  0  0
    2.0414    0.9725    0.7644 C   0  0  0  0  0  0  0  0  0  0  0  0
    2.0237   -0.5389    0.6937 C   0  0  0  0  0  0  0  0  0  0  0  0
    2.2195   -1.1266   -0.5605 O   0  0  0  0  0  0  0  0  0  0  0  0
   -3.6771   -0.4533   -0.1041 H   0  0  0  0  0  0  0  0  0  0  0  0
   -2.9380    0.9222    0.7496 H   0  0  0  0  0  0  0  0  0  0  0  0
   -2.8320    0.8201   -1.0778 H   0  0  0  0  0  0  0  0  0  0  0  0
   -1.5750   -1.1979    0.9352 H   0  0  0  0  0  0  0  0  0  0  0  0
   -0.0043   -1.7591   -0.9088 H   0  0  0  0  0  0  0  0  0  0  0  0
   -0.9489   -0.6847   -2.0845 H   0  0  0  0  0  0  0  0  0  0  0  0
    0.0796    1.4955   -1.6669 H   0  0  0  0  0  0  0  0  0  0  0  0
    0.3342    0.0853    1.9671 H   0  0  0  0  0  0  0  0  0  0  0  0
    2.1505    1.5558   -0.1790 H   0  0  0  0  0  0  0  0  0  0  0  0
    2.4283    1.4406    1.7154 H   0  0  0  0  0  0  0  0  0  0  0  0
    2.5126   -1.0492    1.5567 H   0  0  0  0  0  0  0  0  0  0  0  0
    3.1708   -1.3932   -0.6411 H   0  0  0  0  0  0  0  0  0  0  0  0
  1  2  1  0
  2  3  1  0
  3  4  1  0
  4  5  1  0
  4  6  1  0
  6  7  1  0
  7  8  1  0
  8  9  1  0
  4  2  1  0
  8  6  1  0
  1 10  1  0
  1 11  1  0
  1 12  1  0
  2 13  1  0
  3 14  1  0
  3 15  1  0
  5 16  1  0
  6 17  1  0
  7 18  1  0
  7 19  1  0
  8 20  1  0
  9 21  1  0
M  END
