
     RDKit          3D

 19 20  0  0  0  0  0  0  0  0999 V2000
   -2.7731    0.7186    0.0460 C   0  0  0  0  0  0  0  0  0  0  0  0
   -1.7533   -0.4301    0.0529 C   0  0  0  0  0  0  0  0  0  0  0  0
   -0.4898   -0.1279    0.5905 C   0  0  0  0  0  0  0  0  0  0  0  0
    0.5013    0.7483    0.2756 O   0  0  0  0  0  0  0  0  0  0  0  0
    1.2982   -0.0413   -0.5897 C   0  0  0  0  0  0  0  0  0  0  0  0
    2.4713   -0.5473    0.2062 C   0  0  0  0  0  0  0  0  0  0  0  0
    3.1653    0.5721    0.6634 O   0  0  0  0  0  0  0  0  0  0  0  0
    0.4710   -1.0933   -1.0369 O   0  0  0  0  0  0  0  0  0  0  0  0
   -0.7489   -0.4977   -0.9286 C   0  0  0  0  0  0  0  0  0  0  0  0
   -2.7943    1.2180    1.0341 H   0  0  0  0  0  0  0  0  0  0  0  0
   -2.4077    1.4997   -0.6802 H   0  0  0  0  0  0  0  0  0  0  0  0
   -3.7808    0.3786   -0.1833 H   0  0  0  0  0  0  0  0  0  0  0  0
   -2.2769   -1.3806    0.3302 H   0  0  0  0  0  0  0  0  0  0  0  0
   -0.0322   -0.9579    1.2155 H   0  0  0  0  0  0  0  0  0  0  0  0
    1.6083    0.5174   -1.4919 H   0  0  0  0  0  0  0  0  0  0  0  0
    2.1110   -1.1448    1.0658 H   0  0  0  0  0  0  0  0  0  0  0  0
    3.1555   -1.1717   -0.3636 H   0  0  0  0  0  0  0  0  0  0  0  0
    3.0244    1.3530    0.0673 H   0  0  0  0  0  0  0  0  0  0  0  0
   -0.7490    0.3869   -1.6423 H   0  0  0  0  0  0  0  0  0  0  0  0
  1  2  1  0
  2  3  1  0
  3  4  1  0
  4  5  1  0
  5  6  1  0
  6  7  1  0
  5  8  1  0
  8  9  1  0
  9  2  1  0
  9  3  1  0
  1 10  1  0
  1 11  1  0
  1 12  1  0
  2 13  1  0
  3 14  1  0
  5 15  1  0
  6 16  1  0
  6 17  1  0
  7 18  1  0
  9 19  1  0
M  END
