
     RDKit          3D

 23 24  0  0  0  0  0  0  0  0999 V2000
    2.3611   -0.2716    0.1768 C   0  0  0  0  0  0  0  0  0  0  0  0
    1.1019    0.0583   -0.6381 C   0  0  0  0  0  0  0  0  0  0  0  0
    0.5003    1.3375   -0.2159 C   0  0  0  0  0  0  0  0  0  0  0  0
   -0.8835    1.2872    0.2978 C   0  0  0  0  0  0  0  0  0  0  0  0
   -1.4488   -0.0936    0.3102 C   0  0  0  0  0  0  0  0  0  0  0  0
   -2.7218   -0.2526    0.7605 O   0  0  0  0  0  0  0  0  0  0  0  0
   -0.4232   -1.0426    0.9047 C   0  0  0  0  0  0  0  0  0  0  0  0
    0.1815   -1.1151   -0.4983 C   0  0  0  0  0  0  0  0  0  0  0  0
   -1.1635   -0.7287   -1.0485 C   0  0  0  0  0  0  0  0  0  0  0  0
    2.6570    0.6211    0.7523 H   0  0  0  0  0  0  0  0  0  0  0  0
    2.1275   -1.0615    0.9390 H   0  0  0  0  0  0  0  0  0  0  0  0
    3.1582   -0.6873   -0.4541 H   0  0  0  0  0  0  0  0  0  0  0  0
    1.4382    0.0880   -1.7124 H   0  0  0  0  0  0  0  0  0  0  0  0
    0.5177    2.0508   -1.0908 H   0  0  0  0  0  0  0  0  0  0  0  0
    1.1972    1.8204    0.5306 H   0  0  0  0  0  0  0  0  0  0  0  0
   -0.8984    1.6645    1.3494 H   0  0  0  0  0  0  0  0  0  0  0  0
   -1.5780    1.9811   -0.2567 H   0  0  0  0  0  0  0  0  0  0  0  0
   -3.2390    0.5525    0.9248 H   0  0  0  0  0  0  0  0  0  0  0  0
   -0.8099   -1.9942    1.2763 H   0  0  0  0  0  0  0  0  0  0  0  0
    0.2508   -0.4967    1.6190 H   0  0  0  0  0  0  0  0  0  0  0  0
    0.5929   -2.0722   -0.7870 H   0  0  0  0  0  0  0  0  0  0  0  0
   -1.1331   -0.0157   -1.8915 H   0  0  0  0  0  0  0  0  0  0  0  0
   -1.7850   -1.6294   -1.2482 H   0  0  0  0  0  0  0  0  0  0  0  0
  1  2  1  0
  2  3  1  0
  3  4  1  0
  4  5  1  0
  5  6  1  0
  5  7  1  0
  7  8  1  0
  8  9  1  0
  8  2  1  0
  9  5  1  0
  1 10  1  0
  1 11  1  0
  1 12  1  0
  2 13  1  0
  3 14  1  0
  3 15  1  0
  4 16  1  0
  4 17  1  0
  6 18  1  0
  7 19  1  0
  7 20  1  0
  8 21  1  0
  9 22  1  0
  9 23  1  0
M  END
