
     RDKit          3D

 19 19  0  0  0  0  0  0  0  0999 V2000
   -1.2089   -0.9773   -0.6956 C   0  0  0  0  0  0  0  0  0  0  0  0
   -1.0041   -0.0716    0.4970 C   0  0  0  0  0  0  0  0  0  0  0  0
    0.1950   -0.5758    1.2846 C   0  0  0  0  0  0  0  0  0  0  0  0
    1.1163   -1.2131    0.5182 O   0  0  0  0  0  0  0  0  0  0  0  0
    1.9198   -0.4851   -0.2707 C   0  0  0  0  0  0  0  0  0  0  0  0
    1.5633    0.7812   -0.6527 O   0  0  0  0  0  0  0  0  0  0  0  0
    0.3981    1.4837   -0.7671 C   0  0  0  0  0  0  0  0  0  0  0  0
    0.3207    2.3296   -1.6705 O   0  0  0  0  0  0  0  0  0  0  0  0
   -0.7818    1.3405    0.0752 C   0  0  0  0  0  0  0  0  0  0  0  0
   -0.4774   -0.6790   -1.4921 H   0  0  0  0  0  0  0  0  0  0  0  0
   -1.0405   -2.0273   -0.3701 H   0  0  0  0  0  0  0  0  0  0  0  0
   -2.2308   -0.8418   -1.0753 H   0  0  0  0  0  0  0  0  0  0  0  0
   -1.9231   -0.1209    1.1170 H   0  0  0  0  0  0  0  0  0  0  0  0
   -0.2251   -1.3439    1.9950 H   0  0  0  0  0  0  0  0  0  0  0  0
    0.6056    0.2266    1.9399 H   0  0  0  0  0  0  0  0  0  0  0  0
    2.9352   -0.4218    0.2239 H   0  0  0  0  0  0  0  0  0  0  0  0
    2.1345   -1.0870   -1.2044 H   0  0  0  0  0  0  0  0  0  0  0  0
   -0.6166    1.9544    0.9953 H   0  0  0  0  0  0  0  0  0  0  0  0
   -1.6802    1.7285   -0.4477 H   0  0  0  0  0  0  0  0  0  0  0  0
  1  2  1  0
  2  3  1  0
  3  4  1  0
  4  5  1  0
  5  6  1  0
  6  7  1  0
  7  8  2  0
  7  9  1  0
  9  2  1  0
  1 10  1  0
  1 11  1  0
  1 12  1  0
  2 13  1  0
  3 14  1  0
  3 15  1  0
  5 16  1  0
  5 17  1  0
  9 18  1  0
  9 19  1  0
M  END
