
     RDKit          3D

 18 19  0  0  0  0  0  0  0  0999 V2000
    2.2103    0.2538   -0.5422 C   0  0  0  0  0  0  0  0  0  0  0  0
    1.1169    0.1687    0.5279 C   0  0  0  0  0  0  0  0  0  0  0  0
    0.1896   -0.8747    0.4283 C   0  0  0  0  0  0  0  0  0  0  0  0
   -0.8516   -1.3435   -0.4435 C   0  0  0  0  0  0  0  0  0  0  0  0
   -1.9301   -0.5953   -0.2227 C   0  0  0  0  0  0  0  0  0  0  0  0
   -1.5300    0.4130    0.8551 C   0  0  0  0  0  0  0  0  0  0  0  0
   -0.1668    0.6389    0.2607 C   0  0  0  0  0  0  0  0  0  0  0  0
   -0.3556    1.0699   -1.0852 O   0  0  0  0  0  0  0  0  0  0  0  0
    1.8116   -0.2011   -1.4949 H   0  0  0  0  0  0  0  0  0  0  0  0
    2.5019    1.2950   -0.7430 H   0  0  0  0  0  0  0  0  0  0  0  0
    3.0754   -0.3749   -0.2592 H   0  0  0  0  0  0  0  0  0  0  0  0
    1.5626    0.4731    1.5191 H   0  0  0  0  0  0  0  0  0  0  0  0
   -0.0322   -1.3398    1.4535 H   0  0  0  0  0  0  0  0  0  0  0  0
   -0.8653   -2.1602   -1.1933 H   0  0  0  0  0  0  0  0  0  0  0  0
   -2.9208   -0.6056   -0.6491 H   0  0  0  0  0  0  0  0  0  0  0  0
   -2.1849    1.2756    0.8599 H   0  0  0  0  0  0  0  0  0  0  0  0
   -1.4305   -0.1282    1.8100 H   0  0  0  0  0  0  0  0  0  0  0  0
   -0.2005    2.0352   -1.0815 H   0  0  0  0  0  0  0  0  0  0  0  0
  1  2  1  0
  2  3  1  0
  3  4  1  0
  4  5  2  0
  5  6  1  0
  6  7  1  0
  7  8  1  0
  7  2  1  0
  7  3  1  0
  1  9  1  0
  1 10  1  0
  1 11  1  0
  2 12  1  0
  3 13  1  0
  4 14  1  0
  5 15  1  0
  6 16  1  0
  6 17  1  0
  8 18  1  0
M  END
