
     RDKit          3D

 21 21  0  0  0  0  0  0  0  0999 V2000
    1.8889    0.6966    0.2203 C   0  0  0  0  0  0  0  0  0  0  0  0
    0.7004    0.3877   -0.6213 C   0  0  0  0  0  0  0  0  0  0  0  0
    0.9839   -0.7828   -1.4914 C   0  0  0  0  0  0  0  0  0  0  0  0
    2.1451   -1.2059   -1.8196 O   0  0  0  0  0  0  0  0  0  0  0  0
   -0.2603   -1.2835   -1.8461 O   0  0  0  0  0  0  0  0  0  0  0  0
   -1.0655   -1.1802   -0.6871 C   0  0  0  0  0  0  0  0  0  0  0  0
   -0.5226   -0.0037    0.0984 C   0  0  0  0  0  0  0  0  0  0  0  0
   -0.3051   -0.4641    1.5147 C   0  0  0  0  0  0  0  0  0  0  0  0
   -1.5283    1.1138    0.0776 C   0  0  0  0  0  0  0  0  0  0  0  0
    1.7990    1.6713    0.7185 H   0  0  0  0  0  0  0  0  0  0  0  0
    2.1321   -0.1333    0.8947 H   0  0  0  0  0  0  0  0  0  0  0  0
    2.7652    0.7721   -0.4907 H   0  0  0  0  0  0  0  0  0  0  0  0
    0.4737    1.2551   -1.2841 H   0  0  0  0  0  0  0  0  0  0  0  0
   -2.1254   -1.0136   -0.9128 H   0  0  0  0  0  0  0  0  0  0  0  0
   -0.8994   -2.1437   -0.1229 H   0  0  0  0  0  0  0  0  0  0  0  0
    0.5253   -1.1947    1.5720 H   0  0  0  0  0  0  0  0  0  0  0  0
   -1.2301   -1.0459    1.8017 H   0  0  0  0  0  0  0  0  0  0  0  0
   -0.2257    0.3597    2.2429 H   0  0  0  0  0  0  0  0  0  0  0  0
   -1.6834    1.3969   -0.9988 H   0  0  0  0  0  0  0  0  0  0  0  0
   -1.0746    1.9711    0.6181 H   0  0  0  0  0  0  0  0  0  0  0  0
   -2.4931    0.8269    0.5160 H   0  0  0  0  0  0  0  0  0  0  0  0
  1  2  1  0
  2  3  1  0
  3  4  2  0
  3  5  1  0
  5  6  1  0
  6  7  1  0
  7  8  1  0
  7  9  1  0
  7  2  1  0
  1 10  1  0
  1 11  1  0
  1 12  1  0
  2 13  1  0
  6 14  1  0
  6 15  1  0
  8 16  1  0
  8 17  1  0
  8 18  1  0
  9 19  1  0
  9 20  1  0
  9 21  1  0
M  END
