
     RDKit          3D

 17 18  0  0  0  0  0  0  0  0999 V2000
   -2.0098   -0.1495   -0.2687 C   0  0  0  0  0  0  0  0  0  0  0  0
   -0.5698   -0.5652   -0.5998 C   0  0  0  0  0  0  0  0  0  0  0  0
   -0.0247   -1.3308    0.5486 C   0  0  0  0  0  0  0  0  0  0  0  0
   -0.0439   -2.4557    1.0146 O   0  0  0  0  0  0  0  0  0  0  0  0
    0.6461   -0.0839    0.9991 C   0  0  0  0  0  0  0  0  0  0  0  0
    1.7386    0.4012    0.1332 C   0  0  0  0  0  0  0  0  0  0  0  0
    2.5666   -0.5115   -0.4909 O   0  0  0  0  0  0  0  0  0  0  0  0
    0.3468    0.5903   -0.3270 C   0  0  0  0  0  0  0  0  0  0  0  0
   -0.2137    1.8606   -0.3272 O   0  0  0  0  0  0  0  0  0  0  0  0
   -2.1564    0.8086   -0.8419 H   0  0  0  0  0  0  0  0  0  0  0  0
   -2.0311    0.1208    0.8049 H   0  0  0  0  0  0  0  0  0  0  0  0
   -2.7371   -0.9107   -0.5618 H   0  0  0  0  0  0  0  0  0  0  0  0
   -0.4913   -1.0409   -1.5846 H   0  0  0  0  0  0  0  0  0  0  0  0
    0.3506    0.4021    1.9308 H   0  0  0  0  0  0  0  0  0  0  0  0
    2.2558    1.3128    0.4767 H   0  0  0  0  0  0  0  0  0  0  0  0
    2.2018   -0.8785   -1.3134 H   0  0  0  0  0  0  0  0  0  0  0  0
    0.1715    2.4304    0.4073 H   0  0  0  0  0  0  0  0  0  0  0  0
  1  2  1  0
  2  3  1  0
  3  4  2  0
  3  5  1  0
  5  6  1  0
  6  7  1  0
  6  8  1  0
  8  9  1  0
  8  2  1  0
  8  5  1  0
  1 10  1  0
  1 11  1  0
  1 12  1  0
  2 13  1  0
  5 14  1  0
  6 15  1  0
  7 16  1  0
  9 17  1  0
M  END
