
     RDKit          3D

 19 20  0  0  0  0  0  0  0  0999 V2000
   -1.4033   -1.1918    0.3991 C   0  0  0  0  0  0  0  0  0  0  0  0
   -0.5447    0.0063    0.6718 C   0  0  0  0  0  0  0  0  0  0  0  0
    0.7907   -0.0291   -0.0721 C   0  0  0  0  0  0  0  0  0  0  0  0
    1.8495   -0.8343    0.2064 C   0  0  0  0  0  0  0  0  0  0  0  0
    0.7145    1.4711   -0.0684 C   0  0  0  0  0  0  0  0  0  0  0  0
   -0.6835    1.0335   -0.4128 C   0  0  0  0  0  0  0  0  0  0  0  0
   -1.6757    1.7550   -0.6774 O   0  0  0  0  0  0  0  0  0  0  0  0
   -0.0452    0.0201   -1.2934 C   0  0  0  0  0  0  0  0  0  0  0  0
   -0.1405   -0.4844   -2.3806 O   0  0  0  0  0  0  0  0  0  0  0  0
   -0.7928   -1.9705   -0.1367 H   0  0  0  0  0  0  0  0  0  0  0  0
   -2.2319   -0.9490   -0.2958 H   0  0  0  0  0  0  0  0  0  0  0  0
   -1.8790   -1.6153    1.3086 H   0  0  0  0  0  0  0  0  0  0  0  0
   -0.4726    0.3567    1.6946 H   0  0  0  0  0  0  0  0  0  0  0  0
    2.0117   -1.6949   -0.5101 H   0  0  0  0  0  0  0  0  0  0  0  0
    1.8223   -1.3477    1.2143 H   0  0  0  0  0  0  0  0  0  0  0  0
    2.8574   -0.3198    0.2134 H   0  0  0  0  0  0  0  0  0  0  0  0
    1.2674    1.9870   -0.8761 H   0  0  0  0  0  0  0  0  0  0  0  0
    0.8543    1.8783    0.9507 H   0  0  0  0  0  0  0  0  0  0  0  0
   -2.2986    1.9288    0.0645 H   0  0  0  0  0  0  0  0  0  0  0  0
  1  2  1  0
  2  3  1  0
  3  4  1  0
  3  5  1  0
  5  6  1  0
  6  7  1  0
  6  8  1  0
  8  9  2  0
  6  2  1  0
  8  3  1  0
  1 10  1  0
  1 11  1  0
  1 12  1  0
  2 13  1  0
  4 14  1  0
  4 15  1  0
  4 16  1  0
  5 17  1  0
  5 18  1  0
  7 19  1  0
M  END
