
     RDKit          3D

 16 17  0  0  0  0  0  0  0  0999 V2000
    1.5662   -0.2540    0.9827 C   0  0  0  0  0  0  0  0  0  0  0  0
    0.1471   -0.5479    0.5951 C   0  0  0  0  0  0  0  0  0  0  0  0
    0.0147   -1.1600   -0.7692 C   0  0  0  0  0  0  0  0  0  0  0  0
   -1.3415   -0.5393   -0.8555 C   0  0  0  0  0  0  0  0  0  0  0  0
   -0.4025    0.4912   -0.3238 C   0  0  0  0  0  0  0  0  0  0  0  0
   -0.6770    1.7910   -0.0462 C   0  0  0  0  0  0  0  0  0  0  0  0
   -1.4875    2.1509    0.7964 O   0  0  0  0  0  0  0  0  0  0  0  0
    0.5098    0.0326   -1.2718 O   0  0  0  0  0  0  0  0  0  0  0  0
    1.6843    0.8595    1.0534 H   0  0  0  0  0  0  0  0  0  0  0  0
    2.2952   -0.5609    0.1813 H   0  0  0  0  0  0  0  0  0  0  0  0
    1.8522   -0.6535    1.9645 H   0  0  0  0  0  0  0  0  0  0  0  0
   -0.5136   -0.9253    1.3789 H   0  0  0  0  0  0  0  0  0  0  0  0
    0.2830   -2.0935   -1.0416 H   0  0  0  0  0  0  0  0  0  0  0  0
   -1.6424   -0.2963   -1.8923 H   0  0  0  0  0  0  0  0  0  0  0  0
   -2.1043   -0.9257   -0.1860 H   0  0  0  0  0  0  0  0  0  0  0  0
   -0.1837    2.6313   -0.5658 H   0  0  0  0  0  0  0  0  0  0  0  0
  1  2  1  0
  2  3  1  0
  3  4  1  0
  4  5  1  0
  5  6  1  0
  6  7  2  0
  5  8  1  0
  5  2  1  0
  8  3  1  0
  1  9  1  0
  1 10  1  0
  1 11  1  0
  2 12  1  0
  3 13  1  0
  4 14  1  0
  4 15  1  0
  6 16  1  0
M  END
