
     RDKit          3D

 21 22  0  0  0  0  0  0  0  0999 V2000
   -2.1910    0.6530   -0.7868 C   0  0  0  0  0  0  0  0  0  0  0  0
   -0.9830    0.7472    0.1458 C   0  0  0  0  0  0  0  0  0  0  0  0
    0.2627    1.2506   -0.5948 C   0  0  0  0  0  0  0  0  0  0  0  0
    0.8352   -0.1496   -0.5410 C   0  0  0  0  0  0  0  0  0  0  0  0
    2.1939   -0.2302    0.0959 C   0  0  0  0  0  0  0  0  0  0  0  0
    2.1841    0.2147    1.3898 O   0  0  0  0  0  0  0  0  0  0  0  0
   -0.3261   -0.5715    0.2672 C   0  0  0  0  0  0  0  0  0  0  0  0
   -0.9119   -1.8579    0.2211 C   0  0  0  0  0  0  0  0  0  0  0  0
   -0.2584   -1.3052    1.3972 O   0  0  0  0  0  0  0  0  0  0  0  0
   -2.5116    1.6252   -1.1618 H   0  0  0  0  0  0  0  0  0  0  0  0
   -3.0241    0.2292   -0.1976 H   0  0  0  0  0  0  0  0  0  0  0  0
   -1.9434   -0.0454   -1.6170 H   0  0  0  0  0  0  0  0  0  0  0  0
   -1.2249    1.3193    1.0287 H   0  0  0  0  0  0  0  0  0  0  0  0
    0.8221    1.9686    0.0413 H   0  0  0  0  0  0  0  0  0  0  0  0
    0.0565    1.6081   -1.6212 H   0  0  0  0  0  0  0  0  0  0  0  0
    0.8486   -0.6668   -1.5345 H   0  0  0  0  0  0  0  0  0  0  0  0
    2.8582    0.4653   -0.4926 H   0  0  0  0  0  0  0  0  0  0  0  0
    2.6225   -1.2262    0.0067 H   0  0  0  0  0  0  0  0  0  0  0  0
    3.0549    0.6356    1.5923 H   0  0  0  0  0  0  0  0  0  0  0  0
   -0.3459   -2.6922   -0.2635 H   0  0  0  0  0  0  0  0  0  0  0  0
   -2.0186   -1.9719    0.3395 H   0  0  0  0  0  0  0  0  0  0  0  0
  1  2  1  0
  2  3  1  0
  3  4  1  0
  4  5  1  0
  5  6  1  0
  4  7  1  0
  7  8  1  0
  8  9  1  0
  7  2  1  0
  9  7  1  0
  1 10  1  0
  1 11  1  0
  1 12  1  0
  2 13  1  0
  3 14  1  0
  3 15  1  0
  4 16  1  0
  5 17  1  0
  5 18  1  0
  6 19  1  0
  8 20  1  0
  8 21  1  0
M  END
