
     RDKit          3D

 23 24  0  0  0  0  0  0  0  0999 V2000
    2.3234    0.3057   -0.8373 C   0  0  0  0  0  0  0  0  0  0  0  0
    1.5552   -0.2548    0.3367 C   0  0  0  0  0  0  0  0  0  0  0  0
    0.9111    0.8730    1.0318 C   0  0  0  0  0  0  0  0  0  0  0  0
   -0.2976    1.2488    0.6630 C   0  0  0  0  0  0  0  0  0  0  0  0
   -0.9958    0.5487   -0.4307 C   0  0  0  0  0  0  0  0  0  0  0  0
   -2.4712    0.8761   -0.3377 C   0  0  0  0  0  0  0  0  0  0  0  0
   -0.7504   -0.9385   -0.4054 C   0  0  0  0  0  0  0  0  0  0  0  0
   -0.5634   -1.6640    0.8662 C   0  0  0  0  0  0  0  0  0  0  0  0
    0.6039   -1.3257   -0.0215 C   0  0  0  0  0  0  0  0  0  0  0  0
    2.9848    1.1128   -0.4419 H   0  0  0  0  0  0  0  0  0  0  0  0
    2.9396   -0.5048   -1.3280 H   0  0  0  0  0  0  0  0  0  0  0  0
    1.7090    0.7399   -1.6196 H   0  0  0  0  0  0  0  0  0  0  0  0
    2.3383   -0.7048    1.0127 H   0  0  0  0  0  0  0  0  0  0  0  0
    1.4037    1.4134    1.8487 H   0  0  0  0  0  0  0  0  0  0  0  0
   -0.8073    2.0872    1.1583 H   0  0  0  0  0  0  0  0  0  0  0  0
   -0.6764    0.8926   -1.4487 H   0  0  0  0  0  0  0  0  0  0  0  0
   -2.7345    1.1680    0.6985 H   0  0  0  0  0  0  0  0  0  0  0  0
   -2.7600    1.7327   -0.9822 H   0  0  0  0  0  0  0  0  0  0  0  0
   -3.0268   -0.0138   -0.6875 H   0  0  0  0  0  0  0  0  0  0  0  0
   -1.2118   -1.4826   -1.2500 H   0  0  0  0  0  0  0  0  0  0  0  0
   -0.6462   -1.1871    1.8447 H   0  0  0  0  0  0  0  0  0  0  0  0
   -0.8948   -2.7366    0.8805 H   0  0  0  0  0  0  0  0  0  0  0  0
    1.0674   -2.1861   -0.5507 H   0  0  0  0  0  0  0  0  0  0  0  0
  1  2  1  0
  2  3  1  0
  3  4  2  0
  4  5  1  0
  5  6  1  0
  5  7  1  0
  7  8  1  0
  8  9  1  0
  9  2  1  0
  9  7  1  0
  1 10  1  0
  1 11  1  0
  1 12  1  0
  2 13  1  0
  3 14  1  0
  4 15  1  0
  5 16  1  0
  6 17  1  0
  6 18  1  0
  6 19  1  0
  7 20  1  0
  8 21  1  0
  8 22  1  0
  9 23  1  0
M  END
