
     RDKit          3D

 21 22  0  0  0  0  0  0  0  0999 V2000
    2.4765    0.4305    0.6653 C   0  0  0  0  0  0  0  0  0  0  0  0
    1.4326   -0.0606   -0.3136 C   0  0  0  0  0  0  0  0  0  0  0  0
    0.9564   -1.4450   -0.0251 C   0  0  0  0  0  0  0  0  0  0  0  0
   -0.4306   -1.5577   -0.1689 O   0  0  0  0  0  0  0  0  0  0  0  0
   -1.1325   -0.6638    0.6004 C   0  0  0  0  0  0  0  0  0  0  0  0
   -2.3781   -0.1745   -0.1241 C   0  0  0  0  0  0  0  0  0  0  0  0
   -1.9038    1.2500    0.0072 C   0  0  0  0  0  0  0  0  0  0  0  0
   -0.5732    0.7201    0.5423 C   0  0  0  0  0  0  0  0  0  0  0  0
    0.4329    0.8795   -0.3892 O   0  0  0  0  0  0  0  0  0  0  0  0
    3.3397   -0.2558    0.7542 H   0  0  0  0  0  0  0  0  0  0  0  0
    2.0457    0.7351    1.6318 H   0  0  0  0  0  0  0  0  0  0  0  0
    2.8961    1.3727    0.2112 H   0  0  0  0  0  0  0  0  0  0  0  0
    1.9486   -0.0755   -1.3184 H   0  0  0  0  0  0  0  0  0  0  0  0
    1.2324   -1.8313    0.9679 H   0  0  0  0  0  0  0  0  0  0  0  0
    1.3822   -2.1887   -0.7616 H   0  0  0  0  0  0  0  0  0  0  0  0
   -1.3668   -1.0699    1.5982 H   0  0  0  0  0  0  0  0  0  0  0  0
   -3.3073   -0.4200    0.4469 H   0  0  0  0  0  0  0  0  0  0  0  0
   -2.4435   -0.4863   -1.1905 H   0  0  0  0  0  0  0  0  0  0  0  0
   -1.7980    1.7761   -0.9644 H   0  0  0  0  0  0  0  0  0  0  0  0
   -2.4633    1.8838    0.7055 H   0  0  0  0  0  0  0  0  0  0  0  0
   -0.3461    1.1813    1.5277 H   0  0  0  0  0  0  0  0  0  0  0  0
  1  2  1  0
  2  3  1  0
  3  4  1  0
  4  5  1  0
  5  6  1  0
  6  7  1  0
  7  8  1  0
  8  9  1  0
  9  2  1  0
  8  5  1  0
  1 10  1  0
  1 11  1  0
  1 12  1  0
  2 13  1  0
  3 14  1  0
  3 15  1  0
  5 16  1  0
  6 17  1  0
  6 18  1  0
  7 19  1  0
  7 20  1  0
  8 21  1  0
M  END
