
     RDKit          3D

 20 21  0  0  0  0  0  0  0  0999 V2000
    1.7883    0.1176    0.8836 C   0  0  0  0  0  0  0  0  0  0  0  0
    1.1156   -0.0963   -0.4449 C   0  0  0  0  0  0  0  0  0  0  0  0
    0.0513    0.7931   -0.9358 C   0  0  0  0  0  0  0  0  0  0  0  0
   -0.4174    1.8443   -0.0067 C   0  0  0  0  0  0  0  0  0  0  0  0
   -1.0785    1.3168    1.0070 C   0  0  0  0  0  0  0  0  0  0  0  0
   -1.1225   -0.1823    0.8581 C   0  0  0  0  0  0  0  0  0  0  0  0
   -0.3218   -0.5205   -0.3584 C   0  0  0  0  0  0  0  0  0  0  0  0
   -0.6968   -1.6895   -1.2184 C   0  0  0  0  0  0  0  0  0  0  0  0
    2.6722    0.8031    0.8035 H   0  0  0  0  0  0  0  0  0  0  0  0
    2.1935   -0.8898    1.1929 H   0  0  0  0  0  0  0  0  0  0  0  0
    1.1245    0.4419    1.6832 H   0  0  0  0  0  0  0  0  0  0  0  0
    1.7519   -0.5727   -1.2003 H   0  0  0  0  0  0  0  0  0  0  0  0
   -0.0966    0.9648   -2.0124 H   0  0  0  0  0  0  0  0  0  0  0  0
   -0.2449    2.9004   -0.1353 H   0  0  0  0  0  0  0  0  0  0  0  0
   -1.5146    1.8610    1.8076 H   0  0  0  0  0  0  0  0  0  0  0  0
   -2.1907   -0.4192    0.6333 H   0  0  0  0  0  0  0  0  0  0  0  0
   -0.7549   -0.6955    1.7591 H   0  0  0  0  0  0  0  0  0  0  0  0
   -0.4323   -2.6208   -0.6460 H   0  0  0  0  0  0  0  0  0  0  0  0
   -1.7449   -1.7197   -1.5156 H   0  0  0  0  0  0  0  0  0  0  0  0
   -0.0814   -1.6369   -2.1544 H   0  0  0  0  0  0  0  0  0  0  0  0
  1  2  1  0
  2  3  1  0
  3  4  1  0
  4  5  2  0
  5  6  1  0
  6  7  1  0
  7  8  1  0
  7  2  1  0
  7  3  1  0
  1  9  1  0
  1 10  1  0
  1 11  1  0
  2 12  1  0
  3 13  1  0
  4 14  1  0
  5 15  1  0
  6 16  1  0
  6 17  1  0
  8 18  1  0
  8 19  1  0
  8 20  1  0
M  END
