
     RDKit          3D

 21 22  0  0  0  0  0  0  0  0999 V2000
   -2.4868   -0.6669   -0.1058 C   0  0  0  0  0  0  0  0  0  0  0  0
   -1.3264   -0.2026    0.7257 C   0  0  0  0  0  0  0  0  0  0  0  0
   -0.0030   -0.7672    0.3637 C   0  0  0  0  0  0  0  0  0  0  0  0
    1.0326   -1.4888   -0.0241 C   0  0  0  0  0  0  0  0  0  0  0  0
    2.3089   -0.7209    0.1129 C   0  0  0  0  0  0  0  0  0  0  0  0
    1.8364    0.7385    0.1858 C   0  0  0  0  0  0  0  0  0  0  0  0
    0.5156    0.5803    0.8769 C   0  0  0  0  0  0  0  0  0  0  0  0
   -0.7162    1.1277    0.2071 C   0  0  0  0  0  0  0  0  0  0  0  0
   -0.6528    1.1949   -1.1706 O   0  0  0  0  0  0  0  0  0  0  0  0
   -3.0101   -1.4569    0.4702 H   0  0  0  0  0  0  0  0  0  0  0  0
   -2.0703   -1.1562   -1.0144 H   0  0  0  0  0  0  0  0  0  0  0  0
   -3.1633    0.1597   -0.3833 H   0  0  0  0  0  0  0  0  0  0  0  0
   -1.4773   -0.1053    1.7977 H   0  0  0  0  0  0  0  0  0  0  0  0
    0.9981   -2.4993   -0.3952 H   0  0  0  0  0  0  0  0  0  0  0  0
    2.9486   -0.8416   -0.7792 H   0  0  0  0  0  0  0  0  0  0  0  0
    2.7736   -1.0396    1.0642 H   0  0  0  0  0  0  0  0  0  0  0  0
    1.7575    1.1916   -0.8113 H   0  0  0  0  0  0  0  0  0  0  0  0
    2.5182    1.2826    0.8682 H   0  0  0  0  0  0  0  0  0  0  0  0
    0.4945    0.6686    1.9618 H   0  0  0  0  0  0  0  0  0  0  0  0
   -1.1239    2.0120    0.7077 H   0  0  0  0  0  0  0  0  0  0  0  0
   -1.1539    1.9893   -1.4662 H   0  0  0  0  0  0  0  0  0  0  0  0
  1  2  1  0
  2  3  1  0
  3  4  2  0
  4  5  1  0
  5  6  1  0
  6  7  1  0
  7  8  1  0
  8  9  1  0
  8  2  1  0
  7  3  1  0
  1 10  1  0
  1 11  1  0
  1 12  1  0
  2 13  1  0
  4 14  1  0
  5 15  1  0
  5 16  1  0
  6 17  1  0
  6 18  1  0
  7 19  1  0
  8 20  1  0
  9 21  1  0
M  END
