
     RDKit          3D

 18 19  0  0  0  0  0  0  0  0999 V2000
    1.5295    0.0979   -0.9074 C   0  0  0  0  0  0  0  0  0  0  0  0
    0.9463   -0.3934    0.3578 C   0  0  0  0  0  0  0  0  0  0  0  0
   -0.3054   -1.1986    0.3104 C   0  0  0  0  0  0  0  0  0  0  0  0
   -1.3370   -0.6947   -0.6389 C   0  0  0  0  0  0  0  0  0  0  0  0
   -1.8288    0.5476   -0.2095 O   0  0  0  0  0  0  0  0  0  0  0  0
   -0.8764    1.3335    0.3815 C   0  0  0  0  0  0  0  0  0  0  0  0
    0.0734    0.4992    1.1491 C   0  0  0  0  0  0  0  0  0  0  0  0
   -0.6199   -0.6561    1.5797 O   0  0  0  0  0  0  0  0  0  0  0  0
    1.6701   -0.7063   -1.6749 H   0  0  0  0  0  0  0  0  0  0  0  0
    1.0323    0.9279   -1.3933 H   0  0  0  0  0  0  0  0  0  0  0  0
    2.5821    0.4407   -0.6782 H   0  0  0  0  0  0  0  0  0  0  0  0
    1.7034   -0.8873    0.9987 H   0  0  0  0  0  0  0  0  0  0  0  0
   -0.1992   -2.2991    0.3444 H   0  0  0  0  0  0  0  0  0  0  0  0
   -0.9942   -0.6393   -1.6934 H   0  0  0  0  0  0  0  0  0  0  0  0
   -2.2032   -1.3884   -0.6028 H   0  0  0  0  0  0  0  0  0  0  0  0
   -0.4161    1.9701   -0.4051 H   0  0  0  0  0  0  0  0  0  0  0  0
   -1.3641    2.0487    1.0836 H   0  0  0  0  0  0  0  0  0  0  0  0
    0.6074    0.9977    1.9982 H   0  0  0  0  0  0  0  0  0  0  0  0
  1  2  1  0
  2  3  1  0
  3  4  1  0
  4  5  1  0
  5  6  1  0
  6  7  1  0
  7  8  1  0
  7  2  1  0
  8  3  1  0
  1  9  1  0
  1 10  1  0
  1 11  1  0
  2 12  1  0
  3 13  1  0
  4 14  1  0
  4 15  1  0
  6 16  1  0
  6 17  1  0
  7 18  1  0
M  END
