
     RDKit          3D

 23 23  0  0  0  0  0  0  0  0999 V2000
   -2.6463    0.4430   -0.5171 C   0  0  0  0  0  0  0  0  0  0  0  0
   -1.4278    0.2039    0.3460 C   0  0  0  0  0  0  0  0  0  0  0  0
   -0.8623   -1.1632    0.1752 C   0  0  0  0  0  0  0  0  0  0  0  0
    0.5512   -1.2021   -0.3020 C   0  0  0  0  0  0  0  0  0  0  0  0
    1.4648   -0.3605    0.5385 C   0  0  0  0  0  0  0  0  0  0  0  0
    2.7577   -0.0152   -0.1414 C   0  0  0  0  0  0  0  0  0  0  0  0
    0.8030    0.9301    0.9076 C   0  0  0  0  0  0  0  0  0  0  0  0
    1.3010    1.5730    1.7956 O   0  0  0  0  0  0  0  0  0  0  0  0
   -0.4098    1.3084    0.1491 C   0  0  0  0  0  0  0  0  0  0  0  0
   -3.5828    0.5002    0.0904 H   0  0  0  0  0  0  0  0  0  0  0  0
   -2.5491    1.4516   -0.9914 H   0  0  0  0  0  0  0  0  0  0  0  0
   -2.8023   -0.3654   -1.2446 H   0  0  0  0  0  0  0  0  0  0  0  0
   -1.7684    0.2934    1.4127 H   0  0  0  0  0  0  0  0  0  0  0  0
   -1.4935   -1.7326   -0.5534 H   0  0  0  0  0  0  0  0  0  0  0  0
   -0.9082   -1.7767    1.1186 H   0  0  0  0  0  0  0  0  0  0  0  0
    0.6495   -0.9765   -1.3904 H   0  0  0  0  0  0  0  0  0  0  0  0
    0.9046   -2.2681   -0.1829 H   0  0  0  0  0  0  0  0  0  0  0  0
    1.6625   -0.9270    1.4797 H   0  0  0  0  0  0  0  0  0  0  0  0
    2.7982    1.0704   -0.4458 H   0  0  0  0  0  0  0  0  0  0  0  0
    2.9978   -0.6281   -1.0092 H   0  0  0  0  0  0  0  0  0  0  0  0
    3.5850   -0.1157    0.6099 H   0  0  0  0  0  0  0  0  0  0  0  0
   -0.7950    2.2453    0.6260 H   0  0  0  0  0  0  0  0  0  0  0  0
   -0.2298    1.5117   -0.9128 H   0  0  0  0  0  0  0  0  0  0  0  0
  1  2  1  0
  2  3  1  0
  3  4  1  0
  4  5  1  0
  5  6  1  0
  5  7  1  0
  7  8  2  0
  7  9  1  0
  9  2  1  0
  1 10  1  0
  1 11  1  0
  1 12  1  0
  2 13  1  0
  3 14  1  0
  3 15  1  0
  4 16  1  0
  4 17  1  0
  5 18  1  0
  6 19  1  0
  6 20  1  0
  6 21  1  0
  9 22  1  0
  9 23  1  0
M  END
