
     RDKit          3D

 23 25  0  0  0  0  0  0  0  0999 V2000
    2.6100    0.0186   -0.3096 C   0  0  0  0  0  0  0  0  0  0  0  0
    1.5228    0.7182    0.5123 C   0  0  0  0  0  0  0  0  0  0  0  0
    0.8283   -0.2149    1.5446 C   0  0  0  0  0  0  0  0  0  0  0  0
    0.1833    0.2129    0.3578 C   0  0  0  0  0  0  0  0  0  0  0  0
   -0.2807   -0.6089   -0.7942 C   0  0  0  0  0  0  0  0  0  0  0  0
   -1.5369   -1.2413   -0.2948 C   0  0  0  0  0  0  0  0  0  0  0  0
   -2.1444   -0.0408    0.4596 C   0  0  0  0  0  0  0  0  0  0  0  0
   -1.0589    0.9795    0.1818 C   0  0  0  0  0  0  0  0  0  0  0  0
   -0.8321    0.7305   -1.3211 C   0  0  0  0  0  0  0  0  0  0  0  0
    2.4790    0.2813   -1.3758 H   0  0  0  0  0  0  0  0  0  0  0  0
    2.4291   -1.0949   -0.2604 H   0  0  0  0  0  0  0  0  0  0  0  0
    3.6096    0.1864    0.0877 H   0  0  0  0  0  0  0  0  0  0  0  0
    1.7351    1.7399    0.8137 H   0  0  0  0  0  0  0  0  0  0  0  0
    0.6635    0.2732    2.5115 H   0  0  0  0  0  0  0  0  0  0  0  0
    1.2258   -1.2444    1.6185 H   0  0  0  0  0  0  0  0  0  0  0  0
    0.3964   -1.1322   -1.4146 H   0  0  0  0  0  0  0  0  0  0  0  0
   -2.1964   -1.4380   -1.1718 H   0  0  0  0  0  0  0  0  0  0  0  0
   -1.3922   -2.0969    0.3601 H   0  0  0  0  0  0  0  0  0  0  0  0
   -2.1483   -0.3082    1.5294 H   0  0  0  0  0  0  0  0  0  0  0  0
   -3.1138    0.2329    0.0444 H   0  0  0  0  0  0  0  0  0  0  0  0
   -1.1823    1.9800    0.4984 H   0  0  0  0  0  0  0  0  0  0  0  0
   -1.7450    0.6444   -1.9090 H   0  0  0  0  0  0  0  0  0  0  0  0
   -0.0520    1.4228   -1.6685 H   0  0  0  0  0  0  0  0  0  0  0  0
  1  2  1  0
  2  3  1  0
  3  4  1  0
  4  5  1  0
  5  6  1  0
  6  7  1  0
  7  8  1  0
  8  9  1  0
  4  2  1  0
  9  5  1  0
  8  4  1  0
  1 10  1  0
  1 11  1  0
  1 12  1  0
  2 13  1  0
  3 14  1  0
  3 15  1  0
  5 16  1  0
  6 17  1  0
  6 18  1  0
  7 19  1  0
  7 20  1  0
  8 21  1  0
  9 22  1  0
  9 23  1  0
M  END
