
     RDKit          3D

 21 22  0  0  0  0  0  0  0  0999 V2000
    2.3080   -0.1483    0.8865 C   0  0  0  0  0  0  0  0  0  0  0  0
    0.8189   -0.0080    0.7086 C   0  0  0  0  0  0  0  0  0  0  0  0
    0.2586   -0.8345   -0.4712 C   0  0  0  0  0  0  0  0  0  0  0  0
    1.1651   -0.9677   -1.4955 O   0  0  0  0  0  0  0  0  0  0  0  0
   -0.7656    0.2534   -0.6134 C   0  0  0  0  0  0  0  0  0  0  0  0
   -2.0233   -0.1688   -0.0657 C   0  0  0  0  0  0  0  0  0  0  0  0
   -2.0421   -0.5111    1.2981 O   0  0  0  0  0  0  0  0  0  0  0  0
   -0.7085    1.6973   -0.5593 C   0  0  0  0  0  0  0  0  0  0  0  0
    0.4444    1.0181   -0.3242 C   0  0  0  0  0  0  0  0  0  0  0  0
    2.7486    0.8741    0.7948 H   0  0  0  0  0  0  0  0  0  0  0  0
    2.6090   -0.5336    1.8621 H   0  0  0  0  0  0  0  0  0  0  0  0
    2.7639   -0.7403    0.0561 H   0  0  0  0  0  0  0  0  0  0  0  0
    0.2215   -0.0493    1.6139 H   0  0  0  0  0  0  0  0  0  0  0  0
   -0.0269   -1.7898   -0.0567 H   0  0  0  0  0  0  0  0  0  0  0  0
    1.2443   -1.9225   -1.8044 H   0  0  0  0  0  0  0  0  0  0  0  0
   -2.3159   -1.1344   -0.5865 H   0  0  0  0  0  0  0  0  0  0  0  0
   -2.9260    0.4729   -0.2153 H   0  0  0  0  0  0  0  0  0  0  0  0
   -2.9039   -1.0102    1.4519 H   0  0  0  0  0  0  0  0  0  0  0  0
   -0.8917    2.2166   -1.5478 H   0  0  0  0  0  0  0  0  0  0  0  0
   -1.1776    2.3400    0.2491 H   0  0  0  0  0  0  0  0  0  0  0  0
    1.1992    0.9461   -1.1810 H   0  0  0  0  0  0  0  0  0  0  0  0
  1  2  1  0
  2  3  1  0
  3  4  1  0
  3  5  1  0
  5  6  1  0
  6  7  1  0
  5  8  1  0
  8  9  1  0
  9  2  1  0
  9  5  1  0
  1 10  1  0
  1 11  1  0
  1 12  1  0
  2 13  1  0
  3 14  1  0
  4 15  1  0
  6 16  1  0
  6 17  1  0
  7 18  1  0
  8 19  1  0
  8 20  1  0
  9 21  1  0
M  END
