
     RDKit          3D

 21 21  0  0  0  0  0  0  0  0999 V2000
    2.6100    0.3895   -0.2119 C   0  0  0  0  0  0  0  0  0  0  0  0
    1.2540    0.1524    0.4108 C   0  0  0  0  0  0  0  0  0  0  0  0
    0.4218    1.3824    0.4056 C   0  0  0  0  0  0  0  0  0  0  0  0
   -0.8749    1.3334    0.2316 C   0  0  0  0  0  0  0  0  0  0  0  0
   -1.6830    0.1004    0.0216 C   0  0  0  0  0  0  0  0  0  0  0  0
   -2.8684    0.1511    0.7564 O   0  0  0  0  0  0  0  0  0  0  0  0
   -0.8274   -1.0740    0.4317 C   0  0  0  0  0  0  0  0  0  0  0  0
   -1.4100   -2.2886    0.2298 O   0  0  0  0  0  0  0  0  0  0  0  0
    0.4880   -0.9151   -0.3422 C   0  0  0  0  0  0  0  0  0  0  0  0
    2.8830   -0.5347   -0.7619 H   0  0  0  0  0  0  0  0  0  0  0  0
    3.3409    0.4557    0.6360 H   0  0  0  0  0  0  0  0  0  0  0  0
    2.6322    1.2740   -0.8620 H   0  0  0  0  0  0  0  0  0  0  0  0
    1.3246   -0.1866    1.4628 H   0  0  0  0  0  0  0  0  0  0  0  0
    0.9161    2.3329    0.5507 H   0  0  0  0  0  0  0  0  0  0  0  0
   -1.4293    2.2858    0.2394 H   0  0  0  0  0  0  0  0  0  0  0  0
   -1.8795    0.0221   -1.0663 H   0  0  0  0  0  0  0  0  0  0  0  0
   -3.4992    0.7333    0.2651 H   0  0  0  0  0  0  0  0  0  0  0  0
   -0.6137   -0.9374    1.5240 H   0  0  0  0  0  0  0  0  0  0  0  0
   -2.1021   -2.3330   -0.4503 H   0  0  0  0  0  0  0  0  0  0  0  0
    1.0391   -1.8650   -0.4002 H   0  0  0  0  0  0  0  0  0  0  0  0
    0.2778   -0.4789   -1.3567 H   0  0  0  0  0  0  0  0  0  0  0  0
  1  2  1  0
  2  3  1  0
  3  4  2  0
  4  5  1  0
  5  6  1  0
  5  7  1  0
  7  8  1  0
  7  9  1  0
  9  2  1  0
  1 10  1  0
  1 11  1  0
  1 12  1  0
  2 13  1  0
  3 14  1  0
  4 15  1  0
  5 16  1  0
  6 17  1  0
  7 18  1  0
  8 19  1  0
  9 20  1  0
  9 21  1  0
M  END
