
     RDKit          3D

 20 20  0  0  0  0  0  0  0  0999 V2000
   -1.5412   -1.3213    0.4867 C   0  0  0  0  0  0  0  0  0  0  0  0
   -0.3331   -0.4519    0.4555 C   0  0  0  0  0  0  0  0  0  0  0  0
    0.7254   -1.0882   -0.4536 C   0  0  0  0  0  0  0  0  0  0  0  0
    1.9541   -0.1887   -0.2469 C   0  0  0  0  0  0  0  0  0  0  0  0
    1.6431    1.0154   -0.8610 O   0  0  0  0  0  0  0  0  0  0  0  0
    0.6724    1.7046   -0.1952 C   0  0  0  0  0  0  0  0  0  0  0  0
   -0.5965    0.9585    0.0433 C   0  0  0  0  0  0  0  0  0  0  0  0
   -1.4532    1.0409   -1.0704 O   0  0  0  0  0  0  0  0  0  0  0  0
   -2.1240   -1.3461   -0.4376 H   0  0  0  0  0  0  0  0  0  0  0  0
   -2.1763   -1.1187    1.3917 H   0  0  0  0  0  0  0  0  0  0  0  0
   -1.1773   -2.3786    0.6474 H   0  0  0  0  0  0  0  0  0  0  0  0
    0.1154   -0.4393    1.4646 H   0  0  0  0  0  0  0  0  0  0  0  0
    0.4111   -1.0748   -1.5136 H   0  0  0  0  0  0  0  0  0  0  0  0
    0.9193   -2.1087   -0.0652 H   0  0  0  0  0  0  0  0  0  0  0  0
    2.8554   -0.6580   -0.6350 H   0  0  0  0  0  0  0  0  0  0  0  0
    2.0293   -0.0861    0.8733 H   0  0  0  0  0  0  0  0  0  0  0  0
    1.0968    2.0245    0.7936 H   0  0  0  0  0  0  0  0  0  0  0  0
    0.4170    2.6171   -0.7955 H   0  0  0  0  0  0  0  0  0  0  0  0
   -1.1071    1.4620    0.9170 H   0  0  0  0  0  0  0  0  0  0  0  0
   -2.3306    1.4375   -0.7993 H   0  0  0  0  0  0  0  0  0  0  0  0
  1  2  1  0
  2  3  1  0
  3  4  1  0
  4  5  1  0
  5  6  1  0
  6  7  1  0
  7  8  1  0
  7  2  1  0
  1  9  1  0
  1 10  1  0
  1 11  1  0
  2 12  1  0
  3 13  1  0
  3 14  1  0
  4 15  1  0
  4 16  1  0
  6 17  1  0
  6 18  1  0
  7 19  1  0
  8 20  1  0
M  END
