
     RDKit          3D

 23 24  0  0  0  0  0  0  0  0999 V2000
    1.9100    1.2090    0.1625 C   0  0  0  0  0  0  0  0  0  0  0  0
    0.7889    0.4354   -0.4976 C   0  0  0  0  0  0  0  0  0  0  0  0
    0.8018   -1.0237   -0.1523 C   0  0  0  0  0  0  0  0  0  0  0  0
    0.7505   -1.8378   -1.3089 O   0  0  0  0  0  0  0  0  0  0  0  0
   -0.3313   -1.4528    0.7250 C   0  0  0  0  0  0  0  0  0  0  0  0
   -1.5408   -0.5788    0.5417 C   0  0  0  0  0  0  0  0  0  0  0  0
   -1.5766    0.0660   -0.8430 C   0  0  0  0  0  0  0  0  0  0  0  0
   -0.5578    1.0742   -0.2915 C   0  0  0  0  0  0  0  0  0  0  0  0
   -1.1442    0.8098    1.0641 C   0  0  0  0  0  0  0  0  0  0  0  0
    1.7741    2.2741   -0.1312 H   0  0  0  0  0  0  0  0  0  0  0  0
    1.9546    1.0405    1.2385 H   0  0  0  0  0  0  0  0  0  0  0  0
    2.8533    0.8732   -0.3562 H   0  0  0  0  0  0  0  0  0  0  0  0
    0.9951    0.4991   -1.6070 H   0  0  0  0  0  0  0  0  0  0  0  0
    1.7631   -1.2907    0.3554 H   0  0  0  0  0  0  0  0  0  0  0  0
    1.4625   -1.6052   -1.9482 H   0  0  0  0  0  0  0  0  0  0  0  0
   -0.5799   -2.5245    0.5881 H   0  0  0  0  0  0  0  0  0  0  0  0
    0.0094   -1.2943    1.7899 H   0  0  0  0  0  0  0  0  0  0  0  0
   -2.4883   -0.9590    0.9110 H   0  0  0  0  0  0  0  0  0  0  0  0
   -2.5647    0.4941   -1.0354 H   0  0  0  0  0  0  0  0  0  0  0  0
   -1.1741   -0.5501   -1.6544 H   0  0  0  0  0  0  0  0  0  0  0  0
   -0.6323    2.0769   -0.6914 H   0  0  0  0  0  0  0  0  0  0  0  0
   -2.0208    1.4800    1.2271 H   0  0  0  0  0  0  0  0  0  0  0  0
   -0.4525    0.7847    1.9135 H   0  0  0  0  0  0  0  0  0  0  0  0
  1  2  1  0
  2  3  1  0
  3  4  1  0
  3  5  1  0
  5  6  1  0
  6  7  1  0
  7  8  1  0
  8  9  1  0
  8  2  1  0
  9  6  1  0
  1 10  1  0
  1 11  1  0
  1 12  1  0
  2 13  1  0
  3 14  1  0
  4 15  1  0
  5 16  1  0
  5 17  1  0
  6 18  1  0
  7 19  1  0
  7 20  1  0
  8 21  1  0
  9 22  1  0
  9 23  1  0
M  END
