
     RDKit          3D

 19 20  0  0  0  0  0  0  0  0999 V2000
   -2.5754    0.1632    0.2220 C   0  0  0  0  0  0  0  0  0  0  0  0
   -1.1447    0.4818   -0.0966 C   0  0  0  0  0  0  0  0  0  0  0  0
   -0.3950   -0.4461   -0.9638 C   0  0  0  0  0  0  0  0  0  0  0  0
    0.8912   -0.1145   -1.5679 C   0  0  0  0  0  0  0  0  0  0  0  0
    1.2127   -0.1300   -2.7446 O   0  0  0  0  0  0  0  0  0  0  0  0
    1.8792    0.2868   -0.5023 C   0  0  0  0  0  0  0  0  0  0  0  0
    1.1834    0.0863    0.7994 C   0  0  0  0  0  0  0  0  0  0  0  0
    1.8340   -0.7358    1.6843 O   0  0  0  0  0  0  0  0  0  0  0  0
   -0.1559   -0.5250    0.4742 C   0  0  0  0  0  0  0  0  0  0  0  0
   -2.9030   -0.8136   -0.2261 H   0  0  0  0  0  0  0  0  0  0  0  0
   -2.6239    0.0119    1.3406 H   0  0  0  0  0  0  0  0  0  0  0  0
   -3.2793    0.9821    0.0069 H   0  0  0  0  0  0  0  0  0  0  0  0
   -0.9044    1.5621   -0.0346 H   0  0  0  0  0  0  0  0  0  0  0  0
   -0.9819   -1.2256   -1.4879 H   0  0  0  0  0  0  0  0  0  0  0  0
    2.1137    1.3568   -0.7088 H   0  0  0  0  0  0  0  0  0  0  0  0
    2.7829   -0.3560   -0.5792 H   0  0  0  0  0  0  0  0  0  0  0  0
    0.9874    1.1104    1.2306 H   0  0  0  0  0  0  0  0  0  0  0  0
    2.6080   -0.3164    2.0984 H   0  0  0  0  0  0  0  0  0  0  0  0
   -0.5291   -1.3782    1.0553 H   0  0  0  0  0  0  0  0  0  0  0  0
  1  2  1  0
  2  3  1  0
  3  4  1  0
  4  5  2  0
  4  6  1  0
  6  7  1  0
  7  8  1  0
  7  9  1  0
  9  2  1  0
  9  3  1  0
  1 10  1  0
  1 11  1  0
  1 12  1  0
  2 13  1  0
  3 14  1  0
  6 15  1  0
  6 16  1  0
  7 17  1  0
  8 18  1  0
  9 19  1  0
M  END
