
     RDKit          3D

 23 24  0  0  0  0  0  0  0  0999 V2000
    1.8777   -0.0737    0.8290 C   0  0  0  0  0  0  0  0  0  0  0  0
    0.9873   -0.6608   -0.2141 C   0  0  0  0  0  0  0  0  0  0  0  0
    0.9047    0.2237   -1.4340 C   0  0  0  0  0  0  0  0  0  0  0  0
   -0.5028    0.5660   -1.0474 C   0  0  0  0  0  0  0  0  0  0  0  0
   -0.5864    1.8466   -0.3076 C   0  0  0  0  0  0  0  0  0  0  0  0
   -0.8322    1.6336    0.9764 C   0  0  0  0  0  0  0  0  0  0  0  0
   -0.9390    0.1757    1.2286 C   0  0  0  0  0  0  0  0  0  0  0  0
   -0.4893   -0.5280   -0.0023 C   0  0  0  0  0  0  0  0  0  0  0  0
   -1.2928   -1.7480   -0.3564 C   0  0  0  0  0  0  0  0  0  0  0  0
    2.6691    0.5621    0.3346 H   0  0  0  0  0  0  0  0  0  0  0  0
    2.4612   -0.8718    1.3665 H   0  0  0  0  0  0  0  0  0  0  0  0
    1.3660    0.5606    1.5675 H   0  0  0  0  0  0  0  0  0  0  0  0
    1.2698   -1.7242   -0.4390 H   0  0  0  0  0  0  0  0  0  0  0  0
    1.0309   -0.3273   -2.3749 H   0  0  0  0  0  0  0  0  0  0  0  0
    1.5629    1.1149   -1.4109 H   0  0  0  0  0  0  0  0  0  0  0  0
   -1.2693    0.4708   -1.8287 H   0  0  0  0  0  0  0  0  0  0  0  0
   -0.4608    2.8152   -0.7707 H   0  0  0  0  0  0  0  0  0  0  0  0
   -0.9393    2.3894    1.7257 H   0  0  0  0  0  0  0  0  0  0  0  0
   -2.0423   -0.0339    1.3453 H   0  0  0  0  0  0  0  0  0  0  0  0
   -0.4556   -0.1462    2.1516 H   0  0  0  0  0  0  0  0  0  0  0  0
   -2.3214   -1.5377   -0.6542 H   0  0  0  0  0  0  0  0  0  0  0  0
   -1.2251   -2.4410    0.5181 H   0  0  0  0  0  0  0  0  0  0  0  0
   -0.7734   -2.2658   -1.2032 H   0  0  0  0  0  0  0  0  0  0  0  0
  1  2  1  0
  2  3  1  0
  3  4  1  0
  4  5  1  0
  5  6  2  0
  6  7  1  0
  7  8  1  0
  8  9  1  0
  8  2  1  0
  8  4  1  0
  1 10  1  0
  1 11  1  0
  1 12  1  0
  2 13  1  0
  3 14  1  0
  3 15  1  0
  4 16  1  0
  5 17  1  0
  6 18  1  0
  7 19  1  0
  7 20  1  0
  9 21  1  0
  9 22  1  0
  9 23  1  0
M  END
