
     RDKit          3D

 21 21  0  0  0  0  0  0  0  0999 V2000
   -2.2007   -0.8663   -0.2137 C   0  0  0  0  0  0  0  0  0  0  0  0
   -0.9526   -0.5433    0.5219 C   0  0  0  0  0  0  0  0  0  0  0  0
    0.1805   -1.4896    0.3693 C   0  0  0  0  0  0  0  0  0  0  0  0
    0.3565   -2.6737    0.2200 O   0  0  0  0  0  0  0  0  0  0  0  0
    1.0757   -0.3070    0.4825 C   0  0  0  0  0  0  0  0  0  0  0  0
    2.3564   -0.3679   -0.2630 C   0  0  0  0  0  0  0  0  0  0  0  0
   -0.0416    0.4901   -0.1598 C   0  0  0  0  0  0  0  0  0  0  0  0
   -0.2966    1.8382    0.4074 C   0  0  0  0  0  0  0  0  0  0  0  0
   -0.0538    0.4149   -1.5345 O   0  0  0  0  0  0  0  0  0  0  0  0
   -3.0651   -0.6475    0.4794 H   0  0  0  0  0  0  0  0  0  0  0  0
   -2.3448   -0.2084   -1.1048 H   0  0  0  0  0  0  0  0  0  0  0  0
   -2.2588   -1.9378   -0.4614 H   0  0  0  0  0  0  0  0  0  0  0  0
   -1.0539   -0.2630    1.5882 H   0  0  0  0  0  0  0  0  0  0  0  0
    1.1872   -0.0390    1.5508 H   0  0  0  0  0  0  0  0  0  0  0  0
    2.2919    0.0065   -1.3091 H   0  0  0  0  0  0  0  0  0  0  0  0
    3.1597    0.1888    0.2958 H   0  0  0  0  0  0  0  0  0  0  0  0
    2.7204   -1.4326   -0.2859 H   0  0  0  0  0  0  0  0  0  0  0  0
   -0.3347    1.7820    1.5023 H   0  0  0  0  0  0  0  0  0  0  0  0
   -1.3310    2.1510    0.0841 H   0  0  0  0  0  0  0  0  0  0  0  0
    0.3917    2.6101    0.0170 H   0  0  0  0  0  0  0  0  0  0  0  0
    0.2134    1.2945   -1.9035 H   0  0  0  0  0  0  0  0  0  0  0  0
  1  2  1  0
  2  3  1  0
  3  4  2  0
  3  5  1  0
  5  6  1  0
  5  7  1  0
  7  8  1  0
  7  9  1  0
  7  2  1  0
  1 10  1  0
  1 11  1  0
  1 12  1  0
  2 13  1  0
  5 14  1  0
  6 15  1  0
  6 16  1  0
  6 17  1  0
  8 18  1  0
  8 19  1  0
  8 20  1  0
  9 21  1  0
M  END
