
     RDKit          3D

 19 19  0  0  0  0  0  0  0  0999 V2000
    1.9739    0.8725    0.4224 C   0  0  0  0  0  0  0  0  0  0  0  0
    0.8825    0.1622   -0.3259 C   0  0  0  0  0  0  0  0  0  0  0  0
    1.1766   -1.2312   -0.7382 C   0  0  0  0  0  0  0  0  0  0  0  0
    2.1534   -1.8390   -1.1016 O   0  0  0  0  0  0  0  0  0  0  0  0
   -0.2645   -1.5150   -0.4976 C   0  0  0  0  0  0  0  0  0  0  0  0
   -0.2118   -0.4227    0.5455 C   0  0  0  0  0  0  0  0  0  0  0  0
   -1.4069    0.4345    0.7319 C   0  0  0  0  0  0  0  0  0  0  0  0
   -2.1269    0.8029   -0.4846 C   0  0  0  0  0  0  0  0  0  0  0  0
   -3.1456    1.4767   -0.4040 O   0  0  0  0  0  0  0  0  0  0  0  0
    2.9727    0.6077    0.0264 H   0  0  0  0  0  0  0  0  0  0  0  0
    1.8875    0.7463    1.5208 H   0  0  0  0  0  0  0  0  0  0  0  0
    1.8429    1.9730    0.2372 H   0  0  0  0  0  0  0  0  0  0  0  0
    0.4428    0.7118   -1.1815 H   0  0  0  0  0  0  0  0  0  0  0  0
   -0.8598   -1.2533   -1.3966 H   0  0  0  0  0  0  0  0  0  0  0  0
   -0.4692   -2.5303   -0.0926 H   0  0  0  0  0  0  0  0  0  0  0  0
    0.1698   -0.8647    1.4964 H   0  0  0  0  0  0  0  0  0  0  0  0
   -2.1574   -0.0107    1.4373 H   0  0  0  0  0  0  0  0  0  0  0  0
   -1.0509    1.3666    1.2658 H   0  0  0  0  0  0  0  0  0  0  0  0
   -1.8091    0.5125   -1.4613 H   0  0  0  0  0  0  0  0  0  0  0  0
  1  2  1  0
  2  3  1  0
  3  4  2  0
  3  5  1  0
  5  6  1  0
  6  7  1  0
  7  8  1  0
  8  9  2  0
  6  2  1  0
  1 10  1  0
  1 11  1  0
  1 12  1  0
  2 13  1  0
  5 14  1  0
  5 15  1  0
  6 16  1  0
  7 17  1  0
  7 18  1  0
  8 19  1  0
M  END
