
     RDKit          3D

 25 26  0  0  0  0  0  0  0  0999 V2000
   -2.2011    1.3143    0.1137 C   0  0  0  0  0  0  0  0  0  0  0  0
   -1.0127    0.5866   -0.4329 C   0  0  0  0  0  0  0  0  0  0  0  0
    0.2315    1.4196   -0.4958 C   0  0  0  0  0  0  0  0  0  0  0  0
    1.2508    0.3499   -0.9018 C   0  0  0  0  0  0  0  0  0  0  0  0
    2.5092    0.3327   -0.1211 C   0  0  0  0  0  0  0  0  0  0  0  0
    1.9652   -0.8356    0.6813 C   0  0  0  0  0  0  0  0  0  0  0  0
    0.7574   -0.9142   -0.1990 C   0  0  0  0  0  0  0  0  0  0  0  0
   -0.5567   -0.5495    0.4441 C   0  0  0  0  0  0  0  0  0  0  0  0
   -1.5457   -1.6707    0.4310 C   0  0  0  0  0  0  0  0  0  0  0  0
   -2.5463    2.0248   -0.6686 H   0  0  0  0  0  0  0  0  0  0  0  0
   -3.0219    0.5678    0.2208 H   0  0  0  0  0  0  0  0  0  0  0  0
   -1.9989    1.8361    1.0733 H   0  0  0  0  0  0  0  0  0  0  0  0
   -1.2538    0.2184   -1.4298 H   0  0  0  0  0  0  0  0  0  0  0  0
    0.5054    1.7333    0.5495 H   0  0  0  0  0  0  0  0  0  0  0  0
    0.1978    2.2484   -1.1979 H   0  0  0  0  0  0  0  0  0  0  0  0
    1.3110    0.2555   -1.9953 H   0  0  0  0  0  0  0  0  0  0  0  0
    2.7953    1.2169    0.4466 H   0  0  0  0  0  0  0  0  0  0  0  0
    3.3598   -0.0449   -0.7569 H   0  0  0  0  0  0  0  0  0  0  0  0
    1.7008   -0.5155    1.7061 H   0  0  0  0  0  0  0  0  0  0  0  0
    2.5561   -1.7667    0.6187 H   0  0  0  0  0  0  0  0  0  0  0  0
    0.7120   -1.7812   -0.8891 H   0  0  0  0  0  0  0  0  0  0  0  0
   -0.3464   -0.2038    1.4741 H   0  0  0  0  0  0  0  0  0  0  0  0
   -1.7779   -1.9572   -0.6074 H   0  0  0  0  0  0  0  0  0  0  0  0
   -2.4591   -1.3242    0.9472 H   0  0  0  0  0  0  0  0  0  0  0  0
   -1.1318   -2.5408    0.9893 H   0  0  0  0  0  0  0  0  0  0  0  0
  1  2  1  0
  2  3  1  0
  3  4  1  0
  4  5  1  0
  5  6  1  0
  6  7  1  0
  7  8  1  0
  8  9  1  0
  8  2  1  0
  7  4  1  0
  1 10  1  0
  1 11  1  0
  1 12  1  0
  2 13  1  0
  3 14  1  0
  3 15  1  0
  4 16  1  0
  5 17  1  0
  5 18  1  0
  6 19  1  0
  6 20  1  0
  7 21  1  0
  8 22  1  0
  9 23  1  0
  9 24  1  0
  9 25  1  0
M  END
