
     RDKit          3D

 25 25  0  0  0  0  0  0  0  0999 V2000
   -3.0827    0.0993    0.0710 C   0  0  0  0  0  0  0  0  0  0  0  0
   -1.6085    0.1610    0.3516 C   0  0  0  0  0  0  0  0  0  0  0  0
   -1.0230    1.4626   -0.1285 C   0  0  0  0  0  0  0  0  0  0  0  0
    0.2928    1.5603    0.0336 C   0  0  0  0  0  0  0  0  0  0  0  0
    1.0366    0.4263    0.6478 C   0  0  0  0  0  0  0  0  0  0  0  0
    2.5105    0.6883    0.5042 C   0  0  0  0  0  0  0  0  0  0  0  0
    0.5878   -0.8853    0.1275 C   0  0  0  0  0  0  0  0  0  0  0  0
    1.5480   -1.4886   -0.8844 C   0  0  0  0  0  0  0  0  0  0  0  0
   -0.8299   -0.9010   -0.3946 C   0  0  0  0  0  0  0  0  0  0  0  0
   -3.6275   -0.0040    1.0431 H   0  0  0  0  0  0  0  0  0  0  0  0
   -3.4462    1.0479   -0.3912 H   0  0  0  0  0  0  0  0  0  0  0  0
   -3.3194   -0.7121   -0.6369 H   0  0  0  0  0  0  0  0  0  0  0  0
   -1.4084    0.0862    1.4467 H   0  0  0  0  0  0  0  0  0  0  0  0
   -1.6269    2.2210   -0.5554 H   0  0  0  0  0  0  0  0  0  0  0  0
    0.8185    2.4777   -0.2875 H   0  0  0  0  0  0  0  0  0  0  0  0
    0.8151    0.4765    1.7533 H   0  0  0  0  0  0  0  0  0  0  0  0
    2.7053    1.2226   -0.4702 H   0  0  0  0  0  0  0  0  0  0  0  0
    2.8671    1.3980    1.2881 H   0  0  0  0  0  0  0  0  0  0  0  0
    3.1266   -0.2162    0.5926 H   0  0  0  0  0  0  0  0  0  0  0  0
    0.5821   -1.6378    0.9758 H   0  0  0  0  0  0  0  0  0  0  0  0
    1.8574   -0.7327   -1.6411 H   0  0  0  0  0  0  0  0  0  0  0  0
    2.3871   -1.9281   -0.3437 H   0  0  0  0  0  0  0  0  0  0  0  0
    0.9955   -2.3092   -1.3856 H   0  0  0  0  0  0  0  0  0  0  0  0
   -1.2937   -1.8943   -0.2480 H   0  0  0  0  0  0  0  0  0  0  0  0
   -0.8643   -0.6186   -1.4683 H   0  0  0  0  0  0  0  0  0  0  0  0
  1  2  1  0
  2  3  1  0
  3  4  2  0
  4  5  1  0
  5  6  1  0
  5  7  1  0
  7  8  1  0
  7  9  1  0
  9  2  1  0
  1 10  1  0
  1 11  1  0
  1 12  1  0
  2 13  1  0
  3 14  1  0
  4 15  1  0
  5 16  1  0
  6 17  1  0
  6 18  1  0
  6 19  1  0
  7 20  1  0
  8 21  1  0
  8 22  1  0
  8 23  1  0
  9 24  1  0
  9 25  1  0
M  END
