
     RDKit          3D

 16 17  0  0  0  0  0  0  0  0999 V2000
    2.0122    0.1580   -0.3763 C   0  0  0  0  0  0  0  0  0  0  0  0
    0.5122    0.1820   -0.4120 C   0  0  0  0  0  0  0  0  0  0  0  0
   -0.1745    0.5454    0.8642 C   0  0  0  0  0  0  0  0  0  0  0  0
   -1.6435    0.5857    0.4200 C   0  0  0  0  0  0  0  0  0  0  0  0
   -1.6159   -0.7507   -0.3013 C   0  0  0  0  0  0  0  0  0  0  0  0
   -2.4902   -1.3308   -0.8702 O   0  0  0  0  0  0  0  0  0  0  0  0
   -0.1705   -1.1091   -0.0796 C   0  0  0  0  0  0  0  0  0  0  0  0
    0.0150   -0.7798    1.2611 O   0  0  0  0  0  0  0  0  0  0  0  0
    2.3656    1.2143   -0.4692 H   0  0  0  0  0  0  0  0  0  0  0  0
    2.3975   -0.2888    0.5553 H   0  0  0  0  0  0  0  0  0  0  0  0
    2.3460   -0.4302   -1.2759 H   0  0  0  0  0  0  0  0  0  0  0  0
    0.1396    0.7036   -1.3162 H   0  0  0  0  0  0  0  0  0  0  0  0
    0.1816    1.3334    1.4758 H   0  0  0  0  0  0  0  0  0  0  0  0
   -2.3326    0.5810    1.2595 H   0  0  0  0  0  0  0  0  0  0  0  0
   -1.7283    1.4152   -0.2794 H   0  0  0  0  0  0  0  0  0  0  0  0
    0.1859   -2.0293   -0.4560 H   0  0  0  0  0  0  0  0  0  0  0  0
  1  2  1  0
  2  3  1  0
  3  4  1  0
  4  5  1  0
  5  6  2  0
  5  7  1  0
  7  8  1  0
  7  2  1  0
  8  3  1  0
  1  9  1  0
  1 10  1  0
  1 11  1  0
  2 12  1  0
  3 13  1  0
  4 14  1  0
  4 15  1  0
  7 16  1  0
M  END
