
     RDKit          3D

 19 19  0  0  0  0  0  0  0  0999 V2000
   -2.0779    0.3016   -0.5181 C   0  0  0  0  0  0  0  0  0  0  0  0
   -1.0778    0.2630    0.6258 C   0  0  0  0  0  0  0  0  0  0  0  0
   -0.5406   -1.0956    0.8492 C   0  0  0  0  0  0  0  0  0  0  0  0
    0.5855   -1.5272    0.3515 C   0  0  0  0  0  0  0  0  0  0  0  0
    1.4291   -0.6714   -0.4928 C   0  0  0  0  0  0  0  0  0  0  0  0
    2.7833   -1.0105   -0.3307 O   0  0  0  0  0  0  0  0  0  0  0  0
    1.2312    0.7592   -0.1462 C   0  0  0  0  0  0  0  0  0  0  0  0
    2.1606    1.5104   -0.3507 O   0  0  0  0  0  0  0  0  0  0  0  0
   -0.0102    1.3050    0.4221 C   0  0  0  0  0  0  0  0  0  0  0  0
   -3.0101   -0.2345   -0.2060 H   0  0  0  0  0  0  0  0  0  0  0  0
   -2.3746    1.3656   -0.6460 H   0  0  0  0  0  0  0  0  0  0  0  0
   -1.6600   -0.1005   -1.4519 H   0  0  0  0  0  0  0  0  0  0  0  0
   -1.6454    0.5428    1.5381 H   0  0  0  0  0  0  0  0  0  0  0  0
   -1.1187   -1.7932    1.4717 H   0  0  0  0  0  0  0  0  0  0  0  0
    0.9744   -2.5486    0.5284 H   0  0  0  0  0  0  0  0  0  0  0  0
    1.2075   -0.7704   -1.5873 H   0  0  0  0  0  0  0  0  0  0  0  0
    3.3202   -0.1588   -0.3315 H   0  0  0  0  0  0  0  0  0  0  0  0
    0.2437    1.8049    1.3819 H   0  0  0  0  0  0  0  0  0  0  0  0
   -0.4202    2.0582   -0.2888 H   0  0  0  0  0  0  0  0  0  0  0  0
  1  2  1  0
  2  3  1  0
  3  4  2  0
  4  5  1  0
  5  6  1  0
  5  7  1  0
  7  8  2  0
  7  9  1  0
  9  2  1  0
  1 10  1  0
  1 11  1  0
  1 12  1  0
  2 13  1  0
  3 14  1  0
  4 15  1  0
  5 16  1  0
  6 17  1  0
  9 18  1  0
  9 19  1  0
M  END
