
     RDKit          3D

 21 23  0  0  0  0  0  0  0  0999 V2000
   -1.4641    0.6097    1.2890 C   0  0  0  0  0  0  0  0  0  0  0  0
   -1.3726    0.2223   -0.1380 C   0  0  0  0  0  0  0  0  0  0  0  0
   -1.1433   -1.2621   -0.3874 C   0  0  0  0  0  0  0  0  0  0  0  0
    0.0640   -0.9302   -1.2398 C   0  0  0  0  0  0  0  0  0  0  0  0
    1.2768   -1.3359   -0.7608 O   0  0  0  0  0  0  0  0  0  0  0  0
    2.0058   -0.2632   -0.3407 C   0  0  0  0  0  0  0  0  0  0  0  0
    1.6511    0.2944    0.9961 C   0  0  0  0  0  0  0  0  0  0  0  0
    1.0927    0.9215   -0.1951 C   0  0  0  0  0  0  0  0  0  0  0  0
   -0.1329    0.5217   -0.8898 C   0  0  0  0  0  0  0  0  0  0  0  0
   -0.7684    1.4327    1.5120 H   0  0  0  0  0  0  0  0  0  0  0  0
   -1.3062   -0.2801    1.9512 H   0  0  0  0  0  0  0  0  0  0  0  0
   -2.4977    0.9685    1.5508 H   0  0  0  0  0  0  0  0  0  0  0  0
   -2.2986    0.5242   -0.6966 H   0  0  0  0  0  0  0  0  0  0  0  0
   -0.9002   -1.8346    0.5488 H   0  0  0  0  0  0  0  0  0  0  0  0
   -1.9065   -1.7708   -0.9759 H   0  0  0  0  0  0  0  0  0  0  0  0
   -0.0636   -1.1828   -2.3188 H   0  0  0  0  0  0  0  0  0  0  0  0
    3.0132   -0.1056   -0.7761 H   0  0  0  0  0  0  0  0  0  0  0  0
    2.4593    0.8324    1.5302 H   0  0  0  0  0  0  0  0  0  0  0  0
    1.0758   -0.3686    1.6705 H   0  0  0  0  0  0  0  0  0  0  0  0
    1.5364    1.9096   -0.5102 H   0  0  0  0  0  0  0  0  0  0  0  0
   -0.3212    1.0970   -1.8194 H   0  0  0  0  0  0  0  0  0  0  0  0
  1  2  1  0
  2  3  1  0
  3  4  1  0
  4  5  1  0
  5  6  1  0
  6  7  1  0
  7  8  1  0
  8  9  1  0
  9  2  1  0
  9  4  1  0
  8  6  1  0
  1 10  1  0
  1 11  1  0
  1 12  1  0
  2 13  1  0
  3 14  1  0
  3 15  1  0
  4 16  1  0
  6 17  1  0
  7 18  1  0
  7 19  1  0
  8 20  1  0
  9 21  1  0
M  END
