
     RDKit          3D

 21 23  0  0  0  0  0  0  0  0999 V2000
   -1.6065    0.6684    0.9243 C   0  0  0  0  0  0  0  0  0  0  0  0
   -0.8099    0.5716   -0.3578 C   0  0  0  0  0  0  0  0  0  0  0  0
   -1.0161   -0.7798   -0.9999 C   0  0  0  0  0  0  0  0  0  0  0  0
    0.3128   -1.4914   -0.7644 C   0  0  0  0  0  0  0  0  0  0  0  0
    1.0630   -1.2428    0.4858 C   0  0  0  0  0  0  0  0  0  0  0  0
    1.0496    0.0725    1.1889 C   0  0  0  0  0  0  0  0  0  0  0  0
    0.6669    0.7333   -0.1202 C   0  0  0  0  0  0  0  0  0  0  0  0
    1.2075    1.9650   -0.3620 O   0  0  0  0  0  0  0  0  0  0  0  0
    1.2843   -0.4265   -0.8278 C   0  0  0  0  0  0  0  0  0  0  0  0
   -1.2139    1.4464    1.5783 H   0  0  0  0  0  0  0  0  0  0  0  0
   -1.6709   -0.3059    1.4478 H   0  0  0  0  0  0  0  0  0  0  0  0
   -2.6558    0.9382    0.6254 H   0  0  0  0  0  0  0  0  0  0  0  0
   -1.1347    1.4117   -0.9990 H   0  0  0  0  0  0  0  0  0  0  0  0
   -1.8663   -1.3141   -0.5817 H   0  0  0  0  0  0  0  0  0  0  0  0
   -1.1487   -0.5757   -2.1021 H   0  0  0  0  0  0  0  0  0  0  0  0
    0.5013   -2.4283   -1.2834 H   0  0  0  0  0  0  0  0  0  0  0  0
    1.8446   -1.9614    0.7555 H   0  0  0  0  0  0  0  0  0  0  0  0
    0.3555    0.2117    2.0165 H   0  0  0  0  0  0  0  0  0  0  0  0
    2.0756    0.4204    1.4736 H   0  0  0  0  0  0  0  0  0  0  0  0
    0.5013    2.5101   -0.8359 H   0  0  0  0  0  0  0  0  0  0  0  0
    2.2606   -0.4234   -1.2618 H   0  0  0  0  0  0  0  0  0  0  0  0
  1  2  1  0
  2  3  1  0
  3  4  1  0
  4  5  1  0
  5  6  1  0
  6  7  1  0
  7  8  1  0
  7  9  1  0
  7  2  1  0
  9  4  1  0
  9  5  1  0
  1 10  1  0
  1 11  1  0
  1 12  1  0
  2 13  1  0
  3 14  1  0
  3 15  1  0
  4 16  1  0
  5 17  1  0
  6 18  1  0
  6 19  1  0
  8 20  1  0
  9 21  1  0
M  END
