
     RDKit          3D

 19 21  0  0  0  0  0  0  0  0999 V2000
   -2.2825   -0.1373    0.2344 C   0  0  0  0  0  0  0  0  0  0  0  0
   -0.9523    0.1011   -0.3529 C   0  0  0  0  0  0  0  0  0  0  0  0
    0.0092   -1.0579   -0.2296 C   0  0  0  0  0  0  0  0  0  0  0  0
    0.3527   -1.0173    1.0908 O   0  0  0  0  0  0  0  0  0  0  0  0
    0.7126    0.3390    1.2826 C   0  0  0  0  0  0  0  0  0  0  0  0
   -0.1278    1.1445    0.4053 C   0  0  0  0  0  0  0  0  0  0  0  0
    1.2656    0.8450    0.0176 C   0  0  0  0  0  0  0  0  0  0  0  0
    1.2320   -0.3982   -0.8823 C   0  0  0  0  0  0  0  0  0  0  0  0
    2.3595   -1.1557   -0.7782 O   0  0  0  0  0  0  0  0  0  0  0  0
   -2.3914    0.0231    1.3021 H   0  0  0  0  0  0  0  0  0  0  0  0
   -3.0277    0.5065   -0.3143 H   0  0  0  0  0  0  0  0  0  0  0  0
   -2.5962   -1.1898   -0.0218 H   0  0  0  0  0  0  0  0  0  0  0  0
   -0.9958    0.4376   -1.3974 H   0  0  0  0  0  0  0  0  0  0  0  0
   -0.2884   -1.9757   -0.6633 H   0  0  0  0  0  0  0  0  0  0  0  0
    1.0980    0.6516    2.2572 H   0  0  0  0  0  0  0  0  0  0  0  0
   -0.5249    2.1235    0.6000 H   0  0  0  0  0  0  0  0  0  0  0  0
    2.0544    1.5690   -0.0840 H   0  0  0  0  0  0  0  0  0  0  0  0
    0.9223   -0.1298   -1.8975 H   0  0  0  0  0  0  0  0  0  0  0  0
    3.1808   -0.6792   -0.5685 H   0  0  0  0  0  0  0  0  0  0  0  0
  1  2  1  0
  2  3  1  0
  3  4  1  0
  4  5  1  0
  5  6  1  0
  6  7  1  0
  7  8  1  0
  8  9  1  0
  6  2  1  0
  8  3  1  0
  7  5  1  0
  1 10  1  0
  1 11  1  0
  1 12  1  0
  2 13  1  0
  3 14  1  0
  5 15  1  0
  6 16  1  0
  7 17  1  0
  8 18  1  0
  9 19  1  0
M  END
