
     RDKit          3D

 20 21  0  0  0  0  0  0  0  0999 V2000
    1.6890    1.0048   -0.5925 C   0  0  0  0  0  0  0  0  0  0  0  0
    1.1541   -0.1888    0.0979 C   0  0  0  0  0  0  0  0  0  0  0  0
    0.1712   -1.0443   -0.6582 C   0  0  0  0  0  0  0  0  0  0  0  0
   -0.9405   -0.1225   -1.0728 C   0  0  0  0  0  0  0  0  0  0  0  0
   -1.0328    0.7286    0.2099 C   0  0  0  0  0  0  0  0  0  0  0  0
   -2.3140    0.6802    0.7382 O   0  0  0  0  0  0  0  0  0  0  0  0
   -0.0081    0.0269    1.0426 C   0  0  0  0  0  0  0  0  0  0  0  0
   -0.3355   -1.4446    0.7388 C   0  0  0  0  0  0  0  0  0  0  0  0
    2.7695    1.1224   -0.2805 H   0  0  0  0  0  0  0  0  0  0  0  0
    1.2120    1.9664   -0.3159 H   0  0  0  0  0  0  0  0  0  0  0  0
    1.7481    0.8914   -1.7093 H   0  0  0  0  0  0  0  0  0  0  0  0
    1.9398   -0.8566    0.5528 H   0  0  0  0  0  0  0  0  0  0  0  0
    0.5084   -1.8137   -1.2970 H   0  0  0  0  0  0  0  0  0  0  0  0
   -1.8631   -0.7082   -1.1224 H   0  0  0  0  0  0  0  0  0  0  0  0
   -0.7176    0.4892   -1.9424 H   0  0  0  0  0  0  0  0  0  0  0  0
   -0.7999    1.7553   -0.0553 H   0  0  0  0  0  0  0  0  0  0  0  0
   -2.2529    1.0256    1.6634 H   0  0  0  0  0  0  0  0  0  0  0  0
    0.1710    0.2951    2.0475 H   0  0  0  0  0  0  0  0  0  0  0  0
   -1.4148   -1.6419    0.7283 H   0  0  0  0  0  0  0  0  0  0  0  0
    0.3158   -2.1655    1.2272 H   0  0  0  0  0  0  0  0  0  0  0  0
  1  2  1  0
  2  3  1  0
  3  4  1  0
  4  5  1  0
  5  6  1  0
  5  7  1  0
  7  8  1  0
  7  2  1  0
  8  3  1  0
  1  9  1  0
  1 10  1  0
  1 11  1  0
  2 12  1  0
  3 13  1  0
  4 14  1  0
  4 15  1  0
  5 16  1  0
  6 17  1  0
  7 18  1  0
  8 19  1  0
  8 20  1  0
M  END
