
     RDKit          3D

 25 25  0  0  0  0  0  0  0  0999 V2000
   -1.5783    1.5187   -0.0057 C   0  0  0  0  0  0  0  0  0  0  0  0
   -0.8858    0.4721    0.8353 C   0  0  0  0  0  0  0  0  0  0  0  0
    0.6235    0.7465    0.8806 C   0  0  0  0  0  0  0  0  0  0  0  0
    1.2562   -0.4814    0.2843 C   0  0  0  0  0  0  0  0  0  0  0  0
    2.5748   -0.2000   -0.3807 C   0  0  0  0  0  0  0  0  0  0  0  0
    3.4293    0.3186    0.5911 O   0  0  0  0  0  0  0  0  0  0  0  0
    0.1920   -0.9049   -0.7231 C   0  0  0  0  0  0  0  0  0  0  0  0
   -1.0279   -0.8771    0.1886 C   0  0  0  0  0  0  0  0  0  0  0  0
   -2.3084   -1.0297   -0.5905 C   0  0  0  0  0  0  0  0  0  0  0  0
   -1.0483    1.6466   -0.9619 H   0  0  0  0  0  0  0  0  0  0  0  0
   -2.6258    1.2284   -0.1078 H   0  0  0  0  0  0  0  0  0  0  0  0
   -1.5239    2.5063    0.5188 H   0  0  0  0  0  0  0  0  0  0  0  0
   -1.3032    0.4608    1.8491 H   0  0  0  0  0  0  0  0  0  0  0  0
    0.9507    0.8756    1.9456 H   0  0  0  0  0  0  0  0  0  0  0  0
    0.8779    1.6689    0.3590 H   0  0  0  0  0  0  0  0  0  0  0  0
    1.3262   -1.2838    1.0217 H   0  0  0  0  0  0  0  0  0  0  0  0
    2.4603    0.4697   -1.2356 H   0  0  0  0  0  0  0  0  0  0  0  0
    3.0068   -1.1956   -0.6623 H   0  0  0  0  0  0  0  0  0  0  0  0
    3.9054    1.1361    0.2769 H   0  0  0  0  0  0  0  0  0  0  0  0
    0.0887   -0.1411   -1.5264 H   0  0  0  0  0  0  0  0  0  0  0  0
    0.3466   -1.9161   -1.1020 H   0  0  0  0  0  0  0  0  0  0  0  0
   -0.9172   -1.7179    0.8871 H   0  0  0  0  0  0  0  0  0  0  0  0
   -2.3079   -2.0452   -1.0260 H   0  0  0  0  0  0  0  0  0  0  0  0
   -2.3707   -0.3133   -1.4307 H   0  0  0  0  0  0  0  0  0  0  0  0
   -3.1410   -0.9420    0.1146 H   0  0  0  0  0  0  0  0  0  0  0  0
  1  2  1  0
  2  3  1  0
  3  4  1  0
  4  5  1  0
  5  6  1  0
  4  7  1  0
  7  8  1  0
  8  9  1  0
  8  2  1  0
  1 10  1  0
  1 11  1  0
  1 12  1  0
  2 13  1  0
  3 14  1  0
  3 15  1  0
  4 16  1  0
  5 17  1  0
  5 18  1  0
  6 19  1  0
  7 20  1  0
  7 21  1  0
  8 22  1  0
  9 23  1  0
  9 24  1  0
  9 25  1  0
M  END
