
     RDKit          3D

 20 20  0  0  0  0  0  0  0  0999 V2000
    2.5320   -0.2590   -0.0619 C   0  0  0  0  0  0  0  0  0  0  0  0
    1.0624   -0.2110    0.3789 C   0  0  0  0  0  0  0  0  0  0  0  0
    0.4754    1.1538    0.1623 C   0  0  0  0  0  0  0  0  0  0  0  0
   -0.9808    1.1864   -0.0593 C   0  0  0  0  0  0  0  0  0  0  0  0
   -1.7167   -0.0853    0.0607 C   0  0  0  0  0  0  0  0  0  0  0  0
   -2.7119   -0.1293   -0.9436 O   0  0  0  0  0  0  0  0  0  0  0  0
   -0.8881   -1.3249    0.0024 C   0  0  0  0  0  0  0  0  0  0  0  0
    0.3994   -1.1040   -0.4311 O   0  0  0  0  0  0  0  0  0  0  0  0
    3.0981    0.5643    0.3720 H   0  0  0  0  0  0  0  0  0  0  0  0
    2.9193   -1.2389    0.2924 H   0  0  0  0  0  0  0  0  0  0  0  0
    2.5589   -0.2879   -1.1765 H   0  0  0  0  0  0  0  0  0  0  0  0
    1.0040   -0.4391    1.4567 H   0  0  0  0  0  0  0  0  0  0  0  0
    0.7906    1.7772    1.0474 H   0  0  0  0  0  0  0  0  0  0  0  0
    1.0480    1.6062   -0.6975 H   0  0  0  0  0  0  0  0  0  0  0  0
   -1.1814    1.6728   -1.0591 H   0  0  0  0  0  0  0  0  0  0  0  0
   -1.4292    1.9172    0.6783 H   0  0  0  0  0  0  0  0  0  0  0  0
   -2.3037   -0.1319    1.0254 H   0  0  0  0  0  0  0  0  0  0  0  0
   -2.4567   -0.7415   -1.6779 H   0  0  0  0  0  0  0  0  0  0  0  0
   -1.3434   -2.0472   -0.7381 H   0  0  0  0  0  0  0  0  0  0  0  0
   -0.8762   -1.8777    0.9758 H   0  0  0  0  0  0  0  0  0  0  0  0
  1  2  1  0
  2  3  1  0
  3  4  1  0
  4  5  1  0
  5  6  1  0
  5  7  1  0
  7  8  1  0
  8  2  1  0
  1  9  1  0
  1 10  1  0
  1 11  1  0
  2 12  1  0
  3 13  1  0
  3 14  1  0
  4 15  1  0
  4 16  1  0
  5 17  1  0
  6 18  1  0
  7 19  1  0
  7 20  1  0
M  END
