
     RDKit          3D

 20 21  0  0  0  0  0  0  0  0999 V2000
    2.2231    0.0715   -0.7487 C   0  0  0  0  0  0  0  0  0  0  0  0
    1.0384   -0.0935    0.2131 C   0  0  0  0  0  0  0  0  0  0  0  0
    0.5397    1.2024    0.6832 C   0  0  0  0  0  0  0  0  0  0  0  0
   -0.7062    1.6218    0.5354 C   0  0  0  0  0  0  0  0  0  0  0  0
   -1.7158    0.8098   -0.1247 C   0  0  0  0  0  0  0  0  0  0  0  0
   -1.3471   -0.5835   -0.4340 C   0  0  0  0  0  0  0  0  0  0  0  0
   -0.9831   -1.5666    0.6343 C   0  0  0  0  0  0  0  0  0  0  0  0
    0.0305   -0.9880   -0.3802 C   0  0  0  0  0  0  0  0  0  0  0  0
    3.1209    0.3249   -0.1321 H   0  0  0  0  0  0  0  0  0  0  0  0
    2.3946   -0.9468   -1.1802 H   0  0  0  0  0  0  0  0  0  0  0  0
    2.0158    0.8008   -1.5356 H   0  0  0  0  0  0  0  0  0  0  0  0
    1.4843   -0.6165    1.1104 H   0  0  0  0  0  0  0  0  0  0  0  0
    1.2333    1.8657    1.1862 H   0  0  0  0  0  0  0  0  0  0  0  0
   -0.9818    2.5961    0.9163 H   0  0  0  0  0  0  0  0  0  0  0  0
   -2.0206    1.3188   -1.0653 H   0  0  0  0  0  0  0  0  0  0  0  0
   -2.6462    0.8146    0.5139 H   0  0  0  0  0  0  0  0  0  0  0  0
   -1.9824   -1.0448   -1.2488 H   0  0  0  0  0  0  0  0  0  0  0  0
   -0.9208   -1.2173    1.6732 H   0  0  0  0  0  0  0  0  0  0  0  0
   -1.2153   -2.6467    0.5139 H   0  0  0  0  0  0  0  0  0  0  0  0
    0.4387   -1.7228   -1.1304 H   0  0  0  0  0  0  0  0  0  0  0  0
  1  2  1  0
  2  3  1  0
  3  4  2  0
  4  5  1  0
  5  6  1  0
  6  7  1  0
  7  8  1  0
  8  2  1  0
  8  6  1  0
  1  9  1  0
  1 10  1  0
  1 11  1  0
  2 12  1  0
  3 13  1  0
  4 14  1  0
  5 15  1  0
  5 16  1  0
  6 17  1  0
  7 18  1  0
  7 19  1  0
  8 20  1  0
M  END
