
     RDKit          3D

 19 19  0  0  0  0  0  0  0  0999 V2000
    1.9016    0.4596    0.5115 C   0  0  0  0  0  0  0  0  0  0  0  0
    0.6856   -0.1774   -0.0954 C   0  0  0  0  0  0  0  0  0  0  0  0
    0.2651   -1.4401    0.5994 C   0  0  0  0  0  0  0  0  0  0  0  0
   -1.1531   -1.5757    0.1549 C   0  0  0  0  0  0  0  0  0  0  0  0
   -1.8902   -2.5150    0.2962 O   0  0  0  0  0  0  0  0  0  0  0  0
   -1.5825   -0.3070   -0.5412 C   0  0  0  0  0  0  0  0  0  0  0  0
   -0.5530    0.6726    0.0398 C   0  0  0  0  0  0  0  0  0  0  0  0
   -0.5063    1.9150   -0.7382 C   0  0  0  0  0  0  0  0  0  0  0  0
   -1.4115    2.1760   -1.5130 O   0  0  0  0  0  0  0  0  0  0  0  0
    2.7371   -0.2602    0.4042 H   0  0  0  0  0  0  0  0  0  0  0  0
    2.1385    1.3598   -0.0903 H   0  0  0  0  0  0  0  0  0  0  0  0
    1.7852    0.6953    1.5773 H   0  0  0  0  0  0  0  0  0  0  0  0
    0.8635   -0.3438   -1.1621 H   0  0  0  0  0  0  0  0  0  0  0  0
    0.8320   -2.3218    0.2905 H   0  0  0  0  0  0  0  0  0  0  0  0
    0.3153   -1.2884    1.7077 H   0  0  0  0  0  0  0  0  0  0  0  0
   -1.3600   -0.4480   -1.6052 H   0  0  0  0  0  0  0  0  0  0  0  0
   -2.6054   -0.0255   -0.3039 H   0  0  0  0  0  0  0  0  0  0  0  0
   -0.7575    0.8179    1.1209 H   0  0  0  0  0  0  0  0  0  0  0  0
    0.2958    2.6066   -0.6528 H   0  0  0  0  0  0  0  0  0  0  0  0
  1  2  1  0
  2  3  1  0
  3  4  1  0
  4  5  2  0
  4  6  1  0
  6  7  1  0
  7  8  1  0
  8  9  2  0
  7  2  1  0
  1 10  1  0
  1 11  1  0
  1 12  1  0
  2 13  1  0
  3 14  1  0
  3 15  1  0
  6 16  1  0
  6 17  1  0
  7 18  1  0
  8 19  1  0
M  END
