
     RDKit          3D

 25 26  0  0  0  0  0  0  0  0999 V2000
   -2.4206   -1.1989    0.0524 C   0  0  0  0  0  0  0  0  0  0  0  0
   -1.1596   -0.4342    0.2405 C   0  0  0  0  0  0  0  0  0  0  0  0
   -1.3743    1.0672    0.3340 C   0  0  0  0  0  0  0  0  0  0  0  0
   -0.0855    1.6422    0.9151 C   0  0  0  0  0  0  0  0  0  0  0  0
    0.9926    1.3761   -0.1209 C   0  0  0  0  0  0  0  0  0  0  0  0
    1.1197   -0.0758   -0.4653 C   0  0  0  0  0  0  0  0  0  0  0  0
    1.8357   -1.0050    0.5171 C   0  0  0  0  0  0  0  0  0  0  0  0
    2.4257   -0.6208   -0.7813 C   0  0  0  0  0  0  0  0  0  0  0  0
   -0.1837   -0.6165   -0.9336 C   0  0  0  0  0  0  0  0  0  0  0  0
   -2.1659   -2.1242   -0.5394 H   0  0  0  0  0  0  0  0  0  0  0  0
   -2.8142   -1.4915    1.0495 H   0  0  0  0  0  0  0  0  0  0  0  0
   -3.1506   -0.5585   -0.4664 H   0  0  0  0  0  0  0  0  0  0  0  0
   -0.5721   -0.7877    1.1379 H   0  0  0  0  0  0  0  0  0  0  0  0
   -1.4394    1.5040   -0.7044 H   0  0  0  0  0  0  0  0  0  0  0  0
   -2.2588    1.3484    0.8959 H   0  0  0  0  0  0  0  0  0  0  0  0
    0.1211    1.0843    1.8555 H   0  0  0  0  0  0  0  0  0  0  0  0
   -0.1427    2.7304    1.0598 H   0  0  0  0  0  0  0  0  0  0  0  0
    0.6724    1.9092   -1.0430 H   0  0  0  0  0  0  0  0  0  0  0  0
    1.9678    1.7973    0.2109 H   0  0  0  0  0  0  0  0  0  0  0  0
    1.4961   -2.0468    0.6042 H   0  0  0  0  0  0  0  0  0  0  0  0
    2.1134   -0.5119    1.4440 H   0  0  0  0  0  0  0  0  0  0  0  0
    2.5535   -1.3340   -1.6033 H   0  0  0  0  0  0  0  0  0  0  0  0
    3.2949    0.0931   -0.7031 H   0  0  0  0  0  0  0  0  0  0  0  0
   -0.6382   -0.0705   -1.7788 H   0  0  0  0  0  0  0  0  0  0  0  0
   -0.1875   -1.6762   -1.1774 H   0  0  0  0  0  0  0  0  0  0  0  0
  1  2  1  0
  2  3  1  0
  3  4  1  0
  4  5  1  0
  5  6  1  0
  6  7  1  0
  7  8  1  0
  6  9  1  0
  9  2  1  0
  8  6  1  0
  1 10  1  0
  1 11  1  0
  1 12  1  0
  2 13  1  0
  3 14  1  0
  3 15  1  0
  4 16  1  0
  4 17  1  0
  5 18  1  0
  5 19  1  0
  7 20  1  0
  7 21  1  0
  8 22  1  0
  8 23  1  0
  9 24  1  0
  9 25  1  0
M  END
