
     RDKit          3D

 18 19  0  0  0  0  0  0  0  0999 V2000
   -1.3207   -1.2703   -0.3783 C   0  0  0  0  0  0  0  0  0  0  0  0
   -1.2108    0.0878    0.2257 C   0  0  0  0  0  0  0  0  0  0  0  0
   -0.8024    1.1780   -0.7335 C   0  0  0  0  0  0  0  0  0  0  0  0
    0.0358    0.7762    0.5033 C   0  0  0  0  0  0  0  0  0  0  0  0
    0.0553    1.7469    1.5007 O   0  0  0  0  0  0  0  0  0  0  0  0
    1.3931    0.2536    0.1453 C   0  0  0  0  0  0  0  0  0  0  0  0
    1.8928   -1.0437    0.4574 C   0  0  0  0  0  0  0  0  0  0  0  0
    1.3738   -0.7655   -0.9016 O   0  0  0  0  0  0  0  0  0  0  0  0
   -0.9872   -2.0663    0.3383 H   0  0  0  0  0  0  0  0  0  0  0  0
   -2.4136   -1.4917   -0.5618 H   0  0  0  0  0  0  0  0  0  0  0  0
   -0.8404   -1.3534   -1.3648 H   0  0  0  0  0  0  0  0  0  0  0  0
   -2.0781    0.3415    0.9038 H   0  0  0  0  0  0  0  0  0  0  0  0
   -0.4373    0.8865   -1.7195 H   0  0  0  0  0  0  0  0  0  0  0  0
   -1.3661    2.1322   -0.6700 H   0  0  0  0  0  0  0  0  0  0  0  0
    0.2606    2.6106    1.0261 H   0  0  0  0  0  0  0  0  0  0  0  0
    2.1144    1.0442   -0.1500 H   0  0  0  0  0  0  0  0  0  0  0  0
    2.9962   -1.2041    0.4693 H   0  0  0  0  0  0  0  0  0  0  0  0
    1.3346   -1.8623    0.9097 H   0  0  0  0  0  0  0  0  0  0  0  0
  1  2  1  0
  2  3  1  0
  3  4  1  0
  4  5  1  0
  4  6  1  0
  6  7  1  0
  7  8  1  0
  4  2  1  0
  8  6  1  0
  1  9  1  0
  1 10  1  0
  1 11  1  0
  2 12  1  0
  3 13  1  0
  3 14  1  0
  5 15  1  0
  6 16  1  0
  7 17  1  0
  7 18  1  0
M  END
