
     RDKit          3D

 20 20  0  0  0  0  0  0  0  0999 V2000
    2.4236   -0.1940    0.1999 C   0  0  0  0  0  0  0  0  0  0  0  0
    1.0148   -0.1336   -0.3933 C   0  0  0  0  0  0  0  0  0  0  0  0
    0.4388   -1.4987   -0.4282 C   0  0  0  0  0  0  0  0  0  0  0  0
   -0.8023   -1.4304    0.0215 C   0  0  0  0  0  0  0  0  0  0  0  0
   -1.2184   -0.0720    0.4053 C   0  0  0  0  0  0  0  0  0  0  0  0
   -2.1829    0.5657   -0.5447 C   0  0  0  0  0  0  0  0  0  0  0  0
    0.1084    0.6735    0.4811 C   0  0  0  0  0  0  0  0  0  0  0  0
   -0.1033    1.9681    0.0155 O   0  0  0  0  0  0  0  0  0  0  0  0
    2.7894   -1.2483    0.2421 H   0  0  0  0  0  0  0  0  0  0  0  0
    2.4495    0.2091    1.2217 H   0  0  0  0  0  0  0  0  0  0  0  0
    3.1137    0.3478   -0.4935 H   0  0  0  0  0  0  0  0  0  0  0  0
    1.0515    0.2872   -1.4272 H   0  0  0  0  0  0  0  0  0  0  0  0
    0.9731   -2.4050   -0.7745 H   0  0  0  0  0  0  0  0  0  0  0  0
   -1.4058   -2.3652    0.0713 H   0  0  0  0  0  0  0  0  0  0  0  0
   -1.6154   -0.1294    1.4588 H   0  0  0  0  0  0  0  0  0  0  0  0
   -2.0724    1.6596   -0.6340 H   0  0  0  0  0  0  0  0  0  0  0  0
   -3.2190    0.3709   -0.1413 H   0  0  0  0  0  0  0  0  0  0  0  0
   -2.1922    0.0690   -1.5555 H   0  0  0  0  0  0  0  0  0  0  0  0
    0.5052    0.7003    1.5212 H   0  0  0  0  0  0  0  0  0  0  0  0
   -0.0562    2.6254    0.7538 H   0  0  0  0  0  0  0  0  0  0  0  0
  1  2  1  0
  2  3  1  0
  3  4  2  0
  4  5  1  0
  5  6  1  0
  5  7  1  0
  7  8  1  0
  7  2  1  0
  1  9  1  0
  1 10  1  0
  1 11  1  0
  2 12  1  0
  3 13  1  0
  4 14  1  0
  5 15  1  0
  6 16  1  0
  6 17  1  0
  6 18  1  0
  7 19  1  0
  8 20  1  0
M  END
