
     RDKit          3D

 19 20  0  0  0  0  0  0  0  0999 V2000
    1.8490   -0.9729    0.2040 C   0  0  0  0  0  0  0  0  0  0  0  0
    0.8159   -0.0204    0.7589 C   0  0  0  0  0  0  0  0  0  0  0  0
   -0.5616   -0.2174    0.2732 C   0  0  0  0  0  0  0  0  0  0  0  0
   -0.8635   -1.3753   -0.6064 C   0  0  0  0  0  0  0  0  0  0  0  0
   -1.6785    0.7314    0.5777 C   0  0  0  0  0  0  0  0  0  0  0  0
   -0.7650    1.8827    0.4222 C   0  0  0  0  0  0  0  0  0  0  0  0
   -0.7492    3.0654    0.6433 O   0  0  0  0  0  0  0  0  0  0  0  0
    0.2230    0.9509   -0.1651 C   0  0  0  0  0  0  0  0  0  0  0  0
    0.6507    1.1144   -1.4644 O   0  0  0  0  0  0  0  0  0  0  0  0
    1.5515   -2.0117    0.4519 H   0  0  0  0  0  0  0  0  0  0  0  0
    2.8603   -0.7963    0.6020 H   0  0  0  0  0  0  0  0  0  0  0  0
    1.8967   -0.8479   -0.9155 H   0  0  0  0  0  0  0  0  0  0  0  0
    1.0201    0.3760    1.7885 H   0  0  0  0  0  0  0  0  0  0  0  0
    0.0308   -1.6225   -1.2377 H   0  0  0  0  0  0  0  0  0  0  0  0
   -1.7851   -1.2791   -1.2036 H   0  0  0  0  0  0  0  0  0  0  0  0
   -0.9864   -2.2809    0.0566 H   0  0  0  0  0  0  0  0  0  0  0  0
   -2.1748    0.6245    1.5532 H   0  0  0  0  0  0  0  0  0  0  0  0
   -2.4742    0.7064   -0.2220 H   0  0  0  0  0  0  0  0  0  0  0  0
    1.1400    1.9726   -1.5166 H   0  0  0  0  0  0  0  0  0  0  0  0
  1  2  1  0
  2  3  1  0
  3  4  1  0
  3  5  1  0
  5  6  1  0
  6  7  2  0
  6  8  1  0
  8  9  1  0
  8  2  1  0
  8  3  1  0
  1 10  1  0
  1 11  1  0
  1 12  1  0
  2 13  1  0
  4 14  1  0
  4 15  1  0
  4 16  1  0
  5 17  1  0
  5 18  1  0
  9 19  1  0
M  END
