
     RDKit          3D

 21 22  0  0  0  0  0  0  0  0999 V2000
   -1.8208    0.4399    1.0857 C   0  0  0  0  0  0  0  0  0  0  0  0
   -0.9716    0.3590   -0.1513 C   0  0  0  0  0  0  0  0  0  0  0  0
   -0.9054   -1.0057   -0.7529 C   0  0  0  0  0  0  0  0  0  0  0  0
    0.5497   -1.4507   -0.7009 C   0  0  0  0  0  0  0  0  0  0  0  0
    1.0957   -0.5872    0.4247 C   0  0  0  0  0  0  0  0  0  0  0  0
    2.4666   -0.5471    0.4582 O   0  0  0  0  0  0  0  0  0  0  0  0
    0.4393    0.7238    0.1261 C   0  0  0  0  0  0  0  0  0  0  0  0
    1.0556    1.7795   -0.6686 C   0  0  0  0  0  0  0  0  0  0  0  0
    0.8276    1.8917    0.6868 O   0  0  0  0  0  0  0  0  0  0  0  0
   -1.8121   -0.5677    1.5634 H   0  0  0  0  0  0  0  0  0  0  0  0
   -1.4440    1.2183    1.7813 H   0  0  0  0  0  0  0  0  0  0  0  0
   -2.8670    0.6954    0.7815 H   0  0  0  0  0  0  0  0  0  0  0  0
   -1.4061    1.0530   -0.9122 H   0  0  0  0  0  0  0  0  0  0  0  0
   -1.5543   -1.7487   -0.2503 H   0  0  0  0  0  0  0  0  0  0  0  0
   -1.1958   -0.9964   -1.8298 H   0  0  0  0  0  0  0  0  0  0  0  0
    1.0754   -1.2404   -1.6692 H   0  0  0  0  0  0  0  0  0  0  0  0
    0.6616   -2.5061   -0.4237 H   0  0  0  0  0  0  0  0  0  0  0  0
    0.6607   -1.0100    1.3673 H   0  0  0  0  0  0  0  0  0  0  0  0
    2.7280   -0.4972    1.4333 H   0  0  0  0  0  0  0  0  0  0  0  0
    2.0657    1.5881   -1.0673 H   0  0  0  0  0  0  0  0  0  0  0  0
    0.3512    2.4085   -1.2821 H   0  0  0  0  0  0  0  0  0  0  0  0
  1  2  1  0
  2  3  1  0
  3  4  1  0
  4  5  1  0
  5  6  1  0
  5  7  1  0
  7  8  1  0
  8  9  1  0
  7  2  1  0
  9  7  1  0
  1 10  1  0
  1 11  1  0
  1 12  1  0
  2 13  1  0
  3 14  1  0
  3 15  1  0
  4 16  1  0
  4 17  1  0
  5 18  1  0
  6 19  1  0
  8 20  1  0
  8 21  1  0
M  END
