
     RDKit          3D

 15 15  0  0  0  0  0  0  0  0999 V2000
   -1.9683    0.0189   -0.0238 C   0  0  0  0  0  0  0  0  0  0  0  0
   -0.5787    0.1163    0.4645 C   0  0  0  0  0  0  0  0  0  0  0  0
    0.4134   -0.8877   -0.1253 C   0  0  0  0  0  0  0  0  0  0  0  0
    1.4100    0.2382    0.1946 C   0  0  0  0  0  0  0  0  0  0  0  0
    2.5162    0.2833   -0.5927 O   0  0  0  0  0  0  0  0  0  0  0  0
    0.2892    1.1530   -0.1558 C   0  0  0  0  0  0  0  0  0  0  0  0
    0.2134    2.2353   -0.7008 O   0  0  0  0  0  0  0  0  0  0  0  0
   -2.4185    0.9836   -0.3605 H   0  0  0  0  0  0  0  0  0  0  0  0
   -2.6179   -0.3000    0.8450 H   0  0  0  0  0  0  0  0  0  0  0  0
   -2.1405   -0.7751   -0.7943 H   0  0  0  0  0  0  0  0  0  0  0  0
   -0.4389    0.1172    1.5774 H   0  0  0  0  0  0  0  0  0  0  0  0
    0.3559   -0.9978   -1.2219 H   0  0  0  0  0  0  0  0  0  0  0  0
    0.5537   -1.7963    0.4663 H   0  0  0  0  0  0  0  0  0  0  0  0
    1.6395    0.2626    1.2830 H   0  0  0  0  0  0  0  0  0  0  0  0
    2.7715   -0.6513   -0.8555 H   0  0  0  0  0  0  0  0  0  0  0  0
  1  2  1  0
  2  3  1  0
  3  4  1  0
  4  5  1  0
  4  6  1  0
  6  7  2  0
  6  2  1  0
  1  8  1  0
  1  9  1  0
  1 10  1  0
  2 11  1  0
  3 12  1  0
  3 13  1  0
  4 14  1  0
  5 15  1  0
M  END
