
     RDKit          3D

 21 22  0  0  0  0  0  0  0  0999 V2000
   -2.5422   -0.1042   -0.4772 C   0  0  0  0  0  0  0  0  0  0  0  0
   -1.0845   -0.2499   -0.7719 C   0  0  0  0  0  0  0  0  0  0  0  0
   -0.3612   -1.2616    0.0601 C   0  0  0  0  0  0  0  0  0  0  0  0
   -0.5378   -0.4010    1.1341 O   0  0  0  0  0  0  0  0  0  0  0  0
   -0.1466    0.4866    0.1388 C   0  0  0  0  0  0  0  0  0  0  0  0
    0.0233    1.8442    0.2439 C   0  0  0  0  0  0  0  0  0  0  0  0
    0.9067   -0.5309   -0.2223 C   0  0  0  0  0  0  0  0  0  0  0  0
    1.9757   -0.7510    0.8252 C   0  0  0  0  0  0  0  0  0  0  0  0
    3.0915    0.0028    0.4059 O   0  0  0  0  0  0  0  0  0  0  0  0
   -2.8588   -0.8685    0.2734 H   0  0  0  0  0  0  0  0  0  0  0  0
   -3.1058   -0.3801   -1.4152 H   0  0  0  0  0  0  0  0  0  0  0  0
   -2.8645    0.9087   -0.2205 H   0  0  0  0  0  0  0  0  0  0  0  0
   -0.7755   -0.2310   -1.8137 H   0  0  0  0  0  0  0  0  0  0  0  0
   -0.5079   -2.2601    0.0626 H   0  0  0  0  0  0  0  0  0  0  0  0
   -0.3625    2.4474   -0.6303 H   0  0  0  0  0  0  0  0  0  0  0  0
   -0.4784    2.3224    1.1357 H   0  0  0  0  0  0  0  0  0  0  0  0
    1.0987    2.1781    0.3399 H   0  0  0  0  0  0  0  0  0  0  0  0
    1.2548   -0.4614   -1.2510 H   0  0  0  0  0  0  0  0  0  0  0  0
    1.6647   -0.4533    1.8263 H   0  0  0  0  0  0  0  0  0  0  0  0
    2.2272   -1.8311    0.8178 H   0  0  0  0  0  0  0  0  0  0  0  0
    3.3831   -0.4059   -0.4617 H   0  0  0  0  0  0  0  0  0  0  0  0
  1  2  1  0
  2  3  1  0
  3  4  1  0
  4  5  1  0
  5  6  1  0
  5  7  1  0
  7  8  1  0
  8  9  1  0
  5  2  1  0
  7  3  1  0
  1 10  1  0
  1 11  1  0
  1 12  1  0
  2 13  1  0
  3 14  1  0
  6 15  1  0
  6 16  1  0
  6 17  1  0
  7 18  1  0
  8 19  1  0
  8 20  1  0
  9 21  1  0
M  END
