
     RDKit          3D

 19 19  0  0  0  0  0  0  0  0999 V2000
   -2.8822    1.2494    0.1157 C   0  0  0  0  0  0  0  0  0  0  0  0
   -1.8971    0.1027    0.0653 C   0  0  0  0  0  0  0  0  0  0  0  0
   -1.1757   -0.0210   -1.2553 C   0  0  0  0  0  0  0  0  0  0  0  0
   -0.4438    0.3581    0.0658 C   0  0  0  0  0  0  0  0  0  0  0  0
    0.5071   -0.6999    0.5558 C   0  0  0  0  0  0  0  0  0  0  0  0
    1.8904   -0.2288    0.4652 C   0  0  0  0  0  0  0  0  0  0  0  0
    3.0315    0.1626    0.3708 C   0  0  0  0  0  0  0  0  0  0  0  0
    4.3906    0.6139    0.2678 C   0  0  0  0  0  0  0  0  0  0  0  0
    5.3807   -0.1621    0.2830 O   0  0  0  0  0  0  0  0  0  0  0  0
   -2.4536    2.1332    0.6643 H   0  0  0  0  0  0  0  0  0  0  0  0
   -3.8431    0.9560    0.6042 H   0  0  0  0  0  0  0  0  0  0  0  0
   -3.1541    1.5795   -0.9141 H   0  0  0  0  0  0  0  0  0  0  0  0
   -2.2554   -0.8051    0.5685 H   0  0  0  0  0  0  0  0  0  0  0  0
   -1.2751    0.7655   -2.0113 H   0  0  0  0  0  0  0  0  0  0  0  0
   -0.9999   -1.0341   -1.6456 H   0  0  0  0  0  0  0  0  0  0  0  0
   -0.0292    1.3886    0.0518 H   0  0  0  0  0  0  0  0  0  0  0  0
    0.4149   -1.6491   -0.0389 H   0  0  0  0  0  0  0  0  0  0  0  0
    0.2818   -1.0068    1.6141 H   0  0  0  0  0  0  0  0  0  0  0  0
    4.5122    1.7043    0.1730 H   0  0  0  0  0  0  0  0  0  0  0  0
  1  2  1  0
  2  3  1  0
  3  4  1  0
  4  5  1  0
  5  6  1  0
  6  7  3  0
  7  8  1  0
  8  9  2  0
  4  2  1  0
  1 10  1  0
  1 11  1  0
  1 12  1  0
  2 13  1  0
  3 14  1  0
  3 15  1  0
  4 16  1  0
  5 17  1  0
  5 18  1  0
  8 19  1  0
M  END
