
     RDKit          3D

 23 24  0  0  0  0  0  0  0  0999 V2000
    2.3550   -0.0690   -0.4848 C   0  0  0  0  0  0  0  0  0  0  0  0
    1.5232    0.5252    0.5884 C   0  0  0  0  0  0  0  0  0  0  0  0
    0.5699    1.5916    0.0967 C   0  0  0  0  0  0  0  0  0  0  0  0
   -0.6454    1.1240   -0.0524 C   0  0  0  0  0  0  0  0  0  0  0  0
   -2.1199    0.8810   -0.3164 C   0  0  0  0  0  0  0  0  0  0  0  0
   -2.0300   -0.3426    0.6406 C   0  0  0  0  0  0  0  0  0  0  0  0
   -0.5999   -0.3733    0.2186 C   0  0  0  0  0  0  0  0  0  0  0  0
   -0.4141   -1.1715   -1.0609 C   0  0  0  0  0  0  0  0  0  0  0  0
    0.5034   -0.4511    1.1965 C   0  0  0  0  0  0  0  0  0  0  0  0
    3.3304    0.5044   -0.5290 H   0  0  0  0  0  0  0  0  0  0  0  0
    1.9425    0.0306   -1.5116 H   0  0  0  0  0  0  0  0  0  0  0  0
    2.6524   -1.1203   -0.2532 H   0  0  0  0  0  0  0  0  0  0  0  0
    2.1642    0.8944    1.4120 H   0  0  0  0  0  0  0  0  0  0  0  0
    0.8638    2.6109   -0.1043 H   0  0  0  0  0  0  0  0  0  0  0  0
   -2.3182    0.6266   -1.3545 H   0  0  0  0  0  0  0  0  0  0  0  0
   -2.7964    1.6298    0.1228 H   0  0  0  0  0  0  0  0  0  0  0  0
   -2.6566   -1.1593    0.2267 H   0  0  0  0  0  0  0  0  0  0  0  0
   -2.2639   -0.1050    1.6760 H   0  0  0  0  0  0  0  0  0  0  0  0
   -0.3599   -0.4895   -1.9156 H   0  0  0  0  0  0  0  0  0  0  0  0
    0.4774   -1.7938   -0.9811 H   0  0  0  0  0  0  0  0  0  0  0  0
   -1.2774   -1.8851   -1.1386 H   0  0  0  0  0  0  0  0  0  0  0  0
    0.1669   -0.0198    2.1589 H   0  0  0  0  0  0  0  0  0  0  0  0
    0.9324   -1.4384    1.3651 H   0  0  0  0  0  0  0  0  0  0  0  0
  1  2  1  0
  2  3  1  0
  3  4  2  0
  4  5  1  0
  5  6  1  0
  6  7  1  0
  7  8  1  0
  7  9  1  0
  9  2  1  0
  7  4  1  0
  1 10  1  0
  1 11  1  0
  1 12  1  0
  2 13  1  0
  3 14  1  0
  5 15  1  0
  5 16  1  0
  6 17  1  0
  6 18  1  0
  8 19  1  0
  8 20  1  0
  8 21  1  0
  9 22  1  0
  9 23  1  0
M  END
