
     RDKit          3D

 23 24  0  0  0  0  0  0  0  0999 V2000
    2.0093   -0.8754    0.0141 C   0  0  0  0  0  0  0  0  0  0  0  0
    0.8167   -0.1586   -0.6408 C   0  0  0  0  0  0  0  0  0  0  0  0
    0.9140    1.2762   -0.3282 C   0  0  0  0  0  0  0  0  0  0  0  0
   -0.3518    1.9777    0.0048 C   0  0  0  0  0  0  0  0  0  0  0  0
   -1.5974    1.2396   -0.4076 C   0  0  0  0  0  0  0  0  0  0  0  0
   -1.5082   -0.1023    0.3277 C   0  0  0  0  0  0  0  0  0  0  0  0
   -0.4063   -0.8777   -0.2761 C   0  0  0  0  0  0  0  0  0  0  0  0
   -0.3843   -2.3355   -0.0712 C   0  0  0  0  0  0  0  0  0  0  0  0
   -0.9256   -1.8360   -1.2902 O   0  0  0  0  0  0  0  0  0  0  0  0
    2.8374   -0.1543    0.1818 H   0  0  0  0  0  0  0  0  0  0  0  0
    2.3944   -1.6833   -0.6183 H   0  0  0  0  0  0  0  0  0  0  0  0
    1.6601   -1.2415    1.0095 H   0  0  0  0  0  0  0  0  0  0  0  0
    0.9968   -0.2978   -1.7485 H   0  0  0  0  0  0  0  0  0  0  0  0
    1.6310    1.4590    0.5278 H   0  0  0  0  0  0  0  0  0  0  0  0
    1.3937    1.8473   -1.1796 H   0  0  0  0  0  0  0  0  0  0  0  0
   -0.4148    2.9982   -0.4578 H   0  0  0  0  0  0  0  0  0  0  0  0
   -0.4347    2.1557    1.1022 H   0  0  0  0  0  0  0  0  0  0  0  0
   -2.4619    1.8246   -0.0341 H   0  0  0  0  0  0  0  0  0  0  0  0
   -1.6671    1.0652   -1.4818 H   0  0  0  0  0  0  0  0  0  0  0  0
   -1.3718    0.1052    1.4156 H   0  0  0  0  0  0  0  0  0  0  0  0
   -2.4839   -0.5852    0.2212 H   0  0  0  0  0  0  0  0  0  0  0  0
   -1.1770   -2.8618    0.5144 H   0  0  0  0  0  0  0  0  0  0  0  0
    0.5317   -2.9394   -0.2096 H   0  0  0  0  0  0  0  0  0  0  0  0
  1  2  1  0
  2  3  1  0
  3  4  1  0
  4  5  1  0
  5  6  1  0
  6  7  1  0
  7  8  1  0
  8  9  1  0
  7  2  1  0
  9  7  1  0
  1 10  1  0
  1 11  1  0
  1 12  1  0
  2 13  1  0
  3 14  1  0
  3 15  1  0
  4 16  1  0
  4 17  1  0
  5 18  1  0
  5 19  1  0
  6 20  1  0
  6 21  1  0
  8 22  1  0
  8 23  1  0
M  END
