
     RDKit          3D

 23 23  0  0  0  0  0  0  0  0999 V2000
   -2.6159   -0.3403    0.2379 C   0  0  0  0  0  0  0  0  0  0  0  0
   -1.2558    0.0903   -0.2004 C   0  0  0  0  0  0  0  0  0  0  0  0
   -0.9965    1.5757    0.0933 C   0  0  0  0  0  0  0  0  0  0  0  0
    0.4856    1.5895   -0.0230 C   0  0  0  0  0  0  0  0  0  0  0  0
    0.9987    0.4004    0.2632 C   0  0  0  0  0  0  0  0  0  0  0  0
    2.4525    0.0403    0.2511 C   0  0  0  0  0  0  0  0  0  0  0  0
    3.1892    1.1566   -0.1101 O   0  0  0  0  0  0  0  0  0  0  0  0
   -0.1381   -0.5327    0.6062 C   0  0  0  0  0  0  0  0  0  0  0  0
    0.1541   -1.9440    0.2102 C   0  0  0  0  0  0  0  0  0  0  0  0
   -2.6211   -0.6032    1.3174 H   0  0  0  0  0  0  0  0  0  0  0  0
   -2.8857   -1.2499   -0.3472 H   0  0  0  0  0  0  0  0  0  0  0  0
   -3.3394    0.4320   -0.0205 H   0  0  0  0  0  0  0  0  0  0  0  0
   -1.0482   -0.0481   -1.2613 H   0  0  0  0  0  0  0  0  0  0  0  0
   -1.4979    2.2089   -0.6451 H   0  0  0  0  0  0  0  0  0  0  0  0
   -1.3466    1.7708    1.1282 H   0  0  0  0  0  0  0  0  0  0  0  0
    1.0803    2.4441   -0.3017 H   0  0  0  0  0  0  0  0  0  0  0  0
    2.7055   -0.2664    1.2853 H   0  0  0  0  0  0  0  0  0  0  0  0
    2.6292   -0.8068   -0.4365 H   0  0  0  0  0  0  0  0  0  0  0  0
    3.7965    1.4180    0.6247 H   0  0  0  0  0  0  0  0  0  0  0  0
   -0.3596   -0.4016    1.6847 H   0  0  0  0  0  0  0  0  0  0  0  0
    1.2292   -2.1409    0.3649 H   0  0  0  0  0  0  0  0  0  0  0  0
   -0.4199   -2.6063    0.9128 H   0  0  0  0  0  0  0  0  0  0  0  0
   -0.1960   -2.1861   -0.8147 H   0  0  0  0  0  0  0  0  0  0  0  0
  1  2  1  0
  2  3  1  0
  3  4  1  0
  4  5  2  0
  5  6  1  0
  6  7  1  0
  5  8  1  0
  8  9  1  0
  8  2  1  0
  1 10  1  0
  1 11  1  0
  1 12  1  0
  2 13  1  0
  3 14  1  0
  3 15  1  0
  4 16  1  0
  6 17  1  0
  6 18  1  0
  7 19  1  0
  8 20  1  0
  9 21  1  0
  9 22  1  0
  9 23  1  0
M  END
