
     RDKit          3D

 25 26  0  0  0  0  0  0  0  0999 V2000
    2.5384   -0.1933    0.1967 C   0  0  0  0  0  0  0  0  0  0  0  0
    1.1641   -0.0771   -0.3986 C   0  0  0  0  0  0  0  0  0  0  0  0
    0.6452   -1.5058   -0.5732 C   0  0  0  0  0  0  0  0  0  0  0  0
   -0.8300   -1.2752   -0.7016 C   0  0  0  0  0  0  0  0  0  0  0  0
   -1.6074   -1.3662    0.5647 C   0  0  0  0  0  0  0  0  0  0  0  0
   -1.1421    0.0251    0.0183 C   0  0  0  0  0  0  0  0  0  0  0  0
   -2.1954    0.8528   -0.5782 C   0  0  0  0  0  0  0  0  0  0  0  0
    0.1475    0.4981    0.5409 C   0  0  0  0  0  0  0  0  0  0  0  0
    0.3528    1.9464    0.6801 C   0  0  0  0  0  0  0  0  0  0  0  0
    2.9392    0.7281    0.6119 H   0  0  0  0  0  0  0  0  0  0  0  0
    3.2185   -0.5190   -0.6288 H   0  0  0  0  0  0  0  0  0  0  0  0
    2.5901   -0.9880    0.9601 H   0  0  0  0  0  0  0  0  0  0  0  0
    1.1728    0.4437   -1.3636 H   0  0  0  0  0  0  0  0  0  0  0  0
    0.8995   -2.0842    0.3500 H   0  0  0  0  0  0  0  0  0  0  0  0
    1.1293   -1.9067   -1.4640 H   0  0  0  0  0  0  0  0  0  0  0  0
   -1.3349   -1.5265   -1.6342 H   0  0  0  0  0  0  0  0  0  0  0  0
   -2.6919   -1.5726    0.4707 H   0  0  0  0  0  0  0  0  0  0  0  0
   -1.1106   -1.7100    1.4746 H   0  0  0  0  0  0  0  0  0  0  0  0
   -2.1814    0.7451   -1.7033 H   0  0  0  0  0  0  0  0  0  0  0  0
   -3.2110    0.4452   -0.2931 H   0  0  0  0  0  0  0  0  0  0  0  0
   -2.2159    1.9102   -0.3198 H   0  0  0  0  0  0  0  0  0  0  0  0
    0.3165    0.0189    1.5497 H   0  0  0  0  0  0  0  0  0  0  0  0
   -0.3774    2.6062    0.2230 H   0  0  0  0  0  0  0  0  0  0  0  0
    1.3566    2.2448    0.2548 H   0  0  0  0  0  0  0  0  0  0  0  0
    0.4277    2.2603    1.7629 H   0  0  0  0  0  0  0  0  0  0  0  0
  1  2  1  0
  2  3  1  0
  3  4  1  0
  4  5  1  0
  5  6  1  0
  6  7  1  0
  6  8  1  0
  8  9  1  0
  8  2  1  0
  6  4  1  0
  1 10  1  0
  1 11  1  0
  1 12  1  0
  2 13  1  0
  3 14  1  0
  3 15  1  0
  4 16  1  0
  5 17  1  0
  5 18  1  0
  7 19  1  0
  7 20  1  0
  7 21  1  0
  8 22  1  0
  9 23  1  0
  9 24  1  0
  9 25  1  0
M  END
