
     RDKit          3D

 23 24  0  0  0  0  0  0  0  0999 V2000
   -2.4503    0.8177   -0.4021 C   0  0  0  0  0  0  0  0  0  0  0  0
   -1.7481   -0.4621   -0.0725 C   0  0  0  0  0  0  0  0  0  0  0  0
   -1.1842   -0.7239    1.2736 C   0  0  0  0  0  0  0  0  0  0  0  0
   -0.2517   -0.3144    0.1437 C   0  0  0  0  0  0  0  0  0  0  0  0
    0.5701   -1.3211   -0.5803 C   0  0  0  0  0  0  0  0  0  0  0  0
    1.9797   -1.2983   -0.1345 C   0  0  0  0  0  0  0  0  0  0  0  0
    2.5231   -0.1090    0.0682 C   0  0  0  0  0  0  0  0  0  0  0  0
    1.7848    1.1324   -0.1319 C   0  0  0  0  0  0  0  0  0  0  0  0
    0.3285    1.0509    0.1988 C   0  0  0  0  0  0  0  0  0  0  0  0
   -2.3131    1.6143    0.3489 H   0  0  0  0  0  0  0  0  0  0  0  0
   -3.5397    0.6712   -0.5589 H   0  0  0  0  0  0  0  0  0  0  0  0
   -2.0563    1.1549   -1.4036 H   0  0  0  0  0  0  0  0  0  0  0  0
   -2.1233   -1.3468   -0.6136 H   0  0  0  0  0  0  0  0  0  0  0  0
   -1.0627   -1.7688    1.6003 H   0  0  0  0  0  0  0  0  0  0  0  0
   -1.4205    0.0047    2.0540 H   0  0  0  0  0  0  0  0  0  0  0  0
    0.5799   -1.0277   -1.6656 H   0  0  0  0  0  0  0  0  0  0  0  0
    0.1290   -2.3121   -0.5326 H   0  0  0  0  0  0  0  0  0  0  0  0
    2.5438   -2.2300    0.0192 H   0  0  0  0  0  0  0  0  0  0  0  0
    3.5550   -0.0770    0.3935 H   0  0  0  0  0  0  0  0  0  0  0  0
    2.2731    1.9213    0.4789 H   0  0  0  0  0  0  0  0  0  0  0  0
    1.9401    1.4547   -1.1955 H   0  0  0  0  0  0  0  0  0  0  0  0
    0.1717    1.4654    1.2132 H   0  0  0  0  0  0  0  0  0  0  0  0
   -0.2288    1.7035   -0.5013 H   0  0  0  0  0  0  0  0  0  0  0  0
  1  2  1  0
  2  3  1  0
  3  4  1  0
  4  5  1  0
  5  6  1  0
  6  7  2  0
  7  8  1  0
  8  9  1  0
  4  2  1  0
  9  4  1  0
  1 10  1  0
  1 11  1  0
  1 12  1  0
  2 13  1  0
  3 14  1  0
  3 15  1  0
  5 16  1  0
  5 17  1  0
  6 18  1  0
  7 19  1  0
  8 20  1  0
  8 21  1  0
  9 22  1  0
  9 23  1  0
M  END
