
     RDKit          3D

 19 19  0  0  0  0  0  0  0  0999 V2000
    2.4681   -0.4140    0.5206 C   0  0  0  0  0  0  0  0  0  0  0  0
    1.0526    0.1802    0.5252 C   0  0  0  0  0  0  0  0  0  0  0  0
    0.0198   -0.7969    0.1418 C   0  0  0  0  0  0  0  0  0  0  0  0
   -1.0896   -0.3181   -0.7072 C   0  0  0  0  0  0  0  0  0  0  0  0
   -2.4166   -0.2499    0.0628 C   0  0  0  0  0  0  0  0  0  0  0  0
   -0.9132    0.9037   -1.3319 O   0  0  0  0  0  0  0  0  0  0  0  0
    0.0198    1.8444   -0.8674 C   0  0  0  0  0  0  0  0  0  0  0  0
   -0.2178    3.0797   -1.0005 O   0  0  0  0  0  0  0  0  0  0  0  0
    1.1419    1.3201   -0.2922 O   0  0  0  0  0  0  0  0  0  0  0  0
    3.0462    0.1182    1.3125 H   0  0  0  0  0  0  0  0  0  0  0  0
    2.9904   -0.1920   -0.4369 H   0  0  0  0  0  0  0  0  0  0  0  0
    2.4711   -1.4907    0.6531 H   0  0  0  0  0  0  0  0  0  0  0  0
    0.8477    0.5607    1.5661 H   0  0  0  0  0  0  0  0  0  0  0  0
    0.5390   -1.6873   -0.3215 H   0  0  0  0  0  0  0  0  0  0  0  0
   -0.4363   -1.2273    1.0831 H   0  0  0  0  0  0  0  0  0  0  0  0
   -1.2720   -1.0836   -1.5196 H   0  0  0  0  0  0  0  0  0  0  0  0
   -3.2194   -0.1482   -0.7243 H   0  0  0  0  0  0  0  0  0  0  0  0
   -2.5589   -1.1209    0.7065 H   0  0  0  0  0  0  0  0  0  0  0  0
   -2.4728    0.7219    0.6298 H   0  0  0  0  0  0  0  0  0  0  0  0
  1  2  1  0
  2  3  1  0
  3  4  1  0
  4  5  1  0
  4  6  1  0
  6  7  1  0
  7  8  2  0
  7  9  1  0
  9  2  1  0
  1 10  1  0
  1 11  1  0
  1 12  1  0
  2 13  1  0
  3 14  1  0
  3 15  1  0
  4 16  1  0
  5 17  1  0
  5 18  1  0
  5 19  1  0
M  END
