
     RDKit          3D

 25 26  0  0  0  0  0  0  0  0999 V2000
    2.7173    0.2902    0.0506 C   0  0  0  0  0  0  0  0  0  0  0  0
    1.4992   -0.6227    0.2385 C   0  0  0  0  0  0  0  0  0  0  0  0
    0.8704   -1.1213   -1.0995 C   0  0  0  0  0  0  0  0  0  0  0  0
    0.2573   -0.1204   -0.2981 C   0  0  0  0  0  0  0  0  0  0  0  0
    0.1305    1.3380   -0.5913 C   0  0  0  0  0  0  0  0  0  0  0  0
   -0.8132    1.3802    0.6238 C   0  0  0  0  0  0  0  0  0  0  0  0
   -1.0624   -0.1064    0.3369 C   0  0  0  0  0  0  0  0  0  0  0  0
   -2.1770   -0.2054   -0.6943 C   0  0  0  0  0  0  0  0  0  0  0  0
   -1.2865   -0.9363    1.5616 C   0  0  0  0  0  0  0  0  0  0  0  0
    2.6838    0.6945   -1.0007 H   0  0  0  0  0  0  0  0  0  0  0  0
    2.6232    1.1408    0.7493 H   0  0  0  0  0  0  0  0  0  0  0  0
    3.6553   -0.2517    0.1897 H   0  0  0  0  0  0  0  0  0  0  0  0
    1.4980   -1.3157    1.0786 H   0  0  0  0  0  0  0  0  0  0  0  0
    1.4381   -0.9154   -2.0156 H   0  0  0  0  0  0  0  0  0  0  0  0
    0.5097   -2.1716   -1.0369 H   0  0  0  0  0  0  0  0  0  0  0  0
    1.0648    1.9029   -0.4524 H   0  0  0  0  0  0  0  0  0  0  0  0
   -0.4285    1.5660   -1.5203 H   0  0  0  0  0  0  0  0  0  0  0  0
   -1.6840    2.0249    0.5017 H   0  0  0  0  0  0  0  0  0  0  0  0
   -0.2383    1.5502    1.5702 H   0  0  0  0  0  0  0  0  0  0  0  0
   -1.7910   -0.9276   -1.4741 H   0  0  0  0  0  0  0  0  0  0  0  0
   -3.1119   -0.5386   -0.2432 H   0  0  0  0  0  0  0  0  0  0  0  0
   -2.3037    0.7545   -1.2536 H   0  0  0  0  0  0  0  0  0  0  0  0
   -2.2330   -0.5799    2.0520 H   0  0  0  0  0  0  0  0  0  0  0  0
   -0.4162   -0.8537    2.2192 H   0  0  0  0  0  0  0  0  0  0  0  0
   -1.4017   -1.9754    1.2650 H   0  0  0  0  0  0  0  0  0  0  0  0
  1  2  1  0
  2  3  1  0
  3  4  1  0
  4  5  1  0
  5  6  1  0
  6  7  1  0
  7  8  1  0
  7  9  1  0
  4  2  1  0
  7  4  1  0
  1 10  1  0
  1 11  1  0
  1 12  1  0
  2 13  1  0
  3 14  1  0
  3 15  1  0
  5 16  1  0
  5 17  1  0
  6 18  1  0
  6 19  1  0
  8 20  1  0
  8 21  1  0
  8 22  1  0
  9 23  1  0
  9 24  1  0
  9 25  1  0
M  END
