
     RDKit          3D

 19 20  0  0  0  0  0  0  0  0999 V2000
    1.9542    0.8064   -0.0889 C   0  0  0  0  0  0  0  0  0  0  0  0
    0.9573   -0.2853   -0.2650 C   0  0  0  0  0  0  0  0  0  0  0  0
    0.5437   -0.9177    1.0181 C   0  0  0  0  0  0  0  0  0  0  0  0
    1.2513   -1.4204    1.8374 O   0  0  0  0  0  0  0  0  0  0  0  0
   -0.9030   -0.7687    1.0146 C   0  0  0  0  0  0  0  0  0  0  0  0
   -1.2203   -1.0739   -0.4622 C   0  0  0  0  0  0  0  0  0  0  0  0
   -0.4115    0.2075   -0.6888 C   0  0  0  0  0  0  0  0  0  0  0  0
   -0.5775    0.8937   -1.8013 O   0  0  0  0  0  0  0  0  0  0  0  0
   -1.1054    0.6763    0.5993 C   0  0  0  0  0  0  0  0  0  0  0  0
    1.5414    1.8282   -0.2611 H   0  0  0  0  0  0  0  0  0  0  0  0
    2.8127    0.6281   -0.7857 H   0  0  0  0  0  0  0  0  0  0  0  0
    2.3818    0.7654    0.9346 H   0  0  0  0  0  0  0  0  0  0  0  0
    1.2947   -1.0403   -1.0027 H   0  0  0  0  0  0  0  0  0  0  0  0
   -1.5296   -1.1947    1.7463 H   0  0  0  0  0  0  0  0  0  0  0  0
   -2.2807   -0.9836   -0.7025 H   0  0  0  0  0  0  0  0  0  0  0  0
   -0.7151   -1.9851   -0.8352 H   0  0  0  0  0  0  0  0  0  0  0  0
   -1.3179    1.5177   -1.7783 H   0  0  0  0  0  0  0  0  0  0  0  0
   -0.5280    1.4138    1.1659 H   0  0  0  0  0  0  0  0  0  0  0  0
   -2.1480    0.9328    0.3551 H   0  0  0  0  0  0  0  0  0  0  0  0
  1  2  1  0
  2  3  1  0
  3  4  2  0
  3  5  1  0
  5  6  1  0
  6  7  1  0
  7  8  1  0
  7  9  1  0
  7  2  1  0
  9  5  1  0
  1 10  1  0
  1 11  1  0
  1 12  1  0
  2 13  1  0
  5 14  1  0
  6 15  1  0
  6 16  1  0
  8 17  1  0
  9 18  1  0
  9 19  1  0
M  END
