
     RDKit          3D

 21 23  0  0  0  0  0  0  0  0999 V2000
   -1.6170    1.1703    0.8989 C   0  0  0  0  0  0  0  0  0  0  0  0
   -1.1580   -0.2076    0.4531 C   0  0  0  0  0  0  0  0  0  0  0  0
   -1.7136   -0.4723   -0.9486 C   0  0  0  0  0  0  0  0  0  0  0  0
   -1.3217    0.3758   -1.9566 O   0  0  0  0  0  0  0  0  0  0  0  0
   -0.2927   -0.4250   -1.5298 C   0  0  0  0  0  0  0  0  0  0  0  0
    0.1940   -0.2303   -0.1392 C   0  0  0  0  0  0  0  0  0  0  0  0
    1.1097    0.9119    0.1271 C   0  0  0  0  0  0  0  0  0  0  0  0
    2.2609   -0.0940    0.1167 C   0  0  0  0  0  0  0  0  0  0  0  0
    1.2034   -1.1710    0.3948 C   0  0  0  0  0  0  0  0  0  0  0  0
   -2.7155    1.2012    0.8901 H   0  0  0  0  0  0  0  0  0  0  0  0
   -1.2135    1.4499    1.8896 H   0  0  0  0  0  0  0  0  0  0  0  0
   -1.2363    1.9016    0.1591 H   0  0  0  0  0  0  0  0  0  0  0  0
   -1.4399   -0.9815    1.1734 H   0  0  0  0  0  0  0  0  0  0  0  0
   -2.3284   -1.3497   -1.1271 H   0  0  0  0  0  0  0  0  0  0  0  0
   -0.0123   -1.3414   -2.1121 H   0  0  0  0  0  0  0  0  0  0  0  0
    1.1349    1.6535   -0.6802 H   0  0  0  0  0  0  0  0  0  0  0  0
    0.9204    1.3192    1.1567 H   0  0  0  0  0  0  0  0  0  0  0  0
    2.7000   -0.2269   -0.8852 H   0  0  0  0  0  0  0  0  0  0  0  0
    2.9972    0.0282    0.9103 H   0  0  0  0  0  0  0  0  0  0  0  0
    1.3743   -2.0713   -0.2541 H   0  0  0  0  0  0  0  0  0  0  0  0
    1.1540   -1.4405    1.4633 H   0  0  0  0  0  0  0  0  0  0  0  0
  1  2  1  0
  2  3  1  0
  3  4  1  0
  4  5  1  0
  5  6  1  0
  6  7  1  0
  7  8  1  0
  8  9  1  0
  6  2  1  0
  5  3  1  0
  9  6  1  0
  1 10  1  0
  1 11  1  0
  1 12  1  0
  2 13  1  0
  3 14  1  0
  5 15  1  0
  7 16  1  0
  7 17  1  0
  8 18  1  0
  8 19  1  0
  9 20  1  0
  9 21  1  0
M  END
