
     RDKit          3D

 21 23  0  0  0  0  0  0  0  0999 V2000
    2.5478   -0.3309    0.5186 C   0  0  0  0  0  0  0  0  0  0  0  0
    1.0558   -0.5373    0.3068 C   0  0  0  0  0  0  0  0  0  0  0  0
    0.4762   -0.4325   -1.0653 C   0  0  0  0  0  0  0  0  0  0  0  0
   -0.8620    0.1385   -1.3830 C   0  0  0  0  0  0  0  0  0  0  0  0
   -2.1136   -0.2746   -1.0244 C   0  0  0  0  0  0  0  0  0  0  0  0
   -1.2568    0.3803   -0.0297 C   0  0  0  0  0  0  0  0  0  0  0  0
   -1.6291   -0.1628    1.2478 C   0  0  0  0  0  0  0  0  0  0  0  0
    0.2536    0.6418    0.0090 C   0  0  0  0  0  0  0  0  0  0  0  0
    0.7363    1.8931   -0.2400 O   0  0  0  0  0  0  0  0  0  0  0  0
    3.0214   -1.2138    0.9962 H   0  0  0  0  0  0  0  0  0  0  0  0
    2.7632    0.6033    1.0746 H   0  0  0  0  0  0  0  0  0  0  0  0
    3.0233   -0.2648   -0.5002 H   0  0  0  0  0  0  0  0  0  0  0  0
    0.6513   -1.3207    1.0041 H   0  0  0  0  0  0  0  0  0  0  0  0
    1.2576   -0.2827   -1.8384 H   0  0  0  0  0  0  0  0  0  0  0  0
   -0.7755    1.0929   -2.0029 H   0  0  0  0  0  0  0  0  0  0  0  0
   -2.3718   -1.3754   -1.0131 H   0  0  0  0  0  0  0  0  0  0  0  0
   -3.0283    0.3034   -1.3212 H   0  0  0  0  0  0  0  0  0  0  0  0
   -1.3385   -1.2372    1.4437 H   0  0  0  0  0  0  0  0  0  0  0  0
   -2.7433   -0.1724    1.4607 H   0  0  0  0  0  0  0  0  0  0  0  0
   -1.2396    0.4890    2.0874 H   0  0  0  0  0  0  0  0  0  0  0  0
    1.5720    2.0629    0.2692 H   0  0  0  0  0  0  0  0  0  0  0  0
  1  2  1  0
  2  3  1  0
  3  4  1  0
  4  5  1  0
  5  6  1  0
  6  7  1  0
  6  8  1  0
  8  9  1  0
  8  2  1  0
  8  3  1  0
  6  4  1  0
  1 10  1  0
  1 11  1  0
  1 12  1  0
  2 13  1  0
  3 14  1  0
  4 15  1  0
  5 16  1  0
  5 17  1  0
  7 18  1  0
  7 19  1  0
  7 20  1  0
  9 21  1  0
M  END
