
     RDKit          3D

 21 22  0  0  0  0  0  0  0  0999 V2000
   -2.4857   -0.2083   -0.7428 C   0  0  0  0  0  0  0  0  0  0  0  0
   -1.2676    0.3438   -0.0746 C   0  0  0  0  0  0  0  0  0  0  0  0
   -0.9554   -0.3171    1.2143 C   0  0  0  0  0  0  0  0  0  0  0  0
   -1.5936   -1.0550    1.9124 O   0  0  0  0  0  0  0  0  0  0  0  0
    0.4475    0.1506    1.5215 C   0  0  0  0  0  0  0  0  0  0  0  0
    1.0961    0.0727    0.1803 C   0  0  0  0  0  0  0  0  0  0  0  0
    2.2514   -0.8894   -0.0004 C   0  0  0  0  0  0  0  0  0  0  0  0
    1.0064    1.1796   -0.7966 C   0  0  0  0  0  0  0  0  0  0  0  0
    0.0006    0.1068   -0.8632 C   0  0  0  0  0  0  0  0  0  0  0  0
   -3.3610    0.0509   -0.1398 H   0  0  0  0  0  0  0  0  0  0  0  0
   -2.4292   -1.2954   -0.9527 H   0  0  0  0  0  0  0  0  0  0  0  0
   -2.5963    0.3010   -1.7185 H   0  0  0  0  0  0  0  0  0  0  0  0
   -1.4324    1.4065    0.1266 H   0  0  0  0  0  0  0  0  0  0  0  0
    0.9190   -0.4421    2.3067 H   0  0  0  0  0  0  0  0  0  0  0  0
    0.3263    1.2252    1.8200 H   0  0  0  0  0  0  0  0  0  0  0  0
    2.3656   -1.1554   -1.0636 H   0  0  0  0  0  0  0  0  0  0  0  0
    2.1326   -1.8037    0.6125 H   0  0  0  0  0  0  0  0  0  0  0  0
    3.1636   -0.3649    0.4014 H   0  0  0  0  0  0  0  0  0  0  0  0
    1.7479    1.1995   -1.6195 H   0  0  0  0  0  0  0  0  0  0  0  0
    0.6372    2.1944   -0.4997 H   0  0  0  0  0  0  0  0  0  0  0  0
    0.0270   -0.6998   -1.6243 H   0  0  0  0  0  0  0  0  0  0  0  0
  1  2  1  0
  2  3  1  0
  3  4  2  0
  3  5  1  0
  5  6  1  0
  6  7  1  0
  6  8  1  0
  8  9  1  0
  9  2  1  0
  9  6  1  0
  1 10  1  0
  1 11  1  0
  1 12  1  0
  2 13  1  0
  5 14  1  0
  5 15  1  0
  7 16  1  0
  7 17  1  0
  7 18  1  0
  8 19  1  0
  8 20  1  0
  9 21  1  0
M  END
