
     RDKit          3D

 20 21  0  0  0  0  0  0  0  0999 V2000
    2.6227   -0.0962   -0.3350 C   0  0  0  0  0  0  0  0  0  0  0  0
    1.1345   -0.1597   -0.5031 C   0  0  0  0  0  0  0  0  0  0  0  0
    0.2375   -0.6203    0.5800 C   0  0  0  0  0  0  0  0  0  0  0  0
   -1.0848   -1.2054    0.2312 C   0  0  0  0  0  0  0  0  0  0  0  0
   -2.2223   -0.2491    0.2247 C   0  0  0  0  0  0  0  0  0  0  0  0
   -1.9152    1.0230    0.6568 O   0  0  0  0  0  0  0  0  0  0  0  0
   -0.8553    1.4786   -0.1603 C   0  0  0  0  0  0  0  0  0  0  0  0
    0.3881    0.8230    0.4075 C   0  0  0  0  0  0  0  0  0  0  0  0
    3.0662   -0.9423    0.1856 H   0  0  0  0  0  0  0  0  0  0  0  0
    2.9462    0.8485    0.1907 H   0  0  0  0  0  0  0  0  0  0  0  0
    3.0760   -0.0030   -1.3579 H   0  0  0  0  0  0  0  0  0  0  0  0
    0.7306   -0.3041   -1.5358 H   0  0  0  0  0  0  0  0  0  0  0  0
    0.7673   -1.1718    1.4097 H   0  0  0  0  0  0  0  0  0  0  0  0
   -1.3558   -2.0868    0.8834 H   0  0  0  0  0  0  0  0  0  0  0  0
   -1.0231   -1.6560   -0.8028 H   0  0  0  0  0  0  0  0  0  0  0  0
   -3.0629   -0.6140    0.8736 H   0  0  0  0  0  0  0  0  0  0  0  0
   -2.6890   -0.1364   -0.7913 H   0  0  0  0  0  0  0  0  0  0  0  0
   -0.9717    1.1310   -1.2031 H   0  0  0  0  0  0  0  0  0  0  0  0
   -0.7328    2.5640   -0.1175 H   0  0  0  0  0  0  0  0  0  0  0  0
    0.9438    1.3769    1.1636 H   0  0  0  0  0  0  0  0  0  0  0  0
  1  2  1  0
  2  3  1  0
  3  4  1  0
  4  5  1  0
  5  6  1  0
  6  7  1  0
  7  8  1  0
  8  2  1  0
  8  3  1  0
  1  9  1  0
  1 10  1  0
  1 11  1  0
  2 12  1  0
  3 13  1  0
  4 14  1  0
  4 15  1  0
  5 16  1  0
  5 17  1  0
  7 18  1  0
  7 19  1  0
  8 20  1  0
M  END
