
     RDKit          3D

 21 22  0  0  0  0  0  0  0  0999 V2000
   -1.5991    0.9418    0.9114 C   0  0  0  0  0  0  0  0  0  0  0  0
   -0.9708   -0.3423    0.4667 C   0  0  0  0  0  0  0  0  0  0  0  0
   -1.3086   -0.7418   -0.9821 C   0  0  0  0  0  0  0  0  0  0  0  0
    0.0926   -1.3787   -0.9786 C   0  0  0  0  0  0  0  0  0  0  0  0
    0.4283   -0.2906   -0.0250 C   0  0  0  0  0  0  0  0  0  0  0  0
    1.5591   -0.3961    0.8739 C   0  0  0  0  0  0  0  0  0  0  0  0
    2.1372    0.8229    0.1867 C   0  0  0  0  0  0  0  0  0  0  0  0
    3.1711    1.4496    0.1957 O   0  0  0  0  0  0  0  0  0  0  0  0
    0.8645    1.0201   -0.5965 C   0  0  0  0  0  0  0  0  0  0  0  0
   -1.8257    1.5872    0.0585 H   0  0  0  0  0  0  0  0  0  0  0  0
   -0.9555    1.4695    1.6623 H   0  0  0  0  0  0  0  0  0  0  0  0
   -2.5555    0.7073    1.4276 H   0  0  0  0  0  0  0  0  0  0  0  0
   -1.1971   -1.2199    1.1025 H   0  0  0  0  0  0  0  0  0  0  0  0
   -2.1296   -1.4448   -1.0811 H   0  0  0  0  0  0  0  0  0  0  0  0
   -1.2771    0.1204   -1.6778 H   0  0  0  0  0  0  0  0  0  0  0  0
    0.5882   -1.3956   -1.9465 H   0  0  0  0  0  0  0  0  0  0  0  0
    0.0065   -2.3539   -0.4490 H   0  0  0  0  0  0  0  0  0  0  0  0
    2.2633   -1.2345    0.7153 H   0  0  0  0  0  0  0  0  0  0  0  0
    1.4277   -0.2083    1.9629 H   0  0  0  0  0  0  0  0  0  0  0  0
    0.2970    1.8502   -0.1486 H   0  0  0  0  0  0  0  0  0  0  0  0
    0.9837    1.0376   -1.6781 H   0  0  0  0  0  0  0  0  0  0  0  0
  1  2  1  0
  2  3  1  0
  3  4  1  0
  4  5  1  0
  5  6  1  0
  6  7  1  0
  7  8  2  0
  7  9  1  0
  5  2  1  0
  9  5  1  0
  1 10  1  0
  1 11  1  0
  1 12  1  0
  2 13  1  0
  3 14  1  0
  3 15  1  0
  4 16  1  0
  4 17  1  0
  6 18  1  0
  6 19  1  0
  9 20  1  0
  9 21  1  0
M  END
