
     RDKit          3D

 17 17  0  0  0  0  0  0  0  0999 V2000
   -2.6065   -0.1648   -0.1829 C   0  0  0  0  0  0  0  0  0  0  0  0
   -1.2480    0.0763   -0.7536 C   0  0  0  0  0  0  0  0  0  0  0  0
   -0.2364    0.6840    0.1984 C   0  0  0  0  0  0  0  0  0  0  0  0
    0.6555   -0.2000   -0.6840 C   0  0  0  0  0  0  0  0  0  0  0  0
    1.8467   -0.7321    0.0205 C   0  0  0  0  0  0  0  0  0  0  0  0
    1.7637   -1.9087    0.4501 O   0  0  0  0  0  0  0  0  0  0  0  0
    3.0073    0.1061    0.1719 C   0  0  0  0  0  0  0  0  0  0  0  0
    3.0285    1.2671   -0.2772 O   0  0  0  0  0  0  0  0  0  0  0  0
   -0.4170   -1.0681   -0.7871 O   0  0  0  0  0  0  0  0  0  0  0  0
   -2.7084    0.0428    0.8832 H   0  0  0  0  0  0  0  0  0  0  0  0
   -2.9272   -1.2386   -0.3228 H   0  0  0  0  0  0  0  0  0  0  0  0
   -3.3453    0.4514   -0.7460 H   0  0  0  0  0  0  0  0  0  0  0  0
   -1.2074    0.6192   -1.7159 H   0  0  0  0  0  0  0  0  0  0  0  0
   -0.0543    1.7595    0.0829 H   0  0  0  0  0  0  0  0  0  0  0  0
   -0.2783    0.2949    1.2378 H   0  0  0  0  0  0  0  0  0  0  0  0
    0.8495    0.2699   -1.6645 H   0  0  0  0  0  0  0  0  0  0  0  0
    3.8776   -0.2588    0.6774 H   0  0  0  0  0  0  0  0  0  0  0  0
  1  2  1  0
  2  3  1  0
  3  4  1  0
  4  5  1  0
  5  6  2  0
  5  7  1  0
  7  8  2  0
  4  9  1  0
  9  2  1  0
  1 10  1  0
  1 11  1  0
  1 12  1  0
  2 13  1  0
  3 14  1  0
  3 15  1  0
  4 16  1  0
  7 17  1  0
M  END
