
     RDKit          3D

 19 20  0  0  0  0  0  0  0  0999 V2000
    2.5230    0.4857   -0.2382 C   0  0  0  0  0  0  0  0  0  0  0  0
    1.2053   -0.2183   -0.2247 C   0  0  0  0  0  0  0  0  0  0  0  0
    0.7956   -0.7211    1.0922 C   0  0  0  0  0  0  0  0  0  0  0  0
   -0.4865   -0.9914    1.3029 C   0  0  0  0  0  0  0  0  0  0  0  0
   -1.4674   -0.7777    0.2020 C   0  0  0  0  0  0  0  0  0  0  0  0
   -2.5044    0.0926    0.4901 O   0  0  0  0  0  0  0  0  0  0  0  0
   -2.1073    1.0893   -0.3966 C   0  0  0  0  0  0  0  0  0  0  0  0
   -0.9916    0.1696   -0.8482 C   0  0  0  0  0  0  0  0  0  0  0  0
    0.2332    0.7348   -0.6091 O   0  0  0  0  0  0  0  0  0  0  0  0
    2.5733    1.1700    0.6175 H   0  0  0  0  0  0  0  0  0  0  0  0
    3.3915   -0.2022   -0.2578 H   0  0  0  0  0  0  0  0  0  0  0  0
    2.5564    1.0903   -1.1912 H   0  0  0  0  0  0  0  0  0  0  0  0
    1.1311   -1.0296   -0.9759 H   0  0  0  0  0  0  0  0  0  0  0  0
    1.4922   -0.8765    1.8848 H   0  0  0  0  0  0  0  0  0  0  0  0
   -0.8364   -1.3667    2.2660 H   0  0  0  0  0  0  0  0  0  0  0  0
   -1.8731   -1.7165   -0.2262 H   0  0  0  0  0  0  0  0  0  0  0  0
   -2.7934    1.3227   -1.2132 H   0  0  0  0  0  0  0  0  0  0  0  0
   -1.7453    1.9745    0.2032 H   0  0  0  0  0  0  0  0  0  0  0  0
   -1.0963   -0.2296   -1.8776 H   0  0  0  0  0  0  0  0  0  0  0  0
  1  2  1  0
  2  3  1  0
  3  4  2  0
  4  5  1  0
  5  6  1  0
  6  7  1  0
  7  8  1  0
  8  9  1  0
  9  2  1  0
  8  5  1  0
  1 10  1  0
  1 11  1  0
  1 12  1  0
  2 13  1  0
  3 14  1  0
  4 15  1  0
  5 16  1  0
  7 17  1  0
  7 18  1  0
  8 19  1  0
M  END
