
     RDKit          3D

 19 19  0  0  0  0  0  0  0  0999 V2000
    2.4579    0.3739   -0.0029 C   0  0  0  0  0  0  0  0  0  0  0  0
    0.9967    0.1782    0.1970 C   0  0  0  0  0  0  0  0  0  0  0  0
    0.4983   -1.1453   -0.3191 C   0  0  0  0  0  0  0  0  0  0  0  0
   -1.0138   -1.1697   -0.2731 C   0  0  0  0  0  0  0  0  0  0  0  0
   -1.5305   -0.6343    0.8873 O   0  0  0  0  0  0  0  0  0  0  0  0
   -2.0641    0.6611    0.6803 C   0  0  0  0  0  0  0  0  0  0  0  0
   -1.1624    1.3141   -0.3055 C   0  0  0  0  0  0  0  0  0  0  0  0
   -1.7384    2.0428   -1.1422 O   0  0  0  0  0  0  0  0  0  0  0  0
    0.2093    1.1963   -0.3830 O   0  0  0  0  0  0  0  0  0  0  0  0
    2.9946   -0.3337    0.6743 H   0  0  0  0  0  0  0  0  0  0  0  0
    2.8170    0.1881   -1.0177 H   0  0  0  0  0  0  0  0  0  0  0  0
    2.7243    1.3916    0.3409 H   0  0  0  0  0  0  0  0  0  0  0  0
    0.8005    0.2349    1.3036 H   0  0  0  0  0  0  0  0  0  0  0  0
    0.9273   -1.9540    0.2685 H   0  0  0  0  0  0  0  0  0  0  0  0
    0.8294   -1.2407   -1.3724 H   0  0  0  0  0  0  0  0  0  0  0  0
   -1.4165   -0.6822   -1.1970 H   0  0  0  0  0  0  0  0  0  0  0  0
   -1.3330   -2.2489   -0.3697 H   0  0  0  0  0  0  0  0  0  0  0  0
   -1.8893    1.1951    1.6538 H   0  0  0  0  0  0  0  0  0  0  0  0
   -3.1072    0.6327    0.3769 H   0  0  0  0  0  0  0  0  0  0  0  0
  1  2  1  0
  2  3  1  0
  3  4  1  0
  4  5  1  0
  5  6  1  0
  6  7  1  0
  7  8  2  0
  7  9  1  0
  9  2  1  0
  1 10  1  0
  1 11  1  0
  1 12  1  0
  2 13  1  0
  3 14  1  0
  3 15  1  0
  4 16  1  0
  4 17  1  0
  6 18  1  0
  6 19  1  0
M  END
