
     RDKit          3D

 19 20  0  0  0  0  0  0  0  0999 V2000
    1.1181    1.4783    0.5590 C   0  0  0  0  0  0  0  0  0  0  0  0
    1.1000    0.0500    0.1409 C   0  0  0  0  0  0  0  0  0  0  0  0
   -0.0158   -0.8024    0.6909 C   0  0  0  0  0  0  0  0  0  0  0  0
   -1.3405   -0.0985    0.7213 C   0  0  0  0  0  0  0  0  0  0  0  0
   -1.6052    0.5783   -0.5710 C   0  0  0  0  0  0  0  0  0  0  0  0
   -2.7283    1.0948   -0.8073 O   0  0  0  0  0  0  0  0  0  0  0  0
   -0.5657    0.6117   -1.4917 O   0  0  0  0  0  0  0  0  0  0  0  0
    0.5383   -0.2408   -1.2319 C   0  0  0  0  0  0  0  0  0  0  0  0
    0.0609   -1.5730   -0.6349 C   0  0  0  0  0  0  0  0  0  0  0  0
    2.1643    1.8641    0.3830 H   0  0  0  0  0  0  0  0  0  0  0  0
    0.4316    2.1252   -0.0010 H   0  0  0  0  0  0  0  0  0  0  0  0
    0.9251    1.5896    1.6535 H   0  0  0  0  0  0  0  0  0  0  0  0
    2.0652   -0.4863    0.2693 H   0  0  0  0  0  0  0  0  0  0  0  0
    0.2044   -1.3967    1.5717 H   0  0  0  0  0  0  0  0  0  0  0  0
   -2.1336   -0.8741    0.8367 H   0  0  0  0  0  0  0  0  0  0  0  0
   -1.4590    0.5990    1.5543 H   0  0  0  0  0  0  0  0  0  0  0  0
    1.2496   -0.3302   -2.0479 H   0  0  0  0  0  0  0  0  0  0  0  0
   -0.9080   -1.9159   -0.9856 H   0  0  0  0  0  0  0  0  0  0  0  0
    0.8985   -2.2732   -0.6095 H   0  0  0  0  0  0  0  0  0  0  0  0
  1  2  1  0
  2  3  1  0
  3  4  1  0
  4  5  1  0
  5  6  2  0
  5  7  1  0
  7  8  1  0
  8  9  1  0
  8  2  1  0
  9  3  1  0
  1 10  1  0
  1 11  1  0
  1 12  1  0
  2 13  1  0
  3 14  1  0
  4 15  1  0
  4 16  1  0
  8 17  1  0
  9 18  1  0
  9 19  1  0
M  END
