
     RDKit          3D

 21 21  0  0  0  0  0  0  0  0999 V2000
    2.4931   -0.4311   -0.1411 C   0  0  0  0  0  0  0  0  0  0  0  0
    1.2695    0.0499    0.6493 C   0  0  0  0  0  0  0  0  0  0  0  0
    0.8193    1.3915    0.0373 C   0  0  0  0  0  0  0  0  0  0  0  0
   -0.3711    1.7437   -0.4127 C   0  0  0  0  0  0  0  0  0  0  0  0
   -1.5812    0.9087   -0.4341 C   0  0  0  0  0  0  0  0  0  0  0  0
   -2.5940    1.6891   -0.6150 O   0  0  0  0  0  0  0  0  0  0  0  0
   -2.0373   -0.4434   -0.3282 C   0  0  0  0  0  0  0  0  0  0  0  0
   -1.0859   -1.4600    0.3768 C   0  0  0  0  0  0  0  0  0  0  0  0
    0.1130   -0.7615    0.5493 C   0  0  0  0  0  0  0  0  0  0  0  0
    3.2595   -0.8644    0.4971 H   0  0  0  0  0  0  0  0  0  0  0  0
    2.9597    0.4264   -0.6841 H   0  0  0  0  0  0  0  0  0  0  0  0
    2.1439   -1.1922   -0.8653 H   0  0  0  0  0  0  0  0  0  0  0  0
    1.6738    0.2243    1.6729 H   0  0  0  0  0  0  0  0  0  0  0  0
    1.5745    2.1273   -0.0296 H   0  0  0  0  0  0  0  0  0  0  0  0
   -0.4393    2.7669   -0.8049 H   0  0  0  0  0  0  0  0  0  0  0  0
   -2.3046   -0.8685   -1.3398 H   0  0  0  0  0  0  0  0  0  0  0  0
   -2.9852   -0.4836    0.2487 H   0  0  0  0  0  0  0  0  0  0  0  0
   -1.0367   -2.3936   -0.2619 H   0  0  0  0  0  0  0  0  0  0  0  0
   -1.5687   -1.8600    1.3059 H   0  0  0  0  0  0  0  0  0  0  0  0
   -0.4613    0.0266    1.1707 H   0  0  0  0  0  0  0  0  0  0  0  0
    0.1589   -0.5958   -0.5915 H   0  0  0  0  0  0  0  0  0  0  0  0
  1  2  1  0
  2  3  1  0
  3  4  2  0
  4  5  1  0
  5  6  2  0
  5  7  1  0
  7  8  1  0
  8  9  1  0
  9  2  1  0
  1 10  1  0
  1 11  1  0
  1 12  1  0
  2 13  1  0
  3 14  1  0
  4 15  1  0
  7 16  1  0
  7 17  1  0
  8 18  1  0
  8 19  1  0
  9 20  1  0
  9 21  1  0
M  END
