
     RDKit          3D

 21 23  0  0  0  0  0  0  0  0999 V2000
    2.2664   -0.7916   -0.2517 C   0  0  0  0  0  0  0  0  0  0  0  0
    1.1237    0.0452    0.1861 C   0  0  0  0  0  0  0  0  0  0  0  0
    0.7106    1.0844   -0.8650 C   0  0  0  0  0  0  0  0  0  0  0  0
   -0.7728    1.1471   -0.5927 C   0  0  0  0  0  0  0  0  0  0  0  0
   -0.8911    1.4084    0.7967 O   0  0  0  0  0  0  0  0  0  0  0  0
   -1.0568    0.1531    1.3383 C   0  0  0  0  0  0  0  0  0  0  0  0
   -2.1859   -0.3971    0.4555 C   0  0  0  0  0  0  0  0  0  0  0  0
   -1.1166   -0.3136   -0.5935 C   0  0  0  0  0  0  0  0  0  0  0  0
   -0.1252   -0.7095    0.5154 C   0  0  0  0  0  0  0  0  0  0  0  0
    2.0478   -1.8873   -0.1533 H   0  0  0  0  0  0  0  0  0  0  0  0
    3.1366   -0.6249    0.4490 H   0  0  0  0  0  0  0  0  0  0  0  0
    2.6133   -0.6169   -1.2839 H   0  0  0  0  0  0  0  0  0  0  0  0
    1.3776    0.6613    1.0979 H   0  0  0  0  0  0  0  0  0  0  0  0
    1.2311    2.0306   -0.7388 H   0  0  0  0  0  0  0  0  0  0  0  0
    0.8255    0.6306   -1.8790 H   0  0  0  0  0  0  0  0  0  0  0  0
   -1.3481    1.7868   -1.2165 H   0  0  0  0  0  0  0  0  0  0  0  0
   -1.1276    0.0027    2.3806 H   0  0  0  0  0  0  0  0  0  0  0  0
   -2.9470    0.4117    0.3453 H   0  0  0  0  0  0  0  0  0  0  0  0
   -2.5488   -1.3832    0.7343 H   0  0  0  0  0  0  0  0  0  0  0  0
   -1.1450   -0.8841   -1.4691 H   0  0  0  0  0  0  0  0  0  0  0  0
   -0.0678   -1.7537    0.7443 H   0  0  0  0  0  0  0  0  0  0  0  0
  1  2  1  0
  2  3  1  0
  3  4  1  0
  4  5  1  0
  5  6  1  0
  6  7  1  0
  7  8  1  0
  8  9  1  0
  9  2  1  0
  8  4  1  0
  9  6  1  0
  1 10  1  0
  1 11  1  0
  1 12  1  0
  2 13  1  0
  3 14  1  0
  3 15  1  0
  4 16  1  0
  6 17  1  0
  7 18  1  0
  7 19  1  0
  8 20  1  0
  9 21  1  0
M  END
