
     RDKit          3D

 23 24  0  0  0  0  0  0  0  0999 V2000
   -2.6354    0.2025   -0.2810 C   0  0  0  0  0  0  0  0  0  0  0  0
   -1.4304   -0.3786    0.4048 C   0  0  0  0  0  0  0  0  0  0  0  0
   -0.5373    0.7688    0.9001 C   0  0  0  0  0  0  0  0  0  0  0  0
    0.0914    0.7506   -0.4769 C   0  0  0  0  0  0  0  0  0  0  0  0
    1.5511    1.0081   -0.5340 C   0  0  0  0  0  0  0  0  0  0  0  0
    2.3950   -0.0188    0.1686 C   0  0  0  0  0  0  0  0  0  0  0  0
    2.0201   -1.3075   -0.0873 O   0  0  0  0  0  0  0  0  0  0  0  0
    0.7075   -1.5997    0.1624 C   0  0  0  0  0  0  0  0  0  0  0  0
   -0.2761   -0.7171   -0.5525 C   0  0  0  0  0  0  0  0  0  0  0  0
   -2.9552   -0.3863   -1.1603 H   0  0  0  0  0  0  0  0  0  0  0  0
   -3.4672    0.1887    0.4525 H   0  0  0  0  0  0  0  0  0  0  0  0
   -2.4699    1.2653   -0.5717 H   0  0  0  0  0  0  0  0  0  0  0  0
   -1.6089   -1.1684    1.1403 H   0  0  0  0  0  0  0  0  0  0  0  0
   -1.0945    1.6663    1.1691 H   0  0  0  0  0  0  0  0  0  0  0  0
    0.1851    0.3741    1.6361 H   0  0  0  0  0  0  0  0  0  0  0  0
   -0.4467    1.3392   -1.2463 H   0  0  0  0  0  0  0  0  0  0  0  0
    1.8697    1.0548   -1.5784 H   0  0  0  0  0  0  0  0  0  0  0  0
    1.7722    2.0021   -0.0678 H   0  0  0  0  0  0  0  0  0  0  0  0
    3.4426    0.1067   -0.2245 H   0  0  0  0  0  0  0  0  0  0  0  0
    2.4540    0.2489    1.2391 H   0  0  0  0  0  0  0  0  0  0  0  0
    0.5265   -2.6459   -0.2217 H   0  0  0  0  0  0  0  0  0  0  0  0
    0.4956   -1.6781    1.2643 H   0  0  0  0  0  0  0  0  0  0  0  0
   -0.5893   -1.0756   -1.5352 H   0  0  0  0  0  0  0  0  0  0  0  0
  1  2  1  0
  2  3  1  0
  3  4  1  0
  4  5  1  0
  5  6  1  0
  6  7  1  0
  7  8  1  0
  8  9  1  0
  9  2  1  0
  9  4  1  0
  1 10  1  0
  1 11  1  0
  1 12  1  0
  2 13  1  0
  3 14  1  0
  3 15  1  0
  4 16  1  0
  5 17  1  0
  5 18  1  0
  6 19  1  0
  6 20  1  0
  8 21  1  0
  8 22  1  0
  9 23  1  0
M  END
