
     RDKit          3D

 16 17  0  0  0  0  0  0  0  0999 V2000
    1.7682   -0.2194   -0.3960 C   0  0  0  0  0  0  0  0  0  0  0  0
    0.6669   -0.3521    0.6271 C   0  0  0  0  0  0  0  0  0  0  0  0
   -0.5462   -1.0177    0.0179 C   0  0  0  0  0  0  0  0  0  0  0  0
   -1.6898   -0.1415    0.4085 C   0  0  0  0  0  0  0  0  0  0  0  0
   -1.8505    0.9611   -0.3837 O   0  0  0  0  0  0  0  0  0  0  0  0
   -1.2089    1.1794    0.8166 C   0  0  0  0  0  0  0  0  0  0  0  0
    0.2271    1.0163    0.9915 C   0  0  0  0  0  0  0  0  0  0  0  0
    1.0040    1.8652    1.3832 O   0  0  0  0  0  0  0  0  0  0  0  0
    2.5604    0.3994    0.0428 H   0  0  0  0  0  0  0  0  0  0  0  0
    1.3379    0.3651   -1.2488 H   0  0  0  0  0  0  0  0  0  0  0  0
    2.1388   -1.2113   -0.7512 H   0  0  0  0  0  0  0  0  0  0  0  0
    0.9702   -0.9428    1.5049 H   0  0  0  0  0  0  0  0  0  0  0  0
   -0.4080   -1.0147   -1.0953 H   0  0  0  0  0  0  0  0  0  0  0  0
   -0.6455   -2.0697    0.3084 H   0  0  0  0  0  0  0  0  0  0  0  0
   -2.5291   -0.5614    0.9983 H   0  0  0  0  0  0  0  0  0  0  0  0
   -1.7956    1.7439    1.5734 H   0  0  0  0  0  0  0  0  0  0  0  0
  1  2  1  0
  2  3  1  0
  3  4  1  0
  4  5  1  0
  5  6  1  0
  6  7  1  0
  7  8  2  0
  7  2  1  0
  6  4  1  0
  1  9  1  0
  1 10  1  0
  1 11  1  0
  2 12  1  0
  3 13  1  0
  3 14  1  0
  4 15  1  0
  6 16  1  0
M  END
