
     RDKit          3D

 21 23  0  0  0  0  0  0  0  0999 V2000
    1.7808    0.8083    0.5937 C   0  0  0  0  0  0  0  0  0  0  0  0
    0.7806    0.5283   -0.4659 C   0  0  0  0  0  0  0  0  0  0  0  0
    0.8255   -0.9197   -0.9397 C   0  0  0  0  0  0  0  0  0  0  0  0
    0.0297   -1.9609   -0.2616 C   0  0  0  0  0  0  0  0  0  0  0  0
   -0.4547   -1.8334    1.0147 O   0  0  0  0  0  0  0  0  0  0  0  0
   -0.6190   -0.4814    1.2987 C   0  0  0  0  0  0  0  0  0  0  0  0
   -0.6327    0.2549   -0.0195 C   0  0  0  0  0  0  0  0  0  0  0  0
   -1.6328    1.3224   -0.2002 C   0  0  0  0  0  0  0  0  0  0  0  0
   -0.6267   -0.8834   -1.0015 C   0  0  0  0  0  0  0  0  0  0  0  0
    1.3930    1.4614    1.4093 H   0  0  0  0  0  0  0  0  0  0  0  0
    2.6345    1.3983    0.1469 H   0  0  0  0  0  0  0  0  0  0  0  0
    2.2443   -0.1191    1.0031 H   0  0  0  0  0  0  0  0  0  0  0  0
    0.8590    1.2567   -1.3212 H   0  0  0  0  0  0  0  0  0  0  0  0
    1.4987   -1.2092   -1.7410 H   0  0  0  0  0  0  0  0  0  0  0  0
    0.0945   -2.9644   -0.6531 H   0  0  0  0  0  0  0  0  0  0  0  0
   -1.5330   -0.2771    1.8855 H   0  0  0  0  0  0  0  0  0  0  0  0
    0.2974   -0.1911    1.8892 H   0  0  0  0  0  0  0  0  0  0  0  0
   -1.7016    1.9267    0.7196 H   0  0  0  0  0  0  0  0  0  0  0  0
   -2.6318    0.8700   -0.4659 H   0  0  0  0  0  0  0  0  0  0  0  0
   -1.3426    1.9676   -1.0422 H   0  0  0  0  0  0  0  0  0  0  0  0
   -1.2631   -0.9547   -1.8491 H   0  0  0  0  0  0  0  0  0  0  0  0
  1  2  1  0
  2  3  1  0
  3  4  1  0
  4  5  1  0
  5  6  1  0
  6  7  1  0
  7  8  1  0
  7  9  1  0
  7  2  1  0
  9  3  1  0
  9  4  1  0
  1 10  1  0
  1 11  1  0
  1 12  1  0
  2 13  1  0
  3 14  1  0
  4 15  1  0
  6 16  1  0
  6 17  1  0
  8 18  1  0
  8 19  1  0
  8 20  1  0
  9 21  1  0
M  END
