
     RDKit          3D

 19 20  0  0  0  0  0  0  0  0999 V2000
    1.4975    1.1272   -0.3468 C   0  0  0  0  0  0  0  0  0  0  0  0
    0.8815    0.0072    0.4075 C   0  0  0  0  0  0  0  0  0  0  0  0
    0.8477   -1.2727   -0.4425 C   0  0  0  0  0  0  0  0  0  0  0  0
   -0.3520   -0.6345   -1.1069 C   0  0  0  0  0  0  0  0  0  0  0  0
   -0.6219   -0.1258    0.3182 C   0  0  0  0  0  0  0  0  0  0  0  0
   -1.4909    0.9758    0.5312 C   0  0  0  0  0  0  0  0  0  0  0  0
   -0.8051   -1.4295    1.0048 C   0  0  0  0  0  0  0  0  0  0  0  0
   -1.6695   -1.7577    1.8481 O   0  0  0  0  0  0  0  0  0  0  0  0
    0.2440   -2.1784    0.4534 O   0  0  0  0  0  0  0  0  0  0  0  0
    1.9586    1.8478    0.3868 H   0  0  0  0  0  0  0  0  0  0  0  0
    0.8165    1.7204   -0.9636 H   0  0  0  0  0  0  0  0  0  0  0  0
    2.3382    0.6931   -0.9641 H   0  0  0  0  0  0  0  0  0  0  0  0
    1.3271   -0.1879    1.3829 H   0  0  0  0  0  0  0  0  0  0  0  0
    1.6979   -1.5291   -1.0006 H   0  0  0  0  0  0  0  0  0  0  0  0
   -1.1198   -1.3276   -1.4770 H   0  0  0  0  0  0  0  0  0  0  0  0
   -0.1427    0.1458   -1.8384 H   0  0  0  0  0  0  0  0  0  0  0  0
   -2.1478    0.8228    1.4341 H   0  0  0  0  0  0  0  0  0  0  0  0
   -2.2220    1.1152   -0.3142 H   0  0  0  0  0  0  0  0  0  0  0  0
   -1.0375    1.9878    0.6872 H   0  0  0  0  0  0  0  0  0  0  0  0
  1  2  1  0
  2  3  1  0
  3  4  1  0
  4  5  1  0
  5  6  1  0
  5  7  1  0
  7  8  2  0
  7  9  1  0
  5  2  1  0
  9  3  1  0
  1 10  1  0
  1 11  1  0
  1 12  1  0
  2 13  1  0
  3 14  1  0
  4 15  1  0
  4 16  1  0
  6 17  1  0
  6 18  1  0
  6 19  1  0
M  END
