
     RDKit          3D

 21 22  0  0  0  0  0  0  0  0999 V2000
    2.5000    0.3325    0.3430 C   0  0  0  0  0  0  0  0  0  0  0  0
    1.0811   -0.1351    0.4460 C   0  0  0  0  0  0  0  0  0  0  0  0
   -0.0574    0.7875    0.3403 C   0  0  0  0  0  0  0  0  0  0  0  0
   -1.4126    0.3381    0.7595 C   0  0  0  0  0  0  0  0  0  0  0  0
   -1.4863   -0.1401    2.0528 O   0  0  0  0  0  0  0  0  0  0  0  0
   -1.8770   -0.7160   -0.2200 C   0  0  0  0  0  0  0  0  0  0  0  0
   -0.7060   -1.0582   -1.0944 C   0  0  0  0  0  0  0  0  0  0  0  0
    0.3012    0.0195   -0.8636 C   0  0  0  0  0  0  0  0  0  0  0  0
    0.8992    0.6829   -1.9162 O   0  0  0  0  0  0  0  0  0  0  0  0
    3.0789    0.1919    1.2675 H   0  0  0  0  0  0  0  0  0  0  0  0
    2.5910    1.3622   -0.0630 H   0  0  0  0  0  0  0  0  0  0  0  0
    2.9994   -0.3233   -0.4265 H   0  0  0  0  0  0  0  0  0  0  0  0
    0.9603   -1.0808    1.0155 H   0  0  0  0  0  0  0  0  0  0  0  0
    0.1508    1.8684    0.4497 H   0  0  0  0  0  0  0  0  0  0  0  0
   -2.1542    1.1869    0.6976 H   0  0  0  0  0  0  0  0  0  0  0  0
   -0.9805    0.4618    2.6369 H   0  0  0  0  0  0  0  0  0  0  0  0
   -2.2419   -1.6064    0.3580 H   0  0  0  0  0  0  0  0  0  0  0  0
   -2.7637   -0.3774   -0.8072 H   0  0  0  0  0  0  0  0  0  0  0  0
   -0.9589   -1.2429   -2.1356 H   0  0  0  0  0  0  0  0  0  0  0  0
   -0.2614   -2.0118   -0.6888 H   0  0  0  0  0  0  0  0  0  0  0  0
    0.3380    1.4603   -2.1516 H   0  0  0  0  0  0  0  0  0  0  0  0
  1  2  1  0
  2  3  1  0
  3  4  1  0
  4  5  1  0
  4  6  1  0
  6  7  1  0
  7  8  1  0
  8  9  1  0
  8  2  1  0
  8  3  1  0
  1 10  1  0
  1 11  1  0
  1 12  1  0
  2 13  1  0
  3 14  1  0
  4 15  1  0
  5 16  1  0
  6 17  1  0
  6 18  1  0
  7 19  1  0
  7 20  1  0
  9 21  1  0
M  END
