
     RDKit          3D

 19 21  0  0  0  0  0  0  0  0999 V2000
    2.3671    0.1266    0.0541 C   0  0  0  0  0  0  0  0  0  0  0  0
    0.9122    0.2626   -0.2985 C   0  0  0  0  0  0  0  0  0  0  0  0
    0.0637    0.4662    0.9551 C   0  0  0  0  0  0  0  0  0  0  0  0
   -1.2761    0.9715    0.4938 C   0  0  0  0  0  0  0  0  0  0  0  0
   -2.0592   -0.0268   -0.2958 C   0  0  0  0  0  0  0  0  0  0  0  0
   -2.2197   -1.3221    0.1284 O   0  0  0  0  0  0  0  0  0  0  0  0
   -1.1521   -1.0739   -0.8153 C   0  0  0  0  0  0  0  0  0  0  0  0
    0.2182   -1.0619   -0.2276 C   0  0  0  0  0  0  0  0  0  0  0  0
    0.1177   -0.8862    1.1579 O   0  0  0  0  0  0  0  0  0  0  0  0
    2.7047   -0.8969   -0.2488 H   0  0  0  0  0  0  0  0  0  0  0  0
    2.9581    0.9279   -0.4368 H   0  0  0  0  0  0  0  0  0  0  0  0
    2.5271    0.1682    1.1570 H   0  0  0  0  0  0  0  0  0  0  0  0
    0.6585    0.9252   -1.1287 H   0  0  0  0  0  0  0  0  0  0  0  0
    0.4996    1.1161    1.7151 H   0  0  0  0  0  0  0  0  0  0  0  0
   -1.0537    1.8319   -0.2052 H   0  0  0  0  0  0  0  0  0  0  0  0
   -1.8665    1.4448    1.3213 H   0  0  0  0  0  0  0  0  0  0  0  0
   -2.8667    0.3930   -0.9305 H   0  0  0  0  0  0  0  0  0  0  0  0
   -1.3367   -1.4310   -1.8424 H   0  0  0  0  0  0  0  0  0  0  0  0
    0.8037   -1.9354   -0.5531 H   0  0  0  0  0  0  0  0  0  0  0  0
  1  2  1  0
  2  3  1  0
  3  4  1  0
  4  5  1  0
  5  6  1  0
  6  7  1  0
  7  8  1  0
  8  9  1  0
  8  2  1  0
  9  3  1  0
  7  5  1  0
  1 10  1  0
  1 11  1  0
  1 12  1  0
  2 13  1  0
  3 14  1  0
  4 15  1  0
  4 16  1  0
  5 17  1  0
  7 18  1  0
  8 19  1  0
M  END
