
     RDKit          3D

 23 24  0  0  0  0  0  0  0  0999 V2000
    1.5108   -0.3007    1.4549 C   0  0  0  0  0  0  0  0  0  0  0  0
    0.9485    0.6554    0.4274 C   0  0  0  0  0  0  0  0  0  0  0  0
    1.8772    0.6984   -0.7990 C   0  0  0  0  0  0  0  0  0  0  0  0
    0.9949   -0.4186   -1.3799 C   0  0  0  0  0  0  0  0  0  0  0  0
   -0.0436    0.0361   -0.4539 C   0  0  0  0  0  0  0  0  0  0  0  0
   -1.1562    0.8704   -1.0472 C   0  0  0  0  0  0  0  0  0  0  0  0
   -1.3616   -0.4090   -0.2277 C   0  0  0  0  0  0  0  0  0  0  0  0
   -2.0285   -0.1361    1.1209 C   0  0  0  0  0  0  0  0  0  0  0  0
   -1.8285   -1.5383   -0.9072 O   0  0  0  0  0  0  0  0  0  0  0  0
    1.8664    0.2381    2.3429 H   0  0  0  0  0  0  0  0  0  0  0  0
    2.3182   -0.9465    1.0036 H   0  0  0  0  0  0  0  0  0  0  0  0
    0.7283   -1.0408    1.7770 H   0  0  0  0  0  0  0  0  0  0  0  0
    0.6464    1.6403    0.7996 H   0  0  0  0  0  0  0  0  0  0  0  0
    2.8915    0.3921   -0.5429 H   0  0  0  0  0  0  0  0  0  0  0  0
    1.7400    1.6276   -1.3671 H   0  0  0  0  0  0  0  0  0  0  0  0
    0.8547   -0.2445   -2.4717 H   0  0  0  0  0  0  0  0  0  0  0  0
    1.4534   -1.4059   -1.2235 H   0  0  0  0  0  0  0  0  0  0  0  0
   -1.2726    1.8424   -0.5354 H   0  0  0  0  0  0  0  0  0  0  0  0
   -1.3163    0.8179   -2.1386 H   0  0  0  0  0  0  0  0  0  0  0  0
   -1.6613   -0.8134    1.9081 H   0  0  0  0  0  0  0  0  0  0  0  0
   -1.8267    0.9026    1.4412 H   0  0  0  0  0  0  0  0  0  0  0  0
   -3.1314   -0.3149    1.0355 H   0  0  0  0  0  0  0  0  0  0  0  0
   -2.2037   -2.1527   -0.2169 H   0  0  0  0  0  0  0  0  0  0  0  0
  1  2  1  0
  2  3  1  0
  3  4  1  0
  4  5  1  0
  5  6  1  0
  6  7  1  0
  7  8  1  0
  7  9  1  0
  5  2  1  0
  7  5  1  0
  1 10  1  0
  1 11  1  0
  1 12  1  0
  2 13  1  0
  3 14  1  0
  3 15  1  0
  4 16  1  0
  4 17  1  0
  6 18  1  0
  6 19  1  0
  8 20  1  0
  8 21  1  0
  8 22  1  0
  9 23  1  0
M  END
