
     RDKit          3D

 21 21  0  0  0  0  0  0  0  0999 V2000
   -2.3374   -0.7521    0.4366 C   0  0  0  0  0  0  0  0  0  0  0  0
   -1.2508   -0.3162   -0.5084 C   0  0  0  0  0  0  0  0  0  0  0  0
   -0.0262   -1.1205   -0.2385 C   0  0  0  0  0  0  0  0  0  0  0  0
    1.0712   -0.1294   -0.0281 C   0  0  0  0  0  0  0  0  0  0  0  0
    2.4832   -0.5461    0.2144 C   0  0  0  0  0  0  0  0  0  0  0  0
    3.3150    0.5534    0.3797 O   0  0  0  0  0  0  0  0  0  0  0  0
    0.6324    1.1004   -0.0852 C   0  0  0  0  0  0  0  0  0  0  0  0
   -0.8288    1.0981   -0.3433 C   0  0  0  0  0  0  0  0  0  0  0  0
   -1.5225    1.7826    0.6519 O   0  0  0  0  0  0  0  0  0  0  0  0
   -3.2682   -0.1738    0.3336 H   0  0  0  0  0  0  0  0  0  0  0  0
   -2.5783   -1.8115    0.1876 H   0  0  0  0  0  0  0  0  0  0  0  0
   -2.0115   -0.7423    1.4937 H   0  0  0  0  0  0  0  0  0  0  0  0
   -1.6111   -0.5109   -1.5432 H   0  0  0  0  0  0  0  0  0  0  0  0
    0.2227   -1.7773   -1.1113 H   0  0  0  0  0  0  0  0  0  0  0  0
   -0.0901   -1.7209    0.6988 H   0  0  0  0  0  0  0  0  0  0  0  0
    2.5262   -1.2335    1.1000 H   0  0  0  0  0  0  0  0  0  0  0  0
    2.8847   -1.1213   -0.6519 H   0  0  0  0  0  0  0  0  0  0  0  0
    3.2502    1.0938   -0.4390 H   0  0  0  0  0  0  0  0  0  0  0  0
    1.2229    1.9938    0.0340 H   0  0  0  0  0  0  0  0  0  0  0  0
   -1.0050    1.6562   -1.3059 H   0  0  0  0  0  0  0  0  0  0  0  0
   -1.0786    2.6778    0.7243 H   0  0  0  0  0  0  0  0  0  0  0  0
  1  2  1  0
  2  3  1  0
  3  4  1  0
  4  5  1  0
  5  6  1  0
  4  7  2  0
  7  8  1  0
  8  9  1  0
  8  2  1  0
  1 10  1  0
  1 11  1  0
  1 12  1  0
  2 13  1  0
  3 14  1  0
  3 15  1  0
  5 16  1  0
  5 17  1  0
  6 18  1  0
  7 19  1  0
  8 20  1  0
  9 21  1  0
M  END
