
     RDKit          3D

 18 18  0  0  0  0  0  0  0  0999 V2000
    2.5419    0.0215    0.8441 C   0  0  0  0  0  0  0  0  0  0  0  0
    1.4004    0.4028   -0.0629 C   0  0  0  0  0  0  0  0  0  0  0  0
    0.9521   -0.4987   -1.1447 C   0  0  0  0  0  0  0  0  0  0  0  0
    0.1207   -0.4215    0.1355 C   0  0  0  0  0  0  0  0  0  0  0  0
   -1.1567    0.3376    0.0828 C   0  0  0  0  0  0  0  0  0  0  0  0
   -1.2089    1.3403   -0.5999 O   0  0  0  0  0  0  0  0  0  0  0  0
   -2.3758   -0.0598    0.8182 C   0  0  0  0  0  0  0  0  0  0  0  0
   -3.3768    0.8600    0.5493 O   0  0  0  0  0  0  0  0  0  0  0  0
    2.5594    0.7726    1.6694 H   0  0  0  0  0  0  0  0  0  0  0  0
    2.3476   -0.9560    1.3229 H   0  0  0  0  0  0  0  0  0  0  0  0
    3.4859    0.0615    0.2894 H   0  0  0  0  0  0  0  0  0  0  0  0
    1.2387    1.4988   -0.1755 H   0  0  0  0  0  0  0  0  0  0  0  0
    1.5829   -1.3963   -1.3105 H   0  0  0  0  0  0  0  0  0  0  0  0
    0.4496   -0.0537   -2.0199 H   0  0  0  0  0  0  0  0  0  0  0  0
    0.1898   -1.3326    0.7477 H   0  0  0  0  0  0  0  0  0  0  0  0
   -2.6821   -1.0555    0.3853 H   0  0  0  0  0  0  0  0  0  0  0  0
   -2.2124   -0.1426    1.9125 H   0  0  0  0  0  0  0  0  0  0  0  0
   -3.8566    0.6216   -0.2877 H   0  0  0  0  0  0  0  0  0  0  0  0
  1  2  1  0
  2  3  1  0
  3  4  1  0
  4  5  1  0
  5  6  2  0
  5  7  1  0
  7  8  1  0
  4  2  1  0
  1  9  1  0
  1 10  1  0
  1 11  1  0
  2 12  1  0
  3 13  1  0
  3 14  1  0
  4 15  1  0
  7 16  1  0
  7 17  1  0
  8 18  1  0
M  END
