
     RDKit          3D

 21 22  0  0  0  0  0  0  0  0999 V2000
    2.6173   -0.3154    0.4561 C   0  0  0  0  0  0  0  0  0  0  0  0
    1.3834    0.0027   -0.3603 C   0  0  0  0  0  0  0  0  0  0  0  0
    0.2428   -0.9020   -0.0171 C   0  0  0  0  0  0  0  0  0  0  0  0
   -0.9847   -0.0682   -0.1690 C   0  0  0  0  0  0  0  0  0  0  0  0
   -2.1747   -0.2800    0.7355 C   0  0  0  0  0  0  0  0  0  0  0  0
   -2.2044   -0.6685   -0.7218 C   0  0  0  0  0  0  0  0  0  0  0  0
   -0.5702    1.3416   -0.4202 C   0  0  0  0  0  0  0  0  0  0  0  0
    0.8522    1.3422    0.0497 C   0  0  0  0  0  0  0  0  0  0  0  0
    1.4529    2.2177    0.6306 O   0  0  0  0  0  0  0  0  0  0  0  0
    3.4244    0.3802    0.1452 H   0  0  0  0  0  0  0  0  0  0  0  0
    2.8875   -1.3819    0.3276 H   0  0  0  0  0  0  0  0  0  0  0  0
    2.3890   -0.0633    1.5200 H   0  0  0  0  0  0  0  0  0  0  0  0
    1.5840    0.0663   -1.4395 H   0  0  0  0  0  0  0  0  0  0  0  0
    0.1881   -1.7843   -0.6834 H   0  0  0  0  0  0  0  0  0  0  0  0
    0.3684   -1.3032    1.0180 H   0  0  0  0  0  0  0  0  0  0  0  0
   -2.7075    0.6392    1.0541 H   0  0  0  0  0  0  0  0  0  0  0  0
   -2.0154   -1.0285    1.5165 H   0  0  0  0  0  0  0  0  0  0  0  0
   -2.1401   -1.7668   -0.9556 H   0  0  0  0  0  0  0  0  0  0  0  0
   -2.8388   -0.1165   -1.4217 H   0  0  0  0  0  0  0  0  0  0  0  0
   -0.6270    1.6506   -1.4854 H   0  0  0  0  0  0  0  0  0  0  0  0
   -1.1272    2.0382    0.2208 H   0  0  0  0  0  0  0  0  0  0  0  0
  1  2  1  0
  2  3  1  0
  3  4  1  0
  4  5  1  0
  5  6  1  0
  4  7  1  0
  7  8  1  0
  8  9  2  0
  8  2  1  0
  6  4  1  0
  1 10  1  0
  1 11  1  0
  1 12  1  0
  2 13  1  0
  3 14  1  0
  3 15  1  0
  5 16  1  0
  5 17  1  0
  6 18  1  0
  6 19  1  0
  7 20  1  0
  7 21  1  0
M  END
