
     RDKit          2D

 21 23  0  0  0  0  0  0  0  0999 V2000
   -2.0470    2.9838    0.0000 C   0  0  0  0  0  0  0  0  0  0  0  0
   -1.2490    1.7137    0.0000 C   0  0  0  0  0  0  0  0  0  0  0  0
   -0.0692    2.6401    0.0000 C   0  0  0  0  0  0  0  0  0  0  0  0
   -0.2484    1.5410    0.0000 C   0  0  0  0  0  0  0  0  0  0  0  0
   -1.0323    0.7500    0.0000 C   0  0  0  0  0  0  0  0  0  0  0  0
    0.3943    1.2135    0.0000 C   0  0  0  0  0  0  0  0  0  0  0  0
    1.2760    0.0000    0.0000 C   0  0  0  0  0  0  0  0  0  0  0  0
    0.3943   -1.2135    0.0000 O   0  0  0  0  0  0  0  0  0  0  0  0
   -1.0323   -0.7500    0.0000 C   0  0  0  0  0  0  0  0  0  0  0  0
   -2.8450    4.2539    0.0000 H   0  0  0  0  0  0  0  0  0  0  0  0
   -3.2691    2.4103    0.0000 H   0  0  0  0  0  0  0  0  0  0  0  0
   -0.7769    3.7818    0.0000 H   0  0  0  0  0  0  0  0  0  0  0  0
   -2.2306    1.2319    0.0000 H   0  0  0  0  0  0  0  0  0  0  0  0
    0.6118    3.9766    0.0000 H   0  0  0  0  0  0  0  0  0  0  0  0
   -1.0036    1.5896    0.0000 H   0  0  0  0  0  0  0  0  0  0  0  0
   -2.2908    3.4486    0.0000 H   0  0  0  0  0  0  0  0  0  0  0  0
   -2.4742    0.3365    0.0000 H   0  0  0  0  0  0  0  0  0  0  0  0
    1.7308    1.8945    0.0000 H   0  0  0  0  0  0  0  0  0  0  0  0
    2.3907    1.0037    0.0000 H   0  0  0  0  0  0  0  0  0  0  0  0
    2.3907   -1.0037    0.0000 H   0  0  0  0  0  0  0  0  0  0  0  0
   -2.2458   -1.6317    0.0000 H   0  0  0  0  0  0  0  0  0  0  0  0
  1  2  1  0
  2  3  1  0
  3  4  1  0
  4  5  1  0
  5  6  1  0
  6  7  1  0
  7  8  1  0
  8  9  1  0
  9  2  1  0
  6  3  1  0
  9  5  1  0
  1 10  1  0
  1 11  1  0
  1 12  1  0
  2 13  1  0
  3 14  1  0
  4 15  1  0
  4 16  1  0
  5 17  1  0
  6 18  1  0
  7 19  1  0
  7 20  1  0
  9 21  1  0
M  END
