
     RDKit          3D

 23 23  0  0  0  0  0  0  0  0999 V2000
   -0.2016    1.9266   -0.0497 C   0  0  0  0  0  0  0  0  0  0  0  0
    0.0344    0.6161   -0.7409 C   0  0  0  0  0  0  0  0  0  0  0  0
    1.4058    0.0446   -0.6649 C   0  0  0  0  0  0  0  0  0  0  0  0
    2.3161    0.5800    0.3476 C   0  0  0  0  0  0  0  0  0  0  0  0
    2.1198    0.4643    1.5435 O   0  0  0  0  0  0  0  0  0  0  0  0
    0.7771   -1.2857   -0.2448 C   0  0  0  0  0  0  0  0  0  0  0  0
   -0.5361   -0.5650   -0.0167 C   0  0  0  0  0  0  0  0  0  0  0  0
   -1.7110   -1.2233   -0.7524 C   0  0  0  0  0  0  0  0  0  0  0  0
   -0.9089   -0.3540    1.4209 C   0  0  0  0  0  0  0  0  0  0  0  0
   -0.1958    2.7257   -0.8249 H   0  0  0  0  0  0  0  0  0  0  0  0
   -1.2585    1.9312    0.3497 H   0  0  0  0  0  0  0  0  0  0  0  0
    0.5254    2.1346    0.7611 H   0  0  0  0  0  0  0  0  0  0  0  0
   -0.3596    0.6431   -1.7980 H   0  0  0  0  0  0  0  0  0  0  0  0
    1.8927   -0.0002   -1.6803 H   0  0  0  0  0  0  0  0  0  0  0  0
    3.2152    1.1089    0.0561 H   0  0  0  0  0  0  0  0  0  0  0  0
    1.2288   -1.7273    0.6645 H   0  0  0  0  0  0  0  0  0  0  0  0
    0.7176   -1.9524   -1.1252 H   0  0  0  0  0  0  0  0  0  0  0  0
   -2.3235   -1.8038   -0.0455 H   0  0  0  0  0  0  0  0  0  0  0  0
   -2.3465   -0.3900   -1.1167 H   0  0  0  0  0  0  0  0  0  0  0  0
   -1.3524   -1.8760   -1.5637 H   0  0  0  0  0  0  0  0  0  0  0  0
   -0.3707   -1.1153    2.0516 H   0  0  0  0  0  0  0  0  0  0  0  0
   -2.0052   -0.5098    1.6069 H   0  0  0  0  0  0  0  0  0  0  0  0
   -0.6630    0.6275    1.8218 H   0  0  0  0  0  0  0  0  0  0  0  0
  1  2  1  0
  2  3  1  0
  3  4  1  0
  4  5  2  0
  3  6  1  0
  6  7  1  0
  7  8  1  0
  7  9  1  0
  7  2  1  0
  1 10  1  0
  1 11  1  0
  1 12  1  0
  2 13  1  0
  3 14  1  0
  4 15  1  0
  6 16  1  0
  6 17  1  0
  8 18  1  0
  8 19  1  0
  8 20  1  0
  9 21  1  0
  9 22  1  0
  9 23  1  0
M  END
