
     RDKit          3D

 23 23  0  0  0  0  0  0  0  0999 V2000
    2.1247    0.1938   -0.7285 C   0  0  0  0  0  0  0  0  0  0  0  0
    1.1516    0.0657    0.4097 C   0  0  0  0  0  0  0  0  0  0  0  0
    0.4181    1.3908    0.6733 C   0  0  0  0  0  0  0  0  0  0  0  0
   -0.5911    0.9214   -0.3464 C   0  0  0  0  0  0  0  0  0  0  0  0
   -1.9829    1.2831   -0.1158 C   0  0  0  0  0  0  0  0  0  0  0  0
   -2.8557    0.6731   -0.6892 O   0  0  0  0  0  0  0  0  0  0  0  0
   -0.2013   -0.5011    0.0531 C   0  0  0  0  0  0  0  0  0  0  0  0
   -0.8898   -1.0072    1.2950 C   0  0  0  0  0  0  0  0  0  0  0  0
   -0.2438   -1.4935   -1.0487 C   0  0  0  0  0  0  0  0  0  0  0  0
    1.6464    0.5265   -1.6579 H   0  0  0  0  0  0  0  0  0  0  0  0
    2.5907   -0.7833   -0.9229 H   0  0  0  0  0  0  0  0  0  0  0  0
    2.8970    0.9604   -0.4584 H   0  0  0  0  0  0  0  0  0  0  0  0
    1.6314   -0.3620    1.3078 H   0  0  0  0  0  0  0  0  0  0  0  0
    0.0185    1.3593    1.7003 H   0  0  0  0  0  0  0  0  0  0  0  0
    0.9993    2.2796    0.4178 H   0  0  0  0  0  0  0  0  0  0  0  0
   -0.2897    1.1203   -1.3922 H   0  0  0  0  0  0  0  0  0  0  0  0
   -2.2519    2.0789    0.5517 H   0  0  0  0  0  0  0  0  0  0  0  0
   -1.1163   -2.0912    1.2322 H   0  0  0  0  0  0  0  0  0  0  0  0
   -0.2593   -0.8857    2.2134 H   0  0  0  0  0  0  0  0  0  0  0  0
   -1.8181   -0.4288    1.4916 H   0  0  0  0  0  0  0  0  0  0  0  0
   -1.2658   -1.4243   -1.5243 H   0  0  0  0  0  0  0  0  0  0  0  0
   -0.1982   -2.5101   -0.6179 H   0  0  0  0  0  0  0  0  0  0  0  0
    0.4862   -1.3658   -1.8438 H   0  0  0  0  0  0  0  0  0  0  0  0
  1  2  1  0
  2  3  1  0
  3  4  1  0
  4  5  1  0
  5  6  2  0
  4  7  1  0
  7  8  1  0
  7  9  1  0
  7  2  1  0
  1 10  1  0
  1 11  1  0
  1 12  1  0
  2 13  1  0
  3 14  1  0
  3 15  1  0
  4 16  1  0
  5 17  1  0
  8 18  1  0
  8 19  1  0
  8 20  1  0
  9 21  1  0
  9 22  1  0
  9 23  1  0
M  END
