
     RDKit          3D

 21 21  0  0  0  0  0  0  0  0999 V2000
    2.9049    0.5221   -0.3916 C   0  0  0  0  0  0  0  0  0  0  0  0
    1.5435   -0.0622   -0.1689 C   0  0  0  0  0  0  0  0  0  0  0  0
    0.6638    0.3840   -1.2803 C   0  0  0  0  0  0  0  0  0  0  0  0
   -0.6109    0.0566   -1.1615 C   0  0  0  0  0  0  0  0  0  0  0  0
   -1.0070   -0.7092    0.0541 C   0  0  0  0  0  0  0  0  0  0  0  0
   -2.4805   -0.3356    0.2793 C   0  0  0  0  0  0  0  0  0  0  0  0
   -2.4824    1.0491    0.4624 O   0  0  0  0  0  0  0  0  0  0  0  0
   -0.1840   -0.3788    1.2658 C   0  0  0  0  0  0  0  0  0  0  0  0
    0.9435    0.3824    1.0045 O   0  0  0  0  0  0  0  0  0  0  0  0
    2.7674    1.5546   -0.7862 H   0  0  0  0  0  0  0  0  0  0  0  0
    3.5110    0.4773    0.5205 H   0  0  0  0  0  0  0  0  0  0  0  0
    3.3865   -0.0896   -1.2074 H   0  0  0  0  0  0  0  0  0  0  0  0
    1.6300   -1.1743   -0.1435 H   0  0  0  0  0  0  0  0  0  0  0  0
    1.0302    0.9364   -2.1280 H   0  0  0  0  0  0  0  0  0  0  0  0
   -1.3150    0.3457   -1.9302 H   0  0  0  0  0  0  0  0  0  0  0  0
   -0.9297   -1.7882   -0.2233 H   0  0  0  0  0  0  0  0  0  0  0  0
   -3.0067   -0.6166   -0.6449 H   0  0  0  0  0  0  0  0  0  0  0  0
   -2.8739   -0.8120    1.1920 H   0  0  0  0  0  0  0  0  0  0  0  0
   -2.8393    1.4636   -0.3616 H   0  0  0  0  0  0  0  0  0  0  0  0
    0.1892   -1.3150    1.7658 H   0  0  0  0  0  0  0  0  0  0  0  0
   -0.8406    0.1096    2.0302 H   0  0  0  0  0  0  0  0  0  0  0  0
  1  2  1  0
  2  3  1  0
  3  4  2  0
  4  5  1  0
  5  6  1  0
  6  7  1  0
  5  8  1  0
  8  9  1  0
  9  2  1  0
  1 10  1  0
  1 11  1  0
  1 12  1  0
  2 13  1  0
  3 14  1  0
  4 15  1  0
  5 16  1  0
  6 17  1  0
  6 18  1  0
  7 19  1  0
  8 20  1  0
  8 21  1  0
M  END
