
     RDKit          3D

 15 16  0  0  0  0  0  0  0  0999 V2000
   -1.9662   -0.3107    0.0043 C   0  0  0  0  0  0  0  0  0  0  0  0
   -0.5267   -0.1747    0.4273 C   0  0  0  0  0  0  0  0  0  0  0  0
    0.3846   -1.0562   -0.3203 C   0  0  0  0  0  0  0  0  0  0  0  0
    0.1269   -2.0984   -0.8438 O   0  0  0  0  0  0  0  0  0  0  0  0
    1.7048   -0.4035   -0.3052 C   0  0  0  0  0  0  0  0  0  0  0  0
    2.1258    0.1791    0.9212 O   0  0  0  0  0  0  0  0  0  0  0  0
    1.4575    0.9870   -0.1011 C   0  0  0  0  0  0  0  0  0  0  0  0
    0.0143    1.1595    0.1192 C   0  0  0  0  0  0  0  0  0  0  0  0
   -0.5979    2.1818    0.0596 O   0  0  0  0  0  0  0  0  0  0  0  0
   -2.1312    0.1641   -0.9776 H   0  0  0  0  0  0  0  0  0  0  0  0
   -2.5775    0.1923    0.7763 H   0  0  0  0  0  0  0  0  0  0  0  0
   -2.2303   -1.3810    0.0301 H   0  0  0  0  0  0  0  0  0  0  0  0
   -0.4259   -0.4411    1.5038 H   0  0  0  0  0  0  0  0  0  0  0  0
    2.5403   -0.8332   -0.9012 H   0  0  0  0  0  0  0  0  0  0  0  0
    2.1017    1.8350   -0.3925 H   0  0  0  0  0  0  0  0  0  0  0  0
  1  2  1  0
  2  3  1  0
  3  4  2  0
  3  5  1  0
  5  6  1  0
  6  7  1  0
  7  8  1  0
  8  9  2  0
  8  2  1  0
  7  5  1  0
  1 10  1  0
  1 11  1  0
  1 12  1  0
  2 13  1  0
  5 14  1  0
  7 15  1  0
M  END
