
     RDKit          3D

 23 23  0  0  0  0  0  0  0  0999 V2000
    2.4365   -1.1603   -0.1558 C   0  0  0  0  0  0  0  0  0  0  0  0
    1.2760   -0.4744    0.5205 C   0  0  0  0  0  0  0  0  0  0  0  0
    0.9395    0.8520   -0.1303 C   0  0  0  0  0  0  0  0  0  0  0  0
   -0.5471    0.9268    0.2425 C   0  0  0  0  0  0  0  0  0  0  0  0
   -1.2159    2.1089   -0.3771 C   0  0  0  0  0  0  0  0  0  0  0  0
   -1.0084   -0.3935   -0.2928 C   0  0  0  0  0  0  0  0  0  0  0  0
   -2.3799   -0.7421    0.0788 C   0  0  0  0  0  0  0  0  0  0  0  0
   -2.8153   -1.8545   -0.0129 O   0  0  0  0  0  0  0  0  0  0  0  0
    0.0220   -1.3282    0.3542 C   0  0  0  0  0  0  0  0  0  0  0  0
    2.1183   -1.5984   -1.1186 H   0  0  0  0  0  0  0  0  0  0  0  0
    3.3060   -0.4935   -0.2279 H   0  0  0  0  0  0  0  0  0  0  0  0
    2.7127   -2.0266    0.4973 H   0  0  0  0  0  0  0  0  0  0  0  0
    1.4749   -0.2712    1.5805 H   0  0  0  0  0  0  0  0  0  0  0  0
    1.0059    0.7773   -1.2527 H   0  0  0  0  0  0  0  0  0  0  0  0
    1.4873    1.6956    0.2809 H   0  0  0  0  0  0  0  0  0  0  0  0
   -0.6271    0.9097    1.3322 H   0  0  0  0  0  0  0  0  0  0  0  0
   -2.3044    1.9860   -0.2703 H   0  0  0  0  0  0  0  0  0  0  0  0
   -0.8967    2.2727   -1.4080 H   0  0  0  0  0  0  0  0  0  0  0  0
   -0.9348    3.0043    0.2119 H   0  0  0  0  0  0  0  0  0  0  0  0
   -0.8391   -0.4372   -1.4061 H   0  0  0  0  0  0  0  0  0  0  0  0
   -3.0314    0.0415    0.4539 H   0  0  0  0  0  0  0  0  0  0  0  0
    0.2183   -2.2127   -0.2596 H   0  0  0  0  0  0  0  0  0  0  0  0
   -0.3973   -1.5822    1.3598 H   0  0  0  0  0  0  0  0  0  0  0  0
  1  2  1  0
  2  3  1  0
  3  4  1  0
  4  5  1  0
  4  6  1  0
  6  7  1  0
  7  8  2  0
  6  9  1  0
  9  2  1  0
  1 10  1  0
  1 11  1  0
  1 12  1  0
  2 13  1  0
  3 14  1  0
  3 15  1  0
  4 16  1  0
  5 17  1  0
  5 18  1  0
  5 19  1  0
  6 20  1  0
  7 21  1  0
  9 22  1  0
  9 23  1  0
M  END
