
     RDKit          3D

 21 22  0  0  0  0  0  0  0  0999 V2000
   -2.4931    0.9142   -0.7059 C   0  0  0  0  0  0  0  0  0  0  0  0
   -1.4275    0.2914    0.1310 C   0  0  0  0  0  0  0  0  0  0  0  0
   -0.0577    0.7156   -0.2135 C   0  0  0  0  0  0  0  0  0  0  0  0
    0.7812   -0.2606    0.1079 C   0  0  0  0  0  0  0  0  0  0  0  0
    2.2634   -0.2801   -0.0578 C   0  0  0  0  0  0  0  0  0  0  0  0
    2.9808    0.8481   -0.6175 C   0  0  0  0  0  0  0  0  0  0  0  0
    2.9935    0.6127    0.8292 O   0  0  0  0  0  0  0  0  0  0  0  0
    0.0101   -1.4225    0.6884 C   0  0  0  0  0  0  0  0  0  0  0  0
   -1.3459   -1.2089   -0.0114 C   0  0  0  0  0  0  0  0  0  0  0  0
   -3.3641    0.2086   -0.7334 H   0  0  0  0  0  0  0  0  0  0  0  0
   -2.8806    1.8256   -0.1620 H   0  0  0  0  0  0  0  0  0  0  0  0
   -2.1775    1.2601   -1.6906 H   0  0  0  0  0  0  0  0  0  0  0  0
   -1.5814    0.5039    1.2062 H   0  0  0  0  0  0  0  0  0  0  0  0
    0.2901    1.6541   -0.6587 H   0  0  0  0  0  0  0  0  0  0  0  0
    2.7594   -1.2682   -0.0789 H   0  0  0  0  0  0  0  0  0  0  0  0
    3.9731    0.6713   -1.0600 H   0  0  0  0  0  0  0  0  0  0  0  0
    2.4527    1.8109   -0.8010 H   0  0  0  0  0  0  0  0  0  0  0  0
   -0.1895   -1.2984    1.7533 H   0  0  0  0  0  0  0  0  0  0  0  0
    0.4113   -2.3855    0.3781 H   0  0  0  0  0  0  0  0  0  0  0  0
   -1.2475   -1.4443   -1.0890 H   0  0  0  0  0  0  0  0  0  0  0  0
   -2.1507   -1.7480    0.4982 H   0  0  0  0  0  0  0  0  0  0  0  0
  1  2  1  0
  2  3  1  0
  3  4  2  0
  4  5  1  0
  5  6  1  0
  6  7  1  0
  4  8  1  0
  8  9  1  0
  9  2  1  0
  7  5  1  0
  1 10  1  0
  1 11  1  0
  1 12  1  0
  2 13  1  0
  3 14  1  0
  5 15  1  0
  6 16  1  0
  6 17  1  0
  8 18  1  0
  8 19  1  0
  9 20  1  0
  9 21  1  0
M  END
