
     RDKit          3D

 20 20  0  0  0  0  0  0  0  0999 V2000
   -2.1051   -0.4050    0.4627 C   0  0  0  0  0  0  0  0  0  0  0  0
   -1.2412   -0.2381   -0.7709 C   0  0  0  0  0  0  0  0  0  0  0  0
   -0.6822    1.1133   -0.7566 C   0  0  0  0  0  0  0  0  0  0  0  0
    0.4595    1.5822   -0.2645 C   0  0  0  0  0  0  0  0  0  0  0  0
    1.5655    0.8984    0.4422 C   0  0  0  0  0  0  0  0  0  0  0  0
    1.7973   -0.5066   -0.0063 C   0  0  0  0  0  0  0  0  0  0  0  0
    0.5639   -1.3753    0.1349 C   0  0  0  0  0  0  0  0  0  0  0  0
   -0.3108   -1.2507   -0.9056 O   0  0  0  0  0  0  0  0  0  0  0  0
   -2.4461   -1.4483    0.5652 H   0  0  0  0  0  0  0  0  0  0  0  0
   -1.6325    0.0196    1.3456 H   0  0  0  0  0  0  0  0  0  0  0  0
   -3.0354    0.1982    0.2650 H   0  0  0  0  0  0  0  0  0  0  0  0
   -1.9249   -0.3171   -1.6420 H   0  0  0  0  0  0  0  0  0  0  0  0
   -1.2945    1.8721   -1.2239 H   0  0  0  0  0  0  0  0  0  0  0  0
    0.6285    2.6463   -0.3925 H   0  0  0  0  0  0  0  0  0  0  0  0
    2.4958    1.4599    0.3271 H   0  0  0  0  0  0  0  0  0  0  0  0
    1.3096    0.8817    1.5196 H   0  0  0  0  0  0  0  0  0  0  0  0
    2.2121   -0.5611   -1.0404 H   0  0  0  0  0  0  0  0  0  0  0  0
    2.5672   -0.9480    0.6606 H   0  0  0  0  0  0  0  0  0  0  0  0
    0.1366   -1.1857    1.1316 H   0  0  0  0  0  0  0  0  0  0  0  0
    0.9364   -2.4360    0.1480 H   0  0  0  0  0  0  0  0  0  0  0  0
  1  2  1  0
  2  3  1  0
  3  4  2  0
  4  5  1  0
  5  6  1  0
  6  7  1  0
  7  8  1  0
  8  2  1  0
  1  9  1  0
  1 10  1  0
  1 11  1  0
  2 12  1  0
  3 13  1  0
  4 14  1  0
  5 15  1  0
  5 16  1  0
  6 17  1  0
  6 18  1  0
  7 19  1  0
  7 20  1  0
M  END
