
     RDKit          3D

 21 23  0  0  0  0  0  0  0  0999 V2000
    2.6753    0.3444    0.1008 C   0  0  0  0  0  0  0  0  0  0  0  0
    1.2029    0.1584    0.2726 C   0  0  0  0  0  0  0  0  0  0  0  0
    0.6454   -0.9422   -0.6289 C   0  0  0  0  0  0  0  0  0  0  0  0
   -0.7030   -1.3157   -0.0587 C   0  0  0  0  0  0  0  0  0  0  0  0
   -1.8960   -0.4956   -0.2550 C   0  0  0  0  0  0  0  0  0  0  0  0
   -1.8978    0.9781   -0.4082 C   0  0  0  0  0  0  0  0  0  0  0  0
   -0.8009    1.0898    0.6206 C   0  0  0  0  0  0  0  0  0  0  0  0
    0.4572    1.2900    0.0268 O   0  0  0  0  0  0  0  0  0  0  0  0
   -1.0491   -0.3300    0.9980 C   0  0  0  0  0  0  0  0  0  0  0  0
    3.0448    0.9441    0.9554 H   0  0  0  0  0  0  0  0  0  0  0  0
    2.9536    0.8211   -0.8572 H   0  0  0  0  0  0  0  0  0  0  0  0
    3.1533   -0.6564    0.2010 H   0  0  0  0  0  0  0  0  0  0  0  0
    1.0244   -0.1175    1.3460 H   0  0  0  0  0  0  0  0  0  0  0  0
    0.5606   -0.5853   -1.6537 H   0  0  0  0  0  0  0  0  0  0  0  0
    1.3346   -1.8191   -0.5691 H   0  0  0  0  0  0  0  0  0  0  0  0
   -0.8405   -2.3645    0.2009 H   0  0  0  0  0  0  0  0  0  0  0  0
   -2.8755   -0.9838   -0.1843 H   0  0  0  0  0  0  0  0  0  0  0  0
   -1.7031    1.4124   -1.3859 H   0  0  0  0  0  0  0  0  0  0  0  0
   -2.8386    1.4226    0.0326 H   0  0  0  0  0  0  0  0  0  0  0  0
   -0.9904    1.7701    1.4613 H   0  0  0  0  0  0  0  0  0  0  0  0
   -1.4572   -0.6208    1.9677 H   0  0  0  0  0  0  0  0  0  0  0  0
  1  2  1  0
  2  3  1  0
  3  4  1  0
  4  5  1  0
  5  6  1  0
  6  7  1  0
  7  8  1  0
  7  9  1  0
  8  2  1  0
  9  4  1  0
  9  5  1  0
  1 10  1  0
  1 11  1  0
  1 12  1  0
  2 13  1  0
  3 14  1  0
  3 15  1  0
  4 16  1  0
  5 17  1  0
  6 18  1  0
  6 19  1  0
  7 20  1  0
  9 21  1  0
M  END
