
     RDKit          3D

 25 25  0  0  0  0  0  0  0  0999 V2000
   -1.9582   -0.5527   -1.2302 C   0  0  0  0  0  0  0  0  0  0  0  0
   -1.5122    0.1621   -0.0028 C   0  0  0  0  0  0  0  0  0  0  0  0
   -1.4774   -0.6455    1.2711 C   0  0  0  0  0  0  0  0  0  0  0  0
   -0.2468    0.1912    1.6485 C   0  0  0  0  0  0  0  0  0  0  0  0
   -0.0482    0.4118    0.1584 C   0  0  0  0  0  0  0  0  0  0  0  0
    0.2973    1.8221   -0.2325 C   0  0  0  0  0  0  0  0  0  0  0  0
    0.8676   -0.6533   -0.3911 C   0  0  0  0  0  0  0  0  0  0  0  0
    2.3146   -0.2286   -0.1370 C   0  0  0  0  0  0  0  0  0  0  0  0
    3.2054   -1.1752   -0.6242 O   0  0  0  0  0  0  0  0  0  0  0  0
   -3.0361   -0.7320   -1.1684 H   0  0  0  0  0  0  0  0  0  0  0  0
   -1.6994    0.1037   -2.1069 H   0  0  0  0  0  0  0  0  0  0  0  0
   -1.3669   -1.4799   -1.3476 H   0  0  0  0  0  0  0  0  0  0  0  0
   -2.0988    1.0854    0.1654 H   0  0  0  0  0  0  0  0  0  0  0  0
   -2.3273   -0.4874    1.9329 H   0  0  0  0  0  0  0  0  0  0  0  0
   -1.2672   -1.7109    1.1252 H   0  0  0  0  0  0  0  0  0  0  0  0
   -0.5948    1.1117    2.1678 H   0  0  0  0  0  0  0  0  0  0  0  0
    0.5559   -0.3639    2.1340 H   0  0  0  0  0  0  0  0  0  0  0  0
    0.7831    2.3112    0.6394 H   0  0  0  0  0  0  0  0  0  0  0  0
   -0.6174    2.4286   -0.4480 H   0  0  0  0  0  0  0  0  0  0  0  0
    0.9088    1.8631   -1.1518 H   0  0  0  0  0  0  0  0  0  0  0  0
    0.6964   -0.9035   -1.4352 H   0  0  0  0  0  0  0  0  0  0  0  0
    0.7122   -1.5756    0.2035 H   0  0  0  0  0  0  0  0  0  0  0  0
    2.4995   -0.0912    0.9460 H   0  0  0  0  0  0  0  0  0  0  0  0
    2.5258    0.7182   -0.6661 H   0  0  0  0  0  0  0  0  0  0  0  0
    2.8843   -1.6093   -1.4507 H   0  0  0  0  0  0  0  0  0  0  0  0
  1  2  1  0
  2  3  1  0
  3  4  1  0
  4  5  1  0
  5  6  1  0
  5  7  1  0
  7  8  1  0
  8  9  1  0
  5  2  1  0
  1 10  1  0
  1 11  1  0
  1 12  1  0
  2 13  1  0
  3 14  1  0
  3 15  1  0
  4 16  1  0
  4 17  1  0
  6 18  1  0
  6 19  1  0
  6 20  1  0
  7 21  1  0
  7 22  1  0
  8 23  1  0
  8 24  1  0
  9 25  1  0
M  END
