
     RDKit          3D

 19 20  0  0  0  0  0  0  0  0999 V2000
   -0.4397    0.2843    1.7890 C   0  0  0  0  0  0  0  0  0  0  0  0
   -0.9363   -0.0291    0.4214 C   0  0  0  0  0  0  0  0  0  0  0  0
   -0.7530    1.1755   -0.5250 C   0  0  0  0  0  0  0  0  0  0  0  0
   -0.7124    2.3051    0.2830 O   0  0  0  0  0  0  0  0  0  0  0  0
    0.6163    0.8521   -1.0512 C   0  0  0  0  0  0  0  0  0  0  0  0
    0.9345   -0.4124   -0.8950 C   0  0  0  0  0  0  0  0  0  0  0  0
    1.4966   -1.7922   -0.8185 C   0  0  0  0  0  0  0  0  0  0  0  0
    0.7076   -1.8955    0.3748 O   0  0  0  0  0  0  0  0  0  0  0  0
   -0.2392   -1.1524   -0.2661 C   0  0  0  0  0  0  0  0  0  0  0  0
   -1.0802    1.1000    2.1995 H   0  0  0  0  0  0  0  0  0  0  0  0
    0.6133    0.6288    1.8161 H   0  0  0  0  0  0  0  0  0  0  0  0
   -0.6206   -0.5951    2.4290 H   0  0  0  0  0  0  0  0  0  0  0  0
   -2.0181   -0.2596    0.4882 H   0  0  0  0  0  0  0  0  0  0  0  0
   -1.5142    1.1983   -1.2991 H   0  0  0  0  0  0  0  0  0  0  0  0
   -0.1801    3.0079   -0.2092 H   0  0  0  0  0  0  0  0  0  0  0  0
    1.2557    1.5952   -1.5062 H   0  0  0  0  0  0  0  0  0  0  0  0
    2.5816   -1.8460   -0.6128 H   0  0  0  0  0  0  0  0  0  0  0  0
    1.1212   -2.4386   -1.6203 H   0  0  0  0  0  0  0  0  0  0  0  0
   -0.8331   -1.7263   -0.9974 H   0  0  0  0  0  0  0  0  0  0  0  0
  1  2  1  0
  2  3  1  0
  3  4  1  0
  3  5  1  0
  5  6  2  0
  6  7  1  0
  7  8  1  0
  8  9  1  0
  9  2  1  0
  9  6  1  0
  1 10  1  0
  1 11  1  0
  1 12  1  0
  2 13  1  0
  3 14  1  0
  4 15  1  0
  5 16  1  0
  7 17  1  0
  7 18  1  0
  9 19  1  0
M  END
