
     RDKit          3D

 21 21  0  0  0  0  0  0  0  0999 V2000
    2.1923    0.6376    0.2747 C   0  0  0  0  0  0  0  0  0  0  0  0
    1.1574   -0.2746   -0.3016 C   0  0  0  0  0  0  0  0  0  0  0  0
    0.0028    0.3737   -1.0060 C   0  0  0  0  0  0  0  0  0  0  0  0
   -0.8355    0.1506    0.2221 C   0  0  0  0  0  0  0  0  0  0  0  0
   -2.1177   -0.6153    0.0057 C   0  0  0  0  0  0  0  0  0  0  0  0
   -1.1003    1.4025    0.9509 C   0  0  0  0  0  0  0  0  0  0  0  0
   -1.5666    2.3405    0.3506 O   0  0  0  0  0  0  0  0  0  0  0  0
    0.2177   -0.7513    0.7993 C   0  0  0  0  0  0  0  0  0  0  0  0
   -0.0039   -2.1153    0.6405 O   0  0  0  0  0  0  0  0  0  0  0  0
    3.2262    0.2654    0.0575 H   0  0  0  0  0  0  0  0  0  0  0  0
    2.1441    0.6873    1.3969 H   0  0  0  0  0  0  0  0  0  0  0  0
    2.0436    1.6645   -0.0861 H   0  0  0  0  0  0  0  0  0  0  0  0
    1.5967   -1.0629   -0.9192 H   0  0  0  0  0  0  0  0  0  0  0  0
   -0.4002   -0.1524   -1.8841 H   0  0  0  0  0  0  0  0  0  0  0  0
    0.2513    1.4362   -1.2346 H   0  0  0  0  0  0  0  0  0  0  0  0
   -2.8762    0.0057   -0.5309 H   0  0  0  0  0  0  0  0  0  0  0  0
   -1.9404   -1.5858   -0.4942 H   0  0  0  0  0  0  0  0  0  0  0  0
   -2.5141   -0.8509    1.0316 H   0  0  0  0  0  0  0  0  0  0  0  0
   -0.8887    1.4968    1.9970 H   0  0  0  0  0  0  0  0  0  0  0  0
    0.5319   -0.4988    1.8219 H   0  0  0  0  0  0  0  0  0  0  0  0
    0.8795   -2.5535    0.8579 H   0  0  0  0  0  0  0  0  0  0  0  0
  1  2  1  0
  2  3  1  0
  3  4  1  0
  4  5  1  0
  4  6  1  0
  6  7  2  0
  4  8  1  0
  8  9  1  0
  8  2  1  0
  1 10  1  0
  1 11  1  0
  1 12  1  0
  2 13  1  0
  3 14  1  0
  3 15  1  0
  5 16  1  0
  5 17  1  0
  5 18  1  0
  6 19  1  0
  8 20  1  0
  9 21  1  0
M  END
