
     RDKit          3D

 16 16  0  0  0  0  0  0  0  0999 V2000
   -2.0083    0.2241   -0.4509 C   0  0  0  0  0  0  0  0  0  0  0  0
   -0.8506    0.1210    0.4925 C   0  0  0  0  0  0  0  0  0  0  0  0
   -0.1331   -1.1486    0.7313 C   0  0  0  0  0  0  0  0  0  0  0  0
    0.4704   -0.1931   -0.1887 C   0  0  0  0  0  0  0  0  0  0  0  0
    1.5918    0.7284    0.1821 C   0  0  0  0  0  0  0  0  0  0  0  0
    2.7356    0.3182   -0.5181 O   0  0  0  0  0  0  0  0  0  0  0  0
   -2.0118   -0.6692   -1.1193 H   0  0  0  0  0  0  0  0  0  0  0  0
   -1.7817    1.0971   -1.1314 H   0  0  0  0  0  0  0  0  0  0  0  0
   -2.9747    0.3728    0.0694 H   0  0  0  0  0  0  0  0  0  0  0  0
   -0.8639    0.8273    1.3279 H   0  0  0  0  0  0  0  0  0  0  0  0
   -0.6166   -2.0553    0.3251 H   0  0  0  0  0  0  0  0  0  0  0  0
    0.3614   -1.3183    1.7031 H   0  0  0  0  0  0  0  0  0  0  0  0
    0.4579   -0.4717   -1.2653 H   0  0  0  0  0  0  0  0  0  0  0  0
    1.7998    0.7967    1.2496 H   0  0  0  0  0  0  0  0  0  0  0  0
    1.3089    1.7487   -0.2128 H   0  0  0  0  0  0  0  0  0  0  0  0
    2.5150   -0.3782   -1.1945 H   0  0  0  0  0  0  0  0  0  0  0  0
  1  2  1  0
  2  3  1  0
  3  4  1  0
  4  5  1  0
  5  6  1  0
  4  2  1  0
  1  7  1  0
  1  8  1  0
  1  9  1  0
  2 10  1  0
  3 11  1  0
  3 12  1  0
  4 13  1  0
  5 14  1  0
  5 15  1  0
  6 16  1  0
M  END
