
     RDKit          3D

 25 25  0  0  0  0  0  0  0  0999 V2000
    2.1241    0.0356   -0.9068 C   0  0  0  0  0  0  0  0  0  0  0  0
    1.2598   -0.1729    0.3451 C   0  0  0  0  0  0  0  0  0  0  0  0
    0.6928    1.0767    0.8635 C   0  0  0  0  0  0  0  0  0  0  0  0
   -0.7735    1.1139    1.0922 C   0  0  0  0  0  0  0  0  0  0  0  0
   -1.5781    1.1420   -0.2034 C   0  0  0  0  0  0  0  0  0  0  0  0
   -1.9577   -0.3193   -0.4771 C   0  0  0  0  0  0  0  0  0  0  0  0
   -0.6814   -0.9507   -1.0412 C   0  0  0  0  0  0  0  0  0  0  0  0
    0.3020   -1.2703    0.0369 C   0  0  0  0  0  0  0  0  0  0  0  0
   -0.2932   -1.7422    1.2074 O   0  0  0  0  0  0  0  0  0  0  0  0
    2.4602   -0.9736   -1.2234 H   0  0  0  0  0  0  0  0  0  0  0  0
    3.0100    0.6050   -0.5779 H   0  0  0  0  0  0  0  0  0  0  0  0
    1.6082    0.6068   -1.6759 H   0  0  0  0  0  0  0  0  0  0  0  0
    1.9826   -0.5807    1.1082 H   0  0  0  0  0  0  0  0  0  0  0  0
    1.1887    1.4105    1.8217 H   0  0  0  0  0  0  0  0  0  0  0  0
    0.9369    1.9068    0.1400 H   0  0  0  0  0  0  0  0  0  0  0  0
   -1.1529    0.3522    1.7819 H   0  0  0  0  0  0  0  0  0  0  0  0
   -1.0025    2.1045    1.5875 H   0  0  0  0  0  0  0  0  0  0  0  0
   -0.8692    1.4892   -0.9870 H   0  0  0  0  0  0  0  0  0  0  0  0
   -2.4421    1.7971   -0.1548 H   0  0  0  0  0  0  0  0  0  0  0  0
   -2.1628   -0.8620    0.4681 H   0  0  0  0  0  0  0  0  0  0  0  0
   -2.8054   -0.4084   -1.1556 H   0  0  0  0  0  0  0  0  0  0  0  0
   -0.9334   -1.8350   -1.6827 H   0  0  0  0  0  0  0  0  0  0  0  0
   -0.2664   -0.1948   -1.7406 H   0  0  0  0  0  0  0  0  0  0  0  0
    0.9198   -2.1386   -0.3432 H   0  0  0  0  0  0  0  0  0  0  0  0
    0.4336   -2.1920    1.7172 H   0  0  0  0  0  0  0  0  0  0  0  0
  1  2  1  0
  2  3  1  0
  3  4  1  0
  4  5  1  0
  5  6  1  0
  6  7  1  0
  7  8  1  0
  8  9  1  0
  8  2  1  0
  1 10  1  0
  1 11  1  0
  1 12  1  0
  2 13  1  0
  3 14  1  0
  3 15  1  0
  4 16  1  0
  4 17  1  0
  5 18  1  0
  5 19  1  0
  6 20  1  0
  6 21  1  0
  7 22  1  0
  7 23  1  0
  8 24  1  0
  9 25  1  0
M  END
