
     RDKit          3D

 23 24  0  0  0  0  0  0  0  0999 V2000
    1.9397   -1.0821   -0.0138 C   0  0  0  0  0  0  0  0  0  0  0  0
    1.0069   -0.0080   -0.5606 C   0  0  0  0  0  0  0  0  0  0  0  0
    1.1966    1.2073    0.2951 C   0  0  0  0  0  0  0  0  0  0  0  0
   -0.0178    2.0843    0.3810 C   0  0  0  0  0  0  0  0  0  0  0  0
   -1.0779    1.2711    0.8230 O   0  0  0  0  0  0  0  0  0  0  0  0
   -1.4381    0.4646   -0.2204 C   0  0  0  0  0  0  0  0  0  0  0  0
   -2.2313   -0.7632    0.2467 C   0  0  0  0  0  0  0  0  0  0  0  0
   -0.8921   -1.5118    0.2375 C   0  0  0  0  0  0  0  0  0  0  0  0
   -0.3899   -0.4576   -0.7177 C   0  0  0  0  0  0  0  0  0  0  0  0
    1.6880   -2.0861   -0.3709 H   0  0  0  0  0  0  0  0  0  0  0  0
    1.9867   -0.9981    1.0975 H   0  0  0  0  0  0  0  0  0  0  0  0
    2.9745   -0.8003   -0.3602 H   0  0  0  0  0  0  0  0  0  0  0  0
    1.4026    0.2527   -1.5865 H   0  0  0  0  0  0  0  0  0  0  0  0
    1.4480    0.8822    1.3408 H   0  0  0  0  0  0  0  0  0  0  0  0
    2.0834    1.7641   -0.0585 H   0  0  0  0  0  0  0  0  0  0  0  0
    0.1882    2.8838    1.1049 H   0  0  0  0  0  0  0  0  0  0  0  0
   -0.2888    2.4558   -0.6268 H   0  0  0  0  0  0  0  0  0  0  0  0
   -1.9820    1.0670   -0.9964 H   0  0  0  0  0  0  0  0  0  0  0  0
   -2.8982   -1.1894   -0.5201 H   0  0  0  0  0  0  0  0  0  0  0  0
   -2.6435   -0.6193    1.2512 H   0  0  0  0  0  0  0  0  0  0  0  0
   -0.4613   -1.5042    1.2420 H   0  0  0  0  0  0  0  0  0  0  0  0
   -0.9538   -2.5230   -0.2192 H   0  0  0  0  0  0  0  0  0  0  0  0
   -0.6399   -0.7900   -1.7686 H   0  0  0  0  0  0  0  0  0  0  0  0
  1  2  1  0
  2  3  1  0
  3  4  1  0
  4  5  1  0
  5  6  1  0
  6  7  1  0
  7  8  1  0
  8  9  1  0
  9  2  1  0
  9  6  1  0
  1 10  1  0
  1 11  1  0
  1 12  1  0
  2 13  1  0
  3 14  1  0
  3 15  1  0
  4 16  1  0
  4 17  1  0
  6 18  1  0
  7 19  1  0
  7 20  1  0
  8 21  1  0
  8 22  1  0
  9 23  1  0
M  END
