
     RDKit          3D

 18 19  0  0  0  0  0  0  0  0999 V2000
   -2.0075   -0.0502   -0.9239 C   0  0  0  0  0  0  0  0  0  0  0  0
   -0.8402   -0.4474   -0.0950 C   0  0  0  0  0  0  0  0  0  0  0  0
   -0.6096    0.4091    1.1458 C   0  0  0  0  0  0  0  0  0  0  0  0
    0.8799    0.1879    0.8498 C   0  0  0  0  0  0  0  0  0  0  0  0
    1.5735   -0.7617    1.5321 O   0  0  0  0  0  0  0  0  0  0  0  0
    1.3698    0.9424   -0.2973 C   0  0  0  0  0  0  0  0  0  0  0  0
    2.7296    0.8470   -0.5747 O   0  0  0  0  0  0  0  0  0  0  0  0
    0.5182   -0.2088   -0.6113 C   0  0  0  0  0  0  0  0  0  0  0  0
   -2.1747    1.0211   -1.0318 H   0  0  0  0  0  0  0  0  0  0  0  0
   -1.9186   -0.5159   -1.9252 H   0  0  0  0  0  0  0  0  0  0  0  0
   -2.9270   -0.4800   -0.4281 H   0  0  0  0  0  0  0  0  0  0  0  0
   -0.9737   -1.5119    0.2602 H   0  0  0  0  0  0  0  0  0  0  0  0
   -0.8727    1.4686    0.9749 H   0  0  0  0  0  0  0  0  0  0  0  0
   -0.9487   -0.0337    2.0829 H   0  0  0  0  0  0  0  0  0  0  0  0
    1.2469   -1.6908    1.3824 H   0  0  0  0  0  0  0  0  0  0  0  0
    0.9969    1.9969   -0.3782 H   0  0  0  0  0  0  0  0  0  0  0  0
    2.9187   -0.0644   -0.9490 H   0  0  0  0  0  0  0  0  0  0  0  0
    1.0392   -1.1081   -1.0136 H   0  0  0  0  0  0  0  0  0  0  0  0
  1  2  1  0
  2  3  1  0
  3  4  1  0
  4  5  1  0
  4  6  1  0
  6  7  1  0
  6  8  1  0
  8  2  1  0
  8  4  1  0
  1  9  1  0
  1 10  1  0
  1 11  1  0
  2 12  1  0
  3 13  1  0
  3 14  1  0
  5 15  1  0
  6 16  1  0
  7 17  1  0
  8 18  1  0
M  END
