
     RDKit          3D

 21 22  0  0  0  0  0  0  0  0999 V2000
   -2.5003   -0.3604    0.6167 C   0  0  0  0  0  0  0  0  0  0  0  0
   -1.3469   -0.6742   -0.2683 C   0  0  0  0  0  0  0  0  0  0  0  0
   -0.0158   -0.9054    0.4366 C   0  0  0  0  0  0  0  0  0  0  0  0
    0.6219   -0.0934   -0.7003 C   0  0  0  0  0  0  0  0  0  0  0  0
    1.7549    0.7201   -0.1830 C   0  0  0  0  0  0  0  0  0  0  0  0
    2.8779   -0.1039    0.4489 C   0  0  0  0  0  0  0  0  0  0  0  0
    3.0275    0.5823   -0.7542 O   0  0  0  0  0  0  0  0  0  0  0  0
   -0.7014    0.5872   -0.8569 C   0  0  0  0  0  0  0  0  0  0  0  0
   -0.9317    1.6525   -0.0079 O   0  0  0  0  0  0  0  0  0  0  0  0
   -2.5774    0.7340    0.8043 H   0  0  0  0  0  0  0  0  0  0  0  0
   -3.4342   -0.7001    0.0840 H   0  0  0  0  0  0  0  0  0  0  0  0
   -2.3908   -0.8809    1.5705 H   0  0  0  0  0  0  0  0  0  0  0  0
   -1.5181   -1.4734   -1.0016 H   0  0  0  0  0  0  0  0  0  0  0  0
    0.3609   -1.9285    0.4164 H   0  0  0  0  0  0  0  0  0  0  0  0
    0.0642   -0.4080    1.4190 H   0  0  0  0  0  0  0  0  0  0  0  0
    0.8556   -0.7203   -1.5697 H   0  0  0  0  0  0  0  0  0  0  0  0
    1.5110    1.6619    0.3559 H   0  0  0  0  0  0  0  0  0  0  0  0
    3.3567    0.2761    1.3608 H   0  0  0  0  0  0  0  0  0  0  0  0
    2.8513   -1.2138    0.3013 H   0  0  0  0  0  0  0  0  0  0  0  0
   -1.0290    0.7572   -1.9164 H   0  0  0  0  0  0  0  0  0  0  0  0
   -0.8361    2.4910   -0.5559 H   0  0  0  0  0  0  0  0  0  0  0  0
  1  2  1  0
  2  3  1  0
  3  4  1  0
  4  5  1  0
  5  6  1  0
  6  7  1  0
  4  8  1  0
  8  9  1  0
  8  2  1  0
  7  5  1  0
  1 10  1  0
  1 11  1  0
  1 12  1  0
  2 13  1  0
  3 14  1  0
  3 15  1  0
  4 16  1  0
  5 17  1  0
  6 18  1  0
  6 19  1  0
  8 20  1  0
  9 21  1  0
M  END
