
     RDKit          3D

 19 19  0  0  0  0  0  0  0  0999 V2000
   -1.7708    1.6701    0.3112 C   0  0  0  0  0  0  0  0  0  0  0  0
   -1.1702    0.4938   -0.3813 C   0  0  0  0  0  0  0  0  0  0  0  0
   -1.4514   -0.8865    0.1517 C   0  0  0  0  0  0  0  0  0  0  0  0
   -1.7162   -1.8695   -0.7991 O   0  0  0  0  0  0  0  0  0  0  0  0
   -0.0543   -0.2821    0.2016 C   0  0  0  0  0  0  0  0  0  0  0  0
    0.8457   -0.9006   -0.6311 O   0  0  0  0  0  0  0  0  0  0  0  0
    2.1099   -1.0410   -0.1242 C   0  0  0  0  0  0  0  0  0  0  0  0
    2.7158    0.2922    0.2009 C   0  0  0  0  0  0  0  0  0  0  0  0
    3.8336    0.3717    0.6609 O   0  0  0  0  0  0  0  0  0  0  0  0
   -0.9680    2.3872    0.5554 H   0  0  0  0  0  0  0  0  0  0  0  0
   -2.4683    2.1972   -0.3722 H   0  0  0  0  0  0  0  0  0  0  0  0
   -2.3480    1.4114    1.2212 H   0  0  0  0  0  0  0  0  0  0  0  0
   -1.1274    0.5997   -1.4971 H   0  0  0  0  0  0  0  0  0  0  0  0
   -1.9919   -1.0045    1.1111 H   0  0  0  0  0  0  0  0  0  0  0  0
   -1.8348   -1.4504   -1.6888 H   0  0  0  0  0  0  0  0  0  0  0  0
    0.3363    0.0349    1.1876 H   0  0  0  0  0  0  0  0  0  0  0  0
    2.1421   -1.7204    0.7579 H   0  0  0  0  0  0  0  0  0  0  0  0
    2.7447   -1.5047   -0.8987 H   0  0  0  0  0  0  0  0  0  0  0  0
    2.1731    1.2015    0.0331 H   0  0  0  0  0  0  0  0  0  0  0  0
  1  2  1  0
  2  3  1  0
  3  4  1  0
  3  5  1  0
  5  6  1  0
  6  7  1  0
  7  8  1  0
  8  9  2  0
  5  2  1  0
  1 10  1  0
  1 11  1  0
  1 12  1  0
  2 13  1  0
  3 14  1  0
  4 15  1  0
  5 16  1  0
  7 17  1  0
  7 18  1  0
  8 19  1  0
M  END
