
     RDKit          3D

 21 22  0  0  0  0  0  0  0  0999 V2000
   -1.8614   -1.1953    0.3342 C   0  0  0  0  0  0  0  0  0  0  0  0
   -1.1422    0.0867    0.7358 C   0  0  0  0  0  0  0  0  0  0  0  0
   -1.0387    1.1979   -0.2554 C   0  0  0  0  0  0  0  0  0  0  0  0
   -1.6804    1.1432   -1.4683 O   0  0  0  0  0  0  0  0  0  0  0  0
    0.1066    0.3559    0.0340 C   0  0  0  0  0  0  0  0  0  0  0  0
    1.3207    0.9540    0.6306 C   0  0  0  0  0  0  0  0  0  0  0  0
    2.2761   -0.1617    0.6990 C   0  0  0  0  0  0  0  0  0  0  0  0
    1.9276   -1.0781   -0.1860 C   0  0  0  0  0  0  0  0  0  0  0  0
    0.6883   -0.6406   -0.9303 C   0  0  0  0  0  0  0  0  0  0  0  0
   -2.7620   -1.3744    0.9761 H   0  0  0  0  0  0  0  0  0  0  0  0
   -2.2243   -1.1418   -0.7080 H   0  0  0  0  0  0  0  0  0  0  0  0
   -1.1966   -2.0697    0.4805 H   0  0  0  0  0  0  0  0  0  0  0  0
   -1.2931    0.3157    1.8212 H   0  0  0  0  0  0  0  0  0  0  0  0
   -1.0660    2.2215    0.2164 H   0  0  0  0  0  0  0  0  0  0  0  0
   -1.4872    1.9982   -1.9443 H   0  0  0  0  0  0  0  0  0  0  0  0
    1.7010    1.7404   -0.0861 H   0  0  0  0  0  0  0  0  0  0  0  0
    1.1561    1.4573    1.6012 H   0  0  0  0  0  0  0  0  0  0  0  0
    3.1256   -0.1785    1.3936 H   0  0  0  0  0  0  0  0  0  0  0  0
    2.4534   -2.0110   -0.3561 H   0  0  0  0  0  0  0  0  0  0  0  0
    0.0215   -1.4946   -1.1433 H   0  0  0  0  0  0  0  0  0  0  0  0
    0.9748   -0.1250   -1.8445 H   0  0  0  0  0  0  0  0  0  0  0  0
  1  2  1  0
  2  3  1  0
  3  4  1  0
  3  5  1  0
  5  6  1  0
  6  7  1  0
  7  8  2  0
  8  9  1  0
  5  2  1  0
  9  5  1  0
  1 10  1  0
  1 11  1  0
  1 12  1  0
  2 13  1  0
  3 14  1  0
  4 15  1  0
  6 16  1  0
  6 17  1  0
  7 18  1  0
  8 19  1  0
  9 20  1  0
  9 21  1  0
M  END
