
     RDKit          3D

 23 23  0  0  0  0  0  0  0  0999 V2000
    2.4743    0.9924    0.3914 C   0  0  0  0  0  0  0  0  0  0  0  0
    1.6310   -0.2475    0.2835 C   0  0  0  0  0  0  0  0  0  0  0  0
    0.2998   -0.1191    0.9732 C   0  0  0  0  0  0  0  0  0  0  0  0
   -0.6096   -0.9056    0.0632 C   0  0  0  0  0  0  0  0  0  0  0  0
   -1.5572   -0.0380   -0.7056 C   0  0  0  0  0  0  0  0  0  0  0  0
   -2.4548    0.7600    0.2352 C   0  0  0  0  0  0  0  0  0  0  0  0
   -0.9068    0.8028   -1.6046 O   0  0  0  0  0  0  0  0  0  0  0  0
    0.3563   -1.5433   -0.9002 C   0  0  0  0  0  0  0  0  0  0  0  0
    1.3286   -0.5529   -1.0471 O   0  0  0  0  0  0  0  0  0  0  0  0
    2.0196    1.8853   -0.0533 H   0  0  0  0  0  0  0  0  0  0  0  0
    2.6816    1.1561    1.4685 H   0  0  0  0  0  0  0  0  0  0  0  0
    3.4474    0.7757   -0.0835 H   0  0  0  0  0  0  0  0  0  0  0  0
    2.2426   -1.0922    0.6675 H   0  0  0  0  0  0  0  0  0  0  0  0
    0.3748   -0.6955    1.9285 H   0  0  0  0  0  0  0  0  0  0  0  0
   -0.0282    0.9060    1.1396 H   0  0  0  0  0  0  0  0  0  0  0  0
   -1.2068   -1.6459    0.6261 H   0  0  0  0  0  0  0  0  0  0  0  0
   -2.2225   -0.7068   -1.2901 H   0  0  0  0  0  0  0  0  0  0  0  0
   -1.9891    1.7392    0.4971 H   0  0  0  0  0  0  0  0  0  0  0  0
   -2.6817    0.1861    1.1447 H   0  0  0  0  0  0  0  0  0  0  0  0
   -3.3903    1.0313   -0.3307 H   0  0  0  0  0  0  0  0  0  0  0  0
   -0.4440    1.5516   -1.1092 H   0  0  0  0  0  0  0  0  0  0  0  0
   -0.1416   -1.7784   -1.8677 H   0  0  0  0  0  0  0  0  0  0  0  0
    0.7767   -2.4613   -0.4267 H   0  0  0  0  0  0  0  0  0  0  0  0
  1  2  1  0
  2  3  1  0
  3  4  1  0
  4  5  1  0
  5  6  1  0
  5  7  1  0
  4  8  1  0
  8  9  1  0
  9  2  1  0
  1 10  1  0
  1 11  1  0
  1 12  1  0
  2 13  1  0
  3 14  1  0
  3 15  1  0
  4 16  1  0
  5 17  1  0
  6 18  1  0
  6 19  1  0
  6 20  1  0
  7 21  1  0
  8 22  1  0
  8 23  1  0
M  END
