
     RDKit          3D

 20 21  0  0  0  0  0  0  0  0999 V2000
    2.0709   -0.2680    0.4985 C   0  0  0  0  0  0  0  0  0  0  0  0
    0.6836   -0.6229    0.1301 C   0  0  0  0  0  0  0  0  0  0  0  0
    0.2154    0.1634   -1.1051 C   0  0  0  0  0  0  0  0  0  0  0  0
   -1.1002   -0.4967   -1.3508 C   0  0  0  0  0  0  0  0  0  0  0  0
   -1.6569   -0.4916    0.0885 C   0  0  0  0  0  0  0  0  0  0  0  0
   -0.4403    0.0860    0.7991 C   0  0  0  0  0  0  0  0  0  0  0  0
   -0.4732    0.2972    2.0994 O   0  0  0  0  0  0  0  0  0  0  0  0
   -0.1455    1.2673   -0.1375 C   0  0  0  0  0  0  0  0  0  0  0  0
    2.2866    0.7887    0.6269 H   0  0  0  0  0  0  0  0  0  0  0  0
    2.4076   -0.8327    1.3920 H   0  0  0  0  0  0  0  0  0  0  0  0
    2.7465   -0.6261   -0.3343 H   0  0  0  0  0  0  0  0  0  0  0  0
    0.5535   -1.6983   -0.0101 H   0  0  0  0  0  0  0  0  0  0  0  0
    0.9104    0.3370   -1.8760 H   0  0  0  0  0  0  0  0  0  0  0  0
   -0.9040   -1.5681   -1.5879 H   0  0  0  0  0  0  0  0  0  0  0  0
   -1.7617    0.0081   -2.0465 H   0  0  0  0  0  0  0  0  0  0  0  0
   -1.9156   -1.4940    0.4263 H   0  0  0  0  0  0  0  0  0  0  0  0
   -2.4999    0.2264    0.0754 H   0  0  0  0  0  0  0  0  0  0  0  0
   -0.5510    1.1990    2.4548 H   0  0  0  0  0  0  0  0  0  0  0  0
   -1.0791    1.7991   -0.3268 H   0  0  0  0  0  0  0  0  0  0  0  0
    0.6531    1.9263    0.1840 H   0  0  0  0  0  0  0  0  0  0  0  0
  1  2  1  0
  2  3  1  0
  3  4  1  0
  4  5  1  0
  5  6  1  0
  6  7  1  0
  6  8  1  0
  6  2  1  0
  8  3  1  0
  1  9  1  0
  1 10  1  0
  1 11  1  0
  2 12  1  0
  3 13  1  0
  4 14  1  0
  4 15  1  0
  5 16  1  0
  5 17  1  0
  7 18  1  0
  8 19  1  0
  8 20  1  0
M  END
