
     RDKit          3D

 19 19  0  0  0  0  0  0  0  0999 V2000
   -1.8454   -0.5829    0.7049 C   0  0  0  0  0  0  0  0  0  0  0  0
   -0.6527   -0.4913   -0.1633 C   0  0  0  0  0  0  0  0  0  0  0  0
   -0.8453    0.5739   -1.2403 C   0  0  0  0  0  0  0  0  0  0  0  0
    0.0279    1.5010   -0.4595 C   0  0  0  0  0  0  0  0  0  0  0  0
    0.2535    2.6921   -0.4252 O   0  0  0  0  0  0  0  0  0  0  0  0
    0.5174    0.2833    0.2840 C   0  0  0  0  0  0  0  0  0  0  0  0
    0.7071    0.5660    1.5877 O   0  0  0  0  0  0  0  0  0  0  0  0
    1.7954   -0.1951   -0.4100 C   0  0  0  0  0  0  0  0  0  0  0  0
    2.2964   -1.3475    0.1762 O   0  0  0  0  0  0  0  0  0  0  0  0
   -1.6529   -0.9090    1.7435 H   0  0  0  0  0  0  0  0  0  0  0  0
   -2.5264   -1.3726    0.2731 H   0  0  0  0  0  0  0  0  0  0  0  0
   -2.4675    0.3508    0.6834 H   0  0  0  0  0  0  0  0  0  0  0  0
   -0.4079   -1.4697   -0.6660 H   0  0  0  0  0  0  0  0  0  0  0  0
   -1.8843    0.9793   -1.2865 H   0  0  0  0  0  0  0  0  0  0  0  0
   -0.3856    0.3137   -2.1941 H   0  0  0  0  0  0  0  0  0  0  0  0
    0.1456    0.1283    2.2431 H   0  0  0  0  0  0  0  0  0  0  0  0
    2.5771    0.5874   -0.4103 H   0  0  0  0  0  0  0  0  0  0  0  0
    1.5734   -0.4512   -1.4817 H   0  0  0  0  0  0  0  0  0  0  0  0
    2.7744   -1.1565    1.0410 H   0  0  0  0  0  0  0  0  0  0  0  0
  1  2  1  0
  2  3  1  0
  3  4  1  0
  4  5  2  0
  4  6  1  0
  6  7  1  0
  6  8  1  0
  8  9  1  0
  6  2  1  0
  1 10  1  0
  1 11  1  0
  1 12  1  0
  2 13  1  0
  3 14  1  0
  3 15  1  0
  7 16  1  0
  8 17  1  0
  8 18  1  0
  9 19  1  0
M  END
