
     RDKit          3D

 23 24  0  0  0  0  0  0  0  0999 V2000
   -1.8222    1.6348    0.1183 C   0  0  0  0  0  0  0  0  0  0  0  0
   -1.0331    0.6277   -0.7044 C   0  0  0  0  0  0  0  0  0  0  0  0
   -1.5536   -0.7798   -0.3420 C   0  0  0  0  0  0  0  0  0  0  0  0
   -0.2719   -1.6136   -0.1223 C   0  0  0  0  0  0  0  0  0  0  0  0
    0.6208   -0.8488   -1.0187 C   0  0  0  0  0  0  0  0  0  0  0  0
    1.5823    0.1571   -0.8258 C   0  0  0  0  0  0  0  0  0  0  0  0
    2.7887   -0.2248    0.0455 C   0  0  0  0  0  0  0  0  0  0  0  0
    0.3641    0.5049   -0.2320 C   0  0  0  0  0  0  0  0  0  0  0  0
    0.3513    0.3769    1.1858 O   0  0  0  0  0  0  0  0  0  0  0  0
   -2.6826    2.0098   -0.4868 H   0  0  0  0  0  0  0  0  0  0  0  0
   -2.2800    1.1584    1.0157 H   0  0  0  0  0  0  0  0  0  0  0  0
   -1.1919    2.5102    0.3750 H   0  0  0  0  0  0  0  0  0  0  0  0
   -1.1261    0.8147   -1.7841 H   0  0  0  0  0  0  0  0  0  0  0  0
   -2.0306   -1.1871   -1.2554 H   0  0  0  0  0  0  0  0  0  0  0  0
   -2.1819   -0.7640    0.5413 H   0  0  0  0  0  0  0  0  0  0  0  0
   -0.4238   -2.6567   -0.3885 H   0  0  0  0  0  0  0  0  0  0  0  0
   -0.0454   -1.4935    0.9618 H   0  0  0  0  0  0  0  0  0  0  0  0
    0.1771   -0.8860   -2.0639 H   0  0  0  0  0  0  0  0  0  0  0  0
    1.9477    0.7622   -1.6949 H   0  0  0  0  0  0  0  0  0  0  0  0
    3.4640    0.6430    0.1781 H   0  0  0  0  0  0  0  0  0  0  0  0
    3.3205   -1.0995   -0.3927 H   0  0  0  0  0  0  0  0  0  0  0  0
    2.3540   -0.5797    1.0018 H   0  0  0  0  0  0  0  0  0  0  0  0
   -0.3271    0.9337    1.5962 H   0  0  0  0  0  0  0  0  0  0  0  0
  1  2  1  0
  2  3  1  0
  3  4  1  0
  4  5  1  0
  5  6  1  0
  6  7  1  0
  6  8  1  0
  8  9  1  0
  8  2  1  0
  8  5  1  0
  1 10  1  0
  1 11  1  0
  1 12  1  0
  2 13  1  0
  3 14  1  0
  3 15  1  0
  4 16  1  0
  4 17  1  0
  5 18  1  0
  6 19  1  0
  7 20  1  0
  7 21  1  0
  7 22  1  0
  9 23  1  0
M  END
