
     RDKit          3D

 21 22  0  0  0  0  0  0  0  0999 V2000
    2.1033   -0.4343   -0.3973 C   0  0  0  0  0  0  0  0  0  0  0  0
    1.0595    0.0093    0.6303 C   0  0  0  0  0  0  0  0  0  0  0  0
    0.1818   -1.1615    0.8855 C   0  0  0  0  0  0  0  0  0  0  0  0
    0.1835   -1.7992    1.9154 O   0  0  0  0  0  0  0  0  0  0  0  0
   -0.7399   -1.5143   -0.2579 C   0  0  0  0  0  0  0  0  0  0  0  0
   -1.5925   -0.3239   -0.5043 C   0  0  0  0  0  0  0  0  0  0  0  0
   -0.9008    0.9704   -0.6215 C   0  0  0  0  0  0  0  0  0  0  0  0
   -0.8530    1.7748    0.6948 C   0  0  0  0  0  0  0  0  0  0  0  0
    0.3472    1.1836    0.0681 C   0  0  0  0  0  0  0  0  0  0  0  0
    2.1422    0.2569   -1.2635 H   0  0  0  0  0  0  0  0  0  0  0  0
    1.8661   -1.4344   -0.8134 H   0  0  0  0  0  0  0  0  0  0  0  0
    3.1247   -0.4669    0.0599 H   0  0  0  0  0  0  0  0  0  0  0  0
    1.6098    0.2225    1.5808 H   0  0  0  0  0  0  0  0  0  0  0  0
   -1.3726   -2.3540    0.0609 H   0  0  0  0  0  0  0  0  0  0  0  0
   -0.1529   -1.8490   -1.1345 H   0  0  0  0  0  0  0  0  0  0  0  0
   -2.1940   -0.5297   -1.4356 H   0  0  0  0  0  0  0  0  0  0  0  0
   -2.3741   -0.2907    0.3108 H   0  0  0  0  0  0  0  0  0  0  0  0
   -1.1166    1.5793   -1.5474 H   0  0  0  0  0  0  0  0  0  0  0  0
   -1.0406    2.8684    0.5774 H   0  0  0  0  0  0  0  0  0  0  0  0
   -1.3345    1.3527    1.5805 H   0  0  0  0  0  0  0  0  0  0  0  0
    1.0535    1.9402   -0.3890 H   0  0  0  0  0  0  0  0  0  0  0  0
  1  2  1  0
  2  3  1  0
  3  4  2  0
  3  5  1  0
  5  6  1  0
  6  7  1  0
  7  8  1  0
  8  9  1  0
  9  2  1  0
  9  7  1  0
  1 10  1  0
  1 11  1  0
  1 12  1  0
  2 13  1  0
  5 14  1  0
  5 15  1  0
  6 16  1  0
  6 17  1  0
  7 18  1  0
  8 19  1  0
  8 20  1  0
  9 21  1  0
M  END
