
     RDKit          3D

 19 20  0  0  0  0  0  0  0  0999 V2000
    2.7681    0.1802   -0.1058 C   0  0  0  0  0  0  0  0  0  0  0  0
    1.4311   -0.1116    0.4874 C   0  0  0  0  0  0  0  0  0  0  0  0
    0.5558    1.1228    0.5434 C   0  0  0  0  0  0  0  0  0  0  0  0
   -0.6774    0.6993    0.3987 C   0  0  0  0  0  0  0  0  0  0  0  0
   -2.1361    0.9116    0.3001 C   0  0  0  0  0  0  0  0  0  0  0  0
   -2.4757    0.0178   -0.7093 O   0  0  0  0  0  0  0  0  0  0  0  0
   -1.7687   -1.1394   -0.5534 C   0  0  0  0  0  0  0  0  0  0  0  0
   -0.5734   -0.8106    0.2683 C   0  0  0  0  0  0  0  0  0  0  0  0
    0.6336   -0.8996   -0.3915 O   0  0  0  0  0  0  0  0  0  0  0  0
    2.7140    1.0823   -0.7404 H   0  0  0  0  0  0  0  0  0  0  0  0
    3.5077    0.3167    0.6932 H   0  0  0  0  0  0  0  0  0  0  0  0
    3.0728   -0.6948   -0.7360 H   0  0  0  0  0  0  0  0  0  0  0  0
    1.4460   -0.6336    1.4421 H   0  0  0  0  0  0  0  0  0  0  0  0
    0.8876    2.1393    0.6755 H   0  0  0  0  0  0  0  0  0  0  0  0
   -2.6563    0.5997    1.2168 H   0  0  0  0  0  0  0  0  0  0  0  0
   -2.4068    1.9235   -0.0494 H   0  0  0  0  0  0  0  0  0  0  0  0
   -2.3772   -1.9625   -0.1181 H   0  0  0  0  0  0  0  0  0  0  0  0
   -1.3760   -1.4609   -1.5629 H   0  0  0  0  0  0  0  0  0  0  0  0
   -0.5691   -1.2801    1.2711 H   0  0  0  0  0  0  0  0  0  0  0  0
  1  2  1  0
  2  3  1  0
  3  4  2  0
  4  5  1  0
  5  6  1  0
  6  7  1  0
  7  8  1  0
  8  9  1  0
  9  2  1  0
  8  4  1  0
  1 10  1  0
  1 11  1  0
  1 12  1  0
  2 13  1  0
  3 14  1  0
  5 15  1  0
  5 16  1  0
  7 17  1  0
  7 18  1  0
  8 19  1  0
M  END
