
     RDKit          3D

 23 25  0  0  0  0  0  0  0  0999 V2000
    2.4025   -0.3085    0.0053 C   0  0  0  0  0  0  0  0  0  0  0  0
    1.1535    0.4760   -0.0892 C   0  0  0  0  0  0  0  0  0  0  0  0
    0.0513   -0.1031   -0.9639 C   0  0  0  0  0  0  0  0  0  0  0  0
   -0.1348   -1.5585   -0.6283 C   0  0  0  0  0  0  0  0  0  0  0  0
   -1.2208   -1.6193    0.4125 C   0  0  0  0  0  0  0  0  0  0  0  0
   -1.0711   -0.2576    1.0803 C   0  0  0  0  0  0  0  0  0  0  0  0
    0.2067    0.4575    1.0530 C   0  0  0  0  0  0  0  0  0  0  0  0
   -0.8792    0.6255   -0.0376 C   0  0  0  0  0  0  0  0  0  0  0  0
   -1.3700    1.9722   -0.2670 C   0  0  0  0  0  0  0  0  0  0  0  0
    3.2861    0.3758   -0.1601 H   0  0  0  0  0  0  0  0  0  0  0  0
    2.4866   -1.0618   -0.8224 H   0  0  0  0  0  0  0  0  0  0  0  0
    2.5570   -0.7853    0.9903 H   0  0  0  0  0  0  0  0  0  0  0  0
    1.3197    1.5409   -0.4287 H   0  0  0  0  0  0  0  0  0  0  0  0
    0.0601    0.1797   -2.0067 H   0  0  0  0  0  0  0  0  0  0  0  0
   -0.4830   -2.1519   -1.5076 H   0  0  0  0  0  0  0  0  0  0  0  0
    0.7886   -2.0259   -0.2308 H   0  0  0  0  0  0  0  0  0  0  0  0
   -1.1260   -2.4504    1.1156 H   0  0  0  0  0  0  0  0  0  0  0  0
   -2.1901   -1.5995   -0.1237 H   0  0  0  0  0  0  0  0  0  0  0  0
   -1.7555   -0.0580    1.9001 H   0  0  0  0  0  0  0  0  0  0  0  0
    0.3303    1.2809    1.7759 H   0  0  0  0  0  0  0  0  0  0  0  0
   -2.2030    1.9611   -1.0007 H   0  0  0  0  0  0  0  0  0  0  0  0
   -0.5684    2.6157   -0.7361 H   0  0  0  0  0  0  0  0  0  0  0  0
   -1.6406    2.4946    0.6698 H   0  0  0  0  0  0  0  0  0  0  0  0
  1  2  1  0
  2  3  1  0
  3  4  1  0
  4  5  1  0
  5  6  1  0
  6  7  1  0
  7  8  1  0
  8  9  1  0
  7  2  1  0
  8  3  1  0
  8  6  1  0
  1 10  1  0
  1 11  1  0
  1 12  1  0
  2 13  1  0
  3 14  1  0
  4 15  1  0
  4 16  1  0
  5 17  1  0
  5 18  1  0
  6 19  1  0
  7 20  1  0
  9 21  1  0
  9 22  1  0
  9 23  1  0
M  END
