
     RDKit          3D

 23 24  0  0  0  0  0  0  0  0999 V2000
    1.1696    1.0572   -1.2675 C   0  0  0  0  0  0  0  0  0  0  0  0
    1.3753    0.1874   -0.0723 C   0  0  0  0  0  0  0  0  0  0  0  0
    1.9962   -1.1543   -0.4062 C   0  0  0  0  0  0  0  0  0  0  0  0
    0.7684   -1.9521   -0.6745 C   0  0  0  0  0  0  0  0  0  0  0  0
   -0.3152   -1.4625   -0.1251 C   0  0  0  0  0  0  0  0  0  0  0  0
   -1.6663   -1.1234    0.3810 C   0  0  0  0  0  0  0  0  0  0  0  0
   -1.1822    0.3380    0.2200 C   0  0  0  0  0  0  0  0  0  0  0  0
   -1.8908    1.2184    1.2118 C   0  0  0  0  0  0  0  0  0  0  0  0
    0.1299   -0.2136    0.6276 C   0  0  0  0  0  0  0  0  0  0  0  0
    0.4236    0.5625   -1.9341 H   0  0  0  0  0  0  0  0  0  0  0  0
    2.0727    1.2678   -1.8391 H   0  0  0  0  0  0  0  0  0  0  0  0
    0.7229    2.0223   -0.9531 H   0  0  0  0  0  0  0  0  0  0  0  0
    2.0496    0.6863    0.6381 H   0  0  0  0  0  0  0  0  0  0  0  0
    2.5632   -1.0881   -1.3585 H   0  0  0  0  0  0  0  0  0  0  0  0
    2.5521   -1.5874    0.4223 H   0  0  0  0  0  0  0  0  0  0  0  0
    0.7850   -2.8684   -1.2815 H   0  0  0  0  0  0  0  0  0  0  0  0
   -1.7878   -1.3498    1.4484 H   0  0  0  0  0  0  0  0  0  0  0  0
   -2.5082   -1.3722   -0.2772 H   0  0  0  0  0  0  0  0  0  0  0  0
   -1.2569    0.7252   -0.7915 H   0  0  0  0  0  0  0  0  0  0  0  0
   -1.2218    2.0539    1.4963 H   0  0  0  0  0  0  0  0  0  0  0  0
   -2.2648    0.6589    2.1006 H   0  0  0  0  0  0  0  0  0  0  0  0
   -2.7767    1.6700    0.7319 H   0  0  0  0  0  0  0  0  0  0  0  0
    0.2620   -0.3811    1.7025 H   0  0  0  0  0  0  0  0  0  0  0  0
  1  2  1  0
  2  3  1  0
  3  4  1  0
  4  5  2  0
  5  6  1  0
  6  7  1  0
  7  8  1  0
  7  9  1  0
  9  2  1  0
  9  5  1  0
  1 10  1  0
  1 11  1  0
  1 12  1  0
  2 13  1  0
  3 14  1  0
  3 15  1  0
  4 16  1  0
  6 17  1  0
  6 18  1  0
  7 19  1  0
  8 20  1  0
  8 21  1  0
  8 22  1  0
  9 23  1  0
M  END
