
     RDKit          3D

 20 20  0  0  0  0  0  0  0  0999 V2000
   -1.8222    0.0654    0.4075 C   0  0  0  0  0  0  0  0  0  0  0  0
   -0.7886    0.1472   -0.7260 C   0  0  0  0  0  0  0  0  0  0  0  0
    0.0332   -1.1020   -0.7967 C   0  0  0  0  0  0  0  0  0  0  0  0
    0.8449   -1.3981    0.4032 C   0  0  0  0  0  0  0  0  0  0  0  0
    2.0464   -0.6678    0.3729 O   0  0  0  0  0  0  0  0  0  0  0  0
    1.6803    0.6504    0.7295 C   0  0  0  0  0  0  0  0  0  0  0  0
    1.3162    1.2938   -0.4150 O   0  0  0  0  0  0  0  0  0  0  0  0
   -0.0238    1.4080   -0.6419 C   0  0  0  0  0  0  0  0  0  0  0  0
   -2.5826   -0.6694    0.0947 H   0  0  0  0  0  0  0  0  0  0  0  0
   -2.2622    1.1001    0.4838 H   0  0  0  0  0  0  0  0  0  0  0  0
   -1.3675   -0.1467    1.3708 H   0  0  0  0  0  0  0  0  0  0  0  0
   -1.4253    0.1454   -1.6614 H   0  0  0  0  0  0  0  0  0  0  0  0
    0.6784   -1.0431   -1.6769 H   0  0  0  0  0  0  0  0  0  0  0  0
   -0.6925   -1.9516   -0.9441 H   0  0  0  0  0  0  0  0  0  0  0  0
    0.3812   -1.1975    1.3685 H   0  0  0  0  0  0  0  0  0  0  0  0
    1.1437   -2.4724    0.3722 H   0  0  0  0  0  0  0  0  0  0  0  0
    0.8965    0.6411    1.5137 H   0  0  0  0  0  0  0  0  0  0  0  0
    2.5682    1.1352    1.1913 H   0  0  0  0  0  0  0  0  0  0  0  0
   -0.1399    1.9965   -1.5987 H   0  0  0  0  0  0  0  0  0  0  0  0
   -0.4842    2.0656    0.1525 H   0  0  0  0  0  0  0  0  0  0  0  0
  1  2  1  0
  2  3  1  0
  3  4  1  0
  4  5  1  0
  5  6  1  0
  6  7  1  0
  7  8  1  0
  8  2  1  0
  1  9  1  0
  1 10  1  0
  1 11  1  0
  2 12  1  0
  3 13  1  0
  3 14  1  0
  4 15  1  0
  4 16  1  0
  6 17  1  0
  6 18  1  0
  8 19  1  0
  8 20  1  0
M  END
