
     RDKit          3D

 17 17  0  0  0  0  0  0  0  0999 V2000
   -1.2464    1.4272   -0.2017 C   0  0  0  0  0  0  0  0  0  0  0  0
   -0.6053    0.2536    0.4602 C   0  0  0  0  0  0  0  0  0  0  0  0
   -1.0464   -1.1014   -0.1025 C   0  0  0  0  0  0  0  0  0  0  0  0
    0.3652   -1.5613    0.1562 C   0  0  0  0  0  0  0  0  0  0  0  0
    0.9309   -2.6066    0.4281 O   0  0  0  0  0  0  0  0  0  0  0  0
    0.7675   -0.1231   -0.0766 C   0  0  0  0  0  0  0  0  0  0  0  0
    0.8646    0.0962   -1.4335 O   0  0  0  0  0  0  0  0  0  0  0  0
    1.8957    0.3314    0.7470 C   0  0  0  0  0  0  0  0  0  0  0  0
    1.8454    0.1550    1.9467 O   0  0  0  0  0  0  0  0  0  0  0  0
   -2.2033    1.1728   -0.7171 H   0  0  0  0  0  0  0  0  0  0  0  0
   -0.5765    1.8412   -0.9621 H   0  0  0  0  0  0  0  0  0  0  0  0
   -1.4596    2.2727    0.5123 H   0  0  0  0  0  0  0  0  0  0  0  0
   -0.6006    0.2430    1.5656 H   0  0  0  0  0  0  0  0  0  0  0  0
   -1.8092   -1.6104    0.4859 H   0  0  0  0  0  0  0  0  0  0  0  0
   -1.2393   -1.0008   -1.1890 H   0  0  0  0  0  0  0  0  0  0  0  0
    1.3797   -0.5940   -1.9211 H   0  0  0  0  0  0  0  0  0  0  0  0
    2.7375    0.8044    0.3014 H   0  0  0  0  0  0  0  0  0  0  0  0
  1  2  1  0
  2  3  1  0
  3  4  1  0
  4  5  2  0
  4  6  1  0
  6  7  1  0
  6  8  1  0
  8  9  2  0
  6  2  1  0
  1 10  1  0
  1 11  1  0
  1 12  1  0
  2 13  1  0
  3 14  1  0
  3 15  1  0
  7 16  1  0
  8 17  1  0
M  END
