
     RDKit          3D

 19 19  0  0  0  0  0  0  0  0999 V2000
   -1.5561    1.2941   -0.1791 C   0  0  0  0  0  0  0  0  0  0  0  0
   -0.4461    0.3034   -0.3914 C   0  0  0  0  0  0  0  0  0  0  0  0
   -0.6133   -0.9987    0.4055 C   0  0  0  0  0  0  0  0  0  0  0  0
   -1.1638   -2.0380   -0.2903 O   0  0  0  0  0  0  0  0  0  0  0  0
    0.9217   -0.9925    0.4632 C   0  0  0  0  0  0  0  0  0  0  0  0
    1.4100   -1.3844   -0.7668 O   0  0  0  0  0  0  0  0  0  0  0  0
    0.7844    0.5355    0.4921 C   0  0  0  0  0  0  0  0  0  0  0  0
    1.8595    1.2629   -0.1941 C   0  0  0  0  0  0  0  0  0  0  0  0
    1.7498    1.7229   -1.3164 O   0  0  0  0  0  0  0  0  0  0  0  0
   -2.1491    1.3119   -1.1375 H   0  0  0  0  0  0  0  0  0  0  0  0
   -2.2809    0.9390    0.5959 H   0  0  0  0  0  0  0  0  0  0  0  0
   -1.2119    2.2952    0.1193 H   0  0  0  0  0  0  0  0  0  0  0  0
   -0.1009    0.1576   -1.4230 H   0  0  0  0  0  0  0  0  0  0  0  0
   -0.9938   -0.7795    1.4087 H   0  0  0  0  0  0  0  0  0  0  0  0
   -1.6172   -2.6363    0.3853 H   0  0  0  0  0  0  0  0  0  0  0  0
    1.3511   -1.4382    1.3528 H   0  0  0  0  0  0  0  0  0  0  0  0
    0.7078   -1.8003   -1.3548 H   0  0  0  0  0  0  0  0  0  0  0  0
    0.5486    0.8381    1.5263 H   0  0  0  0  0  0  0  0  0  0  0  0
    2.8003    1.4072    0.3042 H   0  0  0  0  0  0  0  0  0  0  0  0
  1  2  1  0
  2  3  1  0
  3  4  1  0
  3  5  1  0
  5  6  1  0
  5  7  1  0
  7  8  1  0
  8  9  2  0
  7  2  1  0
  1 10  1  0
  1 11  1  0
  1 12  1  0
  2 13  1  0
  3 14  1  0
  4 15  1  0
  5 16  1  0
  6 17  1  0
  7 18  1  0
  8 19  1  0
M  END
