
     RDKit          3D

 21 23  0  0  0  0  0  0  0  0999 V2000
   -1.8243   -1.2801    0.0315 C   0  0  0  0  0  0  0  0  0  0  0  0
   -0.5318   -0.7810   -0.5743 C   0  0  0  0  0  0  0  0  0  0  0  0
   -0.5582    0.6869   -0.8853 C   0  0  0  0  0  0  0  0  0  0  0  0
   -1.1556    1.6491    0.0487 C   0  0  0  0  0  0  0  0  0  0  0  0
    0.2781    1.3748    0.1590 C   0  0  0  0  0  0  0  0  0  0  0  0
    0.8727    0.2967    0.9746 C   0  0  0  0  0  0  0  0  0  0  0  0
    1.9375   -0.5432    0.2266 C   0  0  0  0  0  0  0  0  0  0  0  0
    2.3871   -0.0437   -0.9936 O   0  0  0  0  0  0  0  0  0  0  0  0
    0.5626   -1.0184    0.4211 C   0  0  0  0  0  0  0  0  0  0  0  0
   -2.4091   -1.9098   -0.6986 H   0  0  0  0  0  0  0  0  0  0  0  0
   -2.5113   -0.4617    0.3188 H   0  0  0  0  0  0  0  0  0  0  0  0
   -1.6395   -1.8598    0.9706 H   0  0  0  0  0  0  0  0  0  0  0  0
   -0.3757   -1.3176   -1.5402 H   0  0  0  0  0  0  0  0  0  0  0  0
   -0.3321    1.0271   -1.9216 H   0  0  0  0  0  0  0  0  0  0  0  0
   -1.4313    2.6428   -0.3837 H   0  0  0  0  0  0  0  0  0  0  0  0
   -1.7987    1.3629    0.8886 H   0  0  0  0  0  0  0  0  0  0  0  0
    1.0012    2.1771   -0.1619 H   0  0  0  0  0  0  0  0  0  0  0  0
    1.1143    0.4901    2.0305 H   0  0  0  0  0  0  0  0  0  0  0  0
    2.7261   -0.9835    0.8400 H   0  0  0  0  0  0  0  0  0  0  0  0
    3.2557    0.4147   -0.7909 H   0  0  0  0  0  0  0  0  0  0  0  0
    0.4322   -1.9234    1.0402 H   0  0  0  0  0  0  0  0  0  0  0  0
  1  2  1  0
  2  3  1  0
  3  4  1  0
  4  5  1  0
  5  6  1  0
  6  7  1  0
  7  8  1  0
  7  9  1  0
  9  2  1  0
  5  3  1  0
  9  6  1  0
  1 10  1  0
  1 11  1  0
  1 12  1  0
  2 13  1  0
  3 14  1  0
  4 15  1  0
  4 16  1  0
  5 17  1  0
  6 18  1  0
  7 19  1  0
  8 20  1  0
  9 21  1  0
M  END
