
     RDKit          3D

 21 21  0  0  0  0  0  0  0  0999 V2000
    1.9398   -0.1219    0.6496 C   0  0  0  0  0  0  0  0  0  0  0  0
    1.0297   -0.0856   -0.5882 C   0  0  0  0  0  0  0  0  0  0  0  0
    0.5213    1.2670   -0.7158 C   0  0  0  0  0  0  0  0  0  0  0  0
   -0.5870    1.8964   -0.3947 C   0  0  0  0  0  0  0  0  0  0  0  0
   -1.7509    1.2506    0.2802 C   0  0  0  0  0  0  0  0  0  0  0  0
   -1.9884    0.0546   -0.3770 O   0  0  0  0  0  0  0  0  0  0  0  0
   -1.1985   -0.9252    0.2463 C   0  0  0  0  0  0  0  0  0  0  0  0
    0.0669   -1.1891   -0.4960 C   0  0  0  0  0  0  0  0  0  0  0  0
    0.6397   -2.3455    0.0897 O   0  0  0  0  0  0  0  0  0  0  0  0
    2.8907    0.4337    0.4405 H   0  0  0  0  0  0  0  0  0  0  0  0
    1.4665    0.4152    1.5041 H   0  0  0  0  0  0  0  0  0  0  0  0
    2.1133   -1.1556    0.9843 H   0  0  0  0  0  0  0  0  0  0  0  0
    1.7324   -0.3077   -1.4463 H   0  0  0  0  0  0  0  0  0  0  0  0
    1.2395    1.9522   -1.2059 H   0  0  0  0  0  0  0  0  0  0  0  0
   -0.6792    2.9620   -0.6298 H   0  0  0  0  0  0  0  0  0  0  0  0
   -1.5614    1.0790    1.3583 H   0  0  0  0  0  0  0  0  0  0  0  0
   -2.6662    1.8905    0.1151 H   0  0  0  0  0  0  0  0  0  0  0  0
   -1.8081   -1.8568    0.2154 H   0  0  0  0  0  0  0  0  0  0  0  0
   -1.0458   -0.6994    1.3191 H   0  0  0  0  0  0  0  0  0  0  0  0
   -0.2329   -1.5338   -1.5244 H   0  0  0  0  0  0  0  0  0  0  0  0
   -0.1214   -2.9806    0.1755 H   0  0  0  0  0  0  0  0  0  0  0  0
  1  2  1  0
  2  3  1  0
  3  4  2  0
  4  5  1  0
  5  6  1  0
  6  7  1  0
  7  8  1  0
  8  9  1  0
  8  2  1  0
  1 10  1  0
  1 11  1  0
  1 12  1  0
  2 13  1  0
  3 14  1  0
  4 15  1  0
  5 16  1  0
  5 17  1  0
  7 18  1  0
  7 19  1  0
  8 20  1  0
  9 21  1  0
M  END
