
     RDKit          3D

 23 24  0  0  0  0  0  0  0  0999 V2000
   -2.1036    1.2398    0.0182 C   0  0  0  0  0  0  0  0  0  0  0  0
   -1.5692    0.2173    0.9733 C   0  0  0  0  0  0  0  0  0  0  0  0
   -1.1376   -1.1351    0.4060 C   0  0  0  0  0  0  0  0  0  0  0  0
   -1.3506   -1.2755   -1.0675 C   0  0  0  0  0  0  0  0  0  0  0  0
   -0.1497   -0.1825    0.9728 C   0  0  0  0  0  0  0  0  0  0  0  0
    0.8596    0.5110    0.0971 C   0  0  0  0  0  0  0  0  0  0  0  0
    2.2266   -0.0831    0.2837 C   0  0  0  0  0  0  0  0  0  0  0  0
    3.3447    0.4518   -0.4775 C   0  0  0  0  0  0  0  0  0  0  0  0
    2.7284   -0.8346   -0.8927 O   0  0  0  0  0  0  0  0  0  0  0  0
   -1.3056    1.7925   -0.5220 H   0  0  0  0  0  0  0  0  0  0  0  0
   -2.8247    0.7840   -0.7191 H   0  0  0  0  0  0  0  0  0  0  0  0
   -2.6946    2.0013    0.5675 H   0  0  0  0  0  0  0  0  0  0  0  0
   -2.0750    0.2009    1.9800 H   0  0  0  0  0  0  0  0  0  0  0  0
   -1.4676   -2.0147    1.0271 H   0  0  0  0  0  0  0  0  0  0  0  0
   -0.6150   -1.9405   -1.5523 H   0  0  0  0  0  0  0  0  0  0  0  0
   -2.3584   -1.7468   -1.2359 H   0  0  0  0  0  0  0  0  0  0  0  0
   -1.2865   -0.2862   -1.5635 H   0  0  0  0  0  0  0  0  0  0  0  0
    0.3016   -0.5287    1.9485 H   0  0  0  0  0  0  0  0  0  0  0  0
    0.5421    0.3836   -0.9564 H   0  0  0  0  0  0  0  0  0  0  0  0
    0.8844    1.6040    0.2811 H   0  0  0  0  0  0  0  0  0  0  0  0
    2.4482   -0.6228    1.2197 H   0  0  0  0  0  0  0  0  0  0  0  0
    3.2174    1.2114   -1.2659 H   0  0  0  0  0  0  0  0  0  0  0  0
    4.3850    0.2529   -0.1990 H   0  0  0  0  0  0  0  0  0  0  0  0
  1  2  1  0
  2  3  1  0
  3  4  1  0
  3  5  1  0
  5  6  1  0
  6  7  1  0
  7  8  1  0
  8  9  1  0
  5  2  1  0
  9  7  1  0
  1 10  1  0
  1 11  1  0
  1 12  1  0
  2 13  1  0
  3 14  1  0
  4 15  1  0
  4 16  1  0
  4 17  1  0
  5 18  1  0
  6 19  1  0
  6 20  1  0
  7 21  1  0
  8 22  1  0
  8 23  1  0
M  END
