
     RDKit          3D

 21 22  0  0  0  0  0  0  0  0999 V2000
    2.2333    1.0408   -0.2565 C   0  0  0  0  0  0  0  0  0  0  0  0
    1.2598    0.0113   -0.7750 C   0  0  0  0  0  0  0  0  0  0  0  0
    0.9842   -0.9690    0.3079 C   0  0  0  0  0  0  0  0  0  0  0  0
   -0.4575   -0.6639    0.6734 C   0  0  0  0  0  0  0  0  0  0  0  0
   -0.7931   -0.5339    1.9969 O   0  0  0  0  0  0  0  0  0  0  0  0
   -1.4451   -1.2087   -0.3277 C   0  0  0  0  0  0  0  0  0  0  0  0
   -0.9295    0.2372   -0.3730 C   0  0  0  0  0  0  0  0  0  0  0  0
   -2.0390    1.2417   -0.1439 C   0  0  0  0  0  0  0  0  0  0  0  0
    0.0921    0.5391   -1.2311 O   0  0  0  0  0  0  0  0  0  0  0  0
    2.8024    0.6014    0.5960 H   0  0  0  0  0  0  0  0  0  0  0  0
    2.9765    1.2778   -1.0352 H   0  0  0  0  0  0  0  0  0  0  0  0
    1.7053    1.9557    0.0465 H   0  0  0  0  0  0  0  0  0  0  0  0
    1.7701   -0.5377   -1.6126 H   0  0  0  0  0  0  0  0  0  0  0  0
    1.6664   -0.8788    1.1810 H   0  0  0  0  0  0  0  0  0  0  0  0
    1.0307   -2.0170   -0.0497 H   0  0  0  0  0  0  0  0  0  0  0  0
   -0.2988   -1.2438    2.5024 H   0  0  0  0  0  0  0  0  0  0  0  0
   -2.4401   -1.4084    0.0624 H   0  0  0  0  0  0  0  0  0  0  0  0
   -1.0873   -1.8051   -1.1891 H   0  0  0  0  0  0  0  0  0  0  0  0
   -1.6953    2.2679   -0.0409 H   0  0  0  0  0  0  0  0  0  0  0  0
   -2.6328    0.8784    0.7197 H   0  0  0  0  0  0  0  0  0  0  0  0
   -2.7022    1.2151   -1.0516 H   0  0  0  0  0  0  0  0  0  0  0  0
  1  2  1  0
  2  3  1  0
  3  4  1  0
  4  5  1  0
  4  6  1  0
  6  7  1  0
  7  8  1  0
  7  9  1  0
  9  2  1  0
  7  4  1  0
  1 10  1  0
  1 11  1  0
  1 12  1  0
  2 13  1  0
  3 14  1  0
  3 15  1  0
  5 16  1  0
  6 17  1  0
  6 18  1  0
  8 19  1  0
  8 20  1  0
  8 21  1  0
M  END
