
     RDKit          3D

 21 22  0  0  0  0  0  0  0  0999 V2000
   -2.4069   -1.0106    0.3416 C   0  0  0  0  0  0  0  0  0  0  0  0
   -1.0858   -0.4870   -0.1291 C   0  0  0  0  0  0  0  0  0  0  0  0
   -1.0629    1.0109    0.0071 C   0  0  0  0  0  0  0  0  0  0  0  0
    0.3071    1.5943   -0.0070 C   0  0  0  0  0  0  0  0  0  0  0  0
    1.3818    0.6772   -0.4683 C   0  0  0  0  0  0  0  0  0  0  0  0
    2.4723    0.6399    0.4121 O   0  0  0  0  0  0  0  0  0  0  0  0
    2.4365   -0.7688    0.4522 C   0  0  0  0  0  0  0  0  0  0  0  0
    1.1211   -0.7725   -0.2332 C   0  0  0  0  0  0  0  0  0  0  0  0
   -0.0030   -0.9950    0.5619 O   0  0  0  0  0  0  0  0  0  0  0  0
   -3.1984   -0.4345   -0.1918 H   0  0  0  0  0  0  0  0  0  0  0  0
   -2.5743   -2.0778    0.0546 H   0  0  0  0  0  0  0  0  0  0  0  0
   -2.5250   -0.8453    1.4229 H   0  0  0  0  0  0  0  0  0  0  0  0
   -0.9436   -0.7886   -1.2037 H   0  0  0  0  0  0  0  0  0  0  0  0
   -1.7121    1.4138   -0.8139 H   0  0  0  0  0  0  0  0  0  0  0  0
   -1.5709    1.2444    0.9877 H   0  0  0  0  0  0  0  0  0  0  0  0
    0.2853    2.4679   -0.7228 H   0  0  0  0  0  0  0  0  0  0  0  0
    0.5607    2.0045    0.9957 H   0  0  0  0  0  0  0  0  0  0  0  0
    1.7357    0.8394   -1.5123 H   0  0  0  0  0  0  0  0  0  0  0  0
    3.2376   -1.1318   -0.2540 H   0  0  0  0  0  0  0  0  0  0  0  0
    2.5144   -1.1881    1.4535 H   0  0  0  0  0  0  0  0  0  0  0  0
    1.0303   -1.3923   -1.1534 H   0  0  0  0  0  0  0  0  0  0  0  0
  1  2  1  0
  2  3  1  0
  3  4  1  0
  4  5  1  0
  5  6  1  0
  6  7  1  0
  7  8  1  0
  8  9  1  0
  9  2  1  0
  8  5  1  0
  1 10  1  0
  1 11  1  0
  1 12  1  0
  2 13  1  0
  3 14  1  0
  3 15  1  0
  4 16  1  0
  4 17  1  0
  5 18  1  0
  7 19  1  0
  7 20  1  0
  8 21  1  0
M  END
