
     RDKit          3D

 19 20  0  0  0  0  0  0  0  0999 V2000
   -1.9058   -0.0696    0.0281 C   0  0  0  0  0  0  0  0  0  0  0  0
   -0.6102   -0.5004   -0.5677 C   0  0  0  0  0  0  0  0  0  0  0  0
    0.2121   -1.3661    0.4108 C   0  0  0  0  0  0  0  0  0  0  0  0
    0.4204   -0.3293    1.4898 C   0  0  0  0  0  0  0  0  0  0  0  0
    0.4493    0.8807    0.9326 C   0  0  0  0  0  0  0  0  0  0  0  0
    0.4417    0.6276   -0.5315 C   0  0  0  0  0  0  0  0  0  0  0  0
    0.2135    1.6491   -1.3386 O   0  0  0  0  0  0  0  0  0  0  0  0
    1.6662   -0.2252   -0.8089 C   0  0  0  0  0  0  0  0  0  0  0  0
    1.3766   -1.4989   -0.3003 O   0  0  0  0  0  0  0  0  0  0  0  0
   -2.7603   -0.5361   -0.5414 H   0  0  0  0  0  0  0  0  0  0  0  0
   -1.9838   -0.2513    1.1143 H   0  0  0  0  0  0  0  0  0  0  0  0
   -2.0032    1.0367   -0.1282 H   0  0  0  0  0  0  0  0  0  0  0  0
   -0.6708   -0.9580   -1.5545 H   0  0  0  0  0  0  0  0  0  0  0  0
   -0.2842   -2.2483    0.7279 H   0  0  0  0  0  0  0  0  0  0  0  0
    0.5319   -0.5112    2.5555 H   0  0  0  0  0  0  0  0  0  0  0  0
    0.4738    1.8708    1.3646 H   0  0  0  0  0  0  0  0  0  0  0  0
   -0.0013    2.4841   -0.8381 H   0  0  0  0  0  0  0  0  0  0  0  0
    2.4834    0.1789   -0.1546 H   0  0  0  0  0  0  0  0  0  0  0  0
    1.9505   -0.2334   -1.8597 H   0  0  0  0  0  0  0  0  0  0  0  0
  1  2  1  0
  2  3  1  0
  3  4  1  0
  4  5  2  0
  5  6  1  0
  6  7  1  0
  6  8  1  0
  8  9  1  0
  6  2  1  0
  9  3  1  0
  1 10  1  0
  1 11  1  0
  1 12  1  0
  2 13  1  0
  3 14  1  0
  4 15  1  0
  5 16  1  0
  7 17  1  0
  8 18  1  0
  8 19  1  0
M  END
