
     RDKit          3D

 17 17  0  0  0  0  0  0  0  0999 V2000
   -2.1762    0.0253    0.1510 C   0  0  0  0  0  0  0  0  0  0  0  0
   -0.7254   -0.0228   -0.1604 C   0  0  0  0  0  0  0  0  0  0  0  0
    0.0106    1.2622    0.1151 C   0  0  0  0  0  0  0  0  0  0  0  0
    1.4478    1.0185   -0.1614 C   0  0  0  0  0  0  0  0  0  0  0  0
    2.2876    1.9493   -0.2182 O   0  0  0  0  0  0  0  0  0  0  0  0
    1.9049   -0.3483   -0.3751 C   0  0  0  0  0  0  0  0  0  0  0  0
    3.0272   -0.6318   -0.8566 O   0  0  0  0  0  0  0  0  0  0  0  0
    0.9876   -1.4552   -0.0004 C   0  0  0  0  0  0  0  0  0  0  0  0
   -0.1321   -1.0024    0.6654 O   0  0  0  0  0  0  0  0  0  0  0  0
   -2.3902   -0.2219    1.2204 H   0  0  0  0  0  0  0  0  0  0  0  0
   -2.6722   -0.8081   -0.4278 H   0  0  0  0  0  0  0  0  0  0  0  0
   -2.6908    0.9477   -0.1354 H   0  0  0  0  0  0  0  0  0  0  0  0
   -0.5428   -0.2758   -1.2272 H   0  0  0  0  0  0  0  0  0  0  0  0
   -0.3340    2.0864   -0.5621 H   0  0  0  0  0  0  0  0  0  0  0  0
   -0.1608    1.6308    1.1544 H   0  0  0  0  0  0  0  0  0  0  0  0
    1.5152   -2.1682    0.6812 H   0  0  0  0  0  0  0  0  0  0  0  0
    0.6437   -1.9857   -0.9147 H   0  0  0  0  0  0  0  0  0  0  0  0
  1  2  1  0
  2  3  1  0
  3  4  1  0
  4  5  2  0
  4  6  1  0
  6  7  2  0
  6  8  1  0
  8  9  1  0
  9  2  1  0
  1 10  1  0
  1 11  1  0
  1 12  1  0
  2 13  1  0
  3 14  1  0
  3 15  1  0
  8 16  1  0
  8 17  1  0
M  END
