
     RDKit          3D

 23 24  0  0  0  0  0  0  0  0999 V2000
   -1.7017   -1.6321    0.3532 C   0  0  0  0  0  0  0  0  0  0  0  0
   -1.2496   -0.3728   -0.3460 C   0  0  0  0  0  0  0  0  0  0  0  0
   -0.0647   -0.6380   -1.2846 C   0  0  0  0  0  0  0  0  0  0  0  0
    0.8296   -0.2276   -0.1906 C   0  0  0  0  0  0  0  0  0  0  0  0
    1.8753   -1.0163    0.4195 C   0  0  0  0  0  0  0  0  0  0  0  0
    2.1803    0.2725   -0.3199 C   0  0  0  0  0  0  0  0  0  0  0  0
   -0.2863    0.4470    0.5026 C   0  0  0  0  0  0  0  0  0  0  0  0
   -0.2914    1.9265    0.1785 C   0  0  0  0  0  0  0  0  0  0  0  0
   -1.5450    2.4971    0.3701 O   0  0  0  0  0  0  0  0  0  0  0  0
   -1.5549   -1.5668    1.4444 H   0  0  0  0  0  0  0  0  0  0  0  0
   -2.7991   -1.7686    0.1835 H   0  0  0  0  0  0  0  0  0  0  0  0
   -1.2094   -2.5333   -0.0950 H   0  0  0  0  0  0  0  0  0  0  0  0
   -2.0585    0.2130   -0.7755 H   0  0  0  0  0  0  0  0  0  0  0  0
   -0.1641    0.0713   -2.1504 H   0  0  0  0  0  0  0  0  0  0  0  0
    0.0474   -1.6830   -1.5794 H   0  0  0  0  0  0  0  0  0  0  0  0
    1.9918   -1.0014    1.5369 H   0  0  0  0  0  0  0  0  0  0  0  0
    2.1736   -1.9768   -0.0154 H   0  0  0  0  0  0  0  0  0  0  0  0
    2.7065    0.2320   -1.2902 H   0  0  0  0  0  0  0  0  0  0  0  0
    2.4778    1.1228    0.3384 H   0  0  0  0  0  0  0  0  0  0  0  0
   -0.3895    0.2084    1.5778 H   0  0  0  0  0  0  0  0  0  0  0  0
    0.4931    2.3881    0.8155 H   0  0  0  0  0  0  0  0  0  0  0  0
    0.0461    2.0169   -0.8779 H   0  0  0  0  0  0  0  0  0  0  0  0
   -1.5073    3.0211    1.2044 H   0  0  0  0  0  0  0  0  0  0  0  0
  1  2  1  0
  2  3  1  0
  3  4  1  0
  4  5  1  0
  5  6  1  0
  4  7  1  0
  7  8  1  0
  8  9  1  0
  7  2  1  0
  6  4  1  0
  1 10  1  0
  1 11  1  0
  1 12  1  0
  2 13  1  0
  3 14  1  0
  3 15  1  0
  5 16  1  0
  5 17  1  0
  6 18  1  0
  6 19  1  0
  7 20  1  0
  8 21  1  0
  8 22  1  0
  9 23  1  0
M  END
