
     RDKit          3D

 21 21  0  0  0  0  0  0  0  0999 V2000
   -1.2562    1.7321   -0.6847 C   0  0  0  0  0  0  0  0  0  0  0  0
   -0.8858    0.2988   -0.4236 C   0  0  0  0  0  0  0  0  0  0  0  0
   -1.4055   -0.2308    0.9221 C   0  0  0  0  0  0  0  0  0  0  0  0
   -2.5631   -0.9717    0.8401 O   0  0  0  0  0  0  0  0  0  0  0  0
   -0.1149   -1.0330    0.9739 C   0  0  0  0  0  0  0  0  0  0  0  0
    0.5057    0.1219    0.1869 C   0  0  0  0  0  0  0  0  0  0  0  0
    1.5608   -0.3065   -0.7995 C   0  0  0  0  0  0  0  0  0  0  0  0
    2.8379   -0.4321   -0.0612 C   0  0  0  0  0  0  0  0  0  0  0  0
    3.5106    0.5293    0.2361 O   0  0  0  0  0  0  0  0  0  0  0  0
   -0.5367    2.2162   -1.3539 H   0  0  0  0  0  0  0  0  0  0  0  0
   -2.2576    1.7192   -1.1741 H   0  0  0  0  0  0  0  0  0  0  0  0
   -1.3663    2.2346    0.2893 H   0  0  0  0  0  0  0  0  0  0  0  0
   -1.0146   -0.4019   -1.2556 H   0  0  0  0  0  0  0  0  0  0  0  0
   -1.4143    0.5372    1.6955 H   0  0  0  0  0  0  0  0  0  0  0  0
   -2.6200   -1.5667    0.0789 H   0  0  0  0  0  0  0  0  0  0  0  0
   -0.2520   -1.9476    0.3360 H   0  0  0  0  0  0  0  0  0  0  0  0
    0.3057   -1.1947    1.9623 H   0  0  0  0  0  0  0  0  0  0  0  0
    0.7857    0.9224    0.8696 H   0  0  0  0  0  0  0  0  0  0  0  0
    1.2992   -1.2694   -1.2572 H   0  0  0  0  0  0  0  0  0  0  0  0
    1.7093    0.4580   -1.5978 H   0  0  0  0  0  0  0  0  0  0  0  0
    3.1721   -1.4154    0.2169 H   0  0  0  0  0  0  0  0  0  0  0  0
  1  2  1  0
  2  3  1  0
  3  4  1  0
  3  5  1  0
  5  6  1  0
  6  7  1  0
  7  8  1  0
  8  9  2  0
  6  2  1  0
  1 10  1  0
  1 11  1  0
  1 12  1  0
  2 13  1  0
  3 14  1  0
  4 15  1  0
  5 16  1  0
  5 17  1  0
  6 18  1  0
  7 19  1  0
  7 20  1  0
  8 21  1  0
M  END
