
     RDKit          3D

 21 22  0  0  0  0  0  0  0  0999 V2000
    2.0832    0.3155    1.1033 C   0  0  0  0  0  0  0  0  0  0  0  0
    1.5210    0.4318   -0.2882 C   0  0  0  0  0  0  0  0  0  0  0  0
    1.3995   -0.7609   -1.1187 C   0  0  0  0  0  0  0  0  0  0  0  0
    0.1681   -0.1268   -0.4925 C   0  0  0  0  0  0  0  0  0  0  0  0
   -0.4968   -0.9499    0.5290 C   0  0  0  0  0  0  0  0  0  0  0  0
   -1.7529   -0.7188    0.8830 C   0  0  0  0  0  0  0  0  0  0  0  0
   -2.4512    0.4059    0.2010 C   0  0  0  0  0  0  0  0  0  0  0  0
   -2.1127    0.3304   -1.1479 O   0  0  0  0  0  0  0  0  0  0  0  0
   -0.7951    0.6031   -1.3964 C   0  0  0  0  0  0  0  0  0  0  0  0
    2.5572   -0.6758    1.2911 H   0  0  0  0  0  0  0  0  0  0  0  0
    2.7773    1.1557    1.3195 H   0  0  0  0  0  0  0  0  0  0  0  0
    1.2336    0.4531    1.8346 H   0  0  0  0  0  0  0  0  0  0  0  0
    1.7027    1.4165   -0.7817 H   0  0  0  0  0  0  0  0  0  0  0  0
    1.7595   -1.7276   -0.7137 H   0  0  0  0  0  0  0  0  0  0  0  0
    1.4024   -0.7289   -2.2193 H   0  0  0  0  0  0  0  0  0  0  0  0
    0.0316   -1.7555    1.0055 H   0  0  0  0  0  0  0  0  0  0  0  0
   -2.2638   -1.3297    1.6488 H   0  0  0  0  0  0  0  0  0  0  0  0
   -3.5466    0.3432    0.2696 H   0  0  0  0  0  0  0  0  0  0  0  0
   -2.0785    1.3428    0.6667 H   0  0  0  0  0  0  0  0  0  0  0  0
   -0.5663    1.7044   -1.3628 H   0  0  0  0  0  0  0  0  0  0  0  0
   -0.5722    0.2714   -2.4416 H   0  0  0  0  0  0  0  0  0  0  0  0
  1  2  1  0
  2  3  1  0
  3  4  1  0
  4  5  1  0
  5  6  2  0
  6  7  1  0
  7  8  1  0
  8  9  1  0
  4  2  1  0
  9  4  1  0
  1 10  1  0
  1 11  1  0
  1 12  1  0
  2 13  1  0
  3 14  1  0
  3 15  1  0
  5 16  1  0
  6 17  1  0
  7 18  1  0
  7 19  1  0
  9 20  1  0
  9 21  1  0
M  END
