
     RDKit          3D

 19 19  0  0  0  0  0  0  0  0999 V2000
    2.2628    0.8731   -0.5216 C   0  0  0  0  0  0  0  0  0  0  0  0
    1.3550    0.0949    0.3598 C   0  0  0  0  0  0  0  0  0  0  0  0
    0.5030   -0.9364   -0.3834 C   0  0  0  0  0  0  0  0  0  0  0  0
   -0.5231   -0.6243    0.6831 C   0  0  0  0  0  0  0  0  0  0  0  0
   -1.9628   -0.6615    0.2679 C   0  0  0  0  0  0  0  0  0  0  0  0
   -2.2927    0.2967   -0.8003 C   0  0  0  0  0  0  0  0  0  0  0  0
   -1.4325    1.0145   -1.2376 O   0  0  0  0  0  0  0  0  0  0  0  0
    0.0716    0.7486    0.7361 C   0  0  0  0  0  0  0  0  0  0  0  0
   -0.3023    1.8865    0.9743 O   0  0  0  0  0  0  0  0  0  0  0  0
    2.8420    0.1825   -1.1992 H   0  0  0  0  0  0  0  0  0  0  0  0
    1.7303    1.5896   -1.1611 H   0  0  0  0  0  0  0  0  0  0  0  0
    3.0498    1.3628    0.1066 H   0  0  0  0  0  0  0  0  0  0  0  0
    1.9135   -0.3563    1.2055 H   0  0  0  0  0  0  0  0  0  0  0  0
    0.2335   -0.5964   -1.3820 H   0  0  0  0  0  0  0  0  0  0  0  0
    0.9615   -1.9416   -0.3087 H   0  0  0  0  0  0  0  0  0  0  0  0
   -0.2705   -1.1571    1.6137 H   0  0  0  0  0  0  0  0  0  0  0  0
   -2.2892   -1.6703   -0.0628 H   0  0  0  0  0  0  0  0  0  0  0  0
   -2.5581   -0.4523    1.1926 H   0  0  0  0  0  0  0  0  0  0  0  0
   -3.2917    0.3468   -1.1778 H   0  0  0  0  0  0  0  0  0  0  0  0
  1  2  1  0
  2  3  1  0
  3  4  1  0
  4  5  1  0
  5  6  1  0
  6  7  2  0
  4  8  1  0
  8  9  2  0
  8  2  1  0
  1 10  1  0
  1 11  1  0
  1 12  1  0
  2 13  1  0
  3 14  1  0
  3 15  1  0
  4 16  1  0
  5 17  1  0
  5 18  1  0
  6 19  1  0
M  END
