
     RDKit          3D

 22 22  0  0  0  0  0  0  0  0999 V2000
   -0.9701    1.6269   -0.2582 C   0  0  0  0  0  0  0  0  0  0  0  0
   -0.3979    0.5184    0.5612 C   0  0  0  0  0  0  0  0  0  0  0  0
   -1.4182   -0.6140    0.6964 C   0  0  0  0  0  0  0  0  0  0  0  0
   -1.2151   -1.3202   -0.6231 C   0  0  0  0  0  0  0  0  0  0  0  0
    0.0779   -1.1322   -1.0193 O   0  0  0  0  0  0  0  0  0  0  0  0
    0.7015   -0.2463   -0.1798 C   0  0  0  0  0  0  0  0  0  0  0  0
    1.5017   -0.9526    0.9226 C   0  0  0  0  0  0  0  0  0  0  0  0
    1.6057    0.6689   -0.9452 C   0  0  0  0  0  0  0  0  0  0  0  0
   -2.0647    1.7462   -0.0380 H   0  0  0  0  0  0  0  0  0  0  0  0
   -0.8846    1.4961   -1.3382 H   0  0  0  0  0  0  0  0  0  0  0  0
   -0.4905    2.5908    0.0274 H   0  0  0  0  0  0  0  0  0  0  0  0
   -0.0634    0.8270    1.5488 H   0  0  0  0  0  0  0  0  0  0  0  0
   -1.1985   -1.2591    1.5640 H   0  0  0  0  0  0  0  0  0  0  0  0
   -2.4363   -0.2324    0.8153 H   0  0  0  0  0  0  0  0  0  0  0  0
   -1.8787   -0.7888   -1.3662 H   0  0  0  0  0  0  0  0  0  0  0  0
   -1.4383   -2.3917   -0.5774 H   0  0  0  0  0  0  0  0  0  0  0  0
    0.8309   -1.2195    1.7774 H   0  0  0  0  0  0  0  0  0  0  0  0
    1.9773   -1.8661    0.5742 H   0  0  0  0  0  0  0  0  0  0  0  0
    2.2178   -0.2174    1.3153 H   0  0  0  0  0  0  0  0  0  0  0  0
    2.5538    0.9023   -0.3942 H   0  0  0  0  0  0  0  0  0  0  0  0
    1.8511    0.1980   -1.9240 H   0  0  0  0  0  0  0  0  0  0  0  0
    1.1388    1.6659   -1.1390 H   0  0  0  0  0  0  0  0  0  0  0  0
  1  2  1  0
  2  3  1  0
  3  4  1  0
  4  5  1  0
  5  6  1  0
  6  7  1  0
  6  8  1  0
  6  2  1  0
  1  9  1  0
  1 10  1  0
  1 11  1  0
  2 12  1  0
  3 13  1  0
  3 14  1  0
  4 15  1  0
  4 16  1  0
  7 17  1  0
  7 18  1  0
  7 19  1  0
  8 20  1  0
  8 21  1  0
  8 22  1  0
M  END
