
     RDKit          3D

 19 20  0  0  0  0  0  0  0  0999 V2000
    2.3977    0.1032    0.2825 C   0  0  0  0  0  0  0  0  0  0  0  0
    0.9441   -0.3019    0.2063 C   0  0  0  0  0  0  0  0  0  0  0  0
    0.3396   -0.0839   -1.1398 C   0  0  0  0  0  0  0  0  0  0  0  0
   -1.1695   -0.0838   -1.0062 C   0  0  0  0  0  0  0  0  0  0  0  0
   -1.6005   -0.8340    0.2447 C   0  0  0  0  0  0  0  0  0  0  0  0
   -1.1277    0.4206    0.9712 C   0  0  0  0  0  0  0  0  0  0  0  0
    0.2508    0.4149    1.1498 O   0  0  0  0  0  0  0  0  0  0  0  0
   -1.5195    1.1591   -0.2622 C   0  0  0  0  0  0  0  0  0  0  0  0
   -1.9344    2.2479   -0.5974 O   0  0  0  0  0  0  0  0  0  0  0  0
    2.8161    0.0816   -0.7534 H   0  0  0  0  0  0  0  0  0  0  0  0
    2.5530    1.0727    0.7884 H   0  0  0  0  0  0  0  0  0  0  0  0
    3.0037   -0.6433    0.8566 H   0  0  0  0  0  0  0  0  0  0  0  0
    0.9327   -1.4140    0.3982 H   0  0  0  0  0  0  0  0  0  0  0  0
    0.7044   -0.7526   -1.9205 H   0  0  0  0  0  0  0  0  0  0  0  0
    0.6136    0.9641   -1.4572 H   0  0  0  0  0  0  0  0  0  0  0  0
   -1.7414   -0.2922   -1.9039 H   0  0  0  0  0  0  0  0  0  0  0  0
   -2.6807   -0.9350    0.2938 H   0  0  0  0  0  0  0  0  0  0  0  0
   -1.0759   -1.7509    0.4704 H   0  0  0  0  0  0  0  0  0  0  0  0
   -1.7060    0.6275    1.8681 H   0  0  0  0  0  0  0  0  0  0  0  0
  1  2  1  0
  2  3  1  0
  3  4  1  0
  4  5  1  0
  5  6  1  0
  6  7  1  0
  6  8  1  0
  8  9  2  0
  7  2  1  0
  8  4  1  0
  1 10  1  0
  1 11  1  0
  1 12  1  0
  2 13  1  0
  3 14  1  0
  3 15  1  0
  4 16  1  0
  5 17  1  0
  5 18  1  0
  6 19  1  0
M  END
