
     RDKit          3D

 23 23  0  0  0  0  0  0  0  0999 V2000
    2.4312   -0.3463    0.8158 C   0  0  0  0  0  0  0  0  0  0  0  0
    1.2883   -0.2637   -0.2066 C   0  0  0  0  0  0  0  0  0  0  0  0
    0.4157   -1.4532    0.0177 C   0  0  0  0  0  0  0  0  0  0  0  0
   -0.8858   -1.4180   -0.7092 C   0  0  0  0  0  0  0  0  0  0  0  0
   -1.9170   -0.6052    0.0079 C   0  0  0  0  0  0  0  0  0  0  0  0
   -2.0629    0.7220    0.0547 C   0  0  0  0  0  0  0  0  0  0  0  0
   -1.3842    1.9299   -0.4959 C   0  0  0  0  0  0  0  0  0  0  0  0
   -0.1622    1.4823   -1.0324 O   0  0  0  0  0  0  0  0  0  0  0  0
    0.6179    1.0498    0.0171 C   0  0  0  0  0  0  0  0  0  0  0  0
    3.3326    0.0908    0.3379 H   0  0  0  0  0  0  0  0  0  0  0  0
    2.1411    0.2180    1.7475 H   0  0  0  0  0  0  0  0  0  0  0  0
    2.5882   -1.3933    1.1467 H   0  0  0  0  0  0  0  0  0  0  0  0
    1.6866   -0.2919   -1.2402 H   0  0  0  0  0  0  0  0  0  0  0  0
    0.9768   -2.3504   -0.3534 H   0  0  0  0  0  0  0  0  0  0  0  0
    0.2144   -1.6547    1.0886 H   0  0  0  0  0  0  0  0  0  0  0  0
   -0.7389   -1.0058   -1.7349 H   0  0  0  0  0  0  0  0  0  0  0  0
   -1.2980   -2.4399   -0.8180 H   0  0  0  0  0  0  0  0  0  0  0  0
   -2.6478   -1.1575    0.5671 H   0  0  0  0  0  0  0  0  0  0  0  0
   -2.9231    0.9821    0.6717 H   0  0  0  0  0  0  0  0  0  0  0  0
   -2.0333    2.3440   -1.2974 H   0  0  0  0  0  0  0  0  0  0  0  0
   -1.1654    2.6799    0.2879 H   0  0  0  0  0  0  0  0  0  0  0  0
    0.0872    1.0625    0.9951 H   0  0  0  0  0  0  0  0  0  0  0  0
    1.4386    1.8185    0.1325 H   0  0  0  0  0  0  0  0  0  0  0  0
  1  2  1  0
  2  3  1  0
  3  4  1  0
  4  5  1  0
  5  6  2  3
  6  7  1  0
  7  8  1  0
  8  9  1  0
  9  2  1  0
  1 10  1  0
  1 11  1  0
  1 12  1  0
  2 13  1  0
  3 14  1  0
  3 15  1  0
  4 16  1  0
  4 17  1  0
  5 18  1  0
  6 19  1  0
  7 20  1  0
  7 21  1  0
  9 22  1  0
  9 23  1  0
M  END
