
     RDKit          3D

 23 24  0  0  0  0  0  0  0  0999 V2000
   -2.3985   -0.7015   -1.4603 C   0  0  0  0  0  0  0  0  0  0  0  0
   -1.5526    0.2430   -0.6325 C   0  0  0  0  0  0  0  0  0  0  0  0
   -1.5905    0.2539    0.8233 C   0  0  0  0  0  0  0  0  0  0  0  0
   -1.4923    1.6065    1.5092 C   0  0  0  0  0  0  0  0  0  0  0  0
   -0.4341   -0.3887    0.2175 C   0  0  0  0  0  0  0  0  0  0  0  0
    0.7880    0.1906    0.0384 O   0  0  0  0  0  0  0  0  0  0  0  0
    1.8386   -0.6538   -0.1454 C   0  0  0  0  0  0  0  0  0  0  0  0
    3.0642   -0.2845   -0.8841 C   0  0  0  0  0  0  0  0  0  0  0  0
    3.1109   -0.2137    0.6087 C   0  0  0  0  0  0  0  0  0  0  0  0
   -2.0776   -1.7499   -1.3876 H   0  0  0  0  0  0  0  0  0  0  0  0
   -3.4332   -0.6493   -1.0157 H   0  0  0  0  0  0  0  0  0  0  0  0
   -2.5050   -0.3492   -2.5058 H   0  0  0  0  0  0  0  0  0  0  0  0
   -1.3300    1.1953   -1.1429 H   0  0  0  0  0  0  0  0  0  0  0  0
   -2.3481   -0.4069    1.3143 H   0  0  0  0  0  0  0  0  0  0  0  0
   -0.7367    1.5354    2.3329 H   0  0  0  0  0  0  0  0  0  0  0  0
   -2.4604    1.8733    1.9555 H   0  0  0  0  0  0  0  0  0  0  0  0
   -1.1331    2.3500    0.7761 H   0  0  0  0  0  0  0  0  0  0  0  0
   -0.4246   -1.5138    0.1911 H   0  0  0  0  0  0  0  0  0  0  0  0
    1.5960   -1.7345   -0.1313 H   0  0  0  0  0  0  0  0  0  0  0  0
    3.0824    0.6633   -1.4725 H   0  0  0  0  0  0  0  0  0  0  0  0
    3.6706   -1.0749   -1.3337 H   0  0  0  0  0  0  0  0  0  0  0  0
    3.1427    0.8006    1.0218 H   0  0  0  0  0  0  0  0  0  0  0  0
    3.6235   -0.9914    1.1947 H   0  0  0  0  0  0  0  0  0  0  0  0
  1  2  1  0
  2  3  1  0
  3  4  1  0
  3  5  1  0
  5  6  1  0
  6  7  1  0
  7  8  1  0
  8  9  1  0
  5  2  1  0
  9  7  1  0
  1 10  1  0
  1 11  1  0
  1 12  1  0
  2 13  1  0
  3 14  1  0
  4 15  1  0
  4 16  1  0
  4 17  1  0
  5 18  1  0
  7 19  1  0
  8 20  1  0
  8 21  1  0
  9 22  1  0
  9 23  1  0
M  END
