
     RDKit          3D

 23 24  0  0  0  0  0  0  0  0999 V2000
   -3.1117    0.2544   -0.0353 C   0  0  0  0  0  0  0  0  0  0  0  0
   -1.6845    0.5909    0.2935 C   0  0  0  0  0  0  0  0  0  0  0  0
   -1.0263   -0.3718    1.2927 C   0  0  0  0  0  0  0  0  0  0  0  0
    0.1987   -0.2947    0.4421 C   0  0  0  0  0  0  0  0  0  0  0  0
   -0.6684    0.0807   -0.7255 C   0  0  0  0  0  0  0  0  0  0  0  0
    1.2730    0.6319    0.8339 C   0  0  0  0  0  0  0  0  0  0  0  0
    2.1146   -0.5422    0.4780 C   0  0  0  0  0  0  0  0  0  0  0  0
    2.8480   -0.3937   -0.8317 C   0  0  0  0  0  0  0  0  0  0  0  0
    0.9888   -1.3851    0.3313 O   0  0  0  0  0  0  0  0  0  0  0  0
   -3.7499    0.8053    0.6865 H   0  0  0  0  0  0  0  0  0  0  0  0
   -3.3391   -0.8133    0.0847 H   0  0  0  0  0  0  0  0  0  0  0  0
   -3.3725    0.6515   -1.0384 H   0  0  0  0  0  0  0  0  0  0  0  0
   -1.5094    1.6505    0.4957 H   0  0  0  0  0  0  0  0  0  0  0  0
   -0.9639   -0.0021    2.3150 H   0  0  0  0  0  0  0  0  0  0  0  0
   -1.5157   -1.3707    1.1572 H   0  0  0  0  0  0  0  0  0  0  0  0
   -0.1909    0.8467   -1.3380 H   0  0  0  0  0  0  0  0  0  0  0  0
   -0.9898   -0.8434   -1.2598 H   0  0  0  0  0  0  0  0  0  0  0  0
    1.2863    0.9411    1.9172 H   0  0  0  0  0  0  0  0  0  0  0  0
    1.4015    1.4775    0.1451 H   0  0  0  0  0  0  0  0  0  0  0  0
    2.8087   -0.8811    1.2739 H   0  0  0  0  0  0  0  0  0  0  0  0
    3.4010    0.5851   -0.8955 H   0  0  0  0  0  0  0  0  0  0  0  0
    3.6295   -1.1758   -0.9224 H   0  0  0  0  0  0  0  0  0  0  0  0
    2.1720   -0.4417   -1.6964 H   0  0  0  0  0  0  0  0  0  0  0  0
  1  2  1  0
  2  3  1  0
  3  4  1  0
  4  5  1  0
  4  6  1  0
  6  7  1  0
  7  8  1  0
  7  9  1  0
  5  2  1  0
  9  4  1  0
  1 10  1  0
  1 11  1  0
  1 12  1  0
  2 13  1  0
  3 14  1  0
  3 15  1  0
  5 16  1  0
  5 17  1  0
  6 18  1  0
  6 19  1  0
  7 20  1  0
  8 21  1  0
  8 22  1  0
  8 23  1  0
M  END
