
     RDKit          3D

 21 22  0  0  0  0  0  0  0  0999 V2000
    2.2510   -0.5158    0.0506 C   0  0  0  0  0  0  0  0  0  0  0  0
    1.1823   -0.0186    0.9126 C   0  0  0  0  0  0  0  0  0  0  0  0
   -0.0644   -0.8985    0.9382 C   0  0  0  0  0  0  0  0  0  0  0  0
   -0.8038   -0.5052   -0.1002 C   0  0  0  0  0  0  0  0  0  0  0  0
   -2.1558   -1.1186   -0.4533 C   0  0  0  0  0  0  0  0  0  0  0  0
   -3.1399   -0.1269   -0.4120 O   0  0  0  0  0  0  0  0  0  0  0  0
   -0.0722    0.5106   -0.7950 C   0  0  0  0  0  0  0  0  0  0  0  0
    0.1950    1.8800   -0.7067 C   0  0  0  0  0  0  0  0  0  0  0  0
    0.4610    1.2220    0.4919 C   0  0  0  0  0  0  0  0  0  0  0  0
    1.8916   -1.4188   -0.4999 H   0  0  0  0  0  0  0  0  0  0  0  0
    2.6650    0.2026   -0.6848 H   0  0  0  0  0  0  0  0  0  0  0  0
    3.1145   -0.8488    0.6642 H   0  0  0  0  0  0  0  0  0  0  0  0
    1.5199    0.0314    1.9624 H   0  0  0  0  0  0  0  0  0  0  0  0
   -0.2780   -1.6762    1.6641 H   0  0  0  0  0  0  0  0  0  0  0  0
   -2.1204   -1.5512   -1.4741 H   0  0  0  0  0  0  0  0  0  0  0  0
   -2.3808   -1.9391    0.2416 H   0  0  0  0  0  0  0  0  0  0  0  0
   -3.0261    0.4516    0.3819 H   0  0  0  0  0  0  0  0  0  0  0  0
    0.7103   -0.0377   -1.4243 H   0  0  0  0  0  0  0  0  0  0  0  0
    1.0530    2.3543   -1.2571 H   0  0  0  0  0  0  0  0  0  0  0  0
   -0.6860    2.5824   -0.8040 H   0  0  0  0  0  0  0  0  0  0  0  0
   -0.3161    1.4204    1.3038 H   0  0  0  0  0  0  0  0  0  0  0  0
  1  2  1  0
  2  3  1  0
  3  4  2  0
  4  5  1  0
  5  6  1  0
  4  7  1  0
  7  8  1  0
  8  9  1  0
  9  2  1  0
  9  7  1  0
  1 10  1  0
  1 11  1  0
  1 12  1  0
  2 13  1  0
  3 14  1  0
  5 15  1  0
  5 16  1  0
  6 17  1  0
  7 18  1  0
  8 19  1  0
  8 20  1  0
  9 21  1  0
M  END
