
     RDKit          3D

 21 21  0  0  0  0  0  0  0  0999 V2000
   -1.4636    1.7060    0.0677 C   0  0  0  0  0  0  0  0  0  0  0  0
   -0.7360    0.4633    0.4933 C   0  0  0  0  0  0  0  0  0  0  0  0
   -1.6174   -0.7234    0.3789 C   0  0  0  0  0  0  0  0  0  0  0  0
   -2.8272   -0.7484    0.3120 O   0  0  0  0  0  0  0  0  0  0  0  0
   -0.7228   -1.9046    0.3610 C   0  0  0  0  0  0  0  0  0  0  0  0
    0.6669   -1.3529    0.0511 C   0  0  0  0  0  0  0  0  0  0  0  0
    0.4249    0.1050   -0.3657 C   0  0  0  0  0  0  0  0  0  0  0  0
    1.6955    0.8502   -0.0045 C   0  0  0  0  0  0  0  0  0  0  0  0
    2.0924    0.6013    1.2929 O   0  0  0  0  0  0  0  0  0  0  0  0
   -2.5517    1.5331    0.2587 H   0  0  0  0  0  0  0  0  0  0  0  0
   -1.1882    2.5938    0.6802 H   0  0  0  0  0  0  0  0  0  0  0  0
   -1.3697    1.8925   -1.0199 H   0  0  0  0  0  0  0  0  0  0  0  0
   -0.3871    0.5478    1.5353 H   0  0  0  0  0  0  0  0  0  0  0  0
   -0.6781   -2.3948    1.3728 H   0  0  0  0  0  0  0  0  0  0  0  0
   -0.9966   -2.6519   -0.4048 H   0  0  0  0  0  0  0  0  0  0  0  0
    1.2710   -1.3240    0.9822 H   0  0  0  0  0  0  0  0  0  0  0  0
    1.1306   -1.9385   -0.7460 H   0  0  0  0  0  0  0  0  0  0  0  0
    0.2346    0.1486   -1.4511 H   0  0  0  0  0  0  0  0  0  0  0  0
    2.4946    0.4986   -0.6859 H   0  0  0  0  0  0  0  0  0  0  0  0
    1.5686    1.9589   -0.1033 H   0  0  0  0  0  0  0  0  0  0  0  0
    2.9594    0.1395    1.3505 H   0  0  0  0  0  0  0  0  0  0  0  0
  1  2  1  0
  2  3  1  0
  3  4  2  0
  3  5  1  0
  5  6  1  0
  6  7  1  0
  7  8  1  0
  8  9  1  0
  7  2  1  0
  1 10  1  0
  1 11  1  0
  1 12  1  0
  2 13  1  0
  5 14  1  0
  5 15  1  0
  6 16  1  0
  6 17  1  0
  7 18  1  0
  8 19  1  0
  8 20  1  0
  9 21  1  0
M  END
