
     RDKit          3D

 19 19  0  0  0  0  0  0  0  0999 V2000
    1.6546   -1.0050   -0.5715 C   0  0  0  0  0  0  0  0  0  0  0  0
    0.7179   -0.4793    0.5061 C   0  0  0  0  0  0  0  0  0  0  0  0
    1.1592    0.8657    1.0018 C   0  0  0  0  0  0  0  0  0  0  0  0
    0.5056    1.4308   -0.1091 O   0  0  0  0  0  0  0  0  0  0  0  0
   -0.3659    0.3446   -0.1265 C   0  0  0  0  0  0  0  0  0  0  0  0
   -0.6646   -0.0716   -1.5244 C   0  0  0  0  0  0  0  0  0  0  0  0
   -0.1848    0.4959   -2.4841 O   0  0  0  0  0  0  0  0  0  0  0  0
   -1.5856    0.5714    0.7317 C   0  0  0  0  0  0  0  0  0  0  0  0
   -2.3675   -0.6013    0.6147 O   0  0  0  0  0  0  0  0  0  0  0  0
    1.1974   -1.8529   -1.0908 H   0  0  0  0  0  0  0  0  0  0  0  0
    2.6154   -1.2201   -0.0829 H   0  0  0  0  0  0  0  0  0  0  0  0
    1.7737   -0.1630   -1.3015 H   0  0  0  0  0  0  0  0  0  0  0  0
    0.4256   -1.1935    1.2753 H   0  0  0  0  0  0  0  0  0  0  0  0
    2.2484    1.0569    0.9877 H   0  0  0  0  0  0  0  0  0  0  0  0
    0.6360    1.1435    1.9457 H   0  0  0  0  0  0  0  0  0  0  0  0
   -1.3457   -0.9235   -1.6315 H   0  0  0  0  0  0  0  0  0  0  0  0
   -2.1949    1.3900    0.3108 H   0  0  0  0  0  0  0  0  0  0  0  0
   -1.3580    0.7330    1.7822 H   0  0  0  0  0  0  0  0  0  0  0  0
   -2.8668   -0.5216   -0.2339 H   0  0  0  0  0  0  0  0  0  0  0  0
  1  2  1  0
  2  3  1  0
  3  4  1  0
  4  5  1  0
  5  6  1  0
  6  7  2  0
  5  8  1  0
  8  9  1  0
  5  2  1  0
  1 10  1  0
  1 11  1  0
  1 12  1  0
  2 13  1  0
  3 14  1  0
  3 15  1  0
  6 16  1  0
  8 17  1  0
  8 18  1  0
  9 19  1  0
M  END
