
     RDKit          3D

 21 21  0  0  0  0  0  0  0  0999 V2000
   -2.0225   -1.1239    0.4835 C   0  0  0  0  0  0  0  0  0  0  0  0
   -0.9734   -0.3180   -0.3137 C   0  0  0  0  0  0  0  0  0  0  0  0
    0.1372   -1.1948   -0.6020 C   0  0  0  0  0  0  0  0  0  0  0  0
    1.4284   -0.9995   -0.7235 C   0  0  0  0  0  0  0  0  0  0  0  0
    2.1523    0.2828   -0.5850 C   0  0  0  0  0  0  0  0  0  0  0  0
    1.7868    0.8557    0.7380 C   0  0  0  0  0  0  0  0  0  0  0  0
    0.5156    1.1489    1.0666 C   0  0  0  0  0  0  0  0  0  0  0  0
   -0.7230    1.0016    0.2974 C   0  0  0  0  0  0  0  0  0  0  0  0
   -0.8767    2.0159   -0.6674 O   0  0  0  0  0  0  0  0  0  0  0  0
   -1.9693   -2.1637    0.0701 H   0  0  0  0  0  0  0  0  0  0  0  0
   -1.7104   -1.1981    1.5478 H   0  0  0  0  0  0  0  0  0  0  0  0
   -3.0286   -0.7412    0.3298 H   0  0  0  0  0  0  0  0  0  0  0  0
   -1.5175   -0.1340   -1.2929 H   0  0  0  0  0  0  0  0  0  0  0  0
   -0.1526   -2.2431   -0.7512 H   0  0  0  0  0  0  0  0  0  0  0  0
    2.0703   -1.8693   -0.9544 H   0  0  0  0  0  0  0  0  0  0  0  0
    1.9130    0.9968   -1.4014 H   0  0  0  0  0  0  0  0  0  0  0  0
    3.2455    0.1047   -0.6247 H   0  0  0  0  0  0  0  0  0  0  0  0
    2.5774    1.0366    1.4472 H   0  0  0  0  0  0  0  0  0  0  0  0
    0.4440    1.5566    2.0680 H   0  0  0  0  0  0  0  0  0  0  0  0
   -1.5793    1.1936    1.0143 H   0  0  0  0  0  0  0  0  0  0  0  0
   -1.7172    1.7925   -1.1466 H   0  0  0  0  0  0  0  0  0  0  0  0
  1  2  1  0
  2  3  1  0
  3  4  2  0
  4  5  1  0
  5  6  1  0
  6  7  2  0
  7  8  1  0
  8  9  1  0
  8  2  1  0
  1 10  1  0
  1 11  1  0
  1 12  1  0
  2 13  1  0
  3 14  1  0
  4 15  1  0
  5 16  1  0
  5 17  1  0
  6 18  1  0
  7 19  1  0
  8 20  1  0
  9 21  1  0
M  END
