
     RDKit          3D

 21 21  0  0  0  0  0  0  0  0999 V2000
    2.0825    1.1302   -0.1155 C   0  0  0  0  0  0  0  0  0  0  0  0
    1.0726    0.3463    0.6444 C   0  0  0  0  0  0  0  0  0  0  0  0
    1.0617   -1.1617    0.3424 C   0  0  0  0  0  0  0  0  0  0  0  0
   -0.4357   -1.0723    0.6202 C   0  0  0  0  0  0  0  0  0  0  0  0
   -1.2883   -2.0101   -0.1631 C   0  0  0  0  0  0  0  0  0  0  0  0
   -0.3383    0.3422    0.0326 C   0  0  0  0  0  0  0  0  0  0  0  0
   -1.1642    1.2871    0.6301 O   0  0  0  0  0  0  0  0  0  0  0  0
   -1.8895    2.1566   -0.1595 C   0  0  0  0  0  0  0  0  0  0  0  0
   -1.7682    2.0528   -1.4035 O   0  0  0  0  0  0  0  0  0  0  0  0
    3.0490    0.6180   -0.2579 H   0  0  0  0  0  0  0  0  0  0  0  0
    1.6251    1.4736   -1.0767 H   0  0  0  0  0  0  0  0  0  0  0  0
    2.3026    2.0670    0.4714 H   0  0  0  0  0  0  0  0  0  0  0  0
    1.0436    0.4704    1.7355 H   0  0  0  0  0  0  0  0  0  0  0  0
    1.2326   -1.3909   -0.7250 H   0  0  0  0  0  0  0  0  0  0  0  0
    1.5729   -1.7784    1.0824 H   0  0  0  0  0  0  0  0  0  0  0  0
   -0.6500   -0.9958    1.7070 H   0  0  0  0  0  0  0  0  0  0  0  0
   -2.2261   -2.1844    0.4438 H   0  0  0  0  0  0  0  0  0  0  0  0
   -1.5980   -1.6116   -1.1462 H   0  0  0  0  0  0  0  0  0  0  0  0
   -0.8253   -2.9943   -0.3029 H   0  0  0  0  0  0  0  0  0  0  0  0
   -0.3017    0.3326   -1.0635 H   0  0  0  0  0  0  0  0  0  0  0  0
   -2.5574    2.9227    0.2585 H   0  0  0  0  0  0  0  0  0  0  0  0
  1  2  1  0
  2  3  1  0
  3  4  1  0
  4  5  1  0
  4  6  1  0
  6  7  1  0
  7  8  1  0
  8  9  2  0
  6  2  1  0
  1 10  1  0
  1 11  1  0
  1 12  1  0
  2 13  1  0
  3 14  1  0
  3 15  1  0
  4 16  1  0
  5 17  1  0
  5 18  1  0
  5 19  1  0
  6 20  1  0
  8 21  1  0
M  END
