
     RDKit          3D

 25 25  0  0  0  0  0  0  0  0999 V2000
   -0.0696    2.3082    0.2695 C   0  0  0  0  0  0  0  0  0  0  0  0
   -0.0511    1.1294   -0.6525 C   0  0  0  0  0  0  0  0  0  0  0  0
    1.3479    0.6177   -0.9303 C   0  0  0  0  0  0  0  0  0  0  0  0
    0.8518   -0.7769   -0.5941 C   0  0  0  0  0  0  0  0  0  0  0  0
    1.7662   -1.5044    0.3360 C   0  0  0  0  0  0  0  0  0  0  0  0
   -0.3946   -0.2036   -0.0181 C   0  0  0  0  0  0  0  0  0  0  0  0
   -0.5065   -0.1522    1.4690 C   0  0  0  0  0  0  0  0  0  0  0  0
   -1.6950   -0.7309   -0.6275 C   0  0  0  0  0  0  0  0  0  0  0  0
   -2.0602   -1.9516   -0.0838 O   0  0  0  0  0  0  0  0  0  0  0  0
    0.3855    3.1636   -0.2712 H   0  0  0  0  0  0  0  0  0  0  0  0
    0.5233    2.0580    1.1758 H   0  0  0  0  0  0  0  0  0  0  0  0
   -1.1365    2.5483    0.5170 H   0  0  0  0  0  0  0  0  0  0  0  0
   -0.6040    1.3332   -1.5959 H   0  0  0  0  0  0  0  0  0  0  0  0
    2.0791    1.0360   -0.2304 H   0  0  0  0  0  0  0  0  0  0  0  0
    1.6381    0.7533   -2.0081 H   0  0  0  0  0  0  0  0  0  0  0  0
    0.6214   -1.3634   -1.5132 H   0  0  0  0  0  0  0  0  0  0  0  0
    2.2187   -0.8285    1.0854 H   0  0  0  0  0  0  0  0  0  0  0  0
    2.6249   -1.8851   -0.2789 H   0  0  0  0  0  0  0  0  0  0  0  0
    1.2919   -2.3954    0.7716 H   0  0  0  0  0  0  0  0  0  0  0  0
   -1.2020   -0.9528    1.8492 H   0  0  0  0  0  0  0  0  0  0  0  0
    0.4728   -0.2227    1.9773 H   0  0  0  0  0  0  0  0  0  0  0  0
   -0.9929    0.8052    1.7636 H   0  0  0  0  0  0  0  0  0  0  0  0
   -1.6066   -0.7860   -1.7425 H   0  0  0  0  0  0  0  0  0  0  0  0
   -2.4612    0.0473   -0.4295 H   0  0  0  0  0  0  0  0  0  0  0  0
   -3.0414   -2.0466   -0.2383 H   0  0  0  0  0  0  0  0  0  0  0  0
  1  2  1  0
  2  3  1  0
  3  4  1  0
  4  5  1  0
  4  6  1  0
  6  7  1  0
  6  8  1  0
  8  9  1  0
  6  2  1  0
  1 10  1  0
  1 11  1  0
  1 12  1  0
  2 13  1  0
  3 14  1  0
  3 15  1  0
  4 16  1  0
  5 17  1  0
  5 18  1  0
  5 19  1  0
  7 20  1  0
  7 21  1  0
  7 22  1  0
  8 23  1  0
  8 24  1  0
  9 25  1  0
M  END
