
     RDKit          3D

 14 15  0  0  0  0  0  0  0  0999 V2000
    1.5800   -0.2637    0.2961 C   0  0  0  0  0  0  0  0  0  0  0  0
    0.3723   -0.1320   -0.5727 C   0  0  0  0  0  0  0  0  0  0  0  0
   -0.4318    1.1007   -0.1452 C   0  0  0  0  0  0  0  0  0  0  0  0
   -1.5196    0.1392    0.2832 C   0  0  0  0  0  0  0  0  0  0  0  0
   -2.0399   -0.6160   -0.7420 O   0  0  0  0  0  0  0  0  0  0  0  0
   -0.8243   -0.9594   -0.1888 C   0  0  0  0  0  0  0  0  0  0  0  0
    2.0736    0.7522    0.3200 H   0  0  0  0  0  0  0  0  0  0  0  0
    1.3278   -0.4823    1.3497 H   0  0  0  0  0  0  0  0  0  0  0  0
    2.3490   -0.9516   -0.0850 H   0  0  0  0  0  0  0  0  0  0  0  0
    0.6010   -0.1842   -1.6399 H   0  0  0  0  0  0  0  0  0  0  0  0
   -0.7356    1.7457   -1.0061 H   0  0  0  0  0  0  0  0  0  0  0  0
   -0.0366    1.6264    0.7298 H   0  0  0  0  0  0  0  0  0  0  0  0
   -1.9857    0.2146    1.2601 H   0  0  0  0  0  0  0  0  0  0  0  0
   -0.7301   -1.9897    0.1409 H   0  0  0  0  0  0  0  0  0  0  0  0
  1  2  1  0
  2  3  1  0
  3  4  1  0
  4  5  1  0
  5  6  1  0
  6  2  1  0
  6  4  1  0
  1  7  1  0
  1  8  1  0
  1  9  1  0
  2 10  1  0
  3 11  1  0
  3 12  1  0
  4 13  1  0
  6 14  1  0
M  END
