
     RDKit          3D

 21 22  0  0  0  0  0  0  0  0999 V2000
    2.4657    0.2526   -0.0550 C   0  0  0  0  0  0  0  0  0  0  0  0
    1.3354   -0.6680    0.3663 C   0  0  0  0  0  0  0  0  0  0  0  0
    0.8092   -1.4757   -0.7227 C   0  0  0  0  0  0  0  0  0  0  0  0
   -0.4357   -1.1426   -0.9999 C   0  0  0  0  0  0  0  0  0  0  0  0
   -0.9034   -0.0562   -0.1190 C   0  0  0  0  0  0  0  0  0  0  0  0
   -2.3449   -0.1241    0.3022 C   0  0  0  0  0  0  0  0  0  0  0  0
   -2.7332    0.9043    1.1185 O   0  0  0  0  0  0  0  0  0  0  0  0
   -0.1983    1.2407   -0.2346 C   0  0  0  0  0  0  0  0  0  0  0  0
    0.1931    0.2148    0.7779 C   0  0  0  0  0  0  0  0  0  0  0  0
    2.4678    1.0866    0.6863 H   0  0  0  0  0  0  0  0  0  0  0  0
    2.2964    0.6286   -1.0631 H   0  0  0  0  0  0  0  0  0  0  0  0
    3.4612   -0.2679    0.0520 H   0  0  0  0  0  0  0  0  0  0  0  0
    1.6494   -1.2911    1.2416 H   0  0  0  0  0  0  0  0  0  0  0  0
    1.3277   -2.2862   -1.2955 H   0  0  0  0  0  0  0  0  0  0  0  0
   -1.0857   -1.5957   -1.7872 H   0  0  0  0  0  0  0  0  0  0  0  0
   -2.5636   -1.0819    0.8419 H   0  0  0  0  0  0  0  0  0  0  0  0
   -2.9696   -0.0841   -0.6235 H   0  0  0  0  0  0  0  0  0  0  0  0
   -2.6752    1.7501    0.6265 H   0  0  0  0  0  0  0  0  0  0  0  0
    0.4060    1.3930   -1.1533 H   0  0  0  0  0  0  0  0  0  0  0  0
   -0.6168    2.1672    0.1867 H   0  0  0  0  0  0  0  0  0  0  0  0
    0.1144    0.4354    1.8537 H   0  0  0  0  0  0  0  0  0  0  0  0
  1  2  1  0
  2  3  1  0
  3  4  2  0
  4  5  1  0
  5  6  1  0
  6  7  1  0
  5  8  1  0
  8  9  1  0
  9  2  1  0
  9  5  1  0
  1 10  1  0
  1 11  1  0
  1 12  1  0
  2 13  1  0
  3 14  1  0
  4 15  1  0
  6 16  1  0
  6 17  1  0
  7 18  1  0
  8 19  1  0
  8 20  1  0
  9 21  1  0
M  END
