
     RDKit          3D

 20 21  0  0  0  0  0  0  0  0999 V2000
    2.2914    0.1617    0.0401 C   0  0  0  0  0  0  0  0  0  0  0  0
    0.8176    0.2165    0.1677 C   0  0  0  0  0  0  0  0  0  0  0  0
    0.2362   -1.0228    0.8542 C   0  0  0  0  0  0  0  0  0  0  0  0
   -1.2554   -0.6731    0.9514 C   0  0  0  0  0  0  0  0  0  0  0  0
   -1.6894   -0.3236   -0.4460 C   0  0  0  0  0  0  0  0  0  0  0  0
   -1.2417    1.1101   -0.7688 C   0  0  0  0  0  0  0  0  0  0  0  0
    0.0690    0.3874   -1.1080 C   0  0  0  0  0  0  0  0  0  0  0  0
   -0.7483   -0.7286   -1.4103 O   0  0  0  0  0  0  0  0  0  0  0  0
    2.6595    1.2096   -0.1344 H   0  0  0  0  0  0  0  0  0  0  0  0
    2.6379   -0.5200   -0.7675 H   0  0  0  0  0  0  0  0  0  0  0  0
    2.7175   -0.1258    1.0279 H   0  0  0  0  0  0  0  0  0  0  0  0
    0.5617    1.0665    0.8543 H   0  0  0  0  0  0  0  0  0  0  0  0
    0.3287   -1.8414    0.1058 H   0  0  0  0  0  0  0  0  0  0  0  0
    0.6849   -1.2276    1.8165 H   0  0  0  0  0  0  0  0  0  0  0  0
   -1.8375   -1.4519    1.4312 H   0  0  0  0  0  0  0  0  0  0  0  0
   -1.2804    0.2374    1.6190 H   0  0  0  0  0  0  0  0  0  0  0  0
   -2.7300   -0.5438   -0.6981 H   0  0  0  0  0  0  0  0  0  0  0  0
   -1.1143    1.7563    0.0959 H   0  0  0  0  0  0  0  0  0  0  0  0
   -1.7185    1.5160   -1.6676 H   0  0  0  0  0  0  0  0  0  0  0  0
    0.6109    0.7972   -1.9634 H   0  0  0  0  0  0  0  0  0  0  0  0
  1  2  1  0
  2  3  1  0
  3  4  1  0
  4  5  1  0
  5  6  1  0
  6  7  1  0
  7  8  1  0
  7  2  1  0
  8  5  1  0
  1  9  1  0
  1 10  1  0
  1 11  1  0
  2 12  1  0
  3 13  1  0
  3 14  1  0
  4 15  1  0
  4 16  1  0
  5 17  1  0
  6 18  1  0
  6 19  1  0
  7 20  1  0
M  END
