
     RDKit          3D

 19 20  0  0  0  0  0  0  0  0999 V2000
   -2.0494    0.6274   -0.8159 C   0  0  0  0  0  0  0  0  0  0  0  0
   -1.3808   -0.1756    0.2707 C   0  0  0  0  0  0  0  0  0  0  0  0
   -0.8501   -1.5720   -0.1001 C   0  0  0  0  0  0  0  0  0  0  0  0
    0.0348   -0.4648    0.1388 C   0  0  0  0  0  0  0  0  0  0  0  0
    0.9518   -0.2851    1.2863 C   0  0  0  0  0  0  0  0  0  0  0  0
    1.7165    0.6957    0.3852 C   0  0  0  0  0  0  0  0  0  0  0  0
    3.0760    0.4538    0.3296 O   0  0  0  0  0  0  0  0  0  0  0  0
    0.9529    0.1428   -0.7941 C   0  0  0  0  0  0  0  0  0  0  0  0
    1.1159    0.2255   -1.9967 O   0  0  0  0  0  0  0  0  0  0  0  0
   -3.0779    0.2601   -1.0408 H   0  0  0  0  0  0  0  0  0  0  0  0
   -2.1099    1.6815   -0.4339 H   0  0  0  0  0  0  0  0  0  0  0  0
   -1.4072    0.6567   -1.7231 H   0  0  0  0  0  0  0  0  0  0  0  0
   -1.9177   -0.1179    1.2432 H   0  0  0  0  0  0  0  0  0  0  0  0
   -1.0726   -2.3777    0.6334 H   0  0  0  0  0  0  0  0  0  0  0  0
   -1.0663   -1.9004   -1.1577 H   0  0  0  0  0  0  0  0  0  0  0  0
    1.5896   -1.1457    1.5650 H   0  0  0  0  0  0  0  0  0  0  0  0
    0.4835    0.2485    2.1386 H   0  0  0  0  0  0  0  0  0  0  0  0
    1.4489    1.7517    0.5372 H   0  0  0  0  0  0  0  0  0  0  0  0
    3.5621    1.2953    0.1492 H   0  0  0  0  0  0  0  0  0  0  0  0
  1  2  1  0
  2  3  1  0
  3  4  1  0
  4  5  1  0
  5  6  1  0
  6  7  1  0
  6  8  1  0
  8  9  2  0
  4  2  1  0
  8  4  1  0
  1 10  1  0
  1 11  1  0
  1 12  1  0
  2 13  1  0
  3 14  1  0
  3 15  1  0
  5 16  1  0
  5 17  1  0
  6 18  1  0
  7 19  1  0
M  END
