
     RDKit          3D

 21 21  0  0  0  0  0  0  0  0999 V2000
    0.2744    1.5897   -0.7971 C   0  0  0  0  0  0  0  0  0  0  0  0
   -0.0695    0.8160    0.4297 C   0  0  0  0  0  0  0  0  0  0  0  0
    0.9200   -0.2196    0.8789 C   0  0  0  0  0  0  0  0  0  0  0  0
    1.7362   -0.8578   -0.2297 C   0  0  0  0  0  0  0  0  0  0  0  0
    2.8084   -0.0077   -0.5568 O   0  0  0  0  0  0  0  0  0  0  0  0
   -0.1571   -1.0305    1.2365 O   0  0  0  0  0  0  0  0  0  0  0  0
   -0.9098   -0.4072    0.2416 C   0  0  0  0  0  0  0  0  0  0  0  0
   -2.3721   -0.2155    0.6142 C   0  0  0  0  0  0  0  0  0  0  0  0
   -2.9162   -1.4543    0.8498 O   0  0  0  0  0  0  0  0  0  0  0  0
   -0.3177    2.5503   -0.7561 H   0  0  0  0  0  0  0  0  0  0  0  0
   -0.0559    1.0615   -1.7135 H   0  0  0  0  0  0  0  0  0  0  0  0
    1.3253    1.8818   -0.8869 H   0  0  0  0  0  0  0  0  0  0  0  0
   -0.3990    1.4326    1.2837 H   0  0  0  0  0  0  0  0  0  0  0  0
    1.5021    0.1168    1.7331 H   0  0  0  0  0  0  0  0  0  0  0  0
    1.1437   -1.0307   -1.1281 H   0  0  0  0  0  0  0  0  0  0  0  0
    2.1876   -1.7930    0.1567 H   0  0  0  0  0  0  0  0  0  0  0  0
    3.6248   -0.2421   -0.0555 H   0  0  0  0  0  0  0  0  0  0  0  0
   -0.8560   -0.8685   -0.7590 H   0  0  0  0  0  0  0  0  0  0  0  0
   -2.3657    0.4127    1.5447 H   0  0  0  0  0  0  0  0  0  0  0  0
   -2.9027    0.3597   -0.1480 H   0  0  0  0  0  0  0  0  0  0  0  0
   -2.2007   -2.0941    1.0994 H   0  0  0  0  0  0  0  0  0  0  0  0
  1  2  1  0
  2  3  1  0
  3  4  1  0
  4  5  1  0
  3  6  1  0
  6  7  1  0
  7  8  1  0
  8  9  1  0
  7  2  1  0
  1 10  1  0
  1 11  1  0
  1 12  1  0
  2 13  1  0
  3 14  1  0
  4 15  1  0
  4 16  1  0
  5 17  1  0
  7 18  1  0
  8 19  1  0
  8 20  1  0
  9 21  1  0
M  END
