
     RDKit          3D

 21 23  0  0  0  0  0  0  0  0999 V2000
   -2.0911   -1.2607   -0.4467 C   0  0  0  0  0  0  0  0  0  0  0  0
   -1.2670   -0.3178    0.3389 C   0  0  0  0  0  0  0  0  0  0  0  0
   -1.2517    1.0885   -0.1788 C   0  0  0  0  0  0  0  0  0  0  0  0
    0.1316    1.6372    0.1646 C   0  0  0  0  0  0  0  0  0  0  0  0
    1.0021    1.3023   -0.8699 O   0  0  0  0  0  0  0  0  0  0  0  0
    1.2083    0.0642   -0.3254 C   0  0  0  0  0  0  0  0  0  0  0  0
    2.5874   -0.4917   -0.3988 C   0  0  0  0  0  0  0  0  0  0  0  0
    0.1820   -0.6704    0.4514 C   0  0  0  0  0  0  0  0  0  0  0  0
    0.7630    0.5688    0.9758 C   0  0  0  0  0  0  0  0  0  0  0  0
   -1.5652   -1.7849   -1.2596 H   0  0  0  0  0  0  0  0  0  0  0  0
   -2.9277   -0.6915   -0.9235 H   0  0  0  0  0  0  0  0  0  0  0  0
   -2.5946   -1.9907    0.2463 H   0  0  0  0  0  0  0  0  0  0  0  0
   -1.6845   -0.2691    1.3841 H   0  0  0  0  0  0  0  0  0  0  0  0
   -2.0501    1.7167    0.2304 H   0  0  0  0  0  0  0  0  0  0  0  0
   -1.3804    1.0713   -1.2995 H   0  0  0  0  0  0  0  0  0  0  0  0
    0.1570    2.6618    0.5179 H   0  0  0  0  0  0  0  0  0  0  0  0
    3.2103   -0.0665    0.4411 H   0  0  0  0  0  0  0  0  0  0  0  0
    3.0682   -0.0736   -1.3264 H   0  0  0  0  0  0  0  0  0  0  0  0
    2.6543   -1.5759   -0.4632 H   0  0  0  0  0  0  0  0  0  0  0  0
    0.5019   -1.6213    0.8865 H   0  0  0  0  0  0  0  0  0  0  0  0
    1.3463    0.7034    1.8550 H   0  0  0  0  0  0  0  0  0  0  0  0
  1  2  1  0
  2  3  1  0
  3  4  1  0
  4  5  1  0
  5  6  1  0
  6  7  1  0
  6  8  1  0
  8  9  1  0
  8  2  1  0
  9  4  1  0
  9  6  1  0
  1 10  1  0
  1 11  1  0
  1 12  1  0
  2 13  1  0
  3 14  1  0
  3 15  1  0
  4 16  1  0
  7 17  1  0
  7 18  1  0
  7 19  1  0
  8 20  1  0
  9 21  1  0
M  END
