
     RDKit          3D

 21 23  0  0  0  0  0  0  0  0999 V2000
   -2.7543   -0.1426   -0.2227 C   0  0  0  0  0  0  0  0  0  0  0  0
   -1.2840   -0.2029   -0.5840 C   0  0  0  0  0  0  0  0  0  0  0  0
   -0.3942   -0.8775    0.3782 C   0  0  0  0  0  0  0  0  0  0  0  0
    0.8972   -1.4160   -0.1789 C   0  0  0  0  0  0  0  0  0  0  0  0
    1.8516   -0.2726   -0.2660 C   0  0  0  0  0  0  0  0  0  0  0  0
    2.0952    0.6693    0.8288 C   0  0  0  0  0  0  0  0  0  0  0  0
    1.0275    0.9345   -0.1981 C   0  0  0  0  0  0  0  0  0  0  0  0
    1.2271    1.8897   -1.1798 O   0  0  0  0  0  0  0  0  0  0  0  0
   -0.3596    0.5834    0.2452 C   0  0  0  0  0  0  0  0  0  0  0  0
   -3.1730    0.8876   -0.3523 H   0  0  0  0  0  0  0  0  0  0  0  0
   -3.3328   -0.8714   -0.8470 H   0  0  0  0  0  0  0  0  0  0  0  0
   -2.9187   -0.3840    0.8590 H   0  0  0  0  0  0  0  0  0  0  0  0
   -1.1031   -0.1905   -1.6704 H   0  0  0  0  0  0  0  0  0  0  0  0
   -0.7939   -1.3234    1.2915 H   0  0  0  0  0  0  0  0  0  0  0  0
    0.6705   -1.7361   -1.2360 H   0  0  0  0  0  0  0  0  0  0  0  0
    1.2641   -2.2873    0.3695 H   0  0  0  0  0  0  0  0  0  0  0  0
    2.6476   -0.4061   -1.0424 H   0  0  0  0  0  0  0  0  0  0  0  0
    1.7975    0.4528    1.8850 H   0  0  0  0  0  0  0  0  0  0  0  0
    3.0177    1.2837    0.7528 H   0  0  0  0  0  0  0  0  0  0  0  0
    0.3495    2.2131   -1.5214 H   0  0  0  0  0  0  0  0  0  0  0  0
   -0.7318    1.1964    1.0882 H   0  0  0  0  0  0  0  0  0  0  0  0
  1  2  1  0
  2  3  1  0
  3  4  1  0
  4  5  1  0
  5  6  1  0
  6  7  1  0
  7  8  1  0
  7  9  1  0
  9  2  1  0
  9  3  1  0
  7  5  1  0
  1 10  1  0
  1 11  1  0
  1 12  1  0
  2 13  1  0
  3 14  1  0
  4 15  1  0
  4 16  1  0
  5 17  1  0
  6 18  1  0
  6 19  1  0
  8 20  1  0
  9 21  1  0
M  END
