
     RDKit          3D

 19 19  0  0  0  0  0  0  0  0999 V2000
    2.4388   -0.4562   -0.1056 C   0  0  0  0  0  0  0  0  0  0  0  0
    1.0468   -0.2039    0.4246 C   0  0  0  0  0  0  0  0  0  0  0  0
    0.1092   -1.1968   -0.1784 C   0  0  0  0  0  0  0  0  0  0  0  0
   -1.2035   -1.2394   -0.2095 C   0  0  0  0  0  0  0  0  0  0  0  0
   -2.1758   -0.2862    0.3617 C   0  0  0  0  0  0  0  0  0  0  0  0
   -1.8428    1.0584   -0.1787 C   0  0  0  0  0  0  0  0  0  0  0  0
   -2.7663    1.7432   -0.7038 O   0  0  0  0  0  0  0  0  0  0  0  0
   -0.5195    1.6725   -0.1578 C   0  0  0  0  0  0  0  0  0  0  0  0
    0.6927    1.1939    0.0843 C   0  0  0  0  0  0  0  0  0  0  0  0
    3.0259    0.4947   -0.2056 H   0  0  0  0  0  0  0  0  0  0  0  0
    2.4092   -0.9989   -1.0737 H   0  0  0  0  0  0  0  0  0  0  0  0
    3.0137   -1.0983    0.5928 H   0  0  0  0  0  0  0  0  0  0  0  0
    1.0601   -0.3974    1.5146 H   0  0  0  0  0  0  0  0  0  0  0  0
    0.5817   -2.0388   -0.6846 H   0  0  0  0  0  0  0  0  0  0  0  0
   -1.6394   -2.0772   -0.7168 H   0  0  0  0  0  0  0  0  0  0  0  0
   -2.0352   -0.2149    1.4749 H   0  0  0  0  0  0  0  0  0  0  0  0
   -3.2198   -0.5783    0.1134 H   0  0  0  0  0  0  0  0  0  0  0  0
   -0.5103    2.7511   -0.3878 H   0  0  0  0  0  0  0  0  0  0  0  0
    1.5347    1.8724    0.0360 H   0  0  0  0  0  0  0  0  0  0  0  0
  1  2  1  0
  2  3  1  0
  3  4  2  0
  4  5  1  0
  5  6  1  0
  6  7  2  0
  6  8  1  0
  8  9  2  0
  9  2  1  0
  1 10  1  0
  1 11  1  0
  1 12  1  0
  2 13  1  0
  3 14  1  0
  4 15  1  0
  5 16  1  0
  5 17  1  0
  8 18  1  0
  9 19  1  0
M  END
