
     RDKit          3D

 23 25  0  0  0  0  0  0  0  0999 V2000
   -2.2858    1.0010   -0.8288 C   0  0  0  0  0  0  0  0  0  0  0  0
   -0.9389    0.3390   -0.9662 C   0  0  0  0  0  0  0  0  0  0  0  0
    0.1202    0.8851   -0.0626 C   0  0  0  0  0  0  0  0  0  0  0  0
    1.5577    0.7740   -0.5112 C   0  0  0  0  0  0  0  0  0  0  0  0
    2.5411    0.3296    0.5360 C   0  0  0  0  0  0  0  0  0  0  0  0
    1.9302   -0.6475   -0.3818 C   0  0  0  0  0  0  0  0  0  0  0  0
    0.7014   -1.4186    0.0086 C   0  0  0  0  0  0  0  0  0  0  0  0
   -0.4195   -0.4438    0.1866 C   0  0  0  0  0  0  0  0  0  0  0  0
   -1.3977   -0.7734    1.2609 C   0  0  0  0  0  0  0  0  0  0  0  0
   -2.4186    1.3495    0.2318 H   0  0  0  0  0  0  0  0  0  0  0  0
   -3.1298    0.3455   -1.0546 H   0  0  0  0  0  0  0  0  0  0  0  0
   -2.2914    1.9538   -1.4291 H   0  0  0  0  0  0  0  0  0  0  0  0
   -0.6355    0.1107   -2.0092 H   0  0  0  0  0  0  0  0  0  0  0  0
   -0.1010    1.7824    0.5298 H   0  0  0  0  0  0  0  0  0  0  0  0
    1.9029    1.3475   -1.3945 H   0  0  0  0  0  0  0  0  0  0  0  0
    2.2028    0.4631    1.5848 H   0  0  0  0  0  0  0  0  0  0  0  0
    3.6226    0.5630    0.4160 H   0  0  0  0  0  0  0  0  0  0  0  0
    2.6268   -1.1370   -1.1149 H   0  0  0  0  0  0  0  0  0  0  0  0
    0.5014   -2.2205   -0.7096 H   0  0  0  0  0  0  0  0  0  0  0  0
    0.9130   -1.8673    1.0234 H   0  0  0  0  0  0  0  0  0  0  0  0
   -0.9224   -1.3844    2.0802 H   0  0  0  0  0  0  0  0  0  0  0  0
   -1.8672    0.0783    1.7518 H   0  0  0  0  0  0  0  0  0  0  0  0
   -2.2122   -1.4300    0.8525 H   0  0  0  0  0  0  0  0  0  0  0  0
  1  2  1  0
  2  3  1  0
  3  4  1  0
  4  5  1  0
  5  6  1  0
  6  7  1  0
  7  8  1  0
  8  9  1  0
  8  2  1  0
  8  3  1  0
  6  4  1  0
  1 10  1  0
  1 11  1  0
  1 12  1  0
  2 13  1  0
  3 14  1  0
  4 15  1  0
  5 16  1  0
  5 17  1  0
  6 18  1  0
  7 19  1  0
  7 20  1  0
  9 21  1  0
  9 22  1  0
  9 23  1  0
M  END
