
     RDKit          3D

 23 24  0  0  0  0  0  0  0  0999 V2000
   -1.3813    1.5618    0.3735 C   0  0  0  0  0  0  0  0  0  0  0  0
   -1.2172    0.1446   -0.0628 C   0  0  0  0  0  0  0  0  0  0  0  0
   -1.4997   -0.8993    1.0276 C   0  0  0  0  0  0  0  0  0  0  0  0
   -0.3685   -1.7194    0.3900 C   0  0  0  0  0  0  0  0  0  0  0  0
    0.1621   -0.4035   -0.1178 C   0  0  0  0  0  0  0  0  0  0  0  0
    0.8611   -0.4203   -1.4289 C   0  0  0  0  0  0  0  0  0  0  0  0
    1.9944    0.5808   -1.1543 C   0  0  0  0  0  0  0  0  0  0  0  0
    2.4081    0.1175    0.1153 O   0  0  0  0  0  0  0  0  0  0  0  0
    1.1793    0.1974    0.8103 C   0  0  0  0  0  0  0  0  0  0  0  0
   -0.8886    2.2313   -0.3304 H   0  0  0  0  0  0  0  0  0  0  0  0
   -2.4747    1.7991    0.3354 H   0  0  0  0  0  0  0  0  0  0  0  0
   -0.9907    1.7829    1.3807 H   0  0  0  0  0  0  0  0  0  0  0  0
   -1.7661   -0.0497   -0.9924 H   0  0  0  0  0  0  0  0  0  0  0  0
   -2.4845   -1.3592    0.9819 H   0  0  0  0  0  0  0  0  0  0  0  0
   -1.2023   -0.4428    2.0058 H   0  0  0  0  0  0  0  0  0  0  0  0
    0.2601   -2.2614    1.1025 H   0  0  0  0  0  0  0  0  0  0  0  0
   -0.8114   -2.3541   -0.4032 H   0  0  0  0  0  0  0  0  0  0  0  0
    1.3508   -1.3820   -1.6649 H   0  0  0  0  0  0  0  0  0  0  0  0
    0.2399   -0.1014   -2.2768 H   0  0  0  0  0  0  0  0  0  0  0  0
    1.5853    1.5968   -0.9708 H   0  0  0  0  0  0  0  0  0  0  0  0
    2.7823    0.5314   -1.8992 H   0  0  0  0  0  0  0  0  0  0  0  0
    0.9464    1.2466    1.0325 H   0  0  0  0  0  0  0  0  0  0  0  0
    1.3152   -0.3974    1.7460 H   0  0  0  0  0  0  0  0  0  0  0  0
  1  2  1  0
  2  3  1  0
  3  4  1  0
  4  5  1  0
  5  6  1  0
  6  7  1  0
  7  8  1  0
  8  9  1  0
  5  2  1  0
  9  5  1  0
  1 10  1  0
  1 11  1  0
  1 12  1  0
  2 13  1  0
  3 14  1  0
  3 15  1  0
  4 16  1  0
  4 17  1  0
  6 18  1  0
  6 19  1  0
  7 20  1  0
  7 21  1  0
  9 22  1  0
  9 23  1  0
M  END
