
     RDKit          3D

 21 21  0  0  0  0  0  0  0  0999 V2000
    2.5270   -0.6132   -0.2337 C   0  0  0  0  0  0  0  0  0  0  0  0
    1.2671    0.1393   -0.5649 C   0  0  0  0  0  0  0  0  0  0  0  0
    0.6181    0.8336    0.6413 C   0  0  0  0  0  0  0  0  0  0  0  0
   -0.7068    0.3834    0.0583 C   0  0  0  0  0  0  0  0  0  0  0  0
   -1.2640    1.2690   -0.9776 C   0  0  0  0  0  0  0  0  0  0  0  0
   -2.0015    2.1809   -0.6584 O   0  0  0  0  0  0  0  0  0  0  0  0
   -1.7180   -0.0922    1.0671 C   0  0  0  0  0  0  0  0  0  0  0  0
   -2.8623   -0.4626    0.3625 O   0  0  0  0  0  0  0  0  0  0  0  0
    0.0511   -0.8000   -0.5164 C   0  0  0  0  0  0  0  0  0  0  0  0
    2.8324   -0.4170    0.8204 H   0  0  0  0  0  0  0  0  0  0  0  0
    3.3527   -0.3835   -0.9520 H   0  0  0  0  0  0  0  0  0  0  0  0
    2.3602   -1.7198   -0.2860 H   0  0  0  0  0  0  0  0  0  0  0  0
    1.3079    0.7729   -1.4651 H   0  0  0  0  0  0  0  0  0  0  0  0
    0.7608    1.9170    0.6764 H   0  0  0  0  0  0  0  0  0  0  0  0
    0.8474    0.2586    1.5419 H   0  0  0  0  0  0  0  0  0  0  0  0
   -1.0504    1.1534   -2.0334 H   0  0  0  0  0  0  0  0  0  0  0  0
   -1.3173   -0.9552    1.6216 H   0  0  0  0  0  0  0  0  0  0  0  0
   -1.9533    0.7015    1.8056 H   0  0  0  0  0  0  0  0  0  0  0  0
   -2.9863   -1.4623    0.3611 H   0  0  0  0  0  0  0  0  0  0  0  0
   -0.2831   -1.1296   -1.5109 H   0  0  0  0  0  0  0  0  0  0  0  0
    0.2184   -1.5740    0.2421 H   0  0  0  0  0  0  0  0  0  0  0  0
  1  2  1  0
  2  3  1  0
  3  4  1  0
  4  5  1  0
  5  6  2  0
  4  7  1  0
  7  8  1  0
  4  9  1  0
  9  2  1  0
  1 10  1  0
  1 11  1  0
  1 12  1  0
  2 13  1  0
  3 14  1  0
  3 15  1  0
  5 16  1  0
  7 17  1  0
  7 18  1  0
  8 19  1  0
  9 20  1  0
  9 21  1  0
M  END
