
     RDKit          3D

 27 27  0  0  0  0  0  0  0  0999 V2000
   -2.0149   -1.3064    0.4001 C   0  0  0  0  0  0  0  0  0  0  0  0
   -1.4349   -0.3593   -0.6325 C   0  0  0  0  0  0  0  0  0  0  0  0
   -1.6694    1.0463   -0.1753 C   0  0  0  0  0  0  0  0  0  0  0  0
   -0.7097    1.3852    0.9369 C   0  0  0  0  0  0  0  0  0  0  0  0
    0.6788    1.3149    0.3549 C   0  0  0  0  0  0  0  0  0  0  0  0
    1.0200   -0.0540   -0.1793 C   0  0  0  0  0  0  0  0  0  0  0  0
    2.2590    0.1354   -1.0665 C   0  0  0  0  0  0  0  0  0  0  0  0
    1.4519   -0.9247    0.9975 C   0  0  0  0  0  0  0  0  0  0  0  0
   -0.0348   -0.6707   -1.0108 C   0  0  0  0  0  0  0  0  0  0  0  0
   -1.7723   -2.3698    0.1804 H   0  0  0  0  0  0  0  0  0  0  0  0
   -1.6872   -1.1023    1.4174 H   0  0  0  0  0  0  0  0  0  0  0  0
   -3.1278   -1.1277    0.3843 H   0  0  0  0  0  0  0  0  0  0  0  0
   -2.0713   -0.5042   -1.5559 H   0  0  0  0  0  0  0  0  0  0  0  0
   -2.7143    1.1206    0.1745 H   0  0  0  0  0  0  0  0  0  0  0  0
   -1.4901    1.7916   -0.9865 H   0  0  0  0  0  0  0  0  0  0  0  0
   -0.8701    2.4199    1.2802 H   0  0  0  0  0  0  0  0  0  0  0  0
   -0.7466    0.6713    1.7790 H   0  0  0  0  0  0  0  0  0  0  0  0
    0.7776    2.0789   -0.4593 H   0  0  0  0  0  0  0  0  0  0  0  0
    1.4160    1.5264    1.1693 H   0  0  0  0  0  0  0  0  0  0  0  0
    3.1819   -0.1939   -0.5327 H   0  0  0  0  0  0  0  0  0  0  0  0
    2.1764   -0.4752   -1.9744 H   0  0  0  0  0  0  0  0  0  0  0  0
    2.4151    1.1925   -1.3263 H   0  0  0  0  0  0  0  0  0  0  0  0
    0.8616   -1.8667    1.0440 H   0  0  0  0  0  0  0  0  0  0  0  0
    1.3853   -0.3525    1.9595 H   0  0  0  0  0  0  0  0  0  0  0  0
    2.5175   -1.2281    0.9154 H   0  0  0  0  0  0  0  0  0  0  0  0
    0.1192   -0.3644   -2.0811 H   0  0  0  0  0  0  0  0  0  0  0  0
    0.0832   -1.7830   -1.0126 H   0  0  0  0  0  0  0  0  0  0  0  0
  1  2  1  0
  2  3  1  0
  3  4  1  0
  4  5  1  0
  5  6  1  0
  6  7  1  0
  6  8  1  0
  6  9  1  0
  9  2  1  0
  1 10  1  0
  1 11  1  0
  1 12  1  0
  2 13  1  0
  3 14  1  0
  3 15  1  0
  4 16  1  0
  4 17  1  0
  5 18  1  0
  5 19  1  0
  7 20  1  0
  7 21  1  0
  7 22  1  0
  8 23  1  0
  8 24  1  0
  8 25  1  0
  9 26  1  0
  9 27  1  0
M  END
