
     RDKit          3D

 18 19  0  0  0  0  0  0  0  0999 V2000
    1.8255    1.1461    0.4969 C   0  0  0  0  0  0  0  0  0  0  0  0
    0.4087    0.7014    0.6621 C   0  0  0  0  0  0  0  0  0  0  0  0
   -0.3599    0.5829   -0.6244 C   0  0  0  0  0  0  0  0  0  0  0  0
   -1.8369    0.3829   -0.4501 C   0  0  0  0  0  0  0  0  0  0  0  0
   -1.5100   -0.9255    0.2406 C   0  0  0  0  0  0  0  0  0  0  0  0
   -0.0488   -0.6270    0.1738 C   0  0  0  0  0  0  0  0  0  0  0  0
    0.9157   -1.6381   -0.2729 C   0  0  0  0  0  0  0  0  0  0  0  0
    0.9306   -1.9907   -1.4345 O   0  0  0  0  0  0  0  0  0  0  0  0
    2.2282    0.7330   -0.4676 H   0  0  0  0  0  0  0  0  0  0  0  0
    2.4768    0.9398    1.3559 H   0  0  0  0  0  0  0  0  0  0  0  0
    1.8060    2.2579    0.3464 H   0  0  0  0  0  0  0  0  0  0  0  0
   -0.1443    1.1410    1.5166 H   0  0  0  0  0  0  0  0  0  0  0  0
    0.0897    0.7926   -1.5883 H   0  0  0  0  0  0  0  0  0  0  0  0
   -2.2750    1.1309    0.2464 H   0  0  0  0  0  0  0  0  0  0  0  0
   -2.4106    0.3101   -1.3735 H   0  0  0  0  0  0  0  0  0  0  0  0
   -1.9536   -1.0768    1.2270 H   0  0  0  0  0  0  0  0  0  0  0  0
   -1.7661   -1.7704   -0.4495 H   0  0  0  0  0  0  0  0  0  0  0  0
    1.6242   -2.0901    0.3952 H   0  0  0  0  0  0  0  0  0  0  0  0
  1  2  1  0
  2  3  1  0
  3  4  1  0
  4  5  1  0
  5  6  1  0
  6  7  1  0
  7  8  2  0
  6  2  1  0
  6  3  1  0
  1  9  1  0
  1 10  1  0
  1 11  1  0
  2 12  1  0
  3 13  1  0
  4 14  1  0
  4 15  1  0
  5 16  1  0
  5 17  1  0
  7 18  1  0
M  END
