
     RDKit          3D

 23 23  0  0  0  0  0  0  0  0999 V2000
   -0.7086    1.2850   -0.9729 C   0  0  0  0  0  0  0  0  0  0  0  0
   -0.4818    0.7825    0.4351 C   0  0  0  0  0  0  0  0  0  0  0  0
   -1.8278    0.6549    1.0538 C   0  0  0  0  0  0  0  0  0  0  0  0
   -2.2647   -0.5682    0.8216 C   0  0  0  0  0  0  0  0  0  0  0  0
   -1.2561   -1.3487    0.0380 C   0  0  0  0  0  0  0  0  0  0  0  0
    0.0133   -0.6098    0.5001 C   0  0  0  0  0  0  0  0  0  0  0  0
    1.1227   -0.9721   -0.4068 C   0  0  0  0  0  0  0  0  0  0  0  0
    2.3665   -0.1431   -0.1729 C   0  0  0  0  0  0  0  0  0  0  0  0
    2.1058    1.1955   -0.3681 O   0  0  0  0  0  0  0  0  0  0  0  0
   -0.3116    2.3380   -1.0080 H   0  0  0  0  0  0  0  0  0  0  0  0
   -1.7815    1.3693   -1.2407 H   0  0  0  0  0  0  0  0  0  0  0  0
   -0.2215    0.7021   -1.7452 H   0  0  0  0  0  0  0  0  0  0  0  0
    0.1471    1.4758    1.0273 H   0  0  0  0  0  0  0  0  0  0  0  0
   -2.3678    1.4270    1.6037 H   0  0  0  0  0  0  0  0  0  0  0  0
   -3.2289   -0.9768    1.1478 H   0  0  0  0  0  0  0  0  0  0  0  0
   -1.1942   -2.3950    0.3397 H   0  0  0  0  0  0  0  0  0  0  0  0
   -1.3233   -1.1655   -1.0390 H   0  0  0  0  0  0  0  0  0  0  0  0
    0.2669   -0.8664    1.5271 H   0  0  0  0  0  0  0  0  0  0  0  0
    1.4216   -2.0325   -0.1528 H   0  0  0  0  0  0  0  0  0  0  0  0
    0.9008   -0.9775   -1.4747 H   0  0  0  0  0  0  0  0  0  0  0  0
    2.7329   -0.3770    0.8439 H   0  0  0  0  0  0  0  0  0  0  0  0
    3.1227   -0.5028   -0.9202 H   0  0  0  0  0  0  0  0  0  0  0  0
    2.7674    1.7052    0.1632 H   0  0  0  0  0  0  0  0  0  0  0  0
  1  2  1  0
  2  3  1  0
  3  4  2  0
  4  5  1  0
  5  6  1  0
  6  7  1  0
  7  8  1  0
  8  9  1  0
  6  2  1  0
  1 10  1  0
  1 11  1  0
  1 12  1  0
  2 13  1  0
  3 14  1  0
  4 15  1  0
  5 16  1  0
  5 17  1  0
  6 18  1  0
  7 19  1  0
  7 20  1  0
  8 21  1  0
  8 22  1  0
  9 23  1  0
M  END
