
     RDKit          3D

 23 23  0  0  0  0  0  0  0  0999 V2000
   -0.7804    1.8465    0.0834 C   0  0  0  0  0  0  0  0  0  0  0  0
   -0.6070    0.3967   -0.3857 C   0  0  0  0  0  0  0  0  0  0  0  0
   -1.8254   -0.3493    0.0201 C   0  0  0  0  0  0  0  0  0  0  0  0
   -1.5487   -1.4261    0.8884 O   0  0  0  0  0  0  0  0  0  0  0  0
   -0.5414   -2.1514    0.2094 C   0  0  0  0  0  0  0  0  0  0  0  0
    0.6402   -1.5038    0.4324 O   0  0  0  0  0  0  0  0  0  0  0  0
    0.6846   -0.1943    0.0235 C   0  0  0  0  0  0  0  0  0  0  0  0
    1.6962   -0.1318   -1.1325 C   0  0  0  0  0  0  0  0  0  0  0  0
    1.3533    0.5799    1.1684 C   0  0  0  0  0  0  0  0  0  0  0  0
   -0.0110    2.5080   -0.3086 H   0  0  0  0  0  0  0  0  0  0  0  0
   -0.9137    1.8374    1.1631 H   0  0  0  0  0  0  0  0  0  0  0  0
   -1.7651    2.1681   -0.3629 H   0  0  0  0  0  0  0  0  0  0  0  0
   -0.6173    0.4676   -1.5128 H   0  0  0  0  0  0  0  0  0  0  0  0
   -2.3478   -0.8189   -0.8543 H   0  0  0  0  0  0  0  0  0  0  0  0
   -2.5885    0.2625    0.5317 H   0  0  0  0  0  0  0  0  0  0  0  0
   -0.5169   -3.1379    0.6632 H   0  0  0  0  0  0  0  0  0  0  0  0
   -0.7753   -2.1359   -0.8704 H   0  0  0  0  0  0  0  0  0  0  0  0
    2.0026    0.8924   -1.3550 H   0  0  0  0  0  0  0  0  0  0  0  0
    2.6145   -0.6687   -0.7561 H   0  0  0  0  0  0  0  0  0  0  0  0
    1.3337   -0.7095   -1.9999 H   0  0  0  0  0  0  0  0  0  0  0  0
    0.9443    0.1555    2.1127 H   0  0  0  0  0  0  0  0  0  0  0  0
    2.4529    0.4749    1.0899 H   0  0  0  0  0  0  0  0  0  0  0  0
    1.1163    1.6383    1.1521 H   0  0  0  0  0  0  0  0  0  0  0  0
  1  2  1  0
  2  3  1  0
  3  4  1  0
  4  5  1  0
  5  6  1  0
  6  7  1  0
  7  8  1  0
  7  9  1  0
  7  2  1  0
  1 10  1  0
  1 11  1  0
  1 12  1  0
  2 13  1  0
  3 14  1  0
  3 15  1  0
  5 16  1  0
  5 17  1  0
  8 18  1  0
  8 19  1  0
  8 20  1  0
  9 21  1  0
  9 22  1  0
  9 23  1  0
M  END
