
     RDKit          3D

 21 21  0  0  0  0  0  0  0  0999 V2000
   -2.2579   -0.7038   -0.2117 C   0  0  0  0  0  0  0  0  0  0  0  0
   -0.8972   -0.3255    0.3227 C   0  0  0  0  0  0  0  0  0  0  0  0
    0.2428   -1.1915   -0.1379 C   0  0  0  0  0  0  0  0  0  0  0  0
    0.9108   -1.7942    0.9269 O   0  0  0  0  0  0  0  0  0  0  0  0
    0.9224    0.0863   -0.6461 C   0  0  0  0  0  0  0  0  0  0  0  0
    2.1040    0.4562    0.1882 C   0  0  0  0  0  0  0  0  0  0  0  0
   -0.3328    0.8648   -0.4454 C   0  0  0  0  0  0  0  0  0  0  0  0
   -0.2626    2.0823    0.3606 C   0  0  0  0  0  0  0  0  0  0  0  0
   -0.1198    3.1726   -0.1593 O   0  0  0  0  0  0  0  0  0  0  0  0
   -2.3949   -0.4366   -1.2780 H   0  0  0  0  0  0  0  0  0  0  0  0
   -2.3951   -1.7868   -0.0900 H   0  0  0  0  0  0  0  0  0  0  0  0
   -3.0045   -0.1265    0.3732 H   0  0  0  0  0  0  0  0  0  0  0  0
   -0.8865   -0.1435    1.4110 H   0  0  0  0  0  0  0  0  0  0  0  0
   -0.0187   -1.9065   -0.9368 H   0  0  0  0  0  0  0  0  0  0  0  0
    1.0263   -2.7773    0.7755 H   0  0  0  0  0  0  0  0  0  0  0  0
    1.2313   -0.0767   -1.7049 H   0  0  0  0  0  0  0  0  0  0  0  0
    3.0493    0.5135   -0.4254 H   0  0  0  0  0  0  0  0  0  0  0  0
    1.9375    1.3899    0.7403 H   0  0  0  0  0  0  0  0  0  0  0  0
    2.3216   -0.3679    0.9289 H   0  0  0  0  0  0  0  0  0  0  0  0
   -0.8402    1.0283   -1.4312 H   0  0  0  0  0  0  0  0  0  0  0  0
   -0.3359    2.0432    1.4394 H   0  0  0  0  0  0  0  0  0  0  0  0
  1  2  1  0
  2  3  1  0
  3  4  1  0
  3  5  1  0
  5  6  1  0
  5  7  1  0
  7  8  1  0
  8  9  2  0
  7  2  1  0
  1 10  1  0
  1 11  1  0
  1 12  1  0
  2 13  1  0
  3 14  1  0
  4 15  1  0
  5 16  1  0
  6 17  1  0
  6 18  1  0
  6 19  1  0
  7 20  1  0
  8 21  1  0
M  END
