
     RDKit          2D

 23 25  0  0  0  0  0  0  0  0999 V2000
    2.9184    0.7461    0.0000 C   0  0  0  0  0  0  0  0  0  0  0  0
    1.4266    0.9029    0.0000 C   0  0  0  0  0  0  0  0  0  0  0  0
    1.4266   -0.5971    0.0000 C   0  0  0  0  0  0  0  0  0  0  0  0
   -0.0000   -1.0607    0.0000 C   0  0  0  0  0  0  0  0  0  0  0  0
    1.0607    0.0000    0.0000 C   0  0  0  0  0  0  0  0  0  0  0  0
    0.0000    1.0607    0.0000 C   0  0  0  0  0  0  0  0  0  0  0  0
   -1.0607    2.1213    0.0000 C   0  0  0  0  0  0  0  0  0  0  0  0
   -2.1213    1.0607    0.0000 C   0  0  0  0  0  0  0  0  0  0  0  0
   -1.0607    0.0000    0.0000 C   0  0  0  0  0  0  0  0  0  0  0  0
    4.4102    0.5893    0.0000 H   0  0  0  0  0  0  0  0  0  0  0  0
    3.0752    2.2379    0.0000 H   0  0  0  0  0  0  0  0  0  0  0  0
    3.0294   -0.0433    0.0000 H   0  0  0  0  0  0  0  0  0  0  0  0
    1.7385    2.3701    0.0000 H   0  0  0  0  0  0  0  0  0  0  0  0
    1.7385   -2.0644    0.0000 H   0  0  0  0  0  0  0  0  0  0  0  0
    2.2236   -0.6111    0.0000 H   0  0  0  0  0  0  0  0  0  0  0  0
   -0.0000   -2.5607    0.0000 H   0  0  0  0  0  0  0  0  0  0  0  0
    2.3465    0.7725    0.0000 H   0  0  0  0  0  0  0  0  0  0  0  0
    1.9841   -1.1820    0.0000 H   0  0  0  0  0  0  0  0  0  0  0  0
   -2.1213    3.1820    0.0000 H   0  0  0  0  0  0  0  0  0  0  0  0
   -0.0000    3.1820    0.0000 H   0  0  0  0  0  0  0  0  0  0  0  0
   -3.1820    0.0000    0.0000 H   0  0  0  0  0  0  0  0  0  0  0  0
   -3.1820    2.1213    0.0000 H   0  0  0  0  0  0  0  0  0  0  0  0
   -2.1213   -1.0607    0.0000 H   0  0  0  0  0  0  0  0  0  0  0  0
  1  2  1  0
  2  3  1  0
  3  4  1  0
  4  5  1  0
  5  6  1  0
  6  7  1  0
  7  8  1  0
  8  9  1  0
  6  2  1  0
  9  4  1  0
  9  6  1  0
  1 10  1  0
  1 11  1  0
  1 12  1  0
  2 13  1  0
  3 14  1  0
  3 15  1  0
  4 16  1  0
  5 17  1  0
  5 18  1  0
  7 19  1  0
  7 20  1  0
  8 21  1  0
  8 22  1  0
  9 23  1  0
M  END
