
     RDKit          3D

 19 20  0  0  0  0  0  0  0  0999 V2000
   -2.1076   -0.3267   -0.6699 C   0  0  0  0  0  0  0  0  0  0  0  0
   -0.9636    0.6374   -0.4247 C   0  0  0  0  0  0  0  0  0  0  0  0
   -0.8048    1.0747    1.0455 C   0  0  0  0  0  0  0  0  0  0  0  0
    0.1622    0.1949    0.4208 C   0  0  0  0  0  0  0  0  0  0  0  0
    1.5769    0.5904    0.1291 C   0  0  0  0  0  0  0  0  0  0  0  0
    2.0905   -0.6546   -0.6058 C   0  0  0  0  0  0  0  0  0  0  0  0
    1.2826   -1.7189   -0.1438 O   0  0  0  0  0  0  0  0  0  0  0  0
    0.2662   -1.2484    0.6779 C   0  0  0  0  0  0  0  0  0  0  0  0
   -0.3767   -1.9994    1.4542 O   0  0  0  0  0  0  0  0  0  0  0  0
   -1.7436   -1.2744   -1.1302 H   0  0  0  0  0  0  0  0  0  0  0  0
   -2.5692   -0.6412    0.3060 H   0  0  0  0  0  0  0  0  0  0  0  0
   -2.8733    0.1771   -1.2830 H   0  0  0  0  0  0  0  0  0  0  0  0
   -0.7196    1.3799   -1.2031 H   0  0  0  0  0  0  0  0  0  0  0  0
   -0.5111    2.1598    1.1493 H   0  0  0  0  0  0  0  0  0  0  0  0
   -1.5924    0.7847    1.7344 H   0  0  0  0  0  0  0  0  0  0  0  0
    2.1192    0.6702    1.1149 H   0  0  0  0  0  0  0  0  0  0  0  0
    1.6755    1.4961   -0.4627 H   0  0  0  0  0  0  0  0  0  0  0  0
    1.9204   -0.4829   -1.6974 H   0  0  0  0  0  0  0  0  0  0  0  0
    3.1683   -0.8186   -0.4115 H   0  0  0  0  0  0  0  0  0  0  0  0
  1  2  1  0
  2  3  1  0
  3  4  1  0
  4  5  1  0
  5  6  1  0
  6  7  1  0
  7  8  1  0
  8  9  2  0
  4  2  1  0
  8  4  1  0
  1 10  1  0
  1 11  1  0
  1 12  1  0
  2 13  1  0
  3 14  1  0
  3 15  1  0
  5 16  1  0
  5 17  1  0
  6 18  1  0
  6 19  1  0
M  END
