
     RDKit          3D

 22 22  0  0  0  0  0  0  0  0999 V2000
    2.3017    0.2997    0.5512 C   0  0  0  0  0  0  0  0  0  0  0  0
    1.0795    0.1542   -0.3661 C   0  0  0  0  0  0  0  0  0  0  0  0
    0.6397   -1.2435   -0.4822 C   0  0  0  0  0  0  0  0  0  0  0  0
   -0.7893   -1.5530   -0.2498 C   0  0  0  0  0  0  0  0  0  0  0  0
   -1.5839   -0.5243    0.4640 C   0  0  0  0  0  0  0  0  0  0  0  0
   -1.3410    0.8178   -0.2407 C   0  0  0  0  0  0  0  0  0  0  0  0
   -2.1651    1.7719    0.3337 O   0  0  0  0  0  0  0  0  0  0  0  0
    0.0782    1.1546    0.0592 C   0  0  0  0  0  0  0  0  0  0  0  0
    3.2420    0.3154   -0.0236 H   0  0  0  0  0  0  0  0  0  0  0  0
    2.2607    1.2606    1.1152 H   0  0  0  0  0  0  0  0  0  0  0  0
    2.3308   -0.5189    1.2982 H   0  0  0  0  0  0  0  0  0  0  0  0
    1.4496    0.4965   -1.3792 H   0  0  0  0  0  0  0  0  0  0  0  0
    1.2421   -1.8623    0.2494 H   0  0  0  0  0  0  0  0  0  0  0  0
    0.9219   -1.6928   -1.4821 H   0  0  0  0  0  0  0  0  0  0  0  0
   -1.3205   -1.7605   -1.2270 H   0  0  0  0  0  0  0  0  0  0  0  0
   -0.9157   -2.5220    0.3207 H   0  0  0  0  0  0  0  0  0  0  0  0
   -2.6535   -0.7567    0.3758 H   0  0  0  0  0  0  0  0  0  0  0  0
   -1.3446   -0.4330    1.5434 H   0  0  0  0  0  0  0  0  0  0  0  0
   -1.5435    0.6629   -1.3028 H   0  0  0  0  0  0  0  0  0  0  0  0
   -2.3434    2.4601   -0.3728 H   0  0  0  0  0  0  0  0  0  0  0  0
    0.1578    1.2976    1.1755 H   0  0  0  0  0  0  0  0  0  0  0  0
    0.2962    2.1754   -0.3600 H   0  0  0  0  0  0  0  0  0  0  0  0
  1  2  1  0
  2  3  1  0
  3  4  1  0
  4  5  1  0
  5  6  1  0
  6  7  1  0
  6  8  1  0
  8  2  1  0
  1  9  1  0
  1 10  1  0
  1 11  1  0
  2 12  1  0
  3 13  1  0
  3 14  1  0
  4 15  1  0
  4 16  1  0
  5 17  1  0
  5 18  1  0
  6 19  1  0
  7 20  1  0
  8 21  1  0
  8 22  1  0
M  END
