
     RDKit          3D

 16 16  0  0  0  0  0  0  0  0999 V2000
   -1.9211   -0.3067   -0.0909 C   0  0  0  0  0  0  0  0  0  0  0  0
   -0.5331   -0.0241   -0.5615 C   0  0  0  0  0  0  0  0  0  0  0  0
   -0.1832    1.3892   -0.2463 C   0  0  0  0  0  0  0  0  0  0  0  0
   -0.8807    2.4206   -0.3479 O   0  0  0  0  0  0  0  0  0  0  0  0
    1.1867    1.3736    0.2284 C   0  0  0  0  0  0  0  0  0  0  0  0
    1.5946    0.1560    0.4422 C   0  0  0  0  0  0  0  0  0  0  0  0
    0.5262   -0.8291    0.1315 C   0  0  0  0  0  0  0  0  0  0  0  0
    1.0424   -1.8395   -0.6683 O   0  0  0  0  0  0  0  0  0  0  0  0
   -2.0456   -1.2893    0.3772 H   0  0  0  0  0  0  0  0  0  0  0  0
   -2.2444    0.4544    0.6584 H   0  0  0  0  0  0  0  0  0  0  0  0
   -2.6052   -0.1621   -0.9683 H   0  0  0  0  0  0  0  0  0  0  0  0
   -0.4559   -0.1296   -1.6630 H   0  0  0  0  0  0  0  0  0  0  0  0
    1.8055    2.2524    0.3900 H   0  0  0  0  0  0  0  0  0  0  0  0
    2.5841   -0.1591    0.8032 H   0  0  0  0  0  0  0  0  0  0  0  0
    0.1497   -1.3124    1.0556 H   0  0  0  0  0  0  0  0  0  0  0  0
    1.9801   -1.9943   -0.3818 H   0  0  0  0  0  0  0  0  0  0  0  0
  1  2  1  0
  2  3  1  0
  3  4  2  0
  3  5  1  0
  5  6  2  0
  6  7  1  0
  7  8  1  0
  7  2  1  0
  1  9  1  0
  1 10  1  0
  1 11  1  0
  2 12  1  0
  5 13  1  0
  6 14  1  0
  7 15  1  0
  8 16  1  0
M  END
