
     RDKit          3D

 25 25  0  0  0  0  0  0  0  0999 V2000
    0.9167    1.5665    0.5797 C   0  0  0  0  0  0  0  0  0  0  0  0
    0.4879    0.7087   -0.5636 C   0  0  0  0  0  0  0  0  0  0  0  0
   -0.9270    1.0264   -0.9903 C   0  0  0  0  0  0  0  0  0  0  0  0
   -1.8326    0.6742    0.1549 C   0  0  0  0  0  0  0  0  0  0  0  0
   -2.0795   -0.8354    0.0333 C   0  0  0  0  0  0  0  0  0  0  0  0
   -1.2806   -1.5342    0.8623 O   0  0  0  0  0  0  0  0  0  0  0  0
    0.0480   -1.3487    0.8303 C   0  0  0  0  0  0  0  0  0  0  0  0
    0.6802   -0.7553   -0.3508 C   0  0  0  0  0  0  0  0  0  0  0  0
    2.1966   -0.9650   -0.1887 C   0  0  0  0  0  0  0  0  0  0  0  0
    0.0623    2.2449    0.8736 H   0  0  0  0  0  0  0  0  0  0  0  0
    1.2871    1.0262    1.4559 H   0  0  0  0  0  0  0  0  0  0  0  0
    1.7376    2.2900    0.2984 H   0  0  0  0  0  0  0  0  0  0  0  0
    1.1353    0.9911   -1.4436 H   0  0  0  0  0  0  0  0  0  0  0  0
   -1.0056    2.0652   -1.3282 H   0  0  0  0  0  0  0  0  0  0  0  0
   -1.1393    0.3577   -1.8680 H   0  0  0  0  0  0  0  0  0  0  0  0
   -2.7819    1.2405    0.1462 H   0  0  0  0  0  0  0  0  0  0  0  0
   -1.3799    0.8253    1.1473 H   0  0  0  0  0  0  0  0  0  0  0  0
   -3.1391   -0.9812    0.3319 H   0  0  0  0  0  0  0  0  0  0  0  0
   -2.0283   -1.1420   -1.0437 H   0  0  0  0  0  0  0  0  0  0  0  0
    0.5388   -2.3573    0.9936 H   0  0  0  0  0  0  0  0  0  0  0  0
    0.3567   -0.7666    1.7430 H   0  0  0  0  0  0  0  0  0  0  0  0
    0.4173   -1.2769   -1.2890 H   0  0  0  0  0  0  0  0  0  0  0  0
    2.4606   -1.0068    0.8940 H   0  0  0  0  0  0  0  0  0  0  0  0
    2.7598   -0.1257   -0.6492 H   0  0  0  0  0  0  0  0  0  0  0  0
    2.5088   -1.9216   -0.6295 H   0  0  0  0  0  0  0  0  0  0  0  0
  1  2  1  0
  2  3  1  0
  3  4  1  0
  4  5  1  0
  5  6  1  0
  6  7  1  0
  7  8  1  0
  8  9  1  0
  8  2  1  0
  1 10  1  0
  1 11  1  0
  1 12  1  0
  2 13  1  0
  3 14  1  0
  3 15  1  0
  4 16  1  0
  4 17  1  0
  5 18  1  0
  5 19  1  0
  7 20  1  0
  7 21  1  0
  8 22  1  0
  9 23  1  0
  9 24  1  0
  9 25  1  0
M  END
