
     RDKit          3D

 21 21  0  0  0  0  0  0  0  0999 V2000
   -1.4971   -1.5605   -0.1336 C   0  0  0  0  0  0  0  0  0  0  0  0
   -0.6963   -0.4306    0.4649 C   0  0  0  0  0  0  0  0  0  0  0  0
   -1.5546    0.7524    0.6696 C   0  0  0  0  0  0  0  0  0  0  0  0
   -0.8226    1.8330    0.4629 C   0  0  0  0  0  0  0  0  0  0  0  0
    0.5930    1.4807    0.0995 C   0  0  0  0  0  0  0  0  0  0  0  0
    0.3996    0.0492   -0.4060 C   0  0  0  0  0  0  0  0  0  0  0  0
    0.0426    0.1462   -1.7508 O   0  0  0  0  0  0  0  0  0  0  0  0
    1.6865   -0.6939   -0.3266 C   0  0  0  0  0  0  0  0  0  0  0  0
    2.1844   -0.8821    0.9410 O   0  0  0  0  0  0  0  0  0  0  0  0
   -1.6502   -1.3474   -1.1893 H   0  0  0  0  0  0  0  0  0  0  0  0
   -2.4799   -1.6175    0.3989 H   0  0  0  0  0  0  0  0  0  0  0  0
   -1.0213   -2.5426   -0.0063 H   0  0  0  0  0  0  0  0  0  0  0  0
   -0.2669   -0.7065    1.4571 H   0  0  0  0  0  0  0  0  0  0  0  0
   -2.6161    0.7986    0.9445 H   0  0  0  0  0  0  0  0  0  0  0  0
   -1.1743    2.8760    0.5391 H   0  0  0  0  0  0  0  0  0  0  0  0
    0.9190    2.1179   -0.7362 H   0  0  0  0  0  0  0  0  0  0  0  0
    1.2751    1.5243    0.9501 H   0  0  0  0  0  0  0  0  0  0  0  0
    0.8951    0.3303   -2.2439 H   0  0  0  0  0  0  0  0  0  0  0  0
    2.4319   -0.1091   -0.9419 H   0  0  0  0  0  0  0  0  0  0  0  0
    1.6262   -1.6804   -0.8179 H   0  0  0  0  0  0  0  0  0  0  0  0
    1.7259   -0.3380    1.6249 H   0  0  0  0  0  0  0  0  0  0  0  0
  1  2  1  0
  2  3  1  0
  3  4  2  0
  4  5  1  0
  5  6  1  0
  6  7  1  0
  6  8  1  0
  8  9  1  0
  6  2  1  0
  1 10  1  0
  1 11  1  0
  1 12  1  0
  2 13  1  0
  3 14  1  0
  4 15  1  0
  5 16  1  0
  5 17  1  0
  7 18  1  0
  8 19  1  0
  8 20  1  0
  9 21  1  0
M  END
