
     RDKit          3D

 17 18  0  0  0  0  0  0  0  0999 V2000
    1.9752   -0.0977    0.5368 C   0  0  0  0  0  0  0  0  0  0  0  0
    1.0579   -0.0363   -0.6564 C   0  0  0  0  0  0  0  0  0  0  0  0
    0.1954   -1.2539   -0.6748 C   0  0  0  0  0  0  0  0  0  0  0  0
    0.3942   -2.4337   -0.8960 O   0  0  0  0  0  0  0  0  0  0  0  0
   -0.9687   -0.4425   -0.3209 C   0  0  0  0  0  0  0  0  0  0  0  0
   -2.1693   -0.6732   -0.9691 O   0  0  0  0  0  0  0  0  0  0  0  0
   -0.9465    0.5625    0.7626 C   0  0  0  0  0  0  0  0  0  0  0  0
   -2.1286    1.2674    0.9599 O   0  0  0  0  0  0  0  0  0  0  0  0
   -0.1855    0.7857   -0.4845 C   0  0  0  0  0  0  0  0  0  0  0  0
    1.4476   -0.5346    1.4001 H   0  0  0  0  0  0  0  0  0  0  0  0
    2.4478    0.8670    0.7687 H   0  0  0  0  0  0  0  0  0  0  0  0
    2.8071   -0.7971    0.2574 H   0  0  0  0  0  0  0  0  0  0  0  0
    1.5172    0.1182   -1.6261 H   0  0  0  0  0  0  0  0  0  0  0  0
   -2.6279   -1.3908   -0.4231 H   0  0  0  0  0  0  0  0  0  0  0  0
   -0.4235    0.2358    1.6998 H   0  0  0  0  0  0  0  0  0  0  0  0
   -1.9538    2.2188    0.8156 H   0  0  0  0  0  0  0  0  0  0  0  0
   -0.4387    1.6044   -1.1499 H   0  0  0  0  0  0  0  0  0  0  0  0
  1  2  1  0
  2  3  1  0
  3  4  2  0
  3  5  1  0
  5  6  1  0
  5  7  1  0
  7  8  1  0
  7  9  1  0
  9  2  1  0
  9  5  1  0
  1 10  1  0
  1 11  1  0
  1 12  1  0
  2 13  1  0
  6 14  1  0
  7 15  1  0
  8 16  1  0
  9 17  1  0
M  END
