
     RDKit          3D

 21 22  0  0  0  0  0  0  0  0999 V2000
   -2.2537    0.0313   -0.0038 C   0  0  0  0  0  0  0  0  0  0  0  0
   -0.9456   -0.6401   -0.2284 C   0  0  0  0  0  0  0  0  0  0  0  0
   -0.1202   -0.0577   -1.3861 C   0  0  0  0  0  0  0  0  0  0  0  0
    1.0594   -0.2008   -0.5173 C   0  0  0  0  0  0  0  0  0  0  0  0
    2.3839   -0.3382   -0.7255 C   0  0  0  0  0  0  0  0  0  0  0  0
    1.6271   -1.5677   -0.6891 O   0  0  0  0  0  0  0  0  0  0  0  0
    0.1963   -0.1525    0.6744 C   0  0  0  0  0  0  0  0  0  0  0  0
   -0.0698    1.2662    1.1253 C   0  0  0  0  0  0  0  0  0  0  0  0
    0.4861   -1.0507    1.6926 O   0  0  0  0  0  0  0  0  0  0  0  0
   -2.3311    0.5048    0.9976 H   0  0  0  0  0  0  0  0  0  0  0  0
   -2.4564    0.7519   -0.8164 H   0  0  0  0  0  0  0  0  0  0  0  0
   -3.0733   -0.7360   -0.0659 H   0  0  0  0  0  0  0  0  0  0  0  0
   -0.9514   -1.7384   -0.2805 H   0  0  0  0  0  0  0  0  0  0  0  0
   -0.2055   -0.7116   -2.2655 H   0  0  0  0  0  0  0  0  0  0  0  0
   -0.4220    0.9983   -1.5825 H   0  0  0  0  0  0  0  0  0  0  0  0
    3.1429   -0.3520    0.0681 H   0  0  0  0  0  0  0  0  0  0  0  0
    2.8495   -0.1441   -1.7338 H   0  0  0  0  0  0  0  0  0  0  0  0
    0.8967    1.8287    0.9800 H   0  0  0  0  0  0  0  0  0  0  0  0
   -0.8069    1.7538    0.4595 H   0  0  0  0  0  0  0  0  0  0  0  0
   -0.3353    1.3327    2.1868 H   0  0  0  0  0  0  0  0  0  0  0  0
    1.3296   -0.7780    2.1105 H   0  0  0  0  0  0  0  0  0  0  0  0
  1  2  1  0
  2  3  1  0
  3  4  1  0
  4  5  1  0
  5  6  1  0
  4  7  1  0
  7  8  1  0
  7  9  1  0
  7  2  1  0
  6  4  1  0
  1 10  1  0
  1 11  1  0
  1 12  1  0
  2 13  1  0
  3 14  1  0
  3 15  1  0
  5 16  1  0
  5 17  1  0
  8 18  1  0
  8 19  1  0
  8 20  1  0
  9 21  1  0
M  END
