
     RDKit          3D

 21 22  0  0  0  0  0  0  0  0999 V2000
   -2.0355    1.0353   -0.1148 C   0  0  0  0  0  0  0  0  0  0  0  0
   -0.8520    0.2644   -0.5609 C   0  0  0  0  0  0  0  0  0  0  0  0
   -0.8788   -1.1953   -0.1287 C   0  0  0  0  0  0  0  0  0  0  0  0
    0.5960   -1.4238    0.1872 C   0  0  0  0  0  0  0  0  0  0  0  0
    1.3134   -1.1623   -0.9455 O   0  0  0  0  0  0  0  0  0  0  0  0
    1.4924    0.2040   -1.0855 C   0  0  0  0  0  0  0  0  0  0  0  0
    0.4641    0.7734   -0.0963 C   0  0  0  0  0  0  0  0  0  0  0  0
    0.8315   -0.1771    1.0587 C   0  0  0  0  0  0  0  0  0  0  0  0
    2.1619   -0.0964    1.3857 O   0  0  0  0  0  0  0  0  0  0  0  0
   -2.5611    1.5467   -0.9760 H   0  0  0  0  0  0  0  0  0  0  0  0
   -1.8061    1.8692    0.5903 H   0  0  0  0  0  0  0  0  0  0  0  0
   -2.8157    0.3491    0.3053 H   0  0  0  0  0  0  0  0  0  0  0  0
   -0.8685    0.2389   -1.6896 H   0  0  0  0  0  0  0  0  0  0  0  0
   -1.2580   -1.8655   -0.8951 H   0  0  0  0  0  0  0  0  0  0  0  0
   -1.4130   -1.2296    0.8372 H   0  0  0  0  0  0  0  0  0  0  0  0
    0.7983   -2.3433    0.7022 H   0  0  0  0  0  0  0  0  0  0  0  0
    1.2879    0.5859   -2.0897 H   0  0  0  0  0  0  0  0  0  0  0  0
    2.4852    0.5118   -0.6808 H   0  0  0  0  0  0  0  0  0  0  0  0
    0.5746    1.8028    0.1241 H   0  0  0  0  0  0  0  0  0  0  0  0
    0.1310   -0.1176    1.8819 H   0  0  0  0  0  0  0  0  0  0  0  0
    2.3523    0.4296    2.1903 H   0  0  0  0  0  0  0  0  0  0  0  0
  1  2  1  0
  2  3  1  0
  3  4  1  0
  4  5  1  0
  5  6  1  0
  6  7  1  0
  7  8  1  0
  8  9  1  0
  7  2  1  0
  8  4  1  0
  1 10  1  0
  1 11  1  0
  1 12  1  0
  2 13  1  0
  3 14  1  0
  3 15  1  0
  4 16  1  0
  6 17  1  0
  6 18  1  0
  7 19  1  0
  8 20  1  0
  9 21  1  0
M  END
