
     RDKit          3D

 20 22  0  0  0  0  0  0  0  0999 V2000
    2.4364   -0.3989   -0.0494 C   0  0  0  0  0  0  0  0  0  0  0  0
    0.9824   -0.5418    0.0658 C   0  0  0  0  0  0  0  0  0  0  0  0
    0.1137    0.1418   -0.9632 C   0  0  0  0  0  0  0  0  0  0  0  0
    0.4247    1.4293   -0.2593 C   0  0  0  0  0  0  0  0  0  0  0  0
    0.1983    0.4460    0.8635 C   0  0  0  0  0  0  0  0  0  0  0  0
   -0.9396   -0.0236    0.0486 C   0  0  0  0  0  0  0  0  0  0  0  0
   -2.2933    0.3394    0.0527 C   0  0  0  0  0  0  0  0  0  0  0  0
   -1.8008   -1.1326    0.2739 C   0  0  0  0  0  0  0  0  0  0  0  0
    2.8605   -1.3491   -0.4431 H   0  0  0  0  0  0  0  0  0  0  0  0
    2.7952    0.3972   -0.7306 H   0  0  0  0  0  0  0  0  0  0  0  0
    2.8764   -0.2785    0.9680 H   0  0  0  0  0  0  0  0  0  0  0  0
    0.6643   -1.5883    0.1936 H   0  0  0  0  0  0  0  0  0  0  0  0
    0.1111   -0.0318   -1.9485 H   0  0  0  0  0  0  0  0  0  0  0  0
    1.4112    1.8501   -0.3648 H   0  0  0  0  0  0  0  0  0  0  0  0
   -0.3476    2.2275   -0.3367 H   0  0  0  0  0  0  0  0  0  0  0  0
    0.2543    0.6387    1.8457 H   0  0  0  0  0  0  0  0  0  0  0  0
   -2.8341    0.7674    0.9281 H   0  0  0  0  0  0  0  0  0  0  0  0
   -2.8571    0.4915   -0.8927 H   0  0  0  0  0  0  0  0  0  0  0  0
   -2.0678   -1.8399   -0.5354 H   0  0  0  0  0  0  0  0  0  0  0  0
   -1.9883   -1.5443    1.2839 H   0  0  0  0  0  0  0  0  0  0  0  0
  1  2  1  0
  2  3  1  0
  3  4  1  0
  4  5  1  0
  5  6  1  0
  6  7  1  0
  7  8  1  0
  5  2  1  0
  8  6  1  0
  6  3  1  0
  1  9  1  0
  1 10  1  0
  1 11  1  0
  2 12  1  0
  3 13  1  0
  4 14  1  0
  4 15  1  0
  5 16  1  0
  7 17  1  0
  7 18  1  0
  8 19  1  0
  8 20  1  0
M  END
