
     RDKit          3D

 25 26  0  0  0  0  0  0  0  0999 V2000
    2.4919   -0.1414   -0.3873 C   0  0  0  0  0  0  0  0  0  0  0  0
    1.2750   -0.2313    0.4740 C   0  0  0  0  0  0  0  0  0  0  0  0
    0.4498   -1.4707    0.1197 C   0  0  0  0  0  0  0  0  0  0  0  0
   -0.7644   -0.5887    0.0346 C   0  0  0  0  0  0  0  0  0  0  0  0
   -1.4847   -0.5943   -1.2921 C   0  0  0  0  0  0  0  0  0  0  0  0
   -1.6611   -0.7503    1.2208 C   0  0  0  0  0  0  0  0  0  0  0  0
    0.1169    0.6033    0.1674 C   0  0  0  0  0  0  0  0  0  0  0  0
    0.0250    1.7394   -0.7123 C   0  0  0  0  0  0  0  0  0  0  0  0
   -0.2554    1.8561    0.7936 C   0  0  0  0  0  0  0  0  0  0  0  0
    3.4235   -0.0823    0.2318 H   0  0  0  0  0  0  0  0  0  0  0  0
    2.4377    0.7380   -1.0568 H   0  0  0  0  0  0  0  0  0  0  0  0
    2.6386   -1.0360   -1.0464 H   0  0  0  0  0  0  0  0  0  0  0  0
    1.5201   -0.2367    1.5653 H   0  0  0  0  0  0  0  0  0  0  0  0
    0.7249   -1.9433   -0.8324 H   0  0  0  0  0  0  0  0  0  0  0  0
    0.4303   -2.2229    0.9401 H   0  0  0  0  0  0  0  0  0  0  0  0
   -1.8593   -1.6149   -1.4948 H   0  0  0  0  0  0  0  0  0  0  0  0
   -2.2838    0.1678   -1.2275 H   0  0  0  0  0  0  0  0  0  0  0  0
   -0.8113   -0.3262   -2.1120 H   0  0  0  0  0  0  0  0  0  0  0  0
   -1.0047   -0.7194    2.1319 H   0  0  0  0  0  0  0  0  0  0  0  0
   -2.4208    0.0533    1.2246 H   0  0  0  0  0  0  0  0  0  0  0  0
   -2.1216   -1.7732    1.2011 H   0  0  0  0  0  0  0  0  0  0  0  0
   -0.8753    1.7756   -1.3940 H   0  0  0  0  0  0  0  0  0  0  0  0
    0.8540    2.3771   -1.0516 H   0  0  0  0  0  0  0  0  0  0  0  0
    0.4756    2.4393    1.4052 H   0  0  0  0  0  0  0  0  0  0  0  0
   -1.3211    1.9817    1.0972 H   0  0  0  0  0  0  0  0  0  0  0  0
  1  2  1  0
  2  3  1  0
  3  4  1  0
  4  5  1  0
  4  6  1  0
  4  7  1  0
  7  8  1  0
  8  9  1  0
  7  2  1  0
  9  7  1  0
  1 10  1  0
  1 11  1  0
  1 12  1  0
  2 13  1  0
  3 14  1  0
  3 15  1  0
  5 16  1  0
  5 17  1  0
  5 18  1  0
  6 19  1  0
  6 20  1  0
  6 21  1  0
  8 22  1  0
  8 23  1  0
  9 24  1  0
  9 25  1  0
M  END
