
     RDKit          3D

 23 24  0  0  0  0  0  0  0  0999 V2000
    2.4133   -0.5973   -0.0816 C   0  0  0  0  0  0  0  0  0  0  0  0
    1.1235   -0.1766   -0.7781 C   0  0  0  0  0  0  0  0  0  0  0  0
    0.9063    1.3124   -0.5523 C   0  0  0  0  0  0  0  0  0  0  0  0
   -0.5922    1.3974   -0.4603 C   0  0  0  0  0  0  0  0  0  0  0  0
   -1.0152    0.1906    0.3071 C   0  0  0  0  0  0  0  0  0  0  0  0
   -2.4788   -0.1146    0.3727 C   0  0  0  0  0  0  0  0  0  0  0  0
   -0.1753   -0.3827    1.3809 C   0  0  0  0  0  0  0  0  0  0  0  0
   -0.0121   -0.8388   -0.0326 C   0  0  0  0  0  0  0  0  0  0  0  0
   -0.4163   -2.1102   -0.4073 O   0  0  0  0  0  0  0  0  0  0  0  0
    3.2994   -0.1203   -0.5227 H   0  0  0  0  0  0  0  0  0  0  0  0
    2.3534   -0.2313    0.9749 H   0  0  0  0  0  0  0  0  0  0  0  0
    2.4827   -1.6970   -0.0264 H   0  0  0  0  0  0  0  0  0  0  0  0
    1.1619   -0.4417   -1.8433 H   0  0  0  0  0  0  0  0  0  0  0  0
    1.3357    1.9296   -1.3552 H   0  0  0  0  0  0  0  0  0  0  0  0
    1.4129    1.5668    0.3859 H   0  0  0  0  0  0  0  0  0  0  0  0
   -0.9673    2.3500   -0.0767 H   0  0  0  0  0  0  0  0  0  0  0  0
   -0.9911    1.2746   -1.5081 H   0  0  0  0  0  0  0  0  0  0  0  0
   -2.6762   -0.9529    1.0869 H   0  0  0  0  0  0  0  0  0  0  0  0
   -2.9748    0.7782    0.8479 H   0  0  0  0  0  0  0  0  0  0  0  0
   -2.8916   -0.3292   -0.6330 H   0  0  0  0  0  0  0  0  0  0  0  0
   -0.6252   -1.1143    2.0582 H   0  0  0  0  0  0  0  0  0  0  0  0
    0.5371    0.3043    1.8560 H   0  0  0  0  0  0  0  0  0  0  0  0
   -1.2100   -1.9968   -0.9928 H   0  0  0  0  0  0  0  0  0  0  0  0
  1  2  1  0
  2  3  1  0
  3  4  1  0
  4  5  1  0
  5  6  1  0
  5  7  1  0
  7  8  1  0
  8  9  1  0
  8  2  1  0
  8  5  1  0
  1 10  1  0
  1 11  1  0
  1 12  1  0
  2 13  1  0
  3 14  1  0
  3 15  1  0
  4 16  1  0
  4 17  1  0
  6 18  1  0
  6 19  1  0
  6 20  1  0
  7 21  1  0
  7 22  1  0
  9 23  1  0
M  END
