
     RDKit          3D

 19 20  0  0  0  0  0  0  0  0999 V2000
    2.6574   -0.3140   -0.2186 C   0  0  0  0  0  0  0  0  0  0  0  0
    1.2565    0.0231   -0.6664 C   0  0  0  0  0  0  0  0  0  0  0  0
    0.2829    0.5277    0.3036 C   0  0  0  0  0  0  0  0  0  0  0  0
   -0.8917    1.3849   -0.1321 C   0  0  0  0  0  0  0  0  0  0  0  0
   -2.1466    0.6010   -0.1544 C   0  0  0  0  0  0  0  0  0  0  0  0
   -3.2152    1.1575   -0.1964 O   0  0  0  0  0  0  0  0  0  0  0  0
   -2.0460   -0.8735   -0.1239 C   0  0  0  0  0  0  0  0  0  0  0  0
   -0.9065   -1.2096   -0.8552 O   0  0  0  0  0  0  0  0  0  0  0  0
    0.1959   -0.8729   -0.1171 C   0  0  0  0  0  0  0  0  0  0  0  0
    3.4305   -0.0455   -0.9450 H   0  0  0  0  0  0  0  0  0  0  0  0
    2.7111   -1.4356   -0.1070 H   0  0  0  0  0  0  0  0  0  0  0  0
    2.8450    0.0969    0.7926 H   0  0  0  0  0  0  0  0  0  0  0  0
    1.1629    0.2585   -1.7559 H   0  0  0  0  0  0  0  0  0  0  0  0
    0.6859    0.8219    1.2987 H   0  0  0  0  0  0  0  0  0  0  0  0
   -1.0476    2.2539    0.5353 H   0  0  0  0  0  0  0  0  0  0  0  0
   -0.6702    1.7956   -1.1402 H   0  0  0  0  0  0  0  0  0  0  0  0
   -2.9510   -1.3769   -0.5114 H   0  0  0  0  0  0  0  0  0  0  0  0
   -1.8342   -1.1582    0.9362 H   0  0  0  0  0  0  0  0  0  0  0  0
    0.4808   -1.6348    0.6536 H   0  0  0  0  0  0  0  0  0  0  0  0
  1  2  1  0
  2  3  1  0
  3  4  1  0
  4  5  1  0
  5  6  2  0
  5  7  1  0
  7  8  1  0
  8  9  1  0
  9  2  1  0
  9  3  1  0
  1 10  1  0
  1 11  1  0
  1 12  1  0
  2 13  1  0
  3 14  1  0
  4 15  1  0
  4 16  1  0
  7 17  1  0
  7 18  1  0
  9 19  1  0
M  END
