
     RDKit          3D

 19 20  0  0  0  0  0  0  0  0999 V2000
   -2.3663   -0.3572    0.2724 C   0  0  0  0  0  0  0  0  0  0  0  0
   -0.9896    0.0917    0.6449 C   0  0  0  0  0  0  0  0  0  0  0  0
   -0.1351    0.6272   -0.4454 C   0  0  0  0  0  0  0  0  0  0  0  0
   -0.7066    0.7110   -1.7007 O   0  0  0  0  0  0  0  0  0  0  0  0
    1.2510    1.1178   -0.1993 C   0  0  0  0  0  0  0  0  0  0  0  0
    1.5175   -0.0851    0.6965 C   0  0  0  0  0  0  0  0  0  0  0  0
    2.6224   -0.8319    0.3741 O   0  0  0  0  0  0  0  0  0  0  0  0
    0.1920   -0.6518    0.2018 C   0  0  0  0  0  0  0  0  0  0  0  0
    0.1596   -1.8165   -0.5051 O   0  0  0  0  0  0  0  0  0  0  0  0
   -3.0695    0.4584    0.5312 H   0  0  0  0  0  0  0  0  0  0  0  0
   -2.3866   -0.6008   -0.8238 H   0  0  0  0  0  0  0  0  0  0  0  0
   -2.6593   -1.2796    0.8238 H   0  0  0  0  0  0  0  0  0  0  0  0
   -0.9428    0.5564    1.6722 H   0  0  0  0  0  0  0  0  0  0  0  0
   -1.2683    1.5507   -1.6919 H   0  0  0  0  0  0  0  0  0  0  0  0
    1.3376    2.0754    0.3452 H   0  0  0  0  0  0  0  0  0  0  0  0
    1.8715    1.0449   -1.1240 H   0  0  0  0  0  0  0  0  0  0  0  0
    1.3940    0.1650    1.7879 H   0  0  0  0  0  0  0  0  0  0  0  0
    3.1363   -0.5006   -0.3955 H   0  0  0  0  0  0  0  0  0  0  0  0
    1.0422   -2.2749   -0.4641 H   0  0  0  0  0  0  0  0  0  0  0  0
  1  2  1  0
  2  3  1  0
  3  4  1  0
  3  5  1  0
  5  6  1  0
  6  7  1  0
  6  8  1  0
  8  9  1  0
  8  2  1  0
  8  3  1  0
  1 10  1  0
  1 11  1  0
  1 12  1  0
  2 13  1  0
  4 14  1  0
  5 15  1  0
  5 16  1  0
  6 17  1  0
  7 18  1  0
  9 19  1  0
M  END
