
     RDKit          3D

 20 20  0  0  0  0  0  0  0  0999 V2000
    2.2029   -0.1503    0.0506 C   0  0  0  0  0  0  0  0  0  0  0  0
    0.8336   -0.0776   -0.6116 C   0  0  0  0  0  0  0  0  0  0  0  0
    0.1258   -1.3932   -0.5032 C   0  0  0  0  0  0  0  0  0  0  0  0
   -1.0768   -1.5564   -0.0285 C   0  0  0  0  0  0  0  0  0  0  0  0
   -1.9180   -0.4214    0.4789 C   0  0  0  0  0  0  0  0  0  0  0  0
   -1.4227    0.8123   -0.2491 C   0  0  0  0  0  0  0  0  0  0  0  0
    0.0399    0.9599    0.1515 C   0  0  0  0  0  0  0  0  0  0  0  0
    0.4973    2.2367   -0.0388 O   0  0  0  0  0  0  0  0  0  0  0  0
    2.5351   -1.1757    0.2206 H   0  0  0  0  0  0  0  0  0  0  0  0
    2.2158    0.3688    1.0305 H   0  0  0  0  0  0  0  0  0  0  0  0
    2.9710    0.3519   -0.5727 H   0  0  0  0  0  0  0  0  0  0  0  0
    0.9653    0.2158   -1.6864 H   0  0  0  0  0  0  0  0  0  0  0  0
    0.6593   -2.2864   -0.8493 H   0  0  0  0  0  0  0  0  0  0  0  0
   -1.5032   -2.5530    0.0082 H   0  0  0  0  0  0  0  0  0  0  0  0
   -1.6655   -0.2677    1.5586 H   0  0  0  0  0  0  0  0  0  0  0  0
   -2.9962   -0.6047    0.3240 H   0  0  0  0  0  0  0  0  0  0  0  0
   -1.4684    0.5851   -1.3388 H   0  0  0  0  0  0  0  0  0  0  0  0
   -2.0243    1.6852    0.0264 H   0  0  0  0  0  0  0  0  0  0  0  0
    0.1219    0.6637    1.2370 H   0  0  0  0  0  0  0  0  0  0  0  0
    0.9073    2.6070    0.7921 H   0  0  0  0  0  0  0  0  0  0  0  0
  1  2  1  0
  2  3  1  0
  3  4  2  0
  4  5  1  0
  5  6  1  0
  6  7  1  0
  7  8  1  0
  7  2  1  0
  1  9  1  0
  1 10  1  0
  1 11  1  0
  2 12  1  0
  3 13  1  0
  4 14  1  0
  5 15  1  0
  5 16  1  0
  6 17  1  0
  6 18  1  0
  7 19  1  0
  8 20  1  0
M  END
