
     RDKit          3D

 23 23  0  0  0  0  0  0  0  0999 V2000
   -2.2472    1.3969    0.5094 C   0  0  0  0  0  0  0  0  0  0  0  0
   -1.2458    0.2473    0.5358 C   0  0  0  0  0  0  0  0  0  0  0  0
   -1.6127   -0.6747   -0.5684 C   0  0  0  0  0  0  0  0  0  0  0  0
   -0.5796   -1.7431   -0.6516 C   0  0  0  0  0  0  0  0  0  0  0  0
    0.6524   -1.3598   -0.3427 C   0  0  0  0  0  0  0  0  0  0  0  0
    1.0245    0.0186    0.0617 C   0  0  0  0  0  0  0  0  0  0  0  0
    1.7339    0.7402   -1.0896 C   0  0  0  0  0  0  0  0  0  0  0  0
    2.0875   -0.1525    1.1551 C   0  0  0  0  0  0  0  0  0  0  0  0
   -0.0028    0.8116    0.4555 O   0  0  0  0  0  0  0  0  0  0  0  0
   -1.7671    2.3402    0.8615 H   0  0  0  0  0  0  0  0  0  0  0  0
   -2.5582    1.5901   -0.5378 H   0  0  0  0  0  0  0  0  0  0  0  0
   -3.1366    1.1363    1.1222 H   0  0  0  0  0  0  0  0  0  0  0  0
   -1.3574   -0.2937    1.4963 H   0  0  0  0  0  0  0  0  0  0  0  0
   -1.6923   -0.1740   -1.5585 H   0  0  0  0  0  0  0  0  0  0  0  0
   -2.5775   -1.1570   -0.3147 H   0  0  0  0  0  0  0  0  0  0  0  0
   -0.8225   -2.7707   -0.9470 H   0  0  0  0  0  0  0  0  0  0  0  0
    1.4350   -2.0991   -0.3896 H   0  0  0  0  0  0  0  0  0  0  0  0
    1.1193    0.7491   -2.0046 H   0  0  0  0  0  0  0  0  0  0  0  0
    1.8377    1.7976   -0.7501 H   0  0  0  0  0  0  0  0  0  0  0  0
    2.7483    0.3506   -1.2436 H   0  0  0  0  0  0  0  0  0  0  0  0
    2.3478    0.7916    1.6235 H   0  0  0  0  0  0  0  0  0  0  0  0
    2.9731   -0.6473    0.7115 H   0  0  0  0  0  0  0  0  0  0  0  0
    1.6402   -0.8983    1.8660 H   0  0  0  0  0  0  0  0  0  0  0  0
  1  2  1  0
  2  3  1  0
  3  4  1  0
  4  5  2  0
  5  6  1  0
  6  7  1  0
  6  8  1  0
  6  9  1  0
  9  2  1  0
  1 10  1  0
  1 11  1  0
  1 12  1  0
  2 13  1  0
  3 14  1  0
  3 15  1  0
  4 16  1  0
  5 17  1  0
  7 18  1  0
  7 19  1  0
  7 20  1  0
  8 21  1  0
  8 22  1  0
  8 23  1  0
M  END
