
     RDKit          3D

 21 21  0  0  0  0  0  0  0  0999 V2000
    2.3685   -0.7620    0.3194 C   0  0  0  0  0  0  0  0  0  0  0  0
    0.9789   -0.4196   -0.1878 C   0  0  0  0  0  0  0  0  0  0  0  0
    0.9306    0.9599   -0.8114 C   0  0  0  0  0  0  0  0  0  0  0  0
   -0.3087    1.6760   -0.3877 C   0  0  0  0  0  0  0  0  0  0  0  0
   -1.5220    1.1770   -0.2285 C   0  0  0  0  0  0  0  0  0  0  0  0
   -2.0718   -0.1985   -0.4011 C   0  0  0  0  0  0  0  0  0  0  0  0
   -1.4575   -1.0484    0.7130 C   0  0  0  0  0  0  0  0  0  0  0  0
   -0.0461   -0.6107    0.8447 C   0  0  0  0  0  0  0  0  0  0  0  0
    0.2965   -0.3799    1.9867 O   0  0  0  0  0  0  0  0  0  0  0  0
    2.7060   -1.7667   -0.0391 H   0  0  0  0  0  0  0  0  0  0  0  0
    2.3733   -0.8172    1.4345 H   0  0  0  0  0  0  0  0  0  0  0  0
    3.0770    0.0317   -0.0233 H   0  0  0  0  0  0  0  0  0  0  0  0
    0.7820   -1.1382   -1.0323 H   0  0  0  0  0  0  0  0  0  0  0  0
    1.8251    1.5528   -0.4767 H   0  0  0  0  0  0  0  0  0  0  0  0
    0.9287    0.9331   -1.9154 H   0  0  0  0  0  0  0  0  0  0  0  0
   -0.2022    2.7182   -0.1890 H   0  0  0  0  0  0  0  0  0  0  0  0
   -2.2508    1.9387    0.0932 H   0  0  0  0  0  0  0  0  0  0  0  0
   -3.1637   -0.1663   -0.3309 H   0  0  0  0  0  0  0  0  0  0  0  0
   -1.7769   -0.6408   -1.3746 H   0  0  0  0  0  0  0  0  0  0  0  0
   -1.4455   -2.1024    0.3515 H   0  0  0  0  0  0  0  0  0  0  0  0
   -2.0212   -0.9369    1.6547 H   0  0  0  0  0  0  0  0  0  0  0  0
  1  2  1  0
  2  3  1  0
  3  4  1  0
  4  5  2  0
  5  6  1  0
  6  7  1  0
  7  8  1  0
  8  9  2  0
  8  2  1  0
  1 10  1  0
  1 11  1  0
  1 12  1  0
  2 13  1  0
  3 14  1  0
  3 15  1  0
  4 16  1  0
  5 17  1  0
  6 18  1  0
  6 19  1  0
  7 20  1  0
  7 21  1  0
M  END
