
     RDKit          3D

 19 19  0  0  0  0  0  0  0  0999 V2000
    2.0838    0.6785   -0.3512 C   0  0  0  0  0  0  0  0  0  0  0  0
    1.0899   -0.1480    0.4236 C   0  0  0  0  0  0  0  0  0  0  0  0
   -0.1346    0.6177    0.8521 C   0  0  0  0  0  0  0  0  0  0  0  0
   -0.9711   -0.4495    0.1668 C   0  0  0  0  0  0  0  0  0  0  0  0
   -1.8240    0.2275   -0.9061 C   0  0  0  0  0  0  0  0  0  0  0  0
   -1.6940   -1.2553    1.0415 O   0  0  0  0  0  0  0  0  0  0  0  0
    0.2800   -1.1156   -0.3944 C   0  0  0  0  0  0  0  0  0  0  0  0
    2.7673    1.1344    0.4212 H   0  0  0  0  0  0  0  0  0  0  0  0
    2.6446   -0.0047   -1.0229 H   0  0  0  0  0  0  0  0  0  0  0  0
    1.5995    1.5082   -0.8926 H   0  0  0  0  0  0  0  0  0  0  0  0
    1.5531   -0.6241    1.3218 H   0  0  0  0  0  0  0  0  0  0  0  0
   -0.3490    0.6554    1.9209 H   0  0  0  0  0  0  0  0  0  0  0  0
   -0.1654    1.6119    0.4077 H   0  0  0  0  0  0  0  0  0  0  0  0
   -2.5639   -0.5031   -1.2240 H   0  0  0  0  0  0  0  0  0  0  0  0
   -2.2263    1.1432   -0.4464 H   0  0  0  0  0  0  0  0  0  0  0  0
   -1.0920    0.5136   -1.7029 H   0  0  0  0  0  0  0  0  0  0  0  0
   -1.7667   -0.8509    1.9456 H   0  0  0  0  0  0  0  0  0  0  0  0
    0.4354   -2.1599   -0.0646 H   0  0  0  0  0  0  0  0  0  0  0  0
    0.3335   -0.9794   -1.4961 H   0  0  0  0  0  0  0  0  0  0  0  0
  1  2  1  0
  2  3  1  0
  3  4  1  0
  4  5  1  0
  4  6  1  0
  4  7  1  0
  7  2  1  0
  1  8  1  0
  1  9  1  0
  1 10  1  0
  2 11  1  0
  3 12  1  0
  3 13  1  0
  5 14  1  0
  5 15  1  0
  5 16  1  0
  6 17  1  0
  7 18  1  0
  7 19  1  0
M  END
