
     RDKit          3D

 23 24  0  0  0  0  0  0  0  0999 V2000
   -1.4840    1.4383    1.3393 C   0  0  0  0  0  0  0  0  0  0  0  0
   -0.9754    0.0809    0.8396 C   0  0  0  0  0  0  0  0  0  0  0  0
   -1.1847   -0.1389   -0.6760 C   0  0  0  0  0  0  0  0  0  0  0  0
   -1.6137   -1.5692   -1.0080 C   0  0  0  0  0  0  0  0  0  0  0  0
    0.1248    0.0340   -0.0839 C   0  0  0  0  0  0  0  0  0  0  0  0
    1.1159    1.0658   -0.3735 C   0  0  0  0  0  0  0  0  0  0  0  0
    2.1888   -0.0254   -0.4343 C   0  0  0  0  0  0  0  0  0  0  0  0
    3.0842   -0.0236    0.6005 O   0  0  0  0  0  0  0  0  0  0  0  0
    1.1129   -1.0827   -0.2037 C   0  0  0  0  0  0  0  0  0  0  0  0
   -1.8025    1.3858    2.3959 H   0  0  0  0  0  0  0  0  0  0  0  0
   -2.2780    1.7917    0.6619 H   0  0  0  0  0  0  0  0  0  0  0  0
   -0.6336    2.1641    1.3147 H   0  0  0  0  0  0  0  0  0  0  0  0
   -1.1808   -0.7496    1.5158 H   0  0  0  0  0  0  0  0  0  0  0  0
   -1.6886    0.6596   -1.2274 H   0  0  0  0  0  0  0  0  0  0  0  0
   -1.5383   -1.7957   -2.0668 H   0  0  0  0  0  0  0  0  0  0  0  0
   -2.6204   -1.7800   -0.5643 H   0  0  0  0  0  0  0  0  0  0  0  0
   -0.9226   -2.2784   -0.4702 H   0  0  0  0  0  0  0  0  0  0  0  0
    1.2804    1.7984    0.4578 H   0  0  0  0  0  0  0  0  0  0  0  0
    1.0278    1.6513   -1.3196 H   0  0  0  0  0  0  0  0  0  0  0  0
    2.6899   -0.1037   -1.4237 H   0  0  0  0  0  0  0  0  0  0  0  0
    3.1440    0.8333    1.0998 H   0  0  0  0  0  0  0  0  0  0  0  0
    0.9442   -1.7168   -1.1155 H   0  0  0  0  0  0  0  0  0  0  0  0
    1.2097   -1.6391    0.7417 H   0  0  0  0  0  0  0  0  0  0  0  0
  1  2  1  0
  2  3  1  0
  3  4  1  0
  3  5  1  0
  5  6  1  0
  6  7  1  0
  7  8  1  0
  7  9  1  0
  5  2  1  0
  9  5  1  0
  1 10  1  0
  1 11  1  0
  1 12  1  0
  2 13  1  0
  3 14  1  0
  4 15  1  0
  4 16  1  0
  4 17  1  0
  6 18  1  0
  6 19  1  0
  7 20  1  0
  8 21  1  0
  9 22  1  0
  9 23  1  0
M  END
