
     RDKit          3D

 19 20  0  0  0  0  0  0  0  0999 V2000
   -2.4699   -0.1263   -0.3752 C   0  0  0  0  0  0  0  0  0  0  0  0
   -1.2755    0.3532    0.4588 C   0  0  0  0  0  0  0  0  0  0  0  0
   -0.1649   -0.4956    0.6153 C   0  0  0  0  0  0  0  0  0  0  0  0
    0.6340   -1.3487   -0.2631 C   0  0  0  0  0  0  0  0  0  0  0  0
    1.9394   -0.9105   -0.2571 O   0  0  0  0  0  0  0  0  0  0  0  0
    2.2261    0.2885    0.3095 C   0  0  0  0  0  0  0  0  0  0  0  0
    1.1648    1.3288    0.2010 C   0  0  0  0  0  0  0  0  0  0  0  0
    1.4523    2.4694    0.4369 O   0  0  0  0  0  0  0  0  0  0  0  0
   -0.1395    0.8558   -0.1867 C   0  0  0  0  0  0  0  0  0  0  0  0
   -2.9999   -0.9540    0.1677 H   0  0  0  0  0  0  0  0  0  0  0  0
   -2.1754   -0.4301   -1.3764 H   0  0  0  0  0  0  0  0  0  0  0  0
   -3.1839    0.7228   -0.4725 H   0  0  0  0  0  0  0  0  0  0  0  0
   -1.6770    0.9054    1.3563 H   0  0  0  0  0  0  0  0  0  0  0  0
    0.3146   -0.4781    1.6440 H   0  0  0  0  0  0  0  0  0  0  0  0
    0.3026   -1.3706   -1.3369 H   0  0  0  0  0  0  0  0  0  0  0  0
    0.6622   -2.4308    0.0590 H   0  0  0  0  0  0  0  0  0  0  0  0
    2.4066    0.1384    1.3945 H   0  0  0  0  0  0  0  0  0  0  0  0
    3.1382    0.7225   -0.1805 H   0  0  0  0  0  0  0  0  0  0  0  0
   -0.1548    0.7600   -1.3185 H   0  0  0  0  0  0  0  0  0  0  0  0
  1  2  1  0
  2  3  1  0
  3  4  1  0
  4  5  1  0
  5  6  1  0
  6  7  1  0
  7  8  2  0
  7  9  1  0
  9  2  1  0
  9  3  1  0
  1 10  1  0
  1 11  1  0
  1 12  1  0
  2 13  1  0
  3 14  1  0
  4 15  1  0
  4 16  1  0
  6 17  1  0
  6 18  1  0
  9 19  1  0
M  END
