
     RDKit          3D

 21 22  0  0  0  0  0  0  0  0999 V2000
    2.3353    0.5655   -0.2633 C   0  0  0  0  0  0  0  0  0  0  0  0
    0.9771    0.7532    0.3382 C   0  0  0  0  0  0  0  0  0  0  0  0
    0.6430   -0.2408    1.4656 C   0  0  0  0  0  0  0  0  0  0  0  0
   -0.7600    0.0014    1.0459 C   0  0  0  0  0  0  0  0  0  0  0  0
   -2.0435    0.1933    0.8363 C   0  0  0  0  0  0  0  0  0  0  0  0
   -2.3391    0.4782   -0.6061 C   0  0  0  0  0  0  0  0  0  0  0  0
   -1.0697    0.8741   -1.0569 O   0  0  0  0  0  0  0  0  0  0  0  0
   -0.1709    0.1050   -0.3569 C   0  0  0  0  0  0  0  0  0  0  0  0
    0.0592   -1.2578   -0.9286 C   0  0  0  0  0  0  0  0  0  0  0  0
    2.2406    0.7816   -1.3503 H   0  0  0  0  0  0  0  0  0  0  0  0
    3.0146    1.3155    0.1650 H   0  0  0  0  0  0  0  0  0  0  0  0
    2.6793   -0.4630   -0.0855 H   0  0  0  0  0  0  0  0  0  0  0  0
    0.7188    1.7777    0.6526 H   0  0  0  0  0  0  0  0  0  0  0  0
    0.9223    0.0964    2.4652 H   0  0  0  0  0  0  0  0  0  0  0  0
    0.9832   -1.2533    1.2366 H   0  0  0  0  0  0  0  0  0  0  0  0
   -2.8193    0.1575    1.5890 H   0  0  0  0  0  0  0  0  0  0  0  0
   -3.0605    1.3156   -0.6257 H   0  0  0  0  0  0  0  0  0  0  0  0
   -2.6247   -0.4027   -1.1773 H   0  0  0  0  0  0  0  0  0  0  0  0
   -0.5503   -1.3506   -1.8518 H   0  0  0  0  0  0  0  0  0  0  0  0
   -0.2482   -2.0855   -0.2539 H   0  0  0  0  0  0  0  0  0  0  0  0
    1.1130   -1.3615   -1.2379 H   0  0  0  0  0  0  0  0  0  0  0  0
  1  2  1  0
  2  3  1  0
  3  4  1  0
  4  5  2  0
  5  6  1  0
  6  7  1  0
  7  8  1  0
  8  9  1  0
  8  2  1  0
  8  4  1  0
  1 10  1  0
  1 11  1  0
  1 12  1  0
  2 13  1  0
  3 14  1  0
  3 15  1  0
  5 16  1  0
  6 17  1  0
  6 18  1  0
  9 19  1  0
  9 20  1  0
  9 21  1  0
M  END
