
     RDKit          3D

 13 13  0  0  0  0  0  0  0  0999 V2000
    1.6422    0.2167    0.6375 C   0  0  0  0  0  0  0  0  0  0  0  0
    0.3858    0.0986   -0.1564 C   0  0  0  0  0  0  0  0  0  0  0  0
   -0.6979   -0.7747    0.4252 C   0  0  0  0  0  0  0  0  0  0  0  0
   -1.5153    0.3048   -0.2994 C   0  0  0  0  0  0  0  0  0  0  0  0
   -0.4840    1.1865    0.0857 O   0  0  0  0  0  0  0  0  0  0  0  0
    2.3356   -0.6047    0.4075 H   0  0  0  0  0  0  0  0  0  0  0  0
    1.3788    0.2519    1.7052 H   0  0  0  0  0  0  0  0  0  0  0  0
    2.1078    1.2069    0.3843 H   0  0  0  0  0  0  0  0  0  0  0  0
    0.5082   -0.1156   -1.2372 H   0  0  0  0  0  0  0  0  0  0  0  0
   -0.8781   -1.7326   -0.0724 H   0  0  0  0  0  0  0  0  0  0  0  0
   -0.8394   -0.7223    1.5102 H   0  0  0  0  0  0  0  0  0  0  0  0
   -2.4933    0.5065    0.1255 H   0  0  0  0  0  0  0  0  0  0  0  0
   -1.4505    0.1780   -1.4032 H   0  0  0  0  0  0  0  0  0  0  0  0
  1  2  1  0
  2  3  1  0
  3  4  1  0
  4  5  1  0
  5  2  1  0
  1  6  1  0
  1  7  1  0
  1  8  1  0
  2  9  1  0
  3 10  1  0
  3 11  1  0
  4 12  1  0
  4 13  1  0
M  END
