
     RDKit          3D

 21 22  0  0  0  0  0  0  0  0999 V2000
    2.3763   -0.7384    0.3976 C   0  0  0  0  0  0  0  0  0  0  0  0
    1.4263    0.0892   -0.4144 C   0  0  0  0  0  0  0  0  0  0  0  0
    0.7333    1.0498    0.5293 C   0  0  0  0  0  0  0  0  0  0  0  0
   -0.6198    1.1858   -0.1855 C   0  0  0  0  0  0  0  0  0  0  0  0
   -1.6117    1.6183    0.6514 O   0  0  0  0  0  0  0  0  0  0  0  0
   -0.7688   -0.2495   -0.6286 C   0  0  0  0  0  0  0  0  0  0  0  0
   -1.3717   -1.2270    0.3996 C   0  0  0  0  0  0  0  0  0  0  0  0
   -2.0263   -0.8794   -0.9187 C   0  0  0  0  0  0  0  0  0  0  0  0
    0.4623   -0.6259   -1.0725 O   0  0  0  0  0  0  0  0  0  0  0  0
    2.7082   -0.1357    1.2926 H   0  0  0  0  0  0  0  0  0  0  0  0
    3.3212   -0.9478   -0.1602 H   0  0  0  0  0  0  0  0  0  0  0  0
    1.8997   -1.6356    0.8006 H   0  0  0  0  0  0  0  0  0  0  0  0
    2.0037    0.7201   -1.1303 H   0  0  0  0  0  0  0  0  0  0  0  0
    0.5568    0.5302    1.4955 H   0  0  0  0  0  0  0  0  0  0  0  0
    1.2239    2.0152    0.6183 H   0  0  0  0  0  0  0  0  0  0  0  0
   -0.4544    1.8024   -1.0792 H   0  0  0  0  0  0  0  0  0  0  0  0
   -2.1166    2.3406    0.1612 H   0  0  0  0  0  0  0  0  0  0  0  0
   -0.9461   -2.2543    0.4266 H   0  0  0  0  0  0  0  0  0  0  0  0
   -1.7149   -0.7553    1.3230 H   0  0  0  0  0  0  0  0  0  0  0  0
   -2.1279   -1.6568   -1.7032 H   0  0  0  0  0  0  0  0  0  0  0  0
   -2.9534   -0.2457   -0.8030 H   0  0  0  0  0  0  0  0  0  0  0  0
  1  2  1  0
  2  3  1  0
  3  4  1  0
  4  5  1  0
  4  6  1  0
  6  7  1  0
  7  8  1  0
  6  9  1  0
  9  2  1  0
  8  6  1  0
  1 10  1  0
  1 11  1  0
  1 12  1  0
  2 13  1  0
  3 14  1  0
  3 15  1  0
  4 16  1  0
  5 17  1  0
  7 18  1  0
  7 19  1  0
  8 20  1  0
  8 21  1  0
M  END
