
     RDKit          3D

 23 24  0  0  0  0  0  0  0  0999 V2000
   -2.3778   -0.9898   -0.0425 C   0  0  0  0  0  0  0  0  0  0  0  0
   -1.0673   -0.4058    0.3996 C   0  0  0  0  0  0  0  0  0  0  0  0
    0.0772   -0.9859   -0.3730 C   0  0  0  0  0  0  0  0  0  0  0  0
    1.0932    0.1030   -0.4331 C   0  0  0  0  0  0  0  0  0  0  0  0
    2.3978   -0.2379    0.2254 C   0  0  0  0  0  0  0  0  0  0  0  0
    2.2941   -0.5328    1.5580 O   0  0  0  0  0  0  0  0  0  0  0  0
    0.4581    1.3510    0.0710 C   0  0  0  0  0  0  0  0  0  0  0  0
   -0.6682    1.8586   -0.8325 C   0  0  0  0  0  0  0  0  0  0  0  0
   -0.9899    1.0673    0.3531 C   0  0  0  0  0  0  0  0  0  0  0  0
   -2.5517   -0.9501   -1.1228 H   0  0  0  0  0  0  0  0  0  0  0  0
   -3.2021   -0.5762    0.5680 H   0  0  0  0  0  0  0  0  0  0  0  0
   -2.3367   -2.0879    0.2193 H   0  0  0  0  0  0  0  0  0  0  0  0
   -0.9300   -0.7217    1.4758 H   0  0  0  0  0  0  0  0  0  0  0  0
    0.4711   -1.8871    0.1471 H   0  0  0  0  0  0  0  0  0  0  0  0
   -0.2570   -1.3380   -1.3829 H   0  0  0  0  0  0  0  0  0  0  0  0
    1.3248    0.2765   -1.5228 H   0  0  0  0  0  0  0  0  0  0  0  0
    3.0947    0.6087    0.0302 H   0  0  0  0  0  0  0  0  0  0  0  0
    2.8216   -1.1151   -0.3234 H   0  0  0  0  0  0  0  0  0  0  0  0
    2.3444   -1.5276    1.7089 H   0  0  0  0  0  0  0  0  0  0  0  0
    1.0040    2.0786    0.6901 H   0  0  0  0  0  0  0  0  0  0  0  0
   -0.8253    2.9466   -0.7681 H   0  0  0  0  0  0  0  0  0  0  0  0
   -0.7223    1.4695   -1.8700 H   0  0  0  0  0  0  0  0  0  0  0  0
   -1.4526    1.5959    1.2247 H   0  0  0  0  0  0  0  0  0  0  0  0
  1  2  1  0
  2  3  1  0
  3  4  1  0
  4  5  1  0
  5  6  1  0
  4  7  1  0
  7  8  1  0
  8  9  1  0
  9  2  1  0
  9  7  1  0
  1 10  1  0
  1 11  1  0
  1 12  1  0
  2 13  1  0
  3 14  1  0
  3 15  1  0
  4 16  1  0
  5 17  1  0
  5 18  1  0
  6 19  1  0
  7 20  1  0
  8 21  1  0
  8 22  1  0
  9 23  1  0
M  END
