
     RDKit          3D

 21 23  0  0  0  0  0  0  0  0999 V2000
    2.2244    0.5771   -0.7730 C   0  0  0  0  0  0  0  0  0  0  0  0
    1.3850    0.0524    0.3487 C   0  0  0  0  0  0  0  0  0  0  0  0
    1.0359   -1.4732    0.2817 C   0  0  0  0  0  0  0  0  0  0  0  0
    0.0340   -0.4314    0.2132 C   0  0  0  0  0  0  0  0  0  0  0  0
   -0.7989   -0.1894   -1.0587 C   0  0  0  0  0  0  0  0  0  0  0  0
   -2.1136    0.1119   -0.3306 C   0  0  0  0  0  0  0  0  0  0  0  0
   -1.6946    1.0542    0.7473 C   0  0  0  0  0  0  0  0  0  0  0  0
   -1.0581   -0.2318    1.2230 C   0  0  0  0  0  0  0  0  0  0  0  0
   -2.1678   -0.8820    0.6574 O   0  0  0  0  0  0  0  0  0  0  0  0
    1.9699    0.1767   -1.7529 H   0  0  0  0  0  0  0  0  0  0  0  0
    3.2994    0.4038   -0.4857 H   0  0  0  0  0  0  0  0  0  0  0  0
    2.1116    1.6894   -0.7788 H   0  0  0  0  0  0  0  0  0  0  0  0
    1.7400    0.3990    1.3602 H   0  0  0  0  0  0  0  0  0  0  0  0
    1.2274   -2.0408    1.2033 H   0  0  0  0  0  0  0  0  0  0  0  0
    1.3325   -1.9689   -0.6732 H   0  0  0  0  0  0  0  0  0  0  0  0
   -0.8836   -1.1084   -1.6614 H   0  0  0  0  0  0  0  0  0  0  0  0
   -0.4024    0.6782   -1.5835 H   0  0  0  0  0  0  0  0  0  0  0  0
   -2.9753    0.2981   -0.9193 H   0  0  0  0  0  0  0  0  0  0  0  0
   -0.9360    1.7762    0.3388 H   0  0  0  0  0  0  0  0  0  0  0  0
   -2.4649    1.4746    1.3841 H   0  0  0  0  0  0  0  0  0  0  0  0
   -0.8650   -0.3659    2.2591 H   0  0  0  0  0  0  0  0  0  0  0  0
  1  2  1  0
  2  3  1  0
  3  4  1  0
  4  5  1  0
  5  6  1  0
  6  7  1  0
  7  8  1  0
  8  9  1  0
  4  2  1  0
  9  6  1  0
  8  4  1  0
  1 10  1  0
  1 11  1  0
  1 12  1  0
  2 13  1  0
  3 14  1  0
  3 15  1  0
  5 16  1  0
  5 17  1  0
  6 18  1  0
  7 19  1  0
  7 20  1  0
  8 21  1  0
M  END
