
     RDKit          3D

 21 22  0  0  0  0  0  0  0  0999 V2000
    1.8988   -0.0839    1.0182 C   0  0  0  0  0  0  0  0  0  0  0  0
    1.2311    0.2655   -0.3180 C   0  0  0  0  0  0  0  0  0  0  0  0
    0.5544    1.5602   -0.2545 C   0  0  0  0  0  0  0  0  0  0  0  0
   -0.6939    1.6345    0.1511 C   0  0  0  0  0  0  0  0  0  0  0  0
   -1.4520    0.4380    0.5523 C   0  0  0  0  0  0  0  0  0  0  0  0
   -1.0356   -0.8126   -0.1383 C   0  0  0  0  0  0  0  0  0  0  0  0
   -1.5777   -1.9812    0.4164 O   0  0  0  0  0  0  0  0  0  0  0  0
   -0.8019   -0.7298   -1.5991 C   0  0  0  0  0  0  0  0  0  0  0  0
    0.3199   -0.8839   -0.6474 C   0  0  0  0  0  0  0  0  0  0  0  0
    2.6909   -0.8590    0.8096 H   0  0  0  0  0  0  0  0  0  0  0  0
    2.2934    0.7985    1.5206 H   0  0  0  0  0  0  0  0  0  0  0  0
    1.1260   -0.6065    1.6242 H   0  0  0  0  0  0  0  0  0  0  0  0
    2.0097    0.3083   -1.1072 H   0  0  0  0  0  0  0  0  0  0  0  0
    1.0943    2.4478   -0.5442 H   0  0  0  0  0  0  0  0  0  0  0  0
   -1.1379    2.6429    0.1728 H   0  0  0  0  0  0  0  0  0  0  0  0
   -2.5288    0.6286    0.2693 H   0  0  0  0  0  0  0  0  0  0  0  0
   -1.4160    0.3206    1.6745 H   0  0  0  0  0  0  0  0  0  0  0  0
   -1.4697   -1.8808    1.4006 H   0  0  0  0  0  0  0  0  0  0  0  0
   -0.9136    0.2502   -2.1043 H   0  0  0  0  0  0  0  0  0  0  0  0
   -1.0288   -1.5883   -2.2664 H   0  0  0  0  0  0  0  0  0  0  0  0
    0.8373   -1.8692   -0.6301 H   0  0  0  0  0  0  0  0  0  0  0  0
  1  2  1  0
  2  3  1  0
  3  4  2  0
  4  5  1  0
  5  6  1  0
  6  7  1  0
  6  8  1  0
  8  9  1  0
  9  2  1  0
  9  6  1  0
  1 10  1  0
  1 11  1  0
  1 12  1  0
  2 13  1  0
  3 14  1  0
  4 15  1  0
  5 16  1  0
  5 17  1  0
  7 18  1  0
  8 19  1  0
  8 20  1  0
  9 21  1  0
M  END
