
     RDKit          3D

 22 22  0  0  0  0  0  0  0  0999 V2000
    2.0250    0.7529   -0.0615 C   0  0  0  0  0  0  0  0  0  0  0  0
    1.0151   -0.2899    0.2537 C   0  0  0  0  0  0  0  0  0  0  0  0
    0.6201   -1.1791   -0.9240 C   0  0  0  0  0  0  0  0  0  0  0  0
   -0.6201   -0.3395   -1.0816 C   0  0  0  0  0  0  0  0  0  0  0  0
   -1.8028   -1.0146   -1.2596 O   0  0  0  0  0  0  0  0  0  0  0  0
   -0.4091    0.1193    0.3621 C   0  0  0  0  0  0  0  0  0  0  0  0
   -0.7143    1.5702    0.4812 C   0  0  0  0  0  0  0  0  0  0  0  0
   -1.1368   -0.7376    1.3838 C   0  0  0  0  0  0  0  0  0  0  0  0
    3.0420    0.3018    0.1150 H   0  0  0  0  0  0  0  0  0  0  0  0
    2.0293    1.0959   -1.1059 H   0  0  0  0  0  0  0  0  0  0  0  0
    1.9592    1.5881    0.6756 H   0  0  0  0  0  0  0  0  0  0  0  0
    1.3739   -0.9719    1.0767 H   0  0  0  0  0  0  0  0  0  0  0  0
    0.3308   -2.2120   -0.6357 H   0  0  0  0  0  0  0  0  0  0  0  0
    1.2889   -1.1107   -1.7837 H   0  0  0  0  0  0  0  0  0  0  0  0
   -0.5071    0.4640   -1.8250 H   0  0  0  0  0  0  0  0  0  0  0  0
   -1.9764   -1.1480   -2.2164 H   0  0  0  0  0  0  0  0  0  0  0  0
   -0.9568    2.0478   -0.5071 H   0  0  0  0  0  0  0  0  0  0  0  0
    0.0308    2.1700    0.9983 H   0  0  0  0  0  0  0  0  0  0  0  0
   -1.6693    1.6675    1.0764 H   0  0  0  0  0  0  0  0  0  0  0  0
   -1.9644   -0.1276    1.8330 H   0  0  0  0  0  0  0  0  0  0  0  0
   -1.5268   -1.6483    0.9231 H   0  0  0  0  0  0  0  0  0  0  0  0
   -0.4313   -0.9984    2.2215 H   0  0  0  0  0  0  0  0  0  0  0  0
  1  2  1  0
  2  3  1  0
  3  4  1  0
  4  5  1  0
  4  6  1  0
  6  7  1  0
  6  8  1  0
  6  2  1  0
  1  9  1  0
  1 10  1  0
  1 11  1  0
  2 12  1  0
  3 13  1  0
  3 14  1  0
  4 15  1  0
  5 16  1  0
  7 17  1  0
  7 18  1  0
  7 19  1  0
  8 20  1  0
  8 21  1  0
  8 22  1  0
M  END
