
     RDKit          3D

 21 21  0  0  0  0  0  0  0  0999 V2000
    2.2377   -1.3700    0.4719 C   0  0  0  0  0  0  0  0  0  0  0  0
    1.1896   -0.4014   -0.0316 C   0  0  0  0  0  0  0  0  0  0  0  0
    1.4855    0.9798    0.5026 C   0  0  0  0  0  0  0  0  0  0  0  0
    0.3694    1.8910    0.1362 C   0  0  0  0  0  0  0  0  0  0  0  0
   -0.7494    1.3839   -0.3093 C   0  0  0  0  0  0  0  0  0  0  0  0
   -0.9778   -0.0787   -0.4750 C   0  0  0  0  0  0  0  0  0  0  0  0
   -2.4205   -0.3360   -0.1129 C   0  0  0  0  0  0  0  0  0  0  0  0
   -2.7846   -1.6523   -0.2221 O   0  0  0  0  0  0  0  0  0  0  0  0
   -0.0897   -0.7714    0.3196 O   0  0  0  0  0  0  0  0  0  0  0  0
    2.6442   -2.0120   -0.3381 H   0  0  0  0  0  0  0  0  0  0  0  0
    3.1146   -0.7821    0.8662 H   0  0  0  0  0  0  0  0  0  0  0  0
    1.8796   -2.0051    1.2940 H   0  0  0  0  0  0  0  0  0  0  0  0
    1.2478   -0.3407   -1.1327 H   0  0  0  0  0  0  0  0  0  0  0  0
    1.5496    0.8833    1.6232 H   0  0  0  0  0  0  0  0  0  0  0  0
    2.4521    1.3713    0.1098 H   0  0  0  0  0  0  0  0  0  0  0  0
    0.4568    2.9806    0.2287 H   0  0  0  0  0  0  0  0  0  0  0  0
   -1.5717    2.0596   -0.5791 H   0  0  0  0  0  0  0  0  0  0  0  0
   -0.8541   -0.3224   -1.5465 H   0  0  0  0  0  0  0  0  0  0  0  0
   -2.5757    0.0768    0.9111 H   0  0  0  0  0  0  0  0  0  0  0  0
   -3.0351    0.2610   -0.8392 H   0  0  0  0  0  0  0  0  0  0  0  0
   -3.5684   -1.8152   -0.8173 H   0  0  0  0  0  0  0  0  0  0  0  0
  1  2  1  0
  2  3  1  0
  3  4  1  0
  4  5  2  0
  5  6  1  0
  6  7  1  0
  7  8  1  0
  6  9  1  0
  9  2  1  0
  1 10  1  0
  1 11  1  0
  1 12  1  0
  2 13  1  0
  3 14  1  0
  3 15  1  0
  4 16  1  0
  5 17  1  0
  6 18  1  0
  7 19  1  0
  7 20  1  0
  8 21  1  0
M  END
