
     RDKit          3D

 21 22  0  0  0  0  0  0  0  0999 V2000
   -2.1536   -0.3976    0.1030 C   0  0  0  0  0  0  0  0  0  0  0  0
   -1.2529    0.4851   -0.7166 C   0  0  0  0  0  0  0  0  0  0  0  0
   -0.6591    1.5650    0.1766 C   0  0  0  0  0  0  0  0  0  0  0  0
    0.7043    1.5154    0.0336 O   0  0  0  0  0  0  0  0  0  0  0  0
    1.3537    0.5689    0.7455 C   0  0  0  0  0  0  0  0  0  0  0  0
    2.4810   -0.1367   -0.0355 C   0  0  0  0  0  0  0  0  0  0  0  0
    1.2504   -0.8191    0.3933 C   0  0  0  0  0  0  0  0  0  0  0  0
    0.2886   -1.2334   -0.6526 C   0  0  0  0  0  0  0  0  0  0  0  0
   -0.2642   -0.2187   -1.3906 O   0  0  0  0  0  0  0  0  0  0  0  0
   -2.5245   -1.2260   -0.5220 H   0  0  0  0  0  0  0  0  0  0  0  0
   -1.6639   -0.7528    1.0367 H   0  0  0  0  0  0  0  0  0  0  0  0
   -3.0099    0.2440    0.4357 H   0  0  0  0  0  0  0  0  0  0  0  0
   -1.8884    0.9703   -1.4883 H   0  0  0  0  0  0  0  0  0  0  0  0
   -0.9880    2.5789   -0.1858 H   0  0  0  0  0  0  0  0  0  0  0  0
   -1.0074    1.4958    1.2166 H   0  0  0  0  0  0  0  0  0  0  0  0
    1.5937    0.8366    1.8133 H   0  0  0  0  0  0  0  0  0  0  0  0
    3.4367   -0.1988    0.5039 H   0  0  0  0  0  0  0  0  0  0  0  0
    2.5870    0.0864   -1.1048 H   0  0  0  0  0  0  0  0  0  0  0  0
    1.3879   -1.5744    1.2161 H   0  0  0  0  0  0  0  0  0  0  0  0
   -0.4970   -1.8807   -0.1997 H   0  0  0  0  0  0  0  0  0  0  0  0
    0.8257   -1.9084   -1.3784 H   0  0  0  0  0  0  0  0  0  0  0  0
  1  2  1  0
  2  3  1  0
  3  4  1  0
  4  5  1  0
  5  6  1  0
  6  7  1  0
  7  8  1  0
  8  9  1  0
  9  2  1  0
  7  5  1  0
  1 10  1  0
  1 11  1  0
  1 12  1  0
  2 13  1  0
  3 14  1  0
  3 15  1  0
  5 16  1  0
  6 17  1  0
  6 18  1  0
  7 19  1  0
  8 20  1  0
  8 21  1  0
M  END
