
     RDKit          3D

 19 20  0  0  0  0  0  0  0  0999 V2000
   -2.2579    0.5614    0.0179 C   0  0  0  0  0  0  0  0  0  0  0  0
   -1.0055   -0.1373   -0.4567 C   0  0  0  0  0  0  0  0  0  0  0  0
   -0.7921   -1.3838    0.3790 C   0  0  0  0  0  0  0  0  0  0  0  0
   -0.1861   -0.8921    1.5110 O   0  0  0  0  0  0  0  0  0  0  0  0
    0.7423    0.0417    1.1001 C   0  0  0  0  0  0  0  0  0  0  0  0
    1.5057   -0.1213   -0.1577 C   0  0  0  0  0  0  0  0  0  0  0  0
    2.8167    0.5601   -0.1808 C   0  0  0  0  0  0  0  0  0  0  0  0
    3.7297    0.0644   -0.7958 O   0  0  0  0  0  0  0  0  0  0  0  0
    0.2431    0.6555   -0.1423 C   0  0  0  0  0  0  0  0  0  0  0  0
   -3.0676   -0.1815    0.0445 H   0  0  0  0  0  0  0  0  0  0  0  0
   -2.1028    0.9345    1.0650 H   0  0  0  0  0  0  0  0  0  0  0  0
   -2.5403    1.3839   -0.6558 H   0  0  0  0  0  0  0  0  0  0  0  0
   -1.0586   -0.3386   -1.5329 H   0  0  0  0  0  0  0  0  0  0  0  0
   -1.7644   -1.8576    0.5742 H   0  0  0  0  0  0  0  0  0  0  0  0
   -0.1450   -2.1215   -0.0959 H   0  0  0  0  0  0  0  0  0  0  0  0
    1.1554    0.6612    1.9130 H   0  0  0  0  0  0  0  0  0  0  0  0
    1.4828   -1.0671   -0.7338 H   0  0  0  0  0  0  0  0  0  0  0  0
    2.9861    1.4895    0.3355 H   0  0  0  0  0  0  0  0  0  0  0  0
    0.2584    1.7487   -0.3162 H   0  0  0  0  0  0  0  0  0  0  0  0
  1  2  1  0
  2  3  1  0
  3  4  1  0
  4  5  1  0
  5  6  1  0
  6  7  1  0
  7  8  2  0
  6  9  1  0
  9  2  1  0
  9  5  1  0
  1 10  1  0
  1 11  1  0
  1 12  1  0
  2 13  1  0
  3 14  1  0
  3 15  1  0
  5 16  1  0
  6 17  1  0
  7 18  1  0
  9 19  1  0
M  END
