
     RDKit          3D

 19 19  0  0  0  0  0  0  0  0999 V2000
   -0.4997    1.8322   -0.4628 C   0  0  0  0  0  0  0  0  0  0  0  0
   -0.0100    0.8423    0.5288 C   0  0  0  0  0  0  0  0  0  0  0  0
    1.3442    0.2494    0.3110 C   0  0  0  0  0  0  0  0  0  0  0  0
    0.8000   -1.0312    0.9015 C   0  0  0  0  0  0  0  0  0  0  0  0
    1.1776   -2.1963    0.3077 O   0  0  0  0  0  0  0  0  0  0  0  0
   -0.5777   -0.5622    0.4125 C   0  0  0  0  0  0  0  0  0  0  0  0
   -1.5945   -0.8246    1.3002 O   0  0  0  0  0  0  0  0  0  0  0  0
   -0.9023   -0.9738   -0.9565 C   0  0  0  0  0  0  0  0  0  0  0  0
   -0.1053   -0.8150   -1.8899 O   0  0  0  0  0  0  0  0  0  0  0  0
   -0.0175    1.7584   -1.4522 H   0  0  0  0  0  0  0  0  0  0  0  0
   -0.3406    2.8583   -0.0192 H   0  0  0  0  0  0  0  0  0  0  0  0
   -1.5957    1.6846   -0.5922 H   0  0  0  0  0  0  0  0  0  0  0  0
   -0.0979    1.1920    1.5918 H   0  0  0  0  0  0  0  0  0  0  0  0
    1.6874    0.1134   -0.7161 H   0  0  0  0  0  0  0  0  0  0  0  0
    2.1156    0.7395    0.9361 H   0  0  0  0  0  0  0  0  0  0  0  0
    0.8111   -0.9988    2.0189 H   0  0  0  0  0  0  0  0  0  0  0  0
    2.0170   -2.1832   -0.1816 H   0  0  0  0  0  0  0  0  0  0  0  0
   -2.3630   -0.2603    1.0838 H   0  0  0  0  0  0  0  0  0  0  0  0
   -1.8487   -1.4249   -1.1720 H   0  0  0  0  0  0  0  0  0  0  0  0
  1  2  1  0
  2  3  1  0
  3  4  1  0
  4  5  1  0
  4  6  1  0
  6  7  1  0
  6  8  1  0
  8  9  2  0
  6  2  1  0
  1 10  1  0
  1 11  1  0
  1 12  1  0
  2 13  1  0
  3 14  1  0
  3 15  1  0
  4 16  1  0
  5 17  1  0
  7 18  1  0
  8 19  1  0
M  END
