
     RDKit          2D

 21 24  0  0  0  0  0  0  0  0999 V2000
    3.1160    3.8971    0.0000 C   0  0  0  0  0  0  0  0  0  0  0  0
    2.3660    2.5981    0.0000 C   0  0  0  0  0  0  0  0  0  0  0  0
    1.6160    1.2990    0.0000 C   0  0  0  0  0  0  0  0  0  0  0  0
    0.8660    0.0000    0.0000 C   0  0  0  0  0  0  0  0  0  0  0  0
   -0.4330    0.7500    0.0000 C   0  0  0  0  0  0  0  0  0  0  0  0
   -0.4330   -0.7500    0.0000 C   0  0  0  0  0  0  0  0  0  0  0  0
    1.0670    3.3481    0.0000 C   0  0  0  0  0  0  0  0  0  0  0  0
    0.6788    4.7970    0.0000 C   0  0  0  0  0  0  0  0  0  0  0  0
    0.3170    2.0490    0.0000 C   0  0  0  0  0  0  0  0  0  0  0  0
    3.8660    5.1962    0.0000 H   0  0  0  0  0  0  0  0  0  0  0  0
    4.4151    3.1471    0.0000 H   0  0  0  0  0  0  0  0  0  0  0  0
    2.3301    4.4894    0.0000 H   0  0  0  0  0  0  0  0  0  0  0  0
    3.6651    1.8481    0.0000 H   0  0  0  0  0  0  0  0  0  0  0  0
    2.9151    0.5490    0.0000 H   0  0  0  0  0  0  0  0  0  0  0  0
    1.9267   -1.0607    0.0000 H   0  0  0  0  0  0  0  0  0  0  0  0
   -1.8819    1.1382    0.0000 H   0  0  0  0  0  0  0  0  0  0  0  0
   -1.1830   -2.0490    0.0000 H   0  0  0  0  0  0  0  0  0  0  0  0
    0.2905    6.2459    0.0000 H   0  0  0  0  0  0  0  0  0  0  0  0
   -0.7701    4.4087    0.0000 H   0  0  0  0  0  0  0  0  0  0  0  0
    1.5912    5.1657    0.0000 H   0  0  0  0  0  0  0  0  0  0  0  0
   -0.9821    2.7990    0.0000 H   0  0  0  0  0  0  0  0  0  0  0  0
  1  2  1  0
  2  3  1  0
  3  4  1  0
  4  5  1  0
  5  6  1  0
  6  7  1  0
  7  8  1  0
  7  9  1  0
  7  2  1  0
  9  3  1  0
  6  4  1  0
  9  5  1  0
  1 10  1  0
  1 11  1  0
  1 12  1  0
  2 13  1  0
  3 14  1  0
  4 15  1  0
  5 16  1  0
  6 17  1  0
  8 18  1  0
  8 19  1  0
  8 20  1  0
  9 21  1  0
M  END
