
     RDKit          3D

 17 17  0  0  0  0  0  0  0  0999 V2000
   -1.3354   -1.2596    0.4385 C   0  0  0  0  0  0  0  0  0  0  0  0
   -0.2237   -0.3150    0.7432 C   0  0  0  0  0  0  0  0  0  0  0  0
   -0.6398    1.1006    0.7803 C   0  0  0  0  0  0  0  0  0  0  0  0
   -0.9976    1.8312    1.7284 O   0  0  0  0  0  0  0  0  0  0  0  0
   -0.5551    1.5465   -0.6094 C   0  0  0  0  0  0  0  0  0  0  0  0
    0.2174    0.7487   -1.3043 C   0  0  0  0  0  0  0  0  0  0  0  0
    0.7233   -0.3058   -0.4458 C   0  0  0  0  0  0  0  0  0  0  0  0
    2.1043   -0.1233    0.0180 C   0  0  0  0  0  0  0  0  0  0  0  0
    2.9701    0.2053   -0.7509 O   0  0  0  0  0  0  0  0  0  0  0  0
   -1.4733   -2.0227    1.2430 H   0  0  0  0  0  0  0  0  0  0  0  0
   -1.1810   -1.8374   -0.5078 H   0  0  0  0  0  0  0  0  0  0  0  0
   -2.3089   -0.7127    0.2693 H   0  0  0  0  0  0  0  0  0  0  0  0
    0.3066   -0.5308    1.6890 H   0  0  0  0  0  0  0  0  0  0  0  0
   -1.0485    2.4161   -1.0525 H   0  0  0  0  0  0  0  0  0  0  0  0
    0.4517    0.8516   -2.3663 H   0  0  0  0  0  0  0  0  0  0  0  0
    0.6494   -1.3086   -0.9212 H   0  0  0  0  0  0  0  0  0  0  0  0
    2.3406   -0.2842    1.0484 H   0  0  0  0  0  0  0  0  0  0  0  0
  1  2  1  0
  2  3  1  0
  3  4  2  0
  3  5  1  0
  5  6  2  0
  6  7  1  0
  7  8  1  0
  8  9  2  0
  7  2  1  0
  1 10  1  0
  1 11  1  0
  1 12  1  0
  2 13  1  0
  5 14  1  0
  6 15  1  0
  7 16  1  0
  8 17  1  0
M  END
