
     RDKit          3D

 23 25  0  0  0  0  0  0  0  0999 V2000
   -2.5653   -0.6935   -0.2086 C   0  0  0  0  0  0  0  0  0  0  0  0
   -1.1104   -0.8890    0.0233 C   0  0  0  0  0  0  0  0  0  0  0  0
   -0.4573   -0.3376    1.2236 C   0  0  0  0  0  0  0  0  0  0  0  0
    1.0086   -0.2024    1.3997 C   0  0  0  0  0  0  0  0  0  0  0  0
    1.1928    0.0066   -0.0281 C   0  0  0  0  0  0  0  0  0  0  0  0
    1.9053   -1.0390   -0.7841 C   0  0  0  0  0  0  0  0  0  0  0  0
    2.2792    0.4216   -0.8224 C   0  0  0  0  0  0  0  0  0  0  0  0
   -0.2528    0.2997   -0.1788 C   0  0  0  0  0  0  0  0  0  0  0  0
   -0.7903    1.6823   -0.2767 C   0  0  0  0  0  0  0  0  0  0  0  0
   -2.8916    0.2839    0.2129 H   0  0  0  0  0  0  0  0  0  0  0  0
   -3.1466   -1.5274    0.2010 H   0  0  0  0  0  0  0  0  0  0  0  0
   -2.7283   -0.6751   -1.3222 H   0  0  0  0  0  0  0  0  0  0  0  0
   -0.7130   -1.8513   -0.4098 H   0  0  0  0  0  0  0  0  0  0  0  0
   -1.0870    0.1896    1.9377 H   0  0  0  0  0  0  0  0  0  0  0  0
    1.3027    0.7109    1.9923 H   0  0  0  0  0  0  0  0  0  0  0  0
    1.5194   -1.0944    1.8671 H   0  0  0  0  0  0  0  0  0  0  0  0
    1.3969   -1.5084   -1.6319 H   0  0  0  0  0  0  0  0  0  0  0  0
    2.5970   -1.6868   -0.2025 H   0  0  0  0  0  0  0  0  0  0  0  0
    3.2361    0.7483   -0.3682 H   0  0  0  0  0  0  0  0  0  0  0  0
    2.0907    0.9088   -1.8025 H   0  0  0  0  0  0  0  0  0  0  0  0
   -1.1338    2.0927    0.7181 H   0  0  0  0  0  0  0  0  0  0  0  0
   -1.6711    1.7904   -0.9407 H   0  0  0  0  0  0  0  0  0  0  0  0
    0.0188    2.3700   -0.5990 H   0  0  0  0  0  0  0  0  0  0  0  0
  1  2  1  0
  2  3  1  0
  3  4  1  0
  4  5  1  0
  5  6  1  0
  6  7  1  0
  5  8  1  0
  8  9  1  0
  8  2  1  0
  8  3  1  0
  7  5  1  0
  1 10  1  0
  1 11  1  0
  1 12  1  0
  2 13  1  0
  3 14  1  0
  4 15  1  0
  4 16  1  0
  6 17  1  0
  6 18  1  0
  7 19  1  0
  7 20  1  0
  9 21  1  0
  9 22  1  0
  9 23  1  0
M  END
