
     RDKit          3D

 18 20  0  0  0  0  0  0  0  0999 V2000
    1.9451    0.6653   -0.7832 C   0  0  0  0  0  0  0  0  0  0  0  0
    1.4790   -0.3930    0.1922 C   0  0  0  0  0  0  0  0  0  0  0  0
    0.4240   -0.0054    1.1861 C   0  0  0  0  0  0  0  0  0  0  0  0
   -0.2691    1.1417    0.8894 O   0  0  0  0  0  0  0  0  0  0  0  0
   -1.2989    0.8516    0.0444 C   0  0  0  0  0  0  0  0  0  0  0  0
   -2.2485   -0.2496    0.2364 C   0  0  0  0  0  0  0  0  0  0  0  0
   -0.9885   -0.4110   -0.6405 C   0  0  0  0  0  0  0  0  0  0  0  0
    0.1582   -1.0113    0.1035 C   0  0  0  0  0  0  0  0  0  0  0  0
    2.6520    0.2424   -1.5051 H   0  0  0  0  0  0  0  0  0  0  0  0
    2.4773    1.4407   -0.1705 H   0  0  0  0  0  0  0  0  0  0  0  0
    1.1289    1.1478   -1.3295 H   0  0  0  0  0  0  0  0  0  0  0  0
    2.2956   -1.0057    0.5959 H   0  0  0  0  0  0  0  0  0  0  0  0
    0.4671   -0.3906    2.2232 H   0  0  0  0  0  0  0  0  0  0  0  0
   -1.6441    1.7080   -0.5841 H   0  0  0  0  0  0  0  0  0  0  0  0
   -2.3070   -0.8482    1.1619 H   0  0  0  0  0  0  0  0  0  0  0  0
   -3.1943   -0.2190   -0.3238 H   0  0  0  0  0  0  0  0  0  0  0  0
   -1.1213   -0.5792   -1.7115 H   0  0  0  0  0  0  0  0  0  0  0  0
    0.0445   -2.0844    0.4154 H   0  0  0  0  0  0  0  0  0  0  0  0
  1  2  1  0
  2  3  1  0
  3  4  1  0
  4  5  1  0
  5  6  1  0
  6  7  1  0
  7  8  1  0
  8  2  1  0
  8  3  1  0
  7  5  1  0
  1  9  1  0
  1 10  1  0
  1 11  1  0
  2 12  1  0
  3 13  1  0
  5 14  1  0
  6 15  1  0
  6 16  1  0
  7 17  1  0
  8 18  1  0
M  END
