
     RDKit          3D

 16 17  0  0  0  0  0  0  0  0999 V2000
   -2.2405   -0.0491    0.4118 C   0  0  0  0  0  0  0  0  0  0  0  0
   -1.1676    0.1653   -0.6710 C   0  0  0  0  0  0  0  0  0  0  0  0
   -0.0952    1.0642   -0.4472 C   0  0  0  0  0  0  0  0  0  0  0  0
    1.2372    0.9807   -0.8501 O   0  0  0  0  0  0  0  0  0  0  0  0
    1.3062    0.1073    0.2704 C   0  0  0  0  0  0  0  0  0  0  0  0
    2.5177   -0.7334    0.1833 C   0  0  0  0  0  0  0  0  0  0  0  0
    2.8120   -1.5706    1.0252 O   0  0  0  0  0  0  0  0  0  0  0  0
    0.0839   -0.5079   -0.4336 C   0  0  0  0  0  0  0  0  0  0  0  0
   -3.1010   -0.5973    0.0357 H   0  0  0  0  0  0  0  0  0  0  0  0
   -2.5677    0.9851    0.6857 H   0  0  0  0  0  0  0  0  0  0  0  0
   -1.8150   -0.5697    1.2936 H   0  0  0  0  0  0  0  0  0  0  0  0
   -1.6788    0.2092   -1.6815 H   0  0  0  0  0  0  0  0  0  0  0  0
   -0.0919    1.5370    0.5845 H   0  0  0  0  0  0  0  0  0  0  0  0
    1.0867    0.5545    1.2340 H   0  0  0  0  0  0  0  0  0  0  0  0
    3.2121   -0.6446   -0.6446 H   0  0  0  0  0  0  0  0  0  0  0  0
    0.5019   -0.9307   -1.4039 H   0  0  0  0  0  0  0  0  0  0  0  0
  1  2  1  0
  2  3  1  0
  3  4  1  0
  4  5  1  0
  5  6  1  0
  6  7  2  0
  5  8  1  0
  8  2  1  0
  8  3  1  0
  1  9  1  0
  1 10  1  0
  1 11  1  0
  2 12  1  0
  3 13  1  0
  5 14  1  0
  6 15  1  0
  8 16  1  0
M  END
