
     RDKit          3D

 25 26  0  0  0  0  0  0  0  0999 V2000
   -2.7213   -0.3328   -0.4866 C   0  0  0  0  0  0  0  0  0  0  0  0
   -1.5022    0.1351    0.3229 C   0  0  0  0  0  0  0  0  0  0  0  0
   -0.6974   -1.0731    0.6415 C   0  0  0  0  0  0  0  0  0  0  0  0
    0.4348   -1.1737   -0.3488 C   0  0  0  0  0  0  0  0  0  0  0  0
    1.3625   -0.0166   -0.1048 C   0  0  0  0  0  0  0  0  0  0  0  0
    2.7686   -0.2430   -0.6230 C   0  0  0  0  0  0  0  0  0  0  0  0
    1.2000    0.9089    1.0174 C   0  0  0  0  0  0  0  0  0  0  0  0
    0.6536    1.2501   -0.3272 C   0  0  0  0  0  0  0  0  0  0  0  0
   -0.8205    1.1693   -0.4867 C   0  0  0  0  0  0  0  0  0  0  0  0
   -2.3607   -0.4525   -1.5503 H   0  0  0  0  0  0  0  0  0  0  0  0
   -3.0093   -1.3529   -0.1649 H   0  0  0  0  0  0  0  0  0  0  0  0
   -3.5382    0.4015   -0.4341 H   0  0  0  0  0  0  0  0  0  0  0  0
   -1.9268    0.5580    1.2786 H   0  0  0  0  0  0  0  0  0  0  0  0
   -1.3025   -2.0183    0.5192 H   0  0  0  0  0  0  0  0  0  0  0  0
   -0.3258   -1.1159    1.6903 H   0  0  0  0  0  0  0  0  0  0  0  0
    0.9191   -2.1486   -0.3827 H   0  0  0  0  0  0  0  0  0  0  0  0
   -0.0258   -0.9976   -1.3637 H   0  0  0  0  0  0  0  0  0  0  0  0
    2.8022   -0.7081   -1.6073 H   0  0  0  0  0  0  0  0  0  0  0  0
    3.3815    0.6790   -0.5256 H   0  0  0  0  0  0  0  0  0  0  0  0
    3.2480   -0.9792    0.0862 H   0  0  0  0  0  0  0  0  0  0  0  0
    2.0933    1.4989    1.3110 H   0  0  0  0  0  0  0  0  0  0  0  0
    0.5113    0.7359    1.8666 H   0  0  0  0  0  0  0  0  0  0  0  0
    1.1522    2.0111   -0.9448 H   0  0  0  0  0  0  0  0  0  0  0  0
   -1.2456    2.1718   -0.1856 H   0  0  0  0  0  0  0  0  0  0  0  0
   -1.0511    1.0927   -1.5774 H   0  0  0  0  0  0  0  0  0  0  0  0
  1  2  1  0
  2  3  1  0
  3  4  1  0
  4  5  1  0
  5  6  1  0
  5  7  1  0
  7  8  1  0
  8  9  1  0
  9  2  1  0
  8  5  1  0
  1 10  1  0
  1 11  1  0
  1 12  1  0
  2 13  1  0
  3 14  1  0
  3 15  1  0
  4 16  1  0
  4 17  1  0
  6 18  1  0
  6 19  1  0
  6 20  1  0
  7 21  1  0
  7 22  1  0
  8 23  1  0
  9 24  1  0
  9 25  1  0
M  END
