
     RDKit          3D

 23 24  0  0  0  0  0  0  0  0999 V2000
    2.1740   -0.4011    1.2954 C   0  0  0  0  0  0  0  0  0  0  0  0
    2.0841    0.4908    0.0871 C   0  0  0  0  0  0  0  0  0  0  0  0
    2.0693   -0.1231   -1.2794 C   0  0  0  0  0  0  0  0  0  0  0  0
    0.8519    0.6065   -0.7139 C   0  0  0  0  0  0  0  0  0  0  0  0
   -0.3433   -0.2519   -0.4723 C   0  0  0  0  0  0  0  0  0  0  0  0
   -1.5307   -0.0017   -1.3911 C   0  0  0  0  0  0  0  0  0  0  0  0
   -1.6066    0.3127    0.0689 C   0  0  0  0  0  0  0  0  0  0  0  0
   -2.4930   -0.5964    0.8850 C   0  0  0  0  0  0  0  0  0  0  0  0
   -1.6672    1.6719    0.3604 O   0  0  0  0  0  0  0  0  0  0  0  0
    1.1915   -0.8609    1.5680 H   0  0  0  0  0  0  0  0  0  0  0  0
    2.5658    0.1541    2.1638 H   0  0  0  0  0  0  0  0  0  0  0  0
    2.9360   -1.1885    1.0585 H   0  0  0  0  0  0  0  0  0  0  0  0
    2.7011    1.4106    0.1576 H   0  0  0  0  0  0  0  0  0  0  0  0
    2.6257    0.3700   -2.1123 H   0  0  0  0  0  0  0  0  0  0  0  0
    2.0166   -1.2185   -1.4022 H   0  0  0  0  0  0  0  0  0  0  0  0
    0.6090    1.6053   -1.1677 H   0  0  0  0  0  0  0  0  0  0  0  0
   -0.1275   -1.3287   -0.3112 H   0  0  0  0  0  0  0  0  0  0  0  0
   -1.4418    0.8046   -2.1433 H   0  0  0  0  0  0  0  0  0  0  0  0
   -2.1061   -0.8723   -1.7664 H   0  0  0  0  0  0  0  0  0  0  0  0
   -3.1870   -0.0236    1.5381 H   0  0  0  0  0  0  0  0  0  0  0  0
   -3.1545   -1.2184    0.2300 H   0  0  0  0  0  0  0  0  0  0  0  0
   -1.8538   -1.2498    1.4818 H   0  0  0  0  0  0  0  0  0  0  0  0
   -2.3134    1.9086    1.0475 H   0  0  0  0  0  0  0  0  0  0  0  0
  1  2  1  0
  2  3  1  0
  3  4  1  0
  4  5  1  0
  5  6  1  0
  6  7  1  0
  7  8  1  0
  7  9  1  0
  4  2  1  0
  7  5  1  0
  1 10  1  0
  1 11  1  0
  1 12  1  0
  2 13  1  0
  3 14  1  0
  3 15  1  0
  4 16  1  0
  5 17  1  0
  6 18  1  0
  6 19  1  0
  8 20  1  0
  8 21  1  0
  8 22  1  0
  9 23  1  0
M  END
