
     RDKit          3D

 19 20  0  0  0  0  0  0  0  0999 V2000
   -0.1904    1.7692    0.7905 C   0  0  0  0  0  0  0  0  0  0  0  0
   -0.3007    0.6702   -0.2302 C   0  0  0  0  0  0  0  0  0  0  0  0
   -1.5189   -0.1788    0.1479 C   0  0  0  0  0  0  0  0  0  0  0  0
   -1.1814   -1.4640   -0.5796 C   0  0  0  0  0  0  0  0  0  0  0  0
    0.2624   -1.6028   -0.3216 C   0  0  0  0  0  0  0  0  0  0  0  0
    0.8564   -2.6388   -0.1867 O   0  0  0  0  0  0  0  0  0  0  0  0
    0.8619   -0.2573   -0.2556 C   0  0  0  0  0  0  0  0  0  0  0  0
    2.1745   -0.0433    0.1146 C   0  0  0  0  0  0  0  0  0  0  0  0
    1.8648    0.0147   -1.3119 O   0  0  0  0  0  0  0  0  0  0  0  0
   -0.8833    2.5804    0.4710 H   0  0  0  0  0  0  0  0  0  0  0  0
   -0.5254    1.4114    1.7844 H   0  0  0  0  0  0  0  0  0  0  0  0
    0.8216    2.2316    0.8280 H   0  0  0  0  0  0  0  0  0  0  0  0
   -0.5080    1.0695   -1.2412 H   0  0  0  0  0  0  0  0  0  0  0  0
   -2.4565    0.2804   -0.2510 H   0  0  0  0  0  0  0  0  0  0  0  0
   -1.5956   -0.3245    1.2335 H   0  0  0  0  0  0  0  0  0  0  0  0
   -1.7842   -2.3101   -0.2133 H   0  0  0  0  0  0  0  0  0  0  0  0
   -1.3123   -1.2673   -1.6598 H   0  0  0  0  0  0  0  0  0  0  0  0
    2.5584    0.9370    0.5094 H   0  0  0  0  0  0  0  0  0  0  0  0
    2.8567   -0.8777    0.3713 H   0  0  0  0  0  0  0  0  0  0  0  0
  1  2  1  0
  2  3  1  0
  3  4  1  0
  4  5  1  0
  5  6  2  0
  5  7  1  0
  7  8  1  0
  8  9  1  0
  7  2  1  0
  9  7  1  0
  1 10  1  0
  1 11  1  0
  1 12  1  0
  2 13  1  0
  3 14  1  0
  3 15  1  0
  4 16  1  0
  4 17  1  0
  8 18  1  0
  8 19  1  0
M  END
