
     RDKit          3D

 23 24  0  0  0  0  0  0  0  0999 V2000
    2.6297    0.2101    0.1049 C   0  0  0  0  0  0  0  0  0  0  0  0
    1.1774    0.1859    0.3570 C   0  0  0  0  0  0  0  0  0  0  0  0
    0.4563    1.3996   -0.1322 C   0  0  0  0  0  0  0  0  0  0  0  0
   -0.8535    1.5952   -0.0527 C   0  0  0  0  0  0  0  0  0  0  0  0
   -1.9631    0.7146    0.4112 C   0  0  0  0  0  0  0  0  0  0  0  0
   -1.6854   -0.6685   -0.1471 C   0  0  0  0  0  0  0  0  0  0  0  0
   -0.6983   -1.4332    0.7104 C   0  0  0  0  0  0  0  0  0  0  0  0
    0.4650   -1.0136   -0.1923 C   0  0  0  0  0  0  0  0  0  0  0  0
   -0.5976   -0.6183   -1.2216 C   0  0  0  0  0  0  0  0  0  0  0  0
    3.1319   -0.4494    0.8718 H   0  0  0  0  0  0  0  0  0  0  0  0
    2.9497   -0.1046   -0.8927 H   0  0  0  0  0  0  0  0  0  0  0  0
    3.0153    1.2332    0.3264 H   0  0  0  0  0  0  0  0  0  0  0  0
    1.0145    0.1688    1.4739 H   0  0  0  0  0  0  0  0  0  0  0  0
    1.0768    2.1731   -0.5872 H   0  0  0  0  0  0  0  0  0  0  0  0
   -1.1679    2.5971   -0.3956 H   0  0  0  0  0  0  0  0  0  0  0  0
   -1.8409    0.6245    1.5242 H   0  0  0  0  0  0  0  0  0  0  0  0
   -2.9245    1.1172    0.1147 H   0  0  0  0  0  0  0  0  0  0  0  0
   -2.5762   -1.2360   -0.4521 H   0  0  0  0  0  0  0  0  0  0  0  0
   -0.6156   -1.0940    1.7426 H   0  0  0  0  0  0  0  0  0  0  0  0
   -0.8625   -2.5418    0.5755 H   0  0  0  0  0  0  0  0  0  0  0  0
    1.1044   -1.8435   -0.5027 H   0  0  0  0  0  0  0  0  0  0  0  0
   -0.4612    0.3829   -1.6506 H   0  0  0  0  0  0  0  0  0  0  0  0
   -0.7743   -1.3993   -1.9856 H   0  0  0  0  0  0  0  0  0  0  0  0
  1  2  1  0
  2  3  1  0
  3  4  2  0
  4  5  1  0
  5  6  1  0
  6  7  1  0
  7  8  1  0
  8  9  1  0
  8  2  1  0
  9  6  1  0
  1 10  1  0
  1 11  1  0
  1 12  1  0
  2 13  1  0
  3 14  1  0
  4 15  1  0
  5 16  1  0
  5 17  1  0
  6 18  1  0
  7 19  1  0
  7 20  1  0
  8 21  1  0
  9 22  1  0
  9 23  1  0
M  END
