
     RDKit          3D

 20 21  0  0  0  0  0  0  0  0999 V2000
    2.2927   -0.0809    0.2480 C   0  0  0  0  0  0  0  0  0  0  0  0
    0.9456   -0.4532   -0.2987 C   0  0  0  0  0  0  0  0  0  0  0  0
   -0.1195   -0.7096    0.7006 C   0  0  0  0  0  0  0  0  0  0  0  0
   -1.3508   -1.4997    0.3434 C   0  0  0  0  0  0  0  0  0  0  0  0
   -2.1919   -0.6515   -0.3519 O   0  0  0  0  0  0  0  0  0  0  0  0
   -1.3616    0.0578   -1.1966 C   0  0  0  0  0  0  0  0  0  0  0  0
   -0.1926    0.4418   -0.3406 C   0  0  0  0  0  0  0  0  0  0  0  0
   -0.2493    1.7947    0.2753 C   0  0  0  0  0  0  0  0  0  0  0  0
    2.7097    0.8339   -0.2138 H   0  0  0  0  0  0  0  0  0  0  0  0
    2.9833   -0.9575    0.1480 H   0  0  0  0  0  0  0  0  0  0  0  0
    2.2549    0.1246    1.3471 H   0  0  0  0  0  0  0  0  0  0  0  0
    0.9935   -1.2366   -1.1113 H   0  0  0  0  0  0  0  0  0  0  0  0
    0.0655   -0.4370    1.7417 H   0  0  0  0  0  0  0  0  0  0  0  0
   -1.0451   -2.3737   -0.2460 H   0  0  0  0  0  0  0  0  0  0  0  0
   -1.8737   -1.7886    1.2758 H   0  0  0  0  0  0  0  0  0  0  0  0
   -0.9888   -0.5243   -2.0513 H   0  0  0  0  0  0  0  0  0  0  0  0
   -1.8776    0.9503   -1.5704 H   0  0  0  0  0  0  0  0  0  0  0  0
   -0.6653    1.7211    1.3229 H   0  0  0  0  0  0  0  0  0  0  0  0
   -1.0148    2.4242   -0.2630 H   0  0  0  0  0  0  0  0  0  0  0  0
    0.6858    2.3642    0.2409 H   0  0  0  0  0  0  0  0  0  0  0  0
  1  2  1  0
  2  3  1  0
  3  4  1  0
  4  5  1  0
  5  6  1  0
  6  7  1  0
  7  8  1  0
  7  2  1  0
  7  3  1  0
  1  9  1  0
  1 10  1  0
  1 11  1  0
  2 12  1  0
  3 13  1  0
  4 14  1  0
  4 15  1  0
  6 16  1  0
  6 17  1  0
  8 18  1  0
  8 19  1  0
  8 20  1  0
M  END
