
     RDKit          3D

 21 22  0  0  0  0  0  0  0  0999 V2000
   -2.3741   -0.2697    0.1729 C   0  0  0  0  0  0  0  0  0  0  0  0
   -1.1903    0.4433   -0.4243 C   0  0  0  0  0  0  0  0  0  0  0  0
   -0.6321    1.4879    0.4453 C   0  0  0  0  0  0  0  0  0  0  0  0
    0.6769    1.5719    0.2408 C   0  0  0  0  0  0  0  0  0  0  0  0
    1.1025    0.5757   -0.7965 C   0  0  0  0  0  0  0  0  0  0  0  0
    2.2814   -0.2011   -0.3630 C   0  0  0  0  0  0  0  0  0  0  0  0
    1.9014   -1.2044    0.4283 C   0  0  0  0  0  0  0  0  0  0  0  0
    0.4189   -1.1829    0.5926 C   0  0  0  0  0  0  0  0  0  0  0  0
   -0.0157   -0.4574   -0.6586 C   0  0  0  0  0  0  0  0  0  0  0  0
   -2.7952    0.3087    1.0177 H   0  0  0  0  0  0  0  0  0  0  0  0
   -3.1285   -0.3792   -0.6559 H   0  0  0  0  0  0  0  0  0  0  0  0
   -2.1512   -1.2840    0.5308 H   0  0  0  0  0  0  0  0  0  0  0  0
   -1.4401    0.9178   -1.3994 H   0  0  0  0  0  0  0  0  0  0  0  0
   -1.1917    2.0968    1.1444 H   0  0  0  0  0  0  0  0  0  0  0  0
    1.4023    2.2317    0.7090 H   0  0  0  0  0  0  0  0  0  0  0  0
    1.1710    0.9975   -1.7964 H   0  0  0  0  0  0  0  0  0  0  0  0
    3.2965    0.0490   -0.6722 H   0  0  0  0  0  0  0  0  0  0  0  0
    2.5778   -1.9222    0.8791 H   0  0  0  0  0  0  0  0  0  0  0  0
   -0.0201   -2.1774    0.6968 H   0  0  0  0  0  0  0  0  0  0  0  0
    0.2068   -0.5061    1.4451 H   0  0  0  0  0  0  0  0  0  0  0  0
   -0.0966   -1.0959   -1.5365 H   0  0  0  0  0  0  0  0  0  0  0  0
  1  2  1  0
  2  3  1  0
  3  4  2  0
  4  5  1  0
  5  6  1  0
  6  7  2  0
  7  8  1  0
  8  9  1  0
  9  2  1  0
  9  5  1  0
  1 10  1  0
  1 11  1  0
  1 12  1  0
  2 13  1  0
  3 14  1  0
  4 15  1  0
  5 16  1  0
  6 17  1  0
  7 18  1  0
  8 19  1  0
  8 20  1  0
  9 21  1  0
M  END
