
     RDKit          3D

 21 23  0  0  0  0  0  0  0  0999 V2000
    2.8577   -0.0799   -1.2555 C   0  0  0  0  0  0  0  0  0  0  0  0
    1.4755    0.3377   -0.7966 C   0  0  0  0  0  0  0  0  0  0  0  0
    1.2444    0.8113    0.5781 C   0  0  0  0  0  0  0  0  0  0  0  0
   -0.0692    1.2113    0.8324 O   0  0  0  0  0  0  0  0  0  0  0  0
   -0.3786   -0.1273    0.9819 C   0  0  0  0  0  0  0  0  0  0  0  0
   -1.7666   -0.5351    0.5857 C   0  0  0  0  0  0  0  0  0  0  0  0
   -2.1747   -0.2873   -0.8748 C   0  0  0  0  0  0  0  0  0  0  0  0
   -2.7836    0.5003    0.1985 C   0  0  0  0  0  0  0  0  0  0  0  0
    0.7356   -0.5683    0.0891 C   0  0  0  0  0  0  0  0  0  0  0  0
    2.7734   -0.9966   -1.8742 H   0  0  0  0  0  0  0  0  0  0  0  0
    3.4739   -0.3090   -0.3581 H   0  0  0  0  0  0  0  0  0  0  0  0
    3.3347    0.6859   -1.8951 H   0  0  0  0  0  0  0  0  0  0  0  0
    0.9415    0.9275   -1.5960 H   0  0  0  0  0  0  0  0  0  0  0  0
    1.9750    0.7644    1.3777 H   0  0  0  0  0  0  0  0  0  0  0  0
   -0.1953   -0.4175    2.0419 H   0  0  0  0  0  0  0  0  0  0  0  0
   -2.2005   -1.4385    1.0626 H   0  0  0  0  0  0  0  0  0  0  0  0
   -2.7683   -1.0880   -1.3777 H   0  0  0  0  0  0  0  0  0  0  0  0
   -1.4144    0.1534   -1.5370 H   0  0  0  0  0  0  0  0  0  0  0  0
   -3.8592    0.3299    0.4583 H   0  0  0  0  0  0  0  0  0  0  0  0
   -2.4998    1.5837    0.3317 H   0  0  0  0  0  0  0  0  0  0  0  0
    1.2984   -1.4579    0.4534 H   0  0  0  0  0  0  0  0  0  0  0  0
  1  2  1  0
  2  3  1  0
  3  4  1  0
  4  5  1  0
  5  6  1  0
  6  7  1  0
  7  8  1  0
  5  9  1  0
  9  2  1  0
  9  3  1  0
  8  6  1  0
  1 10  1  0
  1 11  1  0
  1 12  1  0
  2 13  1  0
  3 14  1  0
  5 15  1  0
  6 16  1  0
  7 17  1  0
  7 18  1  0
  8 19  1  0
  8 20  1  0
  9 21  1  0
M  END
