
     RDKit          3D

 18 19  0  0  0  0  0  0  0  0999 V2000
    2.2506    0.8729   -0.3314 C   0  0  0  0  0  0  0  0  0  0  0  0
    1.2492   -0.2889   -0.2517 C   0  0  0  0  0  0  0  0  0  0  0  0
    0.1701   -0.1782    0.6465 C   0  0  0  0  0  0  0  0  0  0  0  0
   -0.9180   -1.0868    1.0537 C   0  0  0  0  0  0  0  0  0  0  0  0
   -2.0276   -0.7355    0.3140 O   0  0  0  0  0  0  0  0  0  0  0  0
   -2.0240    0.4604   -0.3117 C   0  0  0  0  0  0  0  0  0  0  0  0
   -0.9048    0.8028   -1.0581 O   0  0  0  0  0  0  0  0  0  0  0  0
   -0.0010   -0.1830   -0.9009 C   0  0  0  0  0  0  0  0  0  0  0  0
    3.0256    0.6619    0.4572 H   0  0  0  0  0  0  0  0  0  0  0  0
    2.7659    0.7501   -1.3075 H   0  0  0  0  0  0  0  0  0  0  0  0
    1.7660    1.8438   -0.1975 H   0  0  0  0  0  0  0  0  0  0  0  0
    1.8114   -1.2583   -0.3062 H   0  0  0  0  0  0  0  0  0  0  0  0
    0.0598    0.8141    1.1772 H   0  0  0  0  0  0  0  0  0  0  0  0
   -1.1458   -0.9860    2.1137 H   0  0  0  0  0  0  0  0  0  0  0  0
   -0.6178   -2.1395    0.8446 H   0  0  0  0  0  0  0  0  0  0  0  0
   -2.1746    1.2681    0.4373 H   0  0  0  0  0  0  0  0  0  0  0  0
   -2.8912    0.5156   -1.0023 H   0  0  0  0  0  0  0  0  0  0  0  0
   -0.3939   -1.1335   -1.3767 H   0  0  0  0  0  0  0  0  0  0  0  0
  1  2  1  0
  2  3  1  0
  3  4  1  0
  4  5  1  0
  5  6  1  0
  6  7  1  0
  7  8  1  0
  8  2  1  0
  8  3  1  0
  1  9  1  0
  1 10  1  0
  1 11  1  0
  2 12  1  0
  3 13  1  0
  4 14  1  0
  4 15  1  0
  6 16  1  0
  6 17  1  0
  8 18  1  0
M  END
