
     RDKit          3D

 17 18  0  0  0  0  0  0  0  0999 V2000
    2.4033    0.2308   -0.0602 C   0  0  0  0  0  0  0  0  0  0  0  0
    0.9304   -0.0013   -0.3740 C   0  0  0  0  0  0  0  0  0  0  0  0
    0.0899   -0.3789    0.7559 C   0  0  0  0  0  0  0  0  0  0  0  0
   -1.2694   -1.0261    0.5798 C   0  0  0  0  0  0  0  0  0  0  0  0
   -2.1608    0.1633    0.2479 C   0  0  0  0  0  0  0  0  0  0  0  0
   -1.3198    0.9423   -0.5491 O   0  0  0  0  0  0  0  0  0  0  0  0
   -0.0937    0.9399    0.1164 C   0  0  0  0  0  0  0  0  0  0  0  0
    2.5354    1.1611    0.5157 H   0  0  0  0  0  0  0  0  0  0  0  0
    2.7551   -0.6233    0.5680 H   0  0  0  0  0  0  0  0  0  0  0  0
    3.0290    0.2373   -0.9710 H   0  0  0  0  0  0  0  0  0  0  0  0
    0.7753   -0.4456   -1.3883 H   0  0  0  0  0  0  0  0  0  0  0  0
    0.5479   -0.4910    1.7639 H   0  0  0  0  0  0  0  0  0  0  0  0
   -1.2930   -1.7551   -0.2339 H   0  0  0  0  0  0  0  0  0  0  0  0
   -1.6316   -1.4734    1.5096 H   0  0  0  0  0  0  0  0  0  0  0  0
   -3.0664   -0.1324   -0.2995 H   0  0  0  0  0  0  0  0  0  0  0  0
   -2.3728    0.7638    1.1585 H   0  0  0  0  0  0  0  0  0  0  0  0
    0.1414    1.8887    0.6049 H   0  0  0  0  0  0  0  0  0  0  0  0
  1  2  1  0
  2  3  1  0
  3  4  1  0
  4  5  1  0
  5  6  1  0
  6  7  1  0
  7  2  1  0
  7  3  1  0
  1  8  1  0
  1  9  1  0
  1 10  1  0
  2 11  1  0
  3 12  1  0
  4 13  1  0
  4 14  1  0
  5 15  1  0
  5 16  1  0
  7 17  1  0
M  END
