
     RDKit          3D

 23 24  0  0  0  0  0  0  0  0999 V2000
    2.5692    0.2013   -0.6180 C   0  0  0  0  0  0  0  0  0  0  0  0
    1.1350   -0.1739   -0.7377 C   0  0  0  0  0  0  0  0  0  0  0  0
    0.4544   -0.6631    0.5175 C   0  0  0  0  0  0  0  0  0  0  0  0
    0.7276    0.7171    1.0258 C   0  0  0  0  0  0  0  0  0  0  0  0
    0.2225    0.9566   -0.3521 C   0  0  0  0  0  0  0  0  0  0  0  0
   -0.7895   -0.1230   -0.0669 C   0  0  0  0  0  0  0  0  0  0  0  0
   -1.3022   -0.8159   -1.3117 C   0  0  0  0  0  0  0  0  0  0  0  0
   -1.9206    0.2469    0.8530 C   0  0  0  0  0  0  0  0  0  0  0  0
   -2.3622   -0.8549    1.6029 O   0  0  0  0  0  0  0  0  0  0  0  0
    3.1093   -0.2770    0.2169 H   0  0  0  0  0  0  0  0  0  0  0  0
    2.7498    1.3030   -0.5786 H   0  0  0  0  0  0  0  0  0  0  0  0
    3.1102   -0.1341   -1.5499 H   0  0  0  0  0  0  0  0  0  0  0  0
    0.8817   -0.7613   -1.6109 H   0  0  0  0  0  0  0  0  0  0  0  0
    0.6198   -1.5335    0.9837 H   0  0  0  0  0  0  0  0  0  0  0  0
    0.1587    1.0956    1.8695 H   0  0  0  0  0  0  0  0  0  0  0  0
    1.8082    0.9513    1.1963 H   0  0  0  0  0  0  0  0  0  0  0  0
    0.0739    1.8144   -0.8372 H   0  0  0  0  0  0  0  0  0  0  0  0
   -0.9956   -0.2841   -2.2447 H   0  0  0  0  0  0  0  0  0  0  0  0
   -2.4103   -0.7915   -1.3122 H   0  0  0  0  0  0  0  0  0  0  0  0
   -0.9939   -1.8668   -1.2830 H   0  0  0  0  0  0  0  0  0  0  0  0
   -1.7676    1.1567    1.4541 H   0  0  0  0  0  0  0  0  0  0  0  0
   -2.8260    0.5071    0.2128 H   0  0  0  0  0  0  0  0  0  0  0  0
   -2.2524   -0.6707    2.5700 H   0  0  0  0  0  0  0  0  0  0  0  0
  1  2  1  0
  2  3  1  0
  3  4  1  0
  4  5  1  0
  5  6  1  0
  6  7  1  0
  6  8  1  0
  8  9  1  0
  5  2  1  0
  6  3  1  0
  1 10  1  0
  1 11  1  0
  1 12  1  0
  2 13  1  0
  3 14  1  0
  4 15  1  0
  4 16  1  0
  5 17  1  0
  7 18  1  0
  7 19  1  0
  7 20  1  0
  8 21  1  0
  8 22  1  0
  9 23  1  0
M  END
