
     RDKit          3D

 21 23  0  0  0  0  0  0  0  0999 V2000
    2.1180    0.1583   -0.9254 C   0  0  0  0  0  0  0  0  0  0  0  0
    1.2735   -0.4601    0.1191 C   0  0  0  0  0  0  0  0  0  0  0  0
    0.1931   -1.4049   -0.3851 C   0  0  0  0  0  0  0  0  0  0  0  0
   -0.8181   -0.7060    0.4649 C   0  0  0  0  0  0  0  0  0  0  0  0
   -1.9382   -0.0320   -0.2532 C   0  0  0  0  0  0  0  0  0  0  0  0
   -1.4953    1.3728   -0.4251 C   0  0  0  0  0  0  0  0  0  0  0  0
   -0.3133    1.5798    0.1362 C   0  0  0  0  0  0  0  0  0  0  0  0
    0.2195    0.3747    0.7632 C   0  0  0  0  0  0  0  0  0  0  0  0
   -0.5493   -0.3208    1.8610 C   0  0  0  0  0  0  0  0  0  0  0  0
    1.9378    1.2109   -1.1376 H   0  0  0  0  0  0  0  0  0  0  0  0
    2.0169   -0.4549   -1.8681 H   0  0  0  0  0  0  0  0  0  0  0  0
    3.2114    0.0624   -0.6655 H   0  0  0  0  0  0  0  0  0  0  0  0
    1.8825   -1.0067    0.8899 H   0  0  0  0  0  0  0  0  0  0  0  0
    0.0851   -1.2715   -1.4746 H   0  0  0  0  0  0  0  0  0  0  0  0
    0.3674   -2.4706   -0.1432 H   0  0  0  0  0  0  0  0  0  0  0  0
   -2.1334   -0.4488   -1.2605 H   0  0  0  0  0  0  0  0  0  0  0  0
   -2.8746   -0.1277    0.3169 H   0  0  0  0  0  0  0  0  0  0  0  0
   -2.1213    2.1054   -0.9649 H   0  0  0  0  0  0  0  0  0  0  0  0
    0.1797    2.5399    0.1187 H   0  0  0  0  0  0  0  0  0  0  0  0
    0.0576   -1.0064    2.4807 H   0  0  0  0  0  0  0  0  0  0  0  0
   -1.2992    0.3064    2.3527 H   0  0  0  0  0  0  0  0  0  0  0  0
  1  2  1  0
  2  3  1  0
  3  4  1  0
  4  5  1  0
  5  6  1  0
  6  7  2  0
  7  8  1  0
  8  9  1  0
  8  2  1  0
  8  4  1  0
  9  4  1  0
  1 10  1  0
  1 11  1  0
  1 12  1  0
  2 13  1  0
  3 14  1  0
  3 15  1  0
  5 16  1  0
  5 17  1  0
  6 18  1  0
  7 19  1  0
  9 20  1  0
  9 21  1  0
M  END
