
     RDKit          3D

 18 20  0  0  0  0  0  0  0  0999 V2000
   -2.1095   -0.5388    0.3231 C   0  0  0  0  0  0  0  0  0  0  0  0
   -0.7709   -0.8043   -0.3204 C   0  0  0  0  0  0  0  0  0  0  0  0
   -0.1476    0.3664   -1.0004 C   0  0  0  0  0  0  0  0  0  0  0  0
    0.0175    1.6738   -0.2627 C   0  0  0  0  0  0  0  0  0  0  0  0
    1.4253    1.9331    0.1426 O   0  0  0  0  0  0  0  0  0  0  0  0
    0.5051    1.1182    0.8488 C   0  0  0  0  0  0  0  0  0  0  0  0
    0.4791   -0.3008    0.2686 C   0  0  0  0  0  0  0  0  0  0  0  0
    1.7925   -0.9776    0.0695 C   0  0  0  0  0  0  0  0  0  0  0  0
   -2.6825   -1.4940    0.4877 H   0  0  0  0  0  0  0  0  0  0  0  0
   -2.0085    0.0300    1.2659 H   0  0  0  0  0  0  0  0  0  0  0  0
   -2.7121    0.0389   -0.4295 H   0  0  0  0  0  0  0  0  0  0  0  0
   -0.7119   -1.7507   -0.8695 H   0  0  0  0  0  0  0  0  0  0  0  0
    0.4296    0.2380   -1.9378 H   0  0  0  0  0  0  0  0  0  0  0  0
   -0.4011    2.5963   -0.6267 H   0  0  0  0  0  0  0  0  0  0  0  0
    0.4392    1.2232    1.9272 H   0  0  0  0  0  0  0  0  0  0  0  0
    2.5945   -0.3538    0.5420 H   0  0  0  0  0  0  0  0  0  0  0  0
    2.0522   -1.0537   -1.0168 H   0  0  0  0  0  0  0  0  0  0  0  0
    1.8091   -1.9442    0.5883 H   0  0  0  0  0  0  0  0  0  0  0  0
  1  2  1  0
  2  3  1  0
  3  4  1  0
  4  5  1  0
  5  6  1  0
  6  7  1  0
  7  8  1  0
  7  2  1  0
  7  3  1  0
  6  4  1  0
  1  9  1  0
  1 10  1  0
  1 11  1  0
  2 12  1  0
  3 13  1  0
  4 14  1  0
  6 15  1  0
  8 16  1  0
  8 17  1  0
  8 18  1  0
M  END
