
     RDKit          3D

 21 22  0  0  0  0  0  0  0  0999 V2000
   -1.2332   -1.4480   -0.2628 C   0  0  0  0  0  0  0  0  0  0  0  0
   -0.7297   -0.3444    0.6154 C   0  0  0  0  0  0  0  0  0  0  0  0
   -1.5372    0.9055    0.3026 C   0  0  0  0  0  0  0  0  0  0  0  0
   -1.8460    1.2026   -1.0112 O   0  0  0  0  0  0  0  0  0  0  0  0
   -0.6688    1.7490   -0.5479 C   0  0  0  0  0  0  0  0  0  0  0  0
    0.5607    0.9217   -0.8796 C   0  0  0  0  0  0  0  0  0  0  0  0
    0.6821    0.0597    0.3480 C   0  0  0  0  0  0  0  0  0  0  0  0
    1.6341   -1.0725    0.1679 C   0  0  0  0  0  0  0  0  0  0  0  0
    1.1358    0.8682    1.3836 O   0  0  0  0  0  0  0  0  0  0  0  0
   -1.7475   -1.0427   -1.1692 H   0  0  0  0  0  0  0  0  0  0  0  0
   -1.9955   -2.0323    0.3115 H   0  0  0  0  0  0  0  0  0  0  0  0
   -0.4485   -2.1254   -0.6264 H   0  0  0  0  0  0  0  0  0  0  0  0
   -0.8634   -0.5625    1.7039 H   0  0  0  0  0  0  0  0  0  0  0  0
   -2.2042    1.3278    1.0695 H   0  0  0  0  0  0  0  0  0  0  0  0
   -0.5748    2.8003   -0.2811 H   0  0  0  0  0  0  0  0  0  0  0  0
    0.3929    0.3120   -1.8044 H   0  0  0  0  0  0  0  0  0  0  0  0
    1.4584    1.5429   -0.9936 H   0  0  0  0  0  0  0  0  0  0  0  0
    2.6647   -0.6739    0.4067 H   0  0  0  0  0  0  0  0  0  0  0  0
    1.7233   -1.4047   -0.9039 H   0  0  0  0  0  0  0  0  0  0  0  0
    1.4649   -1.9135    0.8450 H   0  0  0  0  0  0  0  0  0  0  0  0
    2.1318    0.9300    1.3260 H   0  0  0  0  0  0  0  0  0  0  0  0
  1  2  1  0
  2  3  1  0
  3  4  1  0
  4  5  1  0
  5  6  1  0
  6  7  1  0
  7  8  1  0
  7  9  1  0
  7  2  1  0
  5  3  1  0
  1 10  1  0
  1 11  1  0
  1 12  1  0
  2 13  1  0
  3 14  1  0
  5 15  1  0
  6 16  1  0
  6 17  1  0
  8 18  1  0
  8 19  1  0
  8 20  1  0
  9 21  1  0
M  END
