
     RDKit          3D

 23 24  0  0  0  0  0  0  0  0999 V2000
   -1.2547   -1.7366   -0.2662 C   0  0  0  0  0  0  0  0  0  0  0  0
   -0.8492   -0.3442   -0.6701 C   0  0  0  0  0  0  0  0  0  0  0  0
   -1.9343    0.6669   -0.5202 C   0  0  0  0  0  0  0  0  0  0  0  0
   -1.2923    1.6964    0.4006 C   0  0  0  0  0  0  0  0  0  0  0  0
    0.0893    1.5620    0.2162 O   0  0  0  0  0  0  0  0  0  0  0  0
    0.2649    0.2066    0.1615 C   0  0  0  0  0  0  0  0  0  0  0  0
    0.9047   -0.5425    1.2477 C   0  0  0  0  0  0  0  0  0  0  0  0
    1.6001   -0.4221   -0.0330 C   0  0  0  0  0  0  0  0  0  0  0  0
    2.7398    0.5243   -0.2578 C   0  0  0  0  0  0  0  0  0  0  0  0
   -1.6426   -1.6825    0.7636 H   0  0  0  0  0  0  0  0  0  0  0  0
   -0.3320   -2.3703   -0.3454 H   0  0  0  0  0  0  0  0  0  0  0  0
   -1.9853   -2.1187   -1.0020 H   0  0  0  0  0  0  0  0  0  0  0  0
   -0.5174   -0.3241   -1.7398 H   0  0  0  0  0  0  0  0  0  0  0  0
   -2.8111    0.2142   -0.0114 H   0  0  0  0  0  0  0  0  0  0  0  0
   -2.2721    1.1272   -1.4550 H   0  0  0  0  0  0  0  0  0  0  0  0
   -1.5678    1.4198    1.4361 H   0  0  0  0  0  0  0  0  0  0  0  0
   -1.6353    2.7254    0.1807 H   0  0  0  0  0  0  0  0  0  0  0  0
    0.4317   -1.4864    1.5474 H   0  0  0  0  0  0  0  0  0  0  0  0
    1.3167    0.0374    2.1009 H   0  0  0  0  0  0  0  0  0  0  0  0
    1.6777   -1.3646   -0.6383 H   0  0  0  0  0  0  0  0  0  0  0  0
    2.5812    0.9820   -1.2761 H   0  0  0  0  0  0  0  0  0  0  0  0
    3.6834   -0.0683   -0.3609 H   0  0  0  0  0  0  0  0  0  0  0  0
    2.8047    1.2979    0.5217 H   0  0  0  0  0  0  0  0  0  0  0  0
  1  2  1  0
  2  3  1  0
  3  4  1  0
  4  5  1  0
  5  6  1  0
  6  7  1  0
  7  8  1  0
  8  9  1  0
  6  2  1  0
  8  6  1  0
  1 10  1  0
  1 11  1  0
  1 12  1  0
  2 13  1  0
  3 14  1  0
  3 15  1  0
  4 16  1  0
  4 17  1  0
  7 18  1  0
  7 19  1  0
  8 20  1  0
  9 21  1  0
  9 22  1  0
  9 23  1  0
M  END
