
     RDKit          3D

 21 22  0  0  0  0  0  0  0  0999 V2000
    2.0299    0.2870   -0.6558 C   0  0  0  0  0  0  0  0  0  0  0  0
    1.1525   -0.1090    0.4858 C   0  0  0  0  0  0  0  0  0  0  0  0
    0.3636   -1.3511    0.1737 C   0  0  0  0  0  0  0  0  0  0  0  0
   -0.9452   -1.0977    0.8596 C   0  0  0  0  0  0  0  0  0  0  0  0
   -1.9300   -0.7237   -0.1880 C   0  0  0  0  0  0  0  0  0  0  0  0
   -1.8237    0.4809   -0.7217 C   0  0  0  0  0  0  0  0  0  0  0  0
   -0.6786    1.3949   -0.3614 C   0  0  0  0  0  0  0  0  0  0  0  0
    0.0821    0.8661    0.8278 C   0  0  0  0  0  0  0  0  0  0  0  0
   -0.7629    0.0839    1.6183 O   0  0  0  0  0  0  0  0  0  0  0  0
    2.5751    1.2149   -0.3856 H   0  0  0  0  0  0  0  0  0  0  0  0
    1.5197    0.3390   -1.6216 H   0  0  0  0  0  0  0  0  0  0  0  0
    2.8133   -0.5024   -0.7508 H   0  0  0  0  0  0  0  0  0  0  0  0
    1.7730   -0.2984    1.3611 H   0  0  0  0  0  0  0  0  0  0  0  0
    0.8606   -2.2818    0.5023 H   0  0  0  0  0  0  0  0  0  0  0  0
    0.2588   -1.3955   -0.9438 H   0  0  0  0  0  0  0  0  0  0  0  0
   -1.2746   -1.9249    1.4989 H   0  0  0  0  0  0  0  0  0  0  0  0
   -2.6755   -1.4104   -0.4772 H   0  0  0  0  0  0  0  0  0  0  0  0
   -2.5838    0.7920   -1.4253 H   0  0  0  0  0  0  0  0  0  0  0  0
   -0.0353    1.6025   -1.2369 H   0  0  0  0  0  0  0  0  0  0  0  0
   -1.1567    2.3448   -0.0441 H   0  0  0  0  0  0  0  0  0  0  0  0
    0.4376    1.6888    1.4848 H   0  0  0  0  0  0  0  0  0  0  0  0
  1  2  1  0
  2  3  1  0
  3  4  1  0
  4  5  1  0
  5  6  2  0
  6  7  1  0
  7  8  1  0
  8  9  1  0
  8  2  1  0
  9  4  1  0
  1 10  1  0
  1 11  1  0
  1 12  1  0
  2 13  1  0
  3 14  1  0
  3 15  1  0
  4 16  1  0
  5 17  1  0
  6 18  1  0
  7 19  1  0
  7 20  1  0
  8 21  1  0
M  END
