
     RDKit          3D

 19 20  0  0  0  0  0  0  0  0999 V2000
    2.3481    0.3573    0.2703 C   0  0  0  0  0  0  0  0  0  0  0  0
    1.1188   -0.1137   -0.4365 C   0  0  0  0  0  0  0  0  0  0  0  0
    0.3166   -1.0754    0.4488 C   0  0  0  0  0  0  0  0  0  0  0  0
   -1.0602   -1.0180   -0.1350 C   0  0  0  0  0  0  0  0  0  0  0  0
   -2.0387    0.0113    0.2458 C   0  0  0  0  0  0  0  0  0  0  0  0
   -1.8488    0.8250    1.3684 O   0  0  0  0  0  0  0  0  0  0  0  0
   -1.1711    0.2596   -0.9163 C   0  0  0  0  0  0  0  0  0  0  0  0
    0.1136    0.9586   -0.6532 C   0  0  0  0  0  0  0  0  0  0  0  0
    0.2205    2.1687   -0.6390 O   0  0  0  0  0  0  0  0  0  0  0  0
    2.7464    1.2771   -0.1633 H   0  0  0  0  0  0  0  0  0  0  0  0
    3.1339   -0.4295    0.1336 H   0  0  0  0  0  0  0  0  0  0  0  0
    2.0924    0.4702    1.3555 H   0  0  0  0  0  0  0  0  0  0  0  0
    1.3405   -0.6436   -1.3849 H   0  0  0  0  0  0  0  0  0  0  0  0
    0.3224   -0.7156    1.4962 H   0  0  0  0  0  0  0  0  0  0  0  0
    0.7714   -2.0725    0.3760 H   0  0  0  0  0  0  0  0  0  0  0  0
   -1.4074   -1.9111   -0.6803 H   0  0  0  0  0  0  0  0  0  0  0  0
   -3.1152   -0.2593    0.1112 H   0  0  0  0  0  0  0  0  0  0  0  0
   -2.3480    1.6708    1.1628 H   0  0  0  0  0  0  0  0  0  0  0  0
   -1.5353    0.2401   -1.9599 H   0  0  0  0  0  0  0  0  0  0  0  0
  1  2  1  0
  2  3  1  0
  3  4  1  0
  4  5  1  0
  5  6  1  0
  5  7  1  0
  7  8  1  0
  8  9  2  0
  8  2  1  0
  7  4  1  0
  1 10  1  0
  1 11  1  0
  1 12  1  0
  2 13  1  0
  3 14  1  0
  3 15  1  0
  4 16  1  0
  5 17  1  0
  6 18  1  0
  7 19  1  0
M  END
