
     RDKit          3D

 21 22  0  0  0  0  0  0  0  0999 V2000
    2.6682   -0.6619    0.1042 C   0  0  0  0  0  0  0  0  0  0  0  0
    1.3176   -0.0418   -0.1333 C   0  0  0  0  0  0  0  0  0  0  0  0
    1.1352    1.1811    0.6987 C   0  0  0  0  0  0  0  0  0  0  0  0
   -0.1136    1.6101    0.8455 C   0  0  0  0  0  0  0  0  0  0  0  0
   -1.2715    0.8983    0.2066 C   0  0  0  0  0  0  0  0  0  0  0  0
   -1.2375    0.5088   -1.2062 C   0  0  0  0  0  0  0  0  0  0  0  0
   -0.9462   -0.4902   -0.1840 C   0  0  0  0  0  0  0  0  0  0  0  0
   -2.0429   -1.5067    0.1073 C   0  0  0  0  0  0  0  0  0  0  0  0
    0.3139   -0.9215    0.1529 O   0  0  0  0  0  0  0  0  0  0  0  0
    2.9335   -1.2772   -0.7935 H   0  0  0  0  0  0  0  0  0  0  0  0
    3.4312    0.1607    0.1237 H   0  0  0  0  0  0  0  0  0  0  0  0
    2.7562   -1.2065    1.0431 H   0  0  0  0  0  0  0  0  0  0  0  0
    1.3253    0.3082   -1.2030 H   0  0  0  0  0  0  0  0  0  0  0  0
    1.9934    1.6713    1.1463 H   0  0  0  0  0  0  0  0  0  0  0  0
   -0.2591    2.4982    1.4482 H   0  0  0  0  0  0  0  0  0  0  0  0
   -2.2642    1.1534    0.6443 H   0  0  0  0  0  0  0  0  0  0  0  0
   -2.2321    0.4388   -1.7388 H   0  0  0  0  0  0  0  0  0  0  0  0
   -0.4806    0.9826   -1.8593 H   0  0  0  0  0  0  0  0  0  0  0  0
   -1.6737   -2.3124    0.7767 H   0  0  0  0  0  0  0  0  0  0  0  0
   -2.9014   -1.0377    0.6395 H   0  0  0  0  0  0  0  0  0  0  0  0
   -2.4517   -1.9556   -0.8191 H   0  0  0  0  0  0  0  0  0  0  0  0
  1  2  1  0
  2  3  1  0
  3  4  2  0
  4  5  1  0
  5  6  1  0
  6  7  1  0
  7  8  1  0
  7  9  1  0
  9  2  1  0
  7  5  1  0
  1 10  1  0
  1 11  1  0
  1 12  1  0
  2 13  1  0
  3 14  1  0
  4 15  1  0
  5 16  1  0
  6 17  1  0
  6 18  1  0
  8 19  1  0
  8 20  1  0
  8 21  1  0
M  END
