
     RDKit          3D

 21 23  0  0  0  0  0  0  0  0999 V2000
   -2.1626    0.5688    0.4879 C   0  0  0  0  0  0  0  0  0  0  0  0
   -1.0447   -0.4394    0.1941 C   0  0  0  0  0  0  0  0  0  0  0  0
   -0.9381   -0.6478   -1.2698 C   0  0  0  0  0  0  0  0  0  0  0  0
    0.3208   -0.3920   -1.6994 O   0  0  0  0  0  0  0  0  0  0  0  0
    1.0499    0.2464   -0.7546 C   0  0  0  0  0  0  0  0  0  0  0  0
    2.2686   -0.4042   -0.1230 C   0  0  0  0  0  0  0  0  0  0  0  0
    1.3592   -0.7594    1.0497 C   0  0  0  0  0  0  0  0  0  0  0  0
    0.2874    0.1643    0.5617 C   0  0  0  0  0  0  0  0  0  0  0  0
    0.5922    1.4720   -0.0451 C   0  0  0  0  0  0  0  0  0  0  0  0
   -1.7264    1.5345    0.7765 H   0  0  0  0  0  0  0  0  0  0  0  0
   -2.7339    0.7547   -0.4550 H   0  0  0  0  0  0  0  0  0  0  0  0
   -2.8073    0.2372    1.3139 H   0  0  0  0  0  0  0  0  0  0  0  0
   -1.2737   -1.3448    0.7703 H   0  0  0  0  0  0  0  0  0  0  0  0
   -1.1702   -1.7350   -1.4725 H   0  0  0  0  0  0  0  0  0  0  0  0
   -1.7403   -0.0971   -1.8448 H   0  0  0  0  0  0  0  0  0  0  0  0
    3.0095    0.3554    0.2489 H   0  0  0  0  0  0  0  0  0  0  0  0
    2.7036   -1.2418   -0.6585 H   0  0  0  0  0  0  0  0  0  0  0  0
    1.7877   -0.5459    2.0461 H   0  0  0  0  0  0  0  0  0  0  0  0
    1.0787   -1.8477    0.9534 H   0  0  0  0  0  0  0  0  0  0  0  0
   -0.2205    2.0201   -0.5125 H   0  0  0  0  0  0  0  0  0  0  0  0
    1.3604    2.1017    0.4326 H   0  0  0  0  0  0  0  0  0  0  0  0
  1  2  1  0
  2  3  1  0
  3  4  1  0
  4  5  1  0
  5  6  1  0
  6  7  1  0
  7  8  1  0
  8  9  1  0
  8  2  1  0
  8  5  1  0
  9  5  1  0
  1 10  1  0
  1 11  1  0
  1 12  1  0
  2 13  1  0
  3 14  1  0
  3 15  1  0
  6 16  1  0
  6 17  1  0
  7 18  1  0
  7 19  1  0
  9 20  1  0
  9 21  1  0
M  END
