
     RDKit          3D

 19 20  0  0  0  0  0  0  0  0999 V2000
   -1.7726   -0.8934    0.2467 C   0  0  0  0  0  0  0  0  0  0  0  0
   -0.9340   -0.2425   -0.8200 C   0  0  0  0  0  0  0  0  0  0  0  0
    0.3736   -0.9408   -1.0631 C   0  0  0  0  0  0  0  0  0  0  0  0
    1.0570    0.3031   -0.5291 C   0  0  0  0  0  0  0  0  0  0  0  0
    2.1183    0.0955    0.4917 C   0  0  0  0  0  0  0  0  0  0  0  0
    0.8150    1.5189   -1.1040 O   0  0  0  0  0  0  0  0  0  0  0  0
   -0.1340    0.9417   -0.2953 C   0  0  0  0  0  0  0  0  0  0  0  0
   -0.6341    1.6702    0.8743 C   0  0  0  0  0  0  0  0  0  0  0  0
   -1.4651    1.2198    1.6225 O   0  0  0  0  0  0  0  0  0  0  0  0
   -2.0898   -1.9056   -0.1416 H   0  0  0  0  0  0  0  0  0  0  0  0
   -1.1614   -1.0477    1.1488 H   0  0  0  0  0  0  0  0  0  0  0  0
   -2.7193   -0.3511    0.4324 H   0  0  0  0  0  0  0  0  0  0  0  0
   -1.4739   -0.0664   -1.7583 H   0  0  0  0  0  0  0  0  0  0  0  0
    0.5149   -1.7999   -0.3805 H   0  0  0  0  0  0  0  0  0  0  0  0
    0.6563   -1.1128   -2.1109 H   0  0  0  0  0  0  0  0  0  0  0  0
    2.6431   -0.8669    0.2590 H   0  0  0  0  0  0  0  0  0  0  0  0
    2.8456    0.9181    0.5755 H   0  0  0  0  0  0  0  0  0  0  0  0
    1.6005   -0.1011    1.4730 H   0  0  0  0  0  0  0  0  0  0  0  0
   -0.2401    2.6611    1.0790 H   0  0  0  0  0  0  0  0  0  0  0  0
  1  2  1  0
  2  3  1  0
  3  4  1  0
  4  5  1  0
  4  6  1  0
  6  7  1  0
  7  8  1  0
  8  9  2  0
  7  2  1  0
  7  4  1  0
  1 10  1  0
  1 11  1  0
  1 12  1  0
  2 13  1  0
  3 14  1  0
  3 15  1  0
  5 16  1  0
  5 17  1  0
  5 18  1  0
  8 19  1  0
M  END
