
     RDKit          3D

 21 21  0  0  0  0  0  0  0  0999 V2000
   -2.5398    0.2233   -0.3289 C   0  0  0  0  0  0  0  0  0  0  0  0
   -1.1096    0.4201    0.1824 C   0  0  0  0  0  0  0  0  0  0  0  0
   -0.4536   -0.8617    0.5569 C   0  0  0  0  0  0  0  0  0  0  0  0
    0.5838   -1.3507   -0.3837 C   0  0  0  0  0  0  0  0  0  0  0  0
    1.9541   -0.7168   -0.1471 C   0  0  0  0  0  0  0  0  0  0  0  0
    1.8782    0.7288   -0.4824 C   0  0  0  0  0  0  0  0  0  0  0  0
    2.7023    1.2320   -1.1988 O   0  0  0  0  0  0  0  0  0  0  0  0
    0.7776    1.6133    0.0556 C   0  0  0  0  0  0  0  0  0  0  0  0
   -0.3678    1.2212   -0.6638 O   0  0  0  0  0  0  0  0  0  0  0  0
   -3.0555   -0.4106    0.4169 H   0  0  0  0  0  0  0  0  0  0  0  0
   -3.0405    1.2243   -0.2718 H   0  0  0  0  0  0  0  0  0  0  0  0
   -2.5683   -0.1590   -1.3519 H   0  0  0  0  0  0  0  0  0  0  0  0
   -1.2353    1.0168    1.1348 H   0  0  0  0  0  0  0  0  0  0  0  0
   -1.2643   -1.6487    0.5944 H   0  0  0  0  0  0  0  0  0  0  0  0
    0.0143   -0.8067    1.5793 H   0  0  0  0  0  0  0  0  0  0  0  0
    0.3330   -1.2787   -1.4397 H   0  0  0  0  0  0  0  0  0  0  0  0
    0.7434   -2.4480   -0.1669 H   0  0  0  0  0  0  0  0  0  0  0  0
    2.2719   -0.7968    0.8983 H   0  0  0  0  0  0  0  0  0  0  0  0
    2.6608   -1.2750   -0.7906 H   0  0  0  0  0  0  0  0  0  0  0  0
    0.6572    1.4212    1.1441 H   0  0  0  0  0  0  0  0  0  0  0  0
    1.0581    2.6517   -0.1384 H   0  0  0  0  0  0  0  0  0  0  0  0
  1  2  1  0
  2  3  1  0
  3  4  1  0
  4  5  1  0
  5  6  1  0
  6  7  2  0
  6  8  1  0
  8  9  1  0
  9  2  1  0
  1 10  1  0
  1 11  1  0
  1 12  1  0
  2 13  1  0
  3 14  1  0
  3 15  1  0
  4 16  1  0
  4 17  1  0
  5 18  1  0
  5 19  1  0
  8 20  1  0
  8 21  1  0
M  END
