
     RDKit          3D

 21 22  0  0  0  0  0  0  0  0999 V2000
   -2.1327    1.0098   -0.1593 C   0  0  0  0  0  0  0  0  0  0  0  0
   -1.3435    0.0460    0.6929 C   0  0  0  0  0  0  0  0  0  0  0  0
   -1.4344   -1.3756    0.1779 C   0  0  0  0  0  0  0  0  0  0  0  0
   -0.1368   -1.8018   -0.0762 O   0  0  0  0  0  0  0  0  0  0  0  0
    0.4812   -0.6908   -0.5957 C   0  0  0  0  0  0  0  0  0  0  0  0
    1.9861   -0.7452   -0.5554 C   0  0  0  0  0  0  0  0  0  0  0  0
    2.3144    0.6511   -0.0758 C   0  0  0  0  0  0  0  0  0  0  0  0
    1.1596    1.0866    0.7182 C   0  0  0  0  0  0  0  0  0  0  0  0
    0.1129    0.3441    0.4373 C   0  0  0  0  0  0  0  0  0  0  0  0
   -2.5773    1.8443    0.4441 H   0  0  0  0  0  0  0  0  0  0  0  0
   -1.5430    1.4624   -0.9718 H   0  0  0  0  0  0  0  0  0  0  0  0
   -3.0204    0.4318   -0.5419 H   0  0  0  0  0  0  0  0  0  0  0  0
   -1.5914    0.1170    1.7605 H   0  0  0  0  0  0  0  0  0  0  0  0
   -1.9469   -1.3170   -0.8135 H   0  0  0  0  0  0  0  0  0  0  0  0
   -1.9695   -2.0259    0.8974 H   0  0  0  0  0  0  0  0  0  0  0  0
    0.0977   -0.4345   -1.5874 H   0  0  0  0  0  0  0  0  0  0  0  0
    2.3313   -0.8532   -1.6141 H   0  0  0  0  0  0  0  0  0  0  0  0
    2.3891   -1.5135    0.1022 H   0  0  0  0  0  0  0  0  0  0  0  0
    2.5286    1.3320   -0.9224 H   0  0  0  0  0  0  0  0  0  0  0  0
    3.2141    0.5365    0.5949 H   0  0  0  0  0  0  0  0  0  0  0  0
    1.0810    1.8958    1.4587 H   0  0  0  0  0  0  0  0  0  0  0  0
  1  2  1  0
  2  3  1  0
  3  4  1  0
  4  5  1  0
  5  6  1  0
  6  7  1  0
  7  8  1  0
  8  9  2  0
  9  2  1  0
  9  5  1  0
  1 10  1  0
  1 11  1  0
  1 12  1  0
  2 13  1  0
  3 14  1  0
  3 15  1  0
  5 16  1  0
  6 17  1  0
  6 18  1  0
  7 19  1  0
  7 20  1  0
  8 21  1  0
M  END
