
     RDKit          3D

 21 22  0  0  0  0  0  0  0  0999 V2000
   -2.1026    0.3365   -0.9369 C   0  0  0  0  0  0  0  0  0  0  0  0
   -0.8352   -0.4015   -0.6035 C   0  0  0  0  0  0  0  0  0  0  0  0
   -0.1343   -0.2278    0.6712 C   0  0  0  0  0  0  0  0  0  0  0  0
   -0.5634    0.7578    1.7161 C   0  0  0  0  0  0  0  0  0  0  0  0
    0.8002   -1.3051    1.0835 C   0  0  0  0  0  0  0  0  0  0  0  0
    1.8185   -1.4036    0.2356 C   0  0  0  0  0  0  0  0  0  0  0  0
    1.6957   -0.3995   -0.8588 C   0  0  0  0  0  0  0  0  0  0  0  0
    0.4406    0.3458   -0.5670 C   0  0  0  0  0  0  0  0  0  0  0  0
    0.3826    1.7262   -0.7267 O   0  0  0  0  0  0  0  0  0  0  0  0
   -2.7274   -0.2026   -1.6560 H   0  0  0  0  0  0  0  0  0  0  0  0
   -1.8147    1.3097   -1.4020 H   0  0  0  0  0  0  0  0  0  0  0  0
   -2.7282    0.5397   -0.0411 H   0  0  0  0  0  0  0  0  0  0  0  0
   -0.7792   -1.4281   -1.0729 H   0  0  0  0  0  0  0  0  0  0  0  0
   -0.7461    1.7634    1.2446 H   0  0  0  0  0  0  0  0  0  0  0  0
   -1.4135    0.4386    2.3259 H   0  0  0  0  0  0  0  0  0  0  0  0
    0.3357    0.9123    2.3831 H   0  0  0  0  0  0  0  0  0  0  0  0
    0.6169   -1.9076    1.9840 H   0  0  0  0  0  0  0  0  0  0  0  0
    2.6090   -2.1344    0.3666 H   0  0  0  0  0  0  0  0  0  0  0  0
    2.6026    0.2237   -0.8777 H   0  0  0  0  0  0  0  0  0  0  0  0
    1.5791   -0.9579   -1.8190 H   0  0  0  0  0  0  0  0  0  0  0  0
    0.9636    2.0143   -1.4488 H   0  0  0  0  0  0  0  0  0  0  0  0
  1  2  1  0
  2  3  1  0
  3  4  1  0
  3  5  1  0
  5  6  2  0
  6  7  1  0
  7  8  1  0
  8  9  1  0
  8  2  1  0
  8  3  1  0
  1 10  1  0
  1 11  1  0
  1 12  1  0
  2 13  1  0
  4 14  1  0
  4 15  1  0
  4 16  1  0
  5 17  1  0
  6 18  1  0
  7 19  1  0
  7 20  1  0
  9 21  1  0
M  END
