
     RDKit          3D

 23 24  0  0  0  0  0  0  0  0999 V2000
    2.0954    0.3167    1.0443 C   0  0  0  0  0  0  0  0  0  0  0  0
    1.6063   -0.7923    0.1930 C   0  0  0  0  0  0  0  0  0  0  0  0
    1.3776   -0.3506   -1.2916 C   0  0  0  0  0  0  0  0  0  0  0  0
    0.2937   -0.9114   -0.4207 C   0  0  0  0  0  0  0  0  0  0  0  0
   -0.8805   -0.0567   -0.1792 C   0  0  0  0  0  0  0  0  0  0  0  0
   -2.0634   -0.5018   -1.0406 C   0  0  0  0  0  0  0  0  0  0  0  0
   -0.7535    1.4122   -0.1987 C   0  0  0  0  0  0  0  0  0  0  0  0
   -1.3105    1.4646    1.0894 O   0  0  0  0  0  0  0  0  0  0  0  0
   -1.3499    0.0798    1.2497 C   0  0  0  0  0  0  0  0  0  0  0  0
    2.7499    1.0016    0.4274 H   0  0  0  0  0  0  0  0  0  0  0  0
    1.3276    0.8927    1.5931 H   0  0  0  0  0  0  0  0  0  0  0  0
    2.8050   -0.0439    1.8492 H   0  0  0  0  0  0  0  0  0  0  0  0
    2.2301   -1.7126    0.2680 H   0  0  0  0  0  0  0  0  0  0  0  0
    1.3809    0.7143   -1.5103 H   0  0  0  0  0  0  0  0  0  0  0  0
    1.8519   -0.9835   -2.0705 H   0  0  0  0  0  0  0  0  0  0  0  0
    0.0064   -1.9653   -0.7267 H   0  0  0  0  0  0  0  0  0  0  0  0
   -1.9639   -1.5681   -1.3318 H   0  0  0  0  0  0  0  0  0  0  0  0
   -2.0331    0.0974   -1.9900 H   0  0  0  0  0  0  0  0  0  0  0  0
   -3.0268   -0.3640   -0.5216 H   0  0  0  0  0  0  0  0  0  0  0  0
   -1.4687    1.9540   -0.8842 H   0  0  0  0  0  0  0  0  0  0  0  0
    0.2275    1.8751   -0.2978 H   0  0  0  0  0  0  0  0  0  0  0  0
   -2.4264   -0.2048    1.4303 H   0  0  0  0  0  0  0  0  0  0  0  0
   -0.6756   -0.3535    1.9908 H   0  0  0  0  0  0  0  0  0  0  0  0
  1  2  1  0
  2  3  1  0
  3  4  1  0
  4  5  1  0
  5  6  1  0
  5  7  1  0
  7  8  1  0
  8  9  1  0
  4  2  1  0
  9  5  1  0
  1 10  1  0
  1 11  1  0
  1 12  1  0
  2 13  1  0
  3 14  1  0
  3 15  1  0
  4 16  1  0
  6 17  1  0
  6 18  1  0
  6 19  1  0
  7 20  1  0
  7 21  1  0
  9 22  1  0
  9 23  1  0
M  END
