
     RDKit          3D

 19 21  0  0  0  0  0  0  0  0999 V2000
   -2.2453    0.1777   -0.3165 C   0  0  0  0  0  0  0  0  0  0  0  0
   -0.8354    0.0760    0.1290 C   0  0  0  0  0  0  0  0  0  0  0  0
   -0.2291   -1.3098   -0.1170 C   0  0  0  0  0  0  0  0  0  0  0  0
    1.1430   -0.9045   -0.6393 C   0  0  0  0  0  0  0  0  0  0  0  0
    0.7472    0.1431   -1.5087 O   0  0  0  0  0  0  0  0  0  0  0  0
    0.1255    0.9762   -0.5485 C   0  0  0  0  0  0  0  0  0  0  0  0
    1.3254    1.1682    0.3924 C   0  0  0  0  0  0  0  0  0  0  0  0
    2.5814    1.0908   -0.1541 O   0  0  0  0  0  0  0  0  0  0  0  0
    1.9334   -0.1291    0.3748 C   0  0  0  0  0  0  0  0  0  0  0  0
   -2.7365   -0.7588   -0.5831 H   0  0  0  0  0  0  0  0  0  0  0  0
   -2.8675    0.6294    0.5125 H   0  0  0  0  0  0  0  0  0  0  0  0
   -2.3480    0.9244   -1.1580 H   0  0  0  0  0  0  0  0  0  0  0  0
   -0.7643    0.2481    1.2321 H   0  0  0  0  0  0  0  0  0  0  0  0
   -0.7396   -1.8401   -0.9318 H   0  0  0  0  0  0  0  0  0  0  0  0
   -0.1817   -1.8897    0.8084 H   0  0  0  0  0  0  0  0  0  0  0  0
    1.6743   -1.6955   -1.1423 H   0  0  0  0  0  0  0  0  0  0  0  0
   -0.2508    1.8950   -0.9529 H   0  0  0  0  0  0  0  0  0  0  0  0
    1.0925    1.7953    1.2466 H   0  0  0  0  0  0  0  0  0  0  0  0
    2.5756   -0.5968    1.1030 H   0  0  0  0  0  0  0  0  0  0  0  0
  1  2  1  0
  2  3  1  0
  3  4  1  0
  4  5  1  0
  5  6  1  0
  6  7  1  0
  7  8  1  0
  8  9  1  0
  6  2  1  0
  9  7  1  0
  9  4  1  0
  1 10  1  0
  1 11  1  0
  1 12  1  0
  2 13  1  0
  3 14  1  0
  3 15  1  0
  4 16  1  0
  6 17  1  0
  7 18  1  0
  9 19  1  0
M  END
