
     RDKit          3D

 23 24  0  0  0  0  0  0  0  0999 V2000
    1.5553    0.7576    1.2888 C   0  0  0  0  0  0  0  0  0  0  0  0
    1.1120    0.3710   -0.0699 C   0  0  0  0  0  0  0  0  0  0  0  0
    1.8737   -0.8087   -0.6511 C   0  0  0  0  0  0  0  0  0  0  0  0
    0.5651   -1.1423   -1.3656 C   0  0  0  0  0  0  0  0  0  0  0  0
   -0.1226   -0.4768   -0.1882 C   0  0  0  0  0  0  0  0  0  0  0  0
   -0.3078   -1.4156    0.8182 O   0  0  0  0  0  0  0  0  0  0  0  0
   -1.3568    0.2657   -0.5999 C   0  0  0  0  0  0  0  0  0  0  0  0
   -1.8803    1.3770    0.2295 C   0  0  0  0  0  0  0  0  0  0  0  0
   -2.5941    0.0344    0.2024 C   0  0  0  0  0  0  0  0  0  0  0  0
    1.4788   -0.0260    2.0376 H   0  0  0  0  0  0  0  0  0  0  0  0
    2.6528    1.0226    1.2241 H   0  0  0  0  0  0  0  0  0  0  0  0
    1.0600    1.7080    1.5884 H   0  0  0  0  0  0  0  0  0  0  0  0
    1.0707    1.2140   -0.7714 H   0  0  0  0  0  0  0  0  0  0  0  0
    2.6897   -0.5345   -1.3498 H   0  0  0  0  0  0  0  0  0  0  0  0
    2.1268   -1.5922    0.0675 H   0  0  0  0  0  0  0  0  0  0  0  0
    0.3654   -2.2106   -1.4959 H   0  0  0  0  0  0  0  0  0  0  0  0
    0.5007   -0.5150   -2.2751 H   0  0  0  0  0  0  0  0  0  0  0  0
    0.4988   -1.6538    1.2953 H   0  0  0  0  0  0  0  0  0  0  0  0
   -1.4754    0.4094   -1.6898 H   0  0  0  0  0  0  0  0  0  0  0  0
   -1.2966    1.6075    1.1453 H   0  0  0  0  0  0  0  0  0  0  0  0
   -2.4282    2.2075   -0.2498 H   0  0  0  0  0  0  0  0  0  0  0  0
   -3.5755   -0.0266   -0.3077 H   0  0  0  0  0  0  0  0  0  0  0  0
   -2.5124   -0.5724    1.1171 H   0  0  0  0  0  0  0  0  0  0  0  0
  1  2  1  0
  2  3  1  0
  3  4  1  0
  4  5  1  0
  5  6  1  0
  5  7  1  0
  7  8  1  0
  8  9  1  0
  5  2  1  0
  9  7  1  0
  1 10  1  0
  1 11  1  0
  1 12  1  0
  2 13  1  0
  3 14  1  0
  3 15  1  0
  4 16  1  0
  4 17  1  0
  6 18  1  0
  7 19  1  0
  8 20  1  0
  8 21  1  0
  9 22  1  0
  9 23  1  0
M  END
