
     RDKit          3D

 21 21  0  0  0  0  0  0  0  0999 V2000
    2.9238    0.0876   -0.1465 C   0  0  0  0  0  0  0  0  0  0  0  0
    1.4735    0.2191    0.3019 C   0  0  0  0  0  0  0  0  0  0  0  0
    0.6959    0.7823   -0.8334 C   0  0  0  0  0  0  0  0  0  0  0  0
   -0.7542    0.7667   -0.4070 C   0  0  0  0  0  0  0  0  0  0  0  0
   -1.1692   -0.2666    0.2852 C   0  0  0  0  0  0  0  0  0  0  0  0
   -2.5632   -0.3625    0.7401 C   0  0  0  0  0  0  0  0  0  0  0  0
   -3.3559    0.7061    0.3763 O   0  0  0  0  0  0  0  0  0  0  0  0
   -0.2290   -1.3503    0.6138 C   0  0  0  0  0  0  0  0  0  0  0  0
    1.0685   -0.9797    0.7921 O   0  0  0  0  0  0  0  0  0  0  0  0
    2.9251   -0.3993   -1.1569 H   0  0  0  0  0  0  0  0  0  0  0  0
    3.4925   -0.5086    0.5827 H   0  0  0  0  0  0  0  0  0  0  0  0
    3.3757    1.0823   -0.2761 H   0  0  0  0  0  0  0  0  0  0  0  0
    1.4950    0.9511    1.1561 H   0  0  0  0  0  0  0  0  0  0  0  0
    0.8357    0.1594   -1.7307 H   0  0  0  0  0  0  0  0  0  0  0  0
    1.0330    1.8018   -1.0425 H   0  0  0  0  0  0  0  0  0  0  0  0
   -1.4429    1.5557   -0.6458 H   0  0  0  0  0  0  0  0  0  0  0  0
   -3.0332   -1.3470    0.4770 H   0  0  0  0  0  0  0  0  0  0  0  0
   -2.5434   -0.3675    1.8700 H   0  0  0  0  0  0  0  0  0  0  0  0
   -3.2837    1.4865    0.9402 H   0  0  0  0  0  0  0  0  0  0  0  0
   -0.5870   -1.8907    1.5349 H   0  0  0  0  0  0  0  0  0  0  0  0
   -0.3568   -2.1263   -0.1995 H   0  0  0  0  0  0  0  0  0  0  0  0
  1  2  1  0
  2  3  1  0
  3  4  1  0
  4  5  2  0
  5  6  1  0
  6  7  1  0
  5  8  1  0
  8  9  1  0
  9  2  1  0
  1 10  1  0
  1 11  1  0
  1 12  1  0
  2 13  1  0
  3 14  1  0
  3 15  1  0
  4 16  1  0
  6 17  1  0
  6 18  1  0
  7 19  1  0
  8 20  1  0
  8 21  1  0
M  END
