
     RDKit          3D

 21 22  0  0  0  0  0  0  0  0999 V2000
    1.4808   -1.4233   -0.3550 C   0  0  0  0  0  0  0  0  0  0  0  0
    0.8495   -0.2207    0.2570 C   0  0  0  0  0  0  0  0  0  0  0  0
    0.8314    1.0310   -0.6007 C   0  0  0  0  0  0  0  0  0  0  0  0
    0.5589    2.2475    0.1650 C   0  0  0  0  0  0  0  0  0  0  0  0
   -0.5757    1.3585   -0.0415 C   0  0  0  0  0  0  0  0  0  0  0  0
   -0.6440   -0.1028    0.1508 C   0  0  0  0  0  0  0  0  0  0  0  0
   -1.3832   -0.6196    1.3590 C   0  0  0  0  0  0  0  0  0  0  0  0
   -1.1655   -0.7930   -1.0549 C   0  0  0  0  0  0  0  0  0  0  0  0
   -0.8373   -1.9181   -1.2933 O   0  0  0  0  0  0  0  0  0  0  0  0
    1.4171   -1.3245   -1.4570 H   0  0  0  0  0  0  0  0  0  0  0  0
    2.5676   -1.3937   -0.1006 H   0  0  0  0  0  0  0  0  0  0  0  0
    1.0389   -2.3720    0.0234 H   0  0  0  0  0  0  0  0  0  0  0  0
    1.1741   -0.0521    1.2974 H   0  0  0  0  0  0  0  0  0  0  0  0
    0.8282    0.9327   -1.6734 H   0  0  0  0  0  0  0  0  0  0  0  0
    0.6644    3.1845   -0.4184 H   0  0  0  0  0  0  0  0  0  0  0  0
    1.1038    2.3220    1.1494 H   0  0  0  0  0  0  0  0  0  0  0  0
   -1.3318    1.7630   -0.7702 H   0  0  0  0  0  0  0  0  0  0  0  0
   -1.8850   -1.5976    1.1674 H   0  0  0  0  0  0  0  0  0  0  0  0
   -2.1864    0.0686    1.6917 H   0  0  0  0  0  0  0  0  0  0  0  0
   -0.6678   -0.8318    2.2026 H   0  0  0  0  0  0  0  0  0  0  0  0
   -1.8380   -0.2584   -1.6987 H   0  0  0  0  0  0  0  0  0  0  0  0
  1  2  1  0
  2  3  1  0
  3  4  1  0
  4  5  1  0
  5  6  1  0
  6  7  1  0
  6  8  1  0
  8  9  2  0
  6  2  1  0
  5  3  1  0
  1 10  1  0
  1 11  1  0
  1 12  1  0
  2 13  1  0
  3 14  1  0
  4 15  1  0
  4 16  1  0
  5 17  1  0
  7 18  1  0
  7 19  1  0
  7 20  1  0
  8 21  1  0
M  END
