
     RDKit          3D

 21 23  0  0  0  0  0  0  0  0999 V2000
    2.2299   -0.0710   -0.2951 C   0  0  0  0  0  0  0  0  0  0  0  0
    1.0336    0.6815    0.1324 C   0  0  0  0  0  0  0  0  0  0  0  0
    0.0046    0.8658   -0.9936 C   0  0  0  0  0  0  0  0  0  0  0  0
   -0.4686   -0.5344   -1.2576 C   0  0  0  0  0  0  0  0  0  0  0  0
   -0.6322   -1.0632    0.1731 C   0  0  0  0  0  0  0  0  0  0  0  0
   -1.9410   -0.4796    0.7224 C   0  0  0  0  0  0  0  0  0  0  0  0
   -1.1299    0.8030    0.9338 C   0  0  0  0  0  0  0  0  0  0  0  0
   -1.0126    1.5017   -0.2542 O   0  0  0  0  0  0  0  0  0  0  0  0
    0.0977   -0.1048    1.0339 C   0  0  0  0  0  0  0  0  0  0  0  0
    2.1056   -0.7601   -1.1300 H   0  0  0  0  0  0  0  0  0  0  0  0
    3.0086    0.6776   -0.6231 H   0  0  0  0  0  0  0  0  0  0  0  0
    2.6967   -0.5673    0.5988 H   0  0  0  0  0  0  0  0  0  0  0  0
    1.2601    1.6750    0.5451 H   0  0  0  0  0  0  0  0  0  0  0  0
    0.3626    1.4234   -1.8258 H   0  0  0  0  0  0  0  0  0  0  0  0
   -1.4674   -0.4387   -1.7541 H   0  0  0  0  0  0  0  0  0  0  0  0
    0.2262   -1.1587   -1.8146 H   0  0  0  0  0  0  0  0  0  0  0  0
   -0.4973   -2.1248    0.3039 H   0  0  0  0  0  0  0  0  0  0  0  0
   -2.7309   -0.3658   -0.0225 H   0  0  0  0  0  0  0  0  0  0  0  0
   -2.2145   -0.9494    1.6871 H   0  0  0  0  0  0  0  0  0  0  0  0
   -1.3650    1.3599    1.8319 H   0  0  0  0  0  0  0  0  0  0  0  0
    0.4339   -0.3704    2.0082 H   0  0  0  0  0  0  0  0  0  0  0  0
  1  2  1  0
  2  3  1  0
  3  4  1  0
  4  5  1  0
  5  6  1  0
  6  7  1  0
  7  8  1  0
  7  9  1  0
  9  2  1  0
  8  3  1  0
  9  5  1  0
  1 10  1  0
  1 11  1  0
  1 12  1  0
  2 13  1  0
  3 14  1  0
  4 15  1  0
  4 16  1  0
  5 17  1  0
  6 18  1  0
  6 19  1  0
  7 20  1  0
  9 21  1  0
M  END
