
     RDKit          3D

 19 20  0  0  0  0  0  0  0  0999 V2000
   -2.2020   -0.2589   -0.3109 C   0  0  0  0  0  0  0  0  0  0  0  0
   -0.9280    0.2639    0.2817 C   0  0  0  0  0  0  0  0  0  0  0  0
   -0.4039    1.4599   -0.3952 C   0  0  0  0  0  0  0  0  0  0  0  0
   -1.1814    2.3373   -0.8296 O   0  0  0  0  0  0  0  0  0  0  0  0
    0.9661    1.5820   -0.5348 O   0  0  0  0  0  0  0  0  0  0  0  0
    1.7540    0.4689   -0.1571 C   0  0  0  0  0  0  0  0  0  0  0  0
    1.2941   -0.1180    1.1656 C   0  0  0  0  0  0  0  0  0  0  0  0
    0.1497   -0.7593    0.3678 C   0  0  0  0  0  0  0  0  0  0  0  0
    1.0939   -0.7506   -0.8144 C   0  0  0  0  0  0  0  0  0  0  0  0
   -2.6158   -1.0052    0.4055 H   0  0  0  0  0  0  0  0  0  0  0  0
   -1.9628   -0.7458   -1.2962 H   0  0  0  0  0  0  0  0  0  0  0  0
   -2.8945    0.5563   -0.5271 H   0  0  0  0  0  0  0  0  0  0  0  0
   -1.1743    0.5794    1.3374 H   0  0  0  0  0  0  0  0  0  0  0  0
    2.8274    0.5506   -0.3043 H   0  0  0  0  0  0  0  0  0  0  0  0
    2.0076   -0.8430    1.5594 H   0  0  0  0  0  0  0  0  0  0  0  0
    0.9550    0.6176    1.9139 H   0  0  0  0  0  0  0  0  0  0  0  0
   -0.1111   -1.7701    0.6675 H   0  0  0  0  0  0  0  0  0  0  0  0
    1.7750   -1.6207   -0.7380 H   0  0  0  0  0  0  0  0  0  0  0  0
    0.6510   -0.5445   -1.7912 H   0  0  0  0  0  0  0  0  0  0  0  0
  1  2  1  0
  2  3  1  0
  3  4  2  0
  3  5  1  0
  5  6  1  0
  6  7  1  0
  7  8  1  0
  8  9  1  0
  8  2  1  0
  9  6  1  0
  1 10  1  0
  1 11  1  0
  1 12  1  0
  2 13  1  0
  6 14  1  0
  7 15  1  0
  7 16  1  0
  8 17  1  0
  9 18  1  0
  9 19  1  0
M  END
