
     RDKit          3D

 19 20  0  0  0  0  0  0  0  0999 V2000
   -2.1559    0.6687    0.3893 C   0  0  0  0  0  0  0  0  0  0  0  0
   -1.4005    0.0919   -0.7858 C   0  0  0  0  0  0  0  0  0  0  0  0
   -0.7312   -1.1901   -0.5629 C   0  0  0  0  0  0  0  0  0  0  0  0
    0.0545    0.0740   -0.8441 C   0  0  0  0  0  0  0  0  0  0  0  0
    0.9471    0.5259    0.2522 C   0  0  0  0  0  0  0  0  0  0  0  0
    2.4200    0.4076   -0.0541 C   0  0  0  0  0  0  0  0  0  0  0  0
    2.3889   -0.9630    0.3727 O   0  0  0  0  0  0  0  0  0  0  0  0
    1.2917   -0.5910    1.1695 C   0  0  0  0  0  0  0  0  0  0  0  0
    0.8036   -1.0367    2.2374 O   0  0  0  0  0  0  0  0  0  0  0  0
   -1.8034    0.2372    1.3462 H   0  0  0  0  0  0  0  0  0  0  0  0
   -2.1973    1.7678    0.3819 H   0  0  0  0  0  0  0  0  0  0  0  0
   -3.2175    0.3144    0.2763 H   0  0  0  0  0  0  0  0  0  0  0  0
   -1.9768    0.2034   -1.7484 H   0  0  0  0  0  0  0  0  0  0  0  0
   -0.7026   -1.5992    0.4787 H   0  0  0  0  0  0  0  0  0  0  0  0
   -0.6211   -1.9677   -1.3286 H   0  0  0  0  0  0  0  0  0  0  0  0
    0.5065    0.1849   -1.8693 H   0  0  0  0  0  0  0  0  0  0  0  0
    0.6476    1.4211    0.8161 H   0  0  0  0  0  0  0  0  0  0  0  0
    3.0737    1.0119    0.6049 H   0  0  0  0  0  0  0  0  0  0  0  0
    2.6730    0.4390   -1.1320 H   0  0  0  0  0  0  0  0  0  0  0  0
  1  2  1  0
  2  3  1  0
  3  4  1  0
  4  5  1  0
  5  6  1  0
  6  7  1  0
  7  8  1  0
  8  9  2  0
  4  2  1  0
  8  5  1  0
  1 10  1  0
  1 11  1  0
  1 12  1  0
  2 13  1  0
  3 14  1  0
  3 15  1  0
  4 16  1  0
  5 17  1  0
  6 18  1  0
  6 19  1  0
M  END
