
     RDKit          3D

 17 17  0  0  0  0  0  0  0  0999 V2000
   -2.2044   -0.5251   -0.1450 C   0  0  0  0  0  0  0  0  0  0  0  0
   -0.7900   -0.0649   -0.2131 C   0  0  0  0  0  0  0  0  0  0  0  0
    0.1389   -1.2419   -0.1150 C   0  0  0  0  0  0  0  0  0  0  0  0
    1.4529   -1.1168    0.0167 C   0  0  0  0  0  0  0  0  0  0  0  0
    2.2891    0.1026    0.0960 C   0  0  0  0  0  0  0  0  0  0  0  0
    3.5180   -0.0442    0.1506 O   0  0  0  0  0  0  0  0  0  0  0  0
    1.7469    1.3852    0.1108 O   0  0  0  0  0  0  0  0  0  0  0  0
    0.4311    1.8118    0.3740 C   0  0  0  0  0  0  0  0  0  0  0  0
   -0.4178    0.8112    0.7704 O   0  0  0  0  0  0  0  0  0  0  0  0
   -2.2597   -1.5255   -0.6629 H   0  0  0  0  0  0  0  0  0  0  0  0
   -2.5859   -0.6925    0.8759 H   0  0  0  0  0  0  0  0  0  0  0  0
   -2.8842    0.1652   -0.6736 H   0  0  0  0  0  0  0  0  0  0  0  0
   -0.6225    0.3607   -1.2445 H   0  0  0  0  0  0  0  0  0  0  0  0
   -0.2929   -2.2289   -0.1545 H   0  0  0  0  0  0  0  0  0  0  0  0
    1.9944   -2.0711    0.0750 H   0  0  0  0  0  0  0  0  0  0  0  0
    0.5104    2.5266    1.2461 H   0  0  0  0  0  0  0  0  0  0  0  0
   -0.0241    2.3476   -0.5069 H   0  0  0  0  0  0  0  0  0  0  0  0
  1  2  1  0
  2  3  1  0
  3  4  2  0
  4  5  1  0
  5  6  2  0
  5  7  1  0
  7  8  1  0
  8  9  1  0
  9  2  1  0
  1 10  1  0
  1 11  1  0
  1 12  1  0
  2 13  1  0
  3 14  1  0
  4 15  1  0
  8 16  1  0
  8 17  1  0
M  END
