
     RDKit          3D

 20 21  0  0  0  0  0  0  0  0999 V2000
   -2.3639    0.7396    0.2949 C   0  0  0  0  0  0  0  0  0  0  0  0
   -1.2204   -0.2042    0.3767 C   0  0  0  0  0  0  0  0  0  0  0  0
   -1.0067   -1.1189   -0.8037 C   0  0  0  0  0  0  0  0  0  0  0  0
    0.4417   -0.8033   -0.8313 C   0  0  0  0  0  0  0  0  0  0  0  0
    1.2606   -0.5292    0.3510 C   0  0  0  0  0  0  0  0  0  0  0  0
    2.6337    0.0307    0.1505 C   0  0  0  0  0  0  0  0  0  0  0  0
    0.1472    0.3784    0.0468 C   0  0  0  0  0  0  0  0  0  0  0  0
    0.2759    1.6509   -0.3988 O   0  0  0  0  0  0  0  0  0  0  0  0
   -2.7520    0.9662    1.3290 H   0  0  0  0  0  0  0  0  0  0  0  0
   -3.2184    0.2645   -0.2305 H   0  0  0  0  0  0  0  0  0  0  0  0
   -2.0868    1.7132   -0.1340 H   0  0  0  0  0  0  0  0  0  0  0  0
   -1.1536   -0.6906    1.3715 H   0  0  0  0  0  0  0  0  0  0  0  0
   -1.5189   -0.6765   -1.6964 H   0  0  0  0  0  0  0  0  0  0  0  0
   -1.3199   -2.1524   -0.6661 H   0  0  0  0  0  0  0  0  0  0  0  0
    0.9344   -0.6637   -1.8136 H   0  0  0  0  0  0  0  0  0  0  0  0
    1.1759   -1.2070    1.2279 H   0  0  0  0  0  0  0  0  0  0  0  0
    3.0259    0.5144    1.0692 H   0  0  0  0  0  0  0  0  0  0  0  0
    3.2945   -0.7899   -0.1940 H   0  0  0  0  0  0  0  0  0  0  0  0
    2.5841    0.7850   -0.6712 H   0  0  0  0  0  0  0  0  0  0  0  0
    0.8668    1.7927   -1.1692 H   0  0  0  0  0  0  0  0  0  0  0  0
  1  2  1  0
  2  3  1  0
  3  4  1  0
  4  5  1  0
  5  6  1  0
  5  7  1  0
  7  8  1  0
  7  2  1  0
  7  4  1  0
  1  9  1  0
  1 10  1  0
  1 11  1  0
  2 12  1  0
  3 13  1  0
  3 14  1  0
  4 15  1  0
  5 16  1  0
  6 17  1  0
  6 18  1  0
  6 19  1  0
  8 20  1  0
M  END
