
     RDKit          3D

 27 27  0  0  0  0  0  0  0  0999 V2000
    2.7894    0.3264    0.4248 C   0  0  0  0  0  0  0  0  0  0  0  0
    1.2970    0.4209    0.5563 C   0  0  0  0  0  0  0  0  0  0  0  0
    0.6731    1.2425   -0.5572 C   0  0  0  0  0  0  0  0  0  0  0  0
   -0.7847    0.7871   -0.4605 C   0  0  0  0  0  0  0  0  0  0  0  0
   -1.4598    1.6518    0.5396 C   0  0  0  0  0  0  0  0  0  0  0  0
   -0.7061   -0.6472   -0.1861 C   0  0  0  0  0  0  0  0  0  0  0  0
   -1.6035   -1.2182    0.8335 C   0  0  0  0  0  0  0  0  0  0  0  0
   -0.9116   -1.3911   -1.5155 C   0  0  0  0  0  0  0  0  0  0  0  0
    0.7369   -0.9682    0.2258 C   0  0  0  0  0  0  0  0  0  0  0  0
    3.2773    1.2662    0.1311 H   0  0  0  0  0  0  0  0  0  0  0  0
    3.1736   -0.0408    1.4177 H   0  0  0  0  0  0  0  0  0  0  0  0
    3.0795   -0.4749   -0.3018 H   0  0  0  0  0  0  0  0  0  0  0  0
    0.9652    0.7695    1.5411 H   0  0  0  0  0  0  0  0  0  0  0  0
    1.0578    0.8738   -1.5258 H   0  0  0  0  0  0  0  0  0  0  0  0
    0.7772    2.3167   -0.4058 H   0  0  0  0  0  0  0  0  0  0  0  0
   -1.2259    1.0176   -1.4691 H   0  0  0  0  0  0  0  0  0  0  0  0
   -1.5276    2.6818    0.0893 H   0  0  0  0  0  0  0  0  0  0  0  0
   -0.8253    1.7978    1.4616 H   0  0  0  0  0  0  0  0  0  0  0  0
   -2.4890    1.3781    0.7864 H   0  0  0  0  0  0  0  0  0  0  0  0
   -1.0501   -1.4746    1.7850 H   0  0  0  0  0  0  0  0  0  0  0  0
   -1.9985   -2.2158    0.4832 H   0  0  0  0  0  0  0  0  0  0  0  0
   -2.4636   -0.6326    1.1290 H   0  0  0  0  0  0  0  0  0  0  0  0
   -0.1116   -0.9849   -2.1872 H   0  0  0  0  0  0  0  0  0  0  0  0
   -0.8727   -2.4740   -1.3918 H   0  0  0  0  0  0  0  0  0  0  0  0
   -1.8908   -1.0148   -1.9047 H   0  0  0  0  0  0  0  0  0  0  0  0
    0.7670   -1.6273    1.0983 H   0  0  0  0  0  0  0  0  0  0  0  0
    1.3269   -1.3656   -0.5972 H   0  0  0  0  0  0  0  0  0  0  0  0
  1  2  1  0
  2  3  1  0
  3  4  1  0
  4  5  1  0
  4  6  1  0
  6  7  1  0
  6  8  1  0
  6  9  1  0
  9  2  1  0
  1 10  1  0
  1 11  1  0
  1 12  1  0
  2 13  1  0
  3 14  1  0
  3 15  1  0
  4 16  1  0
  5 17  1  0
  5 18  1  0
  5 19  1  0
  7 20  1  0
  7 21  1  0
  7 22  1  0
  8 23  1  0
  8 24  1  0
  8 25  1  0
  9 26  1  0
  9 27  1  0
M  END
