
     RDKit          3D

 19 20  0  0  0  0  0  0  0  0999 V2000
   -1.6684    0.9671    0.0752 C   0  0  0  0  0  0  0  0  0  0  0  0
   -1.1098   -0.3551    0.4148 C   0  0  0  0  0  0  0  0  0  0  0  0
   -1.4106   -1.4830   -0.4886 C   0  0  0  0  0  0  0  0  0  0  0  0
   -2.3929   -1.8027   -1.2038 O   0  0  0  0  0  0  0  0  0  0  0  0
   -0.1392   -1.9925   -0.1767 O   0  0  0  0  0  0  0  0  0  0  0  0
    0.2670   -0.6937    0.0322 C   0  0  0  0  0  0  0  0  0  0  0  0
    1.3768   -0.3934    0.9623 C   0  0  0  0  0  0  0  0  0  0  0  0
    1.7248    0.7893    0.0431 C   0  0  0  0  0  0  0  0  0  0  0  0
    0.9498    0.0378   -1.0491 C   0  0  0  0  0  0  0  0  0  0  0  0
   -1.1676    1.5310   -0.7070 H   0  0  0  0  0  0  0  0  0  0  0  0
   -1.6283    1.6094    1.0020 H   0  0  0  0  0  0  0  0  0  0  0  0
   -2.7522    0.8687   -0.1594 H   0  0  0  0  0  0  0  0  0  0  0  0
   -1.3538   -0.6433    1.4590 H   0  0  0  0  0  0  0  0  0  0  0  0
    2.2169   -1.1078    1.0083 H   0  0  0  0  0  0  0  0  0  0  0  0
    1.0560    0.0355    1.9441 H   0  0  0  0  0  0  0  0  0  0  0  0
    1.1611    1.7125    0.2721 H   0  0  0  0  0  0  0  0  0  0  0  0
    2.7950    0.8815   -0.1382 H   0  0  0  0  0  0  0  0  0  0  0  0
    0.3771    0.6704   -1.7241 H   0  0  0  0  0  0  0  0  0  0  0  0
    1.6982   -0.6318   -1.5664 H   0  0  0  0  0  0  0  0  0  0  0  0
  1  2  1  0
  2  3  1  0
  3  4  2  0
  3  5  1  0
  5  6  1  0
  6  7  1  0
  7  8  1  0
  8  9  1  0
  6  2  1  0
  9  6  1  0
  1 10  1  0
  1 11  1  0
  1 12  1  0
  2 13  1  0
  7 14  1  0
  7 15  1  0
  8 16  1  0
  8 17  1  0
  9 18  1  0
  9 19  1  0
M  END
