
     RDKit          3D

 18 19  0  0  0  0  0  0  0  0999 V2000
    1.9905   -0.2403   -0.5993 C   0  0  0  0  0  0  0  0  0  0  0  0
    0.9131    0.1909    0.3324 C   0  0  0  0  0  0  0  0  0  0  0  0
   -0.1278   -0.8325    0.6904 C   0  0  0  0  0  0  0  0  0  0  0  0
   -0.6150   -0.7041   -0.7222 C   0  0  0  0  0  0  0  0  0  0  0  0
   -0.3457    0.7342   -0.2862 C   0  0  0  0  0  0  0  0  0  0  0  0
   -0.4983    1.7613   -0.9753 O   0  0  0  0  0  0  0  0  0  0  0  0
   -1.0239    0.3422    0.9965 C   0  0  0  0  0  0  0  0  0  0  0  0
   -2.3788    0.1164    0.8962 O   0  0  0  0  0  0  0  0  0  0  0  0
    2.0312   -1.3459   -0.6737 H   0  0  0  0  0  0  0  0  0  0  0  0
    1.9599    0.2263   -1.5968 H   0  0  0  0  0  0  0  0  0  0  0  0
    2.9706    0.0892   -0.1478 H   0  0  0  0  0  0  0  0  0  0  0  0
    1.2273    0.7753    1.2197 H   0  0  0  0  0  0  0  0  0  0  0  0
   -0.0124   -1.6616    1.2329 H   0  0  0  0  0  0  0  0  0  0  0  0
   -1.6694   -0.9570   -0.8081 H   0  0  0  0  0  0  0  0  0  0  0  0
    0.0626   -1.0308   -1.5176 H   0  0  0  0  0  0  0  0  0  0  0  0
   -1.0946    1.7360   -1.7409 H   0  0  0  0  0  0  0  0  0  0  0  0
   -0.6849    0.9096    1.8889 H   0  0  0  0  0  0  0  0  0  0  0  0
   -2.7044   -0.1092    1.8109 H   0  0  0  0  0  0  0  0  0  0  0  0
  1  2  1  0
  2  3  1  0
  3  4  1  0
  4  5  1  0
  5  6  1  0
  5  7  1  0
  7  8  1  0
  5  2  1  0
  7  3  1  0
  1  9  1  0
  1 10  1  0
  1 11  1  0
  2 12  1  0
  3 13  1  0
  4 14  1  0
  4 15  1  0
  6 16  1  0
  7 17  1  0
  8 18  1  0
M  END
