
     RDKit          3D

 21 22  0  0  0  0  0  0  0  0999 V2000
    1.5426   -0.9853    0.5276 C   0  0  0  0  0  0  0  0  0  0  0  0
    0.6596   -0.2208   -0.4235 C   0  0  0  0  0  0  0  0  0  0  0  0
    0.9487    1.2816   -0.3008 C   0  0  0  0  0  0  0  0  0  0  0  0
    2.1503    1.5772    0.2860 O   0  0  0  0  0  0  0  0  0  0  0  0
   -0.2483    1.3249    0.6632 C   0  0  0  0  0  0  0  0  0  0  0  0
   -0.7123    0.0817   -0.0007 C   0  0  0  0  0  0  0  0  0  0  0  0
   -1.8884    0.0195   -0.8796 C   0  0  0  0  0  0  0  0  0  0  0  0
   -1.7493   -0.7952    0.4294 C   0  0  0  0  0  0  0  0  0  0  0  0
   -1.7627   -2.1592    0.2443 O   0  0  0  0  0  0  0  0  0  0  0  0
    1.5894   -0.4699    1.4978 H   0  0  0  0  0  0  0  0  0  0  0  0
    2.5708   -0.9768    0.0735 H   0  0  0  0  0  0  0  0  0  0  0  0
    1.1756   -2.0258    0.5868 H   0  0  0  0  0  0  0  0  0  0  0  0
    0.7622   -0.5373   -1.4577 H   0  0  0  0  0  0  0  0  0  0  0  0
    0.6982    1.8327   -1.2391 H   0  0  0  0  0  0  0  0  0  0  0  0
    2.8811    1.2449   -0.2957 H   0  0  0  0  0  0  0  0  0  0  0  0
   -0.8212    2.2412    0.5127 H   0  0  0  0  0  0  0  0  0  0  0  0
    0.1586    1.1647    1.6949 H   0  0  0  0  0  0  0  0  0  0  0  0
   -1.7466   -0.5455   -1.8323 H   0  0  0  0  0  0  0  0  0  0  0  0
   -2.5628    0.8911   -0.8623 H   0  0  0  0  0  0  0  0  0  0  0  0
   -2.4773   -0.4591    1.2242 H   0  0  0  0  0  0  0  0  0  0  0  0
   -1.1685   -2.4847   -0.4488 H   0  0  0  0  0  0  0  0  0  0  0  0
  1  2  1  0
  2  3  1  0
  3  4  1  0
  3  5  1  0
  5  6  1  0
  6  7  1  0
  7  8  1  0
  8  9  1  0
  6  2  1  0
  8  6  1  0
  1 10  1  0
  1 11  1  0
  1 12  1  0
  2 13  1  0
  3 14  1  0
  4 15  1  0
  5 16  1  0
  5 17  1  0
  7 18  1  0
  7 19  1  0
  8 20  1  0
  9 21  1  0
M  END
