
     RDKit          3D

 19 20  0  0  0  0  0  0  0  0999 V2000
    2.4009    0.8006    0.2673 C   0  0  0  0  0  0  0  0  0  0  0  0
    1.4750   -0.0844   -0.5181 C   0  0  0  0  0  0  0  0  0  0  0  0
    0.8807   -1.2187    0.3037 C   0  0  0  0  0  0  0  0  0  0  0  0
    0.0371   -0.1210   -0.2398 C   0  0  0  0  0  0  0  0  0  0  0  0
   -0.5623    0.7968    0.6309 O   0  0  0  0  0  0  0  0  0  0  0  0
   -1.9030    0.4805    0.6514 C   0  0  0  0  0  0  0  0  0  0  0  0
   -2.2332    0.1796   -0.7990 C   0  0  0  0  0  0  0  0  0  0  0  0
   -0.9668   -0.4584   -1.2528 C   0  0  0  0  0  0  0  0  0  0  0  0
   -0.8468   -1.1054   -2.2507 O   0  0  0  0  0  0  0  0  0  0  0  0
    2.1576    0.7614    1.3503 H   0  0  0  0  0  0  0  0  0  0  0  0
    3.4333    0.3855    0.1379 H   0  0  0  0  0  0  0  0  0  0  0  0
    2.3983    1.8504   -0.0508 H   0  0  0  0  0  0  0  0  0  0  0  0
    1.8370   -0.3136   -1.5385 H   0  0  0  0  0  0  0  0  0  0  0  0
    1.0158   -1.2184    1.3902 H   0  0  0  0  0  0  0  0  0  0  0  0
    0.9234   -2.2048   -0.1872 H   0  0  0  0  0  0  0  0  0  0  0  0
   -2.0632   -0.4605    1.2145 H   0  0  0  0  0  0  0  0  0  0  0  0
   -2.5253    1.3136    0.9870 H   0  0  0  0  0  0  0  0  0  0  0  0
   -3.0926   -0.4887   -0.8098 H   0  0  0  0  0  0  0  0  0  0  0  0
   -2.3659    1.1055   -1.3895 H   0  0  0  0  0  0  0  0  0  0  0  0
  1  2  1  0
  2  3  1  0
  3  4  1  0
  4  5  1  0
  5  6  1  0
  6  7  1  0
  7  8  1  0
  8  9  2  0
  4  2  1  0
  8  4  1  0
  1 10  1  0
  1 11  1  0
  1 12  1  0
  2 13  1  0
  3 14  1  0
  3 15  1  0
  6 16  1  0
  6 17  1  0
  7 18  1  0
  7 19  1  0
M  END
