
     RDKit          3D

 23 23  0  0  0  0  0  0  0  0999 V2000
    2.4360   -0.0687    0.1284 C   0  0  0  0  0  0  0  0  0  0  0  0
    1.1126   -0.3807   -0.4846 C   0  0  0  0  0  0  0  0  0  0  0  0
    0.2212   -1.2931    0.3349 C   0  0  0  0  0  0  0  0  0  0  0  0
   -0.9345   -0.3821   -0.0125 C   0  0  0  0  0  0  0  0  0  0  0  0
   -1.7496   -0.8603   -1.2038 C   0  0  0  0  0  0  0  0  0  0  0  0
   -1.7776    0.0147    1.1276 C   0  0  0  0  0  0  0  0  0  0  0  0
   -2.6342    0.8622    0.9340 O   0  0  0  0  0  0  0  0  0  0  0  0
    0.0695    0.6782   -0.4658 C   0  0  0  0  0  0  0  0  0  0  0  0
    0.1775    1.7587    0.5469 C   0  0  0  0  0  0  0  0  0  0  0  0
    2.3056    0.5162    1.0395 H   0  0  0  0  0  0  0  0  0  0  0  0
    3.0528    0.4445   -0.6515 H   0  0  0  0  0  0  0  0  0  0  0  0
    2.9205   -1.0587    0.3786 H   0  0  0  0  0  0  0  0  0  0  0  0
    1.2778   -0.7744   -1.5282 H   0  0  0  0  0  0  0  0  0  0  0  0
    0.1742   -2.3058   -0.1269 H   0  0  0  0  0  0  0  0  0  0  0  0
    0.4772   -1.3423    1.3995 H   0  0  0  0  0  0  0  0  0  0  0  0
   -2.6812   -1.2706   -0.8088 H   0  0  0  0  0  0  0  0  0  0  0  0
   -1.1477   -1.5747   -1.7896 H   0  0  0  0  0  0  0  0  0  0  0  0
   -1.9099    0.0371   -1.8455 H   0  0  0  0  0  0  0  0  0  0  0  0
   -1.7071   -0.3794    2.1303 H   0  0  0  0  0  0  0  0  0  0  0  0
   -0.1606    1.0805   -1.4960 H   0  0  0  0  0  0  0  0  0  0  0  0
   -0.2599    1.4918    1.5432 H   0  0  0  0  0  0  0  0  0  0  0  0
   -0.4560    2.6220    0.1854 H   0  0  0  0  0  0  0  0  0  0  0  0
    1.1935    2.1849    0.6648 H   0  0  0  0  0  0  0  0  0  0  0  0
  1  2  1  0
  2  3  1  0
  3  4  1  0
  4  5  1  0
  4  6  1  0
  6  7  2  0
  4  8  1  0
  8  9  1  0
  8  2  1  0
  1 10  1  0
  1 11  1  0
  1 12  1  0
  2 13  1  0
  3 14  1  0
  3 15  1  0
  5 16  1  0
  5 17  1  0
  5 18  1  0
  6 19  1  0
  8 20  1  0
  9 21  1  0
  9 22  1  0
  9 23  1  0
M  END
