
     RDKit          3D

 18 19  0  0  0  0  0  0  0  0999 V2000
   -2.2259   -0.7491    0.0208 C   0  0  0  0  0  0  0  0  0  0  0  0
   -0.7651   -0.4804   -0.1305 C   0  0  0  0  0  0  0  0  0  0  0  0
   -0.3438    0.9039   -0.4519 C   0  0  0  0  0  0  0  0  0  0  0  0
   -0.7850    1.2509    0.8295 O   0  0  0  0  0  0  0  0  0  0  0  0
   -0.0867    0.0763    1.0799 C   0  0  0  0  0  0  0  0  0  0  0  0
    0.9770    0.6186    0.1884 C   0  0  0  0  0  0  0  0  0  0  0  0
    1.8089   -0.4634   -0.4093 C   0  0  0  0  0  0  0  0  0  0  0  0
    1.6456    1.7467    0.6189 O   0  0  0  0  0  0  0  0  0  0  0  0
   -2.8332    0.1642    0.1981 H   0  0  0  0  0  0  0  0  0  0  0  0
   -2.5851   -1.1719   -0.9594 H   0  0  0  0  0  0  0  0  0  0  0  0
   -2.4425   -1.5299    0.8009 H   0  0  0  0  0  0  0  0  0  0  0  0
   -0.2508   -1.2409   -0.7071 H   0  0  0  0  0  0  0  0  0  0  0  0
   -0.5138    1.4357   -1.2908 H   0  0  0  0  0  0  0  0  0  0  0  0
    0.0277   -0.3726    1.9759 H   0  0  0  0  0  0  0  0  0  0  0  0
    1.6976   -0.5658   -1.5113 H   0  0  0  0  0  0  0  0  0  0  0  0
    2.8815   -0.2372   -0.1475 H   0  0  0  0  0  0  0  0  0  0  0  0
    1.6233   -1.4665    0.0669 H   0  0  0  0  0  0  0  0  0  0  0  0
    2.1703    2.0814   -0.1716 H   0  0  0  0  0  0  0  0  0  0  0  0
  1  2  1  0
  2  3  1  0
  3  4  1  0
  4  5  1  0
  5  6  1  0
  6  7  1  0
  6  8  1  0
  5  2  1  0
  6  3  1  0
  1  9  1  0
  1 10  1  0
  1 11  1  0
  2 12  1  0
  3 13  1  0
  5 14  1  0
  7 15  1  0
  7 16  1  0
  7 17  1  0
  8 18  1  0
M  END
