
     RDKit          3D

 27 27  0  0  0  0  0  0  0  0999 V2000
   -1.4824    1.5262    0.9989 C   0  0  0  0  0  0  0  0  0  0  0  0
   -0.5568    1.1891   -0.1438 C   0  0  0  0  0  0  0  0  0  0  0  0
    0.8408    0.7787    0.3206 C   0  0  0  0  0  0  0  0  0  0  0  0
    1.8781    1.2871   -0.6402 C   0  0  0  0  0  0  0  0  0  0  0  0
    0.4394   -0.6819    0.0711 C   0  0  0  0  0  0  0  0  0  0  0  0
    0.2274   -1.3759    1.3569 C   0  0  0  0  0  0  0  0  0  0  0  0
    1.4882   -1.4151   -0.7673 C   0  0  0  0  0  0  0  0  0  0  0  0
   -0.7015   -0.1907   -0.7221 C   0  0  0  0  0  0  0  0  0  0  0  0
   -2.0189   -0.8465   -0.6285 C   0  0  0  0  0  0  0  0  0  0  0  0
   -1.3345    0.8650    1.8747 H   0  0  0  0  0  0  0  0  0  0  0  0
   -2.5144    1.5853    0.6420 H   0  0  0  0  0  0  0  0  0  0  0  0
   -1.2020    2.5524    1.3362 H   0  0  0  0  0  0  0  0  0  0  0  0
   -0.5610    2.0266   -0.8734 H   0  0  0  0  0  0  0  0  0  0  0  0
    1.0703    1.0104    1.3626 H   0  0  0  0  0  0  0  0  0  0  0  0
    2.7772    0.6396   -0.6973 H   0  0  0  0  0  0  0  0  0  0  0  0
    1.4452    1.3626   -1.6710 H   0  0  0  0  0  0  0  0  0  0  0  0
    2.1458    2.3061   -0.3413 H   0  0  0  0  0  0  0  0  0  0  0  0
   -0.7969   -1.4865    1.6966 H   0  0  0  0  0  0  0  0  0  0  0  0
    0.7801   -0.8592    2.1974 H   0  0  0  0  0  0  0  0  0  0  0  0
    0.6732   -2.4149    1.3550 H   0  0  0  0  0  0  0  0  0  0  0  0
    1.1233   -2.4537   -0.8966 H   0  0  0  0  0  0  0  0  0  0  0  0
    2.4853   -1.3506   -0.3288 H   0  0  0  0  0  0  0  0  0  0  0  0
    1.5103   -0.9412   -1.7707 H   0  0  0  0  0  0  0  0  0  0  0  0
   -0.4102   -0.1228   -1.8159 H   0  0  0  0  0  0  0  0  0  0  0  0
   -2.1754   -1.5350    0.1934 H   0  0  0  0  0  0  0  0  0  0  0  0
   -2.3147   -1.4037   -1.5665 H   0  0  0  0  0  0  0  0  0  0  0  0
   -2.8160   -0.0514   -0.5418 H   0  0  0  0  0  0  0  0  0  0  0  0
  1  2  1  0
  2  3  1  0
  3  4  1  0
  3  5  1  0
  5  6  1  0
  5  7  1  0
  5  8  1  0
  8  9  1  0
  8  2  1  0
  1 10  1  0
  1 11  1  0
  1 12  1  0
  2 13  1  0
  3 14  1  0
  4 15  1  0
  4 16  1  0
  4 17  1  0
  6 18  1  0
  6 19  1  0
  6 20  1  0
  7 21  1  0
  7 22  1  0
  7 23  1  0
  8 24  1  0
  9 25  1  0
  9 26  1  0
  9 27  1  0
M  END
