
     RDKit          3D

 19 20  0  0  0  0  0  0  0  0999 V2000
    1.8642   -0.9074   -0.4802 C   0  0  0  0  0  0  0  0  0  0  0  0
    0.6820   -0.2169    0.0837 C   0  0  0  0  0  0  0  0  0  0  0  0
    0.7763    1.3128   -0.0315 C   0  0  0  0  0  0  0  0  0  0  0  0
   -0.2252    1.8028    0.9302 C   0  0  0  0  0  0  0  0  0  0  0  0
   -0.0891    2.8759    1.5234 O   0  0  0  0  0  0  0  0  0  0  0  0
   -1.3306    1.0179    1.1498 O   0  0  0  0  0  0  0  0  0  0  0  0
   -1.7512    0.1351    0.1361 C   0  0  0  0  0  0  0  0  0  0  0  0
   -1.6599   -1.3219    0.2261 C   0  0  0  0  0  0  0  0  0  0  0  0
   -0.6271   -0.5940   -0.5523 C   0  0  0  0  0  0  0  0  0  0  0  0
    2.6351   -0.9884    0.3365 H   0  0  0  0  0  0  0  0  0  0  0  0
    1.5746   -1.9092   -0.8332 H   0  0  0  0  0  0  0  0  0  0  0  0
    2.3009   -0.3016   -1.2997 H   0  0  0  0  0  0  0  0  0  0  0  0
    0.6016   -0.4750    1.1773 H   0  0  0  0  0  0  0  0  0  0  0  0
    0.4098    1.5991   -1.0615 H   0  0  0  0  0  0  0  0  0  0  0  0
    1.7918    1.6760    0.1415 H   0  0  0  0  0  0  0  0  0  0  0  0
   -2.5574    0.5882   -0.5036 H   0  0  0  0  0  0  0  0  0  0  0  0
   -1.3394   -1.8671    1.1148 H   0  0  0  0  0  0  0  0  0  0  0  0
   -2.3968   -1.8924   -0.4038 H   0  0  0  0  0  0  0  0  0  0  0  0
   -0.6597   -0.5340   -1.6536 H   0  0  0  0  0  0  0  0  0  0  0  0
  1  2  1  0
  2  3  1  0
  3  4  1  0
  4  5  2  0
  4  6  1  0
  6  7  1  0
  7  8  1  0
  8  9  1  0
  9  2  1  0
  9  7  1  0
  1 10  1  0
  1 11  1  0
  1 12  1  0
  2 13  1  0
  3 14  1  0
  3 15  1  0
  7 16  1  0
  8 17  1  0
  8 18  1  0
  9 19  1  0
M  END
