
     RDKit          3D

 21 21  0  0  0  0  0  0  0  0999 V2000
   -2.3625    0.2702   -0.0816 C   0  0  0  0  0  0  0  0  0  0  0  0
   -1.1622   -0.1640    0.7131 C   0  0  0  0  0  0  0  0  0  0  0  0
   -0.7848   -1.5537    0.2409 C   0  0  0  0  0  0  0  0  0  0  0  0
    0.5988   -1.4934    0.1347 O   0  0  0  0  0  0  0  0  0  0  0  0
    0.7801   -0.3035   -0.5710 C   0  0  0  0  0  0  0  0  0  0  0  0
    2.2488    0.0040   -0.7087 C   0  0  0  0  0  0  0  0  0  0  0  0
    2.8780    0.1473    0.5134 O   0  0  0  0  0  0  0  0  0  0  0  0
    0.0688    0.6742    0.3357 C   0  0  0  0  0  0  0  0  0  0  0  0
   -0.2914    1.8402   -0.3144 O   0  0  0  0  0  0  0  0  0  0  0  0
   -2.5781   -0.4329   -0.9355 H   0  0  0  0  0  0  0  0  0  0  0  0
   -3.2403    0.2389    0.5967 H   0  0  0  0  0  0  0  0  0  0  0  0
   -2.2279    1.2809   -0.5112 H   0  0  0  0  0  0  0  0  0  0  0  0
   -1.3119   -0.1734    1.7939 H   0  0  0  0  0  0  0  0  0  0  0  0
   -1.1674   -1.7636   -0.7897 H   0  0  0  0  0  0  0  0  0  0  0  0
   -1.1238   -2.3111    0.9716 H   0  0  0  0  0  0  0  0  0  0  0  0
    0.2721   -0.4120   -1.5305 H   0  0  0  0  0  0  0  0  0  0  0  0
    2.3632    0.9205   -1.3301 H   0  0  0  0  0  0  0  0  0  0  0  0
    2.6999   -0.8213   -1.2979 H   0  0  0  0  0  0  0  0  0  0  0  0
    3.7378    0.5914    0.3652 H   0  0  0  0  0  0  0  0  0  0  0  0
    0.7194    0.8452    1.2218 H   0  0  0  0  0  0  0  0  0  0  0  0
   -0.1166    2.6161    0.2780 H   0  0  0  0  0  0  0  0  0  0  0  0
  1  2  1  0
  2  3  1  0
  3  4  1  0
  4  5  1  0
  5  6  1  0
  6  7  1  0
  5  8  1  0
  8  9  1  0
  8  2  1  0
  1 10  1  0
  1 11  1  0
  1 12  1  0
  2 13  1  0
  3 14  1  0
  3 15  1  0
  5 16  1  0
  6 17  1  0
  6 18  1  0
  7 19  1  0
  8 20  1  0
  9 21  1  0
M  END
