
     RDKit          3D

 23 24  0  0  0  0  0  0  0  0999 V2000
    2.6151   -0.1416    0.4086 C   0  0  0  0  0  0  0  0  0  0  0  0
    1.2480   -0.5331   -0.0617 C   0  0  0  0  0  0  0  0  0  0  0  0
    0.8123    0.3681   -1.2084 C   0  0  0  0  0  0  0  0  0  0  0  0
   -0.7001    0.1768   -1.1752 C   0  0  0  0  0  0  0  0  0  0  0  0
   -1.5628    1.1060   -0.4231 C   0  0  0  0  0  0  0  0  0  0  0  0
   -1.1000    2.3454    0.0147 O   0  0  0  0  0  0  0  0  0  0  0  0
   -1.0915   -0.1555    0.1802 C   0  0  0  0  0  0  0  0  0  0  0  0
   -2.1427   -1.1754    0.5269 C   0  0  0  0  0  0  0  0  0  0  0  0
    0.1697   -0.2517    0.9611 C   0  0  0  0  0  0  0  0  0  0  0  0
    3.3243   -1.0150    0.3932 H   0  0  0  0  0  0  0  0  0  0  0  0
    2.6091    0.3360    1.3943 H   0  0  0  0  0  0  0  0  0  0  0  0
    3.0731    0.5944   -0.3081 H   0  0  0  0  0  0  0  0  0  0  0  0
    1.2399   -1.5728   -0.4092 H   0  0  0  0  0  0  0  0  0  0  0  0
    1.2701   -0.0204   -2.1205 H   0  0  0  0  0  0  0  0  0  0  0  0
    1.1126    1.4081   -1.0657 H   0  0  0  0  0  0  0  0  0  0  0  0
   -1.0904   -0.2853   -2.0883 H   0  0  0  0  0  0  0  0  0  0  0  0
   -2.6239    1.1425   -0.7464 H   0  0  0  0  0  0  0  0  0  0  0  0
   -0.3136    2.2980    0.5888 H   0  0  0  0  0  0  0  0  0  0  0  0
   -3.0417   -0.5861    0.8761 H   0  0  0  0  0  0  0  0  0  0  0  0
   -2.5001   -1.7559   -0.3415 H   0  0  0  0  0  0  0  0  0  0  0  0
   -1.8682   -1.8097    1.3946 H   0  0  0  0  0  0  0  0  0  0  0  0
    0.1697   -1.1135    1.6635 H   0  0  0  0  0  0  0  0  0  0  0  0
    0.3910    0.6406    1.5461 H   0  0  0  0  0  0  0  0  0  0  0  0
  1  2  1  0
  2  3  1  0
  3  4  1  0
  4  5  1  0
  5  6  1  0
  5  7  1  0
  7  8  1  0
  7  9  1  0
  9  2  1  0
  7  4  1  0
  1 10  1  0
  1 11  1  0
  1 12  1  0
  2 13  1  0
  3 14  1  0
  3 15  1  0
  4 16  1  0
  5 17  1  0
  6 18  1  0
  8 19  1  0
  8 20  1  0
  8 21  1  0
  9 22  1  0
  9 23  1  0
M  END
