
     RDKit          3D

 21 22  0  0  0  0  0  0  0  0999 V2000
    1.8524    0.4850    1.1793 C   0  0  0  0  0  0  0  0  0  0  0  0
    1.4436   -0.6340    0.2673 C   0  0  0  0  0  0  0  0  0  0  0  0
    1.0461   -0.1701   -1.1349 C   0  0  0  0  0  0  0  0  0  0  0  0
    1.5999   -0.9412   -2.1749 O   0  0  0  0  0  0  0  0  0  0  0  0
    0.0754   -0.8232   -0.2019 C   0  0  0  0  0  0  0  0  0  0  0  0
   -1.0776   -0.0305    0.3588 C   0  0  0  0  0  0  0  0  0  0  0  0
   -1.2703   -0.2004    1.7395 O   0  0  0  0  0  0  0  0  0  0  0  0
   -2.3507   -0.1577   -0.4849 C   0  0  0  0  0  0  0  0  0  0  0  0
   -1.6220    1.1486   -0.2895 C   0  0  0  0  0  0  0  0  0  0  0  0
    1.1986    0.6303    2.0411 H   0  0  0  0  0  0  0  0  0  0  0  0
    2.8768    0.3160    1.5670 H   0  0  0  0  0  0  0  0  0  0  0  0
    1.8981    1.4721    0.6454 H   0  0  0  0  0  0  0  0  0  0  0  0
    2.0916   -1.5488    0.3296 H   0  0  0  0  0  0  0  0  0  0  0  0
    1.0113    0.8931   -1.3545 H   0  0  0  0  0  0  0  0  0  0  0  0
    1.5733   -1.8798   -1.8686 H   0  0  0  0  0  0  0  0  0  0  0  0
   -0.2251   -1.8499   -0.5215 H   0  0  0  0  0  0  0  0  0  0  0  0
   -1.1996    0.6978    2.1433 H   0  0  0  0  0  0  0  0  0  0  0  0
   -3.2907   -0.3512    0.0571 H   0  0  0  0  0  0  0  0  0  0  0  0
   -2.2643   -0.5690   -1.5032 H   0  0  0  0  0  0  0  0  0  0  0  0
   -2.1827    1.8659    0.3700 H   0  0  0  0  0  0  0  0  0  0  0  0
   -1.1842    1.6471   -1.1644 H   0  0  0  0  0  0  0  0  0  0  0  0
  1  2  1  0
  2  3  1  0
  3  4  1  0
  3  5  1  0
  5  6  1  0
  6  7  1  0
  6  8  1  0
  8  9  1  0
  5  2  1  0
  9  6  1  0
  1 10  1  0
  1 11  1  0
  1 12  1  0
  2 13  1  0
  3 14  1  0
  4 15  1  0
  5 16  1  0
  7 17  1  0
  8 18  1  0
  8 19  1  0
  9 20  1  0
  9 21  1  0
M  END
