
     RDKit          3D

 19 19  0  0  0  0  0  0  0  0999 V2000
   -1.5676   -1.2163   -0.8655 C   0  0  0  0  0  0  0  0  0  0  0  0
   -0.9251   -0.2697    0.1031 C   0  0  0  0  0  0  0  0  0  0  0  0
   -0.7003    1.1041   -0.5450 C   0  0  0  0  0  0  0  0  0  0  0  0
    0.3103    1.6769    0.4162 C   0  0  0  0  0  0  0  0  0  0  0  0
    0.5931    2.8469    0.6013 O   0  0  0  0  0  0  0  0  0  0  0  0
    0.9666    0.5675    1.1634 C   0  0  0  0  0  0  0  0  0  0  0  0
    2.3297    0.7049    1.2430 O   0  0  0  0  0  0  0  0  0  0  0  0
    0.5280   -0.6483    0.3773 C   0  0  0  0  0  0  0  0  0  0  0  0
    1.1805   -0.6058   -0.8476 O   0  0  0  0  0  0  0  0  0  0  0  0
   -2.6104   -0.9078   -1.0044 H   0  0  0  0  0  0  0  0  0  0  0  0
   -1.5458   -2.2281   -0.4522 H   0  0  0  0  0  0  0  0  0  0  0  0
   -1.0143   -1.1312   -1.8318 H   0  0  0  0  0  0  0  0  0  0  0  0
   -1.4284   -0.1779    1.0621 H   0  0  0  0  0  0  0  0  0  0  0  0
   -1.6118    1.6904   -0.5979 H   0  0  0  0  0  0  0  0  0  0  0  0
   -0.1716    0.9343   -1.4813 H   0  0  0  0  0  0  0  0  0  0  0  0
    0.4770    0.4823    2.1659 H   0  0  0  0  0  0  0  0  0  0  0  0
    2.8372    0.1450    0.6306 H   0  0  0  0  0  0  0  0  0  0  0  0
    0.6321   -1.5862    0.9151 H   0  0  0  0  0  0  0  0  0  0  0  0
    1.7208   -1.3810   -1.0523 H   0  0  0  0  0  0  0  0  0  0  0  0
  1  2  1  0
  2  3  1  0
  3  4  1  0
  4  5  2  0
  4  6  1  0
  6  7  1  0
  6  8  1  0
  8  9  1  0
  8  2  1  0
  1 10  1  0
  1 11  1  0
  1 12  1  0
  2 13  1  0
  3 14  1  0
  3 15  1  0
  6 16  1  0
  7 17  1  0
  8 18  1  0
  9 19  1  0
M  END
