
     RDKit          3D

 19 20  0  0  0  0  0  0  0  0999 V2000
    1.7811   -0.6868   -0.3706 C   0  0  0  0  0  0  0  0  0  0  0  0
    0.8120    0.0133    0.5255 C   0  0  0  0  0  0  0  0  0  0  0  0
    0.5561    1.4068    0.0191 C   0  0  0  0  0  0  0  0  0  0  0  0
   -0.9004    1.5315   -0.1963 C   0  0  0  0  0  0  0  0  0  0  0  0
   -1.4153    2.4096   -0.8686 O   0  0  0  0  0  0  0  0  0  0  0  0
   -1.5611    0.4180    0.5423 C   0  0  0  0  0  0  0  0  0  0  0  0
   -2.2307   -0.4212   -0.3439 O   0  0  0  0  0  0  0  0  0  0  0  0
   -1.1202   -1.2782   -0.5258 C   0  0  0  0  0  0  0  0  0  0  0  0
   -0.5036   -0.6668    0.6699 C   0  0  0  0  0  0  0  0  0  0  0  0
    2.1336   -1.6493    0.0047 H   0  0  0  0  0  0  0  0  0  0  0  0
    2.6795   -0.0308   -0.4669 H   0  0  0  0  0  0  0  0  0  0  0  0
    1.3437   -0.7446   -1.3867 H   0  0  0  0  0  0  0  0  0  0  0  0
    1.2726    0.0672    1.5521 H   0  0  0  0  0  0  0  0  0  0  0  0
    1.0352    1.5298   -0.9932 H   0  0  0  0  0  0  0  0  0  0  0  0
    0.9592    2.1556    0.7046 H   0  0  0  0  0  0  0  0  0  0  0  0
   -2.0808    0.6955    1.4546 H   0  0  0  0  0  0  0  0  0  0  0  0
   -0.6724   -1.1186   -1.5045 H   0  0  0  0  0  0  0  0  0  0  0  0
   -1.4844   -2.3262   -0.3823 H   0  0  0  0  0  0  0  0  0  0  0  0
   -0.6040   -1.3048    1.5661 H   0  0  0  0  0  0  0  0  0  0  0  0
  1  2  1  0
  2  3  1  0
  3  4  1  0
  4  5  2  0
  4  6  1  0
  6  7  1  0
  7  8  1  0
  8  9  1  0
  9  2  1  0
  9  6  1  0
  1 10  1  0
  1 11  1  0
  1 12  1  0
  2 13  1  0
  3 14  1  0
  3 15  1  0
  6 16  1  0
  8 17  1  0
  8 18  1  0
  9 19  1  0
M  END
