
     RDKit          3D

 20 22  0  0  0  0  0  0  0  0999 V2000
   -2.3202    0.0877    0.7905 C   0  0  0  0  0  0  0  0  0  0  0  0
   -1.4472    0.0799   -0.4444 C   0  0  0  0  0  0  0  0  0  0  0  0
   -0.7787   -1.2357   -0.7870 C   0  0  0  0  0  0  0  0  0  0  0  0
   -0.0063   -0.0783   -0.3900 C   0  0  0  0  0  0  0  0  0  0  0  0
    0.9727    0.6418   -1.2384 C   0  0  0  0  0  0  0  0  0  0  0  0
    1.8324    0.8511   -0.0224 C   0  0  0  0  0  0  0  0  0  0  0  0
    2.2734   -0.2986    0.7793 C   0  0  0  0  0  0  0  0  0  0  0  0
    0.8166    0.0329    0.8405 C   0  0  0  0  0  0  0  0  0  0  0  0
   -3.2704    0.6343    0.6454 H   0  0  0  0  0  0  0  0  0  0  0  0
   -2.6089   -0.9732    0.9940 H   0  0  0  0  0  0  0  0  0  0  0  0
   -1.7501    0.4861    1.6443 H   0  0  0  0  0  0  0  0  0  0  0  0
   -1.8630    0.7024   -1.2727 H   0  0  0  0  0  0  0  0  0  0  0  0
   -0.7265   -1.5306   -1.8700 H   0  0  0  0  0  0  0  0  0  0  0  0
   -1.0201   -2.0838   -0.1168 H   0  0  0  0  0  0  0  0  0  0  0  0
    0.5361    1.5670   -1.6576 H   0  0  0  0  0  0  0  0  0  0  0  0
    1.5004    0.0543   -2.0163 H   0  0  0  0  0  0  0  0  0  0  0  0
    2.0625    1.8666    0.3297 H   0  0  0  0  0  0  0  0  0  0  0  0
    2.4917   -1.2926    0.3566 H   0  0  0  0  0  0  0  0  0  0  0  0
    2.8714   -0.0497    1.6909 H   0  0  0  0  0  0  0  0  0  0  0  0
    0.4340    0.5384    1.7446 H   0  0  0  0  0  0  0  0  0  0  0  0
  1  2  1  0
  2  3  1  0
  3  4  1  0
  4  5  1  0
  5  6  1  0
  6  7  1  0
  7  8  1  0
  4  2  1  0
  8  6  1  0
  8  4  1  0
  1  9  1  0
  1 10  1  0
  1 11  1  0
  2 12  1  0
  3 13  1  0
  3 14  1  0
  5 15  1  0
  5 16  1  0
  6 17  1  0
  7 18  1  0
  7 19  1  0
  8 20  1  0
M  END
