
     RDKit          3D

 23 23  0  0  0  0  0  0  0  0999 V2000
    2.6520    0.3008   -0.1048 C   0  0  0  0  0  0  0  0  0  0  0  0
    1.2079    0.1066    0.3014 C   0  0  0  0  0  0  0  0  0  0  0  0
    0.5921   -0.9619   -0.5786 C   0  0  0  0  0  0  0  0  0  0  0  0
   -0.6036   -1.6094    0.0272 C   0  0  0  0  0  0  0  0  0  0  0  0
   -1.8634   -0.8163   -0.0260 C   0  0  0  0  0  0  0  0  0  0  0  0
   -1.8005    0.5436    0.5696 C   0  0  0  0  0  0  0  0  0  0  0  0
   -0.9698    1.5222   -0.2049 C   0  0  0  0  0  0  0  0  0  0  0  0
    0.4310    1.3524    0.2130 C   0  0  0  0  0  0  0  0  0  0  0  0
    1.0136    2.3581    0.5208 O   0  0  0  0  0  0  0  0  0  0  0  0
    3.3416    0.1913    0.7682 H   0  0  0  0  0  0  0  0  0  0  0  0
    2.8366    1.3071   -0.5353 H   0  0  0  0  0  0  0  0  0  0  0  0
    2.9478   -0.4340   -0.8831 H   0  0  0  0  0  0  0  0  0  0  0  0
    1.2080   -0.3121    1.3424 H   0  0  0  0  0  0  0  0  0  0  0  0
    1.3742   -1.7455   -0.7174 H   0  0  0  0  0  0  0  0  0  0  0  0
    0.3555   -0.5670   -1.5974 H   0  0  0  0  0  0  0  0  0  0  0  0
   -0.7938   -2.5576   -0.5462 H   0  0  0  0  0  0  0  0  0  0  0  0
   -0.3447   -1.9393    1.0514 H   0  0  0  0  0  0  0  0  0  0  0  0
   -2.6275   -1.3973    0.5511 H   0  0  0  0  0  0  0  0  0  0  0  0
   -2.2546   -0.7378   -1.0494 H   0  0  0  0  0  0  0  0  0  0  0  0
   -1.4407    0.5464    1.6266 H   0  0  0  0  0  0  0  0  0  0  0  0
   -2.8350    0.9457    0.6097 H   0  0  0  0  0  0  0  0  0  0  0  0
   -1.0642    1.3605   -1.3129 H   0  0  0  0  0  0  0  0  0  0  0  0
   -1.3625    2.5434   -0.0256 H   0  0  0  0  0  0  0  0  0  0  0  0
  1  2  1  0
  2  3  1  0
  3  4  1  0
  4  5  1  0
  5  6  1  0
  6  7  1  0
  7  8  1  0
  8  9  2  0
  8  2  1  0
  1 10  1  0
  1 11  1  0
  1 12  1  0
  2 13  1  0
  3 14  1  0
  3 15  1  0
  4 16  1  0
  4 17  1  0
  5 18  1  0
  5 19  1  0
  6 20  1  0
  6 21  1  0
  7 22  1  0
  7 23  1  0
M  END
