
     RDKit          3D

 20 20  0  0  0  0  0  0  0  0999 V2000
   -2.4115   -0.9707   -0.1577 C   0  0  0  0  0  0  0  0  0  0  0  0
   -1.1907   -0.2546    0.2978 C   0  0  0  0  0  0  0  0  0  0  0  0
   -1.1372    1.1846   -0.1797 C   0  0  0  0  0  0  0  0  0  0  0  0
    0.3040    1.4867    0.0373 C   0  0  0  0  0  0  0  0  0  0  0  0
    1.0092    0.3664   -0.0572 C   0  0  0  0  0  0  0  0  0  0  0  0
    2.4834    0.2482    0.0971 C   0  0  0  0  0  0  0  0  0  0  0  0
    2.8230   -0.5985    1.1380 O   0  0  0  0  0  0  0  0  0  0  0  0
    0.0881   -0.7815   -0.3465 C   0  0  0  0  0  0  0  0  0  0  0  0
   -2.9552   -0.3870   -0.9392 H   0  0  0  0  0  0  0  0  0  0  0  0
   -2.2056   -2.0162   -0.5068 H   0  0  0  0  0  0  0  0  0  0  0  0
   -3.1521   -1.0865    0.6857 H   0  0  0  0  0  0  0  0  0  0  0  0
   -1.0981   -0.2752    1.3999 H   0  0  0  0  0  0  0  0  0  0  0  0
   -1.3547    1.2469   -1.2602 H   0  0  0  0  0  0  0  0  0  0  0  0
   -1.8013    1.8428    0.4098 H   0  0  0  0  0  0  0  0  0  0  0  0
    0.6980    2.4702    0.2392 H   0  0  0  0  0  0  0  0  0  0  0  0
    2.9193   -0.1856   -0.8432 H   0  0  0  0  0  0  0  0  0  0  0  0
    2.9171    1.2430    0.3238 H   0  0  0  0  0  0  0  0  0  0  0  0
    3.7115   -1.0080    1.0365 H   0  0  0  0  0  0  0  0  0  0  0  0
   -0.0726   -0.8016   -1.4480 H   0  0  0  0  0  0  0  0  0  0  0  0
    0.4255   -1.7232    0.0732 H   0  0  0  0  0  0  0  0  0  0  0  0
  1  2  1  0
  2  3  1  0
  3  4  1  0
  4  5  2  0
  5  6  1  0
  6  7  1  0
  5  8  1  0
  8  2  1  0
  1  9  1  0
  1 10  1  0
  1 11  1  0
  2 12  1  0
  3 13  1  0
  3 14  1  0
  4 15  1  0
  6 16  1  0
  6 17  1  0
  7 18  1  0
  8 19  1  0
  8 20  1  0
M  END
