
     RDKit          3D

 21 22  0  0  0  0  0  0  0  0999 V2000
    1.9386    0.2069    1.0699 C   0  0  0  0  0  0  0  0  0  0  0  0
    0.4993   -0.0278    0.7392 C   0  0  0  0  0  0  0  0  0  0  0  0
    0.1998   -0.8696   -0.4540 C   0  0  0  0  0  0  0  0  0  0  0  0
    0.4202   -2.0924   -0.6375 O   0  0  0  0  0  0  0  0  0  0  0  0
    0.7011    0.2868   -1.2901 C   0  0  0  0  0  0  0  0  0  0  0  0
   -0.1260    0.9443   -0.2249 C   0  0  0  0  0  0  0  0  0  0  0  0
   -0.3684    2.1589   -0.0545 O   0  0  0  0  0  0  0  0  0  0  0  0
   -1.1241   -0.1550   -0.5305 C   0  0  0  0  0  0  0  0  0  0  0  0
   -2.1118   -0.4420    0.5462 C   0  0  0  0  0  0  0  0  0  0  0  0
    2.5366   -0.7177    0.9648 H   0  0  0  0  0  0  0  0  0  0  0  0
    2.3854    1.0767    0.5513 H   0  0  0  0  0  0  0  0  0  0  0  0
    1.9831    0.4652    2.1659 H   0  0  0  0  0  0  0  0  0  0  0  0
   -0.1022   -0.3281    1.6017 H   0  0  0  0  0  0  0  0  0  0  0  0
   -0.2488   -2.5597   -1.1958 H   0  0  0  0  0  0  0  0  0  0  0  0
    1.7657    0.4703   -1.2971 H   0  0  0  0  0  0  0  0  0  0  0  0
    0.2380    0.4068   -2.2778 H   0  0  0  0  0  0  0  0  0  0  0  0
    0.2456    2.8081   -0.5194 H   0  0  0  0  0  0  0  0  0  0  0  0
   -1.5343   -0.1472   -1.5604 H   0  0  0  0  0  0  0  0  0  0  0  0
   -2.0918   -1.4858    0.9210 H   0  0  0  0  0  0  0  0  0  0  0  0
   -3.1386   -0.2954    0.1033 H   0  0  0  0  0  0  0  0  0  0  0  0
   -2.0675    0.2970    1.3787 H   0  0  0  0  0  0  0  0  0  0  0  0
  1  2  1  0
  2  3  1  0
  3  4  1  0
  3  5  1  0
  5  6  1  0
  6  7  1  0
  6  8  1  0
  8  9  1  0
  6  2  1  0
  8  3  1  0
  1 10  1  0
  1 11  1  0
  1 12  1  0
  2 13  1  0
  4 14  1  0
  5 15  1  0
  5 16  1  0
  7 17  1  0
  8 18  1  0
  9 19  1  0
  9 20  1  0
  9 21  1  0
M  END
