
     RDKit          3D

 23 24  0  0  0  0  0  0  0  0999 V2000
   -1.2729   -1.8564    0.2507 C   0  0  0  0  0  0  0  0  0  0  0  0
   -0.9898   -0.4041    0.1138 C   0  0  0  0  0  0  0  0  0  0  0  0
   -0.1476    0.0015   -1.0839 C   0  0  0  0  0  0  0  0  0  0  0  0
   -0.5252    1.4394   -1.3299 C   0  0  0  0  0  0  0  0  0  0  0  0
   -0.7207    2.1414   -0.1945 C   0  0  0  0  0  0  0  0  0  0  0  0
   -0.1393    1.6504    1.1061 C   0  0  0  0  0  0  0  0  0  0  0  0
    0.1195    0.1650    0.9533 C   0  0  0  0  0  0  0  0  0  0  0  0
    1.0756    0.0355   -0.2388 C   0  0  0  0  0  0  0  0  0  0  0  0
    1.9653   -1.1458   -0.2212 C   0  0  0  0  0  0  0  0  0  0  0  0
   -0.6768   -2.4816   -0.4762 H   0  0  0  0  0  0  0  0  0  0  0  0
   -2.3337   -2.0687   -0.0030 H   0  0  0  0  0  0  0  0  0  0  0  0
   -1.1276   -2.2275    1.2939 H   0  0  0  0  0  0  0  0  0  0  0  0
   -1.9247    0.1805    0.2462 H   0  0  0  0  0  0  0  0  0  0  0  0
   -0.1741   -0.6436   -1.9450 H   0  0  0  0  0  0  0  0  0  0  0  0
   -0.6237    1.8454   -2.3052 H   0  0  0  0  0  0  0  0  0  0  0  0
   -1.2919    3.0646   -0.1813 H   0  0  0  0  0  0  0  0  0  0  0  0
   -0.8723    1.7824    1.9089 H   0  0  0  0  0  0  0  0  0  0  0  0
    0.8093    2.1934    1.3292 H   0  0  0  0  0  0  0  0  0  0  0  0
    0.4069   -0.3768    1.8446 H   0  0  0  0  0  0  0  0  0  0  0  0
    1.6953    0.9643   -0.3945 H   0  0  0  0  0  0  0  0  0  0  0  0
    1.5627   -2.0446    0.2675 H   0  0  0  0  0  0  0  0  0  0  0  0
    2.8904   -0.8732    0.3367 H   0  0  0  0  0  0  0  0  0  0  0  0
    2.2953   -1.3415   -1.2774 H   0  0  0  0  0  0  0  0  0  0  0  0
  1  2  1  0
  2  3  1  0
  3  4  1  0
  4  5  2  0
  5  6  1  0
  6  7  1  0
  7  8  1  0
  8  9  1  0
  7  2  1  0
  8  3  1  0
  1 10  1  0
  1 11  1  0
  1 12  1  0
  2 13  1  0
  3 14  1  0
  4 15  1  0
  5 16  1  0
  6 17  1  0
  6 18  1  0
  7 19  1  0
  8 20  1  0
  9 21  1  0
  9 22  1  0
  9 23  1  0
M  END
