
     RDKit          3D

 20 20  0  0  0  0  0  0  0  0999 V2000
    1.6529   -0.7457   -0.2045 C   0  0  0  0  0  0  0  0  0  0  0  0
    0.5983    0.0030    0.6206 C   0  0  0  0  0  0  0  0  0  0  0  0
    0.8295    1.4645    0.5826 C   0  0  0  0  0  0  0  0  0  0  0  0
   -0.1995    2.2317    0.1264 O   0  0  0  0  0  0  0  0  0  0  0  0
   -1.4347    1.6431    0.1298 C   0  0  0  0  0  0  0  0  0  0  0  0
   -1.3358    0.4703   -0.6534 O   0  0  0  0  0  0  0  0  0  0  0  0
   -0.7512   -0.4600    0.2290 C   0  0  0  0  0  0  0  0  0  0  0  0
   -0.8028   -1.8232   -0.3789 C   0  0  0  0  0  0  0  0  0  0  0  0
    1.5980   -0.3754   -1.2458 H   0  0  0  0  0  0  0  0  0  0  0  0
    1.4832   -1.8283   -0.1341 H   0  0  0  0  0  0  0  0  0  0  0  0
    2.6468   -0.4856    0.2385 H   0  0  0  0  0  0  0  0  0  0  0  0
    0.7825   -0.3425    1.6805 H   0  0  0  0  0  0  0  0  0  0  0  0
    1.1436    1.8847    1.5831 H   0  0  0  0  0  0  0  0  0  0  0  0
    1.7166    1.6779   -0.0808 H   0  0  0  0  0  0  0  0  0  0  0  0
   -2.1890    2.3304   -0.2412 H   0  0  0  0  0  0  0  0  0  0  0  0
   -1.7165    1.3465    1.1816 H   0  0  0  0  0  0  0  0  0  0  0  0
   -1.4111   -0.4515    1.1311 H   0  0  0  0  0  0  0  0  0  0  0  0
   -1.8741   -2.0159   -0.6602 H   0  0  0  0  0  0  0  0  0  0  0  0
   -0.5356   -2.6057    0.3399 H   0  0  0  0  0  0  0  0  0  0  0  0
   -0.2009   -1.9182   -1.2857 H   0  0  0  0  0  0  0  0  0  0  0  0
  1  2  1  0
  2  3  1  0
  3  4  1  0
  4  5  1  0
  5  6  1  0
  6  7  1  0
  7  8  1  0
  7  2  1  0
  1  9  1  0
  1 10  1  0
  1 11  1  0
  2 12  1  0
  3 13  1  0
  3 14  1  0
  5 15  1  0
  5 16  1  0
  7 17  1  0
  8 18  1  0
  8 19  1  0
  8 20  1  0
M  END
