
     RDKit          3D

 21 22  0  0  0  0  0  0  0  0999 V2000
    1.8647   -0.7859   -0.3610 C   0  0  0  0  0  0  0  0  0  0  0  0
    0.6066   -0.1679   -0.9479 C   0  0  0  0  0  0  0  0  0  0  0  0
   -0.6824   -0.7073   -0.4653 C   0  0  0  0  0  0  0  0  0  0  0  0
   -0.6994   -1.9778    0.3022 C   0  0  0  0  0  0  0  0  0  0  0  0
   -0.7487    0.4803    0.4708 C   0  0  0  0  0  0  0  0  0  0  0  0
   -0.6198    0.3350    1.8123 O   0  0  0  0  0  0  0  0  0  0  0  0
   -1.0028    1.7627   -0.2126 C   0  0  0  0  0  0  0  0  0  0  0  0
   -1.1199    2.8437    0.6632 O   0  0  0  0  0  0  0  0  0  0  0  0
    0.3283    1.1461   -0.3044 C   0  0  0  0  0  0  0  0  0  0  0  0
    1.7643   -1.8646   -0.1857 H   0  0  0  0  0  0  0  0  0  0  0  0
    2.1455   -0.2739    0.6048 H   0  0  0  0  0  0  0  0  0  0  0  0
    2.7009   -0.5317   -1.0550 H   0  0  0  0  0  0  0  0  0  0  0  0
    0.6831   -0.0410   -2.0655 H   0  0  0  0  0  0  0  0  0  0  0  0
   -1.4629   -0.6720   -1.2570 H   0  0  0  0  0  0  0  0  0  0  0  0
   -1.6499   -1.9773    0.9154 H   0  0  0  0  0  0  0  0  0  0  0  0
   -0.7770   -2.8827   -0.3365 H   0  0  0  0  0  0  0  0  0  0  0  0
    0.1280   -2.0411    1.0202 H   0  0  0  0  0  0  0  0  0  0  0  0
    0.3025    0.2918    2.1542 H   0  0  0  0  0  0  0  0  0  0  0  0
   -1.7335    1.7187   -1.0650 H   0  0  0  0  0  0  0  0  0  0  0  0
   -1.1954    3.6783    0.1546 H   0  0  0  0  0  0  0  0  0  0  0  0
    1.1677    1.6666    0.1583 H   0  0  0  0  0  0  0  0  0  0  0  0
  1  2  1  0
  2  3  1  0
  3  4  1  0
  3  5  1  0
  5  6  1  0
  5  7  1  0
  7  8  1  0
  7  9  1  0
  9  2  1  0
  9  5  1  0
  1 10  1  0
  1 11  1  0
  1 12  1  0
  2 13  1  0
  3 14  1  0
  4 15  1  0
  4 16  1  0
  4 17  1  0
  6 18  1  0
  7 19  1  0
  8 20  1  0
  9 21  1  0
M  END
