
     RDKit          3D

 23 24  0  0  0  0  0  0  0  0999 V2000
    2.6237    0.2968   -0.3089 C   0  0  0  0  0  0  0  0  0  0  0  0
    1.1281    0.3166   -0.6550 C   0  0  0  0  0  0  0  0  0  0  0  0
    0.5020    1.3609    0.1851 C   0  0  0  0  0  0  0  0  0  0  0  0
   -0.7144    1.5009    0.6920 C   0  0  0  0  0  0  0  0  0  0  0  0
   -1.7881    0.4760    0.6327 C   0  0  0  0  0  0  0  0  0  0  0  0
   -1.7260   -0.1414   -0.7556 C   0  0  0  0  0  0  0  0  0  0  0  0
   -0.8374   -1.1945   -0.2115 C   0  0  0  0  0  0  0  0  0  0  0  0
    0.6029   -1.0471   -0.4531 C   0  0  0  0  0  0  0  0  0  0  0  0
   -1.3044   -0.8581    1.1742 C   0  0  0  0  0  0  0  0  0  0  0  0
    2.8135    0.8556    0.6332 H   0  0  0  0  0  0  0  0  0  0  0  0
    3.1799    0.7967   -1.1096 H   0  0  0  0  0  0  0  0  0  0  0  0
    2.9831   -0.7346   -0.1338 H   0  0  0  0  0  0  0  0  0  0  0  0
    1.0160    0.6030   -1.7296 H   0  0  0  0  0  0  0  0  0  0  0  0
    1.1586    2.1830    0.4462 H   0  0  0  0  0  0  0  0  0  0  0  0
   -1.0087    2.4087    1.2002 H   0  0  0  0  0  0  0  0  0  0  0  0
   -2.7755    0.7965    0.9688 H   0  0  0  0  0  0  0  0  0  0  0  0
   -1.3228    0.5405   -1.5142 H   0  0  0  0  0  0  0  0  0  0  0  0
   -2.7428   -0.4905   -1.0788 H   0  0  0  0  0  0  0  0  0  0  0  0
   -1.2020   -2.2176   -0.5053 H   0  0  0  0  0  0  0  0  0  0  0  0
    1.1668   -1.5572    0.3819 H   0  0  0  0  0  0  0  0  0  0  0  0
    0.8745   -1.6604   -1.3627 H   0  0  0  0  0  0  0  0  0  0  0  0
   -0.5013   -0.7544    1.9233 H   0  0  0  0  0  0  0  0  0  0  0  0
   -2.1258   -1.4794    1.5806 H   0  0  0  0  0  0  0  0  0  0  0  0
  1  2  1  0
  2  3  1  0
  3  4  2  0
  4  5  1  0
  5  6  1  0
  6  7  1  0
  7  8  1  0
  7  9  1  0
  8  2  1  0
  9  5  1  0
  1 10  1  0
  1 11  1  0
  1 12  1  0
  2 13  1  0
  3 14  1  0
  4 15  1  0
  5 16  1  0
  6 17  1  0
  6 18  1  0
  7 19  1  0
  8 20  1  0
  8 21  1  0
  9 22  1  0
  9 23  1  0
M  END
