
     RDKit          3D

 17 18  0  0  0  0  0  0  0  0999 V2000
   -2.4245    0.1134    0.0437 C   0  0  0  0  0  0  0  0  0  0  0  0
   -1.0546    0.5409   -0.4410 C   0  0  0  0  0  0  0  0  0  0  0  0
    0.0085   -0.4743   -0.3117 C   0  0  0  0  0  0  0  0  0  0  0  0
    1.3565   -0.0454   -0.8687 C   0  0  0  0  0  0  0  0  0  0  0  0
    1.4144    0.9404    0.3043 C   0  0  0  0  0  0  0  0  0  0  0  0
    2.1737    0.3260    1.3263 O   0  0  0  0  0  0  0  0  0  0  0  0
   -0.0367    0.8103    0.5755 C   0  0  0  0  0  0  0  0  0  0  0  0
   -2.4921    0.2191    1.1527 H   0  0  0  0  0  0  0  0  0  0  0  0
   -3.2027    0.7398   -0.3918 H   0  0  0  0  0  0  0  0  0  0  0  0
   -2.5786   -0.9557   -0.2445 H   0  0  0  0  0  0  0  0  0  0  0  0
   -1.0611    1.0788   -1.4346 H   0  0  0  0  0  0  0  0  0  0  0  0
   -0.0960   -1.4117    0.2265 H   0  0  0  0  0  0  0  0  0  0  0  0
    2.1369   -0.8009   -0.8781 H   0  0  0  0  0  0  0  0  0  0  0  0
    1.2650    0.5501   -1.8180 H   0  0  0  0  0  0  0  0  0  0  0  0
    1.8226    1.9208    0.0594 H   0  0  0  0  0  0  0  0  0  0  0  0
    3.0940    0.1741    1.0679 H   0  0  0  0  0  0  0  0  0  0  0  0
   -0.3252    0.6599    1.6319 H   0  0  0  0  0  0  0  0  0  0  0  0
  1  2  1  0
  2  3  1  0
  3  4  1  0
  4  5  1  0
  5  6  1  0
  5  7  1  0
  7  2  1  0
  7  3  1  0
  1  8  1  0
  1  9  1  0
  1 10  1  0
  2 11  1  0
  3 12  1  0
  4 13  1  0
  4 14  1  0
  5 15  1  0
  6 16  1  0
  7 17  1  0
M  END
