
     RDKit          3D

 20 21  0  0  0  0  0  0  0  0999 V2000
    2.1215    0.6857    0.5575 C   0  0  0  0  0  0  0  0  0  0  0  0
    0.9611   -0.2821    0.8136 C   0  0  0  0  0  0  0  0  0  0  0  0
    0.5975   -0.8944   -0.4933 C   0  0  0  0  0  0  0  0  0  0  0  0
   -0.7572   -0.4298   -0.9548 C   0  0  0  0  0  0  0  0  0  0  0  0
   -1.0328    1.0149   -0.6037 C   0  0  0  0  0  0  0  0  0  0  0  0
   -1.2206    0.5010    0.8314 C   0  0  0  0  0  0  0  0  0  0  0  0
   -1.7298   -0.7885    0.1810 C   0  0  0  0  0  0  0  0  0  0  0  0
   -0.0401    0.3444    1.4852 O   0  0  0  0  0  0  0  0  0  0  0  0
    1.9566    1.6503    1.0595 H   0  0  0  0  0  0  0  0  0  0  0  0
    3.0808    0.2801    0.9239 H   0  0  0  0  0  0  0  0  0  0  0  0
    2.2619    0.8611   -0.5359 H   0  0  0  0  0  0  0  0  0  0  0  0
    1.3763   -1.0780    1.4992 H   0  0  0  0  0  0  0  0  0  0  0  0
    0.5061   -2.0127   -0.3581 H   0  0  0  0  0  0  0  0  0  0  0  0
    1.3829   -0.7806   -1.2814 H   0  0  0  0  0  0  0  0  0  0  0  0
   -1.0741   -0.7288   -1.9463 H   0  0  0  0  0  0  0  0  0  0  0  0
   -2.0258    1.3008   -1.0046 H   0  0  0  0  0  0  0  0  0  0  0  0
   -0.2166    1.7191   -0.7334 H   0  0  0  0  0  0  0  0  0  0  0  0
   -1.9600    1.0397    1.4202 H   0  0  0  0  0  0  0  0  0  0  0  0
   -2.7645   -0.7034   -0.1467 H   0  0  0  0  0  0  0  0  0  0  0  0
   -1.4230   -1.6986    0.7122 H   0  0  0  0  0  0  0  0  0  0  0  0
  1  2  1  0
  2  3  1  0
  3  4  1  0
  4  5  1  0
  5  6  1  0
  6  7  1  0
  6  8  1  0
  8  2  1  0
  7  4  1  0
  1  9  1  0
  1 10  1  0
  1 11  1  0
  2 12  1  0
  3 13  1  0
  3 14  1  0
  4 15  1  0
  5 16  1  0
  5 17  1  0
  6 18  1  0
  7 19  1  0
  7 20  1  0
M  END
