
     RDKit          3D

 23 24  0  0  0  0  0  0  0  0999 V2000
    2.7491    0.2393    0.0537 C   0  0  0  0  0  0  0  0  0  0  0  0
    1.2936   -0.1274    0.2819 C   0  0  0  0  0  0  0  0  0  0  0  0
    0.4011    1.0517    0.4093 C   0  0  0  0  0  0  0  0  0  0  0  0
   -0.7177    1.1409   -0.5418 C   0  0  0  0  0  0  0  0  0  0  0  0
   -2.1196    1.2603    0.1217 C   0  0  0  0  0  0  0  0  0  0  0  0
   -1.6588    0.0602   -0.6538 C   0  0  0  0  0  0  0  0  0  0  0  0
   -1.3634   -1.2170    0.0531 C   0  0  0  0  0  0  0  0  0  0  0  0
   -0.0311   -1.8188   -0.2909 C   0  0  0  0  0  0  0  0  0  0  0  0
    0.8648   -0.8919   -0.8093 O   0  0  0  0  0  0  0  0  0  0  0  0
    2.7337    1.1871   -0.5424 H   0  0  0  0  0  0  0  0  0  0  0  0
    3.2592   -0.5804   -0.5132 H   0  0  0  0  0  0  0  0  0  0  0  0
    3.2650    0.4248    1.0114 H   0  0  0  0  0  0  0  0  0  0  0  0
    1.2840   -0.7440    1.2204 H   0  0  0  0  0  0  0  0  0  0  0  0
    1.0457    1.9705    0.2787 H   0  0  0  0  0  0  0  0  0  0  0  0
    0.0543    1.1277    1.4815 H   0  0  0  0  0  0  0  0  0  0  0  0
   -0.6029    1.8410   -1.4205 H   0  0  0  0  0  0  0  0  0  0  0  0
   -2.8154    1.9840   -0.2928 H   0  0  0  0  0  0  0  0  0  0  0  0
   -2.1628    1.1507    1.2145 H   0  0  0  0  0  0  0  0  0  0  0  0
   -2.1985   -0.0541   -1.6351 H   0  0  0  0  0  0  0  0  0  0  0  0
   -2.1341   -1.9796   -0.2529 H   0  0  0  0  0  0  0  0  0  0  0  0
   -1.5041   -1.1307    1.1690 H   0  0  0  0  0  0  0  0  0  0  0  0
    0.4506   -2.2197    0.6432 H   0  0  0  0  0  0  0  0  0  0  0  0
   -0.0926   -2.6746   -0.9858 H   0  0  0  0  0  0  0  0  0  0  0  0
  1  2  1  0
  2  3  1  0
  3  4  1  0
  4  5  1  0
  5  6  1  0
  6  7  1  0
  7  8  1  0
  8  9  1  0
  9  2  1  0
  6  4  1  0
  1 10  1  0
  1 11  1  0
  1 12  1  0
  2 13  1  0
  3 14  1  0
  3 15  1  0
  4 16  1  0
  5 17  1  0
  5 18  1  0
  6 19  1  0
  7 20  1  0
  7 21  1  0
  8 22  1  0
  8 23  1  0
M  END
