
     RDKit          3D

 20 21  0  0  0  0  0  0  0  0999 V2000
   -2.2967    0.2140   -0.1268 C   0  0  0  0  0  0  0  0  0  0  0  0
   -0.9062   -0.0625    0.3701 C   0  0  0  0  0  0  0  0  0  0  0  0
   -0.3446   -1.4138    0.0728 C   0  0  0  0  0  0  0  0  0  0  0  0
    0.8590   -0.7558   -0.5738 C   0  0  0  0  0  0  0  0  0  0  0  0
    1.9910   -0.4351    0.3710 C   0  0  0  0  0  0  0  0  0  0  0  0
    2.1983    0.9390    0.2861 O   0  0  0  0  0  0  0  0  0  0  0  0
    0.9655    1.5362    0.1167 C   0  0  0  0  0  0  0  0  0  0  0  0
    0.1034    0.5492   -0.6039 C   0  0  0  0  0  0  0  0  0  0  0  0
   -2.9036    0.5230    0.7569 H   0  0  0  0  0  0  0  0  0  0  0  0
   -2.7874   -0.6294   -0.6061 H   0  0  0  0  0  0  0  0  0  0  0  0
   -2.3081    1.0585   -0.8742 H   0  0  0  0  0  0  0  0  0  0  0  0
   -0.7283    0.2037    1.4320 H   0  0  0  0  0  0  0  0  0  0  0  0
   -0.9408   -2.0488   -0.6016 H   0  0  0  0  0  0  0  0  0  0  0  0
    0.0134   -1.9823    0.9760 H   0  0  0  0  0  0  0  0  0  0  0  0
    1.1472   -1.1793   -1.5404 H   0  0  0  0  0  0  0  0  0  0  0  0
    2.9291   -0.9196    0.0443 H   0  0  0  0  0  0  0  0  0  0  0  0
    1.7192   -0.7511    1.3787 H   0  0  0  0  0  0  0  0  0  0  0  0
    0.5336    1.8101    1.1222 H   0  0  0  0  0  0  0  0  0  0  0  0
    1.0564    2.5061   -0.4284 H   0  0  0  0  0  0  0  0  0  0  0  0
   -0.3002    0.8379   -1.5715 H   0  0  0  0  0  0  0  0  0  0  0  0
  1  2  1  0
  2  3  1  0
  3  4  1  0
  4  5  1  0
  5  6  1  0
  6  7  1  0
  7  8  1  0
  8  2  1  0
  8  4  1  0
  1  9  1  0
  1 10  1  0
  1 11  1  0
  2 12  1  0
  3 13  1  0
  3 14  1  0
  4 15  1  0
  5 16  1  0
  5 17  1  0
  7 18  1  0
  7 19  1  0
  8 20  1  0
M  END
