
     RDKit          3D

 21 21  0  0  0  0  0  0  0  0999 V2000
   -2.1603    0.3761    0.2742 C   0  0  0  0  0  0  0  0  0  0  0  0
   -0.7881   -0.1994    0.3872 C   0  0  0  0  0  0  0  0  0  0  0  0
   -0.6284   -1.4686   -0.3745 C   0  0  0  0  0  0  0  0  0  0  0  0
   -1.4759   -2.3273   -0.5275 O   0  0  0  0  0  0  0  0  0  0  0  0
    0.7643   -1.5194   -0.9307 C   0  0  0  0  0  0  0  0  0  0  0  0
    1.4218   -0.3185   -0.2942 C   0  0  0  0  0  0  0  0  0  0  0  0
    1.6317   -0.6060    1.0515 O   0  0  0  0  0  0  0  0  0  0  0  0
    0.2550    0.6736   -0.3259 C   0  0  0  0  0  0  0  0  0  0  0  0
    0.5751    1.9104    0.4334 C   0  0  0  0  0  0  0  0  0  0  0  0
   -2.8851   -0.3971    0.5784 H   0  0  0  0  0  0  0  0  0  0  0  0
   -2.3043    0.7073   -0.7768 H   0  0  0  0  0  0  0  0  0  0  0  0
   -2.2219    1.2462    0.9530 H   0  0  0  0  0  0  0  0  0  0  0  0
   -0.4309   -0.3199    1.4336 H   0  0  0  0  0  0  0  0  0  0  0  0
    1.2664   -2.4771   -0.6477 H   0  0  0  0  0  0  0  0  0  0  0  0
    0.7565   -1.4252   -2.0484 H   0  0  0  0  0  0  0  0  0  0  0  0
    2.2996    0.0421   -0.8135 H   0  0  0  0  0  0  0  0  0  0  0  0
    2.1132   -1.4392    1.1793 H   0  0  0  0  0  0  0  0  0  0  0  0
   -0.1035    0.8338   -1.3477 H   0  0  0  0  0  0  0  0  0  0  0  0
    1.6005    2.2359    0.1573 H   0  0  0  0  0  0  0  0  0  0  0  0
    0.4338    1.7492    1.5072 H   0  0  0  0  0  0  0  0  0  0  0  0
   -0.1193    2.7230    0.1320 H   0  0  0  0  0  0  0  0  0  0  0  0
  1  2  1  0
  2  3  1  0
  3  4  2  0
  3  5  1  0
  5  6  1  0
  6  7  1  0
  6  8  1  0
  8  9  1  0
  8  2  1  0
  1 10  1  0
  1 11  1  0
  1 12  1  0
  2 13  1  0
  5 14  1  0
  5 15  1  0
  6 16  1  0
  7 17  1  0
  8 18  1  0
  9 19  1  0
  9 20  1  0
  9 21  1  0
M  END
