
     RDKit          3D

 21 23  0  0  0  0  0  0  0  0999 V2000
   -1.7348    1.3627    0.2569 C   0  0  0  0  0  0  0  0  0  0  0  0
   -1.0489    0.1501    0.8903 C   0  0  0  0  0  0  0  0  0  0  0  0
   -1.7023   -1.1298    0.3470 C   0  0  0  0  0  0  0  0  0  0  0  0
   -0.6487   -1.0797   -0.7652 C   0  0  0  0  0  0  0  0  0  0  0  0
    0.1585   -0.2191    0.1043 C   0  0  0  0  0  0  0  0  0  0  0  0
    1.4693   -0.4768    0.6347 C   0  0  0  0  0  0  0  0  0  0  0  0
    2.7905    0.0079    0.0077 C   0  0  0  0  0  0  0  0  0  0  0  0
    2.2022    1.2691    0.2995 O   0  0  0  0  0  0  0  0  0  0  0  0
    1.1237    0.6951   -0.3722 C   0  0  0  0  0  0  0  0  0  0  0  0
   -1.1408    2.2769    0.3659 H   0  0  0  0  0  0  0  0  0  0  0  0
   -1.8241    1.1543   -0.8332 H   0  0  0  0  0  0  0  0  0  0  0  0
   -2.7696    1.4820    0.6347 H   0  0  0  0  0  0  0  0  0  0  0  0
   -0.9846    0.1653    1.9756 H   0  0  0  0  0  0  0  0  0  0  0  0
   -1.5050   -1.9802    1.0371 H   0  0  0  0  0  0  0  0  0  0  0  0
   -2.7297   -0.9845    0.0216 H   0  0  0  0  0  0  0  0  0  0  0  0
   -1.0357   -0.5588   -1.6860 H   0  0  0  0  0  0  0  0  0  0  0  0
   -0.1773   -2.0265   -1.0053 H   0  0  0  0  0  0  0  0  0  0  0  0
    1.5266   -0.1378    1.7201 H   0  0  0  0  0  0  0  0  0  0  0  0
    2.9154   -0.2199   -1.0464 H   0  0  0  0  0  0  0  0  0  0  0  0
    3.6595   -0.2415    0.6110 H   0  0  0  0  0  0  0  0  0  0  0  0
    1.4561    0.4911   -1.4389 H   0  0  0  0  0  0  0  0  0  0  0  0
  1  2  1  0
  2  3  1  0
  3  4  1  0
  4  5  1  0
  5  6  1  0
  6  7  1  0
  7  8  1  0
  8  9  1  0
  5  2  1  0
  9  6  1  0
  9  5  1  0
  1 10  1  0
  1 11  1  0
  1 12  1  0
  2 13  1  0
  3 14  1  0
  3 15  1  0
  4 16  1  0
  4 17  1  0
  6 18  1  0
  7 19  1  0
  7 20  1  0
  9 21  1  0
M  END
