
     RDKit          3D

 21 23  0  0  0  0  0  0  0  0999 V2000
    2.1643   -0.1570   -0.0143 C   0  0  0  0  0  0  0  0  0  0  0  0
    0.9345    0.6126   -0.3711 C   0  0  0  0  0  0  0  0  0  0  0  0
    0.2558    1.2179    0.8703 C   0  0  0  0  0  0  0  0  0  0  0  0
    1.0081    1.0526    2.0031 O   0  0  0  0  0  0  0  0  0  0  0  0
   -1.0240    0.4338    0.8582 C   0  0  0  0  0  0  0  0  0  0  0  0
   -0.6404   -0.9679    0.4809 C   0  0  0  0  0  0  0  0  0  0  0  0
   -1.9815   -1.0426   -0.2019 C   0  0  0  0  0  0  0  0  0  0  0  0
   -1.4611    0.3174   -0.5679 C   0  0  0  0  0  0  0  0  0  0  0  0
   -0.1340   -0.3591   -0.7851 C   0  0  0  0  0  0  0  0  0  0  0  0
    2.3537   -0.2663    1.0541 H   0  0  0  0  0  0  0  0  0  0  0  0
    2.1066   -1.2042   -0.4350 H   0  0  0  0  0  0  0  0  0  0  0  0
    3.0532    0.2914   -0.5292 H   0  0  0  0  0  0  0  0  0  0  0  0
    1.1542    1.3830   -1.1174 H   0  0  0  0  0  0  0  0  0  0  0  0
    0.0447    2.2883    0.6820 H   0  0  0  0  0  0  0  0  0  0  0  0
    0.8812    0.1474    2.4042 H   0  0  0  0  0  0  0  0  0  0  0  0
   -1.7501    0.5915    1.6282 H   0  0  0  0  0  0  0  0  0  0  0  0
   -0.2138   -1.6629    1.0571 H   0  0  0  0  0  0  0  0  0  0  0  0
   -2.0277   -1.7116   -1.0677 H   0  0  0  0  0  0  0  0  0  0  0  0
   -2.8377   -1.0079    0.4748 H   0  0  0  0  0  0  0  0  0  0  0  0
   -1.8938    1.0072   -1.1457 H   0  0  0  0  0  0  0  0  0  0  0  0
    0.0080   -0.9636   -1.6551 H   0  0  0  0  0  0  0  0  0  0  0  0
  1  2  1  0
  2  3  1  0
  3  4  1  0
  3  5  1  0
  5  6  1  0
  6  7  1  0
  7  8  1  0
  8  9  1  0
  9  2  1  0
  8  5  1  0
  9  6  1  0
  1 10  1  0
  1 11  1  0
  1 12  1  0
  2 13  1  0
  3 14  1  0
  4 15  1  0
  5 16  1  0
  6 17  1  0
  7 18  1  0
  7 19  1  0
  8 20  1  0
  9 21  1  0
M  END
