
     RDKit          3D

 21 22  0  0  0  0  0  0  0  0999 V2000
    2.3976    0.1097    0.3242 C   0  0  0  0  0  0  0  0  0  0  0  0
    1.0751    0.1273   -0.4161 C   0  0  0  0  0  0  0  0  0  0  0  0
    0.4855   -1.2536   -0.4460 C   0  0  0  0  0  0  0  0  0  0  0  0
   -0.8071   -1.1564    0.3094 C   0  0  0  0  0  0  0  0  0  0  0  0
   -1.2019    0.2788    0.3762 C   0  0  0  0  0  0  0  0  0  0  0  0
   -1.9959    0.5612    1.4622 O   0  0  0  0  0  0  0  0  0  0  0  0
   -1.6020    0.9563   -0.8748 C   0  0  0  0  0  0  0  0  0  0  0  0
   -0.5310    1.8482   -0.7263 O   0  0  0  0  0  0  0  0  0  0  0  0
    0.0737    1.0315    0.2381 C   0  0  0  0  0  0  0  0  0  0  0  0
    2.1722    0.0074    1.4134 H   0  0  0  0  0  0  0  0  0  0  0  0
    2.9885   -0.7731   -0.0115 H   0  0  0  0  0  0  0  0  0  0  0  0
    2.9824    1.0279    0.1039 H   0  0  0  0  0  0  0  0  0  0  0  0
    1.3136    0.4621   -1.4576 H   0  0  0  0  0  0  0  0  0  0  0  0
    0.3049   -1.6082   -1.4846 H   0  0  0  0  0  0  0  0  0  0  0  0
    1.2067   -1.9758    0.0073 H   0  0  0  0  0  0  0  0  0  0  0  0
   -1.5838   -1.8355   -0.0581 H   0  0  0  0  0  0  0  0  0  0  0  0
   -0.5796   -1.4843    1.3639 H   0  0  0  0  0  0  0  0  0  0  0  0
   -2.9158    0.2313    1.2756 H   0  0  0  0  0  0  0  0  0  0  0  0
   -2.5578    1.5312   -0.7491 H   0  0  0  0  0  0  0  0  0  0  0  0
   -1.6112    0.3816   -1.8096 H   0  0  0  0  0  0  0  0  0  0  0  0
    0.3859    1.5324    1.1593 H   0  0  0  0  0  0  0  0  0  0  0  0
  1  2  1  0
  2  3  1  0
  3  4  1  0
  4  5  1  0
  5  6  1  0
  5  7  1  0
  7  8  1  0
  8  9  1  0
  9  2  1  0
  9  5  1  0
  1 10  1  0
  1 11  1  0
  1 12  1  0
  2 13  1  0
  3 14  1  0
  3 15  1  0
  4 16  1  0
  4 17  1  0
  6 18  1  0
  7 19  1  0
  7 20  1  0
  9 21  1  0
M  END
