
     RDKit          3D

 23 23  0  0  0  0  0  0  0  0999 V2000
   -1.4677   -1.2953    0.7847 C   0  0  0  0  0  0  0  0  0  0  0  0
   -1.0475   -1.0154   -0.6158 C   0  0  0  0  0  0  0  0  0  0  0  0
   -1.6032    0.2967   -1.0383 C   0  0  0  0  0  0  0  0  0  0  0  0
   -1.0013    1.3870   -0.5792 C   0  0  0  0  0  0  0  0  0  0  0  0
    0.1605    1.2621    0.3057 C   0  0  0  0  0  0  0  0  0  0  0  0
    0.8219    2.5058    0.3001 O   0  0  0  0  0  0  0  0  0  0  0  0
    1.1009    0.2478   -0.2655 C   0  0  0  0  0  0  0  0  0  0  0  0
    2.1447   -0.1999    0.7615 C   0  0  0  0  0  0  0  0  0  0  0  0
    0.4479   -0.9742   -0.8098 C   0  0  0  0  0  0  0  0  0  0  0  0
   -0.6380   -1.2646    1.5254 H   0  0  0  0  0  0  0  0  0  0  0  0
   -2.2082   -0.5364    1.1029 H   0  0  0  0  0  0  0  0  0  0  0  0
   -1.9700   -2.2877    0.8960 H   0  0  0  0  0  0  0  0  0  0  0  0
   -1.4714   -1.8395   -1.2582 H   0  0  0  0  0  0  0  0  0  0  0  0
   -2.4611    0.3006   -1.6917 H   0  0  0  0  0  0  0  0  0  0  0  0
   -1.4135    2.3439   -0.8925 H   0  0  0  0  0  0  0  0  0  0  0  0
   -0.0806    1.0609    1.3624 H   0  0  0  0  0  0  0  0  0  0  0  0
    0.1631    3.1690    0.6390 H   0  0  0  0  0  0  0  0  0  0  0  0
    1.7057    0.7838   -1.0554 H   0  0  0  0  0  0  0  0  0  0  0  0
    2.8104    0.6411    1.0102 H   0  0  0  0  0  0  0  0  0  0  0  0
    1.6907   -0.6968    1.6170 H   0  0  0  0  0  0  0  0  0  0  0  0
    2.7657   -0.9667    0.2258 H   0  0  0  0  0  0  0  0  0  0  0  0
    0.9226   -1.9206   -0.4194 H   0  0  0  0  0  0  0  0  0  0  0  0
    0.6284   -1.0016   -1.9048 H   0  0  0  0  0  0  0  0  0  0  0  0
  1  2  1  0
  2  3  1  0
  3  4  2  0
  4  5  1  0
  5  6  1  0
  5  7  1  0
  7  8  1  0
  7  9  1  0
  9  2  1  0
  1 10  1  0
  1 11  1  0
  1 12  1  0
  2 13  1  0
  3 14  1  0
  4 15  1  0
  5 16  1  0
  6 17  1  0
  7 18  1  0
  8 19  1  0
  8 20  1  0
  8 21  1  0
  9 22  1  0
  9 23  1  0
M  END
