
     RDKit          3D

 19 20  0  0  0  0  0  0  0  0999 V2000
    1.7131    0.9118    0.2623 C   0  0  0  0  0  0  0  0  0  0  0  0
    0.9539   -0.3487    0.1984 C   0  0  0  0  0  0  0  0  0  0  0  0
   -0.3184   -0.4529    0.9932 C   0  0  0  0  0  0  0  0  0  0  0  0
   -1.1630    0.6884    0.5361 C   0  0  0  0  0  0  0  0  0  0  0  0
   -0.9310    0.5878   -0.9853 C   0  0  0  0  0  0  0  0  0  0  0  0
    0.0458   -0.5552   -0.9898 C   0  0  0  0  0  0  0  0  0  0  0  0
   -0.6738   -1.5311   -0.0449 C   0  0  0  0  0  0  0  0  0  0  0  0
    1.1524    1.8204    0.4674 H   0  0  0  0  0  0  0  0  0  0  0  0
    2.5073    0.8125    1.0313 H   0  0  0  0  0  0  0  0  0  0  0  0
    2.2734    1.0311   -0.7114 H   0  0  0  0  0  0  0  0  0  0  0  0
    1.5874   -1.2329    0.3712 H   0  0  0  0  0  0  0  0  0  0  0  0
   -0.2902   -0.7491    2.0117 H   0  0  0  0  0  0  0  0  0  0  0  0
   -0.8409    1.6760    0.8756 H   0  0  0  0  0  0  0  0  0  0  0  0
   -2.2311    0.5815    0.7842 H   0  0  0  0  0  0  0  0  0  0  0  0
   -1.8846    0.2446   -1.4174 H   0  0  0  0  0  0  0  0  0  0  0  0
   -0.5448    1.5164   -1.3919 H   0  0  0  0  0  0  0  0  0  0  0  0
    0.4302   -0.9377   -1.8936 H   0  0  0  0  0  0  0  0  0  0  0  0
   -0.0591   -2.4131    0.1514 H   0  0  0  0  0  0  0  0  0  0  0  0
   -1.7266   -1.6497   -0.2485 H   0  0  0  0  0  0  0  0  0  0  0  0
  1  2  1  0
  2  3  1  0
  3  4  1  0
  4  5  1  0
  5  6  1  0
  6  7  1  0
  6  2  1  0
  7  3  1  0
  1  8  1  0
  1  9  1  0
  1 10  1  0
  2 11  1  0
  3 12  1  0
  4 13  1  0
  4 14  1  0
  5 15  1  0
  5 16  1  0
  6 17  1  0
  7 18  1  0
  7 19  1  0
M  END
