
     RDKit          3D

 21 22  0  0  0  0  0  0  0  0999 V2000
    2.3142    0.3940    0.0817 C   0  0  0  0  0  0  0  0  0  0  0  0
    0.8630    0.1317   -0.0750 C   0  0  0  0  0  0  0  0  0  0  0  0
   -0.0228    0.8916    0.8603 C   0  0  0  0  0  0  0  0  0  0  0  0
   -1.4671    0.5247    0.5038 C   0  0  0  0  0  0  0  0  0  0  0  0
   -1.6671    0.6103   -0.9890 C   0  0  0  0  0  0  0  0  0  0  0  0
   -1.1975   -0.6018   -1.4281 O   0  0  0  0  0  0  0  0  0  0  0  0
   -0.9645   -1.4082   -0.3298 C   0  0  0  0  0  0  0  0  0  0  0  0
    0.5061   -1.3504    0.1109 C   0  0  0  0  0  0  0  0  0  0  0  0
   -1.6956   -0.8445    0.7299 O   0  0  0  0  0  0  0  0  0  0  0  0
    2.8943   -0.5657    0.0215 H   0  0  0  0  0  0  0  0  0  0  0  0
    2.7061    1.0016   -0.7839 H   0  0  0  0  0  0  0  0  0  0  0  0
    2.5755    0.9804    0.9898 H   0  0  0  0  0  0  0  0  0  0  0  0
    0.5733    0.3582   -1.1340 H   0  0  0  0  0  0  0  0  0  0  0  0
    0.1190    0.4877    1.9025 H   0  0  0  0  0  0  0  0  0  0  0  0
    0.0771    1.9729    0.8116 H   0  0  0  0  0  0  0  0  0  0  0  0
   -2.1931    1.1337    1.0730 H   0  0  0  0  0  0  0  0  0  0  0  0
   -1.1121    1.4859   -1.3559 H   0  0  0  0  0  0  0  0  0  0  0  0
   -2.7368    0.7862   -1.2484 H   0  0  0  0  0  0  0  0  0  0  0  0
   -1.2632   -2.4503   -0.4546 H   0  0  0  0  0  0  0  0  0  0  0  0
    0.5476   -1.5400    1.2022 H   0  0  0  0  0  0  0  0  0  0  0  0
    1.1434   -1.9979   -0.4884 H   0  0  0  0  0  0  0  0  0  0  0  0
  1  2  1  0
  2  3  1  0
  3  4  1  0
  4  5  1  0
  5  6  1  0
  6  7  1  0
  7  8  1  0
  7  9  1  0
  8  2  1  0
  9  4  1  0
  1 10  1  0
  1 11  1  0
  1 12  1  0
  2 13  1  0
  3 14  1  0
  3 15  1  0
  4 16  1  0
  5 17  1  0
  5 18  1  0
  7 19  1  0
  8 20  1  0
  8 21  1  0
M  END
