
     RDKit          3D

 21 22  0  0  0  0  0  0  0  0999 V2000
    2.4982    0.2568    0.0263 C   0  0  0  0  0  0  0  0  0  0  0  0
    0.9917    0.3041   -0.1782 C   0  0  0  0  0  0  0  0  0  0  0  0
    0.4847   -0.9501   -0.8070 C   0  0  0  0  0  0  0  0  0  0  0  0
   -0.6625   -1.5297   -0.4764 C   0  0  0  0  0  0  0  0  0  0  0  0
   -1.5705   -0.9492    0.5919 C   0  0  0  0  0  0  0  0  0  0  0  0
   -1.1629    0.4744    0.7070 C   0  0  0  0  0  0  0  0  0  0  0  0
   -1.4575    1.2744   -0.5513 C   0  0  0  0  0  0  0  0  0  0  0  0
   -0.5760    1.1541    1.6690 O   0  0  0  0  0  0  0  0  0  0  0  0
    0.3218    0.3574    1.1391 C   0  0  0  0  0  0  0  0  0  0  0  0
    2.9595   -0.3198   -0.7861 H   0  0  0  0  0  0  0  0  0  0  0  0
    2.9022    1.3108    0.0180 H   0  0  0  0  0  0  0  0  0  0  0  0
    2.7287   -0.1273    1.0414 H   0  0  0  0  0  0  0  0  0  0  0  0
    0.7992    1.1827   -0.8281 H   0  0  0  0  0  0  0  0  0  0  0  0
    1.0845   -1.4104   -1.5724 H   0  0  0  0  0  0  0  0  0  0  0  0
   -0.9947   -2.4397   -0.9567 H   0  0  0  0  0  0  0  0  0  0  0  0
   -2.6065   -0.9955    0.1807 H   0  0  0  0  0  0  0  0  0  0  0  0
   -1.5341   -1.5323    1.5130 H   0  0  0  0  0  0  0  0  0  0  0  0
   -0.9282    2.2488   -0.5567 H   0  0  0  0  0  0  0  0  0  0  0  0
   -1.3241    0.6908   -1.4665 H   0  0  0  0  0  0  0  0  0  0  0  0
   -2.5534    1.5242   -0.4913 H   0  0  0  0  0  0  0  0  0  0  0  0
    0.5998   -0.5247    1.7844 H   0  0  0  0  0  0  0  0  0  0  0  0
  1  2  1  0
  2  3  1  0
  3  4  2  0
  4  5  1  0
  5  6  1  0
  6  7  1  0
  6  8  1  0
  8  9  1  0
  9  2  1  0
  9  6  1  0
  1 10  1  0
  1 11  1  0
  1 12  1  0
  2 13  1  0
  3 14  1  0
  4 15  1  0
  5 16  1  0
  5 17  1  0
  7 18  1  0
  7 19  1  0
  7 20  1  0
  9 21  1  0
M  END
