
     RDKit          3D

 25 25  0  0  0  0  0  0  0  0999 V2000
    2.2210    0.6245   -0.5190 C   0  0  0  0  0  0  0  0  0  0  0  0
    0.8621    0.1070   -0.8031 C   0  0  0  0  0  0  0  0  0  0  0  0
   -0.2851    1.0520   -0.3976 C   0  0  0  0  0  0  0  0  0  0  0  0
    0.0363    1.8634    0.8138 C   0  0  0  0  0  0  0  0  0  0  0  0
   -1.0498   -0.2180   -0.1788 C   0  0  0  0  0  0  0  0  0  0  0  0
   -2.1423   -0.1929    0.8290 C   0  0  0  0  0  0  0  0  0  0  0  0
   -1.4628   -0.7799   -1.3742 O   0  0  0  0  0  0  0  0  0  0  0  0
    0.2681   -0.8100    0.2738 C   0  0  0  0  0  0  0  0  0  0  0  0
    0.4341   -2.2713    0.0162 C   0  0  0  0  0  0  0  0  0  0  0  0
    2.3244    1.7041   -0.7719 H   0  0  0  0  0  0  0  0  0  0  0  0
    2.9364    0.1011   -1.2182 H   0  0  0  0  0  0  0  0  0  0  0  0
    2.5995    0.3997    0.4964 H   0  0  0  0  0  0  0  0  0  0  0  0
    0.6722   -0.2474   -1.8254 H   0  0  0  0  0  0  0  0  0  0  0  0
   -0.6721    1.6465   -1.2598 H   0  0  0  0  0  0  0  0  0  0  0  0
   -0.5923    1.6878    1.6807 H   0  0  0  0  0  0  0  0  0  0  0  0
    1.0937    1.6380    1.1314 H   0  0  0  0  0  0  0  0  0  0  0  0
    0.0228    2.9619    0.5971 H   0  0  0  0  0  0  0  0  0  0  0  0
   -1.8303    0.0750    1.8492 H   0  0  0  0  0  0  0  0  0  0  0  0
   -2.5582   -1.2253    0.8905 H   0  0  0  0  0  0  0  0  0  0  0  0
   -2.9497    0.4500    0.4555 H   0  0  0  0  0  0  0  0  0  0  0  0
   -1.9488   -0.1485   -1.9567 H   0  0  0  0  0  0  0  0  0  0  0  0
    0.6280   -0.4898    1.2513 H   0  0  0  0  0  0  0  0  0  0  0  0
    1.4060   -2.5863    0.4276 H   0  0  0  0  0  0  0  0  0  0  0  0
   -0.3404   -2.7992    0.6403 H   0  0  0  0  0  0  0  0  0  0  0  0
    0.3270   -2.5425   -1.0482 H   0  0  0  0  0  0  0  0  0  0  0  0
  1  2  1  0
  2  3  1  0
  3  4  1  0
  3  5  1  0
  5  6  1  0
  5  7  1  0
  5  8  1  0
  8  9  1  0
  8  2  1  0
  1 10  1  0
  1 11  1  0
  1 12  1  0
  2 13  1  0
  3 14  1  0
  4 15  1  0
  4 16  1  0
  4 17  1  0
  6 18  1  0
  6 19  1  0
  6 20  1  0
  7 21  1  0
  8 22  1  0
  9 23  1  0
  9 24  1  0
  9 25  1  0
M  END
