
     RDKit          3D

 20 21  0  0  0  0  0  0  0  0999 V2000
   -0.5625   -2.1156    0.5285 C   0  0  0  0  0  0  0  0  0  0  0  0
   -0.2999   -0.8349   -0.1703 C   0  0  0  0  0  0  0  0  0  0  0  0
    0.8905   -0.0306    0.3175 C   0  0  0  0  0  0  0  0  0  0  0  0
    2.1259   -0.1299   -0.5044 C   0  0  0  0  0  0  0  0  0  0  0  0
    0.1391    1.2427    0.3153 C   0  0  0  0  0  0  0  0  0  0  0  0
   -1.0060    1.5440   -0.5463 C   0  0  0  0  0  0  0  0  0  0  0  0
   -1.7968    2.6329   -0.2233 O   0  0  0  0  0  0  0  0  0  0  0  0
   -1.1379    0.3576    0.3026 C   0  0  0  0  0  0  0  0  0  0  0  0
   -1.2977   -1.9657    1.3207 H   0  0  0  0  0  0  0  0  0  0  0  0
    0.3898   -2.5156    0.9136 H   0  0  0  0  0  0  0  0  0  0  0  0
   -1.0209   -2.8497   -0.1899 H   0  0  0  0  0  0  0  0  0  0  0  0
   -0.3264   -0.9041   -1.2774 H   0  0  0  0  0  0  0  0  0  0  0  0
    1.1142   -0.3630    1.3744 H   0  0  0  0  0  0  0  0  0  0  0  0
    3.0016    0.1511    0.1507 H   0  0  0  0  0  0  0  0  0  0  0  0
    2.2969   -1.2275   -0.7116 H   0  0  0  0  0  0  0  0  0  0  0  0
    2.1204    0.4134   -1.4456 H   0  0  0  0  0  0  0  0  0  0  0  0
    0.2683    1.8946    1.2168 H   0  0  0  0  0  0  0  0  0  0  0  0
   -0.9898    1.3430   -1.6542 H   0  0  0  0  0  0  0  0  0  0  0  0
   -2.2574    3.0437   -0.9720 H   0  0  0  0  0  0  0  0  0  0  0  0
   -1.6512    0.3136    1.2548 H   0  0  0  0  0  0  0  0  0  0  0  0
  1  2  1  0
  2  3  1  0
  3  4  1  0
  3  5  1  0
  5  6  1  0
  6  7  1  0
  6  8  1  0
  8  2  1  0
  8  5  1  0
  1  9  1  0
  1 10  1  0
  1 11  1  0
  2 12  1  0
  3 13  1  0
  4 14  1  0
  4 15  1  0
  4 16  1  0
  5 17  1  0
  6 18  1  0
  7 19  1  0
  8 20  1  0
M  END
