
     RDKit          3D

 22 23  0  0  0  0  0  0  0  0999 V2000
   -1.2378    1.9545   -0.3603 C   0  0  0  0  0  0  0  0  0  0  0  0
   -0.6696    0.8250    0.5091 C   0  0  0  0  0  0  0  0  0  0  0  0
    0.6660    0.2939    0.2455 C   0  0  0  0  0  0  0  0  0  0  0  0
    1.6143   -0.1873    1.2667 C   0  0  0  0  0  0  0  0  0  0  0  0
    1.0798    0.3272   -1.2325 C   0  0  0  0  0  0  0  0  0  0  0  0
    0.0379   -0.7455   -1.4467 C   0  0  0  0  0  0  0  0  0  0  0  0
   -0.5483   -0.5118   -0.0990 C   0  0  0  0  0  0  0  0  0  0  0  0
   -0.9725   -1.6791    0.7201 C   0  0  0  0  0  0  0  0  0  0  0  0
   -1.5130    1.5540   -1.3542 H   0  0  0  0  0  0  0  0  0  0  0  0
   -0.4279    2.7143   -0.4263 H   0  0  0  0  0  0  0  0  0  0  0  0
   -2.0916    2.4492    0.1312 H   0  0  0  0  0  0  0  0  0  0  0  0
   -1.0068    0.8810    1.5404 H   0  0  0  0  0  0  0  0  0  0  0  0
    2.0992    0.6847    1.7810 H   0  0  0  0  0  0  0  0  0  0  0  0
    1.2231   -0.8828    2.0066 H   0  0  0  0  0  0  0  0  0  0  0  0
    2.4495   -0.7321    0.7353 H   0  0  0  0  0  0  0  0  0  0  0  0
    0.7632    1.2797   -1.6852 H   0  0  0  0  0  0  0  0  0  0  0  0
    2.1213    0.0317   -1.3283 H   0  0  0  0  0  0  0  0  0  0  0  0
    0.5558   -1.7364   -1.5078 H   0  0  0  0  0  0  0  0  0  0  0  0
   -0.6654   -0.5979   -2.2594 H   0  0  0  0  0  0  0  0  0  0  0  0
   -1.7804   -1.3591    1.4390 H   0  0  0  0  0  0  0  0  0  0  0  0
   -0.1938   -2.1678    1.2976 H   0  0  0  0  0  0  0  0  0  0  0  0
   -1.5027   -2.3955    0.0274 H   0  0  0  0  0  0  0  0  0  0  0  0
  1  2  1  0
  2  3  1  0
  3  4  1  0
  3  5  1  0
  5  6  1  0
  6  7  1  0
  7  8  1  0
  7  2  1  0
  7  3  1  0
  1  9  1  0
  1 10  1  0
  1 11  1  0
  2 12  1  0
  4 13  1  0
  4 14  1  0
  4 15  1  0
  5 16  1  0
  5 17  1  0
  6 18  1  0
  6 19  1  0
  8 20  1  0
  8 21  1  0
  8 22  1  0
M  END
