
     RDKit          3D

 21 22  0  0  0  0  0  0  0  0999 V2000
   -2.4107   -0.1781   -0.1384 C   0  0  0  0  0  0  0  0  0  0  0  0
   -0.9582   -0.3229   -0.5406 C   0  0  0  0  0  0  0  0  0  0  0  0
   -0.3536   -1.5294    0.1385 C   0  0  0  0  0  0  0  0  0  0  0  0
    0.6095   -0.6366    0.9010 C   0  0  0  0  0  0  0  0  0  0  0  0
    1.8984   -0.7982    0.5023 O   0  0  0  0  0  0  0  0  0  0  0  0
    2.2543    0.1726   -0.3848 C   0  0  0  0  0  0  0  0  0  0  0  0
    1.1348    1.1327   -0.5582 C   0  0  0  0  0  0  0  0  0  0  0  0
    0.0100    0.5406    0.2152 C   0  0  0  0  0  0  0  0  0  0  0  0
   -0.6425    1.4375    1.0686 O   0  0  0  0  0  0  0  0  0  0  0  0
   -2.6272    0.8175    0.3145 H   0  0  0  0  0  0  0  0  0  0  0  0
   -3.0648   -0.3497   -1.0288 H   0  0  0  0  0  0  0  0  0  0  0  0
   -2.7203   -0.9514    0.6068 H   0  0  0  0  0  0  0  0  0  0  0  0
   -0.7856   -0.3977   -1.6402 H   0  0  0  0  0  0  0  0  0  0  0  0
    0.1740   -2.2395   -0.5142 H   0  0  0  0  0  0  0  0  0  0  0  0
   -1.0278   -2.0653    0.8426 H   0  0  0  0  0  0  0  0  0  0  0  0
    0.4253   -0.6027    2.0058 H   0  0  0  0  0  0  0  0  0  0  0  0
    3.1896    0.6646    0.0102 H   0  0  0  0  0  0  0  0  0  0  0  0
    2.5687   -0.2564   -1.3723 H   0  0  0  0  0  0  0  0  0  0  0  0
    0.8992    1.2961   -1.6430 H   0  0  0  0  0  0  0  0  0  0  0  0
    1.4260    2.0977   -0.0620 H   0  0  0  0  0  0  0  0  0  0  0  0
    0.0008    2.1688    1.2510 H   0  0  0  0  0  0  0  0  0  0  0  0
  1  2  1  0
  2  3  1  0
  3  4  1  0
  4  5  1  0
  5  6  1  0
  6  7  1  0
  7  8  1  0
  8  9  1  0
  8  2  1  0
  8  4  1  0
  1 10  1  0
  1 11  1  0
  1 12  1  0
  2 13  1  0
  3 14  1  0
  3 15  1  0
  4 16  1  0
  6 17  1  0
  6 18  1  0
  7 19  1  0
  7 20  1  0
  9 21  1  0
M  END
