
     RDKit          3D

 19 21  0  0  0  0  0  0  0  0999 V2000
    1.8728   -0.6055   -0.0505 C   0  0  0  0  0  0  0  0  0  0  0  0
    0.8652    0.4710   -0.0268 C   0  0  0  0  0  0  0  0  0  0  0  0
   -0.2401    0.2447    1.0170 C   0  0  0  0  0  0  0  0  0  0  0  0
   -1.2020    1.3215    0.5220 C   0  0  0  0  0  0  0  0  0  0  0  0
   -0.9852    1.4456   -0.8459 O   0  0  0  0  0  0  0  0  0  0  0  0
   -0.1085    0.4180   -1.2145 C   0  0  0  0  0  0  0  0  0  0  0  0
   -0.8100   -0.8799   -0.9480 C   0  0  0  0  0  0  0  0  0  0  0  0
   -0.1580   -1.8928   -0.2971 O   0  0  0  0  0  0  0  0  0  0  0  0
   -0.7904   -1.0649    0.5801 C   0  0  0  0  0  0  0  0  0  0  0  0
    1.7988   -1.2998    0.8339 H   0  0  0  0  0  0  0  0  0  0  0  0
    1.9447   -1.1618   -1.0076 H   0  0  0  0  0  0  0  0  0  0  0  0
    2.8901   -0.1284    0.0764 H   0  0  0  0  0  0  0  0  0  0  0  0
    1.2367    1.4882    0.0728 H   0  0  0  0  0  0  0  0  0  0  0  0
    0.0805    0.3509    2.0267 H   0  0  0  0  0  0  0  0  0  0  0  0
   -0.9961    2.2655    1.0399 H   0  0  0  0  0  0  0  0  0  0  0  0
   -2.2219    0.9250    0.7120 H   0  0  0  0  0  0  0  0  0  0  0  0
    0.3532    0.5391   -2.1637 H   0  0  0  0  0  0  0  0  0  0  0  0
   -1.8111   -1.0141   -1.3897 H   0  0  0  0  0  0  0  0  0  0  0  0
   -1.7187   -1.4223    1.0630 H   0  0  0  0  0  0  0  0  0  0  0  0
  1  2  1  0
  2  3  1  0
  3  4  1  0
  4  5  1  0
  5  6  1  0
  6  7  1  0
  7  8  1  0
  8  9  1  0
  6  2  1  0
  9  7  1  0
  9  3  1  0
  1 10  1  0
  1 11  1  0
  1 12  1  0
  2 13  1  0
  3 14  1  0
  4 15  1  0
  4 16  1  0
  6 17  1  0
  7 18  1  0
  9 19  1  0
M  END
