
     RDKit          3D

 18 18  0  0  0  0  0  0  0  0999 V2000
    1.9742    0.7878   -0.2261 C   0  0  0  0  0  0  0  0  0  0  0  0
    0.9501   -0.2971    0.0014 C   0  0  0  0  0  0  0  0  0  0  0  0
   -0.0764   -0.3554   -1.1113 C   0  0  0  0  0  0  0  0  0  0  0  0
   -1.4330   -0.2387   -0.4516 C   0  0  0  0  0  0  0  0  0  0  0  0
   -1.7351    1.1132   -0.3652 O   0  0  0  0  0  0  0  0  0  0  0  0
   -1.1620   -0.7294    0.9408 C   0  0  0  0  0  0  0  0  0  0  0  0
    0.1378   -0.0892    1.2090 C   0  0  0  0  0  0  0  0  0  0  0  0
    0.4606    0.4819    2.2080 O   0  0  0  0  0  0  0  0  0  0  0  0
    1.5108    1.7768   -0.2211 H   0  0  0  0  0  0  0  0  0  0  0  0
    2.7167    0.7119    0.5816 H   0  0  0  0  0  0  0  0  0  0  0  0
    2.4074    0.6128   -1.2325 H   0  0  0  0  0  0  0  0  0  0  0  0
    1.4644   -1.2784    0.1118 H   0  0  0  0  0  0  0  0  0  0  0  0
    0.0158   -1.2801   -1.7189 H   0  0  0  0  0  0  0  0  0  0  0  0
    0.0909    0.5143   -1.8133 H   0  0  0  0  0  0  0  0  0  0  0  0
   -2.2128   -0.8139   -0.9800 H   0  0  0  0  0  0  0  0  0  0  0  0
   -2.1802    1.3668    0.4578 H   0  0  0  0  0  0  0  0  0  0  0  0
   -1.9481   -0.4448    1.6656 H   0  0  0  0  0  0  0  0  0  0  0  0
   -0.9811   -1.8384    0.9440 H   0  0  0  0  0  0  0  0  0  0  0  0
  1  2  1  0
  2  3  1  0
  3  4  1  0
  4  5  1  0
  4  6  1  0
  6  7  1  0
  7  8  2  0
  7  2  1  0
  1  9  1  0
  1 10  1  0
  1 11  1  0
  2 12  1  0
  3 13  1  0
  3 14  1  0
  4 15  1  0
  5 16  1  0
  6 17  1  0
  6 18  1  0
M  END
