
     RDKit          3D

 23 23  0  0  0  0  0  0  0  0999 V2000
    2.5147   -0.0993    0.2602 C   0  0  0  0  0  0  0  0  0  0  0  0
    1.0092    0.2121    0.2605 C   0  0  0  0  0  0  0  0  0  0  0  0
    0.2896   -1.0203   -0.2287 C   0  0  0  0  0  0  0  0  0  0  0  0
   -0.9668   -1.3072    0.5431 C   0  0  0  0  0  0  0  0  0  0  0  0
   -2.2123   -0.7975   -0.1588 C   0  0  0  0  0  0  0  0  0  0  0  0
   -1.9945    0.3611   -0.8698 O   0  0  0  0  0  0  0  0  0  0  0  0
   -1.4028    1.3515   -0.0539 C   0  0  0  0  0  0  0  0  0  0  0  0
   -0.3877    1.9122   -0.7515 O   0  0  0  0  0  0  0  0  0  0  0  0
    0.8408    1.3792   -0.6551 C   0  0  0  0  0  0  0  0  0  0  0  0
    3.0972    0.8380    0.0412 H   0  0  0  0  0  0  0  0  0  0  0  0
    2.7121   -0.7733   -0.6000 H   0  0  0  0  0  0  0  0  0  0  0  0
    2.8458   -0.4866    1.2245 H   0  0  0  0  0  0  0  0  0  0  0  0
    0.7560    0.4273    1.3099 H   0  0  0  0  0  0  0  0  0  0  0  0
    0.0885   -0.9577   -1.3148 H   0  0  0  0  0  0  0  0  0  0  0  0
    0.9620   -1.9184   -0.1066 H   0  0  0  0  0  0  0  0  0  0  0  0
   -0.8977   -0.9419    1.5931 H   0  0  0  0  0  0  0  0  0  0  0  0
   -1.1096   -2.4225    0.6263 H   0  0  0  0  0  0  0  0  0  0  0  0
   -2.9790   -0.5858    0.6296 H   0  0  0  0  0  0  0  0  0  0  0  0
   -2.6265   -1.5480   -0.8499 H   0  0  0  0  0  0  0  0  0  0  0  0
   -2.1886    2.1501    0.1043 H   0  0  0  0  0  0  0  0  0  0  0  0
   -1.1750    0.9725    0.9424 H   0  0  0  0  0  0  0  0  0  0  0  0
    1.2721    1.0756   -1.6520 H   0  0  0  0  0  0  0  0  0  0  0  0
    1.5527    2.1786   -0.2940 H   0  0  0  0  0  0  0  0  0  0  0  0
  1  2  1  0
  2  3  1  0
  3  4  1  0
  4  5  1  0
  5  6  1  0
  6  7  1  0
  7  8  1  0
  8  9  1  0
  9  2  1  0
  1 10  1  0
  1 11  1  0
  1 12  1  0
  2 13  1  0
  3 14  1  0
  3 15  1  0
  4 16  1  0
  4 17  1  0
  5 18  1  0
  5 19  1  0
  7 20  1  0
  7 21  1  0
  9 22  1  0
  9 23  1  0
M  END
