
     RDKit          3D

 21 22  0  0  0  0  0  0  0  0999 V2000
   -2.2319    0.5867    0.1282 C   0  0  0  0  0  0  0  0  0  0  0  0
   -1.2281   -0.3749   -0.4052 C   0  0  0  0  0  0  0  0  0  0  0  0
   -0.9404   -1.5223    0.5262 C   0  0  0  0  0  0  0  0  0  0  0  0
    0.2364   -2.0235    0.0616 O   0  0  0  0  0  0  0  0  0  0  0  0
    0.9855   -1.0412   -0.5059 C   0  0  0  0  0  0  0  0  0  0  0  0
    1.2194    0.1942    0.3083 C   0  0  0  0  0  0  0  0  0  0  0  0
    2.4662    0.9430   -0.0962 C   0  0  0  0  0  0  0  0  0  0  0  0
    0.1206    0.1933   -0.6671 C   0  0  0  0  0  0  0  0  0  0  0  0
    0.2435    0.9763   -1.7860 O   0  0  0  0  0  0  0  0  0  0  0  0
   -3.1485    0.0037    0.3820 H   0  0  0  0  0  0  0  0  0  0  0  0
   -1.9149    1.1376    1.0152 H   0  0  0  0  0  0  0  0  0  0  0  0
   -2.5272    1.2695   -0.6911 H   0  0  0  0  0  0  0  0  0  0  0  0
   -1.6134   -0.7978   -1.3557 H   0  0  0  0  0  0  0  0  0  0  0  0
   -1.7302   -2.2909    0.3850 H   0  0  0  0  0  0  0  0  0  0  0  0
   -0.9259   -1.1970    1.5815 H   0  0  0  0  0  0  0  0  0  0  0  0
    1.5958   -1.2503   -1.4082 H   0  0  0  0  0  0  0  0  0  0  0  0
    1.0832    0.0904    1.3848 H   0  0  0  0  0  0  0  0  0  0  0  0
    2.4007    1.2645   -1.1704 H   0  0  0  0  0  0  0  0  0  0  0  0
    2.7069    1.7804    0.5657 H   0  0  0  0  0  0  0  0  0  0  0  0
    3.2989    0.1806   -0.0890 H   0  0  0  0  0  0  0  0  0  0  0  0
   -0.0967    1.8777   -1.5873 H   0  0  0  0  0  0  0  0  0  0  0  0
  1  2  1  0
  2  3  1  0
  3  4  1  0
  4  5  1  0
  5  6  1  0
  6  7  1  0
  6  8  1  0
  8  9  1  0
  8  2  1  0
  8  5  1  0
  1 10  1  0
  1 11  1  0
  1 12  1  0
  2 13  1  0
  3 14  1  0
  3 15  1  0
  5 16  1  0
  6 17  1  0
  7 18  1  0
  7 19  1  0
  7 20  1  0
  9 21  1  0
M  END
