
     RDKit          3D

 19 20  0  0  0  0  0  0  0  0999 V2000
   -2.1302   -0.7022    0.1383 C   0  0  0  0  0  0  0  0  0  0  0  0
   -1.2269    0.4406   -0.2679 C   0  0  0  0  0  0  0  0  0  0  0  0
   -0.8106    1.2569    0.9003 C   0  0  0  0  0  0  0  0  0  0  0  0
   -1.4288    2.2626    1.3437 O   0  0  0  0  0  0  0  0  0  0  0  0
    0.3631    0.6734    1.3606 O   0  0  0  0  0  0  0  0  0  0  0  0
    1.0916    0.1299    0.2583 C   0  0  0  0  0  0  0  0  0  0  0  0
    2.0452   -0.9833    0.5207 C   0  0  0  0  0  0  0  0  0  0  0  0
    1.1465    0.9682   -0.9580 C   0  0  0  0  0  0  0  0  0  0  0  0
    0.0827   -0.0762   -0.8119 C   0  0  0  0  0  0  0  0  0  0  0  0
   -3.1624   -0.5741   -0.2254 H   0  0  0  0  0  0  0  0  0  0  0  0
   -1.7680   -1.6775   -0.2367 H   0  0  0  0  0  0  0  0  0  0  0  0
   -2.1561   -0.7954    1.2508 H   0  0  0  0  0  0  0  0  0  0  0  0
   -1.7533    1.0350   -1.0378 H   0  0  0  0  0  0  0  0  0  0  0  0
    2.7600   -0.7395    1.3510 H   0  0  0  0  0  0  0  0  0  0  0  0
    1.4867   -1.8793    0.8730 H   0  0  0  0  0  0  0  0  0  0  0  0
    2.5956   -1.1903   -0.4259 H   0  0  0  0  0  0  0  0  0  0  0  0
    0.8813    2.0292   -0.8394 H   0  0  0  0  0  0  0  0  0  0  0  0
    1.9094    0.7919   -1.7397 H   0  0  0  0  0  0  0  0  0  0  0  0
    0.0741   -0.9699   -1.4540 H   0  0  0  0  0  0  0  0  0  0  0  0
  1  2  1  0
  2  3  1  0
  3  4  2  0
  3  5  1  0
  5  6  1  0
  6  7  1  0
  6  8  1  0
  8  9  1  0
  9  2  1  0
  9  6  1  0
  1 10  1  0
  1 11  1  0
  1 12  1  0
  2 13  1  0
  7 14  1  0
  7 15  1  0
  7 16  1  0
  8 17  1  0
  8 18  1  0
  9 19  1  0
M  END
