
     RDKit          3D

 21 21  0  0  0  0  0  0  0  0999 V2000
    2.1565   -0.2317    0.7877 C   0  0  0  0  0  0  0  0  0  0  0  0
    1.3016   -0.1071   -0.4795 C   0  0  0  0  0  0  0  0  0  0  0  0
    1.0016    1.3065   -0.7794 C   0  0  0  0  0  0  0  0  0  0  0  0
   -0.0914    1.8327   -0.2338 C   0  0  0  0  0  0  0  0  0  0  0  0
   -0.9572    1.0328    0.6293 C   0  0  0  0  0  0  0  0  0  0  0  0
   -1.6086    1.6169    1.5285 O   0  0  0  0  0  0  0  0  0  0  0  0
   -1.0303   -0.4229    0.4100 C   0  0  0  0  0  0  0  0  0  0  0  0
   -2.3434   -0.8043   -0.2837 C   0  0  0  0  0  0  0  0  0  0  0  0
    0.0846   -0.9789   -0.3935 C   0  0  0  0  0  0  0  0  0  0  0  0
    3.1998   -0.5169    0.5465 H   0  0  0  0  0  0  0  0  0  0  0  0
    1.7508   -1.0449    1.4414 H   0  0  0  0  0  0  0  0  0  0  0  0
    2.1817    0.6976    1.3564 H   0  0  0  0  0  0  0  0  0  0  0  0
    1.9291   -0.5098   -1.3149 H   0  0  0  0  0  0  0  0  0  0  0  0
    1.6191    1.9262   -1.4124 H   0  0  0  0  0  0  0  0  0  0  0  0
   -0.3367    2.8719   -0.4376 H   0  0  0  0  0  0  0  0  0  0  0  0
   -1.0538   -0.8985    1.4170 H   0  0  0  0  0  0  0  0  0  0  0  0
   -2.2331   -0.6820   -1.3874 H   0  0  0  0  0  0  0  0  0  0  0  0
   -2.5580   -1.8503   -0.0324 H   0  0  0  0  0  0  0  0  0  0  0  0
   -3.1653   -0.1232    0.0321 H   0  0  0  0  0  0  0  0  0  0  0  0
   -0.2526   -1.1650   -1.4479 H   0  0  0  0  0  0  0  0  0  0  0  0
    0.4054   -1.9490    0.0536 H   0  0  0  0  0  0  0  0  0  0  0  0
  1  2  1  0
  2  3  1  0
  3  4  2  0
  4  5  1  0
  5  6  2  0
  5  7  1  0
  7  8  1  0
  7  9  1  0
  9  2  1  0
  1 10  1  0
  1 11  1  0
  1 12  1  0
  2 13  1  0
  3 14  1  0
  4 15  1  0
  7 16  1  0
  8 17  1  0
  8 18  1  0
  8 19  1  0
  9 20  1  0
  9 21  1  0
M  END
