
     RDKit          3D

 21 23  0  0  0  0  0  0  0  0999 V2000
   -1.7359   -1.1400   -0.5301 C   0  0  0  0  0  0  0  0  0  0  0  0
   -0.5437   -0.8028    0.2225 C   0  0  0  0  0  0  0  0  0  0  0  0
   -0.4773    0.5422    0.8858 C   0  0  0  0  0  0  0  0  0  0  0  0
   -0.5818    1.4247   -0.3690 C   0  0  0  0  0  0  0  0  0  0  0  0
    0.7538    0.8936   -0.9329 C   0  0  0  0  0  0  0  0  0  0  0  0
    1.5129    1.5055    0.1055 O   0  0  0  0  0  0  0  0  0  0  0  0
    1.0055    0.6883    1.1523 C   0  0  0  0  0  0  0  0  0  0  0  0
    1.6623   -0.5896    0.5860 C   0  0  0  0  0  0  0  0  0  0  0  0
    0.7133   -0.5684   -0.6367 C   0  0  0  0  0  0  0  0  0  0  0  0
   -2.5710   -0.4228   -0.5419 H   0  0  0  0  0  0  0  0  0  0  0  0
   -2.1810   -2.1130   -0.2054 H   0  0  0  0  0  0  0  0  0  0  0  0
   -1.4579   -1.3138   -1.6123 H   0  0  0  0  0  0  0  0  0  0  0  0
   -0.3596   -1.5688    1.0052 H   0  0  0  0  0  0  0  0  0  0  0  0
   -1.1425    0.7631    1.6606 H   0  0  0  0  0  0  0  0  0  0  0  0
   -0.5092    2.4941   -0.1185 H   0  0  0  0  0  0  0  0  0  0  0  0
   -1.4196    1.2001   -0.9916 H   0  0  0  0  0  0  0  0  0  0  0  0
    0.9835    1.2166   -1.9073 H   0  0  0  0  0  0  0  0  0  0  0  0
    1.3048    0.9515    2.1210 H   0  0  0  0  0  0  0  0  0  0  0  0
    1.4390   -1.4635    1.1835 H   0  0  0  0  0  0  0  0  0  0  0  0
    2.6936   -0.4265    0.2999 H   0  0  0  0  0  0  0  0  0  0  0  0
    0.9109   -1.2704   -1.3766 H   0  0  0  0  0  0  0  0  0  0  0  0
  1  2  1  0
  2  3  1  0
  3  4  1  0
  4  5  1  0
  5  6  1  0
  6  7  1  0
  7  8  1  0
  8  9  1  0
  9  2  1  0
  7  3  1  0
  9  5  1  0
  1 10  1  0
  1 11  1  0
  1 12  1  0
  2 13  1  0
  3 14  1  0
  4 15  1  0
  4 16  1  0
  5 17  1  0
  7 18  1  0
  8 19  1  0
  8 20  1  0
  9 21  1  0
M  END
