
     RDKit          3D

 20 21  0  0  0  0  0  0  0  0999 V2000
    2.4532    0.2207    0.0168 C   0  0  0  0  0  0  0  0  0  0  0  0
    1.1197   -0.0219   -0.5651 C   0  0  0  0  0  0  0  0  0  0  0  0
    0.0817    1.0378   -0.1376 C   0  0  0  0  0  0  0  0  0  0  0  0
   -0.9270    0.0871    0.4304 C   0  0  0  0  0  0  0  0  0  0  0  0
   -2.2378    0.5579    0.8263 C   0  0  0  0  0  0  0  0  0  0  0  0
   -0.9635   -1.0739   -0.5764 C   0  0  0  0  0  0  0  0  0  0  0  0
    0.3952   -1.2200    0.0299 C   0  0  0  0  0  0  0  0  0  0  0  0
   -0.1805   -0.7339    1.2254 O   0  0  0  0  0  0  0  0  0  0  0  0
    2.6235   -0.4271    0.8823 H   0  0  0  0  0  0  0  0  0  0  0  0
    3.2284   -0.0751   -0.7460 H   0  0  0  0  0  0  0  0  0  0  0  0
    2.6450    1.2947    0.2154 H   0  0  0  0  0  0  0  0  0  0  0  0
    1.0684   -0.1187   -1.6520 H   0  0  0  0  0  0  0  0  0  0  0  0
   -0.2763    1.6039   -0.9994 H   0  0  0  0  0  0  0  0  0  0  0  0
    0.5881    1.6438    0.6372 H   0  0  0  0  0  0  0  0  0  0  0  0
   -2.2590    1.2393    1.6697 H   0  0  0  0  0  0  0  0  0  0  0  0
   -2.8819   -0.3131    1.0904 H   0  0  0  0  0  0  0  0  0  0  0  0
   -2.7434    1.0249   -0.0697 H   0  0  0  0  0  0  0  0  0  0  0  0
   -1.7111   -1.8224   -0.3064 H   0  0  0  0  0  0  0  0  0  0  0  0
   -0.9092   -0.7449   -1.6195 H   0  0  0  0  0  0  0  0  0  0  0  0
    0.8865   -2.1590    0.0551 H   0  0  0  0  0  0  0  0  0  0  0  0
  1  2  1  0
  2  3  1  0
  3  4  1  0
  4  5  1  0
  4  6  1  0
  6  7  1  0
  7  8  1  0
  7  2  1  0
  8  4  1  0
  1  9  1  0
  1 10  1  0
  1 11  1  0
  2 12  1  0
  3 13  1  0
  3 14  1  0
  5 15  1  0
  5 16  1  0
  5 17  1  0
  6 18  1  0
  6 19  1  0
  7 20  1  0
M  END
