
     RDKit          3D

 17 18  0  0  0  0  0  0  0  0999 V2000
   -1.7948   -0.6191   -0.7631 C   0  0  0  0  0  0  0  0  0  0  0  0
   -0.8557   -0.2791    0.3606 C   0  0  0  0  0  0  0  0  0  0  0  0
   -0.3847    1.1857    0.4837 C   0  0  0  0  0  0  0  0  0  0  0  0
   -0.3574    1.7035    1.7797 O   0  0  0  0  0  0  0  0  0  0  0  0
    0.5331    0.1317    0.1398 C   0  0  0  0  0  0  0  0  0  0  0  0
    1.5819   -0.3027    0.9235 O   0  0  0  0  0  0  0  0  0  0  0  0
    2.0739   -0.9468   -0.2388 C   0  0  0  0  0  0  0  0  0  0  0  0
    1.2773   -0.0309   -1.0813 C   0  0  0  0  0  0  0  0  0  0  0  0
    1.2788    0.3594   -2.2163 O   0  0  0  0  0  0  0  0  0  0  0  0
   -2.7994   -0.2379   -0.4825 H   0  0  0  0  0  0  0  0  0  0  0  0
   -1.4860   -0.1376   -1.7141 H   0  0  0  0  0  0  0  0  0  0  0  0
   -1.8104   -1.7229   -0.8547 H   0  0  0  0  0  0  0  0  0  0  0  0
   -1.0980   -0.7740    1.3246 H   0  0  0  0  0  0  0  0  0  0  0  0
   -0.7128    1.8799   -0.3210 H   0  0  0  0  0  0  0  0  0  0  0  0
   -0.3204    2.6796    1.7033 H   0  0  0  0  0  0  0  0  0  0  0  0
    1.7031   -2.0002   -0.2110 H   0  0  0  0  0  0  0  0  0  0  0  0
    3.1716   -0.8886   -0.3489 H   0  0  0  0  0  0  0  0  0  0  0  0
  1  2  1  0
  2  3  1  0
  3  4  1  0
  3  5  1  0
  5  6  1  0
  6  7  1  0
  7  8  1  0
  8  9  2  0
  5  2  1  0
  8  5  1  0
  1 10  1  0
  1 11  1  0
  1 12  1  0
  2 13  1  0
  3 14  1  0
  4 15  1  0
  7 16  1  0
  7 17  1  0
M  END
