
     RDKit          3D

 21 22  0  0  0  0  0  0  0  0999 V2000
    2.3099   -0.4413   -0.0543 C   0  0  0  0  0  0  0  0  0  0  0  0
    1.1258    0.3672    0.3836 C   0  0  0  0  0  0  0  0  0  0  0  0
   -0.0388   -0.4203    0.9392 C   0  0  0  0  0  0  0  0  0  0  0  0
    0.1317   -1.8000    0.9408 O   0  0  0  0  0  0  0  0  0  0  0  0
   -0.9140    0.0587   -0.1799 C   0  0  0  0  0  0  0  0  0  0  0  0
   -1.8290   -0.8468   -0.9026 C   0  0  0  0  0  0  0  0  0  0  0  0
   -1.0057    1.5315   -0.4460 C   0  0  0  0  0  0  0  0  0  0  0  0
   -1.1029    2.3182    0.6885 O   0  0  0  0  0  0  0  0  0  0  0  0
    0.2165    0.7714   -0.7731 C   0  0  0  0  0  0  0  0  0  0  0  0
    3.2346    0.1773    0.0476 H   0  0  0  0  0  0  0  0  0  0  0  0
    2.4569   -1.3708    0.5282 H   0  0  0  0  0  0  0  0  0  0  0  0
    2.2324   -0.7368   -1.1241 H   0  0  0  0  0  0  0  0  0  0  0  0
    1.3869    1.2020    1.0653 H   0  0  0  0  0  0  0  0  0  0  0  0
   -0.4204   -0.0679    1.9179 H   0  0  0  0  0  0  0  0  0  0  0  0
    0.0626   -2.1551    1.8723 H   0  0  0  0  0  0  0  0  0  0  0  0
   -1.8583   -1.8558   -0.3930 H   0  0  0  0  0  0  0  0  0  0  0  0
   -1.6648   -0.9519   -1.9780 H   0  0  0  0  0  0  0  0  0  0  0  0
   -2.8830   -0.4624   -0.7764 H   0  0  0  0  0  0  0  0  0  0  0  0
   -1.6242    1.8515   -1.2922 H   0  0  0  0  0  0  0  0  0  0  0  0
   -0.3824    2.1841    1.3395 H   0  0  0  0  0  0  0  0  0  0  0  0
    0.5662    0.6472   -1.8032 H   0  0  0  0  0  0  0  0  0  0  0  0
  1  2  1  0
  2  3  1  0
  3  4  1  0
  3  5  1  0
  5  6  1  0
  5  7  1  0
  7  8  1  0
  7  9  1  0
  9  2  1  0
  9  5  1  0
  1 10  1  0
  1 11  1  0
  1 12  1  0
  2 13  1  0
  3 14  1  0
  4 15  1  0
  6 16  1  0
  6 17  1  0
  6 18  1  0
  7 19  1  0
  8 20  1  0
  9 21  1  0
M  END
