
     RDKit          3D

 18 19  0  0  0  0  0  0  0  0999 V2000
    1.4058    0.9718    0.6996 C   0  0  0  0  0  0  0  0  0  0  0  0
    0.6062    0.4588   -0.4455 C   0  0  0  0  0  0  0  0  0  0  0  0
    0.4672   -1.0592   -0.4453 C   0  0  0  0  0  0  0  0  0  0  0  0
   -0.0501   -1.3346    0.9053 C   0  0  0  0  0  0  0  0  0  0  0  0
   -0.9953   -0.3800    1.0697 C   0  0  0  0  0  0  0  0  0  0  0  0
   -0.8955    0.3789   -0.2020 C   0  0  0  0  0  0  0  0  0  0  0  0
   -1.6659    1.4094   -0.4551 O   0  0  0  0  0  0  0  0  0  0  0  0
   -0.8386   -0.7836   -1.2074 C   0  0  0  0  0  0  0  0  0  0  0  0
    1.2532    2.0376    0.8953 H   0  0  0  0  0  0  0  0  0  0  0  0
    2.4714    0.8137    0.4940 H   0  0  0  0  0  0  0  0  0  0  0  0
    1.1495    0.3799    1.5969 H   0  0  0  0  0  0  0  0  0  0  0  0
    0.8330    0.8341   -1.4476 H   0  0  0  0  0  0  0  0  0  0  0  0
    1.2005   -1.6499   -0.9000 H   0  0  0  0  0  0  0  0  0  0  0  0
    0.2642   -2.1161    1.5840 H   0  0  0  0  0  0  0  0  0  0  0  0
   -1.6535   -0.2138    1.9116 H   0  0  0  0  0  0  0  0  0  0  0  0
   -1.2850    2.2426   -0.7893 H   0  0  0  0  0  0  0  0  0  0  0  0
   -0.6927   -0.4213   -2.2307 H   0  0  0  0  0  0  0  0  0  0  0  0
   -1.5744   -1.5682   -1.0335 H   0  0  0  0  0  0  0  0  0  0  0  0
  1  2  1  0
  2  3  1  0
  3  4  1  0
  4  5  2  0
  5  6  1  0
  6  7  1  0
  6  8  1  0
  6  2  1  0
  8  3  1  0
  1  9  1  0
  1 10  1  0
  1 11  1  0
  2 12  1  0
  3 13  1  0
  4 14  1  0
  5 15  1  0
  7 16  1  0
  8 17  1  0
  8 18  1  0
M  END
