
     RDKit          3D

 20 21  0  0  0  0  0  0  0  0999 V2000
   -1.9176   -0.9370    0.0849 C   0  0  0  0  0  0  0  0  0  0  0  0
   -0.9452    0.1743    0.0253 C   0  0  0  0  0  0  0  0  0  0  0  0
   -0.1776    0.2398   -1.2945 C   0  0  0  0  0  0  0  0  0  0  0  0
    1.1670    0.7334   -0.8838 C   0  0  0  0  0  0  0  0  0  0  0  0
    0.9632    1.3280    0.5251 C   0  0  0  0  0  0  0  0  0  0  0  0
    0.1900    0.0805    1.0024 C   0  0  0  0  0  0  0  0  0  0  0  0
    1.2055   -0.9600    0.5623 C   0  0  0  0  0  0  0  0  0  0  0  0
    1.9204   -0.4009   -0.4970 O   0  0  0  0  0  0  0  0  0  0  0  0
   -2.3215   -1.1213   -0.9488 H   0  0  0  0  0  0  0  0  0  0  0  0
   -1.5688   -1.8591    0.5437 H   0  0  0  0  0  0  0  0  0  0  0  0
   -2.8146   -0.5967    0.6819 H   0  0  0  0  0  0  0  0  0  0  0  0
   -1.4074    1.1888    0.1697 H   0  0  0  0  0  0  0  0  0  0  0  0
   -0.6940    0.8436   -2.0382 H   0  0  0  0  0  0  0  0  0  0  0  0
   -0.1311   -0.8312   -1.6493 H   0  0  0  0  0  0  0  0  0  0  0  0
    1.6800    1.3873   -1.5509 H   0  0  0  0  0  0  0  0  0  0  0  0
    1.9047    1.4342    1.0586 H   0  0  0  0  0  0  0  0  0  0  0  0
    0.3124    2.1981    0.5076 H   0  0  0  0  0  0  0  0  0  0  0  0
   -0.0501    0.0904    2.0390 H   0  0  0  0  0  0  0  0  0  0  0  0
    0.7405   -1.9094    0.2672 H   0  0  0  0  0  0  0  0  0  0  0  0
    1.9442   -1.0828    1.3951 H   0  0  0  0  0  0  0  0  0  0  0  0
  1  2  1  0
  2  3  1  0
  3  4  1  0
  4  5  1  0
  5  6  1  0
  6  7  1  0
  7  8  1  0
  6  2  1  0
  8  4  1  0
  1  9  1  0
  1 10  1  0
  1 11  1  0
  2 12  1  0
  3 13  1  0
  3 14  1  0
  4 15  1  0
  5 16  1  0
  5 17  1  0
  6 18  1  0
  7 19  1  0
  7 20  1  0
M  END
