
     RDKit          3D

 21 21  0  0  0  0  0  0  0  0999 V2000
   -1.6268   -1.2779   -0.3067 C   0  0  0  0  0  0  0  0  0  0  0  0
   -0.7851   -0.2643    0.3991 C   0  0  0  0  0  0  0  0  0  0  0  0
   -0.9103    1.0835   -0.2516 C   0  0  0  0  0  0  0  0  0  0  0  0
    0.4704    1.6732   -0.3262 C   0  0  0  0  0  0  0  0  0  0  0  0
    1.2455    0.8331    0.6646 C   0  0  0  0  0  0  0  0  0  0  0  0
    0.6949   -0.5523    0.3329 C   0  0  0  0  0  0  0  0  0  0  0  0
    1.1250   -1.4027    1.3213 O   0  0  0  0  0  0  0  0  0  0  0  0
    1.1432   -0.9513   -1.0089 C   0  0  0  0  0  0  0  0  0  0  0  0
    1.8254   -1.9515   -1.1337 O   0  0  0  0  0  0  0  0  0  0  0  0
   -1.2756   -1.5420   -1.3084 H   0  0  0  0  0  0  0  0  0  0  0  0
   -1.7706   -2.1980    0.2626 H   0  0  0  0  0  0  0  0  0  0  0  0
   -2.6438   -0.8115   -0.4490 H   0  0  0  0  0  0  0  0  0  0  0  0
   -1.0679   -0.2584    1.4708 H   0  0  0  0  0  0  0  0  0  0  0  0
   -1.5493    1.7077    0.4199 H   0  0  0  0  0  0  0  0  0  0  0  0
   -1.3793    1.0031   -1.2732 H   0  0  0  0  0  0  0  0  0  0  0  0
    0.4451    2.7313    0.0015 H   0  0  0  0  0  0  0  0  0  0  0  0
    0.8952    1.5497   -1.3371 H   0  0  0  0  0  0  0  0  0  0  0  0
    2.3294    0.8959    0.5392 H   0  0  0  0  0  0  0  0  0  0  0  0
    0.8964    1.0615    1.6989 H   0  0  0  0  0  0  0  0  0  0  0  0
    1.0343   -0.9219    2.1940 H   0  0  0  0  0  0  0  0  0  0  0  0
    0.9041   -0.4073   -1.9099 H   0  0  0  0  0  0  0  0  0  0  0  0
  1  2  1  0
  2  3  1  0
  3  4  1  0
  4  5  1  0
  5  6  1  0
  6  7  1  0
  6  8  1  0
  8  9  2  0
  6  2  1  0
  1 10  1  0
  1 11  1  0
  1 12  1  0
  2 13  1  0
  3 14  1  0
  3 15  1  0
  4 16  1  0
  4 17  1  0
  5 18  1  0
  5 19  1  0
  7 20  1  0
  8 21  1  0
M  END
