
     RDKit          3D

 21 21  0  0  0  0  0  0  0  0999 V2000
    2.6275   -0.6042   -0.1179 C   0  0  0  0  0  0  0  0  0  0  0  0
    1.2877   -0.2926    0.4816 C   0  0  0  0  0  0  0  0  0  0  0  0
    0.9843    1.1679    0.4406 C   0  0  0  0  0  0  0  0  0  0  0  0
   -0.2711    1.3879    0.1062 C   0  0  0  0  0  0  0  0  0  0  0  0
   -0.9567    0.1185   -0.1156 C   0  0  0  0  0  0  0  0  0  0  0  0
   -1.8050    0.1758   -1.3355 C   0  0  0  0  0  0  0  0  0  0  0  0
   -1.6762   -0.2910    1.1319 C   0  0  0  0  0  0  0  0  0  0  0  0
    0.1666   -0.8325   -0.3314 C   0  0  0  0  0  0  0  0  0  0  0  0
    0.0721   -1.8094   -1.0432 O   0  0  0  0  0  0  0  0  0  0  0  0
    2.7721   -0.0905   -1.0826 H   0  0  0  0  0  0  0  0  0  0  0  0
    3.3992   -0.2753    0.6133 H   0  0  0  0  0  0  0  0  0  0  0  0
    2.6712   -1.7010   -0.2871 H   0  0  0  0  0  0  0  0  0  0  0  0
    1.2380   -0.7089    1.5037 H   0  0  0  0  0  0  0  0  0  0  0  0
    1.7236    1.9230    0.6626 H   0  0  0  0  0  0  0  0  0  0  0  0
   -0.7690    2.3632   -0.0013 H   0  0  0  0  0  0  0  0  0  0  0  0
   -1.1374    0.2983   -2.2144 H   0  0  0  0  0  0  0  0  0  0  0  0
   -2.3825   -0.7508   -1.5151 H   0  0  0  0  0  0  0  0  0  0  0  0
   -2.4888    1.0529   -1.3490 H   0  0  0  0  0  0  0  0  0  0  0  0
   -2.0259   -1.3400    1.1170 H   0  0  0  0  0  0  0  0  0  0  0  0
   -2.4844    0.4285    1.3657 H   0  0  0  0  0  0  0  0  0  0  0  0
   -0.9453   -0.2196    1.9705 H   0  0  0  0  0  0  0  0  0  0  0  0
  1  2  1  0
  2  3  1  0
  3  4  2  0
  4  5  1  0
  5  6  1  0
  5  7  1  0
  5  8  1  0
  8  9  2  0
  8  2  1  0
  1 10  1  0
  1 11  1  0
  1 12  1  0
  2 13  1  0
  3 14  1  0
  4 15  1  0
  6 16  1  0
  6 17  1  0
  6 18  1  0
  7 19  1  0
  7 20  1  0
  7 21  1  0
M  END
