
     RDKit          3D

 23 24  0  0  0  0  0  0  0  0999 V2000
    1.8478   -1.0410   -0.1513 C   0  0  0  0  0  0  0  0  0  0  0  0
    0.8417    0.0504    0.1058 C   0  0  0  0  0  0  0  0  0  0  0  0
    1.0288    1.1256   -0.9210 C   0  0  0  0  0  0  0  0  0  0  0  0
    0.1851    2.2541   -0.4718 C   0  0  0  0  0  0  0  0  0  0  0  0
   -1.0618    1.9840   -0.1415 C   0  0  0  0  0  0  0  0  0  0  0  0
   -1.5503    0.5824   -0.2358 C   0  0  0  0  0  0  0  0  0  0  0  0
   -0.5569   -0.4345    0.2069 C   0  0  0  0  0  0  0  0  0  0  0  0
   -0.8476   -1.2411    1.4770 C   0  0  0  0  0  0  0  0  0  0  0  0
   -0.8967   -1.8735    0.0864 C   0  0  0  0  0  0  0  0  0  0  0  0
    1.7932   -1.8066    0.6722 H   0  0  0  0  0  0  0  0  0  0  0  0
    2.8589   -0.5755   -0.0406 H   0  0  0  0  0  0  0  0  0  0  0  0
    1.7272   -1.5070   -1.1512 H   0  0  0  0  0  0  0  0  0  0  0  0
    1.1206    0.5025    1.0961 H   0  0  0  0  0  0  0  0  0  0  0  0
    2.1042    1.3990   -0.9638 H   0  0  0  0  0  0  0  0  0  0  0  0
    0.6966    0.8134   -1.9302 H   0  0  0  0  0  0  0  0  0  0  0  0
    0.5687    3.2430   -0.4175 H   0  0  0  0  0  0  0  0  0  0  0  0
   -1.7091    2.8001    0.1951 H   0  0  0  0  0  0  0  0  0  0  0  0
   -2.5177    0.5104    0.3143 H   0  0  0  0  0  0  0  0  0  0  0  0
   -1.8376    0.4384   -1.3187 H   0  0  0  0  0  0  0  0  0  0  0  0
   -1.7795   -0.9586    1.9592 H   0  0  0  0  0  0  0  0  0  0  0  0
    0.0293   -1.5737    2.0879 H   0  0  0  0  0  0  0  0  0  0  0  0
   -1.9393   -2.0996   -0.2653 H   0  0  0  0  0  0  0  0  0  0  0  0
   -0.1053   -2.5920   -0.1924 H   0  0  0  0  0  0  0  0  0  0  0  0
  1  2  1  0
  2  3  1  0
  3  4  1  0
  4  5  2  0
  5  6  1  0
  6  7  1  0
  7  8  1  0
  8  9  1  0
  7  2  1  0
  9  7  1  0
  1 10  1  0
  1 11  1  0
  1 12  1  0
  2 13  1  0
  3 14  1  0
  3 15  1  0
  4 16  1  0
  5 17  1  0
  6 18  1  0
  6 19  1  0
  8 20  1  0
  8 21  1  0
  9 22  1  0
  9 23  1  0
M  END
