
     RDKit          3D

 23 24  0  0  0  0  0  0  0  0999 V2000
    1.8746    1.1794    0.7058 C   0  0  0  0  0  0  0  0  0  0  0  0
    1.2991    0.2167   -0.2658 C   0  0  0  0  0  0  0  0  0  0  0  0
    1.5212   -1.2506    0.1289 C   0  0  0  0  0  0  0  0  0  0  0  0
    0.1737   -1.5164   -0.5550 C   0  0  0  0  0  0  0  0  0  0  0  0
   -0.1503   -0.0623   -0.2248 C   0  0  0  0  0  0  0  0  0  0  0  0
   -0.8868    0.1552    1.0484 C   0  0  0  0  0  0  0  0  0  0  0  0
   -2.3031    0.0419    0.6269 C   0  0  0  0  0  0  0  0  0  0  0  0
   -2.3975    0.3059   -0.6657 C   0  0  0  0  0  0  0  0  0  0  0  0
   -1.0298    0.6225   -1.2264 C   0  0  0  0  0  0  0  0  0  0  0  0
    2.4612    0.6717    1.5160 H   0  0  0  0  0  0  0  0  0  0  0  0
    2.6326    1.8050    0.1486 H   0  0  0  0  0  0  0  0  0  0  0  0
    1.1703    1.8937    1.1451 H   0  0  0  0  0  0  0  0  0  0  0  0
    1.6503    0.3269   -1.3262 H   0  0  0  0  0  0  0  0  0  0  0  0
    2.3759   -1.7314   -0.3299 H   0  0  0  0  0  0  0  0  0  0  0  0
    1.4064   -1.3343    1.2308 H   0  0  0  0  0  0  0  0  0  0  0  0
    0.3241   -1.6362   -1.6560 H   0  0  0  0  0  0  0  0  0  0  0  0
   -0.4530   -2.2614   -0.0639 H   0  0  0  0  0  0  0  0  0  0  0  0
   -0.7368    1.2088    1.3791 H   0  0  0  0  0  0  0  0  0  0  0  0
   -0.6173   -0.5697    1.8443 H   0  0  0  0  0  0  0  0  0  0  0  0
   -3.0995   -0.2240    1.3314 H   0  0  0  0  0  0  0  0  0  0  0  0
   -3.3178    0.3025   -1.2651 H   0  0  0  0  0  0  0  0  0  0  0  0
   -1.0129    0.1566   -2.2308 H   0  0  0  0  0  0  0  0  0  0  0  0
   -0.8844    1.6994   -1.2958 H   0  0  0  0  0  0  0  0  0  0  0  0
  1  2  1  0
  2  3  1  0
  3  4  1  0
  4  5  1  0
  5  6  1  0
  6  7  1  0
  7  8  2  0
  8  9  1  0
  5  2  1  0
  9  5  1  0
  1 10  1  0
  1 11  1  0
  1 12  1  0
  2 13  1  0
  3 14  1  0
  3 15  1  0
  4 16  1  0
  4 17  1  0
  6 18  1  0
  6 19  1  0
  7 20  1  0
  8 21  1  0
  9 22  1  0
  9 23  1  0
M  END
