
     RDKit          3D

 17 18  0  0  0  0  0  0  0  0999 V2000
   -2.3864    0.1631   -0.2167 C   0  0  0  0  0  0  0  0  0  0  0  0
   -0.9550    0.3328   -0.5750 C   0  0  0  0  0  0  0  0  0  0  0  0
   -0.0362   -0.8134   -0.3461 C   0  0  0  0  0  0  0  0  0  0  0  0
   -0.1605   -0.5694    1.0112 O   0  0  0  0  0  0  0  0  0  0  0  0
   -0.0064    0.7175    0.5135 C   0  0  0  0  0  0  0  0  0  0  0  0
    1.0909    0.1788   -0.3383 C   0  0  0  0  0  0  0  0  0  0  0  0
    2.3051   -0.3451    0.3431 C   0  0  0  0  0  0  0  0  0  0  0  0
   -2.8682   -0.4578   -1.0159 H   0  0  0  0  0  0  0  0  0  0  0  0
   -2.8690    1.1821   -0.2781 H   0  0  0  0  0  0  0  0  0  0  0  0
   -2.4963   -0.2769    0.7765 H   0  0  0  0  0  0  0  0  0  0  0  0
   -0.7379    0.8642   -1.5036 H   0  0  0  0  0  0  0  0  0  0  0  0
   -0.0383   -1.7126   -0.8021 H   0  0  0  0  0  0  0  0  0  0  0  0
   -0.0077    1.5718    1.0498 H   0  0  0  0  0  0  0  0  0  0  0  0
    1.2764    0.7332   -1.2625 H   0  0  0  0  0  0  0  0  0  0  0  0
    2.7682   -1.1102   -0.3454 H   0  0  0  0  0  0  0  0  0  0  0  0
    3.0894    0.4205    0.4889 H   0  0  0  0  0  0  0  0  0  0  0  0
    2.0319   -0.8784    1.2700 H   0  0  0  0  0  0  0  0  0  0  0  0
  1  2  1  0
  2  3  1  0
  3  4  1  0
  4  5  1  0
  5  6  1  0
  6  7  1  0
  5  2  1  0
  6  3  1  0
  1  8  1  0
  1  9  1  0
  1 10  1  0
  2 11  1  0
  3 12  1  0
  5 13  1  0
  6 14  1  0
  7 15  1  0
  7 16  1  0
  7 17  1  0
M  END
