
     RDKit          3D

 23 23  0  0  0  0  0  0  0  0999 V2000
    0.4981    1.9279   -0.0037 C   0  0  0  0  0  0  0  0  0  0  0  0
    0.5143    0.5109   -0.4794 C   0  0  0  0  0  0  0  0  0  0  0  0
    1.6173   -0.3391    0.1200 C   0  0  0  0  0  0  0  0  0  0  0  0
    2.6408   -0.5802   -0.7651 O   0  0  0  0  0  0  0  0  0  0  0  0
    0.5880   -1.4758    0.1976 C   0  0  0  0  0  0  0  0  0  0  0  0
   -0.4815   -0.4198    0.1184 C   0  0  0  0  0  0  0  0  0  0  0  0
   -0.9768   -0.0774    1.5016 C   0  0  0  0  0  0  0  0  0  0  0  0
   -1.6072   -0.7016   -0.8406 C   0  0  0  0  0  0  0  0  0  0  0  0
   -2.2299    0.5082   -1.1436 O   0  0  0  0  0  0  0  0  0  0  0  0
    0.7831    2.0270    1.0613 H   0  0  0  0  0  0  0  0  0  0  0  0
    1.2825    2.4781   -0.5908 H   0  0  0  0  0  0  0  0  0  0  0  0
   -0.4579    2.4118   -0.2533 H   0  0  0  0  0  0  0  0  0  0  0  0
    0.5535    0.4653   -1.5794 H   0  0  0  0  0  0  0  0  0  0  0  0
    1.8948    0.0743    1.1088 H   0  0  0  0  0  0  0  0  0  0  0  0
    3.5271   -0.5254   -0.3238 H   0  0  0  0  0  0  0  0  0  0  0  0
    0.7073   -1.9462    1.2158 H   0  0  0  0  0  0  0  0  0  0  0  0
    0.6515   -2.1853   -0.6269 H   0  0  0  0  0  0  0  0  0  0  0  0
   -1.3199   -1.0260    1.9678 H   0  0  0  0  0  0  0  0  0  0  0  0
   -1.8585    0.5981    1.4686 H   0  0  0  0  0  0  0  0  0  0  0  0
   -0.1383    0.3018    2.0866 H   0  0  0  0  0  0  0  0  0  0  0  0
   -1.1783   -1.0854   -1.7996 H   0  0  0  0  0  0  0  0  0  0  0  0
   -2.3163   -1.4534   -0.4386 H   0  0  0  0  0  0  0  0  0  0  0  0
   -2.6937    0.5121   -2.0016 H   0  0  0  0  0  0  0  0  0  0  0  0
  1  2  1  0
  2  3  1  0
  3  4  1  0
  3  5  1  0
  5  6  1  0
  6  7  1  0
  6  8  1  0
  8  9  1  0
  6  2  1  0
  1 10  1  0
  1 11  1  0
  1 12  1  0
  2 13  1  0
  3 14  1  0
  4 15  1  0
  5 16  1  0
  5 17  1  0
  7 18  1  0
  7 19  1  0
  7 20  1  0
  8 21  1  0
  8 22  1  0
  9 23  1  0
M  END
