
     RDKit          3D

 19 20  0  0  0  0  0  0  0  0999 V2000
    2.2800    0.0549   -0.7040 C   0  0  0  0  0  0  0  0  0  0  0  0
    1.1777   -0.1259    0.3064 C   0  0  0  0  0  0  0  0  0  0  0  0
    0.6664    1.1703    0.8307 C   0  0  0  0  0  0  0  0  0  0  0  0
   -0.6496    1.2592    0.6709 C   0  0  0  0  0  0  0  0  0  0  0  0
   -1.2175    0.0672    0.0300 C   0  0  0  0  0  0  0  0  0  0  0  0
   -2.3946    0.1505   -0.8361 C   0  0  0  0  0  0  0  0  0  0  0  0
   -2.3676    0.0022   -2.0456 O   0  0  0  0  0  0  0  0  0  0  0  0
   -1.0342   -1.2825    0.7057 C   0  0  0  0  0  0  0  0  0  0  0  0
   -0.0522   -0.7758   -0.2787 C   0  0  0  0  0  0  0  0  0  0  0  0
    2.3556   -0.7999   -1.3793 H   0  0  0  0  0  0  0  0  0  0  0  0
    3.2552    0.1406   -0.1546 H   0  0  0  0  0  0  0  0  0  0  0  0
    2.1823    0.9918   -1.2936 H   0  0  0  0  0  0  0  0  0  0  0  0
    1.5544   -0.7792    1.1324 H   0  0  0  0  0  0  0  0  0  0  0  0
    1.3244    1.9139    1.2770 H   0  0  0  0  0  0  0  0  0  0  0  0
   -1.2198    2.1286    0.9879 H   0  0  0  0  0  0  0  0  0  0  0  0
   -3.3623    0.3567   -0.3923 H   0  0  0  0  0  0  0  0  0  0  0  0
   -0.8026   -1.1917    1.7807 H   0  0  0  0  0  0  0  0  0  0  0  0
   -1.7144   -2.0936    0.4567 H   0  0  0  0  0  0  0  0  0  0  0  0
    0.0190   -1.1873   -1.2963 H   0  0  0  0  0  0  0  0  0  0  0  0
  1  2  1  0
  2  3  1  0
  3  4  2  0
  4  5  1  0
  5  6  1  0
  6  7  2  0
  5  8  1  0
  8  9  1  0
  9  2  1  0
  9  5  1  0
  1 10  1  0
  1 11  1  0
  1 12  1  0
  2 13  1  0
  3 14  1  0
  4 15  1  0
  6 16  1  0
  8 17  1  0
  8 18  1  0
  9 19  1  0
M  END
