
     RDKit          3D

 19 20  0  0  0  0  0  0  0  0999 V2000
   -1.5477   -0.7260    0.8733 C   0  0  0  0  0  0  0  0  0  0  0  0
   -1.3117    0.2086   -0.2687 C   0  0  0  0  0  0  0  0  0  0  0  0
   -0.7268    1.5227    0.0596 C   0  0  0  0  0  0  0  0  0  0  0  0
   -1.1371    2.5452    0.5572 O   0  0  0  0  0  0  0  0  0  0  0  0
    0.5861    1.0877   -0.4706 C   0  0  0  0  0  0  0  0  0  0  0  0
    1.5311    0.5021    0.5176 C   0  0  0  0  0  0  0  0  0  0  0  0
    1.6561   -0.9169    0.1274 C   0  0  0  0  0  0  0  0  0  0  0  0
    0.7385   -1.2085   -0.7790 C   0  0  0  0  0  0  0  0  0  0  0  0
   -0.1184   -0.0782   -1.1320 C   0  0  0  0  0  0  0  0  0  0  0  0
   -0.6768   -0.8933    1.5073 H   0  0  0  0  0  0  0  0  0  0  0  0
   -2.3686   -0.2825    1.4960 H   0  0  0  0  0  0  0  0  0  0  0  0
   -1.9461   -1.6713    0.4632 H   0  0  0  0  0  0  0  0  0  0  0  0
   -2.2320    0.2536   -0.9118 H   0  0  0  0  0  0  0  0  0  0  0  0
    1.0387    1.7641   -1.2251 H   0  0  0  0  0  0  0  0  0  0  0  0
    2.5341    1.0175    0.4928 H   0  0  0  0  0  0  0  0  0  0  0  0
    1.1887    0.6280    1.5689 H   0  0  0  0  0  0  0  0  0  0  0  0
    2.4108   -1.6073    0.5455 H   0  0  0  0  0  0  0  0  0  0  0  0
    0.6468   -2.2042   -1.2095 H   0  0  0  0  0  0  0  0  0  0  0  0
   -0.2658    0.0586   -2.2122 H   0  0  0  0  0  0  0  0  0  0  0  0
  1  2  1  0
  2  3  1  0
  3  4  2  0
  3  5  1  0
  5  6  1  0
  6  7  1  0
  7  8  2  0
  8  9  1  0
  9  2  1  0
  9  5  1  0
  1 10  1  0
  1 11  1  0
  1 12  1  0
  2 13  1  0
  5 14  1  0
  6 15  1  0
  6 16  1  0
  7 17  1  0
  8 18  1  0
  9 19  1  0
M  END
