
     RDKit          3D

 25 26  0  0  0  0  0  0  0  0999 V2000
    2.7951   -0.4012    0.2528 C   0  0  0  0  0  0  0  0  0  0  0  0
    1.4536    0.0387   -0.2491 C   0  0  0  0  0  0  0  0  0  0  0  0
    0.8831    1.1269    0.6632 C   0  0  0  0  0  0  0  0  0  0  0  0
   -0.3805    1.6569    0.0949 C   0  0  0  0  0  0  0  0  0  0  0  0
   -1.3409    0.6747   -0.4178 C   0  0  0  0  0  0  0  0  0  0  0  0
   -2.1277   -0.1128    0.6156 C   0  0  0  0  0  0  0  0  0  0  0  0
   -2.0900   -1.2643   -0.3988 C   0  0  0  0  0  0  0  0  0  0  0  0
   -0.7938   -0.6165   -0.9119 C   0  0  0  0  0  0  0  0  0  0  0  0
    0.4254   -1.0986   -0.1912 C   0  0  0  0  0  0  0  0  0  0  0  0
    2.9567   -1.4763    0.0016 H   0  0  0  0  0  0  0  0  0  0  0  0
    3.5620    0.2274   -0.2510 H   0  0  0  0  0  0  0  0  0  0  0  0
    2.7932   -0.2393    1.3676 H   0  0  0  0  0  0  0  0  0  0  0  0
    1.4914    0.4836   -1.2639 H   0  0  0  0  0  0  0  0  0  0  0  0
    0.8269    0.8031    1.7083 H   0  0  0  0  0  0  0  0  0  0  0  0
    1.6458    1.9561    0.6343 H   0  0  0  0  0  0  0  0  0  0  0  0
   -0.1185    2.3735   -0.7224 H   0  0  0  0  0  0  0  0  0  0  0  0
   -0.8934    2.2773    0.8885 H   0  0  0  0  0  0  0  0  0  0  0  0
   -2.0264    1.1216   -1.1751 H   0  0  0  0  0  0  0  0  0  0  0  0
   -1.5048   -0.4064    1.4864 H   0  0  0  0  0  0  0  0  0  0  0  0
   -3.1392    0.2350    0.8184 H   0  0  0  0  0  0  0  0  0  0  0  0
   -1.9671   -2.2559    0.0329 H   0  0  0  0  0  0  0  0  0  0  0  0
   -2.8557   -1.1429   -1.1932 H   0  0  0  0  0  0  0  0  0  0  0  0
   -0.6578   -0.6762   -1.9961 H   0  0  0  0  0  0  0  0  0  0  0  0
    0.2544   -1.2892    0.8955 H   0  0  0  0  0  0  0  0  0  0  0  0
    0.8082   -1.9951   -0.6894 H   0  0  0  0  0  0  0  0  0  0  0  0
  1  2  1  0
  2  3  1  0
  3  4  1  0
  4  5  1  0
  5  6  1  0
  6  7  1  0
  7  8  1  0
  8  9  1  0
  9  2  1  0
  8  5  1  0
  1 10  1  0
  1 11  1  0
  1 12  1  0
  2 13  1  0
  3 14  1  0
  3 15  1  0
  4 16  1  0
  4 17  1  0
  5 18  1  0
  6 19  1  0
  6 20  1  0
  7 21  1  0
  7 22  1  0
  8 23  1  0
  9 24  1  0
  9 25  1  0
M  END
