
     RDKit          3D

 21 22  0  0  0  0  0  0  0  0999 V2000
    2.1365   -0.9980   -0.3750 C   0  0  0  0  0  0  0  0  0  0  0  0
    1.0392   -0.3595    0.4278 C   0  0  0  0  0  0  0  0  0  0  0  0
    0.1826    0.6941   -0.1728 C   0  0  0  0  0  0  0  0  0  0  0  0
   -0.0951    1.9376    0.6188 C   0  0  0  0  0  0  0  0  0  0  0  0
    0.0798    0.8031   -1.5558 O   0  0  0  0  0  0  0  0  0  0  0  0
   -1.0538    0.0118   -1.8119 C   0  0  0  0  0  0  0  0  0  0  0  0
   -0.6947   -1.1607   -1.1137 O   0  0  0  0  0  0  0  0  0  0  0  0
   -0.3792   -0.6087    0.1422 C   0  0  0  0  0  0  0  0  0  0  0  0
   -1.3954   -0.8417    1.2193 C   0  0  0  0  0  0  0  0  0  0  0  0
    2.1803   -0.6504   -1.4250 H   0  0  0  0  0  0  0  0  0  0  0  0
    1.9883   -2.1092   -0.3123 H   0  0  0  0  0  0  0  0  0  0  0  0
    3.1185   -0.8048    0.0916 H   0  0  0  0  0  0  0  0  0  0  0  0
    1.3145   -0.1783    1.4976 H   0  0  0  0  0  0  0  0  0  0  0  0
    0.5964    1.9614    1.4973 H   0  0  0  0  0  0  0  0  0  0  0  0
   -1.1507    2.0658    0.8958 H   0  0  0  0  0  0  0  0  0  0  0  0
    0.2311    2.8035   -0.0187 H   0  0  0  0  0  0  0  0  0  0  0  0
   -1.2175   -0.1661   -2.8734 H   0  0  0  0  0  0  0  0  0  0  0  0
   -1.9367    0.4301   -1.2772 H   0  0  0  0  0  0  0  0  0  0  0  0
   -0.8483   -1.3026    2.0875 H   0  0  0  0  0  0  0  0  0  0  0  0
   -2.1769   -1.5799    0.8997 H   0  0  0  0  0  0  0  0  0  0  0  0
   -1.9187    0.0526    1.5582 H   0  0  0  0  0  0  0  0  0  0  0  0
  1  2  1  0
  2  3  1  0
  3  4  1  0
  3  5  1  0
  5  6  1  0
  6  7  1  0
  7  8  1  0
  8  9  1  0
  8  2  1  0
  8  3  1  0
  1 10  1  0
  1 11  1  0
  1 12  1  0
  2 13  1  0
  4 14  1  0
  4 15  1  0
  4 16  1  0
  6 17  1  0
  6 18  1  0
  9 19  1  0
  9 20  1  0
  9 21  1  0
M  END
