
     RDKit          3D

 21 22  0  0  0  0  0  0  0  0999 V2000
   -0.9350    2.0561   -0.2206 C   0  0  0  0  0  0  0  0  0  0  0  0
   -0.8218    0.6568    0.3130 C   0  0  0  0  0  0  0  0  0  0  0  0
   -0.5867   -0.3988   -0.7627 C   0  0  0  0  0  0  0  0  0  0  0  0
   -0.6854   -1.8147   -0.2936 C   0  0  0  0  0  0  0  0  0  0  0  0
   -1.9048   -2.0562    0.3207 O   0  0  0  0  0  0  0  0  0  0  0  0
    0.3754   -1.5279    0.7386 C   0  0  0  0  0  0  0  0  0  0  0  0
    0.4297   -0.1126    0.2382 C   0  0  0  0  0  0  0  0  0  0  0  0
    1.7562    0.4878   -0.0471 C   0  0  0  0  0  0  0  0  0  0  0  0
    1.8099    1.1357   -1.2953 O   0  0  0  0  0  0  0  0  0  0  0  0
   -1.3150    2.7220    0.6027 H   0  0  0  0  0  0  0  0  0  0  0  0
    0.0207    2.4697   -0.5355 H   0  0  0  0  0  0  0  0  0  0  0  0
   -1.7345    2.1236   -1.0126 H   0  0  0  0  0  0  0  0  0  0  0  0
   -1.6223    0.3426    1.0216 H   0  0  0  0  0  0  0  0  0  0  0  0
   -0.5573   -0.1232   -1.8075 H   0  0  0  0  0  0  0  0  0  0  0  0
   -0.3950   -2.5281   -1.0925 H   0  0  0  0  0  0  0  0  0  0  0  0
   -2.6081   -1.7395   -0.3112 H   0  0  0  0  0  0  0  0  0  0  0  0
    1.3004   -2.0905    0.4805 H   0  0  0  0  0  0  0  0  0  0  0  0
    0.0604   -1.6156    1.7866 H   0  0  0  0  0  0  0  0  0  0  0  0
    2.5001   -0.3603   -0.1144 H   0  0  0  0  0  0  0  0  0  0  0  0
    2.1466    1.1721    0.7045 H   0  0  0  0  0  0  0  0  0  0  0  0
    2.7666    1.2008   -1.5341 H   0  0  0  0  0  0  0  0  0  0  0  0
  1  2  1  0
  2  3  1  0
  3  4  1  0
  4  5  1  0
  4  6  1  0
  6  7  1  0
  7  8  1  0
  8  9  1  0
  7  2  1  0
  7  3  1  0
  1 10  1  0
  1 11  1  0
  1 12  1  0
  2 13  1  0
  3 14  1  0
  4 15  1  0
  5 16  1  0
  6 17  1  0
  6 18  1  0
  8 19  1  0
  8 20  1  0
  9 21  1  0
M  END
