
     RDKit          3D

 23 24  0  0  0  0  0  0  0  0999 V2000
    0.7782    1.6462   -0.3914 C   0  0  0  0  0  0  0  0  0  0  0  0
    0.4631    0.4598    0.4503 C   0  0  0  0  0  0  0  0  0  0  0  0
   -0.9498   -0.1122    0.2598 C   0  0  0  0  0  0  0  0  0  0  0  0
   -1.5646   -0.3954    1.5917 C   0  0  0  0  0  0  0  0  0  0  0  0
   -1.8139    0.6736   -0.6610 C   0  0  0  0  0  0  0  0  0  0  0  0
   -0.2499   -1.3211   -0.3750 C   0  0  0  0  0  0  0  0  0  0  0  0
    0.5491   -1.9860    0.6119 O   0  0  0  0  0  0  0  0  0  0  0  0
    0.9716   -0.8199   -0.1406 C   0  0  0  0  0  0  0  0  0  0  0  0
    2.3132   -0.9582   -0.7172 C   0  0  0  0  0  0  0  0  0  0  0  0
    0.1045    1.8178   -1.2363 H   0  0  0  0  0  0  0  0  0  0  0  0
    0.8079    2.5585    0.2698 H   0  0  0  0  0  0  0  0  0  0  0  0
    1.8319    1.5682   -0.7852 H   0  0  0  0  0  0  0  0  0  0  0  0
    0.7760    0.5462    1.5034 H   0  0  0  0  0  0  0  0  0  0  0  0
   -0.8085   -0.8802    2.2673 H   0  0  0  0  0  0  0  0  0  0  0  0
   -2.4639   -1.0315    1.4700 H   0  0  0  0  0  0  0  0  0  0  0  0
   -1.8162    0.5798    2.0612 H   0  0  0  0  0  0  0  0  0  0  0  0
   -2.8660    0.3452   -0.5081 H   0  0  0  0  0  0  0  0  0  0  0  0
   -1.5695    0.4537   -1.7113 H   0  0  0  0  0  0  0  0  0  0  0  0
   -1.8024    1.7600   -0.4283 H   0  0  0  0  0  0  0  0  0  0  0  0
   -0.7703   -1.9355   -1.0903 H   0  0  0  0  0  0  0  0  0  0  0  0
    2.5234   -0.2137   -1.5001 H   0  0  0  0  0  0  0  0  0  0  0  0
    2.4836   -1.9919   -1.0368 H   0  0  0  0  0  0  0  0  0  0  0  0
    3.0724   -0.7633    0.0960 H   0  0  0  0  0  0  0  0  0  0  0  0
  1  2  1  0
  2  3  1  0
  3  4  1  0
  3  5  1  0
  3  6  1  0
  6  7  1  0
  7  8  1  0
  8  9  1  0
  8  2  1  0
  8  6  1  0
  1 10  1  0
  1 11  1  0
  1 12  1  0
  2 13  1  0
  4 14  1  0
  4 15  1  0
  4 16  1  0
  5 17  1  0
  5 18  1  0
  5 19  1  0
  6 20  1  0
  9 21  1  0
  9 22  1  0
  9 23  1  0
M  END
