
     RDKit          3D

 19 21  0  0  0  0  0  0  0  0999 V2000
   -2.0299   -1.0403   -0.0789 C   0  0  0  0  0  0  0  0  0  0  0  0
   -1.1275    0.1676   -0.0515 C   0  0  0  0  0  0  0  0  0  0  0  0
   -0.7085    0.5606    1.2872 C   0  0  0  0  0  0  0  0  0  0  0  0
    0.5820    0.7398    1.3451 C   0  0  0  0  0  0  0  0  0  0  0  0
    1.2802    0.5075    0.0803 C   0  0  0  0  0  0  0  0  0  0  0  0
    1.9673   -0.8234   -0.1565 C   0  0  0  0  0  0  0  0  0  0  0  0
    0.7647   -1.2659   -0.7074 O   0  0  0  0  0  0  0  0  0  0  0  0
    0.1426   -0.0514   -0.7988 C   0  0  0  0  0  0  0  0  0  0  0  0
    0.8576    1.1801   -1.2017 C   0  0  0  0  0  0  0  0  0  0  0  0
   -2.7244   -0.9130   -0.9345 H   0  0  0  0  0  0  0  0  0  0  0  0
   -1.4531   -1.9798   -0.3119 H   0  0  0  0  0  0  0  0  0  0  0  0
   -2.6181   -1.1863    0.8223 H   0  0  0  0  0  0  0  0  0  0  0  0
   -1.6998    1.0433   -0.4803 H   0  0  0  0  0  0  0  0  0  0  0  0
   -1.4250    0.6807    2.1205 H   0  0  0  0  0  0  0  0  0  0  0  0
    1.0951    1.0428    2.2801 H   0  0  0  0  0  0  0  0  0  0  0  0
    2.3096   -1.3550    0.7346 H   0  0  0  0  0  0  0  0  0  0  0  0
    2.7925   -0.7343   -0.8875 H   0  0  0  0  0  0  0  0  0  0  0  0
    0.3818    2.1528   -1.0458 H   0  0  0  0  0  0  0  0  0  0  0  0
    1.6128    1.1163   -2.0153 H   0  0  0  0  0  0  0  0  0  0  0  0
  1  2  1  0
  2  3  1  0
  3  4  2  0
  4  5  1  0
  5  6  1  0
  6  7  1  0
  7  8  1  0
  8  9  1  0
  8  2  1  0
  8  5  1  0
  9  5  1  0
  1 10  1  0
  1 11  1  0
  1 12  1  0
  2 13  1  0
  3 14  1  0
  4 15  1  0
  6 16  1  0
  6 17  1  0
  9 18  1  0
  9 19  1  0
M  END
