
     RDKit          3D

 21 21  0  0  0  0  0  0  0  0999 V2000
   -1.9221    1.7645   -0.1900 C   0  0  0  0  0  0  0  0  0  0  0  0
   -1.7254    0.2783   -0.1062 C   0  0  0  0  0  0  0  0  0  0  0  0
   -1.2613   -0.2981    1.1681 C   0  0  0  0  0  0  0  0  0  0  0  0
   -0.3662   -0.3226   -0.0620 C   0  0  0  0  0  0  0  0  0  0  0  0
   -0.1646   -1.7232   -0.6256 C   0  0  0  0  0  0  0  0  0  0  0  0
    0.7430    0.5164   -0.0935 O   0  0  0  0  0  0  0  0  0  0  0  0
    1.9342   -0.2189   -0.0442 C   0  0  0  0  0  0  0  0  0  0  0  0
    3.1099    0.6761   -0.0777 C   0  0  0  0  0  0  0  0  0  0  0  0
    4.2333    0.2373   -0.0441 O   0  0  0  0  0  0  0  0  0  0  0  0
   -2.2060    2.1231   -1.1833 H   0  0  0  0  0  0  0  0  0  0  0  0
   -2.7627    2.0443    0.4978 H   0  0  0  0  0  0  0  0  0  0  0  0
   -1.0323    2.2917    0.1913 H   0  0  0  0  0  0  0  0  0  0  0  0
   -2.5200   -0.2984   -0.6456 H   0  0  0  0  0  0  0  0  0  0  0  0
   -0.8591    0.3438    1.9857 H   0  0  0  0  0  0  0  0  0  0  0  0
   -1.6789   -1.2541    1.5460 H   0  0  0  0  0  0  0  0  0  0  0  0
    0.5099   -2.2664    0.0742 H   0  0  0  0  0  0  0  0  0  0  0  0
    0.2474   -1.7145   -1.6400 H   0  0  0  0  0  0  0  0  0  0  0  0
   -1.1481   -2.2493   -0.5519 H   0  0  0  0  0  0  0  0  0  0  0  0
    1.9512   -0.8245    0.8743 H   0  0  0  0  0  0  0  0  0  0  0  0
    1.9704   -0.8631   -0.9390 H   0  0  0  0  0  0  0  0  0  0  0  0
    2.9472    1.7576   -0.1343 H   0  0  0  0  0  0  0  0  0  0  0  0
  1  2  1  0
  2  3  1  0
  3  4  1  0
  4  5  1  0
  4  6  1  0
  6  7  1  0
  7  8  1  0
  8  9  2  0
  4  2  1  0
  1 10  1  0
  1 11  1  0
  1 12  1  0
  2 13  1  0
  3 14  1  0
  3 15  1  0
  5 16  1  0
  5 17  1  0
  5 18  1  0
  7 19  1  0
  7 20  1  0
  8 21  1  0
M  END
