
     RDKit          3D

 25 25  0  0  0  0  0  0  0  0999 V2000
   -1.5094    2.0090    0.2267 C   0  0  0  0  0  0  0  0  0  0  0  0
   -1.7687    0.6579   -0.3909 C   0  0  0  0  0  0  0  0  0  0  0  0
   -1.7337   -0.5810    0.3857 C   0  0  0  0  0  0  0  0  0  0  0  0
   -2.6295   -1.7165   -0.0986 C   0  0  0  0  0  0  0  0  0  0  0  0
   -0.5705   -0.2413   -0.5616 C   0  0  0  0  0  0  0  0  0  0  0  0
    0.7167    0.2505    0.0834 C   0  0  0  0  0  0  0  0  0  0  0  0
    1.8344   -0.7382   -0.1611 C   0  0  0  0  0  0  0  0  0  0  0  0
    3.0952   -0.2391    0.4810 C   0  0  0  0  0  0  0  0  0  0  0  0
    3.4072    0.9986   -0.0952 O   0  0  0  0  0  0  0  0  0  0  0  0
   -0.7808    1.9567    1.0617 H   0  0  0  0  0  0  0  0  0  0  0  0
   -2.4460    2.5130    0.5058 H   0  0  0  0  0  0  0  0  0  0  0  0
   -1.0007    2.6213   -0.5705 H   0  0  0  0  0  0  0  0  0  0  0  0
   -2.4743    0.7070   -1.2522 H   0  0  0  0  0  0  0  0  0  0  0  0
   -1.4247   -0.6714    1.4226 H   0  0  0  0  0  0  0  0  0  0  0  0
   -3.4879   -1.7835    0.5980 H   0  0  0  0  0  0  0  0  0  0  0  0
   -2.0540   -2.6405   -0.1990 H   0  0  0  0  0  0  0  0  0  0  0  0
   -3.0667   -1.4739   -1.1047 H   0  0  0  0  0  0  0  0  0  0  0  0
   -0.4980   -0.7876   -1.5121 H   0  0  0  0  0  0  0  0  0  0  0  0
    0.9462    1.2225   -0.4011 H   0  0  0  0  0  0  0  0  0  0  0  0
    0.5654    0.3992    1.1603 H   0  0  0  0  0  0  0  0  0  0  0  0
    1.5528   -1.7553    0.1350 H   0  0  0  0  0  0  0  0  0  0  0  0
    2.0060   -0.7567   -1.2562 H   0  0  0  0  0  0  0  0  0  0  0  0
    3.0001   -0.0596    1.5651 H   0  0  0  0  0  0  0  0  0  0  0  0
    3.9156   -0.9654    0.2484 H   0  0  0  0  0  0  0  0  0  0  0  0
    4.4054    1.0740   -0.2028 H   0  0  0  0  0  0  0  0  0  0  0  0
  1  2  1  0
  2  3  1  0
  3  4  1  0
  3  5  1  0
  5  6  1  0
  6  7  1  0
  7  8  1  0
  8  9  1  0
  5  2  1  0
  1 10  1  0
  1 11  1  0
  1 12  1  0
  2 13  1  0
  3 14  1  0
  4 15  1  0
  4 16  1  0
  4 17  1  0
  5 18  1  0
  6 19  1  0
  6 20  1  0
  7 21  1  0
  7 22  1  0
  8 23  1  0
  8 24  1  0
  9 25  1  0
M  END
