
     RDKit          3D

 21 22  0  0  0  0  0  0  0  0999 V2000
    2.5857    0.2148    0.7905 C   0  0  0  0  0  0  0  0  0  0  0  0
    1.4883    0.2529   -0.2235 C   0  0  0  0  0  0  0  0  0  0  0  0
    0.9529   -1.0280   -0.7814 C   0  0  0  0  0  0  0  0  0  0  0  0
    0.1145   -0.1238    0.0275 C   0  0  0  0  0  0  0  0  0  0  0  0
   -0.3823   -0.6053    1.2093 O   0  0  0  0  0  0  0  0  0  0  0  0
   -1.6675   -1.0453    0.8112 C   0  0  0  0  0  0  0  0  0  0  0  0
   -2.1986    0.2393    0.1797 C   0  0  0  0  0  0  0  0  0  0  0  0
   -0.9987    0.6654   -0.6474 C   0  0  0  0  0  0  0  0  0  0  0  0
   -0.7197    2.0067   -0.5040 O   0  0  0  0  0  0  0  0  0  0  0  0
    2.2903   -0.1686    1.7762 H   0  0  0  0  0  0  0  0  0  0  0  0
    3.4749   -0.3398    0.3915 H   0  0  0  0  0  0  0  0  0  0  0  0
    2.9455    1.2635    0.9625 H   0  0  0  0  0  0  0  0  0  0  0  0
    1.6539    1.0391   -1.0175 H   0  0  0  0  0  0  0  0  0  0  0  0
    1.2182   -2.0039   -0.3288 H   0  0  0  0  0  0  0  0  0  0  0  0
    0.7421   -1.1213   -1.8762 H   0  0  0  0  0  0  0  0  0  0  0  0
   -2.2697   -1.3945    1.6443 H   0  0  0  0  0  0  0  0  0  0  0  0
   -1.5376   -1.7933   -0.0088 H   0  0  0  0  0  0  0  0  0  0  0  0
   -3.0930    0.0635   -0.4368 H   0  0  0  0  0  0  0  0  0  0  0  0
   -2.3412    0.9826    0.9844 H   0  0  0  0  0  0  0  0  0  0  0  0
   -1.1383    0.3498   -1.7088 H   0  0  0  0  0  0  0  0  0  0  0  0
   -1.1198    2.5462   -1.2439 H   0  0  0  0  0  0  0  0  0  0  0  0
  1  2  1  0
  2  3  1  0
  3  4  1  0
  4  5  1  0
  5  6  1  0
  6  7  1  0
  7  8  1  0
  8  9  1  0
  4  2  1  0
  8  4  1  0
  1 10  1  0
  1 11  1  0
  1 12  1  0
  2 13  1  0
  3 14  1  0
  3 15  1  0
  6 16  1  0
  6 17  1  0
  7 18  1  0
  7 19  1  0
  8 20  1  0
  9 21  1  0
M  END
