
     RDKit          3D

 21 22  0  0  0  0  0  0  0  0999 V2000
   -1.4387   -1.7740    0.2438 C   0  0  0  0  0  0  0  0  0  0  0  0
   -0.1898   -1.1288   -0.2394 C   0  0  0  0  0  0  0  0  0  0  0  0
    0.5114   -0.2652    0.8004 C   0  0  0  0  0  0  0  0  0  0  0  0
    1.9893   -0.0300    0.6770 C   0  0  0  0  0  0  0  0  0  0  0  0
    2.0297    1.1355   -0.1055 O   0  0  0  0  0  0  0  0  0  0  0  0
    1.2241    0.7406   -1.1951 C   0  0  0  0  0  0  0  0  0  0  0  0
   -0.0234    0.2908   -0.4869 C   0  0  0  0  0  0  0  0  0  0  0  0
   -1.1407    1.2906   -0.4430 C   0  0  0  0  0  0  0  0  0  0  0  0
   -1.7664    1.3457    0.8085 O   0  0  0  0  0  0  0  0  0  0  0  0
   -1.4290   -1.8754    1.3619 H   0  0  0  0  0  0  0  0  0  0  0  0
   -2.3649   -1.2502   -0.0347 H   0  0  0  0  0  0  0  0  0  0  0  0
   -1.5547   -2.8289   -0.1310 H   0  0  0  0  0  0  0  0  0  0  0  0
    0.4706   -1.8193   -0.8422 H   0  0  0  0  0  0  0  0  0  0  0  0
   -0.0179   -0.0341    1.7404 H   0  0  0  0  0  0  0  0  0  0  0  0
    2.4477    0.1347    1.6798 H   0  0  0  0  0  0  0  0  0  0  0  0
    2.4579   -0.8771    0.1353 H   0  0  0  0  0  0  0  0  0  0  0  0
    1.7660   -0.0751   -1.6916 H   0  0  0  0  0  0  0  0  0  0  0  0
    1.0406    1.6200   -1.8334 H   0  0  0  0  0  0  0  0  0  0  0  0
   -1.9126    1.0526   -1.2131 H   0  0  0  0  0  0  0  0  0  0  0  0
   -0.7442    2.3105   -0.6294 H   0  0  0  0  0  0  0  0  0  0  0  0
   -1.3550    2.0372    1.3982 H   0  0  0  0  0  0  0  0  0  0  0  0
  1  2  1  0
  2  3  1  0
  3  4  1  0
  4  5  1  0
  5  6  1  0
  6  7  1  0
  7  8  1  0
  8  9  1  0
  7  2  1  0
  7  3  1  0
  1 10  1  0
  1 11  1  0
  1 12  1  0
  2 13  1  0
  3 14  1  0
  4 15  1  0
  4 16  1  0
  6 17  1  0
  6 18  1  0
  8 19  1  0
  8 20  1  0
  9 21  1  0
M  END
