
     RDKit          3D

 21 22  0  0  0  0  0  0  0  0999 V2000
    2.3566    0.3367    0.0759 C   0  0  0  0  0  0  0  0  0  0  0  0
    1.2877   -0.6367   -0.3862 C   0  0  0  0  0  0  0  0  0  0  0  0
    0.5900   -1.2026    0.8562 C   0  0  0  0  0  0  0  0  0  0  0  0
   -0.2228    0.0075    1.2562 C   0  0  0  0  0  0  0  0  0  0  0  0
   -0.2942    0.5232    2.3591 O   0  0  0  0  0  0  0  0  0  0  0  0
   -0.8803    0.3787   -0.0046 C   0  0  0  0  0  0  0  0  0  0  0  0
   -2.2445   -0.1899   -0.2498 C   0  0  0  0  0  0  0  0  0  0  0  0
   -1.9904    1.2811   -0.1386 C   0  0  0  0  0  0  0  0  0  0  0  0
    0.1401    0.0908   -1.0572 C   0  0  0  0  0  0  0  0  0  0  0  0
    3.1518   -0.2698    0.5477 H   0  0  0  0  0  0  0  0  0  0  0  0
    2.7970    0.8145   -0.8260 H   0  0  0  0  0  0  0  0  0  0  0  0
    1.9555    1.0661    0.8048 H   0  0  0  0  0  0  0  0  0  0  0  0
    1.7382   -1.4127   -1.0023 H   0  0  0  0  0  0  0  0  0  0  0  0
   -0.1294   -1.9575    0.5040 H   0  0  0  0  0  0  0  0  0  0  0  0
    1.2789   -1.5200    1.6230 H   0  0  0  0  0  0  0  0  0  0  0  0
   -2.5181   -0.5637   -1.2662 H   0  0  0  0  0  0  0  0  0  0  0  0
   -2.6909   -0.7650    0.5681 H   0  0  0  0  0  0  0  0  0  0  0  0
   -2.1335    1.9093   -1.0277 H   0  0  0  0  0  0  0  0  0  0  0  0
   -2.4072    1.7420    0.7923 H   0  0  0  0  0  0  0  0  0  0  0  0
   -0.2592   -0.6262   -1.8296 H   0  0  0  0  0  0  0  0  0  0  0  0
    0.4749    0.9942   -1.5989 H   0  0  0  0  0  0  0  0  0  0  0  0
  1  2  1  0
  2  3  1  0
  3  4  1  0
  4  5  2  0
  4  6  1  0
  6  7  1  0
  7  8  1  0
  6  9  1  0
  9  2  1  0
  8  6  1  0
  1 10  1  0
  1 11  1  0
  1 12  1  0
  2 13  1  0
  3 14  1  0
  3 15  1  0
  7 16  1  0
  7 17  1  0
  8 18  1  0
  8 19  1  0
  9 20  1  0
  9 21  1  0
M  END
