
     RDKit          3D

 19 21  0  0  0  0  0  0  0  0999 V2000
    2.4561    0.1776   -0.0356 C   0  0  0  0  0  0  0  0  0  0  0  0
    1.0624    0.1768   -0.6522 C   0  0  0  0  0  0  0  0  0  0  0  0
    0.3291   -1.0015   -0.0894 C   0  0  0  0  0  0  0  0  0  0  0  0
   -0.6795   -0.3858    0.8133 C   0  0  0  0  0  0  0  0  0  0  0  0
   -0.7062    1.0747    0.3872 C   0  0  0  0  0  0  0  0  0  0  0  0
    0.3553    1.3076   -0.4181 O   0  0  0  0  0  0  0  0  0  0  0  0
   -2.0259    0.7301   -0.3202 C   0  0  0  0  0  0  0  0  0  0  0  0
   -2.0247   -0.3160   -1.2121 O   0  0  0  0  0  0  0  0  0  0  0  0
   -2.0762   -0.4764    0.2629 C   0  0  0  0  0  0  0  0  0  0  0  0
    2.9616    1.1400   -0.1188 H   0  0  0  0  0  0  0  0  0  0  0  0
    3.0118   -0.6407   -0.5810 H   0  0  0  0  0  0  0  0  0  0  0  0
    2.3596   -0.1856    1.0241 H   0  0  0  0  0  0  0  0  0  0  0  0
    1.2097    0.0839   -1.7658 H   0  0  0  0  0  0  0  0  0  0  0  0
    0.9474   -1.7114    0.4605 H   0  0  0  0  0  0  0  0  0  0  0  0
   -0.1824   -1.5050   -0.9614 H   0  0  0  0  0  0  0  0  0  0  0  0
   -0.5930   -0.5413    1.8804 H   0  0  0  0  0  0  0  0  0  0  0  0
   -0.9280    1.7917    1.2002 H   0  0  0  0  0  0  0  0  0  0  0  0
   -2.7191    1.5437   -0.5633 H   0  0  0  0  0  0  0  0  0  0  0  0
   -2.7582   -1.2623    0.5058 H   0  0  0  0  0  0  0  0  0  0  0  0
  1  2  1  0
  2  3  1  0
  3  4  1  0
  4  5  1  0
  5  6  1  0
  5  7  1  0
  7  8  1  0
  8  9  1  0
  6  2  1  0
  9  7  1  0
  9  4  1  0
  1 10  1  0
  1 11  1  0
  1 12  1  0
  2 13  1  0
  3 14  1  0
  3 15  1  0
  4 16  1  0
  5 17  1  0
  7 18  1  0
  9 19  1  0
M  END
