
     RDKit          3D

 19 20  0  0  0  0  0  0  0  0999 V2000
   -1.7882    1.0518    0.4290 C   0  0  0  0  0  0  0  0  0  0  0  0
   -0.9451    0.2022   -0.4601 C   0  0  0  0  0  0  0  0  0  0  0  0
   -0.5503   -1.0907    0.2172 C   0  0  0  0  0  0  0  0  0  0  0  0
   -0.7290   -2.1778   -0.6646 O   0  0  0  0  0  0  0  0  0  0  0  0
    0.8678   -0.6658    0.2451 C   0  0  0  0  0  0  0  0  0  0  0  0
    1.8086   -1.5825   -0.2007 O   0  0  0  0  0  0  0  0  0  0  0  0
    1.3420    0.6382    0.7013 C   0  0  0  0  0  0  0  0  0  0  0  0
    2.6903    0.9217    0.4614 O   0  0  0  0  0  0  0  0  0  0  0  0
    0.5173    0.5402   -0.5338 C   0  0  0  0  0  0  0  0  0  0  0  0
   -1.2720    1.9610    0.7918 H   0  0  0  0  0  0  0  0  0  0  0  0
   -2.7623    1.3541   -0.0562 H   0  0  0  0  0  0  0  0  0  0  0  0
   -2.1190    0.4720    1.3396 H   0  0  0  0  0  0  0  0  0  0  0  0
   -1.3868    0.1029   -1.4649 H   0  0  0  0  0  0  0  0  0  0  0  0
   -1.0728   -1.2783    1.1489 H   0  0  0  0  0  0  0  0  0  0  0  0
   -1.6197   -2.1549   -1.0626 H   0  0  0  0  0  0  0  0  0  0  0  0
    2.1648   -2.0290    0.6318 H   0  0  0  0  0  0  0  0  0  0  0  0
    0.9522    1.1569    1.5948 H   0  0  0  0  0  0  0  0  0  0  0  0
    2.9630    1.8055    0.7498 H   0  0  0  0  0  0  0  0  0  0  0  0
    0.9394    0.7724   -1.5156 H   0  0  0  0  0  0  0  0  0  0  0  0
  1  2  1  0
  2  3  1  0
  3  4  1  0
  3  5  1  0
  5  6  1  0
  5  7  1  0
  7  8  1  0
  7  9  1  0
  9  2  1  0
  9  5  1  0
  1 10  1  0
  1 11  1  0
  1 12  1  0
  2 13  1  0
  3 14  1  0
  4 15  1  0
  6 16  1  0
  7 17  1  0
  8 18  1  0
  9 19  1  0
M  END
