
     RDKit          3D

 19 20  0  0  0  0  0  0  0  0999 V2000
    2.3763   -0.2194   -0.0643 C   0  0  0  0  0  0  0  0  0  0  0  0
    0.9172   -0.5333   -0.0659 C   0  0  0  0  0  0  0  0  0  0  0  0
    0.1624    0.4105    0.8333 C   0  0  0  0  0  0  0  0  0  0  0  0
   -1.2079   -0.0708    1.1724 C   0  0  0  0  0  0  0  0  0  0  0  0
   -2.1003    0.2719   -0.0295 C   0  0  0  0  0  0  0  0  0  0  0  0
   -1.2573   -0.1241   -1.2112 C   0  0  0  0  0  0  0  0  0  0  0  0
   -1.7120   -0.7091   -2.1742 O   0  0  0  0  0  0  0  0  0  0  0  0
    0.1836    0.2658   -1.0932 C   0  0  0  0  0  0  0  0  0  0  0  0
    0.1991    1.3501   -0.1836 O   0  0  0  0  0  0  0  0  0  0  0  0
    2.6525    0.6156   -0.7349 H   0  0  0  0  0  0  0  0  0  0  0  0
    2.7626    0.0570    0.9560 H   0  0  0  0  0  0  0  0  0  0  0  0
    2.9410   -1.1158   -0.3634 H   0  0  0  0  0  0  0  0  0  0  0  0
    0.6665   -1.5915    0.0197 H   0  0  0  0  0  0  0  0  0  0  0  0
    0.7342    0.7222    1.7377 H   0  0  0  0  0  0  0  0  0  0  0  0
   -1.6164    0.2889    2.1080 H   0  0  0  0  0  0  0  0  0  0  0  0
   -1.1778   -1.1930    1.1911 H   0  0  0  0  0  0  0  0  0  0  0  0
   -2.1639    1.3696   -0.0580 H   0  0  0  0  0  0  0  0  0  0  0  0
   -3.0559   -0.2523    0.0019 H   0  0  0  0  0  0  0  0  0  0  0  0
    0.6961    0.4574   -2.0419 H   0  0  0  0  0  0  0  0  0  0  0  0
  1  2  1  0
  2  3  1  0
  3  4  1  0
  4  5  1  0
  5  6  1  0
  6  7  2  0
  6  8  1  0
  8  9  1  0
  8  2  1  0
  9  3  1  0
  1 10  1  0
  1 11  1  0
  1 12  1  0
  2 13  1  0
  3 14  1  0
  4 15  1  0
  4 16  1  0
  5 17  1  0
  5 18  1  0
  8 19  1  0
M  END
