
     RDKit          3D

 23 24  0  0  0  0  0  0  0  0999 V2000
   -0.8225    1.9817    0.0903 C   0  0  0  0  0  0  0  0  0  0  0  0
   -0.0596    0.7914    0.5672 C   0  0  0  0  0  0  0  0  0  0  0  0
    1.1610    0.5707   -0.3395 C   0  0  0  0  0  0  0  0  0  0  0  0
    2.0780   -0.3426    0.3873 C   0  0  0  0  0  0  0  0  0  0  0  0
    1.4209   -1.6572    0.6015 C   0  0  0  0  0  0  0  0  0  0  0  0
    0.0968   -1.6828    0.5534 C   0  0  0  0  0  0  0  0  0  0  0  0
   -0.5940   -0.5166   -0.0333 C   0  0  0  0  0  0  0  0  0  0  0  0
   -2.0641   -0.5942   -0.1844 C   0  0  0  0  0  0  0  0  0  0  0  0
    0.1935   -0.1475   -1.2814 C   0  0  0  0  0  0  0  0  0  0  0  0
   -0.5300    2.3117   -0.9336 H   0  0  0  0  0  0  0  0  0  0  0  0
   -1.9173    1.8515    0.0992 H   0  0  0  0  0  0  0  0  0  0  0  0
   -0.5844    2.8418    0.7634 H   0  0  0  0  0  0  0  0  0  0  0  0
    0.1548    0.7393    1.6370 H   0  0  0  0  0  0  0  0  0  0  0  0
    1.5679    1.5046   -0.7292 H   0  0  0  0  0  0  0  0  0  0  0  0
    3.0875   -0.4283   -0.0490 H   0  0  0  0  0  0  0  0  0  0  0  0
    2.2353    0.0893    1.4190 H   0  0  0  0  0  0  0  0  0  0  0  0
    2.0172   -2.5650    0.7913 H   0  0  0  0  0  0  0  0  0  0  0  0
   -0.4496   -2.5240    0.9291 H   0  0  0  0  0  0  0  0  0  0  0  0
   -2.5340   -0.2771    0.7919 H   0  0  0  0  0  0  0  0  0  0  0  0
   -2.3648   -1.6295   -0.3474 H   0  0  0  0  0  0  0  0  0  0  0  0
   -2.4132    0.1144   -0.9470 H   0  0  0  0  0  0  0  0  0  0  0  0
   -0.3005    0.5563   -1.9522 H   0  0  0  0  0  0  0  0  0  0  0  0
    0.6211   -0.9879   -1.8337 H   0  0  0  0  0  0  0  0  0  0  0  0
  1  2  1  0
  2  3  1  0
  3  4  1  0
  4  5  1  0
  5  6  2  0
  6  7  1  0
  7  8  1  0
  7  9  1  0
  7  2  1  0
  9  3  1  0
  1 10  1  0
  1 11  1  0
  1 12  1  0
  2 13  1  0
  3 14  1  0
  4 15  1  0
  4 16  1  0
  5 17  1  0
  6 18  1  0
  8 19  1  0
  8 20  1  0
  8 21  1  0
  9 22  1  0
  9 23  1  0
M  END
