
     RDKit          3D

 19 20  0  0  0  0  0  0  0  0999 V2000
    1.6409   -0.9263    0.0518 C   0  0  0  0  0  0  0  0  0  0  0  0
    0.6418   -0.0482   -0.5896 C   0  0  0  0  0  0  0  0  0  0  0  0
    1.0410    1.3726   -0.3699 C   0  0  0  0  0  0  0  0  0  0  0  0
    2.1435    1.8790   -0.3255 O   0  0  0  0  0  0  0  0  0  0  0  0
   -0.2277    2.1139   -0.2030 C   0  0  0  0  0  0  0  0  0  0  0  0
   -1.2393    1.2107   -0.0749 O   0  0  0  0  0  0  0  0  0  0  0  0
   -0.7166   -0.0563    0.0392 C   0  0  0  0  0  0  0  0  0  0  0  0
   -1.1123   -0.9954    1.0905 C   0  0  0  0  0  0  0  0  0  0  0  0
   -1.6865   -1.1683   -0.2512 C   0  0  0  0  0  0  0  0  0  0  0  0
    2.4988   -1.0554   -0.6669 H   0  0  0  0  0  0  0  0  0  0  0  0
    2.0763   -0.4666    0.9600 H   0  0  0  0  0  0  0  0  0  0  0  0
    1.2866   -1.9350    0.3250 H   0  0  0  0  0  0  0  0  0  0  0  0
    0.5715   -0.1946   -1.7063 H   0  0  0  0  0  0  0  0  0  0  0  0
   -0.2316    2.7633    0.7113 H   0  0  0  0  0  0  0  0  0  0  0  0
   -0.3291    2.7797   -1.1005 H   0  0  0  0  0  0  0  0  0  0  0  0
   -0.4043   -1.7481    1.4512 H   0  0  0  0  0  0  0  0  0  0  0  0
   -1.7698   -0.5981    1.9140 H   0  0  0  0  0  0  0  0  0  0  0  0
   -2.7838   -0.9276   -0.3382 H   0  0  0  0  0  0  0  0  0  0  0  0
   -1.3994   -1.9994   -0.9170 H   0  0  0  0  0  0  0  0  0  0  0  0
  1  2  1  0
  2  3  1  0
  3  4  2  0
  3  5  1  0
  5  6  1  0
  6  7  1  0
  7  8  1  0
  8  9  1  0
  7  2  1  0
  9  7  1  0
  1 10  1  0
  1 11  1  0
  1 12  1  0
  2 13  1  0
  5 14  1  0
  5 15  1  0
  8 16  1  0
  8 17  1  0
  9 18  1  0
  9 19  1  0
M  END
