
     RDKit          3D

 19 20  0  0  0  0  0  0  0  0999 V2000
   -2.0828   -0.6175   -0.2828 C   0  0  0  0  0  0  0  0  0  0  0  0
   -1.2608    0.0666    0.7503 C   0  0  0  0  0  0  0  0  0  0  0  0
   -0.9467    1.4971    0.2889 C   0  0  0  0  0  0  0  0  0  0  0  0
    0.3968    1.3189    0.8916 C   0  0  0  0  0  0  0  0  0  0  0  0
    1.2735    2.0159    1.3152 O   0  0  0  0  0  0  0  0  0  0  0  0
    0.2012   -0.1402    0.7484 C   0  0  0  0  0  0  0  0  0  0  0  0
    0.8348   -1.0273    1.5731 O   0  0  0  0  0  0  0  0  0  0  0  0
    1.0461   -0.9675    0.0941 C   0  0  0  0  0  0  0  0  0  0  0  0
    2.4830   -0.5484   -0.2408 C   0  0  0  0  0  0  0  0  0  0  0  0
   -3.1557   -0.5819    0.0682 H   0  0  0  0  0  0  0  0  0  0  0  0
   -2.1028   -0.0704   -1.2621 H   0  0  0  0  0  0  0  0  0  0  0  0
   -1.8403   -1.6631   -0.4716 H   0  0  0  0  0  0  0  0  0  0  0  0
   -1.7142    0.1415    1.7727 H   0  0  0  0  0  0  0  0  0  0  0  0
   -1.5950    2.2501    0.7316 H   0  0  0  0  0  0  0  0  0  0  0  0
   -0.8776    1.5314   -0.8307 H   0  0  0  0  0  0  0  0  0  0  0  0
    0.7970   -1.9806   -0.3042 H   0  0  0  0  0  0  0  0  0  0  0  0
    3.0003   -1.2932   -0.8499 H   0  0  0  0  0  0  0  0  0  0  0  0
    2.4618    0.4542   -0.7603 H   0  0  0  0  0  0  0  0  0  0  0  0
    3.0814   -0.3855    0.6719 H   0  0  0  0  0  0  0  0  0  0  0  0
  1  2  1  0
  2  3  1  0
  3  4  1  0
  4  5  2  0
  4  6  1  0
  6  7  1  0
  7  8  1  0
  8  9  1  0
  6  2  1  0
  8  6  1  0
  1 10  1  0
  1 11  1  0
  1 12  1  0
  2 13  1  0
  3 14  1  0
  3 15  1  0
  8 16  1  0
  9 17  1  0
  9 18  1  0
  9 19  1  0
M  END
