
     RDKit          3D

 20 21  0  0  0  0  0  0  0  0999 V2000
    2.5966    0.6826    0.5532 C   0  0  0  0  0  0  0  0  0  0  0  0
    1.6487    0.1760   -0.5519 C   0  0  0  0  0  0  0  0  0  0  0  0
    0.7897   -0.9304   -0.3336 C   0  0  0  0  0  0  0  0  0  0  0  0
   -0.6723   -1.0920   -0.7753 C   0  0  0  0  0  0  0  0  0  0  0  0
   -0.8227   -0.0492    0.3580 C   0  0  0  0  0  0  0  0  0  0  0  0
   -2.1398    0.6147    0.2509 C   0  0  0  0  0  0  0  0  0  0  0  0
   -3.1358   -0.3823    0.3677 O   0  0  0  0  0  0  0  0  0  0  0  0
    0.2975    0.5780   -0.4562 C   0  0  0  0  0  0  0  0  0  0  0  0
    3.2259    1.5037    0.1772 H   0  0  0  0  0  0  0  0  0  0  0  0
    3.2680   -0.1233    0.8830 H   0  0  0  0  0  0  0  0  0  0  0  0
    1.9981    1.0817    1.4064 H   0  0  0  0  0  0  0  0  0  0  0  0
    2.2123    0.1849   -1.5350 H   0  0  0  0  0  0  0  0  0  0  0  0
    0.8159   -1.3066    0.7405 H   0  0  0  0  0  0  0  0  0  0  0  0
   -0.8473   -0.6966   -1.7725 H   0  0  0  0  0  0  0  0  0  0  0  0
   -1.1353   -2.0160   -0.4744 H   0  0  0  0  0  0  0  0  0  0  0  0
   -0.5395   -0.4572    1.3223 H   0  0  0  0  0  0  0  0  0  0  0  0
   -2.2842    1.4105    0.9959 H   0  0  0  0  0  0  0  0  0  0  0  0
   -2.2422    1.0567   -0.7613 H   0  0  0  0  0  0  0  0  0  0  0  0
   -2.8604   -1.0467    1.0738 H   0  0  0  0  0  0  0  0  0  0  0  0
   -0.1732    0.8115   -1.4686 H   0  0  0  0  0  0  0  0  0  0  0  0
  1  2  1  0
  2  3  1  0
  3  4  1  0
  4  5  1  0
  5  6  1  0
  6  7  1  0
  5  8  1  0
  8  2  1  0
  8  3  1  0
  1  9  1  0
  1 10  1  0
  1 11  1  0
  2 12  1  0
  3 13  1  0
  4 14  1  0
  4 15  1  0
  5 16  1  0
  6 17  1  0
  6 18  1  0
  7 19  1  0
  8 20  1  0
M  END
