
     RDKit          3D

 22 23  0  0  0  0  0  0  0  0999 V2000
    2.5606   -0.0931    0.4646 C   0  0  0  0  0  0  0  0  0  0  0  0
    1.3050   -0.2693   -0.3358 C   0  0  0  0  0  0  0  0  0  0  0  0
    0.4937   -1.3869    0.2540 C   0  0  0  0  0  0  0  0  0  0  0  0
   -0.9342   -0.9245    0.2824 C   0  0  0  0  0  0  0  0  0  0  0  0
   -1.5367   -0.6296   -1.0481 C   0  0  0  0  0  0  0  0  0  0  0  0
   -1.0019    0.4623   -0.2267 C   0  0  0  0  0  0  0  0  0  0  0  0
   -2.0282    1.4175    0.3838 C   0  0  0  0  0  0  0  0  0  0  0  0
    0.4032    0.9437   -0.2998 C   0  0  0  0  0  0  0  0  0  0  0  0
    2.7841   -1.0472    1.0079 H   0  0  0  0  0  0  0  0  0  0  0  0
    2.4467    0.7176    1.2147 H   0  0  0  0  0  0  0  0  0  0  0  0
    3.4255    0.0798   -0.2071 H   0  0  0  0  0  0  0  0  0  0  0  0
    1.5444   -0.4418   -1.4200 H   0  0  0  0  0  0  0  0  0  0  0  0
    0.5335   -2.2437   -0.4787 H   0  0  0  0  0  0  0  0  0  0  0  0
    0.8637   -1.7655    1.2083 H   0  0  0  0  0  0  0  0  0  0  0  0
   -1.5703   -1.1318    1.1699 H   0  0  0  0  0  0  0  0  0  0  0  0
   -1.0043   -1.0236   -1.9500 H   0  0  0  0  0  0  0  0  0  0  0  0
   -2.6289   -0.7158   -1.1385 H   0  0  0  0  0  0  0  0  0  0  0  0
   -1.5343    2.2804    0.8823 H   0  0  0  0  0  0  0  0  0  0  0  0
   -2.7684    1.7377   -0.3869 H   0  0  0  0  0  0  0  0  0  0  0  0
   -2.5364    0.8555    1.2077 H   0  0  0  0  0  0  0  0  0  0  0  0
    0.5912    1.5866    0.5940 H   0  0  0  0  0  0  0  0  0  0  0  0
    0.5919    1.5921   -1.1781 H   0  0  0  0  0  0  0  0  0  0  0  0
  1  2  1  0
  2  3  1  0
  3  4  1  0
  4  5  1  0
  5  6  1  0
  6  7  1  0
  6  8  1  0
  8  2  1  0
  6  4  1  0
  1  9  1  0
  1 10  1  0
  1 11  1  0
  2 12  1  0
  3 13  1  0
  3 14  1  0
  4 15  1  0
  5 16  1  0
  5 17  1  0
  7 18  1  0
  7 19  1  0
  7 20  1  0
  8 21  1  0
  8 22  1  0
M  END
