
     RDKit          3D

 23 25  0  0  0  0  0  0  0  0999 V2000
    1.5420   -1.3297    0.3550 C   0  0  0  0  0  0  0  0  0  0  0  0
    0.3846   -0.8418   -0.4416 C   0  0  0  0  0  0  0  0  0  0  0  0
   -0.9522   -1.2683    0.0737 C   0  0  0  0  0  0  0  0  0  0  0  0
   -1.8708   -0.3757   -0.7753 C   0  0  0  0  0  0  0  0  0  0  0  0
   -1.2275    0.7402    0.0559 C   0  0  0  0  0  0  0  0  0  0  0  0
   -1.2741   -0.2893    1.1946 C   0  0  0  0  0  0  0  0  0  0  0  0
    0.2014    0.6809   -0.3130 C   0  0  0  0  0  0  0  0  0  0  0  0
    1.1477    1.4701    0.4750 C   0  0  0  0  0  0  0  0  0  0  0  0
    0.9804    1.6268   -1.0414 C   0  0  0  0  0  0  0  0  0  0  0  0
    2.4713   -1.0823   -0.1966 H   0  0  0  0  0  0  0  0  0  0  0  0
    1.4891   -2.4184    0.4367 H   0  0  0  0  0  0  0  0  0  0  0  0
    1.6262   -0.8674    1.3563 H   0  0  0  0  0  0  0  0  0  0  0  0
    0.4936   -1.1137   -1.4922 H   0  0  0  0  0  0  0  0  0  0  0  0
   -1.2100   -2.2826    0.1837 H   0  0  0  0  0  0  0  0  0  0  0  0
   -2.9373   -0.5386   -0.5751 H   0  0  0  0  0  0  0  0  0  0  0  0
   -1.5869   -0.3595   -1.8415 H   0  0  0  0  0  0  0  0  0  0  0  0
   -1.7589    1.6418    0.1804 H   0  0  0  0  0  0  0  0  0  0  0  0
   -2.3027   -0.3515    1.5638 H   0  0  0  0  0  0  0  0  0  0  0  0
   -0.4812   -0.1683    1.9385 H   0  0  0  0  0  0  0  0  0  0  0  0
    0.7475    2.2658    1.1211 H   0  0  0  0  0  0  0  0  0  0  0  0
    2.1013    1.0463    0.8201 H   0  0  0  0  0  0  0  0  0  0  0  0
    0.5670    2.5712   -1.4290 H   0  0  0  0  0  0  0  0  0  0  0  0
    1.8496    1.2441   -1.6490 H   0  0  0  0  0  0  0  0  0  0  0  0
  1  2  1  0
  2  3  1  0
  3  4  1  0
  4  5  1  0
  5  6  1  0
  5  7  1  0
  7  8  1  0
  8  9  1  0
  7  2  1  0
  6  3  1  0
  9  7  1  0
  1 10  1  0
  1 11  1  0
  1 12  1  0
  2 13  1  0
  3 14  1  0
  4 15  1  0
  4 16  1  0
  5 17  1  0
  6 18  1  0
  6 19  1  0
  8 20  1  0
  8 21  1  0
  9 22  1  0
  9 23  1  0
M  END
