
     RDKit          3D

 23 24  0  0  0  0  0  0  0  0999 V2000
    2.8421    0.5412    0.0830 C   0  0  0  0  0  0  0  0  0  0  0  0
    1.4513    0.0535    0.3534 C   0  0  0  0  0  0  0  0  0  0  0  0
    0.7795   -0.5834   -0.8504 C   0  0  0  0  0  0  0  0  0  0  0  0
   -0.1347   -1.7389   -0.4887 C   0  0  0  0  0  0  0  0  0  0  0  0
   -1.2791   -1.1526    0.2776 C   0  0  0  0  0  0  0  0  0  0  0  0
   -1.0759    0.3231    0.3700 C   0  0  0  0  0  0  0  0  0  0  0  0
   -2.2241    1.0375   -0.2585 C   0  0  0  0  0  0  0  0  0  0  0  0
   -0.9964    0.7285    1.7216 O   0  0  0  0  0  0  0  0  0  0  0  0
    0.2575    0.6431   -0.2477 C   0  0  0  0  0  0  0  0  0  0  0  0
    2.9890    1.6132    0.3424 H   0  0  0  0  0  0  0  0  0  0  0  0
    3.1681    0.3519   -0.9814 H   0  0  0  0  0  0  0  0  0  0  0  0
    3.5595   -0.0546    0.6984 H   0  0  0  0  0  0  0  0  0  0  0  0
    1.3115   -0.4224    1.3560 H   0  0  0  0  0  0  0  0  0  0  0  0
    1.3257   -0.6101   -1.8162 H   0  0  0  0  0  0  0  0  0  0  0  0
    0.4751   -2.3909    0.2035 H   0  0  0  0  0  0  0  0  0  0  0  0
   -0.4110   -2.2516   -1.4109 H   0  0  0  0  0  0  0  0  0  0  0  0
   -2.2179   -1.4185   -0.2729 H   0  0  0  0  0  0  0  0  0  0  0  0
   -1.3822   -1.5710    1.3095 H   0  0  0  0  0  0  0  0  0  0  0  0
   -2.8207    1.6241    0.4933 H   0  0  0  0  0  0  0  0  0  0  0  0
   -2.9604    0.3011   -0.6847 H   0  0  0  0  0  0  0  0  0  0  0  0
   -1.9600    1.7087   -1.0838 H   0  0  0  0  0  0  0  0  0  0  0  0
   -0.9808    1.7112    1.7783 H   0  0  0  0  0  0  0  0  0  0  0  0
    0.2840    1.5570   -0.8918 H   0  0  0  0  0  0  0  0  0  0  0  0
  1  2  1  0
  2  3  1  0
  3  4  1  0
  4  5  1  0
  5  6  1  0
  6  7  1  0
  6  8  1  0
  6  9  1  0
  9  2  1  0
  9  3  1  0
  1 10  1  0
  1 11  1  0
  1 12  1  0
  2 13  1  0
  3 14  1  0
  4 15  1  0
  4 16  1  0
  5 17  1  0
  5 18  1  0
  7 19  1  0
  7 20  1  0
  7 21  1  0
  8 22  1  0
  9 23  1  0
M  END
