
     RDKit          3D

 19 20  0  0  0  0  0  0  0  0999 V2000
   -1.4122   -1.3573   -0.3323 C   0  0  0  0  0  0  0  0  0  0  0  0
   -0.5518   -0.1651   -0.5691 C   0  0  0  0  0  0  0  0  0  0  0  0
   -1.0689    1.0333    0.1890 C   0  0  0  0  0  0  0  0  0  0  0  0
   -0.5812    0.3731    1.3457 O   0  0  0  0  0  0  0  0  0  0  0  0
    0.4839   -0.0282    0.5234 C   0  0  0  0  0  0  0  0  0  0  0  0
    1.2704   -1.1890    0.9104 C   0  0  0  0  0  0  0  0  0  0  0  0
    1.1949    1.3000    0.3041 C   0  0  0  0  0  0  0  0  0  0  0  0
   -0.0423    2.0833    0.0302 C   0  0  0  0  0  0  0  0  0  0  0  0
   -0.1975    3.2252   -0.2411 O   0  0  0  0  0  0  0  0  0  0  0  0
   -1.7665   -1.3008    0.7384 H   0  0  0  0  0  0  0  0  0  0  0  0
   -2.2876   -1.4434   -0.9676 H   0  0  0  0  0  0  0  0  0  0  0  0
   -0.7645   -2.2736   -0.3783 H   0  0  0  0  0  0  0  0  0  0  0  0
   -0.2002    0.0187   -1.5848 H   0  0  0  0  0  0  0  0  0  0  0  0
   -2.0991    1.2740    0.1570 H   0  0  0  0  0  0  0  0  0  0  0  0
    2.2284   -0.8549    1.3821 H   0  0  0  0  0  0  0  0  0  0  0  0
    1.5732   -1.7627    0.0084 H   0  0  0  0  0  0  0  0  0  0  0  0
    0.6899   -1.8259    1.6135 H   0  0  0  0  0  0  0  0  0  0  0  0
    1.6467    1.6212    1.2619 H   0  0  0  0  0  0  0  0  0  0  0  0
    1.8843    1.2722   -0.5364 H   0  0  0  0  0  0  0  0  0  0  0  0
  1  2  1  0
  2  3  1  0
  3  4  1  0
  4  5  1  0
  5  6  1  0
  5  7  1  0
  7  8  1  0
  8  9  2  0
  5  2  1  0
  8  3  1  0
  1 10  1  0
  1 11  1  0
  1 12  1  0
  2 13  1  0
  3 14  1  0
  6 15  1  0
  6 16  1  0
  6 17  1  0
  7 18  1  0
  7 19  1  0
M  END
