
     RDKit          3D

 22 22  0  0  0  0  0  0  0  0999 V2000
    2.6933   -0.4420    0.2513 C   0  0  0  0  0  0  0  0  0  0  0  0
    1.2420   -0.7443    0.0864 C   0  0  0  0  0  0  0  0  0  0  0  0
    0.3034    0.0285    1.0065 C   0  0  0  0  0  0  0  0  0  0  0  0
   -0.6458    0.1303   -0.1641 C   0  0  0  0  0  0  0  0  0  0  0  0
   -1.5779   -1.0467   -0.1883 C   0  0  0  0  0  0  0  0  0  0  0  0
   -1.3753    1.4289   -0.2956 C   0  0  0  0  0  0  0  0  0  0  0  0
   -2.1337    1.6226    0.8667 O   0  0  0  0  0  0  0  0  0  0  0  0
    0.5659   -0.0061   -1.0740 C   0  0  0  0  0  0  0  0  0  0  0  0
    3.1259   -1.2025    0.9324 H   0  0  0  0  0  0  0  0  0  0  0  0
    3.1831   -0.5989   -0.7500 H   0  0  0  0  0  0  0  0  0  0  0  0
    2.9178    0.5400    0.6741 H   0  0  0  0  0  0  0  0  0  0  0  0
    1.0110   -1.8203    0.0531 H   0  0  0  0  0  0  0  0  0  0  0  0
    0.6908    1.0095    1.3060 H   0  0  0  0  0  0  0  0  0  0  0  0
   -0.0453   -0.6247    1.8425 H   0  0  0  0  0  0  0  0  0  0  0  0
   -2.0098   -1.1346    0.8514 H   0  0  0  0  0  0  0  0  0  0  0  0
   -1.0757   -1.9769   -0.4804 H   0  0  0  0  0  0  0  0  0  0  0  0
   -2.4500   -0.8025   -0.8389 H   0  0  0  0  0  0  0  0  0  0  0  0
   -2.0989    1.3259   -1.1288 H   0  0  0  0  0  0  0  0  0  0  0  0
   -0.7214    2.3009   -0.4532 H   0  0  0  0  0  0  0  0  0  0  0  0
   -3.0996    1.7230    0.6715 H   0  0  0  0  0  0  0  0  0  0  0  0
    1.0514    0.9637   -1.2422 H   0  0  0  0  0  0  0  0  0  0  0  0
    0.4488   -0.6738   -1.9266 H   0  0  0  0  0  0  0  0  0  0  0  0
  1  2  1  0
  2  3  1  0
  3  4  1  0
  4  5  1  0
  4  6  1  0
  6  7  1  0
  4  8  1  0
  8  2  1  0
  1  9  1  0
  1 10  1  0
  1 11  1  0
  2 12  1  0
  3 13  1  0
  3 14  1  0
  5 15  1  0
  5 16  1  0
  5 17  1  0
  6 18  1  0
  6 19  1  0
  7 20  1  0
  8 21  1  0
  8 22  1  0
M  END
