
     RDKit          3D

 23 24  0  0  0  0  0  0  0  0999 V2000
    1.5408   -1.1959    0.2975 C   0  0  0  0  0  0  0  0  0  0  0  0
    1.0001    0.1787    0.4037 C   0  0  0  0  0  0  0  0  0  0  0  0
    1.8924    1.1239   -0.4162 C   0  0  0  0  0  0  0  0  0  0  0  0
    1.0929    2.2681   -0.4312 O   0  0  0  0  0  0  0  0  0  0  0  0
   -0.1710    1.8498   -0.7536 C   0  0  0  0  0  0  0  0  0  0  0  0
   -0.3120    0.4139   -0.2500 C   0  0  0  0  0  0  0  0  0  0  0  0
   -1.0383   -0.5457   -1.0570 C   0  0  0  0  0  0  0  0  0  0  0  0
   -1.5963   -0.0245    0.2687 C   0  0  0  0  0  0  0  0  0  0  0  0
   -1.7620   -1.0725    1.3243 C   0  0  0  0  0  0  0  0  0  0  0  0
    2.6423   -1.1282    0.0619 H   0  0  0  0  0  0  0  0  0  0  0  0
    1.5112   -1.6929    1.3102 H   0  0  0  0  0  0  0  0  0  0  0  0
    1.1015   -1.8156   -0.4812 H   0  0  0  0  0  0  0  0  0  0  0  0
    0.9474    0.4971    1.4591 H   0  0  0  0  0  0  0  0  0  0  0  0
    1.9448    0.6581   -1.4277 H   0  0  0  0  0  0  0  0  0  0  0  0
    2.8555    1.2734    0.0632 H   0  0  0  0  0  0  0  0  0  0  0  0
   -0.3796    1.8331   -1.8431 H   0  0  0  0  0  0  0  0  0  0  0  0
   -0.9570    2.5063   -0.2960 H   0  0  0  0  0  0  0  0  0  0  0  0
   -1.5930   -0.1599   -1.9598 H   0  0  0  0  0  0  0  0  0  0  0  0
   -0.8194   -1.6171   -1.1400 H   0  0  0  0  0  0  0  0  0  0  0  0
   -2.4372    0.7178    0.2116 H   0  0  0  0  0  0  0  0  0  0  0  0
   -2.6651   -1.6776    1.0424 H   0  0  0  0  0  0  0  0  0  0  0  0
   -1.8866   -0.6094    2.3186 H   0  0  0  0  0  0  0  0  0  0  0  0
   -0.9115   -1.7809    1.2948 H   0  0  0  0  0  0  0  0  0  0  0  0
  1  2  1  0
  2  3  1  0
  3  4  1  0
  4  5  1  0
  5  6  1  0
  6  7  1  0
  7  8  1  0
  8  9  1  0
  6  2  1  0
  8  6  1  0
  1 10  1  0
  1 11  1  0
  1 12  1  0
  2 13  1  0
  3 14  1  0
  3 15  1  0
  5 16  1  0
  5 17  1  0
  7 18  1  0
  7 19  1  0
  8 20  1  0
  9 21  1  0
  9 22  1  0
  9 23  1  0
M  END
