
     RDKit          3D

 21 23  0  0  0  0  0  0  0  0999 V2000
    2.3235   -0.1613    0.1226 C   0  0  0  0  0  0  0  0  0  0  0  0
    0.9312    0.0359   -0.4033 C   0  0  0  0  0  0  0  0  0  0  0  0
    0.2123    1.1833    0.2288 C   0  0  0  0  0  0  0  0  0  0  0  0
   -0.7139    2.1417   -0.1896 C   0  0  0  0  0  0  0  0  0  0  0  0
   -1.1070    0.8328   -0.5754 C   0  0  0  0  0  0  0  0  0  0  0  0
   -1.3533   -0.4158    0.1393 C   0  0  0  0  0  0  0  0  0  0  0  0
   -2.0370   -0.4711    1.3428 O   0  0  0  0  0  0  0  0  0  0  0  0
   -1.0126   -1.7342   -0.5572 C   0  0  0  0  0  0  0  0  0  0  0  0
    0.0641   -1.1000    0.1644 C   0  0  0  0  0  0  0  0  0  0  0  0
    2.7757   -0.9987   -0.4739 H   0  0  0  0  0  0  0  0  0  0  0  0
    2.9469    0.7592   -0.0511 H   0  0  0  0  0  0  0  0  0  0  0  0
    2.2898   -0.4326    1.1855 H   0  0  0  0  0  0  0  0  0  0  0  0
    0.8833    0.0721   -1.4983 H   0  0  0  0  0  0  0  0  0  0  0  0
    0.1670    0.9672    1.3440 H   0  0  0  0  0  0  0  0  0  0  0  0
   -0.4046    2.9001   -0.9473 H   0  0  0  0  0  0  0  0  0  0  0  0
   -1.3955    2.6576    0.5484 H   0  0  0  0  0  0  0  0  0  0  0  0
   -0.9594    0.6535   -1.6874 H   0  0  0  0  0  0  0  0  0  0  0  0
   -1.5994   -1.0548    2.0192 H   0  0  0  0  0  0  0  0  0  0  0  0
   -1.4036   -2.6693   -0.1805 H   0  0  0  0  0  0  0  0  0  0  0  0
   -0.9760   -1.6616   -1.6829 H   0  0  0  0  0  0  0  0  0  0  0  0
    0.3687   -1.5042    1.1519 H   0  0  0  0  0  0  0  0  0  0  0  0
  1  2  1  0
  2  3  1  0
  3  4  1  0
  4  5  1  0
  5  6  1  0
  6  7  1  0
  6  8  1  0
  8  9  1  0
  9  2  1  0
  5  3  1  0
  9  6  1  0
  1 10  1  0
  1 11  1  0
  1 12  1  0
  2 13  1  0
  3 14  1  0
  4 15  1  0
  4 16  1  0
  5 17  1  0
  7 18  1  0
  8 19  1  0
  8 20  1  0
  9 21  1  0
M  END
