
     RDKit          3D

 25 26  0  0  0  0  0  0  0  0999 V2000
    2.0873   -0.6072    1.1214 C   0  0  0  0  0  0  0  0  0  0  0  0
    1.5109   -0.1462   -0.1686 C   0  0  0  0  0  0  0  0  0  0  0  0
    0.9725   -1.2090   -1.0863 C   0  0  0  0  0  0  0  0  0  0  0  0
   -0.2511   -0.3207   -1.2437 C   0  0  0  0  0  0  0  0  0  0  0  0
   -1.0900   -0.1125   -0.0295 C   0  0  0  0  0  0  0  0  0  0  0  0
   -2.3676    0.6186   -0.3269 C   0  0  0  0  0  0  0  0  0  0  0  0
   -1.1940   -1.1590    1.0387 C   0  0  0  0  0  0  0  0  0  0  0  0
    0.2145    0.5634   -0.1477 C   0  0  0  0  0  0  0  0  0  0  0  0
    0.2467    2.0440   -0.2540 C   0  0  0  0  0  0  0  0  0  0  0  0
    3.1655   -0.3128    1.2393 H   0  0  0  0  0  0  0  0  0  0  0  0
    1.5815   -0.1611    2.0208 H   0  0  0  0  0  0  0  0  0  0  0  0
    2.0731   -1.7207    1.2476 H   0  0  0  0  0  0  0  0  0  0  0  0
    2.2762    0.4600   -0.7364 H   0  0  0  0  0  0  0  0  0  0  0  0
    1.4774   -1.2903   -2.0774 H   0  0  0  0  0  0  0  0  0  0  0  0
    0.7533   -2.1882   -0.6084 H   0  0  0  0  0  0  0  0  0  0  0  0
   -0.5050    0.0876   -2.2189 H   0  0  0  0  0  0  0  0  0  0  0  0
   -2.2662    1.4302   -1.0553 H   0  0  0  0  0  0  0  0  0  0  0  0
   -2.8380    0.9243    0.6272 H   0  0  0  0  0  0  0  0  0  0  0  0
   -3.0981   -0.1088   -0.7896 H   0  0  0  0  0  0  0  0  0  0  0  0
   -2.1678   -1.7018    1.0156 H   0  0  0  0  0  0  0  0  0  0  0  0
   -0.3253   -1.8345    1.0869 H   0  0  0  0  0  0  0  0  0  0  0  0
   -1.2042   -0.6139    2.0293 H   0  0  0  0  0  0  0  0  0  0  0  0
   -0.7288    2.5393   -0.3008 H   0  0  0  0  0  0  0  0  0  0  0  0
    0.9391    2.3881   -1.0720 H   0  0  0  0  0  0  0  0  0  0  0  0
    0.7380    2.4311    0.6887 H   0  0  0  0  0  0  0  0  0  0  0  0
  1  2  1  0
  2  3  1  0
  3  4  1  0
  4  5  1  0
  5  6  1  0
  5  7  1  0
  5  8  1  0
  8  9  1  0
  8  2  1  0
  8  4  1  0
  1 10  1  0
  1 11  1  0
  1 12  1  0
  2 13  1  0
  3 14  1  0
  3 15  1  0
  4 16  1  0
  6 17  1  0
  6 18  1  0
  6 19  1  0
  7 20  1  0
  7 21  1  0
  7 22  1  0
  9 23  1  0
  9 24  1  0
  9 25  1  0
M  END
