
     RDKit          3D

 21 23  0  0  0  0  0  0  0  0999 V2000
   -2.5719    1.1121    0.5603 C   0  0  0  0  0  0  0  0  0  0  0  0
   -1.5858    0.4647   -0.4166 C   0  0  0  0  0  0  0  0  0  0  0  0
   -1.7741   -1.0324   -0.5302 C   0  0  0  0  0  0  0  0  0  0  0  0
   -0.5560   -0.4022    0.1618 C   0  0  0  0  0  0  0  0  0  0  0  0
    0.7407   -0.7107   -0.5163 C   0  0  0  0  0  0  0  0  0  0  0  0
    1.5268   -1.5652    0.2713 O   0  0  0  0  0  0  0  0  0  0  0  0
    2.6167   -0.7352    0.2792 C   0  0  0  0  0  0  0  0  0  0  0  0
    2.5475    0.6718    0.7381 C   0  0  0  0  0  0  0  0  0  0  0  0
    1.7929    0.3494   -0.4881 C   0  0  0  0  0  0  0  0  0  0  0  0
   -2.3786    2.1913    0.6321 H   0  0  0  0  0  0  0  0  0  0  0  0
   -3.6064    0.8579    0.2527 H   0  0  0  0  0  0  0  0  0  0  0  0
   -2.4287    0.6806    1.5831 H   0  0  0  0  0  0  0  0  0  0  0  0
   -1.4336    1.0581   -1.3356 H   0  0  0  0  0  0  0  0  0  0  0  0
   -2.5215   -1.5393    0.0999 H   0  0  0  0  0  0  0  0  0  0  0  0
   -1.6280   -1.4687   -1.5389 H   0  0  0  0  0  0  0  0  0  0  0  0
   -0.5726   -0.5451    1.2820 H   0  0  0  0  0  0  0  0  0  0  0  0
    0.6470   -1.1899   -1.5333 H   0  0  0  0  0  0  0  0  0  0  0  0
    3.5373   -1.0726   -0.2412 H   0  0  0  0  0  0  0  0  0  0  0  0
    1.9487    0.9755    1.6140 H   0  0  0  0  0  0  0  0  0  0  0  0
    3.4687    1.2623    0.6135 H   0  0  0  0  0  0  0  0  0  0  0  0
    2.2308    0.6378   -1.4879 H   0  0  0  0  0  0  0  0  0  0  0  0
  1  2  1  0
  2  3  1  0
  3  4  1  0
  4  5  1  0
  5  6  1  0
  6  7  1  0
  7  8  1  0
  8  9  1  0
  4  2  1  0
  9  5  1  0
  9  7  1  0
  1 10  1  0
  1 11  1  0
  1 12  1  0
  2 13  1  0
  3 14  1  0
  3 15  1  0
  4 16  1  0
  5 17  1  0
  7 18  1  0
  8 19  1  0
  8 20  1  0
  9 21  1  0
M  END
