
     RDKit          3D

 14 15  0  0  0  0  0  0  0  0999 V2000
    1.9798    0.0554    0.2099 C   0  0  0  0  0  0  0  0  0  0  0  0
    0.5386   -0.4450    0.4076 C   0  0  0  0  0  0  0  0  0  0  0  0
   -0.5862    0.4589    0.4757 C   0  0  0  0  0  0  0  0  0  0  0  0
   -1.9106    0.2806   -0.2855 C   0  0  0  0  0  0  0  0  0  0  0  0
   -1.0248    0.4639   -1.3826 O   0  0  0  0  0  0  0  0  0  0  0  0
   -0.3173   -0.5411   -0.7217 C   0  0  0  0  0  0  0  0  0  0  0  0
    2.6886   -0.7912    0.3130 H   0  0  0  0  0  0  0  0  0  0  0  0
    2.1267    0.4667   -0.8012 H   0  0  0  0  0  0  0  0  0  0  0  0
    2.1952    0.8090    1.0128 H   0  0  0  0  0  0  0  0  0  0  0  0
    0.5415   -1.2406    1.2074 H   0  0  0  0  0  0  0  0  0  0  0  0
   -0.2615    1.5276    0.2617 H   0  0  0  0  0  0  0  0  0  0  0  0
   -2.5999    1.1032   -0.1119 H   0  0  0  0  0  0  0  0  0  0  0  0
   -2.3790   -0.6920   -0.2033 H   0  0  0  0  0  0  0  0  0  0  0  0
   -0.9910   -1.4553   -0.7188 H   0  0  0  0  0  0  0  0  0  0  0  0
  1  2  1  0
  2  3  1  0
  3  4  1  0
  4  5  1  0
  5  6  1  0
  6  2  1  0
  6  3  1  0
  1  7  1  0
  1  8  1  0
  1  9  1  0
  2 10  1  0
  3 11  1  0
  4 12  1  0
  4 13  1  0
  6 14  1  0
M  END
