
     RDKit          3D

 21 23  0  0  0  0  0  0  0  0999 V2000
    2.4278   -0.7058   -0.0506 C   0  0  0  0  0  0  0  0  0  0  0  0
    1.0287   -0.2689    0.2616 C   0  0  0  0  0  0  0  0  0  0  0  0
   -0.0177   -1.1936   -0.3169 C   0  0  0  0  0  0  0  0  0  0  0  0
   -1.2418   -0.3566   -0.3110 C   0  0  0  0  0  0  0  0  0  0  0  0
   -2.4553   -0.6221    0.2676 C   0  0  0  0  0  0  0  0  0  0  0  0
   -2.2677   -0.9346   -1.1765 O   0  0  0  0  0  0  0  0  0  0  0  0
   -0.7721    0.9802   -0.7734 C   0  0  0  0  0  0  0  0  0  0  0  0
   -0.2306    1.9747    0.2064 C   0  0  0  0  0  0  0  0  0  0  0  0
    0.6865    1.0372   -0.4462 C   0  0  0  0  0  0  0  0  0  0  0  0
    2.5345   -1.7988    0.0261 H   0  0  0  0  0  0  0  0  0  0  0  0
    2.6275   -0.4365   -1.1234 H   0  0  0  0  0  0  0  0  0  0  0  0
    3.1266   -0.1858    0.6301 H   0  0  0  0  0  0  0  0  0  0  0  0
    0.8618   -0.2206    1.3442 H   0  0  0  0  0  0  0  0  0  0  0  0
    0.2268   -1.4508   -1.3887 H   0  0  0  0  0  0  0  0  0  0  0  0
   -0.1180   -2.1010    0.2810 H   0  0  0  0  0  0  0  0  0  0  0  0
   -3.2709    0.1180    0.3274 H   0  0  0  0  0  0  0  0  0  0  0  0
   -2.7069   -1.5761    0.7737 H   0  0  0  0  0  0  0  0  0  0  0  0
   -1.1521    1.4155   -1.7208 H   0  0  0  0  0  0  0  0  0  0  0  0
   -0.5437    1.8665    1.2746 H   0  0  0  0  0  0  0  0  0  0  0  0
   -0.1701    3.0294   -0.1038 H   0  0  0  0  0  0  0  0  0  0  0  0
    1.4268    1.4296   -1.1409 H   0  0  0  0  0  0  0  0  0  0  0  0
  1  2  1  0
  2  3  1  0
  3  4  1  0
  4  5  1  0
  5  6  1  0
  4  7  1  0
  7  8  1  0
  8  9  1  0
  9  2  1  0
  6  4  1  0
  9  7  1  0
  1 10  1  0
  1 11  1  0
  1 12  1  0
  2 13  1  0
  3 14  1  0
  3 15  1  0
  5 16  1  0
  5 17  1  0
  7 18  1  0
  8 19  1  0
  8 20  1  0
  9 21  1  0
M  END
