
     RDKit          3D

 20 21  0  0  0  0  0  0  0  0999 V2000
   -2.2991   -0.5560    0.1540 C   0  0  0  0  0  0  0  0  0  0  0  0
   -1.2026    0.3814   -0.1871 C   0  0  0  0  0  0  0  0  0  0  0  0
   -0.2846    0.7740    0.9675 C   0  0  0  0  0  0  0  0  0  0  0  0
    0.8816    0.4596    0.1108 C   0  0  0  0  0  0  0  0  0  0  0  0
    2.0716   -0.2272    0.7337 C   0  0  0  0  0  0  0  0  0  0  0  0
    1.0083    0.8327   -1.2958 C   0  0  0  0  0  0  0  0  0  0  0  0
    0.0105   -0.1910   -0.8644 C   0  0  0  0  0  0  0  0  0  0  0  0
    0.0893   -1.4991   -1.2265 O   0  0  0  0  0  0  0  0  0  0  0  0
   -2.4877   -1.2454   -0.6933 H   0  0  0  0  0  0  0  0  0  0  0  0
   -2.1656   -1.0461    1.1176 H   0  0  0  0  0  0  0  0  0  0  0  0
   -3.2469    0.0524    0.2440 H   0  0  0  0  0  0  0  0  0  0  0  0
   -1.5140    1.3268   -0.7037 H   0  0  0  0  0  0  0  0  0  0  0  0
   -0.3585    0.0262    1.8095 H   0  0  0  0  0  0  0  0  0  0  0  0
   -0.3407    1.8174    1.2684 H   0  0  0  0  0  0  0  0  0  0  0  0
    2.9384    0.4831    0.5884 H   0  0  0  0  0  0  0  0  0  0  0  0
    2.3514   -1.1412    0.1924 H   0  0  0  0  0  0  0  0  0  0  0  0
    1.8989   -0.3645    1.8106 H   0  0  0  0  0  0  0  0  0  0  0  0
    0.6373    1.8165   -1.6880 H   0  0  0  0  0  0  0  0  0  0  0  0
    1.8594    0.4487   -1.8582 H   0  0  0  0  0  0  0  0  0  0  0  0
    0.1529   -2.1484   -0.4799 H   0  0  0  0  0  0  0  0  0  0  0  0
  1  2  1  0
  2  3  1  0
  3  4  1  0
  4  5  1  0
  4  6  1  0
  6  7  1  0
  7  8  1  0
  7  2  1  0
  7  4  1  0
  1  9  1  0
  1 10  1  0
  1 11  1  0
  2 12  1  0
  3 13  1  0
  3 14  1  0
  5 15  1  0
  5 16  1  0
  5 17  1  0
  6 18  1  0
  6 19  1  0
  8 20  1  0
M  END
