
     RDKit          3D

 20 21  0  0  0  0  0  0  0  0999 V2000
    2.6021   -0.3319    0.2302 C   0  0  0  0  0  0  0  0  0  0  0  0
    1.2486    0.2966    0.3733 C   0  0  0  0  0  0  0  0  0  0  0  0
    0.4034    0.4219   -0.8214 C   0  0  0  0  0  0  0  0  0  0  0  0
   -0.8403    1.2390   -0.8441 C   0  0  0  0  0  0  0  0  0  0  0  0
   -1.9500    0.3472   -0.2674 C   0  0  0  0  0  0  0  0  0  0  0  0
   -1.1749   -0.3105    0.8693 C   0  0  0  0  0  0  0  0  0  0  0  0
   -1.7797   -1.4346    1.3541 O   0  0  0  0  0  0  0  0  0  0  0  0
    0.1163   -0.6664    0.1669 C   0  0  0  0  0  0  0  0  0  0  0  0
    2.6414   -0.8347   -0.7581 H   0  0  0  0  0  0  0  0  0  0  0  0
    3.4156    0.4002    0.3710 H   0  0  0  0  0  0  0  0  0  0  0  0
    2.6918   -1.1685    0.9814 H   0  0  0  0  0  0  0  0  0  0  0  0
    1.1796    1.0576    1.1609 H   0  0  0  0  0  0  0  0  0  0  0  0
    0.9061    0.1667   -1.7964 H   0  0  0  0  0  0  0  0  0  0  0  0
   -1.1513    1.4695   -1.8952 H   0  0  0  0  0  0  0  0  0  0  0  0
   -0.7687    2.1812   -0.2528 H   0  0  0  0  0  0  0  0  0  0  0  0
   -2.8072    0.9239    0.0778 H   0  0  0  0  0  0  0  0  0  0  0  0
   -2.1879   -0.3954   -1.0645 H   0  0  0  0  0  0  0  0  0  0  0  0
   -1.0262    0.4574    1.6447 H   0  0  0  0  0  0  0  0  0  0  0  0
   -1.7991   -2.1385    0.6716 H   0  0  0  0  0  0  0  0  0  0  0  0
    0.2804   -1.6805   -0.2011 H   0  0  0  0  0  0  0  0  0  0  0  0
  1  2  1  0
  2  3  1  0
  3  4  1  0
  4  5  1  0
  5  6  1  0
  6  7  1  0
  6  8  1  0
  8  2  1  0
  8  3  1  0
  1  9  1  0
  1 10  1  0
  1 11  1  0
  2 12  1  0
  3 13  1  0
  4 14  1  0
  4 15  1  0
  5 16  1  0
  5 17  1  0
  6 18  1  0
  7 19  1  0
  8 20  1  0
M  END
