
     RDKit          3D

 21 21  0  0  0  0  0  0  0  0999 V2000
    2.0392    0.3381    0.3051 C   0  0  0  0  0  0  0  0  0  0  0  0
    0.9504   -0.2894   -0.5312 C   0  0  0  0  0  0  0  0  0  0  0  0
    0.0570    0.7552   -1.1808 C   0  0  0  0  0  0  0  0  0  0  0  0
   -0.8931    1.2772   -0.1350 C   0  0  0  0  0  0  0  0  0  0  0  0
   -1.8368    0.0972    0.1470 C   0  0  0  0  0  0  0  0  0  0  0  0
   -0.9796   -0.8598    0.9734 C   0  0  0  0  0  0  0  0  0  0  0  0
    0.1836   -1.3407    0.1846 C   0  0  0  0  0  0  0  0  0  0  0  0
    3.0576   -0.0520    0.0370 H   0  0  0  0  0  0  0  0  0  0  0  0
    1.8959    0.0242    1.3730 H   0  0  0  0  0  0  0  0  0  0  0  0
    2.0865    1.4314    0.2165 H   0  0  0  0  0  0  0  0  0  0  0  0
    1.4800   -0.7959   -1.3920 H   0  0  0  0  0  0  0  0  0  0  0  0
   -0.5273    0.1989   -1.9636 H   0  0  0  0  0  0  0  0  0  0  0  0
    0.6511    1.5178   -1.6691 H   0  0  0  0  0  0  0  0  0  0  0  0
   -0.2656    1.4597    0.7880 H   0  0  0  0  0  0  0  0  0  0  0  0
   -1.4682    2.1494   -0.4400 H   0  0  0  0  0  0  0  0  0  0  0  0
   -2.0751   -0.3854   -0.8397 H   0  0  0  0  0  0  0  0  0  0  0  0
   -2.7330    0.4140    0.6751 H   0  0  0  0  0  0  0  0  0  0  0  0
   -1.6294   -1.7262    1.2097 H   0  0  0  0  0  0  0  0  0  0  0  0
   -0.6979   -0.2901    1.8867 H   0  0  0  0  0  0  0  0  0  0  0  0
   -0.1864   -2.0865   -0.5564 H   0  0  0  0  0  0  0  0  0  0  0  0
    0.8912   -1.8369    0.9117 H   0  0  0  0  0  0  0  0  0  0  0  0
  1  2  1  0
  2  3  1  0
  3  4  1  0
  4  5  1  0
  5  6  1  0
  6  7  1  0
  7  2  1  0
  1  8  1  0
  1  9  1  0
  1 10  1  0
  2 11  1  0
  3 12  1  0
  3 13  1  0
  4 14  1  0
  4 15  1  0
  5 16  1  0
  5 17  1  0
  6 18  1  0
  6 19  1  0
  7 20  1  0
  7 21  1  0
M  END
