
     RDKit          3D

 21 23  0  0  0  0  0  0  0  0999 V2000
   -2.2373   -1.0816    0.1070 C   0  0  0  0  0  0  0  0  0  0  0  0
   -0.9145   -0.6943   -0.4505 C   0  0  0  0  0  0  0  0  0  0  0  0
    0.1780   -0.4882    0.5569 C   0  0  0  0  0  0  0  0  0  0  0  0
    1.5296   -0.2838   -0.0002 C   0  0  0  0  0  0  0  0  0  0  0  0
    2.7305   -0.8168    0.3304 C   0  0  0  0  0  0  0  0  0  0  0  0
    2.0101   -1.4301   -0.8004 O   0  0  0  0  0  0  0  0  0  0  0  0
    1.0761    0.8299   -0.8330 C   0  0  0  0  0  0  0  0  0  0  0  0
   -0.3363    0.6333   -0.2695 C   0  0  0  0  0  0  0  0  0  0  0  0
   -1.0580    1.7954    0.3146 C   0  0  0  0  0  0  0  0  0  0  0  0
   -2.3324   -0.8640    1.2054 H   0  0  0  0  0  0  0  0  0  0  0  0
   -2.3253   -2.2003    0.0277 H   0  0  0  0  0  0  0  0  0  0  0  0
   -3.0363   -0.6194   -0.4805 H   0  0  0  0  0  0  0  0  0  0  0  0
   -0.6075   -1.2623   -1.3654 H   0  0  0  0  0  0  0  0  0  0  0  0
   -0.0234   -0.5516    1.6339 H   0  0  0  0  0  0  0  0  0  0  0  0
    2.8369   -1.5347    1.1857 H   0  0  0  0  0  0  0  0  0  0  0  0
    3.7087   -0.3812    0.0486 H   0  0  0  0  0  0  0  0  0  0  0  0
    1.0267    0.6998   -1.9334 H   0  0  0  0  0  0  0  0  0  0  0  0
    1.4763    1.8468   -0.5953 H   0  0  0  0  0  0  0  0  0  0  0  0
   -1.9909    2.0386   -0.2566 H   0  0  0  0  0  0  0  0  0  0  0  0
   -0.4049    2.6997    0.1980 H   0  0  0  0  0  0  0  0  0  0  0  0
   -1.3063    1.6648    1.3766 H   0  0  0  0  0  0  0  0  0  0  0  0
  1  2  1  0
  2  3  1  0
  3  4  1  0
  4  5  1  0
  5  6  1  0
  4  7  1  0
  7  8  1  0
  8  9  1  0
  8  2  1  0
  8  3  1  0
  6  4  1  0
  1 10  1  0
  1 11  1  0
  1 12  1  0
  2 13  1  0
  3 14  1  0
  5 15  1  0
  5 16  1  0
  7 17  1  0
  7 18  1  0
  9 19  1  0
  9 20  1  0
  9 21  1  0
M  END
