
     RDKit          3D

 21 22  0  0  0  0  0  0  0  0999 V2000
   -1.9154    0.5615   -1.0194 C   0  0  0  0  0  0  0  0  0  0  0  0
   -1.1353    0.4133    0.2355 C   0  0  0  0  0  0  0  0  0  0  0  0
   -1.4194   -0.9184    0.9459 C   0  0  0  0  0  0  0  0  0  0  0  0
   -0.0581   -0.8971    1.3284 O   0  0  0  0  0  0  0  0  0  0  0  0
    0.1976   -0.1572    0.2151 C   0  0  0  0  0  0  0  0  0  0  0  0
    0.7045   -0.8601   -0.9987 C   0  0  0  0  0  0  0  0  0  0  0  0
    2.1099   -0.4585   -0.5183 C   0  0  0  0  0  0  0  0  0  0  0  0
    1.4014    0.7089    0.1871 C   0  0  0  0  0  0  0  0  0  0  0  0
    1.9357    1.0500    1.4069 O   0  0  0  0  0  0  0  0  0  0  0  0
   -2.6485   -0.2842   -1.1124 H   0  0  0  0  0  0  0  0  0  0  0  0
   -2.4655    1.5461   -0.9692 H   0  0  0  0  0  0  0  0  0  0  0  0
   -1.3379    0.5833   -1.9417 H   0  0  0  0  0  0  0  0  0  0  0  0
   -1.2510    1.2219    0.9978 H   0  0  0  0  0  0  0  0  0  0  0  0
   -1.5699   -1.7325    0.2072 H   0  0  0  0  0  0  0  0  0  0  0  0
   -2.1337   -0.8353    1.7591 H   0  0  0  0  0  0  0  0  0  0  0  0
    0.5143   -0.2726   -1.9385 H   0  0  0  0  0  0  0  0  0  0  0  0
    0.5383   -1.9346   -1.0725 H   0  0  0  0  0  0  0  0  0  0  0  0
    2.4720   -1.1506    0.2601 H   0  0  0  0  0  0  0  0  0  0  0  0
    2.7975   -0.1691   -1.3086 H   0  0  0  0  0  0  0  0  0  0  0  0
    1.3173    1.5375   -0.5629 H   0  0  0  0  0  0  0  0  0  0  0  0
    1.9463    2.0478    1.4899 H   0  0  0  0  0  0  0  0  0  0  0  0
  1  2  1  0
  2  3  1  0
  3  4  1  0
  4  5  1  0
  5  6  1  0
  6  7  1  0
  7  8  1  0
  8  9  1  0
  5  2  1  0
  8  5  1  0
  1 10  1  0
  1 11  1  0
  1 12  1  0
  2 13  1  0
  3 14  1  0
  3 15  1  0
  6 16  1  0
  6 17  1  0
  7 18  1  0
  7 19  1  0
  8 20  1  0
  9 21  1  0
M  END
