
     RDKit          3D

 21 22  0  0  0  0  0  0  0  0999 V2000
   -1.8386   -1.3570    0.2661 C   0  0  0  0  0  0  0  0  0  0  0  0
   -0.7829   -0.4549   -0.2786 C   0  0  0  0  0  0  0  0  0  0  0  0
   -0.9716    0.9876    0.0136 C   0  0  0  0  0  0  0  0  0  0  0  0
   -1.7368    1.6301   -0.9579 O   0  0  0  0  0  0  0  0  0  0  0  0
    0.4257    1.5486    0.0306 C   0  0  0  0  0  0  0  0  0  0  0  0
    1.3633    0.4463    0.3902 C   0  0  0  0  0  0  0  0  0  0  0  0
    1.7268   -0.6068   -0.5746 C   0  0  0  0  0  0  0  0  0  0  0  0
    2.8249   -1.4022   -0.3488 O   0  0  0  0  0  0  0  0  0  0  0  0
    0.5571   -0.7866    0.3185 C   0  0  0  0  0  0  0  0  0  0  0  0
   -1.5124   -2.4084    0.0109 H   0  0  0  0  0  0  0  0  0  0  0  0
   -2.7975   -1.0983   -0.2327 H   0  0  0  0  0  0  0  0  0  0  0  0
   -1.9535   -1.3345    1.3496 H   0  0  0  0  0  0  0  0  0  0  0  0
   -0.7107   -0.6584   -1.3812 H   0  0  0  0  0  0  0  0  0  0  0  0
   -1.4899    1.1495    0.9790 H   0  0  0  0  0  0  0  0  0  0  0  0
   -1.6762    2.6063   -0.8348 H   0  0  0  0  0  0  0  0  0  0  0  0
    0.6701    2.0676   -0.9081 H   0  0  0  0  0  0  0  0  0  0  0  0
    0.4558    2.3005    0.8659 H   0  0  0  0  0  0  0  0  0  0  0  0
    2.0839    0.5870    1.2374 H   0  0  0  0  0  0  0  0  0  0  0  0
    1.5144   -0.4626   -1.6754 H   0  0  0  0  0  0  0  0  0  0  0  0
    3.2494   -1.3163    0.5124 H   0  0  0  0  0  0  0  0  0  0  0  0
    0.5989   -1.4376    1.2179 H   0  0  0  0  0  0  0  0  0  0  0  0
  1  2  1  0
  2  3  1  0
  3  4  1  0
  3  5  1  0
  5  6  1  0
  6  7  1  0
  7  8  1  0
  7  9  1  0
  9  2  1  0
  9  6  1  0
  1 10  1  0
  1 11  1  0
  1 12  1  0
  2 13  1  0
  3 14  1  0
  4 15  1  0
  5 16  1  0
  5 17  1  0
  6 18  1  0
  7 19  1  0
  8 20  1  0
  9 21  1  0
M  END
