
     RDKit          3D

 23 23  0  0  0  0  0  0  0  0999 V2000
    2.7190   -0.5007   -0.2568 C   0  0  0  0  0  0  0  0  0  0  0  0
    1.2088   -0.2799   -0.4158 C   0  0  0  0  0  0  0  0  0  0  0  0
    0.9348    1.1514   -0.1794 C   0  0  0  0  0  0  0  0  0  0  0  0
   -0.4350    1.5405    0.1698 C   0  0  0  0  0  0  0  0  0  0  0  0
   -1.5368    0.6769   -0.3196 C   0  0  0  0  0  0  0  0  0  0  0  0
   -1.6597   -0.5527    0.5697 C   0  0  0  0  0  0  0  0  0  0  0  0
   -2.9378   -1.0381    0.6459 O   0  0  0  0  0  0  0  0  0  0  0  0
   -0.6666   -1.5697    0.0166 C   0  0  0  0  0  0  0  0  0  0  0  0
    0.5864   -1.1540    0.4384 O   0  0  0  0  0  0  0  0  0  0  0  0
    2.9444   -1.3314    0.4214 H   0  0  0  0  0  0  0  0  0  0  0  0
    3.2077    0.4041    0.1809 H   0  0  0  0  0  0  0  0  0  0  0  0
    3.1999   -0.7022   -1.2360 H   0  0  0  0  0  0  0  0  0  0  0  0
    0.9590   -0.5070   -1.4916 H   0  0  0  0  0  0  0  0  0  0  0  0
    1.2835    1.7239   -1.0864 H   0  0  0  0  0  0  0  0  0  0  0  0
    1.6278    1.5069    0.6387 H   0  0  0  0  0  0  0  0  0  0  0  0
   -0.6225    2.5817   -0.2265 H   0  0  0  0  0  0  0  0  0  0  0  0
   -0.5427    1.6461    1.2761 H   0  0  0  0  0  0  0  0  0  0  0  0
   -2.5024    1.2442   -0.1593 H   0  0  0  0  0  0  0  0  0  0  0  0
   -1.5063    0.4369   -1.3826 H   0  0  0  0  0  0  0  0  0  0  0  0
   -1.3061   -0.2400    1.5816 H   0  0  0  0  0  0  0  0  0  0  0  0
   -3.2844   -0.9777    1.5822 H   0  0  0  0  0  0  0  0  0  0  0  0
   -0.9434   -2.5742    0.3323 H   0  0  0  0  0  0  0  0  0  0  0  0
   -0.7278   -1.4849   -1.1000 H   0  0  0  0  0  0  0  0  0  0  0  0
  1  2  1  0
  2  3  1  0
  3  4  1  0
  4  5  1  0
  5  6  1  0
  6  7  1  0
  6  8  1  0
  8  9  1  0
  9  2  1  0
  1 10  1  0
  1 11  1  0
  1 12  1  0
  2 13  1  0
  3 14  1  0
  3 15  1  0
  4 16  1  0
  4 17  1  0
  5 18  1  0
  5 19  1  0
  6 20  1  0
  7 21  1  0
  8 22  1  0
  8 23  1  0
M  END
