
     RDKit          3D

 24 24  0  0  0  0  0  0  0  0999 V2000
   -2.4483   -0.6899    0.2703 C   0  0  0  0  0  0  0  0  0  0  0  0
   -1.3203   -0.5019   -0.7081 C   0  0  0  0  0  0  0  0  0  0  0  0
   -0.1588   -1.3590   -0.2757 C   0  0  0  0  0  0  0  0  0  0  0  0
    0.7965   -0.4138    0.4671 C   0  0  0  0  0  0  0  0  0  0  0  0
    2.1962   -0.9952    0.3622 C   0  0  0  0  0  0  0  0  0  0  0  0
    0.6590    0.8419   -0.3057 C   0  0  0  0  0  0  0  0  0  0  0  0
    0.9184    2.0913    0.4910 C   0  0  0  0  0  0  0  0  0  0  0  0
   -0.7896    0.8913   -0.7574 C   0  0  0  0  0  0  0  0  0  0  0  0
   -2.6879   -1.7845    0.2733 H   0  0  0  0  0  0  0  0  0  0  0  0
   -2.1441   -0.4578    1.3181 H   0  0  0  0  0  0  0  0  0  0  0  0
   -3.3663   -0.1559    0.0068 H   0  0  0  0  0  0  0  0  0  0  0  0
   -1.7077   -0.7601   -1.7111 H   0  0  0  0  0  0  0  0  0  0  0  0
    0.3783   -1.6786   -1.1818 H   0  0  0  0  0  0  0  0  0  0  0  0
   -0.4675   -2.2044    0.3675 H   0  0  0  0  0  0  0  0  0  0  0  0
    0.5097   -0.3619    1.5237 H   0  0  0  0  0  0  0  0  0  0  0  0
    2.9135   -0.2415   -0.0401 H   0  0  0  0  0  0  0  0  0  0  0  0
    2.2292   -1.8460   -0.3648 H   0  0  0  0  0  0  0  0  0  0  0  0
    2.5161   -1.3804    1.3588 H   0  0  0  0  0  0  0  0  0  0  0  0
    1.3657    0.8202   -1.1545 H   0  0  0  0  0  0  0  0  0  0  0  0
    0.1050    2.2281    1.2568 H   0  0  0  0  0  0  0  0  0  0  0  0
    1.9087    2.1383    0.9497 H   0  0  0  0  0  0  0  0  0  0  0  0
    0.7601    2.9533   -0.2225 H   0  0  0  0  0  0  0  0  0  0  0  0
   -1.3955    1.5714   -0.1258 H   0  0  0  0  0  0  0  0  0  0  0  0
   -0.7704    1.2953   -1.7978 H   0  0  0  0  0  0  0  0  0  0  0  0
  1  2  1  0
  2  3  1  0
  3  4  1  0
  4  5  1  0
  4  6  1  0
  6  7  1  0
  6  8  1  0
  8  2  1  0
  1  9  1  0
  1 10  1  0
  1 11  1  0
  2 12  1  0
  3 13  1  0
  3 14  1  0
  4 15  1  0
  5 16  1  0
  5 17  1  0
  5 18  1  0
  6 19  1  0
  7 20  1  0
  7 21  1  0
  7 22  1  0
  8 23  1  0
  8 24  1  0
M  END
