
     RDKit          3D

 25 26  0  0  0  0  0  0  0  0999 V2000
   -0.1677    2.0962   -0.0466 C   0  0  0  0  0  0  0  0  0  0  0  0
   -0.4947    0.8757    0.7302 C   0  0  0  0  0  0  0  0  0  0  0  0
   -1.9098    0.4074    0.3182 C   0  0  0  0  0  0  0  0  0  0  0  0
   -1.1825   -0.5046   -0.6753 C   0  0  0  0  0  0  0  0  0  0  0  0
   -1.7634   -1.8758   -0.7996 C   0  0  0  0  0  0  0  0  0  0  0  0
   -0.0152   -0.4484    0.3182 C   0  0  0  0  0  0  0  0  0  0  0  0
    1.3236   -0.6949   -0.2195 C   0  0  0  0  0  0  0  0  0  0  0  0
    2.4449   -0.3115    0.7890 C   0  0  0  0  0  0  0  0  0  0  0  0
    2.3605    0.2452   -0.5858 C   0  0  0  0  0  0  0  0  0  0  0  0
    0.6450    2.6729    0.4629 H   0  0  0  0  0  0  0  0  0  0  0  0
   -0.0326    1.9475   -1.1149 H   0  0  0  0  0  0  0  0  0  0  0  0
   -1.0540    2.8004    0.0464 H   0  0  0  0  0  0  0  0  0  0  0  0
   -0.5129    1.0423    1.8188 H   0  0  0  0  0  0  0  0  0  0  0  0
   -2.5083    1.1644   -0.1822 H   0  0  0  0  0  0  0  0  0  0  0  0
   -2.3986   -0.1967    1.0968 H   0  0  0  0  0  0  0  0  0  0  0  0
   -0.9695   -0.0582   -1.6457 H   0  0  0  0  0  0  0  0  0  0  0  0
   -2.7375   -1.8004   -1.3285 H   0  0  0  0  0  0  0  0  0  0  0  0
   -1.0393   -2.5056   -1.3451 H   0  0  0  0  0  0  0  0  0  0  0  0
   -1.8986   -2.3415    0.1975 H   0  0  0  0  0  0  0  0  0  0  0  0
   -0.2653   -1.2082    1.1264 H   0  0  0  0  0  0  0  0  0  0  0  0
    1.4397   -1.7436   -0.6448 H   0  0  0  0  0  0  0  0  0  0  0  0
    3.1421   -1.1184    1.0408 H   0  0  0  0  0  0  0  0  0  0  0  0
    2.1920    0.3693    1.6047 H   0  0  0  0  0  0  0  0  0  0  0  0
    3.1860   -0.1284   -1.2571 H   0  0  0  0  0  0  0  0  0  0  0  0
    2.2160    1.3148   -0.6918 H   0  0  0  0  0  0  0  0  0  0  0  0
  1  2  1  0
  2  3  1  0
  3  4  1  0
  4  5  1  0
  4  6  1  0
  6  7  1  0
  7  8  1  0
  8  9  1  0
  6  2  1  0
  9  7  1  0
  1 10  1  0
  1 11  1  0
  1 12  1  0
  2 13  1  0
  3 14  1  0
  3 15  1  0
  4 16  1  0
  5 17  1  0
  5 18  1  0
  5 19  1  0
  6 20  1  0
  7 21  1  0
  8 22  1  0
  8 23  1  0
  9 24  1  0
  9 25  1  0
M  END
