
     RDKit          3D

 18 19  0  0  0  0  0  0  0  0999 V2000
   -0.8262    1.4537    0.6174 C   0  0  0  0  0  0  0  0  0  0  0  0
   -0.5663    0.4765   -0.4724 C   0  0  0  0  0  0  0  0  0  0  0  0
   -0.9481   -0.9302   -0.1432 C   0  0  0  0  0  0  0  0  0  0  0  0
   -2.0777   -1.4325   -0.7301 O   0  0  0  0  0  0  0  0  0  0  0  0
    0.3692   -1.4422   -0.6259 C   0  0  0  0  0  0  0  0  0  0  0  0
    1.0164   -0.8856   -1.6995 O   0  0  0  0  0  0  0  0  0  0  0  0
    0.8446    0.0151   -0.6645 C   0  0  0  0  0  0  0  0  0  0  0  0
    1.9525    0.4372    0.2133 C   0  0  0  0  0  0  0  0  0  0  0  0
   -0.5606    2.4827    0.3192 H   0  0  0  0  0  0  0  0  0  0  0  0
   -0.3811    1.1697    1.5795 H   0  0  0  0  0  0  0  0  0  0  0  0
   -1.9423    1.4758    0.7853 H   0  0  0  0  0  0  0  0  0  0  0  0
   -1.0171    0.7885   -1.4274 H   0  0  0  0  0  0  0  0  0  0  0  0
   -0.9982   -1.0450    0.9804 H   0  0  0  0  0  0  0  0  0  0  0  0
   -2.6430   -1.9504   -0.0802 H   0  0  0  0  0  0  0  0  0  0  0  0
    0.9303   -2.1489    0.0320 H   0  0  0  0  0  0  0  0  0  0  0  0
    1.5900    0.8867    1.1362 H   0  0  0  0  0  0  0  0  0  0  0  0
    2.6771    1.0975   -0.3425 H   0  0  0  0  0  0  0  0  0  0  0  0
    2.5805   -0.4487    0.5224 H   0  0  0  0  0  0  0  0  0  0  0  0
  1  2  1  0
  2  3  1  0
  3  4  1  0
  3  5  1  0
  5  6  1  0
  6  7  1  0
  7  8  1  0
  7  2  1  0
  7  5  1  0
  1  9  1  0
  1 10  1  0
  1 11  1  0
  2 12  1  0
  3 13  1  0
  4 14  1  0
  5 15  1  0
  8 16  1  0
  8 17  1  0
  8 18  1  0
M  END
