
     RDKit          3D

 21 21  0  0  0  0  0  0  0  0999 V2000
   -2.4032    0.7384   -0.2075 C   0  0  0  0  0  0  0  0  0  0  0  0
   -1.0786    0.3534    0.4121 C   0  0  0  0  0  0  0  0  0  0  0  0
   -1.2035   -0.9811    1.0437 C   0  0  0  0  0  0  0  0  0  0  0  0
   -0.0876   -1.8246    0.8557 O   0  0  0  0  0  0  0  0  0  0  0  0
    1.1713   -1.3663    0.5169 C   0  0  0  0  0  0  0  0  0  0  0  0
    2.1947   -2.0845    0.4880 O   0  0  0  0  0  0  0  0  0  0  0  0
    1.2987    0.0666    0.1693 C   0  0  0  0  0  0  0  0  0  0  0  0
    2.5582    0.4043   -0.5491 C   0  0  0  0  0  0  0  0  0  0  0  0
    0.0471    0.4083   -0.6148 C   0  0  0  0  0  0  0  0  0  0  0  0
   -2.5955    0.1990   -1.1535 H   0  0  0  0  0  0  0  0  0  0  0  0
   -2.4814    1.8333   -0.3730 H   0  0  0  0  0  0  0  0  0  0  0  0
   -3.1908    0.4084    0.5081 H   0  0  0  0  0  0  0  0  0  0  0  0
   -0.8323    1.1615    1.1579 H   0  0  0  0  0  0  0  0  0  0  0  0
   -1.3426   -0.8235    2.1535 H   0  0  0  0  0  0  0  0  0  0  0  0
   -2.1127   -1.5317    0.7204 H   0  0  0  0  0  0  0  0  0  0  0  0
    1.2692    0.6297    1.1470 H   0  0  0  0  0  0  0  0  0  0  0  0
    3.2757   -0.4528   -0.3977 H   0  0  0  0  0  0  0  0  0  0  0  0
    2.4514    0.5739   -1.6210 H   0  0  0  0  0  0  0  0  0  0  0  0
    3.0693    1.2741   -0.0599 H   0  0  0  0  0  0  0  0  0  0  0  0
    0.0904    1.3762   -1.1009 H   0  0  0  0  0  0  0  0  0  0  0  0
   -0.0977   -0.3629   -1.4030 H   0  0  0  0  0  0  0  0  0  0  0  0
  1  2  1  0
  2  3  1  0
  3  4  1  0
  4  5  1  0
  5  6  2  0
  5  7  1  0
  7  8  1  0
  7  9  1  0
  9  2  1  0
  1 10  1  0
  1 11  1  0
  1 12  1  0
  2 13  1  0
  3 14  1  0
  3 15  1  0
  7 16  1  0
  8 17  1  0
  8 18  1  0
  8 19  1  0
  9 20  1  0
  9 21  1  0
M  END
