
     RDKit          3D

 23 24  0  0  0  0  0  0  0  0999 V2000
   -2.8341    1.2189   -0.6041 C   0  0  0  0  0  0  0  0  0  0  0  0
   -2.1999   -0.1414   -0.7342 C   0  0  0  0  0  0  0  0  0  0  0  0
   -1.8919   -0.9739    0.4284 C   0  0  0  0  0  0  0  0  0  0  0  0
   -0.7723   -0.1892   -0.1590 C   0  0  0  0  0  0  0  0  0  0  0  0
    0.1960   -0.8132   -1.1022 C   0  0  0  0  0  0  0  0  0  0  0  0
    1.5749   -0.8513   -0.5323 C   0  0  0  0  0  0  0  0  0  0  0  0
    2.0800    0.5301   -0.2735 C   0  0  0  0  0  0  0  0  0  0  0  0
    3.4531    0.5993    0.3001 C   0  0  0  0  0  0  0  0  0  0  0  0
    3.1384    0.9504   -1.0861 O   0  0  0  0  0  0  0  0  0  0  0  0
   -2.3800    1.7960    0.2329 H   0  0  0  0  0  0  0  0  0  0  0  0
   -2.5450    1.7888   -1.5312 H   0  0  0  0  0  0  0  0  0  0  0  0
   -3.9241    1.2031   -0.5782 H   0  0  0  0  0  0  0  0  0  0  0  0
   -2.4125   -0.6372   -1.6877 H   0  0  0  0  0  0  0  0  0  0  0  0
   -2.2232   -0.7216    1.4565 H   0  0  0  0  0  0  0  0  0  0  0  0
   -1.9183   -2.0919    0.2668 H   0  0  0  0  0  0  0  0  0  0  0  0
   -0.4345    0.6540    0.4414 H   0  0  0  0  0  0  0  0  0  0  0  0
   -0.1459   -1.7984   -1.4882 H   0  0  0  0  0  0  0  0  0  0  0  0
    0.2387   -0.1668   -2.0267 H   0  0  0  0  0  0  0  0  0  0  0  0
    2.2247   -1.3420   -1.2980 H   0  0  0  0  0  0  0  0  0  0  0  0
    1.5620   -1.4449    0.4139 H   0  0  0  0  0  0  0  0  0  0  0  0
    1.3664    1.2900    0.0376 H   0  0  0  0  0  0  0  0  0  0  0  0
    3.7494    1.4540    0.9302 H   0  0  0  0  0  0  0  0  0  0  0  0
    4.0980   -0.3128    0.2772 H   0  0  0  0  0  0  0  0  0  0  0  0
  1  2  1  0
  2  3  1  0
  3  4  1  0
  4  5  1  0
  5  6  1  0
  6  7  1  0
  7  8  1  0
  8  9  1  0
  4  2  1  0
  9  7  1  0
  1 10  1  0
  1 11  1  0
  1 12  1  0
  2 13  1  0
  3 14  1  0
  3 15  1  0
  4 16  1  0
  5 17  1  0
  5 18  1  0
  6 19  1  0
  6 20  1  0
  7 21  1  0
  8 22  1  0
  8 23  1  0
M  END
