
     RDKit          3D

 21 22  0  0  0  0  0  0  0  0999 V2000
   -1.5631    0.8299    0.9343 C   0  0  0  0  0  0  0  0  0  0  0  0
   -0.8316    0.8403   -0.3371 C   0  0  0  0  0  0  0  0  0  0  0  0
    0.5674    0.2544   -0.3962 C   0  0  0  0  0  0  0  0  0  0  0  0
    1.4659    0.5732    0.7517 C   0  0  0  0  0  0  0  0  0  0  0  0
    2.7963   -0.0627    0.5492 C   0  0  0  0  0  0  0  0  0  0  0  0
    2.9831   -0.7209   -0.4557 O   0  0  0  0  0  0  0  0  0  0  0  0
   -0.1990   -1.0380   -0.2204 C   0  0  0  0  0  0  0  0  0  0  0  0
   -1.1322   -1.6823   -1.0885 C   0  0  0  0  0  0  0  0  0  0  0  0
   -1.0773   -0.2838   -1.3078 C   0  0  0  0  0  0  0  0  0  0  0  0
   -2.3378    0.0418    1.0440 H   0  0  0  0  0  0  0  0  0  0  0  0
   -0.8727    0.8926    1.7950 H   0  0  0  0  0  0  0  0  0  0  0  0
   -2.1740    1.7826    1.0303 H   0  0  0  0  0  0  0  0  0  0  0  0
   -0.8373    1.8399   -0.8207 H   0  0  0  0  0  0  0  0  0  0  0  0
    1.0057    0.3962   -1.4029 H   0  0  0  0  0  0  0  0  0  0  0  0
    0.9952    0.1561    1.6913 H   0  0  0  0  0  0  0  0  0  0  0  0
    1.5412    1.6633    0.8950 H   0  0  0  0  0  0  0  0  0  0  0  0
    3.5699    0.0693    1.2927 H   0  0  0  0  0  0  0  0  0  0  0  0
   -0.6069   -0.9851    0.8378 H   0  0  0  0  0  0  0  0  0  0  0  0
   -2.1311   -2.0938   -0.7466 H   0  0  0  0  0  0  0  0  0  0  0  0
   -0.6824   -2.4425   -1.7987 H   0  0  0  0  0  0  0  0  0  0  0  0
   -0.4793   -0.0305   -2.2468 H   0  0  0  0  0  0  0  0  0  0  0  0
  1  2  1  0
  2  3  1  0
  3  4  1  0
  4  5  1  0
  5  6  2  0
  3  7  1  0
  7  8  1  0
  8  9  1  0
  9  2  1  0
  9  7  1  0
  1 10  1  0
  1 11  1  0
  1 12  1  0
  2 13  1  0
  3 14  1  0
  4 15  1  0
  4 16  1  0
  5 17  1  0
  7 18  1  0
  8 19  1  0
  8 20  1  0
  9 21  1  0
M  END
