
     RDKit          3D

 23 24  0  0  0  0  0  0  0  0999 V2000
   -1.9464   -1.2555    0.6635 C   0  0  0  0  0  0  0  0  0  0  0  0
   -0.9279   -0.4933   -0.1923 C   0  0  0  0  0  0  0  0  0  0  0  0
    0.4840   -0.9356    0.0130 C   0  0  0  0  0  0  0  0  0  0  0  0
    1.2571   -1.2966   -1.2343 C   0  0  0  0  0  0  0  0  0  0  0  0
    0.8286    0.4743    0.4337 C   0  0  0  0  0  0  0  0  0  0  0  0
    1.8761    0.7622    1.2566 C   0  0  0  0  0  0  0  0  0  0  0  0
    1.8440    1.1614   -0.1760 O   0  0  0  0  0  0  0  0  0  0  0  0
   -0.5819    0.8814    0.3937 C   0  0  0  0  0  0  0  0  0  0  0  0
   -0.9125    1.9543   -0.6474 C   0  0  0  0  0  0  0  0  0  0  0  0
   -1.4487   -2.2321    0.9006 H   0  0  0  0  0  0  0  0  0  0  0  0
   -2.8889   -1.4258    0.1199 H   0  0  0  0  0  0  0  0  0  0  0  0
   -2.1116   -0.7025    1.6203 H   0  0  0  0  0  0  0  0  0  0  0  0
   -1.1936   -0.4789   -1.2595 H   0  0  0  0  0  0  0  0  0  0  0  0
    0.5487   -1.6602    0.8442 H   0  0  0  0  0  0  0  0  0  0  0  0
    2.2407   -0.7447   -1.1990 H   0  0  0  0  0  0  0  0  0  0  0  0
    0.7712   -0.9838   -2.1609 H   0  0  0  0  0  0  0  0  0  0  0  0
    1.5397   -2.3724   -1.2092 H   0  0  0  0  0  0  0  0  0  0  0  0
    2.0243    1.7017    1.8328 H   0  0  0  0  0  0  0  0  0  0  0  0
    2.7368    0.0636    1.3856 H   0  0  0  0  0  0  0  0  0  0  0  0
   -1.1201    1.0859    1.3176 H   0  0  0  0  0  0  0  0  0  0  0  0
   -0.2960    1.7127   -1.5436 H   0  0  0  0  0  0  0  0  0  0  0  0
   -1.9821    1.8174   -0.8985 H   0  0  0  0  0  0  0  0  0  0  0  0
   -0.7413    2.9665   -0.2606 H   0  0  0  0  0  0  0  0  0  0  0  0
  1  2  1  0
  2  3  1  0
  3  4  1  0
  3  5  1  0
  5  6  1  0
  6  7  1  0
  5  8  1  0
  8  9  1  0
  8  2  1  0
  7  5  1  0
  1 10  1  0
  1 11  1  0
  1 12  1  0
  2 13  1  0
  3 14  1  0
  4 15  1  0
  4 16  1  0
  4 17  1  0
  6 18  1  0
  6 19  1  0
  8 20  1  0
  9 21  1  0
  9 22  1  0
  9 23  1  0
M  END
