
     RDKit          3D

 20 20  0  0  0  0  0  0  0  0999 V2000
   -1.9256   -1.0910    0.1727 C   0  0  0  0  0  0  0  0  0  0  0  0
   -1.0352    0.0882    0.3945 C   0  0  0  0  0  0  0  0  0  0  0  0
   -1.2450    1.2572   -0.5362 C   0  0  0  0  0  0  0  0  0  0  0  0
    0.2773    1.3231   -0.6845 C   0  0  0  0  0  0  0  0  0  0  0  0
    0.3113   -0.1244   -0.2487 C   0  0  0  0  0  0  0  0  0  0  0  0
    1.3716   -0.4283    0.8027 C   0  0  0  0  0  0  0  0  0  0  0  0
    2.6417   -0.6203    0.0791 C   0  0  0  0  0  0  0  0  0  0  0  0
    2.8816   -1.6593   -0.4763 O   0  0  0  0  0  0  0  0  0  0  0  0
   -2.3313   -1.1274   -0.8537 H   0  0  0  0  0  0  0  0  0  0  0  0
   -1.3170   -2.0102    0.3289 H   0  0  0  0  0  0  0  0  0  0  0  0
   -2.7718   -1.1393    0.9006 H   0  0  0  0  0  0  0  0  0  0  0  0
   -1.0067    0.4351    1.4399 H   0  0  0  0  0  0  0  0  0  0  0  0
   -1.7679    1.0319   -1.4743 H   0  0  0  0  0  0  0  0  0  0  0  0
   -1.6138    2.1848   -0.0579 H   0  0  0  0  0  0  0  0  0  0  0  0
    0.7364    1.9526    0.1071 H   0  0  0  0  0  0  0  0  0  0  0  0
    0.6296    1.4853   -1.7127 H   0  0  0  0  0  0  0  0  0  0  0  0
    0.2913   -0.7864   -1.1115 H   0  0  0  0  0  0  0  0  0  0  0  0
    1.1238   -1.3632    1.3566 H   0  0  0  0  0  0  0  0  0  0  0  0
    1.3987    0.4134    1.5210 H   0  0  0  0  0  0  0  0  0  0  0  0
    3.3512    0.1782    0.0527 H   0  0  0  0  0  0  0  0  0  0  0  0
  1  2  1  0
  2  3  1  0
  3  4  1  0
  4  5  1  0
  5  6  1  0
  6  7  1  0
  7  8  2  0
  5  2  1  0
  1  9  1  0
  1 10  1  0
  1 11  1  0
  2 12  1  0
  3 13  1  0
  3 14  1  0
  4 15  1  0
  4 16  1  0
  5 17  1  0
  6 18  1  0
  6 19  1  0
  7 20  1  0
M  END
