
     RDKit          3D

 23 24  0  0  0  0  0  0  0  0999 V2000
   -1.8456    1.4170    0.0413 C   0  0  0  0  0  0  0  0  0  0  0  0
   -0.5756    0.7294    0.4127 C   0  0  0  0  0  0  0  0  0  0  0  0
   -0.9441   -0.5251    1.2019 C   0  0  0  0  0  0  0  0  0  0  0  0
   -1.0499   -1.5562    0.1187 C   0  0  0  0  0  0  0  0  0  0  0  0
    0.1637   -1.2690   -0.7334 C   0  0  0  0  0  0  0  0  0  0  0  0
    0.2164    0.2422   -0.7583 C   0  0  0  0  0  0  0  0  0  0  0  0
    1.6611    0.6662   -0.7230 C   0  0  0  0  0  0  0  0  0  0  0  0
    2.5732    0.3239    0.3188 C   0  0  0  0  0  0  0  0  0  0  0  0
    2.6346   -0.3802   -0.9730 O   0  0  0  0  0  0  0  0  0  0  0  0
   -2.6528    0.6662   -0.1140 H   0  0  0  0  0  0  0  0  0  0  0  0
   -2.1867    2.0409    0.9034 H   0  0  0  0  0  0  0  0  0  0  0  0
   -1.7811    2.0131   -0.8864 H   0  0  0  0  0  0  0  0  0  0  0  0
    0.0474    1.4098    1.0437 H   0  0  0  0  0  0  0  0  0  0  0  0
   -1.8722   -0.3728    1.7664 H   0  0  0  0  0  0  0  0  0  0  0  0
   -0.0614   -0.7428    1.8486 H   0  0  0  0  0  0  0  0  0  0  0  0
   -0.9700   -2.5800    0.5050 H   0  0  0  0  0  0  0  0  0  0  0  0
   -1.9674   -1.3687   -0.4644 H   0  0  0  0  0  0  0  0  0  0  0  0
    1.0663   -1.7121   -0.2648 H   0  0  0  0  0  0  0  0  0  0  0  0
    0.0784   -1.6752   -1.7550 H   0  0  0  0  0  0  0  0  0  0  0  0
   -0.2784    0.5577   -1.7069 H   0  0  0  0  0  0  0  0  0  0  0  0
    1.8870    1.5270   -1.3831 H   0  0  0  0  0  0  0  0  0  0  0  0
    3.4644    0.9802    0.4883 H   0  0  0  0  0  0  0  0  0  0  0  0
    2.3926   -0.3914    1.1137 H   0  0  0  0  0  0  0  0  0  0  0  0
  1  2  1  0
  2  3  1  0
  3  4  1  0
  4  5  1  0
  5  6  1  0
  6  7  1  0
  7  8  1  0
  8  9  1  0
  6  2  1  0
  9  7  1  0
  1 10  1  0
  1 11  1  0
  1 12  1  0
  2 13  1  0
  3 14  1  0
  3 15  1  0
  4 16  1  0
  4 17  1  0
  5 18  1  0
  5 19  1  0
  6 20  1  0
  7 21  1  0
  8 22  1  0
  8 23  1  0
M  END
