
     RDKit          3D

 21 22  0  0  0  0  0  0  0  0999 V2000
    2.6012   -0.8925    0.2053 C   0  0  0  0  0  0  0  0  0  0  0  0
    1.3052   -0.2207   -0.1544 C   0  0  0  0  0  0  0  0  0  0  0  0
    1.3254    1.2077    0.3058 C   0  0  0  0  0  0  0  0  0  0  0  0
    0.1967    1.8811    0.0730 C   0  0  0  0  0  0  0  0  0  0  0  0
   -0.8683    1.0903   -0.5986 C   0  0  0  0  0  0  0  0  0  0  0  0
   -0.9574   -0.2636    0.0195 C   0  0  0  0  0  0  0  0  0  0  0  0
   -1.9572   -1.2651   -0.4301 C   0  0  0  0  0  0  0  0  0  0  0  0
   -2.2444   -0.4979    0.7846 C   0  0  0  0  0  0  0  0  0  0  0  0
    0.2136   -0.7863    0.5012 O   0  0  0  0  0  0  0  0  0  0  0  0
    3.1014   -1.3397   -0.6787 H   0  0  0  0  0  0  0  0  0  0  0  0
    2.3558   -1.6933    0.9505 H   0  0  0  0  0  0  0  0  0  0  0  0
    3.3085   -0.1649    0.6335 H   0  0  0  0  0  0  0  0  0  0  0  0
    1.1946   -0.2861   -1.2651 H   0  0  0  0  0  0  0  0  0  0  0  0
    2.1623    1.6538    0.7776 H   0  0  0  0  0  0  0  0  0  0  0  0
    0.0776    2.9262    0.3571 H   0  0  0  0  0  0  0  0  0  0  0  0
   -1.8375    1.6419   -0.5708 H   0  0  0  0  0  0  0  0  0  0  0  0
   -0.6182    0.9897   -1.6777 H   0  0  0  0  0  0  0  0  0  0  0  0
   -2.5215   -0.9974   -1.3530 H   0  0  0  0  0  0  0  0  0  0  0  0
   -1.6898   -2.3446   -0.4128 H   0  0  0  0  0  0  0  0  0  0  0  0
   -2.0967   -0.8941    1.8046 H   0  0  0  0  0  0  0  0  0  0  0  0
   -3.0513    0.2556    0.7286 H   0  0  0  0  0  0  0  0  0  0  0  0
  1  2  1  0
  2  3  1  0
  3  4  2  0
  4  5  1  0
  5  6  1  0
  6  7  1  0
  7  8  1  0
  6  9  1  0
  9  2  1  0
  8  6  1  0
  1 10  1  0
  1 11  1  0
  1 12  1  0
  2 13  1  0
  3 14  1  0
  4 15  1  0
  5 16  1  0
  5 17  1  0
  7 18  1  0
  7 19  1  0
  8 20  1  0
  8 21  1  0
M  END
