
     RDKit          3D

 21 22  0  0  0  0  0  0  0  0999 V2000
    2.1353   -0.6606   -1.0845 C   0  0  0  0  0  0  0  0  0  0  0  0
    1.1357    0.2256   -0.4351 C   0  0  0  0  0  0  0  0  0  0  0  0
    1.6180    0.7462    0.9120 C   0  0  0  0  0  0  0  0  0  0  0  0
    0.5332    1.1102    1.5816 C   0  0  0  0  0  0  0  0  0  0  0  0
   -0.6044    0.8541    0.7306 C   0  0  0  0  0  0  0  0  0  0  0  0
   -0.0566   -0.4892    0.1418 C   0  0  0  0  0  0  0  0  0  0  0  0
   -1.4105   -0.2137    0.3352 C   0  0  0  0  0  0  0  0  0  0  0  0
   -2.2927   -0.1090   -0.9153 C   0  0  0  0  0  0  0  0  0  0  0  0
   -2.1404   -0.8696    1.3578 O   0  0  0  0  0  0  0  0  0  0  0  0
    2.0328   -1.7352   -0.8439 H   0  0  0  0  0  0  0  0  0  0  0  0
    2.1478   -0.4981   -2.1928 H   0  0  0  0  0  0  0  0  0  0  0  0
    3.1748   -0.3667   -0.7548 H   0  0  0  0  0  0  0  0  0  0  0  0
    0.8615    1.0972   -1.0288 H   0  0  0  0  0  0  0  0  0  0  0  0
    2.6308    0.7990    1.2331 H   0  0  0  0  0  0  0  0  0  0  0  0
    0.4877    1.5278    2.5894 H   0  0  0  0  0  0  0  0  0  0  0  0
   -0.6565    1.7325   -0.0013 H   0  0  0  0  0  0  0  0  0  0  0  0
    0.3649   -1.2305    0.8937 H   0  0  0  0  0  0  0  0  0  0  0  0
   -3.1361    0.5528   -0.6387 H   0  0  0  0  0  0  0  0  0  0  0  0
   -2.6891   -1.0863   -1.1859 H   0  0  0  0  0  0  0  0  0  0  0  0
   -1.7146    0.3765   -1.7303 H   0  0  0  0  0  0  0  0  0  0  0  0
   -2.4218   -1.7631    1.0359 H   0  0  0  0  0  0  0  0  0  0  0  0
  1  2  1  0
  2  3  1  0
  3  4  2  0
  4  5  1  0
  5  6  1  0
  6  7  1  0
  7  8  1  0
  7  9  1  0
  6  2  1  0
  7  5  1  0
  1 10  1  0
  1 11  1  0
  1 12  1  0
  2 13  1  0
  3 14  1  0
  4 15  1  0
  5 16  1  0
  6 17  1  0
  8 18  1  0
  8 19  1  0
  8 20  1  0
  9 21  1  0
M  END
