
     RDKit          3D

 23 24  0  0  0  0  0  0  0  0999 V2000
   -2.5630   -0.0988   -0.5355 C   0  0  0  0  0  0  0  0  0  0  0  0
   -1.0525    0.0087   -0.4025 C   0  0  0  0  0  0  0  0  0  0  0  0
   -0.6508    0.8510    0.7511 C   0  0  0  0  0  0  0  0  0  0  0  0
    0.7393    1.3753    0.7102 C   0  0  0  0  0  0  0  0  0  0  0  0
    1.5382    0.9152   -0.4685 C   0  0  0  0  0  0  0  0  0  0  0  0
    1.7561   -0.5360   -0.5646 C   0  0  0  0  0  0  0  0  0  0  0  0
    0.9100   -1.4196    0.2489 C   0  0  0  0  0  0  0  0  0  0  0  0
   -0.4858   -1.0481    0.4725 C   0  0  0  0  0  0  0  0  0  0  0  0
   -0.6504   -0.2683    1.6170 O   0  0  0  0  0  0  0  0  0  0  0  0
   -2.8106   -0.1029   -1.6287 H   0  0  0  0  0  0  0  0  0  0  0  0
   -3.0712    0.7268   -0.0021 H   0  0  0  0  0  0  0  0  0  0  0  0
   -2.9569   -1.0407   -0.1019 H   0  0  0  0  0  0  0  0  0  0  0  0
   -0.5316    0.1141   -1.3470 H   0  0  0  0  0  0  0  0  0  0  0  0
   -1.4009    1.5719    1.1399 H   0  0  0  0  0  0  0  0  0  0  0  0
    1.3061    1.2101    1.6747 H   0  0  0  0  0  0  0  0  0  0  0  0
    0.6730    2.4983    0.6361 H   0  0  0  0  0  0  0  0  0  0  0  0
    2.5365    1.4413   -0.3957 H   0  0  0  0  0  0  0  0  0  0  0  0
    1.0697    1.3771   -1.3871 H   0  0  0  0  0  0  0  0  0  0  0  0
    1.6399   -0.8369   -1.6485 H   0  0  0  0  0  0  0  0  0  0  0  0
    2.8345   -0.7925   -0.3409 H   0  0  0  0  0  0  0  0  0  0  0  0
    1.4110   -1.5695    1.2503 H   0  0  0  0  0  0  0  0  0  0  0  0
    0.9405   -2.4515   -0.2130 H   0  0  0  0  0  0  0  0  0  0  0  0
   -1.1811   -1.9251    0.5352 H   0  0  0  0  0  0  0  0  0  0  0  0
  1  2  1  0
  2  3  1  0
  3  4  1  0
  4  5  1  0
  5  6  1  0
  6  7  1  0
  7  8  1  0
  8  9  1  0
  8  2  1  0
  9  3  1  0
  1 10  1  0
  1 11  1  0
  1 12  1  0
  2 13  1  0
  3 14  1  0
  4 15  1  0
  4 16  1  0
  5 17  1  0
  5 18  1  0
  6 19  1  0
  6 20  1  0
  7 21  1  0
  7 22  1  0
  8 23  1  0
M  END
