
     RDKit          3D

 19 19  0  0  0  0  0  0  0  0999 V2000
    2.4183   -0.0272    0.2402 C   0  0  0  0  0  0  0  0  0  0  0  0
    1.1026   -0.4815   -0.3234 C   0  0  0  0  0  0  0  0  0  0  0  0
    0.5622    0.4033   -1.3914 C   0  0  0  0  0  0  0  0  0  0  0  0
   -0.7388    0.6823   -1.0228 O   0  0  0  0  0  0  0  0  0  0  0  0
   -1.0277    0.0106    0.1304 C   0  0  0  0  0  0  0  0  0  0  0  0
   -1.6713    0.9400    1.1569 C   0  0  0  0  0  0  0  0  0  0  0  0
   -1.8922   -1.1697   -0.0833 C   0  0  0  0  0  0  0  0  0  0  0  0
   -2.2429   -1.8754    0.8313 O   0  0  0  0  0  0  0  0  0  0  0  0
    0.1609   -0.4348    0.6834 O   0  0  0  0  0  0  0  0  0  0  0  0
    2.8163   -0.8780    0.8633 H   0  0  0  0  0  0  0  0  0  0  0  0
    3.1689    0.2157   -0.5373 H   0  0  0  0  0  0  0  0  0  0  0  0
    2.2658    0.8223    0.9611 H   0  0  0  0  0  0  0  0  0  0  0  0
    1.2620   -1.5254   -0.7184 H   0  0  0  0  0  0  0  0  0  0  0  0
    0.5107   -0.1122   -2.3898 H   0  0  0  0  0  0  0  0  0  0  0  0
    1.0901    1.3577   -1.5153 H   0  0  0  0  0  0  0  0  0  0  0  0
   -1.2380    0.7851    2.1557 H   0  0  0  0  0  0  0  0  0  0  0  0
   -2.7653    0.7245    1.2467 H   0  0  0  0  0  0  0  0  0  0  0  0
   -1.5601    1.9765    0.7873 H   0  0  0  0  0  0  0  0  0  0  0  0
   -2.2218   -1.4138   -1.0747 H   0  0  0  0  0  0  0  0  0  0  0  0
  1  2  1  0
  2  3  1  0
  3  4  1  0
  4  5  1  0
  5  6  1  0
  5  7  1  0
  7  8  2  0
  5  9  1  0
  9  2  1  0
  1 10  1  0
  1 11  1  0
  1 12  1  0
  2 13  1  0
  3 14  1  0
  3 15  1  0
  6 16  1  0
  6 17  1  0
  6 18  1  0
  7 19  1  0
M  END
