
     RDKit          3D

 23 24  0  0  0  0  0  0  0  0999 V2000
    2.9028   -0.1622    0.8628 C   0  0  0  0  0  0  0  0  0  0  0  0
    1.8126    0.4639    0.0577 C   0  0  0  0  0  0  0  0  0  0  0  0
    0.9266    1.3567    0.8452 C   0  0  0  0  0  0  0  0  0  0  0  0
   -0.3249    1.2981    0.3828 C   0  0  0  0  0  0  0  0  0  0  0  0
   -0.3898    0.3685   -0.7465 C   0  0  0  0  0  0  0  0  0  0  0  0
   -1.6418   -0.4087   -0.9104 C   0  0  0  0  0  0  0  0  0  0  0  0
   -2.1562   -1.3359    0.1069 C   0  0  0  0  0  0  0  0  0  0  0  0
   -2.7988   -0.0077   -0.0421 C   0  0  0  0  0  0  0  0  0  0  0  0
    0.8171   -0.5417   -0.4769 C   0  0  0  0  0  0  0  0  0  0  0  0
    3.0658   -1.2462    0.6190 H   0  0  0  0  0  0  0  0  0  0  0  0
    2.7835   -0.0532    1.9573 H   0  0  0  0  0  0  0  0  0  0  0  0
    3.8610    0.3714    0.6055 H   0  0  0  0  0  0  0  0  0  0  0  0
    2.1948    1.0656   -0.7957 H   0  0  0  0  0  0  0  0  0  0  0  0
    1.2529    1.9658    1.6746 H   0  0  0  0  0  0  0  0  0  0  0  0
   -1.1124    1.9104    0.8595 H   0  0  0  0  0  0  0  0  0  0  0  0
   -0.1493    0.9644   -1.6729 H   0  0  0  0  0  0  0  0  0  0  0  0
   -1.8958   -0.6650   -1.9842 H   0  0  0  0  0  0  0  0  0  0  0  0
   -1.4999   -1.5652    0.9689 H   0  0  0  0  0  0  0  0  0  0  0  0
   -2.7320   -2.2183   -0.2338 H   0  0  0  0  0  0  0  0  0  0  0  0
   -2.7274    0.7446    0.7447 H   0  0  0  0  0  0  0  0  0  0  0  0
   -3.8285   -0.0083   -0.5091 H   0  0  0  0  0  0  0  0  0  0  0  0
    0.4902   -1.2384    0.3185 H   0  0  0  0  0  0  0  0  0  0  0  0
    1.1495   -1.0587   -1.3768 H   0  0  0  0  0  0  0  0  0  0  0  0
  1  2  1  0
  2  3  1  0
  3  4  2  0
  4  5  1  0
  5  6  1  0
  6  7  1  0
  7  8  1  0
  5  9  1  0
  9  2  1  0
  8  6  1  0
  1 10  1  0
  1 11  1  0
  1 12  1  0
  2 13  1  0
  3 14  1  0
  4 15  1  0
  5 16  1  0
  6 17  1  0
  7 18  1  0
  7 19  1  0
  8 20  1  0
  8 21  1  0
  9 22  1  0
  9 23  1  0
M  END
