
     RDKit          3D

 23 23  0  0  0  0  0  0  0  0999 V2000
   -2.8814   -0.5326   -0.0731 C   0  0  0  0  0  0  0  0  0  0  0  0
   -1.4472   -0.1920    0.1651 C   0  0  0  0  0  0  0  0  0  0  0  0
   -0.5156   -1.1858   -0.4358 C   0  0  0  0  0  0  0  0  0  0  0  0
    0.8039   -1.1321   -0.3936 C   0  0  0  0  0  0  0  0  0  0  0  0
    1.6752   -0.0836    0.2535 C   0  0  0  0  0  0  0  0  0  0  0  0
    3.1113   -0.4603    0.1727 C   0  0  0  0  0  0  0  0  0  0  0  0
    1.3567    1.1157   -0.3264 O   0  0  0  0  0  0  0  0  0  0  0  0
    0.2061    1.6825    0.2163 C   0  0  0  0  0  0  0  0  0  0  0  0
   -1.0576    1.1641   -0.3888 C   0  0  0  0  0  0  0  0  0  0  0  0
   -3.4879    0.3641    0.2228 H   0  0  0  0  0  0  0  0  0  0  0  0
   -3.1860   -1.3356    0.6287 H   0  0  0  0  0  0  0  0  0  0  0  0
   -3.1291   -0.7477   -1.1174 H   0  0  0  0  0  0  0  0  0  0  0  0
   -1.2720   -0.2306    1.2670 H   0  0  0  0  0  0  0  0  0  0  0  0
   -0.9329   -2.0385   -0.9599 H   0  0  0  0  0  0  0  0  0  0  0  0
    1.3185   -1.9572   -0.8944 H   0  0  0  0  0  0  0  0  0  0  0  0
    1.4001   -0.0174    1.3423 H   0  0  0  0  0  0  0  0  0  0  0  0
    3.6765    0.2130    0.8704 H   0  0  0  0  0  0  0  0  0  0  0  0
    3.2153   -1.4956    0.5790 H   0  0  0  0  0  0  0  0  0  0  0  0
    3.5724   -0.3434   -0.8106 H   0  0  0  0  0  0  0  0  0  0  0  0
    0.2069    2.7924    0.0858 H   0  0  0  0  0  0  0  0  0  0  0  0
    0.2069    1.4859    1.2963 H   0  0  0  0  0  0  0  0  0  0  0  0
   -0.9523    1.0780   -1.4961 H   0  0  0  0  0  0  0  0  0  0  0  0
   -1.8877    1.8568   -0.2038 H   0  0  0  0  0  0  0  0  0  0  0  0
  1  2  1  0
  2  3  1  0
  3  4  2  0
  4  5  1  0
  5  6  1  0
  5  7  1  0
  7  8  1  0
  8  9  1  0
  9  2  1  0
  1 10  1  0
  1 11  1  0
  1 12  1  0
  2 13  1  0
  3 14  1  0
  4 15  1  0
  5 16  1  0
  6 17  1  0
  6 18  1  0
  6 19  1  0
  8 20  1  0
  8 21  1  0
  9 22  1  0
  9 23  1  0
M  END
