
     RDKit          3D

 21 23  0  0  0  0  0  0  0  0999 V2000
    2.6859    0.2268   -0.0894 C   0  0  0  0  0  0  0  0  0  0  0  0
    1.2854   -0.2254   -0.4709 C   0  0  0  0  0  0  0  0  0  0  0  0
    0.6082   -0.6785    0.7879 C   0  0  0  0  0  0  0  0  0  0  0  0
   -0.7431   -0.0793    0.7021 C   0  0  0  0  0  0  0  0  0  0  0  0
   -1.8532   -0.9149    0.0914 C   0  0  0  0  0  0  0  0  0  0  0  0
   -1.8519   -0.0085   -1.1362 C   0  0  0  0  0  0  0  0  0  0  0  0
   -0.7262    0.7513   -0.5168 C   0  0  0  0  0  0  0  0  0  0  0  0
   -1.0208    1.3575    0.8224 C   0  0  0  0  0  0  0  0  0  0  0  0
    0.5336    0.7561   -1.0499 O   0  0  0  0  0  0  0  0  0  0  0  0
    3.3825   -0.6505   -0.1429 H   0  0  0  0  0  0  0  0  0  0  0  0
    2.6999    0.6192    0.9595 H   0  0  0  0  0  0  0  0  0  0  0  0
    3.0690    1.0189   -0.7520 H   0  0  0  0  0  0  0  0  0  0  0  0
    1.4273   -1.0637   -1.1983 H   0  0  0  0  0  0  0  0  0  0  0  0
    0.4961   -1.7929    0.7586 H   0  0  0  0  0  0  0  0  0  0  0  0
    1.1816   -0.4099    1.6958 H   0  0  0  0  0  0  0  0  0  0  0  0
   -1.5735   -1.9628   -0.1062 H   0  0  0  0  0  0  0  0  0  0  0  0
   -2.7738   -0.7753    0.7193 H   0  0  0  0  0  0  0  0  0  0  0  0
   -2.7665    0.6453   -1.1756 H   0  0  0  0  0  0  0  0  0  0  0  0
   -1.6616   -0.5473   -2.0644 H   0  0  0  0  0  0  0  0  0  0  0  0
   -2.0898    1.6302    0.9972 H   0  0  0  0  0  0  0  0  0  0  0  0
   -0.3092    2.1038    1.1685 H   0  0  0  0  0  0  0  0  0  0  0  0
  1  2  1  0
  2  3  1  0
  3  4  1  0
  4  5  1  0
  5  6  1  0
  6  7  1  0
  7  8  1  0
  7  9  1  0
  9  2  1  0
  7  4  1  0
  8  4  1  0
  1 10  1  0
  1 11  1  0
  1 12  1  0
  2 13  1  0
  3 14  1  0
  3 15  1  0
  5 16  1  0
  5 17  1  0
  6 18  1  0
  6 19  1  0
  8 20  1  0
  8 21  1  0
M  END
