
     RDKit          3D

 21 22  0  0  0  0  0  0  0  0999 V2000
    0.7608   -1.8839   -0.6275 C   0  0  0  0  0  0  0  0  0  0  0  0
    0.4852   -0.7861    0.3462 C   0  0  0  0  0  0  0  0  0  0  0  0
    1.6666    0.0705    0.6266 C   0  0  0  0  0  0  0  0  0  0  0  0
    2.7878   -0.3033    0.9095 O   0  0  0  0  0  0  0  0  0  0  0  0
    1.2523    1.4918    0.5041 C   0  0  0  0  0  0  0  0  0  0  0  0
    0.1623    1.3942   -0.5588 C   0  0  0  0  0  0  0  0  0  0  0  0
   -0.5769    0.1796   -0.1104 C   0  0  0  0  0  0  0  0  0  0  0  0
   -1.7450    0.3289    0.7980 C   0  0  0  0  0  0  0  0  0  0  0  0
   -1.8639   -0.2372   -0.6390 C   0  0  0  0  0  0  0  0  0  0  0  0
   -0.1660   -2.1583   -1.1679 H   0  0  0  0  0  0  0  0  0  0  0  0
    1.5557   -1.6271   -1.3555 H   0  0  0  0  0  0  0  0  0  0  0  0
    1.0675   -2.8152   -0.0675 H   0  0  0  0  0  0  0  0  0  0  0  0
    0.2104   -1.2600    1.3278 H   0  0  0  0  0  0  0  0  0  0  0  0
    0.7398    1.8343    1.4278 H   0  0  0  0  0  0  0  0  0  0  0  0
    2.0698    2.1610    0.1956 H   0  0  0  0  0  0  0  0  0  0  0  0
   -0.4509    2.3101   -0.5895 H   0  0  0  0  0  0  0  0  0  0  0  0
    0.6951    1.2007   -1.5163 H   0  0  0  0  0  0  0  0  0  0  0  0
   -2.2251    1.3127    0.9648 H   0  0  0  0  0  0  0  0  0  0  0  0
   -1.9208   -0.3862    1.6267 H   0  0  0  0  0  0  0  0  0  0  0  0
   -2.3425    0.4547   -1.3882 H   0  0  0  0  0  0  0  0  0  0  0  0
   -2.1622   -1.2812   -0.7067 H   0  0  0  0  0  0  0  0  0  0  0  0
  1  2  1  0
  2  3  1  0
  3  4  2  0
  3  5  1  0
  5  6  1  0
  6  7  1  0
  7  8  1  0
  8  9  1  0
  7  2  1  0
  9  7  1  0
  1 10  1  0
  1 11  1  0
  1 12  1  0
  2 13  1  0
  5 14  1  0
  5 15  1  0
  6 16  1  0
  6 17  1  0
  8 18  1  0
  8 19  1  0
  9 20  1  0
  9 21  1  0
M  END
