
     RDKit          3D

 23 25  0  0  0  0  0  0  0  0999 V2000
    2.7135    0.3815   -0.4624 C   0  0  0  0  0  0  0  0  0  0  0  0
    1.2993    0.0023   -0.5407 C   0  0  0  0  0  0  0  0  0  0  0  0
    0.2660    1.0230   -0.1215 C   0  0  0  0  0  0  0  0  0  0  0  0
    0.7301    0.7817    1.2837 C   0  0  0  0  0  0  0  0  0  0  0  0
    0.6555   -0.5981    0.6872 C   0  0  0  0  0  0  0  0  0  0  0  0
   -0.6050   -0.1595    0.0800 C   0  0  0  0  0  0  0  0  0  0  0  0
   -1.1861   -0.8548   -1.0693 C   0  0  0  0  0  0  0  0  0  0  0  0
   -2.5655   -0.5701   -0.4539 C   0  0  0  0  0  0  0  0  0  0  0  0
   -1.8479   -0.0772    0.8135 C   0  0  0  0  0  0  0  0  0  0  0  0
    3.2139    0.2313    0.5069 H   0  0  0  0  0  0  0  0  0  0  0  0
    3.2909   -0.2518   -1.1989 H   0  0  0  0  0  0  0  0  0  0  0  0
    2.8426    1.4335   -0.8515 H   0  0  0  0  0  0  0  0  0  0  0  0
    0.9888   -0.5264   -1.4676 H   0  0  0  0  0  0  0  0  0  0  0  0
    0.0729    1.8960   -0.5683 H   0  0  0  0  0  0  0  0  0  0  0  0
   -0.0133    0.9102    2.0747 H   0  0  0  0  0  0  0  0  0  0  0  0
    1.7093    1.1541    1.5610 H   0  0  0  0  0  0  0  0  0  0  0  0
    0.9136   -1.4595    1.1291 H   0  0  0  0  0  0  0  0  0  0  0  0
   -1.0658   -0.2650   -2.0072 H   0  0  0  0  0  0  0  0  0  0  0  0
   -0.9907   -1.9438   -1.1894 H   0  0  0  0  0  0  0  0  0  0  0  0
   -3.0752    0.2898   -0.9281 H   0  0  0  0  0  0  0  0  0  0  0  0
   -3.1321   -1.4919   -0.3323 H   0  0  0  0  0  0  0  0  0  0  0  0
   -2.2085    0.9246    1.1568 H   0  0  0  0  0  0  0  0  0  0  0  0
   -2.0062   -0.8300    1.6147 H   0  0  0  0  0  0  0  0  0  0  0  0
  1  2  1  0
  2  3  1  0
  3  4  1  0
  4  5  1  0
  5  6  1  0
  6  7  1  0
  7  8  1  0
  8  9  1  0
  5  2  1  0
  9  6  1  0
  6  3  1  0
  1 10  1  0
  1 11  1  0
  1 12  1  0
  2 13  1  0
  3 14  1  0
  4 15  1  0
  4 16  1  0
  5 17  1  0
  7 18  1  0
  7 19  1  0
  8 20  1  0
  8 21  1  0
  9 22  1  0
  9 23  1  0
M  END
