
     RDKit          3D

 23 24  0  0  0  0  0  0  0  0999 V2000
    2.0250   -0.9382   -0.4114 C   0  0  0  0  0  0  0  0  0  0  0  0
    0.6528   -0.8223    0.1555 C   0  0  0  0  0  0  0  0  0  0  0  0
   -0.4310   -1.1629   -0.8762 C   0  0  0  0  0  0  0  0  0  0  0  0
   -1.7551   -0.8434   -0.1874 C   0  0  0  0  0  0  0  0  0  0  0  0
   -1.8933    0.6737   -0.2353 C   0  0  0  0  0  0  0  0  0  0  0  0
   -1.1300    0.5811    1.0558 C   0  0  0  0  0  0  0  0  0  0  0  0
   -1.6105   -0.7325    1.1849 O   0  0  0  0  0  0  0  0  0  0  0  0
    0.3625    0.4748    0.8360 C   0  0  0  0  0  0  0  0  0  0  0  0
    0.9319    1.6746    0.1581 C   0  0  0  0  0  0  0  0  0  0  0  0
    2.6364   -0.0276   -0.3403 H   0  0  0  0  0  0  0  0  0  0  0  0
    2.6349   -1.7479    0.0875 H   0  0  0  0  0  0  0  0  0  0  0  0
    1.9603   -1.1728   -1.5130 H   0  0  0  0  0  0  0  0  0  0  0  0
    0.5484   -1.6290    0.9400 H   0  0  0  0  0  0  0  0  0  0  0  0
   -0.4305   -2.2229   -1.1415 H   0  0  0  0  0  0  0  0  0  0  0  0
   -0.2922   -0.4820   -1.7482 H   0  0  0  0  0  0  0  0  0  0  0  0
   -2.6206   -1.4021   -0.5559 H   0  0  0  0  0  0  0  0  0  0  0  0
   -2.9290    0.9912   -0.0652 H   0  0  0  0  0  0  0  0  0  0  0  0
   -1.3610    1.1151   -1.0926 H   0  0  0  0  0  0  0  0  0  0  0  0
   -1.4547    1.2578    1.8570 H   0  0  0  0  0  0  0  0  0  0  0  0
    0.8198    0.4258    1.8626 H   0  0  0  0  0  0  0  0  0  0  0  0
    0.8573    1.6367   -0.9513 H   0  0  0  0  0  0  0  0  0  0  0  0
    2.0214    1.7676    0.4098 H   0  0  0  0  0  0  0  0  0  0  0  0
    0.4572    2.5854    0.5711 H   0  0  0  0  0  0  0  0  0  0  0  0
  1  2  1  0
  2  3  1  0
  3  4  1  0
  4  5  1  0
  5  6  1  0
  6  7  1  0
  6  8  1  0
  8  9  1  0
  8  2  1  0
  7  4  1  0
  1 10  1  0
  1 11  1  0
  1 12  1  0
  2 13  1  0
  3 14  1  0
  3 15  1  0
  4 16  1  0
  5 17  1  0
  5 18  1  0
  6 19  1  0
  8 20  1  0
  9 21  1  0
  9 22  1  0
  9 23  1  0
M  END
