
     RDKit          3D

 19 20  0  0  0  0  0  0  0  0999 V2000
    2.0195   -0.4764   -0.5377 C   0  0  0  0  0  0  0  0  0  0  0  0
    0.5251   -0.3336   -0.4988 C   0  0  0  0  0  0  0  0  0  0  0  0
   -0.1373   -0.9771    0.6942 C   0  0  0  0  0  0  0  0  0  0  0  0
    0.6070   -0.0188    1.4956 C   0  0  0  0  0  0  0  0  0  0  0  0
    1.2566    0.0851    2.4913 O   0  0  0  0  0  0  0  0  0  0  0  0
    0.1357    0.8122    0.4062 C   0  0  0  0  0  0  0  0  0  0  0  0
    0.3093    2.0374    0.1857 O   0  0  0  0  0  0  0  0  0  0  0  0
   -1.1811    0.0898    0.5604 C   0  0  0  0  0  0  0  0  0  0  0  0
   -2.0592    0.0395   -0.6377 C   0  0  0  0  0  0  0  0  0  0  0  0
    2.3461   -1.4108   -1.0580 H   0  0  0  0  0  0  0  0  0  0  0  0
    2.5300    0.3597   -1.0545 H   0  0  0  0  0  0  0  0  0  0  0  0
    2.3783   -0.5830    0.5122 H   0  0  0  0  0  0  0  0  0  0  0  0
   -0.0150   -0.4218   -1.4410 H   0  0  0  0  0  0  0  0  0  0  0  0
   -0.2809   -1.9576    0.8354 H   0  0  0  0  0  0  0  0  0  0  0  0
    0.3042    2.3194   -0.7413 H   0  0  0  0  0  0  0  0  0  0  0  0
   -1.6851    0.2675    1.5382 H   0  0  0  0  0  0  0  0  0  0  0  0
   -3.1259    0.1060   -0.2709 H   0  0  0  0  0  0  0  0  0  0  0  0
   -1.9422    0.9560   -1.2786 H   0  0  0  0  0  0  0  0  0  0  0  0
   -1.9851   -0.8934   -1.2007 H   0  0  0  0  0  0  0  0  0  0  0  0
  1  2  1  0
  2  3  1  0
  3  4  1  0
  4  5  2  0
  4  6  1  0
  6  7  1  0
  6  8  1  0
  8  9  1  0
  6  2  1  0
  8  3  1  0
  1 10  1  0
  1 11  1  0
  1 12  1  0
  2 13  1  0
  3 14  1  0
  7 15  1  0
  8 16  1  0
  9 17  1  0
  9 18  1  0
  9 19  1  0
M  END
