
     RDKit          3D

 23 24  0  0  0  0  0  0  0  0999 V2000
    1.8645   -1.3759   -0.4033 C   0  0  0  0  0  0  0  0  0  0  0  0
    0.9192   -0.2468   -0.2467 C   0  0  0  0  0  0  0  0  0  0  0  0
    1.3722    0.8189    0.7221 C   0  0  0  0  0  0  0  0  0  0  0  0
    0.0882    1.6595    0.8063 C   0  0  0  0  0  0  0  0  0  0  0  0
   -1.0468    0.7180    0.5908 C   0  0  0  0  0  0  0  0  0  0  0  0
   -1.7287    0.8816   -0.7466 C   0  0  0  0  0  0  0  0  0  0  0  0
   -2.2452   -0.3870   -0.9918 O   0  0  0  0  0  0  0  0  0  0  0  0
   -1.3329   -1.3122   -0.5463 C   0  0  0  0  0  0  0  0  0  0  0  0
   -0.3941   -0.6554    0.3991 C   0  0  0  0  0  0  0  0  0  0  0  0
    1.2746   -2.2597   -0.7886 H   0  0  0  0  0  0  0  0  0  0  0  0
    2.3589   -1.7226    0.5057 H   0  0  0  0  0  0  0  0  0  0  0  0
    2.5985   -1.1655   -1.2217 H   0  0  0  0  0  0  0  0  0  0  0  0
    0.7463    0.2459   -1.2151 H   0  0  0  0  0  0  0  0  0  0  0  0
    2.2248    1.4065    0.3708 H   0  0  0  0  0  0  0  0  0  0  0  0
    1.5141    0.3872    1.7434 H   0  0  0  0  0  0  0  0  0  0  0  0
   -0.0090    2.1339    1.8088 H   0  0  0  0  0  0  0  0  0  0  0  0
    0.1891    2.4134   -0.0098 H   0  0  0  0  0  0  0  0  0  0  0  0
   -1.7897    0.7241    1.3836 H   0  0  0  0  0  0  0  0  0  0  0  0
   -1.0669    1.2314   -1.5433 H   0  0  0  0  0  0  0  0  0  0  0  0
   -2.5600    1.6111   -0.6118 H   0  0  0  0  0  0  0  0  0  0  0  0
   -0.8402   -1.8499   -1.3746 H   0  0  0  0  0  0  0  0  0  0  0  0
   -1.9168   -2.0907    0.0283 H   0  0  0  0  0  0  0  0  0  0  0  0
   -0.2200   -1.1658    1.3407 H   0  0  0  0  0  0  0  0  0  0  0  0
  1  2  1  0
  2  3  1  0
  3  4  1  0
  4  5  1  0
  5  6  1  0
  6  7  1  0
  7  8  1  0
  8  9  1  0
  9  2  1  0
  9  5  1  0
  1 10  1  0
  1 11  1  0
  1 12  1  0
  2 13  1  0
  3 14  1  0
  3 15  1  0
  4 16  1  0
  4 17  1  0
  5 18  1  0
  6 19  1  0
  6 20  1  0
  8 21  1  0
  8 22  1  0
  9 23  1  0
M  END
