
     RDKit          3D

 23 23  0  0  0  0  0  0  0  0999 V2000
   -1.7608    0.6579    0.6268 C   0  0  0  0  0  0  0  0  0  0  0  0
   -1.3648   -0.1661   -0.5735 C   0  0  0  0  0  0  0  0  0  0  0  0
   -0.8265   -1.5150   -0.1616 C   0  0  0  0  0  0  0  0  0  0  0  0
    0.2084   -1.4542    0.8697 C   0  0  0  0  0  0  0  0  0  0  0  0
    1.3993   -0.8935    1.0601 C   0  0  0  0  0  0  0  0  0  0  0  0
    2.3017   -0.0137    0.2806 C   0  0  0  0  0  0  0  0  0  0  0  0
    1.5297    1.2413   -0.0138 C   0  0  0  0  0  0  0  0  0  0  0  0
    0.4394    1.4421   -0.7294 C   0  0  0  0  0  0  0  0  0  0  0  0
   -0.4832    0.5621   -1.5352 C   0  0  0  0  0  0  0  0  0  0  0  0
   -1.8982    1.7106    0.3627 H   0  0  0  0  0  0  0  0  0  0  0  0
   -2.7699    0.2956    0.9804 H   0  0  0  0  0  0  0  0  0  0  0  0
   -1.0857    0.5390    1.4833 H   0  0  0  0  0  0  0  0  0  0  0  0
   -2.3287   -0.3853   -1.1236 H   0  0  0  0  0  0  0  0  0  0  0  0
   -1.6908   -2.0962    0.2175 H   0  0  0  0  0  0  0  0  0  0  0  0
   -0.4841   -2.0312   -1.0941 H   0  0  0  0  0  0  0  0  0  0  0  0
   -0.0527   -2.0313    1.7498 H   0  0  0  0  0  0  0  0  0  0  0  0
    1.7988   -1.1525    2.0319 H   0  0  0  0  0  0  0  0  0  0  0  0
    3.2079    0.2079    0.8699 H   0  0  0  0  0  0  0  0  0  0  0  0
    2.6118   -0.4355   -0.6785 H   0  0  0  0  0  0  0  0  0  0  0  0
    1.9441    2.1233    0.4409 H   0  0  0  0  0  0  0  0  0  0  0  0
    0.1270    2.4617   -0.7509 H   0  0  0  0  0  0  0  0  0  0  0  0
   -1.0140    1.1359   -2.3048 H   0  0  0  0  0  0  0  0  0  0  0  0
    0.1912   -0.2030   -2.0080 H   0  0  0  0  0  0  0  0  0  0  0  0
  1  2  1  0
  2  3  1  0
  3  4  1  0
  4  5  2  3
  5  6  1  0
  6  7  1  0
  7  8  2  3
  8  9  1  0
  9  2  1  0
  1 10  1  0
  1 11  1  0
  1 12  1  0
  2 13  1  0
  3 14  1  0
  3 15  1  0
  4 16  1  0
  5 17  1  0
  6 18  1  0
  6 19  1  0
  7 20  1  0
  8 21  1  0
  9 22  1  0
  9 23  1  0
M  END
