
     RDKit          3D

 21 22  0  0  0  0  0  0  0  0999 V2000
   -2.2850   -0.5898    0.9482 C   0  0  0  0  0  0  0  0  0  0  0  0
   -0.7631   -0.5258    0.9244 C   0  0  0  0  0  0  0  0  0  0  0  0
   -0.1804    0.7110    0.4273 C   0  0  0  0  0  0  0  0  0  0  0  0
   -1.0481    1.7943    0.1799 O   0  0  0  0  0  0  0  0  0  0  0  0
    1.2541    1.0846    0.5555 C   0  0  0  0  0  0  0  0  0  0  0  0
    2.0851   -0.1485    0.3341 C   0  0  0  0  0  0  0  0  0  0  0  0
    1.2312   -0.9981   -0.5572 C   0  0  0  0  0  0  0  0  0  0  0  0
   -0.1841   -0.4690   -0.4541 C   0  0  0  0  0  0  0  0  0  0  0  0
   -0.9964   -0.4563   -1.5674 O   0  0  0  0  0  0  0  0  0  0  0  0
   -2.5940   -1.5968    0.5890 H   0  0  0  0  0  0  0  0  0  0  0  0
   -2.6901   -0.4503    1.9711 H   0  0  0  0  0  0  0  0  0  0  0  0
   -2.7093    0.2150    0.3107 H   0  0  0  0  0  0  0  0  0  0  0  0
   -0.2963   -1.2063    1.6457 H   0  0  0  0  0  0  0  0  0  0  0  0
   -1.0567    2.3961    0.9570 H   0  0  0  0  0  0  0  0  0  0  0  0
    1.4926    1.7832   -0.3002 H   0  0  0  0  0  0  0  0  0  0  0  0
    1.5162    1.6321    1.4681 H   0  0  0  0  0  0  0  0  0  0  0  0
    2.3775   -0.6247    1.2761 H   0  0  0  0  0  0  0  0  0  0  0  0
    3.0074    0.1126   -0.2566 H   0  0  0  0  0  0  0  0  0  0  0  0
    1.2254   -2.0314   -0.1205 H   0  0  0  0  0  0  0  0  0  0  0  0
    1.6016   -1.0596   -1.5834 H   0  0  0  0  0  0  0  0  0  0  0  0
   -0.9877    0.4276   -2.0255 H   0  0  0  0  0  0  0  0  0  0  0  0
  1  2  1  0
  2  3  1  0
  3  4  1  0
  3  5  1  0
  5  6  1  0
  6  7  1  0
  7  8  1  0
  8  9  1  0
  8  2  1  0
  8  3  1  0
  1 10  1  0
  1 11  1  0
  1 12  1  0
  2 13  1  0
  4 14  1  0
  5 15  1  0
  5 16  1  0
  6 17  1  0
  6 18  1  0
  7 19  1  0
  7 20  1  0
  9 21  1  0
M  END
