
     RDKit          3D

 21 22  0  0  0  0  0  0  0  0999 V2000
   -1.0906    1.5359    0.1829 C   0  0  0  0  0  0  0  0  0  0  0  0
   -0.2983    0.5890   -0.6529 C   0  0  0  0  0  0  0  0  0  0  0  0
   -0.6327   -0.8409   -0.3100 C   0  0  0  0  0  0  0  0  0  0  0  0
   -1.0091   -1.0930    1.1232 C   0  0  0  0  0  0  0  0  0  0  0  0
   -1.4489   -1.3968   -1.2663 O   0  0  0  0  0  0  0  0  0  0  0  0
    0.8629   -1.1444   -0.4898 C   0  0  0  0  0  0  0  0  0  0  0  0
    1.1060    0.3301   -0.3263 C   0  0  0  0  0  0  0  0  0  0  0  0
    2.0304    0.9192    0.4730 C   0  0  0  0  0  0  0  0  0  0  0  0
    2.1686    0.8591   -1.0132 O   0  0  0  0  0  0  0  0  0  0  0  0
   -2.1735    1.3763   -0.1032 H   0  0  0  0  0  0  0  0  0  0  0  0
   -0.8983    2.6058   -0.0634 H   0  0  0  0  0  0  0  0  0  0  0  0
   -0.9965    1.3893    1.2608 H   0  0  0  0  0  0  0  0  0  0  0  0
   -0.4483    0.8082   -1.7316 H   0  0  0  0  0  0  0  0  0  0  0  0
   -1.3658   -2.1531    1.1779 H   0  0  0  0  0  0  0  0  0  0  0  0
   -0.1036   -1.0694    1.7900 H   0  0  0  0  0  0  0  0  0  0  0  0
   -1.8236   -0.4711    1.4963 H   0  0  0  0  0  0  0  0  0  0  0  0
   -1.0530   -1.2738   -2.1444 H   0  0  0  0  0  0  0  0  0  0  0  0
    1.0507   -1.5134   -1.5341 H   0  0  0  0  0  0  0  0  0  0  0  0
    1.2897   -1.7642    0.3076 H   0  0  0  0  0  0  0  0  0  0  0  0
    2.8560    0.3471    0.9787 H   0  0  0  0  0  0  0  0  0  0  0  0
    1.9777    1.9601    0.8447 H   0  0  0  0  0  0  0  0  0  0  0  0
  1  2  1  0
  2  3  1  0
  3  4  1  0
  3  5  1  0
  3  6  1  0
  6  7  1  0
  7  8  1  0
  8  9  1  0
  7  2  1  0
  9  7  1  0
  1 10  1  0
  1 11  1  0
  1 12  1  0
  2 13  1  0
  4 14  1  0
  4 15  1  0
  4 16  1  0
  5 17  1  0
  6 18  1  0
  6 19  1  0
  8 20  1  0
  8 21  1  0
M  END
