
     RDKit          3D

 23 24  0  0  0  0  0  0  0  0999 V2000
    2.5481   -0.2535   -0.6701 C   0  0  0  0  0  0  0  0  0  0  0  0
    1.3655    0.4060   -0.0669 C   0  0  0  0  0  0  0  0  0  0  0  0
    0.2115    0.5737   -1.0493 C   0  0  0  0  0  0  0  0  0  0  0  0
   -1.0069    0.0966   -0.2985 C   0  0  0  0  0  0  0  0  0  0  0  0
   -2.2865    0.6467   -0.7066 C   0  0  0  0  0  0  0  0  0  0  0  0
   -0.9062   -1.3959   -0.1762 C   0  0  0  0  0  0  0  0  0  0  0  0
    0.2630   -1.5982    0.5418 O   0  0  0  0  0  0  0  0  0  0  0  0
    0.7080   -0.3947    1.0323 C   0  0  0  0  0  0  0  0  0  0  0  0
   -0.5894    0.4334    1.1451 C   0  0  0  0  0  0  0  0  0  0  0  0
    2.6464   -0.1081   -1.7651 H   0  0  0  0  0  0  0  0  0  0  0  0
    3.4674    0.1267   -0.1439 H   0  0  0  0  0  0  0  0  0  0  0  0
    2.5049   -1.3415   -0.4378 H   0  0  0  0  0  0  0  0  0  0  0  0
    1.6105    1.4176    0.3334 H   0  0  0  0  0  0  0  0  0  0  0  0
    0.4020   -0.0404   -1.9617 H   0  0  0  0  0  0  0  0  0  0  0  0
    0.0594    1.6122   -1.3366 H   0  0  0  0  0  0  0  0  0  0  0  0
   -2.9764    0.7173    0.1610 H   0  0  0  0  0  0  0  0  0  0  0  0
   -2.1716    1.6654   -1.1031 H   0  0  0  0  0  0  0  0  0  0  0  0
   -2.7527    0.0188   -1.4898 H   0  0  0  0  0  0  0  0  0  0  0  0
   -1.7506   -1.7266    0.4868 H   0  0  0  0  0  0  0  0  0  0  0  0
   -0.9563   -1.9337   -1.1228 H   0  0  0  0  0  0  0  0  0  0  0  0
    1.2518   -0.4269    1.9608 H   0  0  0  0  0  0  0  0  0  0  0  0
   -0.3665    1.4982    1.2622 H   0  0  0  0  0  0  0  0  0  0  0  0
   -1.2754    0.0070    1.8766 H   0  0  0  0  0  0  0  0  0  0  0  0
  1  2  1  0
  2  3  1  0
  3  4  1  0
  4  5  1  0
  4  6  1  0
  6  7  1  0
  7  8  1  0
  8  9  1  0
  8  2  1  0
  9  4  1  0
  1 10  1  0
  1 11  1  0
  1 12  1  0
  2 13  1  0
  3 14  1  0
  3 15  1  0
  5 16  1  0
  5 17  1  0
  5 18  1  0
  6 19  1  0
  6 20  1  0
  8 21  1  0
  9 22  1  0
  9 23  1  0
M  END
