
     RDKit          3D

 25 26  0  0  0  0  0  0  0  0999 V2000
   -2.9268    0.0045   -0.2097 C   0  0  0  0  0  0  0  0  0  0  0  0
   -1.6642   -0.1030    0.6024 C   0  0  0  0  0  0  0  0  0  0  0  0
   -0.8087    1.1565    0.4726 C   0  0  0  0  0  0  0  0  0  0  0  0
    0.3869    0.6793   -0.2406 C   0  0  0  0  0  0  0  0  0  0  0  0
    1.7016    1.2360    0.1110 C   0  0  0  0  0  0  0  0  0  0  0  0
    2.6410    0.0296   -0.0134 C   0  0  0  0  0  0  0  0  0  0  0  0
    1.7281   -1.1729   -0.2986 C   0  0  0  0  0  0  0  0  0  0  0  0
    0.5256   -0.7212    0.4025 C   0  0  0  0  0  0  0  0  0  0  0  0
   -0.7909   -1.2618    0.0882 C   0  0  0  0  0  0  0  0  0  0  0  0
   -3.4878    0.8708    0.1561 H   0  0  0  0  0  0  0  0  0  0  0  0
   -3.5236   -0.8955   -0.0207 H   0  0  0  0  0  0  0  0  0  0  0  0
   -2.7137    0.1429   -1.2901 H   0  0  0  0  0  0  0  0  0  0  0  0
   -1.9314   -0.2351    1.6579 H   0  0  0  0  0  0  0  0  0  0  0  0
   -1.3670    1.8970   -0.1722 H   0  0  0  0  0  0  0  0  0  0  0  0
   -0.5985    1.6275    1.4322 H   0  0  0  0  0  0  0  0  0  0  0  0
    0.2307    0.5427   -1.3236 H   0  0  0  0  0  0  0  0  0  0  0  0
    2.0366    1.9980   -0.6402 H   0  0  0  0  0  0  0  0  0  0  0  0
    1.7150    1.6498    1.1240 H   0  0  0  0  0  0  0  0  0  0  0  0
    3.0699   -0.1690    0.9941 H   0  0  0  0  0  0  0  0  0  0  0  0
    3.3911    0.1732   -0.7874 H   0  0  0  0  0  0  0  0  0  0  0  0
    1.5939   -1.1855   -1.3923 H   0  0  0  0  0  0  0  0  0  0  0  0
    2.1941   -2.1007    0.0768 H   0  0  0  0  0  0  0  0  0  0  0  0
    0.6681   -0.6132    1.4840 H   0  0  0  0  0  0  0  0  0  0  0  0
   -0.9847   -1.3709   -0.9969 H   0  0  0  0  0  0  0  0  0  0  0  0
   -1.0852   -2.1793    0.5973 H   0  0  0  0  0  0  0  0  0  0  0  0
  1  2  1  0
  2  3  1  0
  3  4  1  0
  4  5  1  0
  5  6  1  0
  6  7  1  0
  7  8  1  0
  8  9  1  0
  9  2  1  0
  8  4  1  0
  1 10  1  0
  1 11  1  0
  1 12  1  0
  2 13  1  0
  3 14  1  0
  3 15  1  0
  4 16  1  0
  5 17  1  0
  5 18  1  0
  6 19  1  0
  6 20  1  0
  7 21  1  0
  7 22  1  0
  8 23  1  0
  9 24  1  0
  9 25  1  0
M  END
