
     RDKit          3D

 23 23  0  0  0  0  0  0  0  0999 V2000
   -0.9782   -1.6147    0.7528 C   0  0  0  0  0  0  0  0  0  0  0  0
   -1.1004   -0.6246   -0.3461 C   0  0  0  0  0  0  0  0  0  0  0  0
   -1.9936    0.5351    0.1332 C   0  0  0  0  0  0  0  0  0  0  0  0
   -0.6699    1.1888    0.5692 C   0  0  0  0  0  0  0  0  0  0  0  0
   -0.6690    2.5606    0.3983 O   0  0  0  0  0  0  0  0  0  0  0  0
   -0.0457    0.3956   -0.5505 C   0  0  0  0  0  0  0  0  0  0  0  0
    1.3732    0.0817   -0.4895 C   0  0  0  0  0  0  0  0  0  0  0  0
    1.9574   -0.4699    0.7479 C   0  0  0  0  0  0  0  0  0  0  0  0
    3.3407   -0.6618    0.4971 O   0  0  0  0  0  0  0  0  0  0  0  0
   -0.4280   -2.5396    0.4830 H   0  0  0  0  0  0  0  0  0  0  0  0
   -0.6724   -1.1700    1.7232 H   0  0  0  0  0  0  0  0  0  0  0  0
   -2.0282   -1.9872    0.9610 H   0  0  0  0  0  0  0  0  0  0  0  0
   -1.4852   -1.1065   -1.2675 H   0  0  0  0  0  0  0  0  0  0  0  0
   -2.6612    0.2847    0.9521 H   0  0  0  0  0  0  0  0  0  0  0  0
   -2.4312    1.0213   -0.7601 H   0  0  0  0  0  0  0  0  0  0  0  0
   -0.4125    0.9035    1.5863 H   0  0  0  0  0  0  0  0  0  0  0  0
   -1.5327    2.9679    0.6431 H   0  0  0  0  0  0  0  0  0  0  0  0
   -0.2719    0.9497   -1.5128 H   0  0  0  0  0  0  0  0  0  0  0  0
    1.9455    1.0277   -0.7292 H   0  0  0  0  0  0  0  0  0  0  0  0
    1.6281   -0.5888   -1.3644 H   0  0  0  0  0  0  0  0  0  0  0  0
    1.6089   -1.4466    1.0777 H   0  0  0  0  0  0  0  0  0  0  0  0
    1.8583    0.2453    1.5868 H   0  0  0  0  0  0  0  0  0  0  0  0
    3.6681    0.0479   -0.1197 H   0  0  0  0  0  0  0  0  0  0  0  0
  1  2  1  0
  2  3  1  0
  3  4  1  0
  4  5  1  0
  4  6  1  0
  6  7  1  0
  7  8  1  0
  8  9  1  0
  6  2  1  0
  1 10  1  0
  1 11  1  0
  1 12  1  0
  2 13  1  0
  3 14  1  0
  3 15  1  0
  4 16  1  0
  5 17  1  0
  6 18  1  0
  7 19  1  0
  7 20  1  0
  8 21  1  0
  8 22  1  0
  9 23  1  0
M  END
