
     RDKit          3D

 21 22  0  0  0  0  0  0  0  0999 V2000
   -2.3063   -1.3310   -0.0118 C   0  0  0  0  0  0  0  0  0  0  0  0
   -1.0640   -0.5118    0.1304 C   0  0  0  0  0  0  0  0  0  0  0  0
   -1.2278    0.8938   -0.3915 C   0  0  0  0  0  0  0  0  0  0  0  0
   -0.1047    1.7648    0.0809 C   0  0  0  0  0  0  0  0  0  0  0  0
    1.2363    1.5590    0.0341 C   0  0  0  0  0  0  0  0  0  0  0  0
    1.8008    0.3486   -0.5369 C   0  0  0  0  0  0  0  0  0  0  0  0
    2.5413   -0.7196    0.0212 C   0  0  0  0  0  0  0  0  0  0  0  0
    1.1550   -0.7702    0.3577 C   0  0  0  0  0  0  0  0  0  0  0  0
    0.0700   -1.1694   -0.3360 O   0  0  0  0  0  0  0  0  0  0  0  0
   -2.3104   -1.9762   -0.9207 H   0  0  0  0  0  0  0  0  0  0  0  0
   -2.3652   -2.0490    0.8491 H   0  0  0  0  0  0  0  0  0  0  0  0
   -3.1849   -0.6376   -0.0053 H   0  0  0  0  0  0  0  0  0  0  0  0
   -0.8931   -0.3870    1.2418 H   0  0  0  0  0  0  0  0  0  0  0  0
   -2.1584    1.2873    0.0507 H   0  0  0  0  0  0  0  0  0  0  0  0
   -1.3295    0.9281   -1.4950 H   0  0  0  0  0  0  0  0  0  0  0  0
   -0.3968    2.7286    0.5399 H   0  0  0  0  0  0  0  0  0  0  0  0
    1.8517    2.3500    0.4470 H   0  0  0  0  0  0  0  0  0  0  0  0
    1.5565    0.2817   -1.6422 H   0  0  0  0  0  0  0  0  0  0  0  0
    3.2939   -0.5932    0.8484 H   0  0  0  0  0  0  0  0  0  0  0  0
    2.9309   -1.5152   -0.6801 H   0  0  0  0  0  0  0  0  0  0  0  0
    0.9046   -0.4818    1.4181 H   0  0  0  0  0  0  0  0  0  0  0  0
  1  2  1  0
  2  3  1  0
  3  4  1  0
  4  5  2  0
  5  6  1  0
  6  7  1  0
  7  8  1  0
  8  9  1  0
  9  2  1  0
  8  6  1  0
  1 10  1  0
  1 11  1  0
  1 12  1  0
  2 13  1  0
  3 14  1  0
  3 15  1  0
  4 16  1  0
  5 17  1  0
  6 18  1  0
  7 19  1  0
  7 20  1  0
  8 21  1  0
M  END
