
     RDKit          3D

 19 19  0  0  0  0  0  0  0  0999 V2000
   -2.3401   -0.3315    0.0371 C   0  0  0  0  0  0  0  0  0  0  0  0
   -0.8714   -0.4095   -0.3080 C   0  0  0  0  0  0  0  0  0  0  0  0
   -0.3576    0.9732   -0.5170 C   0  0  0  0  0  0  0  0  0  0  0  0
    1.0066    1.2138    0.0783 C   0  0  0  0  0  0  0  0  0  0  0  0
    2.0198    0.5510   -0.5854 O   0  0  0  0  0  0  0  0  0  0  0  0
    2.3087   -0.6913   -0.0379 C   0  0  0  0  0  0  0  0  0  0  0  0
    1.2909   -1.1680    0.8047 O   0  0  0  0  0  0  0  0  0  0  0  0
   -0.0934   -1.0756    0.7623 C   0  0  0  0  0  0  0  0  0  0  0  0
   -0.6856   -1.6100    1.7219 O   0  0  0  0  0  0  0  0  0  0  0  0
   -2.8097   -1.3007    0.2067 H   0  0  0  0  0  0  0  0  0  0  0  0
   -2.8439    0.1057   -0.8719 H   0  0  0  0  0  0  0  0  0  0  0  0
   -2.5437    0.4162    0.8469 H   0  0  0  0  0  0  0  0  0  0  0  0
   -0.8060   -0.9645   -1.2747 H   0  0  0  0  0  0  0  0  0  0  0  0
   -0.2605    1.1964   -1.6158 H   0  0  0  0  0  0  0  0  0  0  0  0
   -1.0460    1.7124   -0.0329 H   0  0  0  0  0  0  0  0  0  0  0  0
    1.0507    1.0437    1.1618 H   0  0  0  0  0  0  0  0  0  0  0  0
    1.2105    2.3167   -0.0605 H   0  0  0  0  0  0  0  0  0  0  0  0
    2.5299   -1.3839   -0.8720 H   0  0  0  0  0  0  0  0  0  0  0  0
    3.2407   -0.5940    0.5566 H   0  0  0  0  0  0  0  0  0  0  0  0
  1  2  1  0
  2  3  1  0
  3  4  1  0
  4  5  1  0
  5  6  1  0
  6  7  1  0
  7  8  1  0
  8  9  2  0
  8  2  1  0
  1 10  1  0
  1 11  1  0
  1 12  1  0
  2 13  1  0
  3 14  1  0
  3 15  1  0
  4 16  1  0
  4 17  1  0
  6 18  1  0
  6 19  1  0
M  END
