
     RDKit          3D

 22 22  0  0  0  0  0  0  0  0999 V2000
   -0.5031    2.0672    0.0475 C   0  0  0  0  0  0  0  0  0  0  0  0
    0.0274    0.7660    0.5286 C   0  0  0  0  0  0  0  0  0  0  0  0
   -0.9311   -0.3357    0.7916 C   0  0  0  0  0  0  0  0  0  0  0  0
   -2.1621   -0.4098   -0.0437 C   0  0  0  0  0  0  0  0  0  0  0  0
    0.1318   -1.2988    0.2390 C   0  0  0  0  0  0  0  0  0  0  0  0
    0.9891   -1.6916    1.2763 O   0  0  0  0  0  0  0  0  0  0  0  0
    0.7010   -0.0983   -0.5102 C   0  0  0  0  0  0  0  0  0  0  0  0
    2.2167   -0.1376   -0.4171 C   0  0  0  0  0  0  0  0  0  0  0  0
    0.3254    2.8256    0.1732 H   0  0  0  0  0  0  0  0  0  0  0  0
   -1.3350    2.4483    0.6640 H   0  0  0  0  0  0  0  0  0  0  0  0
   -0.7277    2.0925   -1.0490 H   0  0  0  0  0  0  0  0  0  0  0  0
    0.7072    0.9084    1.4074 H   0  0  0  0  0  0  0  0  0  0  0  0
   -1.1382   -0.5880    1.8574 H   0  0  0  0  0  0  0  0  0  0  0  0
   -2.1909   -1.3430   -0.6628 H   0  0  0  0  0  0  0  0  0  0  0  0
   -2.3213    0.4360   -0.7215 H   0  0  0  0  0  0  0  0  0  0  0  0
   -3.0805   -0.4714    0.5976 H   0  0  0  0  0  0  0  0  0  0  0  0
   -0.2549   -2.1048   -0.3790 H   0  0  0  0  0  0  0  0  0  0  0  0
    1.3533   -2.5879    1.1605 H   0  0  0  0  0  0  0  0  0  0  0  0
    0.3440    0.0287   -1.5359 H   0  0  0  0  0  0  0  0  0  0  0  0
    2.5781    0.5106    0.3950 H   0  0  0  0  0  0  0  0  0  0  0  0
    2.7016    0.1678   -1.3512 H   0  0  0  0  0  0  0  0  0  0  0  0
    2.5692   -1.1842   -0.2092 H   0  0  0  0  0  0  0  0  0  0  0  0
  1  2  1  0
  2  3  1  0
  3  4  1  0
  3  5  1  0
  5  6  1  0
  5  7  1  0
  7  8  1  0
  7  2  1  0
  1  9  1  0
  1 10  1  0
  1 11  1  0
  2 12  1  0
  3 13  1  0
  4 14  1  0
  4 15  1  0
  4 16  1  0
  5 17  1  0
  6 18  1  0
  7 19  1  0
  8 20  1  0
  8 21  1  0
  8 22  1  0
M  END
