
     RDKit          3D

 19 21  0  0  0  0  0  0  0  0999 V2000
   -2.5954    0.1203    0.1165 C   0  0  0  0  0  0  0  0  0  0  0  0
   -1.2500   -0.2901   -0.4045 C   0  0  0  0  0  0  0  0  0  0  0  0
   -0.3841    0.7684   -0.9315 C   0  0  0  0  0  0  0  0  0  0  0  0
    0.9194    0.5845   -1.3072 O   0  0  0  0  0  0  0  0  0  0  0  0
    1.2310   -0.0112   -0.1370 C   0  0  0  0  0  0  0  0  0  0  0  0
    1.7857   -1.3815   -0.1670 C   0  0  0  0  0  0  0  0  0  0  0  0
    2.5036   -0.1810    0.4814 C   0  0  0  0  0  0  0  0  0  0  0  0
   -0.0871    0.1884    0.4802 C   0  0  0  0  0  0  0  0  0  0  0  0
   -0.3369    1.0589    1.5004 O   0  0  0  0  0  0  0  0  0  0  0  0
   -3.3446    0.0795   -0.6868 H   0  0  0  0  0  0  0  0  0  0  0  0
   -2.4981    1.1748    0.4729 H   0  0  0  0  0  0  0  0  0  0  0  0
   -2.9262   -0.5716    0.9127 H   0  0  0  0  0  0  0  0  0  0  0  0
   -1.1280   -1.2977   -0.8697 H   0  0  0  0  0  0  0  0  0  0  0  0
   -0.7851    1.7874   -0.9801 H   0  0  0  0  0  0  0  0  0  0  0  0
    2.1420   -1.7416   -1.1343 H   0  0  0  0  0  0  0  0  0  0  0  0
    1.4096   -2.1358    0.5710 H   0  0  0  0  0  0  0  0  0  0  0  0
    3.4229    0.1152   -0.0856 H   0  0  0  0  0  0  0  0  0  0  0  0
    2.6305   -0.2027    1.5792 H   0  0  0  0  0  0  0  0  0  0  0  0
   -0.7091    1.9357    1.1708 H   0  0  0  0  0  0  0  0  0  0  0  0
  1  2  1  0
  2  3  1  0
  3  4  1  0
  4  5  1  0
  5  6  1  0
  6  7  1  0
  5  8  1  0
  8  9  1  0
  8  2  1  0
  8  3  1  0
  7  5  1  0
  1 10  1  0
  1 11  1  0
  1 12  1  0
  2 13  1  0
  3 14  1  0
  6 15  1  0
  6 16  1  0
  7 17  1  0
  7 18  1  0
  9 19  1  0
M  END
