
     RDKit          3D

 22 22  0  0  0  0  0  0  0  0999 V2000
    1.0753    1.6921   -0.0216 C   0  0  0  0  0  0  0  0  0  0  0  0
    0.7535    0.3135   -0.4553 C   0  0  0  0  0  0  0  0  0  0  0  0
    1.7569   -0.6340    0.2014 C   0  0  0  0  0  0  0  0  0  0  0  0
    1.0610   -1.8562    0.0978 O   0  0  0  0  0  0  0  0  0  0  0  0
   -0.1456   -1.5135    0.7098 C   0  0  0  0  0  0  0  0  0  0  0  0
   -0.5425   -0.2399   -0.0463 C   0  0  0  0  0  0  0  0  0  0  0  0
   -1.4038    0.5793    0.8234 C   0  0  0  0  0  0  0  0  0  0  0  0
   -1.3265   -0.6185   -1.3064 C   0  0  0  0  0  0  0  0  0  0  0  0
    1.9829    2.0181   -0.6119 H   0  0  0  0  0  0  0  0  0  0  0  0
    0.2947    2.4415   -0.2783 H   0  0  0  0  0  0  0  0  0  0  0  0
    1.3979    1.7810    1.0442 H   0  0  0  0  0  0  0  0  0  0  0  0
    0.9358    0.2439   -1.5567 H   0  0  0  0  0  0  0  0  0  0  0  0
    1.9103   -0.3975    1.2692 H   0  0  0  0  0  0  0  0  0  0  0  0
    2.6937   -0.7070   -0.3623 H   0  0  0  0  0  0  0  0  0  0  0  0
   -0.9045   -2.2870    0.6572 H   0  0  0  0  0  0  0  0  0  0  0  0
    0.1068   -1.1736    1.7372 H   0  0  0  0  0  0  0  0  0  0  0  0
   -1.0133    1.5610    1.1151 H   0  0  0  0  0  0  0  0  0  0  0  0
   -1.6544    0.0450    1.7847 H   0  0  0  0  0  0  0  0  0  0  0  0
   -2.4116    0.7682    0.3546 H   0  0  0  0  0  0  0  0  0  0  0  0
   -0.8411   -1.4734   -1.8074 H   0  0  0  0  0  0  0  0  0  0  0  0
   -2.3639   -0.8386   -0.9954 H   0  0  0  0  0  0  0  0  0  0  0  0
   -1.3617    0.2955   -1.9243 H   0  0  0  0  0  0  0  0  0  0  0  0
  1  2  1  0
  2  3  1  0
  3  4  1  0
  4  5  1  0
  5  6  1  0
  6  7  1  0
  6  8  1  0
  6  2  1  0
  1  9  1  0
  1 10  1  0
  1 11  1  0
  2 12  1  0
  3 13  1  0
  3 14  1  0
  5 15  1  0
  5 16  1  0
  7 17  1  0
  7 18  1  0
  7 19  1  0
  8 20  1  0
  8 21  1  0
  8 22  1  0
M  END
