
     RDKit          3D

 21 21  0  0  0  0  0  0  0  0999 V2000
   -0.9150   -1.6462   -0.7189 C   0  0  0  0  0  0  0  0  0  0  0  0
   -0.7490   -0.2061   -0.6654 C   0  0  0  0  0  0  0  0  0  0  0  0
   -1.4629    0.4855    0.5051 C   0  0  0  0  0  0  0  0  0  0  0  0
   -0.8363    1.7084    0.6477 O   0  0  0  0  0  0  0  0  0  0  0  0
    0.0190    1.8793   -0.4451 C   0  0  0  0  0  0  0  0  0  0  0  0
    0.5865    0.4260   -0.5359 C   0  0  0  0  0  0  0  0  0  0  0  0
    1.3640    0.2500    0.6942 C   0  0  0  0  0  0  0  0  0  0  0  0
    1.7935   -1.0829    1.1098 C   0  0  0  0  0  0  0  0  0  0  0  0
    1.6430   -2.0799    0.4701 O   0  0  0  0  0  0  0  0  0  0  0  0
   -1.0218   -2.0870    0.3062 H   0  0  0  0  0  0  0  0  0  0  0  0
   -0.2518   -2.1853   -1.3865 H   0  0  0  0  0  0  0  0  0  0  0  0
   -1.9732   -1.8256   -1.1378 H   0  0  0  0  0  0  0  0  0  0  0  0
   -1.2318    0.3083   -1.5756 H   0  0  0  0  0  0  0  0  0  0  0  0
   -1.3409   -0.1531    1.3835 H   0  0  0  0  0  0  0  0  0  0  0  0
   -2.5231    0.6967    0.2325 H   0  0  0  0  0  0  0  0  0  0  0  0
    0.8021    2.5983   -0.2731 H   0  0  0  0  0  0  0  0  0  0  0  0
   -0.6297    2.0799   -1.3190 H   0  0  0  0  0  0  0  0  0  0  0  0
    1.2146    0.3443   -1.4514 H   0  0  0  0  0  0  0  0  0  0  0  0
    2.3412    0.8278    0.5515 H   0  0  0  0  0  0  0  0  0  0  0  0
    0.8866    0.8282    1.5353 H   0  0  0  0  0  0  0  0  0  0  0  0
    2.2850   -1.1664    2.0728 H   0  0  0  0  0  0  0  0  0  0  0  0
  1  2  1  0
  2  3  1  0
  3  4  1  0
  4  5  1  0
  5  6  1  0
  6  7  1  0
  7  8  1  0
  8  9  2  0
  6  2  1  0
  1 10  1  0
  1 11  1  0
  1 12  1  0
  2 13  1  0
  3 14  1  0
  3 15  1  0
  5 16  1  0
  5 17  1  0
  6 18  1  0
  7 19  1  0
  7 20  1  0
  8 21  1  0
M  END
