
     RDKit          3D

 18 19  0  0  0  0  0  0  0  0999 V2000
   -2.3340   -0.3346   -0.2245 C   0  0  0  0  0  0  0  0  0  0  0  0
   -1.0749    0.4624   -0.1917 C   0  0  0  0  0  0  0  0  0  0  0  0
   -0.0904    0.1360    0.8931 C   0  0  0  0  0  0  0  0  0  0  0  0
    0.1314   -1.1351    0.1810 C   0  0  0  0  0  0  0  0  0  0  0  0
    0.2701   -2.3226    0.3347 O   0  0  0  0  0  0  0  0  0  0  0  0
    0.0969   -0.1458   -0.9125 C   0  0  0  0  0  0  0  0  0  0  0  0
    0.9481    0.7232   -0.0303 C   0  0  0  0  0  0  0  0  0  0  0  0
    2.3564    0.2847    0.1886 C   0  0  0  0  0  0  0  0  0  0  0  0
   -3.1095    0.2528   -0.7584 H   0  0  0  0  0  0  0  0  0  0  0  0
   -2.7133   -0.4794    0.8074 H   0  0  0  0  0  0  0  0  0  0  0  0
   -2.2153   -1.3209   -0.7401 H   0  0  0  0  0  0  0  0  0  0  0  0
   -1.1679    1.5603   -0.3100 H   0  0  0  0  0  0  0  0  0  0  0  0
   -0.1821    0.2915    1.8745 H   0  0  0  0  0  0  0  0  0  0  0  0
    0.1940   -0.3033   -1.8938 H   0  0  0  0  0  0  0  0  0  0  0  0
    0.7878    1.8070   -0.1471 H   0  0  0  0  0  0  0  0  0  0  0  0
    2.7537    0.8081    1.0776 H   0  0  0  0  0  0  0  0  0  0  0  0
    2.3833   -0.8023    0.3393 H   0  0  0  0  0  0  0  0  0  0  0  0
    2.9656    0.5181   -0.6947 H   0  0  0  0  0  0  0  0  0  0  0  0
  1  2  1  0
  2  3  1  0
  3  4  1  0
  4  5  2  0
  4  6  1  0
  6  7  1  0
  7  8  1  0
  6  2  1  0
  7  3  1  0
  1  9  1  0
  1 10  1  0
  1 11  1  0
  2 12  1  0
  3 13  1  0
  6 14  1  0
  7 15  1  0
  8 16  1  0
  8 17  1  0
  8 18  1  0
M  END
