
     RDKit          3D

 22 22  0  0  0  0  0  0  0  0999 V2000
   -3.1130    0.1348   -0.2224 C   0  0  0  0  0  0  0  0  0  0  0  0
   -1.9147   -0.2896    0.5924 C   0  0  0  0  0  0  0  0  0  0  0  0
   -1.0207    0.8624    1.0056 C   0  0  0  0  0  0  0  0  0  0  0  0
   -0.5663   -0.1879   -0.0139 C   0  0  0  0  0  0  0  0  0  0  0  0
    0.5543   -1.0848    0.4151 C   0  0  0  0  0  0  0  0  0  0  0  0
    1.8045   -0.7499   -0.3757 C   0  0  0  0  0  0  0  0  0  0  0  0
    2.2292    0.6866   -0.1542 C   0  0  0  0  0  0  0  0  0  0  0  0
    3.3908    0.8754   -0.9337 O   0  0  0  0  0  0  0  0  0  0  0  0
   -3.7128   -0.7164   -0.5818 H   0  0  0  0  0  0  0  0  0  0  0  0
   -3.7558    0.7470    0.4656 H   0  0  0  0  0  0  0  0  0  0  0  0
   -2.7447    0.7850   -1.0497 H   0  0  0  0  0  0  0  0  0  0  0  0
   -2.1396   -1.0683    1.3558 H   0  0  0  0  0  0  0  0  0  0  0  0
   -0.6134    0.7921    2.0369 H   0  0  0  0  0  0  0  0  0  0  0  0
   -1.2309    1.8758    0.5875 H   0  0  0  0  0  0  0  0  0  0  0  0
   -0.5088    0.1663   -1.0813 H   0  0  0  0  0  0  0  0  0  0  0  0
    0.3175   -2.1631    0.3584 H   0  0  0  0  0  0  0  0  0  0  0  0
    0.8210   -0.8994    1.4958 H   0  0  0  0  0  0  0  0  0  0  0  0
    2.6008   -1.4585   -0.1036 H   0  0  0  0  0  0  0  0  0  0  0  0
    1.5907   -0.8714   -1.4570 H   0  0  0  0  0  0  0  0  0  0  0  0
    2.4291    0.9079    0.9087 H   0  0  0  0  0  0  0  0  0  0  0  0
    1.4869    1.4002   -0.5641 H   0  0  0  0  0  0  0  0  0  0  0  0
    4.0959    0.2559   -0.5630 H   0  0  0  0  0  0  0  0  0  0  0  0
  1  2  1  0
  2  3  1  0
  3  4  1  0
  4  5  1  0
  5  6  1  0
  6  7  1  0
  7  8  1  0
  4  2  1  0
  1  9  1  0
  1 10  1  0
  1 11  1  0
  2 12  1  0
  3 13  1  0
  3 14  1  0
  4 15  1  0
  5 16  1  0
  5 17  1  0
  6 18  1  0
  6 19  1  0
  7 20  1  0
  7 21  1  0
  8 22  1  0
M  END
