
     RDKit          3D

 23 23  0  0  0  0  0  0  0  0999 V2000
   -2.3347   -1.2575   -0.1223 C   0  0  0  0  0  0  0  0  0  0  0  0
   -1.1437   -0.5740    0.5375 C   0  0  0  0  0  0  0  0  0  0  0  0
   -1.5101    0.8299    0.7554 C   0  0  0  0  0  0  0  0  0  0  0  0
   -0.9169    1.9879    0.5709 C   0  0  0  0  0  0  0  0  0  0  0  0
    0.4478    2.1419    0.0231 C   0  0  0  0  0  0  0  0  0  0  0  0
    1.4159    1.2472   -0.0966 C   0  0  0  0  0  0  0  0  0  0  0  0
    1.2907   -0.1736    0.3303 C   0  0  0  0  0  0  0  0  0  0  0  0
    2.5438   -0.9554    0.0940 C   0  0  0  0  0  0  0  0  0  0  0  0
    0.0783   -0.7569   -0.3080 C   0  0  0  0  0  0  0  0  0  0  0  0
   -2.0246   -1.9587   -0.9029 H   0  0  0  0  0  0  0  0  0  0  0  0
   -2.9876   -1.7634    0.5927 H   0  0  0  0  0  0  0  0  0  0  0  0
   -2.9783   -0.4818   -0.6312 H   0  0  0  0  0  0  0  0  0  0  0  0
   -0.9732   -1.1016    1.5078 H   0  0  0  0  0  0  0  0  0  0  0  0
   -2.5164    0.9472    1.1706 H   0  0  0  0  0  0  0  0  0  0  0  0
   -1.4424    2.9066    0.8297 H   0  0  0  0  0  0  0  0  0  0  0  0
    0.7041    3.1320   -0.3371 H   0  0  0  0  0  0  0  0  0  0  0  0
    2.3483    1.5832   -0.5326 H   0  0  0  0  0  0  0  0  0  0  0  0
    1.1201   -0.1571    1.4430 H   0  0  0  0  0  0  0  0  0  0  0  0
    2.3781   -1.9717   -0.3047 H   0  0  0  0  0  0  0  0  0  0  0  0
    3.2037   -0.3354   -0.5629 H   0  0  0  0  0  0  0  0  0  0  0  0
    3.1340   -1.0896    1.0425 H   0  0  0  0  0  0  0  0  0  0  0  0
    0.2471   -1.8536   -0.4121 H   0  0  0  0  0  0  0  0  0  0  0  0
   -0.0839   -0.3454   -1.3372 H   0  0  0  0  0  0  0  0  0  0  0  0
  1  2  1  0
  2  3  1  0
  3  4  2  0
  4  5  1  0
  5  6  2  0
  6  7  1  0
  7  8  1  0
  7  9  1  0
  9  2  1  0
  1 10  1  0
  1 11  1  0
  1 12  1  0
  2 13  1  0
  3 14  1  0
  4 15  1  0
  5 16  1  0
  6 17  1  0
  7 18  1  0
  8 19  1  0
  8 20  1  0
  8 21  1  0
  9 22  1  0
  9 23  1  0
M  END
