
     RDKit          3D

 21 22  0  0  0  0  0  0  0  0999 V2000
   -2.2109   -1.0638   -0.4855 C   0  0  0  0  0  0  0  0  0  0  0  0
   -1.3661    0.1569   -0.6779 C   0  0  0  0  0  0  0  0  0  0  0  0
   -1.2333    0.9980    0.6026 C   0  0  0  0  0  0  0  0  0  0  0  0
   -0.0372    0.2949   -0.0050 C   0  0  0  0  0  0  0  0  0  0  0  0
    0.4943   -0.9405    0.6746 C   0  0  0  0  0  0  0  0  0  0  0  0
    1.6248   -0.5933    1.3742 O   0  0  0  0  0  0  0  0  0  0  0  0
    2.6144   -0.0244    0.6319 C   0  0  0  0  0  0  0  0  0  0  0  0
    2.2892    0.9178   -0.2599 O   0  0  0  0  0  0  0  0  0  0  0  0
    1.0202    1.1328   -0.6161 C   0  0  0  0  0  0  0  0  0  0  0  0
   -3.2802   -0.7426   -0.6460 H   0  0  0  0  0  0  0  0  0  0  0  0
   -2.1864   -1.3987    0.5848 H   0  0  0  0  0  0  0  0  0  0  0  0
   -1.9397   -1.9159   -1.1160 H   0  0  0  0  0  0  0  0  0  0  0  0
   -1.5942    0.7404   -1.6028 H   0  0  0  0  0  0  0  0  0  0  0  0
   -1.5833    0.5821    1.5463 H   0  0  0  0  0  0  0  0  0  0  0  0
   -1.3539    2.0875    0.4734 H   0  0  0  0  0  0  0  0  0  0  0  0
    0.7198   -1.7163   -0.0959 H   0  0  0  0  0  0  0  0  0  0  0  0
   -0.2441   -1.3342    1.4186 H   0  0  0  0  0  0  0  0  0  0  0  0
    3.2003   -0.8364    0.1080 H   0  0  0  0  0  0  0  0  0  0  0  0
    3.3663    0.4117    1.3548 H   0  0  0  0  0  0  0  0  0  0  0  0
    0.7683    2.2205   -0.4418 H   0  0  0  0  0  0  0  0  0  0  0  0
    0.9317    1.0234   -1.7378 H   0  0  0  0  0  0  0  0  0  0  0  0
  1  2  1  0
  2  3  1  0
  3  4  1  0
  4  5  1  0
  5  6  1  0
  6  7  1  0
  7  8  1  0
  8  9  1  0
  4  2  1  0
  9  4  1  0
  1 10  1  0
  1 11  1  0
  1 12  1  0
  2 13  1  0
  3 14  1  0
  3 15  1  0
  5 16  1  0
  5 17  1  0
  7 18  1  0
  7 19  1  0
  9 20  1  0
  9 21  1  0
M  END
