
     RDKit          3D

 19 19  0  0  0  0  0  0  0  0999 V2000
    2.3433    0.4416   -0.6449 C   0  0  0  0  0  0  0  0  0  0  0  0
    1.1466   -0.3447   -0.2533 C   0  0  0  0  0  0  0  0  0  0  0  0
    0.9453   -0.4473    1.2441 C   0  0  0  0  0  0  0  0  0  0  0  0
   -0.3725   -0.9051    1.3104 O   0  0  0  0  0  0  0  0  0  0  0  0
   -1.0433    0.0348    0.5412 C   0  0  0  0  0  0  0  0  0  0  0  0
   -2.3201   -0.5346   -0.0453 C   0  0  0  0  0  0  0  0  0  0  0  0
   -2.9030    0.4977   -0.7939 O   0  0  0  0  0  0  0  0  0  0  0  0
   -0.1407    0.3199   -0.6284 C   0  0  0  0  0  0  0  0  0  0  0  0
   -0.4550    0.9433   -1.5993 O   0  0  0  0  0  0  0  0  0  0  0  0
    3.2147   -0.2580   -0.6905 H   0  0  0  0  0  0  0  0  0  0  0  0
    2.1962    0.7927   -1.7068 H   0  0  0  0  0  0  0  0  0  0  0  0
    2.5331    1.3214   -0.0243 H   0  0  0  0  0  0  0  0  0  0  0  0
    1.1714   -1.3584   -0.6732 H   0  0  0  0  0  0  0  0  0  0  0  0
    0.9316    0.5729    1.7079 H   0  0  0  0  0  0  0  0  0  0  0  0
    1.6260   -1.1356    1.7333 H   0  0  0  0  0  0  0  0  0  0  0  0
   -1.2507    0.9155    1.1428 H   0  0  0  0  0  0  0  0  0  0  0  0
   -3.0109   -0.9228    0.7123 H   0  0  0  0  0  0  0  0  0  0  0  0
   -2.0542   -1.3218   -0.8086 H   0  0  0  0  0  0  0  0  0  0  0  0
   -2.5579    1.3886   -0.5235 H   0  0  0  0  0  0  0  0  0  0  0  0
  1  2  1  0
  2  3  1  0
  3  4  1  0
  4  5  1  0
  5  6  1  0
  6  7  1  0
  5  8  1  0
  8  9  2  0
  8  2  1  0
  1 10  1  0
  1 11  1  0
  1 12  1  0
  2 13  1  0
  3 14  1  0
  3 15  1  0
  5 16  1  0
  6 17  1  0
  6 18  1  0
  7 19  1  0
M  END
