
     RDKit          3D

 21 22  0  0  0  0  0  0  0  0999 V2000
    2.9650   -0.1027   -0.2670 C   0  0  0  0  0  0  0  0  0  0  0  0
    1.6112    0.4206    0.1172 C   0  0  0  0  0  0  0  0  0  0  0  0
    0.5989   -0.2155   -0.8279 C   0  0  0  0  0  0  0  0  0  0  0  0
   -0.5810   -0.4683    0.0941 C   0  0  0  0  0  0  0  0  0  0  0  0
   -1.8742   -0.0397   -0.4986 C   0  0  0  0  0  0  0  0  0  0  0  0
   -3.1541   -0.1440    0.1157 C   0  0  0  0  0  0  0  0  0  0  0  0
   -2.7789   -1.2125   -0.7399 O   0  0  0  0  0  0  0  0  0  0  0  0
   -0.1814    0.2862    1.3286 C   0  0  0  0  0  0  0  0  0  0  0  0
    1.2062    0.0183    1.3815 O   0  0  0  0  0  0  0  0  0  0  0  0
    3.0983    0.1080   -1.3563 H   0  0  0  0  0  0  0  0  0  0  0  0
    2.9646   -1.2022   -0.1239 H   0  0  0  0  0  0  0  0  0  0  0  0
    3.7911    0.3045    0.3408 H   0  0  0  0  0  0  0  0  0  0  0  0
    1.5563    1.5222    0.0583 H   0  0  0  0  0  0  0  0  0  0  0  0
    0.9952   -1.1379   -1.2639 H   0  0  0  0  0  0  0  0  0  0  0  0
    0.3063    0.5426   -1.6085 H   0  0  0  0  0  0  0  0  0  0  0  0
   -0.5429   -1.5550    0.3456 H   0  0  0  0  0  0  0  0  0  0  0  0
   -1.7841    0.4705   -1.4859 H   0  0  0  0  0  0  0  0  0  0  0  0
   -3.2944   -0.3873    1.1874 H   0  0  0  0  0  0  0  0  0  0  0  0
   -3.9979    0.4468   -0.2960 H   0  0  0  0  0  0  0  0  0  0  0  0
   -0.2878    1.3726    1.2423 H   0  0  0  0  0  0  0  0  0  0  0  0
   -0.6163   -0.1414    2.2566 H   0  0  0  0  0  0  0  0  0  0  0  0
  1  2  1  0
  2  3  1  0
  3  4  1  0
  4  5  1  0
  5  6  1  0
  6  7  1  0
  4  8  1  0
  8  9  1  0
  9  2  1  0
  7  5  1  0
  1 10  1  0
  1 11  1  0
  1 12  1  0
  2 13  1  0
  3 14  1  0
  3 15  1  0
  4 16  1  0
  5 17  1  0
  6 18  1  0
  6 19  1  0
  8 20  1  0
  8 21  1  0
M  END
