
     RDKit          3D

 22 23  0  0  0  0  0  0  0  0999 V2000
   -1.8336    0.8244    0.7747 C   0  0  0  0  0  0  0  0  0  0  0  0
   -1.0180    0.2651   -0.3249 C   0  0  0  0  0  0  0  0  0  0  0  0
   -1.3776   -1.1678   -0.7488 C   0  0  0  0  0  0  0  0  0  0  0  0
   -0.1105   -1.6263   -0.0158 C   0  0  0  0  0  0  0  0  0  0  0  0
    0.3418   -0.2188   -0.0512 C   0  0  0  0  0  0  0  0  0  0  0  0
    1.3779    0.1679   -1.0501 C   0  0  0  0  0  0  0  0  0  0  0  0
    1.9669    1.0927    0.0239 C   0  0  0  0  0  0  0  0  0  0  0  0
    1.1356    0.3263    1.0504 C   0  0  0  0  0  0  0  0  0  0  0  0
   -1.3772    0.8280    1.7659 H   0  0  0  0  0  0  0  0  0  0  0  0
   -2.8189    0.2857    0.7844 H   0  0  0  0  0  0  0  0  0  0  0  0
   -2.1053    1.8902    0.5458 H   0  0  0  0  0  0  0  0  0  0  0  0
   -1.0395    0.9070   -1.2485 H   0  0  0  0  0  0  0  0  0  0  0  0
   -2.3116   -1.5375   -0.3339 H   0  0  0  0  0  0  0  0  0  0  0  0
   -1.2392   -1.3660   -1.8239 H   0  0  0  0  0  0  0  0  0  0  0  0
    0.5279   -2.3102   -0.6036 H   0  0  0  0  0  0  0  0  0  0  0  0
   -0.3531   -2.0413    0.9989 H   0  0  0  0  0  0  0  0  0  0  0  0
    2.0418   -0.6574   -1.3444 H   0  0  0  0  0  0  0  0  0  0  0  0
    1.0209    0.7671   -1.9078 H   0  0  0  0  0  0  0  0  0  0  0  0
    1.6807    2.1443   -0.0713 H   0  0  0  0  0  0  0  0  0  0  0  0
    3.0407    0.9441    0.0777 H   0  0  0  0  0  0  0  0  0  0  0  0
    0.6590    0.9481    1.8185 H   0  0  0  0  0  0  0  0  0  0  0  0
    1.7911   -0.4658    1.5137 H   0  0  0  0  0  0  0  0  0  0  0  0
  1  2  1  0
  2  3  1  0
  3  4  1  0
  4  5  1  0
  5  6  1  0
  6  7  1  0
  7  8  1  0
  5  2  1  0
  8  5  1  0
  1  9  1  0
  1 10  1  0
  1 11  1  0
  2 12  1  0
  3 13  1  0
  3 14  1  0
  4 15  1  0
  4 16  1  0
  6 17  1  0
  6 18  1  0
  7 19  1  0
  7 20  1  0
  8 21  1  0
  8 22  1  0
M  END
