
     RDKit          3D

 19 22  0  0  0  0  0  0  0  0999 V2000
    2.0457    0.3692   -0.5987 C   0  0  0  0  0  0  0  0  0  0  0  0
    0.9410    0.0570    0.3735 C   0  0  0  0  0  0  0  0  0  0  0  0
    0.3931   -1.3437   -0.0306 C   0  0  0  0  0  0  0  0  0  0  0  0
   -0.2696   -0.6822   -0.8476 C   0  0  0  0  0  0  0  0  0  0  0  0
   -1.1818   -1.2359   -0.3713 C   0  0  0  0  0  0  0  0  0  0  0  0
   -1.4437    0.3315   -0.5056 C   0  0  0  0  0  0  0  0  0  0  0  0
   -2.5181    0.8650   -0.8842 O   0  0  0  0  0  0  0  0  0  0  0  0
   -0.2273    1.0656    0.1933 C   0  0  0  0  0  0  0  0  0  0  0  0
   -0.8887    0.0539    0.5115 C   0  0  0  0  0  0  0  0  0  0  0  0
    2.4445   -0.5482   -1.0781 H   0  0  0  0  0  0  0  0  0  0  0  0
    2.9164    0.8760   -0.1138 H   0  0  0  0  0  0  0  0  0  0  0  0
    1.6986    1.0333   -1.4321 H   0  0  0  0  0  0  0  0  0  0  0  0
    1.2763    0.0519    1.4137 H   0  0  0  0  0  0  0  0  0  0  0  0
    0.6013   -2.1713    0.6393 H   0  0  0  0  0  0  0  0  0  0  0  0
   -0.0503   -0.1321   -1.7369 H   0  0  0  0  0  0  0  0  0  0  0  0
   -1.8284   -1.7567    0.3538 H   0  0  0  0  0  0  0  0  0  0  0  0
   -2.7701    1.6700   -0.3748 H   0  0  0  0  0  0  0  0  0  0  0  0
   -0.0146    1.9664   -0.3622 H   0  0  0  0  0  0  0  0  0  0  0  0
   -1.1242   -0.4699    1.3971 H   0  0  0  0  0  0  0  0  0  0  0  0
  1  2  1  0
  2  3  1  0
  3  4  1  0
  4  5  1  0
  5  6  1  0
  6  7  1  0
  6  8  1  0
  8  9  1  0
  8  2  1  0
  5  3  1  0
  9  6  1  0
  9  4  1  0
  1 10  1  0
  1 11  1  0
  1 12  1  0
  2 13  1  0
  3 14  1  0
  4 15  1  0
  5 16  1  0
  7 17  1  0
  8 18  1  0
  9 19  1  0
M  END
