
     RDKit          3D

 21 21  0  0  0  0  0  0  0  0999 V2000
    2.3873    0.4490    0.3178 C   0  0  0  0  0  0  0  0  0  0  0  0
    0.9634   -0.0379    0.3269 C   0  0  0  0  0  0  0  0  0  0  0  0
    0.6296   -0.6901   -1.0213 C   0  0  0  0  0  0  0  0  0  0  0  0
   -0.8794   -0.8553   -0.8702 C   0  0  0  0  0  0  0  0  0  0  0  0
   -1.1806   -1.9585   -0.0936 O   0  0  0  0  0  0  0  0  0  0  0  0
   -1.2917    0.4480   -0.2722 C   0  0  0  0  0  0  0  0  0  0  0  0
   -2.3281    0.2996    0.7827 C   0  0  0  0  0  0  0  0  0  0  0  0
   -2.8420   -0.7402    1.1018 O   0  0  0  0  0  0  0  0  0  0  0  0
   -0.0469    1.0700    0.3491 C   0  0  0  0  0  0  0  0  0  0  0  0
    2.5772    1.1602    1.1256 H   0  0  0  0  0  0  0  0  0  0  0  0
    2.6535    0.8397   -0.6805 H   0  0  0  0  0  0  0  0  0  0  0  0
    3.0442   -0.4300    0.4979 H   0  0  0  0  0  0  0  0  0  0  0  0
    0.8133   -0.7216    1.1569 H   0  0  0  0  0  0  0  0  0  0  0  0
    0.8136    0.0770   -1.7955 H   0  0  0  0  0  0  0  0  0  0  0  0
    1.1523   -1.6284   -1.1742 H   0  0  0  0  0  0  0  0  0  0  0  0
   -1.2825   -1.0107   -1.8732 H   0  0  0  0  0  0  0  0  0  0  0  0
   -0.8206   -1.9265    0.8184 H   0  0  0  0  0  0  0  0  0  0  0  0
   -1.7191    1.0780   -1.0696 H   0  0  0  0  0  0  0  0  0  0  0  0
   -2.6396    1.1982    1.2989 H   0  0  0  0  0  0  0  0  0  0  0  0
    0.2544    1.9239   -0.2936 H   0  0  0  0  0  0  0  0  0  0  0  0
   -0.2583    1.4556    1.3679 H   0  0  0  0  0  0  0  0  0  0  0  0
  1  2  1  0
  2  3  1  0
  3  4  1  0
  4  5  1  0
  4  6  1  0
  6  7  1  0
  7  8  2  0
  6  9  1  0
  9  2  1  0
  1 10  1  0
  1 11  1  0
  1 12  1  0
  2 13  1  0
  3 14  1  0
  3 15  1  0
  4 16  1  0
  5 17  1  0
  6 18  1  0
  7 19  1  0
  9 20  1  0
  9 21  1  0
M  END
