
     RDKit          3D

 21 21  0  0  0  0  0  0  0  0999 V2000
   -0.8553    1.4636   -0.6889 C   0  0  0  0  0  0  0  0  0  0  0  0
   -0.3504    0.0625   -0.7118 C   0  0  0  0  0  0  0  0  0  0  0  0
   -1.0223   -0.7718    0.3571 C   0  0  0  0  0  0  0  0  0  0  0  0
   -2.4570   -0.5631    0.5231 C   0  0  0  0  0  0  0  0  0  0  0  0
   -3.2346   -1.0905   -0.2350 O   0  0  0  0  0  0  0  0  0  0  0  0
   -0.1950   -0.1254    1.2765 O   0  0  0  0  0  0  0  0  0  0  0  0
    0.7794   -0.1457    0.2733 C   0  0  0  0  0  0  0  0  0  0  0  0
    1.4216   -1.5109    0.2317 C   0  0  0  0  0  0  0  0  0  0  0  0
    1.7308    1.0130    0.2747 C   0  0  0  0  0  0  0  0  0  0  0  0
   -0.0482    2.1730   -0.3625 H   0  0  0  0  0  0  0  0  0  0  0  0
   -1.6921    1.6195    0.0337 H   0  0  0  0  0  0  0  0  0  0  0  0
   -1.2145    1.8336   -1.6664 H   0  0  0  0  0  0  0  0  0  0  0  0
   -0.2301   -0.4164   -1.6914 H   0  0  0  0  0  0  0  0  0  0  0  0
   -0.7577   -1.8434    0.1856 H   0  0  0  0  0  0  0  0  0  0  0  0
   -2.8215    0.0581    1.3177 H   0  0  0  0  0  0  0  0  0  0  0  0
    2.5246   -1.3407    0.2766 H   0  0  0  0  0  0  0  0  0  0  0  0
    1.1762   -2.0815   -0.6694 H   0  0  0  0  0  0  0  0  0  0  0  0
    1.1848   -2.1116    1.1567 H   0  0  0  0  0  0  0  0  0  0  0  0
    1.5145    1.7813    1.0185 H   0  0  0  0  0  0  0  0  0  0  0  0
    2.7440    0.5969    0.5084 H   0  0  0  0  0  0  0  0  0  0  0  0
    1.8028    1.3996   -0.7650 H   0  0  0  0  0  0  0  0  0  0  0  0
  1  2  1  0
  2  3  1  0
  3  4  1  0
  4  5  2  0
  3  6  1  0
  6  7  1  0
  7  8  1  0
  7  9  1  0
  7  2  1  0
  1 10  1  0
  1 11  1  0
  1 12  1  0
  2 13  1  0
  3 14  1  0
  4 15  1  0
  8 16  1  0
  8 17  1  0
  8 18  1  0
  9 19  1  0
  9 20  1  0
  9 21  1  0
M  END
