
     RDKit          3D

 19 20  0  0  0  0  0  0  0  0999 V2000
    1.8342   -0.9892    0.4012 C   0  0  0  0  0  0  0  0  0  0  0  0
    0.7749   -0.3268   -0.4596 C   0  0  0  0  0  0  0  0  0  0  0  0
    1.0677    1.0826   -0.7389 C   0  0  0  0  0  0  0  0  0  0  0  0
    0.0580    1.8753   -0.4059 C   0  0  0  0  0  0  0  0  0  0  0  0
   -1.0730    1.1078    0.1516 C   0  0  0  0  0  0  0  0  0  0  0  0
   -2.0025    0.6858   -0.7953 O   0  0  0  0  0  0  0  0  0  0  0  0
   -1.7407   -0.6626   -0.5128 C   0  0  0  0  0  0  0  0  0  0  0  0
   -0.5280   -0.2888    0.2664 C   0  0  0  0  0  0  0  0  0  0  0  0
   -0.4592   -0.7516    1.5718 O   0  0  0  0  0  0  0  0  0  0  0  0
    1.3842   -1.8823    0.9173 H   0  0  0  0  0  0  0  0  0  0  0  0
    2.1125   -0.2698    1.1965 H   0  0  0  0  0  0  0  0  0  0  0  0
    2.7266   -1.2872   -0.1876 H   0  0  0  0  0  0  0  0  0  0  0  0
    0.6853   -0.9387   -1.3875 H   0  0  0  0  0  0  0  0  0  0  0  0
    2.0210    1.4285   -1.1752 H   0  0  0  0  0  0  0  0  0  0  0  0
    0.0766    2.9470   -0.5331 H   0  0  0  0  0  0  0  0  0  0  0  0
   -1.5150    1.4738    1.0807 H   0  0  0  0  0  0  0  0  0  0  0  0
   -1.4946   -1.2245   -1.4124 H   0  0  0  0  0  0  0  0  0  0  0  0
   -2.5689   -1.1299    0.0563 H   0  0  0  0  0  0  0  0  0  0  0  0
   -1.3591   -0.8494    1.9666 H   0  0  0  0  0  0  0  0  0  0  0  0
  1  2  1  0
  2  3  1  0
  3  4  2  0
  4  5  1  0
  5  6  1  0
  6  7  1  0
  7  8  1  0
  8  9  1  0
  8  2  1  0
  8  5  1  0
  1 10  1  0
  1 11  1  0
  1 12  1  0
  2 13  1  0
  3 14  1  0
  4 15  1  0
  5 16  1  0
  7 17  1  0
  7 18  1  0
  9 19  1  0
M  END
