
     RDKit          3D

 17 17  0  0  0  0  0  0  0  0999 V2000
   -1.7289    1.1263   -0.1130 C   0  0  0  0  0  0  0  0  0  0  0  0
   -1.0313   -0.0255    0.5435 C   0  0  0  0  0  0  0  0  0  0  0  0
   -0.8757   -1.2270   -0.3303 C   0  0  0  0  0  0  0  0  0  0  0  0
    0.5149   -1.3388   -0.4477 O   0  0  0  0  0  0  0  0  0  0  0  0
    1.0255   -0.0570   -0.2515 C   0  0  0  0  0  0  0  0  0  0  0  0
    2.4569   -0.0711    0.2061 C   0  0  0  0  0  0  0  0  0  0  0  0
    0.2584    0.3662    0.8512 O   0  0  0  0  0  0  0  0  0  0  0  0
   -1.0389    1.8275   -0.6332 H   0  0  0  0  0  0  0  0  0  0  0  0
   -2.4752    0.8086   -0.8560 H   0  0  0  0  0  0  0  0  0  0  0  0
   -2.2081    1.7246    0.7067 H   0  0  0  0  0  0  0  0  0  0  0  0
   -1.5257   -0.2932    1.5045 H   0  0  0  0  0  0  0  0  0  0  0  0
   -1.3399   -1.1122   -1.3381 H   0  0  0  0  0  0  0  0  0  0  0  0
   -1.2687   -2.1514    0.1690 H   0  0  0  0  0  0  0  0  0  0  0  0
    0.9076    0.5990   -1.1225 H   0  0  0  0  0  0  0  0  0  0  0  0
    3.1300   -0.5358   -0.5287 H   0  0  0  0  0  0  0  0  0  0  0  0
    2.4693   -0.6198    1.1888 H   0  0  0  0  0  0  0  0  0  0  0  0
    2.7299    0.9797    0.4511 H   0  0  0  0  0  0  0  0  0  0  0  0
  1  2  1  0
  2  3  1  0
  3  4  1  0
  4  5  1  0
  5  6  1  0
  5  7  1  0
  7  2  1  0
  1  8  1  0
  1  9  1  0
  1 10  1  0
  2 11  1  0
  3 12  1  0
  3 13  1  0
  5 14  1  0
  6 15  1  0
  6 16  1  0
  6 17  1  0
M  END
