
     RDKit          3D

 19 19  0  0  0  0  0  0  0  0999 V2000
   -2.6857    0.3517    0.4200 C   0  0  0  0  0  0  0  0  0  0  0  0
   -1.2736   -0.0564    0.1158 C   0  0  0  0  0  0  0  0  0  0  0  0
   -0.5203    1.0497   -0.5481 C   0  0  0  0  0  0  0  0  0  0  0  0
    0.7850    0.8299   -0.6795 C   0  0  0  0  0  0  0  0  0  0  0  0
    1.3184   -0.4660   -0.1579 C   0  0  0  0  0  0  0  0  0  0  0  0
    2.7569   -0.2478    0.1513 C   0  0  0  0  0  0  0  0  0  0  0  0
    3.1779    0.8224    0.5484 O   0  0  0  0  0  0  0  0  0  0  0  0
    0.6385   -0.8927    1.1139 C   0  0  0  0  0  0  0  0  0  0  0  0
   -0.6182   -0.3448    1.2861 O   0  0  0  0  0  0  0  0  0  0  0  0
   -3.3373    0.0473   -0.4301 H   0  0  0  0  0  0  0  0  0  0  0  0
   -3.0076   -0.2433    1.3122 H   0  0  0  0  0  0  0  0  0  0  0  0
   -2.7585    1.4509    0.6255 H   0  0  0  0  0  0  0  0  0  0  0  0
   -1.2733   -0.9333   -0.5965 H   0  0  0  0  0  0  0  0  0  0  0  0
   -1.0178    1.9521   -0.8886 H   0  0  0  0  0  0  0  0  0  0  0  0
    1.3903    1.5841   -1.1489 H   0  0  0  0  0  0  0  0  0  0  0  0
    1.1744   -1.2543   -0.9301 H   0  0  0  0  0  0  0  0  0  0  0  0
    3.4651   -1.0514    0.0259 H   0  0  0  0  0  0  0  0  0  0  0  0
    0.5491   -1.9980    1.1628 H   0  0  0  0  0  0  0  0  0  0  0  0
    1.2366   -0.6001    2.0193 H   0  0  0  0  0  0  0  0  0  0  0  0
  1  2  1  0
  2  3  1  0
  3  4  2  0
  4  5  1  0
  5  6  1  0
  6  7  2  0
  5  8  1  0
  8  9  1  0
  9  2  1  0
  1 10  1  0
  1 11  1  0
  1 12  1  0
  2 13  1  0
  3 14  1  0
  4 15  1  0
  5 16  1  0
  6 17  1  0
  8 18  1  0
  8 19  1  0
M  END
