
     RDKit          3D

 21 23  0  0  0  0  0  0  0  0999 V2000
    2.0002   -0.4659    0.6439 C   0  0  0  0  0  0  0  0  0  0  0  0
    1.0494    0.0031   -0.3986 C   0  0  0  0  0  0  0  0  0  0  0  0
    0.3708    1.2974   -0.0988 C   0  0  0  0  0  0  0  0  0  0  0  0
   -0.6489    1.3319   -1.2559 C   0  0  0  0  0  0  0  0  0  0  0  0
   -1.2544   -0.0235   -0.9246 C   0  0  0  0  0  0  0  0  0  0  0  0
   -1.4471    0.1811    0.5852 C   0  0  0  0  0  0  0  0  0  0  0  0
   -0.8601   -1.2064    0.7541 C   0  0  0  0  0  0  0  0  0  0  0  0
   -0.1388   -0.9425   -0.5777 C   0  0  0  0  0  0  0  0  0  0  0  0
   -0.5285    1.1306    0.9752 O   0  0  0  0  0  0  0  0  0  0  0  0
    2.2486   -1.5307    0.4269 H   0  0  0  0  0  0  0  0  0  0  0  0
    2.9500    0.0934    0.5244 H   0  0  0  0  0  0  0  0  0  0  0  0
    1.6700   -0.3502    1.6758 H   0  0  0  0  0  0  0  0  0  0  0  0
    1.5727    0.0431   -1.3667 H   0  0  0  0  0  0  0  0  0  0  0  0
    0.9753    2.1745   -0.0366 H   0  0  0  0  0  0  0  0  0  0  0  0
   -0.1522    1.3449   -2.2266 H   0  0  0  0  0  0  0  0  0  0  0  0
   -1.4190    2.0844   -1.0961 H   0  0  0  0  0  0  0  0  0  0  0  0
   -2.0951   -0.3556   -1.4816 H   0  0  0  0  0  0  0  0  0  0  0  0
   -2.4836    0.3128    0.8753 H   0  0  0  0  0  0  0  0  0  0  0  0
   -1.6518   -1.9571    0.5907 H   0  0  0  0  0  0  0  0  0  0  0  0
   -0.1964   -1.3477    1.6071 H   0  0  0  0  0  0  0  0  0  0  0  0
    0.0390   -1.8177   -1.1898 H   0  0  0  0  0  0  0  0  0  0  0  0
  1  2  1  0
  2  3  1  0
  3  4  1  0
  4  5  1  0
  5  6  1  0
  6  7  1  0
  7  8  1  0
  6  9  1  0
  8  2  1  0
  9  3  1  0
  8  5  1  0
  1 10  1  0
  1 11  1  0
  1 12  1  0
  2 13  1  0
  3 14  1  0
  4 15  1  0
  4 16  1  0
  5 17  1  0
  6 18  1  0
  7 19  1  0
  7 20  1  0
  8 21  1  0
M  END
