
     RDKit          3D

 19 20  0  0  0  0  0  0  0  0999 V2000
    2.1817    0.5472   -0.1600 C   0  0  0  0  0  0  0  0  0  0  0  0
    1.0630   -0.4051    0.0498 C   0  0  0  0  0  0  0  0  0  0  0  0
    0.1073   -0.4657   -1.0992 C   0  0  0  0  0  0  0  0  0  0  0  0
    0.2787   -0.6428   -2.2826 O   0  0  0  0  0  0  0  0  0  0  0  0
   -1.1864   -0.2488   -0.4438 C   0  0  0  0  0  0  0  0  0  0  0  0
   -2.3327   -0.3130   -1.0916 O   0  0  0  0  0  0  0  0  0  0  0  0
   -0.8788    0.9984    0.3998 C   0  0  0  0  0  0  0  0  0  0  0  0
    0.0799    0.0294    1.1063 C   0  0  0  0  0  0  0  0  0  0  0  0
   -1.0395   -0.9921    0.8905 C   0  0  0  0  0  0  0  0  0  0  0  0
    2.0950    1.1986   -1.0345 H   0  0  0  0  0  0  0  0  0  0  0  0
    3.1254   -0.0555   -0.2973 H   0  0  0  0  0  0  0  0  0  0  0  0
    2.3518    1.1181    0.7878 H   0  0  0  0  0  0  0  0  0  0  0  0
    1.4116   -1.4524    0.2201 H   0  0  0  0  0  0  0  0  0  0  0  0
   -3.0429    0.1946   -0.6571 H   0  0  0  0  0  0  0  0  0  0  0  0
   -0.3845    1.7971   -0.1547 H   0  0  0  0  0  0  0  0  0  0  0  0
   -1.7149    1.2623    1.0582 H   0  0  0  0  0  0  0  0  0  0  0  0
    0.3886    0.2483    2.0877 H   0  0  0  0  0  0  0  0  0  0  0  0
   -0.6357   -2.0000    0.8040 H   0  0  0  0  0  0  0  0  0  0  0  0
   -1.8676   -0.8186    1.5772 H   0  0  0  0  0  0  0  0  0  0  0  0
  1  2  1  0
  2  3  1  0
  3  4  2  0
  3  5  1  0
  5  6  1  0
  5  7  1  0
  7  8  1  0
  8  9  1  0
  8  2  1  0
  9  5  1  0
  1 10  1  0
  1 11  1  0
  1 12  1  0
  2 13  1  0
  6 14  1  0
  7 15  1  0
  7 16  1  0
  8 17  1  0
  9 18  1  0
  9 19  1  0
M  END
