
     RDKit          3D

 18 19  0  0  0  0  0  0  0  0999 V2000
   -2.3385   -0.6232    0.0831 C   0  0  0  0  0  0  0  0  0  0  0  0
   -0.9953   -0.1260    0.5113 C   0  0  0  0  0  0  0  0  0  0  0  0
   -0.5752    1.1217   -0.2638 C   0  0  0  0  0  0  0  0  0  0  0  0
    0.3857    0.7822   -1.2476 O   0  0  0  0  0  0  0  0  0  0  0  0
    1.5602    0.5725   -0.5735 C   0  0  0  0  0  0  0  0  0  0  0  0
    2.2745   -0.6873   -0.4991 C   0  0  0  0  0  0  0  0  0  0  0  0
    1.2470   -0.4384    0.5452 C   0  0  0  0  0  0  0  0  0  0  0  0
    0.0186   -1.0634    0.3123 O   0  0  0  0  0  0  0  0  0  0  0  0
   -3.0123    0.2152   -0.2049 H   0  0  0  0  0  0  0  0  0  0  0  0
   -2.2555   -1.2987   -0.7882 H   0  0  0  0  0  0  0  0  0  0  0  0
   -2.8130   -1.2059    0.9107 H   0  0  0  0  0  0  0  0  0  0  0  0
   -1.0155    0.0706    1.6115 H   0  0  0  0  0  0  0  0  0  0  0  0
   -1.4461    1.6181   -0.6836 H   0  0  0  0  0  0  0  0  0  0  0  0
   -0.0238    1.7641    0.4814 H   0  0  0  0  0  0  0  0  0  0  0  0
    2.0837    1.5117   -0.2755 H   0  0  0  0  0  0  0  0  0  0  0  0
    2.0778   -1.4717   -1.2618 H   0  0  0  0  0  0  0  0  0  0  0  0
    3.3441   -0.6507   -0.2064 H   0  0  0  0  0  0  0  0  0  0  0  0
    1.4837   -0.0908    1.5490 H   0  0  0  0  0  0  0  0  0  0  0  0
  1  2  1  0
  2  3  1  0
  3  4  1  0
  4  5  1  0
  5  6  1  0
  6  7  1  0
  7  8  1  0
  8  2  1  0
  7  5  1  0
  1  9  1  0
  1 10  1  0
  1 11  1  0
  2 12  1  0
  3 13  1  0
  3 14  1  0
  5 15  1  0
  6 16  1  0
  6 17  1  0
  7 18  1  0
M  END
