
     RDKit          3D

 19 19  0  0  0  0  0  0  0  0999 V2000
   -1.6075    1.2771    0.3696 C   0  0  0  0  0  0  0  0  0  0  0  0
   -0.5187    0.2583    0.5287 C   0  0  0  0  0  0  0  0  0  0  0  0
   -1.0559   -1.1643    0.3678 C   0  0  0  0  0  0  0  0  0  0  0  0
   -0.8191   -1.0186   -1.0875 C   0  0  0  0  0  0  0  0  0  0  0  0
   -1.2727   -1.5208   -2.0894 O   0  0  0  0  0  0  0  0  0  0  0  0
    0.2034   -0.0025   -0.7984 C   0  0  0  0  0  0  0  0  0  0  0  0
    1.5839   -0.5400   -0.4943 C   0  0  0  0  0  0  0  0  0  0  0  0
    2.2964    0.4938    0.3070 C   0  0  0  0  0  0  0  0  0  0  0  0
    3.4418    0.3509    0.7083 O   0  0  0  0  0  0  0  0  0  0  0  0
   -1.3798    2.2437    0.8780 H   0  0  0  0  0  0  0  0  0  0  0  0
   -1.7944    1.4681   -0.7187 H   0  0  0  0  0  0  0  0  0  0  0  0
   -2.5650    0.8687    0.7617 H   0  0  0  0  0  0  0  0  0  0  0  0
    0.1627    0.4094    1.3643 H   0  0  0  0  0  0  0  0  0  0  0  0
   -2.0843   -1.3162    0.6930 H   0  0  0  0  0  0  0  0  0  0  0  0
   -0.3575   -1.9190    0.8187 H   0  0  0  0  0  0  0  0  0  0  0  0
    0.2318    0.8891   -1.4204 H   0  0  0  0  0  0  0  0  0  0  0  0
    2.1590   -0.7330   -1.4355 H   0  0  0  0  0  0  0  0  0  0  0  0
    1.5468   -1.4962    0.0543 H   0  0  0  0  0  0  0  0  0  0  0  0
    1.8290    1.4513    0.5852 H   0  0  0  0  0  0  0  0  0  0  0  0
  1  2  1  0
  2  3  1  0
  3  4  1  0
  4  5  2  0
  4  6  1  0
  6  7  1  0
  7  8  1  0
  8  9  2  0
  6  2  1  0
  1 10  1  0
  1 11  1  0
  1 12  1  0
  2 13  1  0
  3 14  1  0
  3 15  1  0
  6 16  1  0
  7 17  1  0
  7 18  1  0
  8 19  1  0
M  END
