
     RDKit          3D

 23 24  0  0  0  0  0  0  0  0999 V2000
   -1.9986   -0.4998    1.0724 C   0  0  0  0  0  0  0  0  0  0  0  0
   -1.1900   -0.4331   -0.1693 C   0  0  0  0  0  0  0  0  0  0  0  0
   -0.1633   -1.5551   -0.3512 C   0  0  0  0  0  0  0  0  0  0  0  0
    0.6667   -0.4816   -1.0335 C   0  0  0  0  0  0  0  0  0  0  0  0
    1.2457    0.5238   -0.1257 C   0  0  0  0  0  0  0  0  0  0  0  0
    1.7090    0.1504    1.2605 C   0  0  0  0  0  0  0  0  0  0  0  0
    2.7106   -0.8136    1.2362 O   0  0  0  0  0  0  0  0  0  0  0  0
   -0.1897    0.6279   -0.3367 C   0  0  0  0  0  0  0  0  0  0  0  0
   -0.6318    1.7769   -1.2549 C   0  0  0  0  0  0  0  0  0  0  0  0
   -1.5241   -0.1631    1.9865 H   0  0  0  0  0  0  0  0  0  0  0  0
   -2.2819   -1.5826    1.2228 H   0  0  0  0  0  0  0  0  0  0  0  0
   -2.9610    0.0548    0.8928 H   0  0  0  0  0  0  0  0  0  0  0  0
   -1.8859   -0.5028   -1.0588 H   0  0  0  0  0  0  0  0  0  0  0  0
   -0.4853   -2.3822   -0.9836 H   0  0  0  0  0  0  0  0  0  0  0  0
    0.2767   -1.9047    0.5963 H   0  0  0  0  0  0  0  0  0  0  0  0
    0.7056   -0.3932   -2.1086 H   0  0  0  0  0  0  0  0  0  0  0  0
    1.9224    1.2516   -0.6247 H   0  0  0  0  0  0  0  0  0  0  0  0
    2.1378    1.0624    1.7264 H   0  0  0  0  0  0  0  0  0  0  0  0
    0.8719   -0.1606    1.9173 H   0  0  0  0  0  0  0  0  0  0  0  0
    3.2902   -0.7280    0.4583 H   0  0  0  0  0  0  0  0  0  0  0  0
   -0.7606    2.6484   -0.5909 H   0  0  0  0  0  0  0  0  0  0  0  0
   -1.6130    1.5707   -1.7172 H   0  0  0  0  0  0  0  0  0  0  0  0
    0.1484    1.9334   -2.0145 H   0  0  0  0  0  0  0  0  0  0  0  0
  1  2  1  0
  2  3  1  0
  3  4  1  0
  4  5  1  0
  5  6  1  0
  6  7  1  0
  5  8  1  0
  8  9  1  0
  8  2  1  0
  8  4  1  0
  1 10  1  0
  1 11  1  0
  1 12  1  0
  2 13  1  0
  3 14  1  0
  3 15  1  0
  4 16  1  0
  5 17  1  0
  6 18  1  0
  6 19  1  0
  7 20  1  0
  9 21  1  0
  9 22  1  0
  9 23  1  0
M  END
