
     RDKit          3D

 20 20  0  0  0  0  0  0  0  0999 V2000
   -2.1152   -0.2856   -0.0997 C   0  0  0  0  0  0  0  0  0  0  0  0
   -0.7736   -0.4452    0.5065 C   0  0  0  0  0  0  0  0  0  0  0  0
    0.1335   -1.4439   -0.1886 C   0  0  0  0  0  0  0  0  0  0  0  0
    1.0885   -0.3251   -0.5234 C   0  0  0  0  0  0  0  0  0  0  0  0
    2.4585   -0.4709    0.0037 C   0  0  0  0  0  0  0  0  0  0  0  0
    2.8018   -0.0089    1.0794 O   0  0  0  0  0  0  0  0  0  0  0  0
    0.2362    0.6187    0.3122 C   0  0  0  0  0  0  0  0  0  0  0  0
   -0.1452    1.8148   -0.4947 C   0  0  0  0  0  0  0  0  0  0  0  0
   -2.3787    0.7259   -0.4213 H   0  0  0  0  0  0  0  0  0  0  0  0
   -2.1797   -0.9997   -0.9735 H   0  0  0  0  0  0  0  0  0  0  0  0
   -2.9180   -0.6340    0.5958 H   0  0  0  0  0  0  0  0  0  0  0  0
   -0.8451   -0.7276    1.5881 H   0  0  0  0  0  0  0  0  0  0  0  0
    0.5322   -2.2475    0.4505 H   0  0  0  0  0  0  0  0  0  0  0  0
   -0.3938   -1.8648   -1.0594 H   0  0  0  0  0  0  0  0  0  0  0  0
    1.0574   -0.1076   -1.6152 H   0  0  0  0  0  0  0  0  0  0  0  0
    3.2020   -1.0070   -0.5752 H   0  0  0  0  0  0  0  0  0  0  0  0
    0.7748    0.9316    1.2320 H   0  0  0  0  0  0  0  0  0  0  0  0
    0.8144    2.2511   -0.9020 H   0  0  0  0  0  0  0  0  0  0  0  0
   -0.7796    1.5820   -1.3550 H   0  0  0  0  0  0  0  0  0  0  0  0
   -0.5706    2.6437    0.1324 H   0  0  0  0  0  0  0  0  0  0  0  0
  1  2  1  0
  2  3  1  0
  3  4  1  0
  4  5  1  0
  5  6  2  0
  4  7  1  0
  7  8  1  0
  7  2  1  0
  1  9  1  0
  1 10  1  0
  1 11  1  0
  2 12  1  0
  3 13  1  0
  3 14  1  0
  4 15  1  0
  5 16  1  0
  7 17  1  0
  8 18  1  0
  8 19  1  0
  8 20  1  0
M  END
