
     RDKit          3D

 23 24  0  0  0  0  0  0  0  0999 V2000
   -2.2155   -0.8180    0.0632 C   0  0  0  0  0  0  0  0  0  0  0  0
   -0.9510   -0.4046   -0.6137 C   0  0  0  0  0  0  0  0  0  0  0  0
    0.1857   -1.3935   -0.2811 C   0  0  0  0  0  0  0  0  0  0  0  0
    1.1730   -0.3594    0.2430 C   0  0  0  0  0  0  0  0  0  0  0  0
    2.4776   -0.8063    0.6963 C   0  0  0  0  0  0  0  0  0  0  0  0
    1.0451    0.8355   -0.6449 C   0  0  0  0  0  0  0  0  0  0  0  0
   -0.3131    0.8193    0.0055 C   0  0  0  0  0  0  0  0  0  0  0  0
   -1.0766    2.0459    0.1113 C   0  0  0  0  0  0  0  0  0  0  0  0
    0.3523    0.3410    1.1582 O   0  0  0  0  0  0  0  0  0  0  0  0
   -1.9792   -0.9821    1.1536 H   0  0  0  0  0  0  0  0  0  0  0  0
   -2.9540   -0.0174   -0.0346 H   0  0  0  0  0  0  0  0  0  0  0  0
   -2.5843   -1.7310   -0.4011 H   0  0  0  0  0  0  0  0  0  0  0  0
   -1.0142   -0.3672   -1.7000 H   0  0  0  0  0  0  0  0  0  0  0  0
   -0.1270   -2.0503    0.5493 H   0  0  0  0  0  0  0  0  0  0  0  0
    0.5480   -1.9075   -1.1693 H   0  0  0  0  0  0  0  0  0  0  0  0
    3.2322   -0.6626   -0.1333 H   0  0  0  0  0  0  0  0  0  0  0  0
    2.8777   -0.1856    1.5362 H   0  0  0  0  0  0  0  0  0  0  0  0
    2.5086   -1.8860    0.9246 H   0  0  0  0  0  0  0  0  0  0  0  0
    1.6776    1.6545   -0.2996 H   0  0  0  0  0  0  0  0  0  0  0  0
    0.9887    0.6484   -1.7268 H   0  0  0  0  0  0  0  0  0  0  0  0
   -1.1394    2.3737    1.1895 H   0  0  0  0  0  0  0  0  0  0  0  0
   -2.1559    1.9734   -0.2074 H   0  0  0  0  0  0  0  0  0  0  0  0
   -0.5561    2.8797   -0.4189 H   0  0  0  0  0  0  0  0  0  0  0  0
  1  2  1  0
  2  3  1  0
  3  4  1  0
  4  5  1  0
  4  6  1  0
  6  7  1  0
  7  8  1  0
  7  9  1  0
  7  2  1  0
  9  4  1  0
  1 10  1  0
  1 11  1  0
  1 12  1  0
  2 13  1  0
  3 14  1  0
  3 15  1  0
  5 16  1  0
  5 17  1  0
  5 18  1  0
  6 19  1  0
  6 20  1  0
  8 21  1  0
  8 22  1  0
  8 23  1  0
M  END
