
     RDKit          3D

 21 21  0  0  0  0  0  0  0  0999 V2000
   -2.2824    0.7417    0.1549 C   0  0  0  0  0  0  0  0  0  0  0  0
   -1.3376   -0.3552    0.5502 C   0  0  0  0  0  0  0  0  0  0  0  0
   -0.0500    0.1495    1.2165 C   0  0  0  0  0  0  0  0  0  0  0  0
    0.5938    0.0864   -0.1464 C   0  0  0  0  0  0  0  0  0  0  0  0
    0.4660    1.3211   -0.7783 O   0  0  0  0  0  0  0  0  0  0  0  0
    2.0175   -0.3994   -0.1635 C   0  0  0  0  0  0  0  0  0  0  0  0
    2.8162    0.5453    0.5103 O   0  0  0  0  0  0  0  0  0  0  0  0
   -0.4544   -0.8711   -0.5745 C   0  0  0  0  0  0  0  0  0  0  0  0
   -0.2216   -2.2086   -0.4211 O   0  0  0  0  0  0  0  0  0  0  0  0
   -2.7164    0.5647   -0.8493 H   0  0  0  0  0  0  0  0  0  0  0  0
   -3.0766    0.7885    0.9366 H   0  0  0  0  0  0  0  0  0  0  0  0
   -1.8047    1.7420    0.1370 H   0  0  0  0  0  0  0  0  0  0  0  0
   -1.8371   -1.1407    1.1256 H   0  0  0  0  0  0  0  0  0  0  0  0
    0.3442   -0.6278    1.9212 H   0  0  0  0  0  0  0  0  0  0  0  0
   -0.1471    1.1428    1.6635 H   0  0  0  0  0  0  0  0  0  0  0  0
    0.6237    2.0445   -0.1156 H   0  0  0  0  0  0  0  0  0  0  0  0
    2.3585   -0.3839   -1.2189 H   0  0  0  0  0  0  0  0  0  0  0  0
    2.1385   -1.4051    0.2678 H   0  0  0  0  0  0  0  0  0  0  0  0
    2.7279    1.4385    0.1223 H   0  0  0  0  0  0  0  0  0  0  0  0
   -0.8303   -0.6497   -1.5898 H   0  0  0  0  0  0  0  0  0  0  0  0
    0.6720   -2.5236   -0.6075 H   0  0  0  0  0  0  0  0  0  0  0  0
  1  2  1  0
  2  3  1  0
  3  4  1  0
  4  5  1  0
  4  6  1  0
  6  7  1  0
  4  8  1  0
  8  9  1  0
  8  2  1  0
  1 10  1  0
  1 11  1  0
  1 12  1  0
  2 13  1  0
  3 14  1  0
  3 15  1  0
  5 16  1  0
  6 17  1  0
  6 18  1  0
  7 19  1  0
  8 20  1  0
  9 21  1  0
M  END
