
     RDKit          3D

 19 21  0  0  0  0  0  0  0  0999 V2000
    2.1632    0.1993    0.1316 C   0  0  0  0  0  0  0  0  0  0  0  0
    0.8106    0.2989   -0.4917 C   0  0  0  0  0  0  0  0  0  0  0  0
    0.2618   -1.0441   -0.9416 C   0  0  0  0  0  0  0  0  0  0  0  0
   -1.0414   -0.8800   -1.3521 O   0  0  0  0  0  0  0  0  0  0  0  0
   -1.7378   -0.4568   -0.2368 C   0  0  0  0  0  0  0  0  0  0  0  0
   -1.4968    1.0373    0.0221 C   0  0  0  0  0  0  0  0  0  0  0  0
   -0.1799    0.6189    0.6328 C   0  0  0  0  0  0  0  0  0  0  0  0
   -0.7745   -0.7231    0.8950 C   0  0  0  0  0  0  0  0  0  0  0  0
    0.0769   -1.6717    0.3122 O   0  0  0  0  0  0  0  0  0  0  0  0
    2.6694    1.1961   -0.0296 H   0  0  0  0  0  0  0  0  0  0  0  0
    2.7744   -0.6401   -0.2305 H   0  0  0  0  0  0  0  0  0  0  0  0
    2.1132    0.1082    1.2564 H   0  0  0  0  0  0  0  0  0  0  0  0
    0.7457    1.0139   -1.3182 H   0  0  0  0  0  0  0  0  0  0  0  0
    0.9097   -1.5917   -1.6053 H   0  0  0  0  0  0  0  0  0  0  0  0
   -2.7606   -0.7923   -0.1106 H   0  0  0  0  0  0  0  0  0  0  0  0
   -1.3401    1.5674   -0.9452 H   0  0  0  0  0  0  0  0  0  0  0  0
   -2.2175    1.5076    0.6932 H   0  0  0  0  0  0  0  0  0  0  0  0
    0.2032    1.1995    1.4549 H   0  0  0  0  0  0  0  0  0  0  0  0
   -1.1794   -0.9472    1.8633 H   0  0  0  0  0  0  0  0  0  0  0  0
  1  2  1  0
  2  3  1  0
  3  4  1  0
  4  5  1  0
  5  6  1  0
  6  7  1  0
  7  8  1  0
  8  9  1  0
  7  2  1  0
  9  3  1  0
  8  5  1  0
  1 10  1  0
  1 11  1  0
  1 12  1  0
  2 13  1  0
  3 14  1  0
  5 15  1  0
  6 16  1  0
  6 17  1  0
  7 18  1  0
  8 19  1  0
M  END
