
     RDKit          3D

 19 20  0  0  0  0  0  0  0  0999 V2000
    2.4618   -0.6776   -0.1303 C   0  0  0  0  0  0  0  0  0  0  0  0
    1.1932    0.1230   -0.3272 C   0  0  0  0  0  0  0  0  0  0  0  0
    0.3157   -0.0507    0.8972 C   0  0  0  0  0  0  0  0  0  0  0  0
   -1.0631    0.2347    0.2871 C   0  0  0  0  0  0  0  0  0  0  0  0
   -1.7627    1.4516    0.7110 C   0  0  0  0  0  0  0  0  0  0  0  0
   -2.4937    1.3986    1.6787 O   0  0  0  0  0  0  0  0  0  0  0  0
   -1.7277   -0.8989   -0.3547 C   0  0  0  0  0  0  0  0  0  0  0  0
   -0.8675    0.0109   -1.1884 C   0  0  0  0  0  0  0  0  0  0  0  0
    0.4454   -0.3503   -1.3885 O   0  0  0  0  0  0  0  0  0  0  0  0
    2.2100   -1.6877    0.1980 H   0  0  0  0  0  0  0  0  0  0  0  0
    3.0153   -0.6430   -1.0929 H   0  0  0  0  0  0  0  0  0  0  0  0
    3.0791   -0.1079    0.6096 H   0  0  0  0  0  0  0  0  0  0  0  0
    1.4416    1.2125   -0.4253 H   0  0  0  0  0  0  0  0  0  0  0  0
    0.3490   -1.0674    1.3125 H   0  0  0  0  0  0  0  0  0  0  0  0
    0.5767    0.7260    1.6541 H   0  0  0  0  0  0  0  0  0  0  0  0
   -1.6304    2.3796    0.1723 H   0  0  0  0  0  0  0  0  0  0  0  0
   -1.3468   -1.9223   -0.2560 H   0  0  0  0  0  0  0  0  0  0  0  0
   -2.8331   -0.8354   -0.4471 H   0  0  0  0  0  0  0  0  0  0  0  0
   -1.3628    0.7043   -1.9100 H   0  0  0  0  0  0  0  0  0  0  0  0
  1  2  1  0
  2  3  1  0
  3  4  1  0
  4  5  1  0
  5  6  2  0
  4  7  1  0
  7  8  1  0
  8  9  1  0
  9  2  1  0
  8  4  1  0
  1 10  1  0
  1 11  1  0
  1 12  1  0
  2 13  1  0
  3 14  1  0
  3 15  1  0
  5 16  1  0
  7 17  1  0
  7 18  1  0
  8 19  1  0
M  END
