
     RDKit          3D

 21 21  0  0  0  0  0  0  0  0999 V2000
   -2.4380    0.4498   -0.2082 C   0  0  0  0  0  0  0  0  0  0  0  0
   -1.2184   -0.3828   -0.5664 C   0  0  0  0  0  0  0  0  0  0  0  0
   -0.8527   -1.2607    0.6083 C   0  0  0  0  0  0  0  0  0  0  0  0
    0.6581   -1.3086    0.4920 C   0  0  0  0  0  0  0  0  0  0  0  0
    0.9672    0.1729    0.2688 C   0  0  0  0  0  0  0  0  0  0  0  0
    2.2897    0.3851   -0.1147 O   0  0  0  0  0  0  0  0  0  0  0  0
    3.0982    1.3028    0.5647 C   0  0  0  0  0  0  0  0  0  0  0  0
    2.5556    1.9092    1.5263 O   0  0  0  0  0  0  0  0  0  0  0  0
   -0.0185    0.4846   -0.8565 C   0  0  0  0  0  0  0  0  0  0  0  0
   -2.1423    1.5125   -0.2830 H   0  0  0  0  0  0  0  0  0  0  0  0
   -2.7783    0.2108    0.8331 H   0  0  0  0  0  0  0  0  0  0  0  0
   -3.2396    0.1558   -0.8990 H   0  0  0  0  0  0  0  0  0  0  0  0
   -1.4171   -1.0603   -1.4311 H   0  0  0  0  0  0  0  0  0  0  0  0
   -1.0889   -0.7577    1.5671 H   0  0  0  0  0  0  0  0  0  0  0  0
   -1.3222   -2.2513    0.5380 H   0  0  0  0  0  0  0  0  0  0  0  0
    0.8899   -1.8370   -0.4587 H   0  0  0  0  0  0  0  0  0  0  0  0
    1.1561   -1.7202    1.3634 H   0  0  0  0  0  0  0  0  0  0  0  0
    0.6442    0.7837    1.1309 H   0  0  0  0  0  0  0  0  0  0  0  0
    4.1285    1.4904    0.2918 H   0  0  0  0  0  0  0  0  0  0  0  0
   -0.2933    1.5430   -0.8318 H   0  0  0  0  0  0  0  0  0  0  0  0
    0.4217    0.1782   -1.8430 H   0  0  0  0  0  0  0  0  0  0  0  0
  1  2  1  0
  2  3  1  0
  3  4  1  0
  4  5  1  0
  5  6  1  0
  6  7  1  0
  7  8  2  0
  5  9  1  0
  9  2  1  0
  1 10  1  0
  1 11  1  0
  1 12  1  0
  2 13  1  0
  3 14  1  0
  3 15  1  0
  4 16  1  0
  4 17  1  0
  5 18  1  0
  7 19  1  0
  9 20  1  0
  9 21  1  0
M  END
