
     RDKit          3D

 20 22  0  0  0  0  0  0  0  0999 V2000
    1.4849    0.5677    0.9149 C   0  0  0  0  0  0  0  0  0  0  0  0
    0.9065    0.4338   -0.4306 C   0  0  0  0  0  0  0  0  0  0  0  0
   -0.4030    1.1478   -0.6422 C   0  0  0  0  0  0  0  0  0  0  0  0
   -1.3839    1.4622    0.3541 C   0  0  0  0  0  0  0  0  0  0  0  0
   -1.4314    0.0237   -0.2440 C   0  0  0  0  0  0  0  0  0  0  0  0
   -0.5659   -1.0101    0.3275 C   0  0  0  0  0  0  0  0  0  0  0  0
    0.1326   -2.1195   -0.1886 C   0  0  0  0  0  0  0  0  0  0  0  0
    0.5028   -0.9390   -0.8402 C   0  0  0  0  0  0  0  0  0  0  0  0
    1.8326   -0.4074    1.3674 H   0  0  0  0  0  0  0  0  0  0  0  0
    2.4257    1.1944    0.8970 H   0  0  0  0  0  0  0  0  0  0  0  0
    0.8077    1.1021    1.6127 H   0  0  0  0  0  0  0  0  0  0  0  0
    1.6349    0.8146   -1.1797 H   0  0  0  0  0  0  0  0  0  0  0  0
   -0.5681    1.5290   -1.6792 H   0  0  0  0  0  0  0  0  0  0  0  0
   -2.2389    2.0680    0.0802 H   0  0  0  0  0  0  0  0  0  0  0  0
   -1.2022    1.4052    1.4457 H   0  0  0  0  0  0  0  0  0  0  0  0
   -2.2210   -0.1850   -0.9700 H   0  0  0  0  0  0  0  0  0  0  0  0
   -0.1881   -0.6860    1.3482 H   0  0  0  0  0  0  0  0  0  0  0  0
    0.9000   -2.6570    0.4275 H   0  0  0  0  0  0  0  0  0  0  0  0
   -0.4858   -2.9053   -0.7160 H   0  0  0  0  0  0  0  0  0  0  0  0
    0.0606   -0.8394   -1.8847 H   0  0  0  0  0  0  0  0  0  0  0  0
  1  2  1  0
  2  3  1  0
  3  4  1  0
  4  5  1  0
  5  6  1  0
  6  7  1  0
  7  8  1  0
  8  2  1  0
  5  3  1  0
  8  6  1  0
  1  9  1  0
  1 10  1  0
  1 11  1  0
  2 12  1  0
  3 13  1  0
  4 14  1  0
  4 15  1  0
  5 16  1  0
  6 17  1  0
  7 18  1  0
  7 19  1  0
  8 20  1  0
M  END
