
     RDKit          3D

 22 23  0  0  0  0  0  0  0  0999 V2000
    2.0920    0.1722   -0.9074 C   0  0  0  0  0  0  0  0  0  0  0  0
    1.5386    0.8782    0.2892 C   0  0  0  0  0  0  0  0  0  0  0  0
    1.2699   -0.0630    1.4794 C   0  0  0  0  0  0  0  0  0  0  0  0
    0.1761    0.6812    0.7878 C   0  0  0  0  0  0  0  0  0  0  0  0
   -0.8916   -0.0327    0.0296 C   0  0  0  0  0  0  0  0  0  0  0  0
   -1.2380    0.5847   -1.3142 C   0  0  0  0  0  0  0  0  0  0  0  0
   -2.0760   -0.4629    0.8799 C   0  0  0  0  0  0  0  0  0  0  0  0
   -1.1850   -1.4599    0.1859 C   0  0  0  0  0  0  0  0  0  0  0  0
    2.0561    0.7513   -1.8360 H   0  0  0  0  0  0  0  0  0  0  0  0
    3.1664   -0.0790   -0.6651 H   0  0  0  0  0  0  0  0  0  0  0  0
    1.6015   -0.8141   -1.0548 H   0  0  0  0  0  0  0  0  0  0  0  0
    2.0995    1.8224    0.5407 H   0  0  0  0  0  0  0  0  0  0  0  0
    1.3667   -1.1404    1.3245 H   0  0  0  0  0  0  0  0  0  0  0  0
    1.6286    0.2723    2.4784 H   0  0  0  0  0  0  0  0  0  0  0  0
   -0.2269    1.5406    1.4020 H   0  0  0  0  0  0  0  0  0  0  0  0
   -0.3344    0.5690   -1.9464 H   0  0  0  0  0  0  0  0  0  0  0  0
   -1.6749    1.6063   -1.2003 H   0  0  0  0  0  0  0  0  0  0  0  0
   -2.0632   -0.0325   -1.7649 H   0  0  0  0  0  0  0  0  0  0  0  0
   -1.9865   -0.4414    1.9752 H   0  0  0  0  0  0  0  0  0  0  0  0
   -3.0680   -0.2337    0.4861 H   0  0  0  0  0  0  0  0  0  0  0  0
   -0.5636   -2.1350    0.8103 H   0  0  0  0  0  0  0  0  0  0  0  0
   -1.6874   -1.9837   -0.6547 H   0  0  0  0  0  0  0  0  0  0  0  0
  1  2  1  0
  2  3  1  0
  3  4  1  0
  4  5  1  0
  5  6  1  0
  5  7  1  0
  7  8  1  0
  4  2  1  0
  8  5  1  0
  1  9  1  0
  1 10  1  0
  1 11  1  0
  2 12  1  0
  3 13  1  0
  3 14  1  0
  4 15  1  0
  6 16  1  0
  6 17  1  0
  6 18  1  0
  7 19  1  0
  7 20  1  0
  8 21  1  0
  8 22  1  0
M  END
