
     RDKit          3D

 25 26  0  0  0  0  0  0  0  0999 V2000
    2.2965    0.2481    0.1360 C   0  0  0  0  0  0  0  0  0  0  0  0
    0.9024   -0.2427    0.3829 C   0  0  0  0  0  0  0  0  0  0  0  0
    0.6137   -1.5796   -0.2390 C   0  0  0  0  0  0  0  0  0  0  0  0
   -0.8521   -1.8932    0.0798 C   0  0  0  0  0  0  0  0  0  0  0  0
   -1.7136   -0.6782   -0.1362 C   0  0  0  0  0  0  0  0  0  0  0  0
   -1.0271    0.2425   -1.1524 C   0  0  0  0  0  0  0  0  0  0  0  0
   -0.1698    0.7108    0.0008 C   0  0  0  0  0  0  0  0  0  0  0  0
    0.1844    2.1586   -0.0903 C   0  0  0  0  0  0  0  0  0  0  0  0
   -1.3841    0.4148    0.8897 C   0  0  0  0  0  0  0  0  0  0  0  0
    2.6687    0.1005   -0.8745 H   0  0  0  0  0  0  0  0  0  0  0  0
    2.3229    1.3222    0.4583 H   0  0  0  0  0  0  0  0  0  0  0  0
    2.9848   -0.2696    0.8683 H   0  0  0  0  0  0  0  0  0  0  0  0
    0.8241   -0.3960    1.5009 H   0  0  0  0  0  0  0  0  0  0  0  0
    1.2346   -2.3865    0.2498 H   0  0  0  0  0  0  0  0  0  0  0  0
    0.8191   -1.6435   -1.3051 H   0  0  0  0  0  0  0  0  0  0  0  0
   -1.2450   -2.7001   -0.5617 H   0  0  0  0  0  0  0  0  0  0  0  0
   -0.8521   -2.1740    1.1651 H   0  0  0  0  0  0  0  0  0  0  0  0
   -2.7678   -0.8566   -0.3052 H   0  0  0  0  0  0  0  0  0  0  0  0
   -1.7523    1.0478   -1.4120 H   0  0  0  0  0  0  0  0  0  0  0  0
   -0.5243   -0.2604   -1.9715 H   0  0  0  0  0  0  0  0  0  0  0  0
    1.0066    2.2783   -0.7924 H   0  0  0  0  0  0  0  0  0  0  0  0
   -0.7027    2.6806   -0.5553 H   0  0  0  0  0  0  0  0  0  0  0  0
    0.3475    2.6434    0.8873 H   0  0  0  0  0  0  0  0  0  0  0  0
   -2.1135    1.2214    0.8866 H   0  0  0  0  0  0  0  0  0  0  0  0
   -1.1007    0.0113    1.8899 H   0  0  0  0  0  0  0  0  0  0  0  0
  1  2  1  0
  2  3  1  0
  3  4  1  0
  4  5  1  0
  5  6  1  0
  6  7  1  0
  7  8  1  0
  7  9  1  0
  7  2  1  0
  9  5  1  0
  1 10  1  0
  1 11  1  0
  1 12  1  0
  2 13  1  0
  3 14  1  0
  3 15  1  0
  4 16  1  0
  4 17  1  0
  5 18  1  0
  6 19  1  0
  6 20  1  0
  8 21  1  0
  8 22  1  0
  8 23  1  0
  9 24  1  0
  9 25  1  0
M  END
