
     RDKit          3D

 23 25  0  0  0  0  0  0  0  0999 V2000
   -2.2318    0.9834    0.6313 C   0  0  0  0  0  0  0  0  0  0  0  0
   -1.3390    0.4888   -0.4508 C   0  0  0  0  0  0  0  0  0  0  0  0
   -1.6973   -0.8535   -1.0552 C   0  0  0  0  0  0  0  0  0  0  0  0
   -0.3492   -1.4151   -0.5779 C   0  0  0  0  0  0  0  0  0  0  0  0
   -0.0350   -0.0827   -0.0612 C   0  0  0  0  0  0  0  0  0  0  0  0
    0.7132    0.2358    1.1419 C   0  0  0  0  0  0  0  0  0  0  0  0
    2.0451   -0.4955    1.3016 C   0  0  0  0  0  0  0  0  0  0  0  0
    2.5446    0.2552    0.1085 C   0  0  0  0  0  0  0  0  0  0  0  0
    1.1754    0.6818   -0.2789 C   0  0  0  0  0  0  0  0  0  0  0  0
   -3.2580    0.5977    0.6044 H   0  0  0  0  0  0  0  0  0  0  0  0
   -1.7693    0.7763    1.6341 H   0  0  0  0  0  0  0  0  0  0  0  0
   -2.2702    2.1115    0.5823 H   0  0  0  0  0  0  0  0  0  0  0  0
   -1.2042    1.2543   -1.2666 H   0  0  0  0  0  0  0  0  0  0  0  0
   -2.5741   -1.3535   -0.6406 H   0  0  0  0  0  0  0  0  0  0  0  0
   -1.7640   -0.8381   -2.1689 H   0  0  0  0  0  0  0  0  0  0  0  0
   -0.4758   -2.1890    0.2325 H   0  0  0  0  0  0  0  0  0  0  0  0
    0.2499   -1.8433   -1.3886 H   0  0  0  0  0  0  0  0  0  0  0  0
    0.4715    1.0331    1.8558 H   0  0  0  0  0  0  0  0  0  0  0  0
    2.5537   -0.3324    2.2546 H   0  0  0  0  0  0  0  0  0  0  0  0
    1.9287   -1.6080    1.1489 H   0  0  0  0  0  0  0  0  0  0  0  0
    3.0674   -0.3158   -0.6684 H   0  0  0  0  0  0  0  0  0  0  0  0
    3.1770    1.1218    0.4490 H   0  0  0  0  0  0  0  0  0  0  0  0
    1.0413    1.7871   -0.4647 H   0  0  0  0  0  0  0  0  0  0  0  0
  1  2  1  0
  2  3  1  0
  3  4  1  0
  4  5  1  0
  5  6  1  0
  6  7  1  0
  7  8  1  0
  8  9  1  0
  5  2  1  0
  9  6  1  0
  9  5  1  0
  1 10  1  0
  1 11  1  0
  1 12  1  0
  2 13  1  0
  3 14  1  0
  3 15  1  0
  4 16  1  0
  4 17  1  0
  6 18  1  0
  7 19  1  0
  7 20  1  0
  8 21  1  0
  8 22  1  0
  9 23  1  0
M  END
