
     RDKit          3D

 20 20  0  0  0  0  0  0  0  0999 V2000
   -1.6095   -0.4814    1.0571 C   0  0  0  0  0  0  0  0  0  0  0  0
   -0.8197   -0.5661   -0.2053 C   0  0  0  0  0  0  0  0  0  0  0  0
   -1.0751    0.5767   -1.1987 C   0  0  0  0  0  0  0  0  0  0  0  0
    0.3748    0.4963   -1.5383 C   0  0  0  0  0  0  0  0  0  0  0  0
    1.1052    0.7382   -2.4743 O   0  0  0  0  0  0  0  0  0  0  0  0
    0.5933   -0.0463   -0.1528 C   0  0  0  0  0  0  0  0  0  0  0  0
    0.7941    1.1170    0.7951 C   0  0  0  0  0  0  0  0  0  0  0  0
    1.6766   -1.0559   -0.0291 C   0  0  0  0  0  0  0  0  0  0  0  0
   -1.0808   -0.8421    1.9486 H   0  0  0  0  0  0  0  0  0  0  0  0
   -2.4995   -1.1665    0.9363 H   0  0  0  0  0  0  0  0  0  0  0  0
   -1.9983    0.5450    1.2455 H   0  0  0  0  0  0  0  0  0  0  0  0
   -0.8696   -1.5166   -0.7448 H   0  0  0  0  0  0  0  0  0  0  0  0
   -1.7754    0.3399   -1.9953 H   0  0  0  0  0  0  0  0  0  0  0  0
   -1.3140    1.5366   -0.7021 H   0  0  0  0  0  0  0  0  0  0  0  0
   -0.2030    1.5607    1.0154 H   0  0  0  0  0  0  0  0  0  0  0  0
    1.4409    1.8555    0.2456 H   0  0  0  0  0  0  0  0  0  0  0  0
    1.2455    0.8130    1.7432 H   0  0  0  0  0  0  0  0  0  0  0  0
    1.8945   -1.5991   -0.9779 H   0  0  0  0  0  0  0  0  0  0  0  0
    2.6137   -0.5070    0.2670 H   0  0  0  0  0  0  0  0  0  0  0  0
    1.5063   -1.7977    0.7648 H   0  0  0  0  0  0  0  0  0  0  0  0
  1  2  1  0
  2  3  1  0
  3  4  1  0
  4  5  2  0
  4  6  1  0
  6  7  1  0
  6  8  1  0
  6  2  1  0
  1  9  1  0
  1 10  1  0
  1 11  1  0
  2 12  1  0
  3 13  1  0
  3 14  1  0
  7 15  1  0
  7 16  1  0
  7 17  1  0
  8 18  1  0
  8 19  1  0
  8 20  1  0
M  END
