
     RDKit          3D

 21 21  0  0  0  0  0  0  0  0999 V2000
   -1.5920    0.3691    0.5986 C   0  0  0  0  0  0  0  0  0  0  0  0
   -1.0864    0.2737   -0.8181 C   0  0  0  0  0  0  0  0  0  0  0  0
   -0.7835   -1.1659   -1.1429 C   0  0  0  0  0  0  0  0  0  0  0  0
    0.1430   -1.8043   -0.2100 C   0  0  0  0  0  0  0  0  0  0  0  0
    1.2016   -1.4156    0.4739 C   0  0  0  0  0  0  0  0  0  0  0  0
    1.9689   -0.1914    0.6475 C   0  0  0  0  0  0  0  0  0  0  0  0
    1.6733    1.0807    0.4401 C   0  0  0  0  0  0  0  0  0  0  0  0
    0.4575    1.8207   -0.0511 C   0  0  0  0  0  0  0  0  0  0  0  0
   -0.0687    1.1411   -1.1097 O   0  0  0  0  0  0  0  0  0  0  0  0
   -2.3987   -0.4127    0.6920 H   0  0  0  0  0  0  0  0  0  0  0  0
   -2.1327    1.3379    0.7796 H   0  0  0  0  0  0  0  0  0  0  0  0
   -0.8440    0.1408    1.3595 H   0  0  0  0  0  0  0  0  0  0  0  0
   -1.9590    0.5609   -1.4757 H   0  0  0  0  0  0  0  0  0  0  0  0
   -1.7652   -1.7130   -1.0784 H   0  0  0  0  0  0  0  0  0  0  0  0
   -0.4692   -1.2144   -2.1989 H   0  0  0  0  0  0  0  0  0  0  0  0
   -0.0918   -2.8408   -0.0370 H   0  0  0  0  0  0  0  0  0  0  0  0
    1.6381   -2.2058    1.0804 H   0  0  0  0  0  0  0  0  0  0  0  0
    2.9770   -0.3241    1.0161 H   0  0  0  0  0  0  0  0  0  0  0  0
    2.5118    1.7097    0.6870 H   0  0  0  0  0  0  0  0  0  0  0  0
   -0.2167    2.0387    0.7730 H   0  0  0  0  0  0  0  0  0  0  0  0
    0.8367    2.8146   -0.4258 H   0  0  0  0  0  0  0  0  0  0  0  0
  1  2  1  0
  2  3  1  0
  3  4  1  0
  4  5  2  3
  5  6  1  0
  6  7  2  3
  7  8  1  0
  8  9  1  0
  9  2  1  0
  1 10  1  0
  1 11  1  0
  1 12  1  0
  2 13  1  0
  3 14  1  0
  3 15  1  0
  4 16  1  0
  5 17  1  0
  6 18  1  0
  7 19  1  0
  8 20  1  0
  8 21  1  0
M  END
