
     RDKit          3D

 23 25  0  0  0  0  0  0  0  0999 V2000
    2.3150    0.0663    0.4578 C   0  0  0  0  0  0  0  0  0  0  0  0
    1.1480    0.4300   -0.4472 C   0  0  0  0  0  0  0  0  0  0  0  0
    0.5090   -0.8109   -1.0924 C   0  0  0  0  0  0  0  0  0  0  0  0
    0.3300   -1.9242   -0.1560 C   0  0  0  0  0  0  0  0  0  0  0  0
   -0.5715   -0.7782    0.0263 C   0  0  0  0  0  0  0  0  0  0  0  0
   -2.0012   -0.9926   -0.3865 C   0  0  0  0  0  0  0  0  0  0  0  0
   -0.1538    0.6139    0.2246 C   0  0  0  0  0  0  0  0  0  0  0  0
   -0.9311    1.8034   -0.1294 C   0  0  0  0  0  0  0  0  0  0  0  0
   -0.4954    1.5048    1.2878 C   0  0  0  0  0  0  0  0  0  0  0  0
    1.9605   -0.4222    1.3885 H   0  0  0  0  0  0  0  0  0  0  0  0
    3.0655   -0.5466   -0.0490 H   0  0  0  0  0  0  0  0  0  0  0  0
    2.7993    1.0130    0.7619 H   0  0  0  0  0  0  0  0  0  0  0  0
    1.4606    1.1982   -1.1684 H   0  0  0  0  0  0  0  0  0  0  0  0
    0.0714   -0.7346   -2.0792 H   0  0  0  0  0  0  0  0  0  0  0  0
   -0.0771   -2.8587   -0.5671 H   0  0  0  0  0  0  0  0  0  0  0  0
    1.2012   -2.1114    0.5270 H   0  0  0  0  0  0  0  0  0  0  0  0
   -2.6607   -0.1322   -0.1630 H   0  0  0  0  0  0  0  0  0  0  0  0
   -2.3906   -1.8306    0.2640 H   0  0  0  0  0  0  0  0  0  0  0  0
   -2.0999   -1.3671   -1.4218 H   0  0  0  0  0  0  0  0  0  0  0  0
   -1.9765    1.7729   -0.4157 H   0  0  0  0  0  0  0  0  0  0  0  0
   -0.3692    2.6540   -0.6052 H   0  0  0  0  0  0  0  0  0  0  0  0
   -1.3427    1.2391    1.9608 H   0  0  0  0  0  0  0  0  0  0  0  0
    0.2093    2.2139    1.7821 H   0  0  0  0  0  0  0  0  0  0  0  0
  1  2  1  0
  2  3  1  0
  3  4  1  0
  4  5  1  0
  5  6  1  0
  5  7  1  0
  7  8  1  0
  8  9  1  0
  7  2  1  0
  5  3  1  0
  9  7  1  0
  1 10  1  0
  1 11  1  0
  1 12  1  0
  2 13  1  0
  3 14  1  0
  4 15  1  0
  4 16  1  0
  6 17  1  0
  6 18  1  0
  6 19  1  0
  8 20  1  0
  8 21  1  0
  9 22  1  0
  9 23  1  0
M  END
