
     RDKit          3D

 25 25  0  0  0  0  0  0  0  0999 V2000
    2.4527    1.0799    0.1643 C   0  0  0  0  0  0  0  0  0  0  0  0
    1.4256    0.2316   -0.5342 C   0  0  0  0  0  0  0  0  0  0  0  0
    1.3118   -1.1462    0.0700 C   0  0  0  0  0  0  0  0  0  0  0  0
    0.0584   -1.0381    0.9486 C   0  0  0  0  0  0  0  0  0  0  0  0
   -0.8460   -0.2363    0.0667 C   0  0  0  0  0  0  0  0  0  0  0  0
   -1.2751   -1.1106   -1.0866 C   0  0  0  0  0  0  0  0  0  0  0  0
   -2.0142    0.3607    0.7767 C   0  0  0  0  0  0  0  0  0  0  0  0
   -2.7613    1.0767   -0.1779 O   0  0  0  0  0  0  0  0  0  0  0  0
    0.0673    0.8844   -0.3949 C   0  0  0  0  0  0  0  0  0  0  0  0
    3.2573    0.4537    0.6152 H   0  0  0  0  0  0  0  0  0  0  0  0
    2.8880    1.7985   -0.5758 H   0  0  0  0  0  0  0  0  0  0  0  0
    1.9341    1.6859    0.9472 H   0  0  0  0  0  0  0  0  0  0  0  0
    1.6611    0.1921   -1.6317 H   0  0  0  0  0  0  0  0  0  0  0  0
    1.1363   -1.8872   -0.7487 H   0  0  0  0  0  0  0  0  0  0  0  0
    2.1879   -1.4644    0.6324 H   0  0  0  0  0  0  0  0  0  0  0  0
   -0.2790   -2.0483    1.1647 H   0  0  0  0  0  0  0  0  0  0  0  0
    0.3945   -0.4655    1.8496 H   0  0  0  0  0  0  0  0  0  0  0  0
   -0.9719   -0.6428   -2.0319 H   0  0  0  0  0  0  0  0  0  0  0  0
   -2.3736   -1.2112   -1.0801 H   0  0  0  0  0  0  0  0  0  0  0  0
   -0.8766   -2.1549   -0.9840 H   0  0  0  0  0  0  0  0  0  0  0  0
   -2.7066   -0.4185    1.1659 H   0  0  0  0  0  0  0  0  0  0  0  0
   -1.6938    1.0655    1.5423 H   0  0  0  0  0  0  0  0  0  0  0  0
   -2.7663    2.0435    0.0255 H   0  0  0  0  0  0  0  0  0  0  0  0
    0.0894    1.6225    0.4536 H   0  0  0  0  0  0  0  0  0  0  0  0
   -0.2995    1.3290   -1.3252 H   0  0  0  0  0  0  0  0  0  0  0  0
  1  2  1  0
  2  3  1  0
  3  4  1  0
  4  5  1  0
  5  6  1  0
  5  7  1  0
  7  8  1  0
  5  9  1  0
  9  2  1  0
  1 10  1  0
  1 11  1  0
  1 12  1  0
  2 13  1  0
  3 14  1  0
  3 15  1  0
  4 16  1  0
  4 17  1  0
  6 18  1  0
  6 19  1  0
  6 20  1  0
  7 21  1  0
  7 22  1  0
  8 23  1  0
  9 24  1  0
  9 25  1  0
M  END
