
     RDKit          3D

 25 25  0  0  0  0  0  0  0  0999 V2000
   -2.4335   -0.2590   -0.1442 C   0  0  0  0  0  0  0  0  0  0  0  0
   -1.0247   -0.5046   -0.5825 C   0  0  0  0  0  0  0  0  0  0  0  0
   -0.1324    0.7192   -0.6464 C   0  0  0  0  0  0  0  0  0  0  0  0
   -0.6324    1.9085    0.1086 C   0  0  0  0  0  0  0  0  0  0  0  0
    0.9521   -0.0864   -0.0115 C   0  0  0  0  0  0  0  0  0  0  0  0
    1.7578    0.5700    1.0591 C   0  0  0  0  0  0  0  0  0  0  0  0
    1.7601   -0.8054   -1.0879 C   0  0  0  0  0  0  0  0  0  0  0  0
   -0.1358   -1.0020    0.5569 C   0  0  0  0  0  0  0  0  0  0  0  0
    0.2030   -2.3340    0.4943 O   0  0  0  0  0  0  0  0  0  0  0  0
   -2.8694   -1.1744    0.2762 H   0  0  0  0  0  0  0  0  0  0  0  0
   -2.3956    0.5142    0.6647 H   0  0  0  0  0  0  0  0  0  0  0  0
   -3.0025    0.1825   -0.9737 H   0  0  0  0  0  0  0  0  0  0  0  0
   -0.8855   -1.0985   -1.5045 H   0  0  0  0  0  0  0  0  0  0  0  0
    0.1222    1.0171   -1.6968 H   0  0  0  0  0  0  0  0  0  0  0  0
    0.0571    2.7538   -0.1044 H   0  0  0  0  0  0  0  0  0  0  0  0
   -1.6280    2.1971   -0.3229 H   0  0  0  0  0  0  0  0  0  0  0  0
   -0.6576    1.7871    1.1982 H   0  0  0  0  0  0  0  0  0  0  0  0
    1.1695    0.6341    2.0087 H   0  0  0  0  0  0  0  0  0  0  0  0
    2.2006    1.5357    0.7622 H   0  0  0  0  0  0  0  0  0  0  0  0
    2.6083   -0.1212    1.3023 H   0  0  0  0  0  0  0  0  0  0  0  0
    1.8994   -1.8763   -0.8380 H   0  0  0  0  0  0  0  0  0  0  0  0
    2.7038   -0.2449   -1.1862 H   0  0  0  0  0  0  0  0  0  0  0  0
    1.2071   -0.8049   -2.0678 H   0  0  0  0  0  0  0  0  0  0  0  0
   -0.4942   -0.6833    1.5620 H   0  0  0  0  0  0  0  0  0  0  0  0
   -0.3493   -2.8243    1.1735 H   0  0  0  0  0  0  0  0  0  0  0  0
  1  2  1  0
  2  3  1  0
  3  4  1  0
  3  5  1  0
  5  6  1  0
  5  7  1  0
  5  8  1  0
  8  9  1  0
  8  2  1  0
  1 10  1  0
  1 11  1  0
  1 12  1  0
  2 13  1  0
  3 14  1  0
  4 15  1  0
  4 16  1  0
  4 17  1  0
  6 18  1  0
  6 19  1  0
  6 20  1  0
  7 21  1  0
  7 22  1  0
  7 23  1  0
  8 24  1  0
  9 25  1  0
M  END
