
     RDKit          3D

 21 23  0  0  0  0  0  0  0  0999 V2000
   -2.6384   -0.2327    0.0328 C   0  0  0  0  0  0  0  0  0  0  0  0
   -1.2066   -0.0752   -0.4235 C   0  0  0  0  0  0  0  0  0  0  0  0
   -0.4649    1.0150    0.3080 C   0  0  0  0  0  0  0  0  0  0  0  0
    0.8181    1.3762   -0.3785 C   0  0  0  0  0  0  0  0  0  0  0  0
    1.7600    0.2209   -0.5122 C   0  0  0  0  0  0  0  0  0  0  0  0
    2.2278   -0.5772    0.6151 C   0  0  0  0  0  0  0  0  0  0  0  0
    1.0937   -1.0564   -0.1993 C   0  0  0  0  0  0  0  0  0  0  0  0
   -0.2779   -0.9050    0.4030 C   0  0  0  0  0  0  0  0  0  0  0  0
   -0.2203    0.1316    1.3404 O   0  0  0  0  0  0  0  0  0  0  0  0
   -2.8359    0.5139    0.8230 H   0  0  0  0  0  0  0  0  0  0  0  0
   -3.3228   -0.0713   -0.8359 H   0  0  0  0  0  0  0  0  0  0  0  0
   -2.8312   -1.2765    0.3837 H   0  0  0  0  0  0  0  0  0  0  0  0
   -1.0621   -0.1194   -1.5126 H   0  0  0  0  0  0  0  0  0  0  0  0
   -1.0673    1.8938    0.5637 H   0  0  0  0  0  0  0  0  0  0  0  0
    0.5402    1.7312   -1.4116 H   0  0  0  0  0  0  0  0  0  0  0  0
    1.2623    2.2470    0.1459 H   0  0  0  0  0  0  0  0  0  0  0  0
    2.4401    0.3128   -1.4095 H   0  0  0  0  0  0  0  0  0  0  0  0
    2.0250   -0.3474    1.6745 H   0  0  0  0  0  0  0  0  0  0  0  0
    3.2256   -1.0872    0.4896 H   0  0  0  0  0  0  0  0  0  0  0  0
    1.2100   -1.8756   -0.9500 H   0  0  0  0  0  0  0  0  0  0  0  0
   -0.6752   -1.8185    0.8533 H   0  0  0  0  0  0  0  0  0  0  0  0
  1  2  1  0
  2  3  1  0
  3  4  1  0
  4  5  1  0
  5  6  1  0
  6  7  1  0
  7  8  1  0
  8  9  1  0
  8  2  1  0
  9  3  1  0
  7  5  1  0
  1 10  1  0
  1 11  1  0
  1 12  1  0
  2 13  1  0
  3 14  1  0
  4 15  1  0
  4 16  1  0
  5 17  1  0
  6 18  1  0
  6 19  1  0
  7 20  1  0
  8 21  1  0
M  END
