
     RDKit          3D

 23 24  0  0  0  0  0  0  0  0999 V2000
    2.4065   -0.6251    0.3787 C   0  0  0  0  0  0  0  0  0  0  0  0
    0.9964   -0.1458    0.3108 C   0  0  0  0  0  0  0  0  0  0  0  0
    0.8890    1.2257   -0.3695 C   0  0  0  0  0  0  0  0  0  0  0  0
   -0.3730    1.8440    0.2308 C   0  0  0  0  0  0  0  0  0  0  0  0
   -1.4565    0.8213    0.2666 C   0  0  0  0  0  0  0  0  0  0  0  0
   -1.2336   -0.3518   -0.6382 C   0  0  0  0  0  0  0  0  0  0  0  0
   -1.7662   -1.6752   -0.0872 C   0  0  0  0  0  0  0  0  0  0  0  0
   -0.4927   -2.0890    0.2742 O   0  0  0  0  0  0  0  0  0  0  0  0
    0.0679   -1.0492   -0.4267 C   0  0  0  0  0  0  0  0  0  0  0  0
    3.0197    0.2008    0.8193 H   0  0  0  0  0  0  0  0  0  0  0  0
    2.7846   -0.8310   -0.6427 H   0  0  0  0  0  0  0  0  0  0  0  0
    2.4527   -1.4848    1.0578 H   0  0  0  0  0  0  0  0  0  0  0  0
    0.6186   -0.0682    1.3684 H   0  0  0  0  0  0  0  0  0  0  0  0
    1.7721    1.8416   -0.2007 H   0  0  0  0  0  0  0  0  0  0  0  0
    0.6680    1.0776   -1.4621 H   0  0  0  0  0  0  0  0  0  0  0  0
   -0.0861    2.0924    1.2948 H   0  0  0  0  0  0  0  0  0  0  0  0
   -0.6350    2.7851   -0.2529 H   0  0  0  0  0  0  0  0  0  0  0  0
   -1.6940    0.5120    1.3252 H   0  0  0  0  0  0  0  0  0  0  0  0
   -2.3987    1.3234   -0.0836 H   0  0  0  0  0  0  0  0  0  0  0  0
   -1.5004   -0.1556   -1.6876 H   0  0  0  0  0  0  0  0  0  0  0  0
   -2.3918   -1.5748    0.8186 H   0  0  0  0  0  0  0  0  0  0  0  0
   -2.1753   -2.3158   -0.8945 H   0  0  0  0  0  0  0  0  0  0  0  0
    0.5278   -1.3576   -1.3995 H   0  0  0  0  0  0  0  0  0  0  0  0
  1  2  1  0
  2  3  1  0
  3  4  1  0
  4  5  1  0
  5  6  1  0
  6  7  1  0
  7  8  1  0
  8  9  1  0
  9  2  1  0
  9  6  1  0
  1 10  1  0
  1 11  1  0
  1 12  1  0
  2 13  1  0
  3 14  1  0
  3 15  1  0
  4 16  1  0
  4 17  1  0
  5 18  1  0
  5 19  1  0
  6 20  1  0
  7 21  1  0
  7 22  1  0
  9 23  1  0
M  END
