
     RDKit          3D

 20 22  0  0  0  0  0  0  0  0999 V2000
    2.6336   -0.3731    0.6502 C   0  0  0  0  0  0  0  0  0  0  0  0
    1.2247    0.1036    0.6540 C   0  0  0  0  0  0  0  0  0  0  0  0
    0.7744    1.0069   -0.4149 C   0  0  0  0  0  0  0  0  0  0  0  0
   -0.6591    1.3326   -0.6665 C   0  0  0  0  0  0  0  0  0  0  0  0
   -1.0493   -0.0402   -0.3557 C   0  0  0  0  0  0  0  0  0  0  0  0
   -1.8540   -0.4506    0.8124 C   0  0  0  0  0  0  0  0  0  0  0  0
   -2.2435   -0.7464   -0.6620 C   0  0  0  0  0  0  0  0  0  0  0  0
    0.3502   -0.4943   -0.4269 C   0  0  0  0  0  0  0  0  0  0  0  0
    3.0182   -0.4872    1.7070 H   0  0  0  0  0  0  0  0  0  0  0  0
    2.6404   -1.4317    0.2563 H   0  0  0  0  0  0  0  0  0  0  0  0
    3.2588    0.2976    0.0611 H   0  0  0  0  0  0  0  0  0  0  0  0
    0.7253    0.1411    1.6571 H   0  0  0  0  0  0  0  0  0  0  0  0
    1.5025    1.3284   -1.1538 H   0  0  0  0  0  0  0  0  0  0  0  0
   -0.8237    1.6651   -1.7178 H   0  0  0  0  0  0  0  0  0  0  0  0
   -1.0296    2.1527    0.0020 H   0  0  0  0  0  0  0  0  0  0  0  0
   -1.4611   -1.2850    1.4050 H   0  0  0  0  0  0  0  0  0  0  0  0
   -2.4036    0.3440    1.3284 H   0  0  0  0  0  0  0  0  0  0  0  0
   -2.2339   -1.8475   -0.8910 H   0  0  0  0  0  0  0  0  0  0  0  0
   -3.1473   -0.1685   -0.9893 H   0  0  0  0  0  0  0  0  0  0  0  0
    0.7767   -1.0477   -1.2555 H   0  0  0  0  0  0  0  0  0  0  0  0
  1  2  1  0
  2  3  1  0
  3  4  1  0
  4  5  1  0
  5  6  1  0
  6  7  1  0
  5  8  1  0
  8  2  1  0
  8  3  1  0
  7  5  1  0
  1  9  1  0
  1 10  1  0
  1 11  1  0
  2 12  1  0
  3 13  1  0
  4 14  1  0
  4 15  1  0
  6 16  1  0
  6 17  1  0
  7 18  1  0
  7 19  1  0
  8 20  1  0
M  END
