
     RDKit          3D

 21 23  0  0  0  0  0  0  0  0999 V2000
    2.9726    0.1493   -0.0896 C   0  0  0  0  0  0  0  0  0  0  0  0
    1.5118    0.4973    0.0961 C   0  0  0  0  0  0  0  0  0  0  0  0
    0.6416   -0.7065    0.3489 C   0  0  0  0  0  0  0  0  0  0  0  0
   -0.6003   -0.3989    1.1513 C   0  0  0  0  0  0  0  0  0  0  0  0
   -1.6150   -0.1128    0.1021 C   0  0  0  0  0  0  0  0  0  0  0  0
   -2.9714    0.1869    0.2965 C   0  0  0  0  0  0  0  0  0  0  0  0
   -2.5444   -1.1073   -0.1452 O   0  0  0  0  0  0  0  0  0  0  0  0
   -0.8313    0.4889   -1.0373 C   0  0  0  0  0  0  0  0  0  0  0  0
    0.5777    0.0360   -0.9248 C   0  0  0  0  0  0  0  0  0  0  0  0
    3.1036   -0.7652   -0.7118 H   0  0  0  0  0  0  0  0  0  0  0  0
    3.5538    0.9528   -0.5653 H   0  0  0  0  0  0  0  0  0  0  0  0
    3.4445   -0.0874    0.9047 H   0  0  0  0  0  0  0  0  0  0  0  0
    1.3584    1.3929    0.7255 H   0  0  0  0  0  0  0  0  0  0  0  0
    1.0464   -1.7170    0.3309 H   0  0  0  0  0  0  0  0  0  0  0  0
   -0.4371    0.4555    1.8476 H   0  0  0  0  0  0  0  0  0  0  0  0
   -0.8888   -1.2713    1.7647 H   0  0  0  0  0  0  0  0  0  0  0  0
   -3.5506    0.7197   -0.4918 H   0  0  0  0  0  0  0  0  0  0  0  0
   -3.5326    0.1108    1.2464 H   0  0  0  0  0  0  0  0  0  0  0  0
   -1.2820    0.0732   -1.9781 H   0  0  0  0  0  0  0  0  0  0  0  0
   -0.9755    1.5826   -1.0450 H   0  0  0  0  0  0  0  0  0  0  0  0
    1.0185   -0.4793   -1.8257 H   0  0  0  0  0  0  0  0  0  0  0  0
  1  2  1  0
  2  3  1  0
  3  4  1  0
  4  5  1  0
  5  6  1  0
  6  7  1  0
  5  8  1  0
  8  9  1  0
  9  2  1  0
  9  3  1  0
  7  5  1  0
  1 10  1  0
  1 11  1  0
  1 12  1  0
  2 13  1  0
  3 14  1  0
  4 15  1  0
  4 16  1  0
  6 17  1  0
  6 18  1  0
  8 19  1  0
  8 20  1  0
  9 21  1  0
M  END
