
     RDKit          3D

 21 22  0  0  0  0  0  0  0  0999 V2000
    1.9487    0.5397   -0.5166 C   0  0  0  0  0  0  0  0  0  0  0  0
    0.8897   -0.0091    0.3893 C   0  0  0  0  0  0  0  0  0  0  0  0
    0.5669   -1.4798    0.0548 C   0  0  0  0  0  0  0  0  0  0  0  0
   -0.9211   -1.3619   -0.1096 C   0  0  0  0  0  0  0  0  0  0  0  0
   -1.0122   -0.1339   -1.0289 C   0  0  0  0  0  0  0  0  0  0  0  0
   -0.4597    0.5810    0.2001 C   0  0  0  0  0  0  0  0  0  0  0  0
   -0.7079    1.9687    0.3629 C   0  0  0  0  0  0  0  0  0  0  0  0
   -1.8397    2.3737    0.5610 O   0  0  0  0  0  0  0  0  0  0  0  0
   -1.3244   -0.4114    0.9943 C   0  0  0  0  0  0  0  0  0  0  0  0
    1.5813    0.8443   -1.5062 H   0  0  0  0  0  0  0  0  0  0  0  0
    2.4428    1.4002   -0.0081 H   0  0  0  0  0  0  0  0  0  0  0  0
    2.7423   -0.2439   -0.6190 H   0  0  0  0  0  0  0  0  0  0  0  0
    1.1827    0.0919    1.4460 H   0  0  0  0  0  0  0  0  0  0  0  0
    0.8813   -2.1459    0.8538 H   0  0  0  0  0  0  0  0  0  0  0  0
    1.0121   -1.6782   -0.9241 H   0  0  0  0  0  0  0  0  0  0  0  0
   -1.5162   -2.1978   -0.3365 H   0  0  0  0  0  0  0  0  0  0  0  0
   -2.0379    0.1540   -1.2761 H   0  0  0  0  0  0  0  0  0  0  0  0
   -0.3000   -0.2647   -1.8466 H   0  0  0  0  0  0  0  0  0  0  0  0
    0.0837    2.7052    0.3179 H   0  0  0  0  0  0  0  0  0  0  0  0
   -2.3836   -0.1350    1.0235 H   0  0  0  0  0  0  0  0  0  0  0  0
   -0.8287   -0.5970    1.9682 H   0  0  0  0  0  0  0  0  0  0  0  0
  1  2  1  0
  2  3  1  0
  3  4  1  0
  4  5  1  0
  5  6  1  0
  6  7  1  0
  7  8  2  0
  6  9  1  0
  6  2  1  0
  9  4  1  0
  1 10  1  0
  1 11  1  0
  1 12  1  0
  2 13  1  0
  3 14  1  0
  3 15  1  0
  4 16  1  0
  5 17  1  0
  5 18  1  0
  7 19  1  0
  9 20  1  0
  9 21  1  0
M  END
