
     RDKit          3D

 25 26  0  0  0  0  0  0  0  0999 V2000
   -2.4255   -0.6092    0.0682 C   0  0  0  0  0  0  0  0  0  0  0  0
   -1.0363   -0.7281   -0.4530 C   0  0  0  0  0  0  0  0  0  0  0  0
   -0.0711   -1.5152    0.4441 C   0  0  0  0  0  0  0  0  0  0  0  0
    0.9376   -0.4521    0.1611 C   0  0  0  0  0  0  0  0  0  0  0  0
    2.0664   -0.1396    1.0071 C   0  0  0  0  0  0  0  0  0  0  0  0
    2.2186   -0.6424   -0.4537 C   0  0  0  0  0  0  0  0  0  0  0  0
   -0.1347    0.4658   -0.2524 C   0  0  0  0  0  0  0  0  0  0  0  0
   -0.5390    1.3717    0.9068 C   0  0  0  0  0  0  0  0  0  0  0  0
    0.0443    1.2738   -1.4916 C   0  0  0  0  0  0  0  0  0  0  0  0
   -2.4771   -1.1612    1.0461 H   0  0  0  0  0  0  0  0  0  0  0  0
   -2.7572    0.4357    0.2398 H   0  0  0  0  0  0  0  0  0  0  0  0
   -3.1054   -1.0973   -0.6910 H   0  0  0  0  0  0  0  0  0  0  0  0
   -0.9424   -1.0834   -1.5041 H   0  0  0  0  0  0  0  0  0  0  0  0
   -0.4015   -1.4424    1.5155 H   0  0  0  0  0  0  0  0  0  0  0  0
    0.1518   -2.5284    0.0988 H   0  0  0  0  0  0  0  0  0  0  0  0
    2.3522    0.9339    1.1413 H   0  0  0  0  0  0  0  0  0  0  0  0
    2.3488   -0.8650    1.8068 H   0  0  0  0  0  0  0  0  0  0  0  0
    2.6562    0.0868   -1.1769 H   0  0  0  0  0  0  0  0  0  0  0  0
    2.6881   -1.6618   -0.5242 H   0  0  0  0  0  0  0  0  0  0  0  0
    0.3743    2.0008    1.1108 H   0  0  0  0  0  0  0  0  0  0  0  0
   -1.3453    2.0562    0.6551 H   0  0  0  0  0  0  0  0  0  0  0  0
   -0.6966    0.7364    1.7807 H   0  0  0  0  0  0  0  0  0  0  0  0
    0.4049    0.7183   -2.3631 H   0  0  0  0  0  0  0  0  0  0  0  0
   -0.9737    1.6768   -1.7716 H   0  0  0  0  0  0  0  0  0  0  0  0
    0.6626    2.1699   -1.3005 H   0  0  0  0  0  0  0  0  0  0  0  0
  1  2  1  0
  2  3  1  0
  3  4  1  0
  4  5  1  0
  5  6  1  0
  4  7  1  0
  7  8  1  0
  7  9  1  0
  7  2  1  0
  6  4  1  0
  1 10  1  0
  1 11  1  0
  1 12  1  0
  2 13  1  0
  3 14  1  0
  3 15  1  0
  5 16  1  0
  5 17  1  0
  6 18  1  0
  6 19  1  0
  8 20  1  0
  8 21  1  0
  8 22  1  0
  9 23  1  0
  9 24  1  0
  9 25  1  0
M  END
