
     RDKit          3D

 21 21  0  0  0  0  0  0  0  0999 V2000
   -2.2849   -0.0609   -0.0142 C   0  0  0  0  0  0  0  0  0  0  0  0
   -0.9753   -0.1230   -0.7026 C   0  0  0  0  0  0  0  0  0  0  0  0
   -0.2185   -1.4530   -0.5583 C   0  0  0  0  0  0  0  0  0  0  0  0
    1.0334   -0.5677   -0.6632 C   0  0  0  0  0  0  0  0  0  0  0  0
    2.2087   -1.0717    0.0441 C   0  0  0  0  0  0  0  0  0  0  0  0
    2.6958   -2.1424   -0.2657 O   0  0  0  0  0  0  0  0  0  0  0  0
    0.2070    0.4741    0.0766 C   0  0  0  0  0  0  0  0  0  0  0  0
    0.5004    1.8916   -0.2483 C   0  0  0  0  0  0  0  0  0  0  0  0
    0.1342    0.1535    1.4292 O   0  0  0  0  0  0  0  0  0  0  0  0
   -2.3129    0.8045    0.6952 H   0  0  0  0  0  0  0  0  0  0  0  0
   -2.5293   -1.0170    0.4591 H   0  0  0  0  0  0  0  0  0  0  0  0
   -3.0646    0.1952   -0.7894 H   0  0  0  0  0  0  0  0  0  0  0  0
   -0.9431    0.1677   -1.7654 H   0  0  0  0  0  0  0  0  0  0  0  0
   -0.3703   -2.1329   -1.3958 H   0  0  0  0  0  0  0  0  0  0  0  0
   -0.2612   -1.8808    0.4630 H   0  0  0  0  0  0  0  0  0  0  0  0
    1.1785   -0.3141   -1.7459 H   0  0  0  0  0  0  0  0  0  0  0  0
    2.6400   -0.4829    0.8450 H   0  0  0  0  0  0  0  0  0  0  0  0
   -0.4594    2.3702   -0.5833 H   0  0  0  0  0  0  0  0  0  0  0  0
    0.7475    2.4197    0.7139 H   0  0  0  0  0  0  0  0  0  0  0  0
    1.3245    2.0665   -0.9394 H   0  0  0  0  0  0  0  0  0  0  0  0
    0.7494    0.7036    1.9537 H   0  0  0  0  0  0  0  0  0  0  0  0
  1  2  1  0
  2  3  1  0
  3  4  1  0
  4  5  1  0
  5  6  2  0
  4  7  1  0
  7  8  1  0
  7  9  1  0
  7  2  1  0
  1 10  1  0
  1 11  1  0
  1 12  1  0
  2 13  1  0
  3 14  1  0
  3 15  1  0
  4 16  1  0
  5 17  1  0
  8 18  1  0
  8 19  1  0
  8 20  1  0
  9 21  1  0
M  END
