
     RDKit          3D

 23 23  0  0  0  0  0  0  0  0999 V2000
   -1.5174    1.6140   -0.4207 C   0  0  0  0  0  0  0  0  0  0  0  0
   -1.0086    0.3683    0.2244 C   0  0  0  0  0  0  0  0  0  0  0  0
   -1.6692   -0.8575   -0.4217 C   0  0  0  0  0  0  0  0  0  0  0  0
   -0.6266   -1.9528   -0.3712 C   0  0  0  0  0  0  0  0  0  0  0  0
    0.5799   -1.3475    0.3441 C   0  0  0  0  0  0  0  0  0  0  0  0
    0.4395    0.0973   -0.0669 C   0  0  0  0  0  0  0  0  0  0  0  0
    1.3735    1.0136    0.6670 C   0  0  0  0  0  0  0  0  0  0  0  0
    2.7684    0.6391    0.2905 C   0  0  0  0  0  0  0  0  0  0  0  0
    3.7406    1.2181    0.7375 O   0  0  0  0  0  0  0  0  0  0  0  0
   -0.9552    2.4885   -0.1060 H   0  0  0  0  0  0  0  0  0  0  0  0
   -2.5749    1.7505   -0.1164 H   0  0  0  0  0  0  0  0  0  0  0  0
   -1.5353    1.4882   -1.5274 H   0  0  0  0  0  0  0  0  0  0  0  0
   -1.2286    0.3697    1.3079 H   0  0  0  0  0  0  0  0  0  0  0  0
   -1.8955   -0.5545   -1.4724 H   0  0  0  0  0  0  0  0  0  0  0  0
   -2.5648   -1.1155    0.1508 H   0  0  0  0  0  0  0  0  0  0  0  0
   -0.2932   -2.1600   -1.4142 H   0  0  0  0  0  0  0  0  0  0  0  0
   -0.9804   -2.8683    0.1247 H   0  0  0  0  0  0  0  0  0  0  0  0
    0.4468   -1.4333    1.4617 H   0  0  0  0  0  0  0  0  0  0  0  0
    1.5241   -1.8081    0.0361 H   0  0  0  0  0  0  0  0  0  0  0  0
    0.6220    0.1979   -1.1398 H   0  0  0  0  0  0  0  0  0  0  0  0
    1.2367    0.9807    1.7666 H   0  0  0  0  0  0  0  0  0  0  0  0
    1.1329    2.0490    0.3539 H   0  0  0  0  0  0  0  0  0  0  0  0
    2.9850   -0.1775   -0.4086 H   0  0  0  0  0  0  0  0  0  0  0  0
  1  2  1  0
  2  3  1  0
  3  4  1  0
  4  5  1  0
  5  6  1  0
  6  7  1  0
  7  8  1  0
  8  9  2  0
  6  2  1  0
  1 10  1  0
  1 11  1  0
  1 12  1  0
  2 13  1  0
  3 14  1  0
  3 15  1  0
  4 16  1  0
  4 17  1  0
  5 18  1  0
  5 19  1  0
  6 20  1  0
  7 21  1  0
  7 22  1  0
  8 23  1  0
M  END
