
     RDKit          3D

 15 15  0  0  0  0  0  0  0  0999 V2000
    1.9142   -0.5786    0.2257 C   0  0  0  0  0  0  0  0  0  0  0  0
    0.5350   -0.0182    0.3042 C   0  0  0  0  0  0  0  0  0  0  0  0
   -0.4729   -0.7685   -0.5140 C   0  0  0  0  0  0  0  0  0  0  0  0
   -1.6310    0.2371   -0.5464 C   0  0  0  0  0  0  0  0  0  0  0  0
   -0.9057    1.5247   -0.4181 C   0  0  0  0  0  0  0  0  0  0  0  0
   -1.4811    2.6460   -0.4631 O   0  0  0  0  0  0  0  0  0  0  0  0
    0.4704    1.2780   -0.2460 O   0  0  0  0  0  0  0  0  0  0  0  0
    2.6051    0.1861    0.6869 H   0  0  0  0  0  0  0  0  0  0  0  0
    2.0335   -1.4856    0.8218 H   0  0  0  0  0  0  0  0  0  0  0  0
    2.2385   -0.6898   -0.8187 H   0  0  0  0  0  0  0  0  0  0  0  0
    0.2084    0.0327    1.3452 H   0  0  0  0  0  0  0  0  0  0  0  0
   -0.1526   -0.9138   -1.5585 H   0  0  0  0  0  0  0  0  0  0  0  0
   -0.8606   -1.6759   -0.0353 H   0  0  0  0  0  0  0  0  0  0  0  0
   -2.1896    0.1841   -1.4892 H   0  0  0  0  0  0  0  0  0  0  0  0
   -2.3117    0.0417    0.3096 H   0  0  0  0  0  0  0  0  0  0  0  0
  1  2  1  0
  2  3  1  0
  3  4  1  0
  4  5  1  0
  5  6  2  0
  5  7  1  0
  7  2  1  0
  1  8  1  0
  1  9  1  0
  1 10  1  0
  2 11  1  0
  3 12  1  0
  3 13  1  0
  4 14  1  0
  4 15  1  0
M  END
