
     RDKit          3D

 21 22  0  0  0  0  0  0  0  0999 V2000
    1.7694   -0.6397   -0.2345 C   0  0  0  0  0  0  0  0  0  0  0  0
    0.7000   -0.3080    0.7849 C   0  0  0  0  0  0  0  0  0  0  0  0
    0.8014    1.1232    1.1419 C   0  0  0  0  0  0  0  0  0  0  0  0
    0.0505    1.9859    0.5037 C   0  0  0  0  0  0  0  0  0  0  0  0
   -0.9142    1.6686   -0.5656 C   0  0  0  0  0  0  0  0  0  0  0  0
   -1.2535    0.2368   -0.6994 C   0  0  0  0  0  0  0  0  0  0  0  0
   -0.6450   -0.6933    0.2692 C   0  0  0  0  0  0  0  0  0  0  0  0
   -0.7590   -2.1687   -0.0961 C   0  0  0  0  0  0  0  0  0  0  0  0
   -1.4551   -1.5719    0.9764 O   0  0  0  0  0  0  0  0  0  0  0  0
    2.6064    0.0968   -0.1671 H   0  0  0  0  0  0  0  0  0  0  0  0
    2.2283   -1.6285   -0.0284 H   0  0  0  0  0  0  0  0  0  0  0  0
    1.3617   -0.6839   -1.2636 H   0  0  0  0  0  0  0  0  0  0  0  0
    0.9117   -0.9601    1.6758 H   0  0  0  0  0  0  0  0  0  0  0  0
    1.4846    1.4630    1.9194 H   0  0  0  0  0  0  0  0  0  0  0  0
    0.1414    3.0416    0.7840 H   0  0  0  0  0  0  0  0  0  0  0  0
   -1.8270    2.3085   -0.3851 H   0  0  0  0  0  0  0  0  0  0  0  0
   -0.4904    2.0441   -1.5213 H   0  0  0  0  0  0  0  0  0  0  0  0
   -1.0245   -0.1424   -1.7387 H   0  0  0  0  0  0  0  0  0  0  0  0
   -2.3754    0.1347   -0.6221 H   0  0  0  0  0  0  0  0  0  0  0  0
    0.0308   -2.8606    0.2627 H   0  0  0  0  0  0  0  0  0  0  0  0
   -1.3420   -2.4460   -0.9961 H   0  0  0  0  0  0  0  0  0  0  0  0
  1  2  1  0
  2  3  1  0
  3  4  2  0
  4  5  1  0
  5  6  1  0
  6  7  1  0
  7  8  1  0
  8  9  1  0
  7  2  1  0
  9  7  1  0
  1 10  1  0
  1 11  1  0
  1 12  1  0
  2 13  1  0
  3 14  1  0
  4 15  1  0
  5 16  1  0
  5 17  1  0
  6 18  1  0
  6 19  1  0
  8 20  1  0
  8 21  1  0
M  END
