
     RDKit          3D

 19 21  0  0  0  0  0  0  0  0999 V2000
    1.9089   -0.1329    0.8581 C   0  0  0  0  0  0  0  0  0  0  0  0
    1.0564    0.0649   -0.3338 C   0  0  0  0  0  0  0  0  0  0  0  0
    0.1563   -1.1301   -0.6413 C   0  0  0  0  0  0  0  0  0  0  0  0
   -0.4450   -1.4551    0.5740 O   0  0  0  0  0  0  0  0  0  0  0  0
   -1.5091   -0.5886    0.7516 C   0  0  0  0  0  0  0  0  0  0  0  0
   -1.2857    0.7840    0.2252 C   0  0  0  0  0  0  0  0  0  0  0  0
   -0.9960    0.6984   -1.2271 C   0  0  0  0  0  0  0  0  0  0  0  0
   -0.7083   -0.6023   -1.5631 O   0  0  0  0  0  0  0  0  0  0  0  0
    0.0357    1.1524   -0.2161 C   0  0  0  0  0  0  0  0  0  0  0  0
    2.9088   -0.5202    0.5027 H   0  0  0  0  0  0  0  0  0  0  0  0
    2.1396    0.8028    1.3959 H   0  0  0  0  0  0  0  0  0  0  0  0
    1.5247   -0.9268    1.5317 H   0  0  0  0  0  0  0  0  0  0  0  0
    1.6297    0.2542   -1.2788 H   0  0  0  0  0  0  0  0  0  0  0  0
    0.7940   -1.9309   -1.0033 H   0  0  0  0  0  0  0  0  0  0  0  0
   -1.8570   -0.5948    1.8046 H   0  0  0  0  0  0  0  0  0  0  0  0
   -2.3668   -1.0333    0.1651 H   0  0  0  0  0  0  0  0  0  0  0  0
   -1.9440    1.5824    0.6089 H   0  0  0  0  0  0  0  0  0  0  0  0
   -1.3904    1.3785   -1.9690 H   0  0  0  0  0  0  0  0  0  0  0  0
    0.3483    2.1976   -0.1856 H   0  0  0  0  0  0  0  0  0  0  0  0
  1  2  1  0
  2  3  1  0
  3  4  1  0
  4  5  1  0
  5  6  1  0
  6  7  1  0
  7  8  1  0
  7  9  1  0
  9  2  1  0
  8  3  1  0
  9  6  1  0
  1 10  1  0
  1 11  1  0
  1 12  1  0
  2 13  1  0
  3 14  1  0
  5 15  1  0
  5 16  1  0
  6 17  1  0
  7 18  1  0
  9 19  1  0
M  END
