
     RDKit          3D

 19 21  0  0  0  0  0  0  0  0999 V2000
    2.5366    0.4011    0.3132 C   0  0  0  0  0  0  0  0  0  0  0  0
    1.0556    0.4929    0.1202 C   0  0  0  0  0  0  0  0  0  0  0  0
    0.4857   -0.5464   -0.8161 C   0  0  0  0  0  0  0  0  0  0  0  0
   -0.7330   -0.1483   -1.5142 C   0  0  0  0  0  0  0  0  0  0  0  0
   -0.8241    0.1824   -2.6781 O   0  0  0  0  0  0  0  0  0  0  0  0
   -1.8527   -0.2126   -0.5670 C   0  0  0  0  0  0  0  0  0  0  0  0
   -2.0168    0.7354    0.5512 C   0  0  0  0  0  0  0  0  0  0  0  0
   -1.2565   -0.5102    0.7767 C   0  0  0  0  0  0  0  0  0  0  0  0
    0.2182   -0.5942    0.6438 C   0  0  0  0  0  0  0  0  0  0  0  0
    2.8160   -0.6347    0.6268 H   0  0  0  0  0  0  0  0  0  0  0  0
    3.0695    0.6331   -0.6523 H   0  0  0  0  0  0  0  0  0  0  0  0
    2.9421    1.0972    1.0531 H   0  0  0  0  0  0  0  0  0  0  0  0
    0.6497    1.5235    0.0970 H   0  0  0  0  0  0  0  0  0  0  0  0
    1.1410   -1.3456   -1.2017 H   0  0  0  0  0  0  0  0  0  0  0  0
   -2.7266   -0.8077   -0.9146 H   0  0  0  0  0  0  0  0  0  0  0  0
   -3.0500    0.7591    0.9957 H   0  0  0  0  0  0  0  0  0  0  0  0
   -1.4520    1.6782    0.5780 H   0  0  0  0  0  0  0  0  0  0  0  0
   -1.7444   -1.3438    1.3213 H   0  0  0  0  0  0  0  0  0  0  0  0
    0.7417   -1.3592    1.2671 H   0  0  0  0  0  0  0  0  0  0  0  0
  1  2  1  0
  2  3  1  0
  3  4  1  0
  4  5  2  0
  4  6  1  0
  6  7  1  0
  7  8  1  0
  8  9  1  0
  9  2  1  0
  9  3  1  0
  8  6  1  0
  1 10  1  0
  1 11  1  0
  1 12  1  0
  2 13  1  0
  3 14  1  0
  6 15  1  0
  7 16  1  0
  7 17  1  0
  8 18  1  0
  9 19  1  0
M  END
