
     RDKit          3D

 21 21  0  0  0  0  0  0  0  0999 V2000
   -2.2763   -0.5177   -0.0176 C   0  0  0  0  0  0  0  0  0  0  0  0
   -1.1907    0.3865    0.4803 C   0  0  0  0  0  0  0  0  0  0  0  0
   -0.2209    0.6952   -0.6616 C   0  0  0  0  0  0  0  0  0  0  0  0
   -0.4931    1.9815   -1.1306 O   0  0  0  0  0  0  0  0  0  0  0  0
    0.8899    0.6015    0.3490 C   0  0  0  0  0  0  0  0  0  0  0  0
    2.0642   -0.2619   -0.0636 C   0  0  0  0  0  0  0  0  0  0  0  0
    2.6774    0.1895   -1.2196 O   0  0  0  0  0  0  0  0  0  0  0  0
   -0.0600   -0.2394    1.2136 C   0  0  0  0  0  0  0  0  0  0  0  0
    0.1332   -1.5820    1.0846 O   0  0  0  0  0  0  0  0  0  0  0  0
   -2.9638    0.1226   -0.6432 H   0  0  0  0  0  0  0  0  0  0  0  0
   -1.9300   -1.3472   -0.6445 H   0  0  0  0  0  0  0  0  0  0  0  0
   -2.9211   -0.9242    0.7860 H   0  0  0  0  0  0  0  0  0  0  0  0
   -1.6034    1.2615    0.9816 H   0  0  0  0  0  0  0  0  0  0  0  0
   -0.1786   -0.0588   -1.4523 H   0  0  0  0  0  0  0  0  0  0  0  0
    0.1991    2.3399   -1.7081 H   0  0  0  0  0  0  0  0  0  0  0  0
    1.1710    1.5260    0.8531 H   0  0  0  0  0  0  0  0  0  0  0  0
    1.7207   -1.3090   -0.1647 H   0  0  0  0  0  0  0  0  0  0  0  0
    2.7712   -0.2459    0.8132 H   0  0  0  0  0  0  0  0  0  0  0  0
    2.7719   -0.5856   -1.8299 H   0  0  0  0  0  0  0  0  0  0  0  0
    0.0203    0.0663    2.2837 H   0  0  0  0  0  0  0  0  0  0  0  0
   -0.5809   -2.0988    0.6906 H   0  0  0  0  0  0  0  0  0  0  0  0
  1  2  1  0
  2  3  1  0
  3  4  1  0
  3  5  1  0
  5  6  1  0
  6  7  1  0
  5  8  1  0
  8  9  1  0
  8  2  1  0
  1 10  1  0
  1 11  1  0
  1 12  1  0
  2 13  1  0
  3 14  1  0
  4 15  1  0
  5 16  1  0
  6 17  1  0
  6 18  1  0
  7 19  1  0
  8 20  1  0
  9 21  1  0
M  END
