
     RDKit          3D

 19 19  0  0  0  0  0  0  0  0999 V2000
   -0.4581    1.7840    0.2982 C   0  0  0  0  0  0  0  0  0  0  0  0
   -0.7559    0.4206   -0.2639 C   0  0  0  0  0  0  0  0  0  0  0  0
   -1.6259   -0.4038    0.6480 C   0  0  0  0  0  0  0  0  0  0  0  0
   -1.3046   -1.7705    0.1591 C   0  0  0  0  0  0  0  0  0  0  0  0
   -2.0430   -2.7642    0.0398 O   0  0  0  0  0  0  0  0  0  0  0  0
    0.1169   -1.6864   -0.1609 C   0  0  0  0  0  0  0  0  0  0  0  0
    0.4418   -0.4253   -0.4054 C   0  0  0  0  0  0  0  0  0  0  0  0
    1.8339   -0.0266   -0.7612 C   0  0  0  0  0  0  0  0  0  0  0  0
    2.3897    0.8631    0.1165 O   0  0  0  0  0  0  0  0  0  0  0  0
   -1.4279    2.2237    0.6256 H   0  0  0  0  0  0  0  0  0  0  0  0
   -0.0995    2.4149   -0.5433 H   0  0  0  0  0  0  0  0  0  0  0  0
    0.2035    1.7782    1.1624 H   0  0  0  0  0  0  0  0  0  0  0  0
   -1.2840    0.5765   -1.2293 H   0  0  0  0  0  0  0  0  0  0  0  0
   -2.6962   -0.1623    0.5799 H   0  0  0  0  0  0  0  0  0  0  0  0
   -1.2160   -0.3188    1.6716 H   0  0  0  0  0  0  0  0  0  0  0  0
    0.8042   -2.5343   -0.1939 H   0  0  0  0  0  0  0  0  0  0  0  0
    1.8071    0.4838   -1.7694 H   0  0  0  0  0  0  0  0  0  0  0  0
    2.5018   -0.8879   -0.8912 H   0  0  0  0  0  0  0  0  0  0  0  0
    2.8123    0.4354    0.9173 H   0  0  0  0  0  0  0  0  0  0  0  0
  1  2  1  0
  2  3  1  0
  3  4  1  0
  4  5  2  0
  4  6  1  0
  6  7  2  0
  7  8  1  0
  8  9  1  0
  7  2  1  0
  1 10  1  0
  1 11  1  0
  1 12  1  0
  2 13  1  0
  3 14  1  0
  3 15  1  0
  6 16  1  0
  8 17  1  0
  8 18  1  0
  9 19  1  0
M  END
