
     RDKit          3D

 21 22  0  0  0  0  0  0  0  0999 V2000
   -2.3880    0.0198   -0.8412 C   0  0  0  0  0  0  0  0  0  0  0  0
   -0.9329   -0.2672   -0.6269 C   0  0  0  0  0  0  0  0  0  0  0  0
   -0.1457    0.7025    0.1482 C   0  0  0  0  0  0  0  0  0  0  0  0
    1.3305    0.3223    0.2648 C   0  0  0  0  0  0  0  0  0  0  0  0
    1.8323   -0.1593   -1.0932 C   0  0  0  0  0  0  0  0  0  0  0  0
    2.0371    1.3501    0.8278 O   0  0  0  0  0  0  0  0  0  0  0  0
    0.9029   -0.8001    1.1482 C   0  0  0  0  0  0  0  0  0  0  0  0
   -0.5152   -0.7028    0.7052 C   0  0  0  0  0  0  0  0  0  0  0  0
   -1.4840   -0.7586    1.6844 O   0  0  0  0  0  0  0  0  0  0  0  0
   -3.0553   -0.5230   -0.1659 H   0  0  0  0  0  0  0  0  0  0  0  0
   -2.7308   -0.2292   -1.8866 H   0  0  0  0  0  0  0  0  0  0  0  0
   -2.5324    1.1138   -0.7482 H   0  0  0  0  0  0  0  0  0  0  0  0
   -0.4191   -0.6415   -1.5602 H   0  0  0  0  0  0  0  0  0  0  0  0
   -0.5517    1.5075    0.7449 H   0  0  0  0  0  0  0  0  0  0  0  0
    1.4529    0.4805   -1.9022 H   0  0  0  0  0  0  0  0  0  0  0  0
    1.5203   -1.2178   -1.2672 H   0  0  0  0  0  0  0  0  0  0  0  0
    2.9456   -0.1864   -1.0452 H   0  0  0  0  0  0  0  0  0  0  0  0
    1.9244    2.1479    0.2183 H   0  0  0  0  0  0  0  0  0  0  0  0
    1.4120   -1.7691    1.0261 H   0  0  0  0  0  0  0  0  0  0  0  0
    0.9939   -0.4830    2.2259 H   0  0  0  0  0  0  0  0  0  0  0  0
   -1.5970    0.0936    2.1429 H   0  0  0  0  0  0  0  0  0  0  0  0
  1  2  1  0
  2  3  1  0
  3  4  1  0
  4  5  1  0
  4  6  1  0
  4  7  1  0
  7  8  1  0
  8  9  1  0
  8  2  1  0
  8  3  1  0
  1 10  1  0
  1 11  1  0
  1 12  1  0
  2 13  1  0
  3 14  1  0
  5 15  1  0
  5 16  1  0
  5 17  1  0
  6 18  1  0
  7 19  1  0
  7 20  1  0
  9 21  1  0
M  END
