
     RDKit          3D

 23 24  0  0  0  0  0  0  0  0999 V2000
   -2.4005   -0.5219   -0.1440 C   0  0  0  0  0  0  0  0  0  0  0  0
   -1.1971    0.0629    0.5618 C   0  0  0  0  0  0  0  0  0  0  0  0
   -0.7076   -0.9603    1.4969 C   0  0  0  0  0  0  0  0  0  0  0  0
    0.5439   -1.2237    1.2315 C   0  0  0  0  0  0  0  0  0  0  0  0
    1.0425   -0.4184    0.0982 C   0  0  0  0  0  0  0  0  0  0  0  0
    2.4414    0.1291    0.2648 C   0  0  0  0  0  0  0  0  0  0  0  0
    0.5248   -0.5926   -1.2745 C   0  0  0  0  0  0  0  0  0  0  0  0
   -0.0768    0.3982   -0.3425 C   0  0  0  0  0  0  0  0  0  0  0  0
    0.0611    1.8372   -0.7681 C   0  0  0  0  0  0  0  0  0  0  0  0
   -3.1687   -0.7138    0.6344 H   0  0  0  0  0  0  0  0  0  0  0  0
   -2.1899   -1.4993   -0.6184 H   0  0  0  0  0  0  0  0  0  0  0  0
   -2.8178    0.1898   -0.8631 H   0  0  0  0  0  0  0  0  0  0  0  0
   -1.5634    0.9809    1.0794 H   0  0  0  0  0  0  0  0  0  0  0  0
   -1.3346   -1.4027    2.2784 H   0  0  0  0  0  0  0  0  0  0  0  0
    1.1381   -1.9500    1.7844 H   0  0  0  0  0  0  0  0  0  0  0  0
    3.0249   -0.0451   -0.6800 H   0  0  0  0  0  0  0  0  0  0  0  0
    2.9722   -0.3810    1.0929 H   0  0  0  0  0  0  0  0  0  0  0  0
    2.4364    1.2112    0.5284 H   0  0  0  0  0  0  0  0  0  0  0  0
    1.1612   -0.2306   -2.0873 H   0  0  0  0  0  0  0  0  0  0  0  0
   -0.1376   -1.4379   -1.5517 H   0  0  0  0  0  0  0  0  0  0  0  0
   -0.8008    2.4178   -0.3936 H   0  0  0  0  0  0  0  0  0  0  0  0
    0.0360    1.8555   -1.8742 H   0  0  0  0  0  0  0  0  0  0  0  0
    1.0121    2.2948   -0.4536 H   0  0  0  0  0  0  0  0  0  0  0  0
  1  2  1  0
  2  3  1  0
  3  4  2  0
  4  5  1  0
  5  6  1  0
  5  7  1  0
  7  8  1  0
  8  9  1  0
  8  2  1  0
  8  5  1  0
  1 10  1  0
  1 11  1  0
  1 12  1  0
  2 13  1  0
  3 14  1  0
  4 15  1  0
  6 16  1  0
  6 17  1  0
  6 18  1  0
  7 19  1  0
  7 20  1  0
  9 21  1  0
  9 22  1  0
  9 23  1  0
M  END
