
     RDKit          3D

 23 24  0  0  0  0  0  0  0  0999 V2000
   -2.8930   -0.4583   -0.0534 C   0  0  0  0  0  0  0  0  0  0  0  0
   -1.5594   -0.0566   -0.6185 C   0  0  0  0  0  0  0  0  0  0  0  0
   -0.9425    1.2511   -0.3660 C   0  0  0  0  0  0  0  0  0  0  0  0
   -0.4820    0.1250    0.4546 C   0  0  0  0  0  0  0  0  0  0  0  0
   -0.8838    0.1410    1.7879 O   0  0  0  0  0  0  0  0  0  0  0  0
    0.7678   -0.6425    0.1642 C   0  0  0  0  0  0  0  0  0  0  0  0
    1.4843   -0.3189   -1.1027 C   0  0  0  0  0  0  0  0  0  0  0  0
    2.3908    0.5920   -0.3098 C   0  0  0  0  0  0  0  0  0  0  0  0
    1.9571   -0.1330    0.9507 C   0  0  0  0  0  0  0  0  0  0  0  0
   -3.2473    0.1847    0.7582 H   0  0  0  0  0  0  0  0  0  0  0  0
   -3.6643   -0.5629   -0.8448 H   0  0  0  0  0  0  0  0  0  0  0  0
   -2.7572   -1.5015    0.3595 H   0  0  0  0  0  0  0  0  0  0  0  0
   -1.2957   -0.5609   -1.5570 H   0  0  0  0  0  0  0  0  0  0  0  0
   -1.5419    2.0583    0.1186 H   0  0  0  0  0  0  0  0  0  0  0  0
   -0.2392    1.6477   -1.1203 H   0  0  0  0  0  0  0  0  0  0  0  0
   -0.6456   -0.6532    2.2892 H   0  0  0  0  0  0  0  0  0  0  0  0
    0.6405   -1.7557    0.2848 H   0  0  0  0  0  0  0  0  0  0  0  0
    0.9062    0.1468   -1.9076 H   0  0  0  0  0  0  0  0  0  0  0  0
    2.0881   -1.1899   -1.4717 H   0  0  0  0  0  0  0  0  0  0  0  0
    2.1266    1.6570   -0.3421 H   0  0  0  0  0  0  0  0  0  0  0  0
    3.4714    0.4241   -0.4745 H   0  0  0  0  0  0  0  0  0  0  0  0
    2.6338   -0.9568    1.2300 H   0  0  0  0  0  0  0  0  0  0  0  0
    1.6853    0.5622    1.7705 H   0  0  0  0  0  0  0  0  0  0  0  0
  1  2  1  0
  2  3  1  0
  3  4  1  0
  4  5  1  0
  4  6  1  0
  6  7  1  0
  7  8  1  0
  8  9  1  0
  4  2  1  0
  9  6  1  0
  1 10  1  0
  1 11  1  0
  1 12  1  0
  2 13  1  0
  3 14  1  0
  3 15  1  0
  5 16  1  0
  6 17  1  0
  7 18  1  0
  7 19  1  0
  8 20  1  0
  8 21  1  0
  9 22  1  0
  9 23  1  0
M  END
