
     RDKit          3D

 14 15  0  0  0  0  0  0  0  0999 V2000
    1.6820   -0.5442   -0.0212 C   0  0  0  0  0  0  0  0  0  0  0  0
    0.2770   -0.2786   -0.4290 C   0  0  0  0  0  0  0  0  0  0  0  0
   -0.8034   -0.5690    0.5506 C   0  0  0  0  0  0  0  0  0  0  0  0
   -1.6289    0.4885   -0.1253 C   0  0  0  0  0  0  0  0  0  0  0  0
   -0.2413    1.0240    0.0696 C   0  0  0  0  0  0  0  0  0  0  0  0
   -0.2873    0.4509    1.3330 O   0  0  0  0  0  0  0  0  0  0  0  0
    2.0468   -1.5354   -0.3913 H   0  0  0  0  0  0  0  0  0  0  0  0
    1.8684   -0.3948    1.0525 H   0  0  0  0  0  0  0  0  0  0  0  0
    2.3325    0.2069   -0.5468 H   0  0  0  0  0  0  0  0  0  0  0  0
    0.0800   -0.5390   -1.4716 H   0  0  0  0  0  0  0  0  0  0  0  0
   -1.1294   -1.4691    0.8686 H   0  0  0  0  0  0  0  0  0  0  0  0
   -1.8589    0.2507   -1.1892 H   0  0  0  0  0  0  0  0  0  0  0  0
   -2.4212    0.9583    0.4586 H   0  0  0  0  0  0  0  0  0  0  0  0
    0.0838    1.9506   -0.1585 H   0  0  0  0  0  0  0  0  0  0  0  0
  1  2  1  0
  2  3  1  0
  3  4  1  0
  4  5  1  0
  5  6  1  0
  5  2  1  0
  6  3  1  0
  1  7  1  0
  1  8  1  0
  1  9  1  0
  2 10  1  0
  3 11  1  0
  4 12  1  0
  4 13  1  0
  5 14  1  0
M  END
