
     RDKit          3D

 21 21  0  0  0  0  0  0  0  0999 V2000
    2.6227   -0.0409   -0.0296 C   0  0  0  0  0  0  0  0  0  0  0  0
    1.2042    0.1543    0.3645 C   0  0  0  0  0  0  0  0  0  0  0  0
    0.4123    0.9143   -0.6303 C   0  0  0  0  0  0  0  0  0  0  0  0
   -0.8511    1.2887   -0.7015 C   0  0  0  0  0  0  0  0  0  0  0  0
   -2.0332    1.0942    0.2173 C   0  0  0  0  0  0  0  0  0  0  0  0
   -1.9306   -0.1749    0.7325 O   0  0  0  0  0  0  0  0  0  0  0  0
   -1.6860   -1.1597   -0.1827 C   0  0  0  0  0  0  0  0  0  0  0  0
   -0.3592   -1.4314   -0.4158 O   0  0  0  0  0  0  0  0  0  0  0  0
    0.4811   -1.1691    0.6358 C   0  0  0  0  0  0  0  0  0  0  0  0
    2.8922   -1.1068    0.0792 H   0  0  0  0  0  0  0  0  0  0  0  0
    3.2803    0.5047    0.7075 H   0  0  0  0  0  0  0  0  0  0  0  0
    2.8891    0.3808   -1.0176 H   0  0  0  0  0  0  0  0  0  0  0  0
    1.1250    0.7346    1.3298 H   0  0  0  0  0  0  0  0  0  0  0  0
    0.9899    1.2324   -1.4827 H   0  0  0  0  0  0  0  0  0  0  0  0
   -1.0867    1.8499   -1.6036 H   0  0  0  0  0  0  0  0  0  0  0  0
   -1.8419    1.8093    1.0709 H   0  0  0  0  0  0  0  0  0  0  0  0
   -2.9586    1.3159   -0.3127 H   0  0  0  0  0  0  0  0  0  0  0  0
   -2.1708   -0.9871   -1.1666 H   0  0  0  0  0  0  0  0  0  0  0  0
   -2.1466   -2.1103    0.2072 H   0  0  0  0  0  0  0  0  0  0  0  0
    1.2707   -1.9562    0.6393 H   0  0  0  0  0  0  0  0  0  0  0  0
   -0.1029   -1.1426    1.5592 H   0  0  0  0  0  0  0  0  0  0  0  0
  1  2  1  0
  2  3  1  0
  3  4  2  3
  4  5  1  0
  5  6  1  0
  6  7  1  0
  7  8  1  0
  8  9  1  0
  9  2  1  0
  1 10  1  0
  1 11  1  0
  1 12  1  0
  2 13  1  0
  3 14  1  0
  4 15  1  0
  5 16  1  0
  5 17  1  0
  7 18  1  0
  7 19  1  0
  9 20  1  0
  9 21  1  0
M  END
