
     RDKit          3D

 23 23  0  0  0  0  0  0  0  0999 V2000
   -1.9057   -1.0069    0.2443 C   0  0  0  0  0  0  0  0  0  0  0  0
   -0.8350   -0.7365   -0.7772 C   0  0  0  0  0  0  0  0  0  0  0  0
    0.4286   -1.5465   -0.4602 C   0  0  0  0  0  0  0  0  0  0  0  0
    0.8177   -0.3593    0.4203 C   0  0  0  0  0  0  0  0  0  0  0  0
    2.3007   -0.0758    0.4070 C   0  0  0  0  0  0  0  0  0  0  0  0
    0.0094    0.4792   -0.5470 C   0  0  0  0  0  0  0  0  0  0  0  0
    0.6916    0.8202   -1.7095 O   0  0  0  0  0  0  0  0  0  0  0  0
   -0.6703    1.6678    0.0578 C   0  0  0  0  0  0  0  0  0  0  0  0
   -1.3593    1.3201    1.2350 O   0  0  0  0  0  0  0  0  0  0  0  0
   -2.7269   -0.2934    0.2331 H   0  0  0  0  0  0  0  0  0  0  0  0
   -2.3468   -2.0061   -0.0145 H   0  0  0  0  0  0  0  0  0  0  0  0
   -1.5268   -1.1000    1.2699 H   0  0  0  0  0  0  0  0  0  0  0  0
   -1.1891   -0.9243   -1.7869 H   0  0  0  0  0  0  0  0  0  0  0  0
    0.2517   -2.4799    0.0724 H   0  0  0  0  0  0  0  0  0  0  0  0
    1.0668   -1.5580   -1.3444 H   0  0  0  0  0  0  0  0  0  0  0  0
    0.4003   -0.3850    1.4305 H   0  0  0  0  0  0  0  0  0  0  0  0
    2.7017   -0.1766   -0.6186 H   0  0  0  0  0  0  0  0  0  0  0  0
    2.4594    0.9321    0.8333 H   0  0  0  0  0  0  0  0  0  0  0  0
    2.7831   -0.8653    1.0171 H   0  0  0  0  0  0  0  0  0  0  0  0
    1.3044    1.5670   -1.5015 H   0  0  0  0  0  0  0  0  0  0  0  0
   -1.3629    2.1808   -0.6036 H   0  0  0  0  0  0  0  0  0  0  0  0
    0.1151    2.3922    0.3602 H   0  0  0  0  0  0  0  0  0  0  0  0
   -1.4078    2.1543    1.7825 H   0  0  0  0  0  0  0  0  0  0  0  0
  1  2  1  0
  2  3  1  0
  3  4  1  0
  4  5  1  0
  4  6  1  0
  6  7  1  0
  6  8  1  0
  8  9  1  0
  6  2  1  0
  1 10  1  0
  1 11  1  0
  1 12  1  0
  2 13  1  0
  3 14  1  0
  3 15  1  0
  4 16  1  0
  5 17  1  0
  5 18  1  0
  5 19  1  0
  7 20  1  0
  8 21  1  0
  8 22  1  0
  9 23  1  0
M  END
