
     RDKit          3D

 21 22  0  0  0  0  0  0  0  0999 V2000
   -2.1473   -0.9097    0.4341 C   0  0  0  0  0  0  0  0  0  0  0  0
   -1.1058   -0.3547   -0.4867 C   0  0  0  0  0  0  0  0  0  0  0  0
    0.0468   -1.3130   -0.8003 C   0  0  0  0  0  0  0  0  0  0  0  0
    0.8551   -0.8498   -1.7905 O   0  0  0  0  0  0  0  0  0  0  0  0
    1.0015   -0.3023   -0.5535 C   0  0  0  0  0  0  0  0  0  0  0  0
    2.3389   -0.4368    0.0849 C   0  0  0  0  0  0  0  0  0  0  0  0
   -0.0594    0.5200    0.1191 C   0  0  0  0  0  0  0  0  0  0  0  0
   -0.0458    1.9558   -0.2681 C   0  0  0  0  0  0  0  0  0  0  0  0
   -0.0094    0.2785    1.5120 O   0  0  0  0  0  0  0  0  0  0  0  0
   -2.6886   -0.1233    0.9658 H   0  0  0  0  0  0  0  0  0  0  0  0
   -1.7576   -1.6816    1.1266 H   0  0  0  0  0  0  0  0  0  0  0  0
   -2.9023   -1.4350   -0.2062 H   0  0  0  0  0  0  0  0  0  0  0  0
   -1.5759    0.0297   -1.4141 H   0  0  0  0  0  0  0  0  0  0  0  0
    0.0791   -2.2938   -0.3698 H   0  0  0  0  0  0  0  0  0  0  0  0
    3.1001   -0.7747   -0.6718 H   0  0  0  0  0  0  0  0  0  0  0  0
    2.3674   -1.0152    1.0089 H   0  0  0  0  0  0  0  0  0  0  0  0
    2.6735    0.6059    0.3622 H   0  0  0  0  0  0  0  0  0  0  0  0
    0.4050    2.5245    0.5972 H   0  0  0  0  0  0  0  0  0  0  0  0
    0.6658    2.0981   -1.1066 H   0  0  0  0  0  0  0  0  0  0  0  0
   -1.0227    2.3742   -0.5116 H   0  0  0  0  0  0  0  0  0  0  0  0
   -0.2185    1.1032    1.9685 H   0  0  0  0  0  0  0  0  0  0  0  0
  1  2  1  0
  2  3  1  0
  3  4  1  0
  4  5  1  0
  5  6  1  0
  5  7  1  0
  7  8  1  0
  7  9  1  0
  7  2  1  0
  5  3  1  0
  1 10  1  0
  1 11  1  0
  1 12  1  0
  2 13  1  0
  3 14  1  0
  6 15  1  0
  6 16  1  0
  6 17  1  0
  8 18  1  0
  8 19  1  0
  8 20  1  0
  9 21  1  0
M  END
