
     RDKit          3D

 19 20  0  0  0  0  0  0  0  0999 V2000
   -1.8104   -0.3921   -0.9266 C   0  0  0  0  0  0  0  0  0  0  0  0
   -0.9551   -0.2234    0.2802 C   0  0  0  0  0  0  0  0  0  0  0  0
    0.0934   -1.3358    0.4155 C   0  0  0  0  0  0  0  0  0  0  0  0
    0.8349   -1.4691   -0.7414 O   0  0  0  0  0  0  0  0  0  0  0  0
    1.7481   -0.4046   -0.7676 C   0  0  0  0  0  0  0  0  0  0  0  0
    1.3103    0.3935    0.4381 C   0  0  0  0  0  0  0  0  0  0  0  0
    0.9743   -0.6732    1.3084 O   0  0  0  0  0  0  0  0  0  0  0  0
   -0.0247    0.9913    0.1479 C   0  0  0  0  0  0  0  0  0  0  0  0
   -0.3836    2.0105    0.9986 O   0  0  0  0  0  0  0  0  0  0  0  0
   -1.6449   -1.3426   -1.4298 H   0  0  0  0  0  0  0  0  0  0  0  0
   -2.8615   -0.1992   -0.6355 H   0  0  0  0  0  0  0  0  0  0  0  0
   -1.5450    0.4106   -1.6670 H   0  0  0  0  0  0  0  0  0  0  0  0
   -1.4986   -0.1523    1.2311 H   0  0  0  0  0  0  0  0  0  0  0  0
   -0.3096   -2.2514    0.8234 H   0  0  0  0  0  0  0  0  0  0  0  0
    1.7164    0.1632   -1.7071 H   0  0  0  0  0  0  0  0  0  0  0  0
    2.7709   -0.8338   -0.5657 H   0  0  0  0  0  0  0  0  0  0  0  0
    2.0578    1.0554    0.8441 H   0  0  0  0  0  0  0  0  0  0  0  0
   -0.0526    1.3654   -0.9114 H   0  0  0  0  0  0  0  0  0  0  0  0
   -0.4202    2.8875    0.5125 H   0  0  0  0  0  0  0  0  0  0  0  0
  1  2  1  0
  2  3  1  0
  3  4  1  0
  4  5  1  0
  5  6  1  0
  6  7  1  0
  6  8  1  0
  8  9  1  0
  8  2  1  0
  7  3  1  0
  1 10  1  0
  1 11  1  0
  1 12  1  0
  2 13  1  0
  3 14  1  0
  5 15  1  0
  5 16  1  0
  6 17  1  0
  8 18  1  0
  9 19  1  0
M  END
