
     RDKit          3D

 18 18  0  0  0  0  0  0  0  0999 V2000
   -1.5354   -0.7148    0.8149 C   0  0  0  0  0  0  0  0  0  0  0  0
   -1.0934   -0.0924   -0.4891 C   0  0  0  0  0  0  0  0  0  0  0  0
   -1.2520    1.4067   -0.4353 C   0  0  0  0  0  0  0  0  0  0  0  0
   -0.0990    1.3689    0.3954 O   0  0  0  0  0  0  0  0  0  0  0  0
    0.3469    0.4019   -0.4756 C   0  0  0  0  0  0  0  0  0  0  0  0
    1.2505   -0.6742    0.0526 C   0  0  0  0  0  0  0  0  0  0  0  0
    2.6743   -0.3040    0.1211 C   0  0  0  0  0  0  0  0  0  0  0  0
    3.1099    0.4284    1.0223 O   0  0  0  0  0  0  0  0  0  0  0  0
   -1.0189   -0.1679    1.6471 H   0  0  0  0  0  0  0  0  0  0  0  0
   -2.6173   -0.4993    0.9220 H   0  0  0  0  0  0  0  0  0  0  0  0
   -1.3726   -1.7947    0.8794 H   0  0  0  0  0  0  0  0  0  0  0  0
   -1.3285   -0.6163   -1.3997 H   0  0  0  0  0  0  0  0  0  0  0  0
   -1.0129    1.9257   -1.3878 H   0  0  0  0  0  0  0  0  0  0  0  0
   -2.1340    1.7696    0.1164 H   0  0  0  0  0  0  0  0  0  0  0  0
    0.5921    0.7797   -1.4871 H   0  0  0  0  0  0  0  0  0  0  0  0
    0.8611   -1.0801    0.9928 H   0  0  0  0  0  0  0  0  0  0  0  0
    1.1822   -1.5128   -0.7069 H   0  0  0  0  0  0  0  0  0  0  0  0
    3.4471   -0.6244   -0.5825 H   0  0  0  0  0  0  0  0  0  0  0  0
  1  2  1  0
  2  3  1  0
  3  4  1  0
  4  5  1  0
  5  6  1  0
  6  7  1  0
  7  8  2  0
  5  2  1  0
  1  9  1  0
  1 10  1  0
  1 11  1  0
  2 12  1  0
  3 13  1  0
  3 14  1  0
  5 15  1  0
  6 16  1  0
  6 17  1  0
  7 18  1  0
M  END
