
     RDKit          3D

 21 23  0  0  0  0  0  0  0  0999 V2000
    2.5119    0.3774   -0.0967 C   0  0  0  0  0  0  0  0  0  0  0  0
    1.0495    0.6127   -0.3876 C   0  0  0  0  0  0  0  0  0  0  0  0
    0.3684   -0.7383   -0.6366 C   0  0  0  0  0  0  0  0  0  0  0  0
   -0.9287   -0.4909   -1.3764 C   0  0  0  0  0  0  0  0  0  0  0  0
   -1.9693   -0.2180   -0.2914 C   0  0  0  0  0  0  0  0  0  0  0  0
   -1.1507    0.1289    0.9255 C   0  0  0  0  0  0  0  0  0  0  0  0
   -1.8370    0.3062    2.1001 O   0  0  0  0  0  0  0  0  0  0  0  0
    0.1779    0.7543    0.8238 C   0  0  0  0  0  0  0  0  0  0  0  0
    0.0106   -0.7318    0.8106 C   0  0  0  0  0  0  0  0  0  0  0  0
    2.9934    0.0642   -1.0575 H   0  0  0  0  0  0  0  0  0  0  0  0
    3.0323    1.2771    0.2503 H   0  0  0  0  0  0  0  0  0  0  0  0
    2.6635   -0.4901    0.5929 H   0  0  0  0  0  0  0  0  0  0  0  0
    0.9064    1.3481   -1.1749 H   0  0  0  0  0  0  0  0  0  0  0  0
    1.0105   -1.5237   -1.0141 H   0  0  0  0  0  0  0  0  0  0  0  0
   -0.8517    0.4496   -1.9879 H   0  0  0  0  0  0  0  0  0  0  0  0
   -1.2209   -1.3235   -2.0328 H   0  0  0  0  0  0  0  0  0  0  0  0
   -2.6849    0.5495   -0.5820 H   0  0  0  0  0  0  0  0  0  0  0  0
   -2.4732   -1.1980   -0.0463 H   0  0  0  0  0  0  0  0  0  0  0  0
   -2.6002    0.9447    1.9341 H   0  0  0  0  0  0  0  0  0  0  0  0
    0.5626    1.2879    1.6992 H   0  0  0  0  0  0  0  0  0  0  0  0
    0.4296   -1.3860    1.5477 H   0  0  0  0  0  0  0  0  0  0  0  0
  1  2  1  0
  2  3  1  0
  3  4  1  0
  4  5  1  0
  5  6  1  0
  6  7  1  0
  6  8  1  0
  8  9  1  0
  8  2  1  0
  9  3  1  0
  9  6  1  0
  1 10  1  0
  1 11  1  0
  1 12  1  0
  2 13  1  0
  3 14  1  0
  4 15  1  0
  4 16  1  0
  5 17  1  0
  5 18  1  0
  7 19  1  0
  8 20  1  0
  9 21  1  0
M  END
