
     RDKit          3D

 21 21  0  0  0  0  0  0  0  0999 V2000
   -0.8495   -1.9792   -0.4970 C   0  0  0  0  0  0  0  0  0  0  0  0
   -0.4821   -0.5366   -0.7333 C   0  0  0  0  0  0  0  0  0  0  0  0
   -0.5758    0.3742    0.4422 C   0  0  0  0  0  0  0  0  0  0  0  0
   -1.7477    1.3345    0.3020 C   0  0  0  0  0  0  0  0  0  0  0  0
    0.7632    0.9572    0.0688 C   0  0  0  0  0  0  0  0  0  0  0  0
    1.7603    1.0217    1.1526 C   0  0  0  0  0  0  0  0  0  0  0  0
    1.6489    0.3513    2.1570 O   0  0  0  0  0  0  0  0  0  0  0  0
    1.0144   -0.2791   -0.7845 C   0  0  0  0  0  0  0  0  0  0  0  0
    1.7885   -1.2533   -0.1649 O   0  0  0  0  0  0  0  0  0  0  0  0
   -1.9026   -2.1251   -0.8199 H   0  0  0  0  0  0  0  0  0  0  0  0
   -0.2054   -2.5830   -1.1849 H   0  0  0  0  0  0  0  0  0  0  0  0
   -0.7238   -2.2871    0.5656 H   0  0  0  0  0  0  0  0  0  0  0  0
   -0.9714   -0.1259   -1.6338 H   0  0  0  0  0  0  0  0  0  0  0  0
   -0.5753   -0.2027    1.3892 H   0  0  0  0  0  0  0  0  0  0  0  0
   -2.4034    1.0182   -0.5608 H   0  0  0  0  0  0  0  0  0  0  0  0
   -2.4136    1.2554    1.1952 H   0  0  0  0  0  0  0  0  0  0  0  0
   -1.3800    2.3744    0.1749 H   0  0  0  0  0  0  0  0  0  0  0  0
    0.6549    1.8929   -0.5440 H   0  0  0  0  0  0  0  0  0  0  0  0
    2.6008    1.6905    1.0233 H   0  0  0  0  0  0  0  0  0  0  0  0
    1.3916    0.0013   -1.7902 H   0  0  0  0  0  0  0  0  0  0  0  0
    2.6081   -0.8995    0.2421 H   0  0  0  0  0  0  0  0  0  0  0  0
  1  2  1  0
  2  3  1  0
  3  4  1  0
  3  5  1  0
  5  6  1  0
  6  7  2  0
  5  8  1  0
  8  9  1  0
  8  2  1  0
  1 10  1  0
  1 11  1  0
  1 12  1  0
  2 13  1  0
  3 14  1  0
  4 15  1  0
  4 16  1  0
  4 17  1  0
  5 18  1  0
  6 19  1  0
  8 20  1  0
  9 21  1  0
M  END
