
     RDKit          3D

 17 17  0  0  0  0  0  0  0  0999 V2000
   -2.4220   -0.3809   -1.0121 C   0  0  0  0  0  0  0  0  0  0  0  0
   -1.1881    0.0382   -0.2817 C   0  0  0  0  0  0  0  0  0  0  0  0
   -1.0574   -0.5987    1.0550 C   0  0  0  0  0  0  0  0  0  0  0  0
    0.2487   -0.6430    1.2924 C   0  0  0  0  0  0  0  0  0  0  0  0
    0.9242   -0.0279    0.0897 C   0  0  0  0  0  0  0  0  0  0  0  0
    2.1667   -0.6056   -0.1618 O   0  0  0  0  0  0  0  0  0  0  0  0
    3.3495    0.1377   -0.1856 C   0  0  0  0  0  0  0  0  0  0  0  0
    3.2713    1.3697    0.0296 O   0  0  0  0  0  0  0  0  0  0  0  0
   -0.0162   -0.3425   -0.9207 O   0  0  0  0  0  0  0  0  0  0  0  0
   -3.0716    0.5295   -1.1096 H   0  0  0  0  0  0  0  0  0  0  0  0
   -2.1973   -0.7155   -2.0292 H   0  0  0  0  0  0  0  0  0  0  0  0
   -2.9562   -1.1565   -0.4018 H   0  0  0  0  0  0  0  0  0  0  0  0
   -1.1238    1.1408   -0.1294 H   0  0  0  0  0  0  0  0  0  0  0  0
   -1.8674   -0.9576    1.7099 H   0  0  0  0  0  0  0  0  0  0  0  0
    0.7251   -1.0436    2.1774 H   0  0  0  0  0  0  0  0  0  0  0  0
    0.9496    1.0525    0.2667 H   0  0  0  0  0  0  0  0  0  0  0  0
    4.2652   -0.3953   -0.3889 H   0  0  0  0  0  0  0  0  0  0  0  0
  1  2  1  0
  2  3  1  0
  3  4  2  0
  4  5  1  0
  5  6  1  0
  6  7  1  0
  7  8  2  0
  5  9  1  0
  9  2  1  0
  1 10  1  0
  1 11  1  0
  1 12  1  0
  2 13  1  0
  3 14  1  0
  4 15  1  0
  5 16  1  0
  7 17  1  0
M  END
