
     RDKit          3D

 15 15  0  0  0  0  0  0  0  0999 V2000
    1.5999   -0.1580   -0.3291 C   0  0  0  0  0  0  0  0  0  0  0  0
    0.4499   -0.0108    0.6188 C   0  0  0  0  0  0  0  0  0  0  0  0
   -0.4662    1.1001    0.1259 C   0  0  0  0  0  0  0  0  0  0  0  0
   -1.3173    0.0272   -0.5168 C   0  0  0  0  0  0  0  0  0  0  0  0
   -0.6967   -0.9694    0.4281 C   0  0  0  0  0  0  0  0  0  0  0  0
    2.4967   -0.4494    0.2454 H   0  0  0  0  0  0  0  0  0  0  0  0
    1.3785   -0.7975   -1.1894 H   0  0  0  0  0  0  0  0  0  0  0  0
    1.8528    0.8535   -0.7678 H   0  0  0  0  0  0  0  0  0  0  0  0
    0.7143    0.0393    1.6878 H   0  0  0  0  0  0  0  0  0  0  0  0
   -0.9033    1.6489    0.9523 H   0  0  0  0  0  0  0  0  0  0  0  0
    0.0068    1.7764   -0.6338 H   0  0  0  0  0  0  0  0  0  0  0  0
   -0.9677   -0.1838   -1.5507 H   0  0  0  0  0  0  0  0  0  0  0  0
   -2.4006    0.1804   -0.4277 H   0  0  0  0  0  0  0  0  0  0  0  0
   -0.4401   -1.9503    0.0122 H   0  0  0  0  0  0  0  0  0  0  0  0
   -1.3068   -1.1066    1.3449 H   0  0  0  0  0  0  0  0  0  0  0  0
  1  2  1  0
  2  3  1  0
  3  4  1  0
  4  5  1  0
  5  2  1  0
  1  6  1  0
  1  7  1  0
  1  8  1  0
  2  9  1  0
  3 10  1  0
  3 11  1  0
  4 12  1  0
  4 13  1  0
  5 14  1  0
  5 15  1  0
M  END
