
     RDKit          3D

 19 20  0  0  0  0  0  0  0  0999 V2000
   -1.7545    1.0659    1.0065 C   0  0  0  0  0  0  0  0  0  0  0  0
   -0.8255   -0.1094    0.6953 C   0  0  0  0  0  0  0  0  0  0  0  0
   -0.9642   -0.6492   -0.7519 C   0  0  0  0  0  0  0  0  0  0  0  0
   -0.9794   -2.0262   -0.8410 O   0  0  0  0  0  0  0  0  0  0  0  0
    0.1820    0.0721   -0.3484 C   0  0  0  0  0  0  0  0  0  0  0  0
    0.5747    1.3389   -0.6574 O   0  0  0  0  0  0  0  0  0  0  0  0
    1.6851    1.1043    0.1919 C   0  0  0  0  0  0  0  0  0  0  0  0
    1.5885   -0.3589   -0.2600 C   0  0  0  0  0  0  0  0  0  0  0  0
    1.9452   -1.2835    0.6844 O   0  0  0  0  0  0  0  0  0  0  0  0
   -2.1006    1.5554    0.0587 H   0  0  0  0  0  0  0  0  0  0  0  0
   -2.6469    0.6470    1.5201 H   0  0  0  0  0  0  0  0  0  0  0  0
   -1.2654    1.8191    1.6468 H   0  0  0  0  0  0  0  0  0  0  0  0
   -0.7298   -0.8575    1.5012 H   0  0  0  0  0  0  0  0  0  0  0  0
   -1.7381   -0.1590   -1.3881 H   0  0  0  0  0  0  0  0  0  0  0  0
   -1.3806   -2.4409   -0.0161 H   0  0  0  0  0  0  0  0  0  0  0  0
    1.4323    1.1863    1.2680 H   0  0  0  0  0  0  0  0  0  0  0  0
    2.5590    1.6425   -0.1655 H   0  0  0  0  0  0  0  0  0  0  0  0
    2.0585   -0.4870   -1.2732 H   0  0  0  0  0  0  0  0  0  0  0  0
    2.3598   -2.0599    0.1887 H   0  0  0  0  0  0  0  0  0  0  0  0
  1  2  1  0
  2  3  1  0
  3  4  1  0
  3  5  1  0
  5  6  1  0
  6  7  1  0
  7  8  1  0
  8  9  1  0
  5  2  1  0
  8  5  1  0
  1 10  1  0
  1 11  1  0
  1 12  1  0
  2 13  1  0
  3 14  1  0
  4 15  1  0
  7 16  1  0
  7 17  1  0
  8 18  1  0
  9 19  1  0
M  END
