
     RDKit          3D

 22 22  0  0  0  0  0  0  0  0999 V2000
    2.4367   -0.8838    0.2468 C   0  0  0  0  0  0  0  0  0  0  0  0
    1.2328   -0.2088   -0.3233 C   0  0  0  0  0  0  0  0  0  0  0  0
    1.2039    1.2749   -0.1072 C   0  0  0  0  0  0  0  0  0  0  0  0
    0.1300    1.6913    0.6780 O   0  0  0  0  0  0  0  0  0  0  0  0
   -1.0999    1.3919    0.1195 C   0  0  0  0  0  0  0  0  0  0  0  0
   -1.1782   -0.0332   -0.3665 C   0  0  0  0  0  0  0  0  0  0  0  0
   -2.4901   -0.6889   -0.0836 C   0  0  0  0  0  0  0  0  0  0  0  0
   -0.0308   -0.7729    0.3340 C   0  0  0  0  0  0  0  0  0  0  0  0
    2.3048   -1.9779    0.1101 H   0  0  0  0  0  0  0  0  0  0  0  0
    2.4498   -0.7117    1.3401 H   0  0  0  0  0  0  0  0  0  0  0  0
    3.3511   -0.5791   -0.2621 H   0  0  0  0  0  0  0  0  0  0  0  0
    1.1327   -0.4872   -1.4125 H   0  0  0  0  0  0  0  0  0  0  0  0
    2.1232    1.6393    0.4182 H   0  0  0  0  0  0  0  0  0  0  0  0
    1.0888    1.7791   -1.0900 H   0  0  0  0  0  0  0  0  0  0  0  0
   -1.8482    1.4695    0.9624 H   0  0  0  0  0  0  0  0  0  0  0  0
   -1.3892    2.0755   -0.6989 H   0  0  0  0  0  0  0  0  0  0  0  0
   -0.9547   -0.0931   -1.4651 H   0  0  0  0  0  0  0  0  0  0  0  0
   -2.5073   -1.6560   -0.6319 H   0  0  0  0  0  0  0  0  0  0  0  0
   -3.3128   -0.0420   -0.3958 H   0  0  0  0  0  0  0  0  0  0  0  0
   -2.5290   -0.9448    0.9989 H   0  0  0  0  0  0  0  0  0  0  0  0
   -0.0048   -0.3917    1.3817 H   0  0  0  0  0  0  0  0  0  0  0  0
   -0.1090   -1.8504    0.2471 H   0  0  0  0  0  0  0  0  0  0  0  0
  1  2  1  0
  2  3  1  0
  3  4  1  0
  4  5  1  0
  5  6  1  0
  6  7  1  0
  6  8  1  0
  8  2  1  0
  1  9  1  0
  1 10  1  0
  1 11  1  0
  2 12  1  0
  3 13  1  0
  3 14  1  0
  5 15  1  0
  5 16  1  0
  6 17  1  0
  7 18  1  0
  7 19  1  0
  7 20  1  0
  8 21  1  0
  8 22  1  0
M  END
