
     RDKit          3D

 21 22  0  0  0  0  0  0  0  0999 V2000
    2.7861    0.0414    0.0067 C   0  0  0  0  0  0  0  0  0  0  0  0
    1.3515    0.1210    0.3851 C   0  0  0  0  0  0  0  0  0  0  0  0
    0.5575    1.0661   -0.5019 C   0  0  0  0  0  0  0  0  0  0  0  0
   -0.8449    0.5905   -0.2113 C   0  0  0  0  0  0  0  0  0  0  0  0
   -0.8141   -0.6791    0.1570 C   0  0  0  0  0  0  0  0  0  0  0  0
   -2.2459   -1.0472    0.4193 C   0  0  0  0  0  0  0  0  0  0  0  0
   -2.8535    0.1778    0.7316 O   0  0  0  0  0  0  0  0  0  0  0  0
   -2.2596    1.0235   -0.1854 C   0  0  0  0  0  0  0  0  0  0  0  0
    0.5936   -1.1692    0.1483 C   0  0  0  0  0  0  0  0  0  0  0  0
    3.2015    1.0645   -0.0237 H   0  0  0  0  0  0  0  0  0  0  0  0
    3.3311   -0.5106    0.7801 H   0  0  0  0  0  0  0  0  0  0  0  0
    2.9107   -0.3830   -1.0057 H   0  0  0  0  0  0  0  0  0  0  0  0
    1.2225    0.4603    1.4209 H   0  0  0  0  0  0  0  0  0  0  0  0
    0.7126    2.1060   -0.2237 H   0  0  0  0  0  0  0  0  0  0  0  0
    0.7186    0.8448   -1.5799 H   0  0  0  0  0  0  0  0  0  0  0  0
   -2.3221   -1.7589    1.2809 H   0  0  0  0  0  0  0  0  0  0  0  0
   -2.6454   -1.4825   -0.5192 H   0  0  0  0  0  0  0  0  0  0  0  0
   -2.6861    0.8962   -1.2204 H   0  0  0  0  0  0  0  0  0  0  0  0
   -2.3072    2.0919    0.1077 H   0  0  0  0  0  0  0  0  0  0  0  0
    0.8048   -1.5214   -0.8828 H   0  0  0  0  0  0  0  0  0  0  0  0
    0.7882   -1.9321    0.9163 H   0  0  0  0  0  0  0  0  0  0  0  0
  1  2  1  0
  2  3  1  0
  3  4  1  0
  4  5  2  0
  5  6  1  0
  6  7  1  0
  7  8  1  0
  5  9  1  0
  9  2  1  0
  8  4  1  0
  1 10  1  0
  1 11  1  0
  1 12  1  0
  2 13  1  0
  3 14  1  0
  3 15  1  0
  6 16  1  0
  6 17  1  0
  8 18  1  0
  8 19  1  0
  9 20  1  0
  9 21  1  0
M  END
