
     RDKit          3D

 21 23  0  0  0  0  0  0  0  0999 V2000
    2.6112   -0.1927   -0.0135 C   0  0  0  0  0  0  0  0  0  0  0  0
    1.2682    0.2298   -0.4918 C   0  0  0  0  0  0  0  0  0  0  0  0
    0.5136    1.1989    0.3868 C   0  0  0  0  0  0  0  0  0  0  0  0
   -0.5476    1.8592   -0.4415 C   0  0  0  0  0  0  0  0  0  0  0  0
   -1.5061    0.9831   -0.6999 C   0  0  0  0  0  0  0  0  0  0  0  0
   -1.1927   -0.3216   -0.0858 C   0  0  0  0  0  0  0  0  0  0  0  0
   -2.2487   -1.3563    0.0863 C   0  0  0  0  0  0  0  0  0  0  0  0
    0.2054   -0.8080   -0.1692 C   0  0  0  0  0  0  0  0  0  0  0  0
   -0.2237    0.0316    0.9566 C   0  0  0  0  0  0  0  0  0  0  0  0
    3.3931    0.0750   -0.7727 H   0  0  0  0  0  0  0  0  0  0  0  0
    2.6256   -1.3071    0.0400 H   0  0  0  0  0  0  0  0  0  0  0  0
    2.9410    0.2873    0.9279 H   0  0  0  0  0  0  0  0  0  0  0  0
    1.2007    0.4555   -1.5914 H   0  0  0  0  0  0  0  0  0  0  0  0
    1.0844    1.8345    1.0449 H   0  0  0  0  0  0  0  0  0  0  0  0
   -0.4578    2.8980   -0.7355 H   0  0  0  0  0  0  0  0  0  0  0  0
   -2.3847    1.2120   -1.2802 H   0  0  0  0  0  0  0  0  0  0  0  0
   -2.1747   -2.0611   -0.7932 H   0  0  0  0  0  0  0  0  0  0  0  0
   -2.0788   -1.9838    0.9754 H   0  0  0  0  0  0  0  0  0  0  0  0
   -3.2756   -0.9648    0.1370 H   0  0  0  0  0  0  0  0  0  0  0  0
    0.4942   -1.8306    0.0621 H   0  0  0  0  0  0  0  0  0  0  0  0
   -0.2469   -0.2390    1.9905 H   0  0  0  0  0  0  0  0  0  0  0  0
  1  2  1  0
  2  3  1  0
  3  4  1  0
  4  5  2  0
  5  6  1  0
  6  7  1  0
  6  8  1  0
  8  9  1  0
  8  2  1  0
  9  3  1  0
  9  6  1  0
  1 10  1  0
  1 11  1  0
  1 12  1  0
  2 13  1  0
  3 14  1  0
  4 15  1  0
  5 16  1  0
  7 17  1  0
  7 18  1  0
  7 19  1  0
  8 20  1  0
  9 21  1  0
M  END
