
     RDKit          3D

 22 22  0  0  0  0  0  0  0  0999 V2000
   -2.5992    0.0143    0.1311 C   0  0  0  0  0  0  0  0  0  0  0  0
   -1.1226    0.2242   -0.0152 C   0  0  0  0  0  0  0  0  0  0  0  0
   -0.4107   -1.0468    0.4150 C   0  0  0  0  0  0  0  0  0  0  0  0
    0.6312   -1.3414   -0.6398 C   0  0  0  0  0  0  0  0  0  0  0  0
    1.8201   -0.4699   -0.3606 C   0  0  0  0  0  0  0  0  0  0  0  0
    1.4139    0.9926   -0.3864 C   0  0  0  0  0  0  0  0  0  0  0  0
    0.6662    1.4062    0.8403 C   0  0  0  0  0  0  0  0  0  0  0  0
   -0.6965    1.2862    0.7506 O   0  0  0  0  0  0  0  0  0  0  0  0
   -3.1614    0.9170   -0.2156 H   0  0  0  0  0  0  0  0  0  0  0  0
   -2.8836   -0.7903   -0.6080 H   0  0  0  0  0  0  0  0  0  0  0  0
   -2.9149   -0.3516    1.1095 H   0  0  0  0  0  0  0  0  0  0  0  0
   -0.9347    0.4528   -1.0979 H   0  0  0  0  0  0  0  0  0  0  0  0
    0.0603   -0.9000    1.4226 H   0  0  0  0  0  0  0  0  0  0  0  0
   -1.1181   -1.8989    0.4876 H   0  0  0  0  0  0  0  0  0  0  0  0
    0.2134   -1.0395   -1.6228 H   0  0  0  0  0  0  0  0  0  0  0  0
    0.9080   -2.3919   -0.7070 H   0  0  0  0  0  0  0  0  0  0  0  0
    2.2573   -0.6556    0.6412 H   0  0  0  0  0  0  0  0  0  0  0  0
    2.5639   -0.6312   -1.1516 H   0  0  0  0  0  0  0  0  0  0  0  0
    2.3867    1.5664   -0.3862 H   0  0  0  0  0  0  0  0  0  0  0  0
    0.9167    1.2780   -1.3333 H   0  0  0  0  0  0  0  0  0  0  0  0
    1.1167    0.8816    1.7096 H   0  0  0  0  0  0  0  0  0  0  0  0
    0.8873    2.4977    1.0170 H   0  0  0  0  0  0  0  0  0  0  0  0
  1  2  1  0
  2  3  1  0
  3  4  1  0
  4  5  1  0
  5  6  1  0
  6  7  1  0
  7  8  1  0
  8  2  1  0
  1  9  1  0
  1 10  1  0
  1 11  1  0
  2 12  1  0
  3 13  1  0
  3 14  1  0
  4 15  1  0
  4 16  1  0
  5 17  1  0
  5 18  1  0
  6 19  1  0
  6 20  1  0
  7 21  1  0
  7 22  1  0
M  END
