
     RDKit          3D

 21 23  0  0  0  0  0  0  0  0999 V2000
    2.5031    0.0908   -0.2155 C   0  0  0  0  0  0  0  0  0  0  0  0
    1.3283   -0.2880    0.6108 C   0  0  0  0  0  0  0  0  0  0  0  0
    0.3650    0.8642    0.9328 C   0  0  0  0  0  0  0  0  0  0  0  0
   -0.5412    0.2358    1.7435 O   0  0  0  0  0  0  0  0  0  0  0  0
   -0.8953   -0.9199    0.9986 C   0  0  0  0  0  0  0  0  0  0  0  0
   -2.1436   -0.5517    0.2452 C   0  0  0  0  0  0  0  0  0  0  0  0
   -1.6475    0.7052   -0.4923 C   0  0  0  0  0  0  0  0  0  0  0  0
   -0.1655    0.6254   -0.4833 C   0  0  0  0  0  0  0  0  0  0  0  0
    0.1296   -0.8329   -0.0981 C   0  0  0  0  0  0  0  0  0  0  0  0
    3.3239   -0.6339   -0.0025 H   0  0  0  0  0  0  0  0  0  0  0  0
    2.2965    0.2227   -1.2818 H   0  0  0  0  0  0  0  0  0  0  0  0
    2.8663    1.0914    0.1584 H   0  0  0  0  0  0  0  0  0  0  0  0
    1.5397   -0.8313    1.5299 H   0  0  0  0  0  0  0  0  0  0  0  0
    0.7793    1.8061    1.1620 H   0  0  0  0  0  0  0  0  0  0  0  0
   -0.9205   -1.8202    1.5670 H   0  0  0  0  0  0  0  0  0  0  0  0
   -2.3842   -1.2770   -0.5636 H   0  0  0  0  0  0  0  0  0  0  0  0
   -2.9764   -0.3314    0.9117 H   0  0  0  0  0  0  0  0  0  0  0  0
   -2.1163    0.8132   -1.4717 H   0  0  0  0  0  0  0  0  0  0  0  0
   -1.9474    1.5536    0.1777 H   0  0  0  0  0  0  0  0  0  0  0  0
    0.4088    1.0291   -1.2886 H   0  0  0  0  0  0  0  0  0  0  0  0
    0.1976   -1.5515   -0.8561 H   0  0  0  0  0  0  0  0  0  0  0  0
  1  2  1  0
  2  3  1  0
  3  4  1  0
  4  5  1  0
  5  6  1  0
  6  7  1  0
  7  8  1  0
  8  9  1  0
  9  2  1  0
  8  3  1  0
  9  5  1  0
  1 10  1  0
  1 11  1  0
  1 12  1  0
  2 13  1  0
  3 14  1  0
  5 15  1  0
  6 16  1  0
  6 17  1  0
  7 18  1  0
  7 19  1  0
  8 20  1  0
  9 21  1  0
M  END
