
     RDKit          3D

 21 21  0  0  0  0  0  0  0  0999 V2000
    0.3647    1.8950   -0.3486 C   0  0  0  0  0  0  0  0  0  0  0  0
    0.0396    0.7788    0.6417 C   0  0  0  0  0  0  0  0  0  0  0  0
   -1.3993    0.8391    0.9888 C   0  0  0  0  0  0  0  0  0  0  0  0
   -2.2173   -0.0967    0.4220 O   0  0  0  0  0  0  0  0  0  0  0  0
   -1.7460   -0.7177   -0.7043 C   0  0  0  0  0  0  0  0  0  0  0  0
   -0.3905   -1.2960   -0.5397 C   0  0  0  0  0  0  0  0  0  0  0  0
    0.4780   -0.5490    0.1245 C   0  0  0  0  0  0  0  0  0  0  0  0
    1.8467   -1.0591    0.3276 C   0  0  0  0  0  0  0  0  0  0  0  0
    1.9606   -2.3131   -0.2613 O   0  0  0  0  0  0  0  0  0  0  0  0
    1.4418    2.0380   -0.4643 H   0  0  0  0  0  0  0  0  0  0  0  0
   -0.0437    2.8264    0.1044 H   0  0  0  0  0  0  0  0  0  0  0  0
   -0.1807    1.7582   -1.3072 H   0  0  0  0  0  0  0  0  0  0  0  0
    0.6819    0.9821    1.5254 H   0  0  0  0  0  0  0  0  0  0  0  0
   -1.8289    1.8420    0.7459 H   0  0  0  0  0  0  0  0  0  0  0  0
   -1.5113    0.7415    2.0926 H   0  0  0  0  0  0  0  0  0  0  0  0
   -1.7749   -0.0779   -1.6167 H   0  0  0  0  0  0  0  0  0  0  0  0
   -2.4317   -1.5794   -0.9173 H   0  0  0  0  0  0  0  0  0  0  0  0
   -0.1197   -2.2878   -0.9449 H   0  0  0  0  0  0  0  0  0  0  0  0
    2.6113   -0.3528   -0.0774 H   0  0  0  0  0  0  0  0  0  0  0  0
    2.0185   -1.2019    1.4345 H   0  0  0  0  0  0  0  0  0  0  0  0
    2.2008   -2.1697   -1.2259 H   0  0  0  0  0  0  0  0  0  0  0  0
  1  2  1  0
  2  3  1  0
  3  4  1  0
  4  5  1  0
  5  6  1  0
  6  7  2  0
  7  8  1  0
  8  9  1  0
  7  2  1  0
  1 10  1  0
  1 11  1  0
  1 12  1  0
  2 13  1  0
  3 14  1  0
  3 15  1  0
  5 16  1  0
  5 17  1  0
  6 18  1  0
  8 19  1  0
  8 20  1  0
  9 21  1  0
M  END
