
     RDKit          3D

 21 22  0  0  0  0  0  0  0  0999 V2000
   -2.6178    0.5979    0.0427 C   0  0  0  0  0  0  0  0  0  0  0  0
   -1.5274   -0.2367    0.6162 C   0  0  0  0  0  0  0  0  0  0  0  0
   -0.2423    0.5507    0.8568 C   0  0  0  0  0  0  0  0  0  0  0  0
    0.7309   -0.1818    0.0219 C   0  0  0  0  0  0  0  0  0  0  0  0
   -0.1951   -0.6677   -1.0937 C   0  0  0  0  0  0  0  0  0  0  0  0
   -1.2006   -1.2423   -0.2872 O   0  0  0  0  0  0  0  0  0  0  0  0
    1.7279   -1.1253    0.5549 C   0  0  0  0  0  0  0  0  0  0  0  0
    2.1127    0.1453   -0.2045 C   0  0  0  0  0  0  0  0  0  0  0  0
    2.7857    1.1307    0.4836 O   0  0  0  0  0  0  0  0  0  0  0  0
   -3.4494    0.7016    0.7912 H   0  0  0  0  0  0  0  0  0  0  0  0
   -3.0981    0.0756   -0.8344 H   0  0  0  0  0  0  0  0  0  0  0  0
   -2.3226    1.5890   -0.3073 H   0  0  0  0  0  0  0  0  0  0  0  0
   -1.8076   -0.6794    1.6097 H   0  0  0  0  0  0  0  0  0  0  0  0
    0.0033    0.6542    1.9105 H   0  0  0  0  0  0  0  0  0  0  0  0
   -0.3793    1.5731    0.4238 H   0  0  0  0  0  0  0  0  0  0  0  0
    0.2896   -1.3912   -1.7364 H   0  0  0  0  0  0  0  0  0  0  0  0
   -0.5869    0.2289   -1.5843 H   0  0  0  0  0  0  0  0  0  0  0  0
    1.7969   -2.0931    0.0526 H   0  0  0  0  0  0  0  0  0  0  0  0
    2.0229   -1.1424    1.6254 H   0  0  0  0  0  0  0  0  0  0  0  0
    2.5322   -0.0915   -1.2267 H   0  0  0  0  0  0  0  0  0  0  0  0
    3.4252    1.6047   -0.1009 H   0  0  0  0  0  0  0  0  0  0  0  0
  1  2  1  0
  2  3  1  0
  3  4  1  0
  4  5  1  0
  5  6  1  0
  4  7  1  0
  7  8  1  0
  8  9  1  0
  6  2  1  0
  8  4  1  0
  1 10  1  0
  1 11  1  0
  1 12  1  0
  2 13  1  0
  3 14  1  0
  3 15  1  0
  5 16  1  0
  5 17  1  0
  7 18  1  0
  7 19  1  0
  8 20  1  0
  9 21  1  0
M  END
