
     RDKit          3D

 19 19  0  0  0  0  0  0  0  0999 V2000
   -2.5366    0.6147   -0.3084 C   0  0  0  0  0  0  0  0  0  0  0  0
   -1.4200   -0.3623   -0.0385 C   0  0  0  0  0  0  0  0  0  0  0  0
   -0.7965   -0.1752    1.3283 C   0  0  0  0  0  0  0  0  0  0  0  0
   -0.0130    0.0948    0.0721 C   0  0  0  0  0  0  0  0  0  0  0  0
    1.0957   -0.8875   -0.2155 C   0  0  0  0  0  0  0  0  0  0  0  0
    2.4347   -0.1723   -0.0320 C   0  0  0  0  0  0  0  0  0  0  0  0
    2.4353    0.8853   -0.9430 O   0  0  0  0  0  0  0  0  0  0  0  0
   -2.2907    1.6331    0.1059 H   0  0  0  0  0  0  0  0  0  0  0  0
   -3.4259    0.2643    0.2654 H   0  0  0  0  0  0  0  0  0  0  0  0
   -2.8298    0.6777   -1.3591 H   0  0  0  0  0  0  0  0  0  0  0  0
   -1.6200   -1.3783   -0.4171 H   0  0  0  0  0  0  0  0  0  0  0  0
   -1.0993    0.6631    1.9638 H   0  0  0  0  0  0  0  0  0  0  0  0
   -0.6577   -1.1321    1.8713 H   0  0  0  0  0  0  0  0  0  0  0  0
    0.2436    1.1700   -0.1376 H   0  0  0  0  0  0  0  0  0  0  0  0
    1.0432   -1.7470    0.4722 H   0  0  0  0  0  0  0  0  0  0  0  0
    1.0475   -1.2967   -1.2485 H   0  0  0  0  0  0  0  0  0  0  0  0
    2.4499    0.2458    0.9824 H   0  0  0  0  0  0  0  0  0  0  0  0
    3.2838   -0.8177   -0.2682 H   0  0  0  0  0  0  0  0  0  0  0  0
    2.6556    1.7203   -0.4955 H   0  0  0  0  0  0  0  0  0  0  0  0
  1  2  1  0
  2  3  1  0
  3  4  1  0
  4  5  1  0
  5  6  1  0
  6  7  1  0
  4  2  1  0
  1  8  1  0
  1  9  1  0
  1 10  1  0
  2 11  1  0
  3 12  1  0
  3 13  1  0
  4 14  1  0
  5 15  1  0
  5 16  1  0
  6 17  1  0
  6 18  1  0
  7 19  1  0
M  END
