
     RDKit          3D

 17 18  0  0  0  0  0  0  0  0999 V2000
   -2.2846   -0.0349    0.2119 C   0  0  0  0  0  0  0  0  0  0  0  0
   -0.8686    0.3095    0.7047 C   0  0  0  0  0  0  0  0  0  0  0  0
    0.1252   -0.6862    0.7749 C   0  0  0  0  0  0  0  0  0  0  0  0
    1.4956   -0.7214    0.7126 O   0  0  0  0  0  0  0  0  0  0  0  0
    1.6262   -1.0030   -0.6749 C   0  0  0  0  0  0  0  0  0  0  0  0
    0.5218   -0.3973   -1.3045 O   0  0  0  0  0  0  0  0  0  0  0  0
    0.0959    0.4480   -0.3353 C   0  0  0  0  0  0  0  0  0  0  0  0
    1.0564    1.5771   -0.1454 C   0  0  0  0  0  0  0  0  0  0  0  0
    2.0811    1.7063   -0.7901 O   0  0  0  0  0  0  0  0  0  0  0  0
   -3.0113   -0.0428    1.0258 H   0  0  0  0  0  0  0  0  0  0  0  0
   -2.1830   -0.9926   -0.3304 H   0  0  0  0  0  0  0  0  0  0  0  0
   -2.5134    0.7737   -0.5412 H   0  0  0  0  0  0  0  0  0  0  0  0
   -0.9308    1.0610    1.5077 H   0  0  0  0  0  0  0  0  0  0  0  0
   -0.2370   -1.7067    0.4354 H   0  0  0  0  0  0  0  0  0  0  0  0
    1.6019   -2.1059   -0.7750 H   0  0  0  0  0  0  0  0  0  0  0  0
    2.5307   -0.5591   -1.0769 H   0  0  0  0  0  0  0  0  0  0  0  0
    0.8940    2.3742    0.6008 H   0  0  0  0  0  0  0  0  0  0  0  0
  1  2  1  0
  2  3  1  0
  3  4  1  0
  4  5  1  0
  5  6  1  0
  6  7  1  0
  7  8  1  0
  8  9  2  0
  7  2  1  0
  7  3  1  0
  1 10  1  0
  1 11  1  0
  1 12  1  0
  2 13  1  0
  3 14  1  0
  5 15  1  0
  5 16  1  0
  8 17  1  0
M  END
