
     RDKit          3D

 21 23  0  0  0  0  0  0  0  0999 V2000
    2.3248   -0.2295   -0.8083 C   0  0  0  0  0  0  0  0  0  0  0  0
    1.4725   -0.2096    0.4326 C   0  0  0  0  0  0  0  0  0  0  0  0
    1.1972    1.0119    1.1876 C   0  0  0  0  0  0  0  0  0  0  0  0
    0.1191    0.5165    0.3415 C   0  0  0  0  0  0  0  0  0  0  0  0
   -0.1656    1.0269   -0.9078 O   0  0  0  0  0  0  0  0  0  0  0  0
   -0.9763    0.1419   -1.5723 C   0  0  0  0  0  0  0  0  0  0  0  0
   -1.6264   -0.7549   -0.5399 C   0  0  0  0  0  0  0  0  0  0  0  0
   -2.4273   -0.0231    0.4725 C   0  0  0  0  0  0  0  0  0  0  0  0
   -1.0314   -0.2851    0.8065 C   0  0  0  0  0  0  0  0  0  0  0  0
    3.2269   -0.8110   -0.5868 H   0  0  0  0  0  0  0  0  0  0  0  0
    2.5937    0.8114   -1.1249 H   0  0  0  0  0  0  0  0  0  0  0  0
    1.7515   -0.7636   -1.6141 H   0  0  0  0  0  0  0  0  0  0  0  0
    1.5051   -1.1544    1.0112 H   0  0  0  0  0  0  0  0  0  0  0  0
    1.0823    0.9310    2.3035 H   0  0  0  0  0  0  0  0  0  0  0  0
    1.7527    1.9232    0.9024 H   0  0  0  0  0  0  0  0  0  0  0  0
   -0.4941   -0.4125   -2.3859 H   0  0  0  0  0  0  0  0  0  0  0  0
   -1.8215    0.7515   -2.0117 H   0  0  0  0  0  0  0  0  0  0  0  0
   -1.6854   -1.8287   -0.6957 H   0  0  0  0  0  0  0  0  0  0  0  0
   -3.1941   -0.5865    1.0252 H   0  0  0  0  0  0  0  0  0  0  0  0
   -2.7902    1.0145    0.2100 H   0  0  0  0  0  0  0  0  0  0  0  0
   -0.8137   -1.0700    1.5574 H   0  0  0  0  0  0  0  0  0  0  0  0
  1  2  1  0
  2  3  1  0
  3  4  1  0
  4  5  1  0
  5  6  1  0
  6  7  1  0
  7  8  1  0
  8  9  1  0
  4  2  1  0
  9  7  1  0
  9  4  1  0
  1 10  1  0
  1 11  1  0
  1 12  1  0
  2 13  1  0
  3 14  1  0
  3 15  1  0
  6 16  1  0
  6 17  1  0
  7 18  1  0
  8 19  1  0
  8 20  1  0
  9 21  1  0
M  END
