
     RDKit          3D

 23 24  0  0  0  0  0  0  0  0999 V2000
    1.9430    1.2532   -0.1694 C   0  0  0  0  0  0  0  0  0  0  0  0
    1.1285    0.3396    0.6934 C   0  0  0  0  0  0  0  0  0  0  0  0
    1.2730   -1.0919    0.2655 C   0  0  0  0  0  0  0  0  0  0  0  0
    0.0341   -1.4194   -0.5329 C   0  0  0  0  0  0  0  0  0  0  0  0
   -1.0257   -0.4623   -0.0821 C   0  0  0  0  0  0  0  0  0  0  0  0
   -2.3365   -1.0128    0.4626 C   0  0  0  0  0  0  0  0  0  0  0  0
   -1.0562    0.9239   -0.5955 C   0  0  0  0  0  0  0  0  0  0  0  0
   -0.3274    1.3162   -1.7033 O   0  0  0  0  0  0  0  0  0  0  0  0
   -0.3398    0.6436    0.6752 C   0  0  0  0  0  0  0  0  0  0  0  0
    1.9484    0.9916   -1.2268 H   0  0  0  0  0  0  0  0  0  0  0  0
    3.0092    1.1652    0.1830 H   0  0  0  0  0  0  0  0  0  0  0  0
    1.6656    2.3110    0.0310 H   0  0  0  0  0  0  0  0  0  0  0  0
    1.5107    0.4644    1.7452 H   0  0  0  0  0  0  0  0  0  0  0  0
    2.1647   -1.1998   -0.3716 H   0  0  0  0  0  0  0  0  0  0  0  0
    1.4016   -1.7422    1.1493 H   0  0  0  0  0  0  0  0  0  0  0  0
    0.2660   -1.3106   -1.6176 H   0  0  0  0  0  0  0  0  0  0  0  0
   -0.2568   -2.4644   -0.2694 H   0  0  0  0  0  0  0  0  0  0  0  0
   -3.1804   -0.4590   -0.0137 H   0  0  0  0  0  0  0  0  0  0  0  0
   -2.3702   -0.8139    1.5601 H   0  0  0  0  0  0  0  0  0  0  0  0
   -2.4564   -2.0874    0.2602 H   0  0  0  0  0  0  0  0  0  0  0  0
   -2.0135    1.4898   -0.4742 H   0  0  0  0  0  0  0  0  0  0  0  0
   -0.1561    2.2989   -1.6262 H   0  0  0  0  0  0  0  0  0  0  0  0
   -0.8259    0.8663    1.6571 H   0  0  0  0  0  0  0  0  0  0  0  0
  1  2  1  0
  2  3  1  0
  3  4  1  0
  4  5  1  0
  5  6  1  0
  5  7  1  0
  7  8  1  0
  7  9  1  0
  9  2  1  0
  9  5  1  0
  1 10  1  0
  1 11  1  0
  1 12  1  0
  2 13  1  0
  3 14  1  0
  3 15  1  0
  4 16  1  0
  4 17  1  0
  6 18  1  0
  6 19  1  0
  6 20  1  0
  7 21  1  0
  8 22  1  0
  9 23  1  0
M  END
