
     RDKit          3D

 23 23  0  0  0  0  0  0  0  0999 V2000
   -2.4242    0.8589    0.6700 C   0  0  0  0  0  0  0  0  0  0  0  0
   -1.2034    0.7163   -0.1659 C   0  0  0  0  0  0  0  0  0  0  0  0
   -1.2422   -0.4209   -1.1276 C   0  0  0  0  0  0  0  0  0  0  0  0
    0.1800   -0.9725   -1.2248 C   0  0  0  0  0  0  0  0  0  0  0  0
    0.9930    0.0556   -0.5025 C   0  0  0  0  0  0  0  0  0  0  0  0
    2.2954   -0.4584    0.0235 C   0  0  0  0  0  0  0  0  0  0  0  0
    2.9394    0.6053    0.6685 O   0  0  0  0  0  0  0  0  0  0  0  0
    0.0440    0.4155    0.6525 C   0  0  0  0  0  0  0  0  0  0  0  0
   -0.1296   -0.7274    1.4133 O   0  0  0  0  0  0  0  0  0  0  0  0
   -2.4613    1.9158    1.0400 H   0  0  0  0  0  0  0  0  0  0  0  0
   -2.4664    0.1206    1.4932 H   0  0  0  0  0  0  0  0  0  0  0  0
   -3.3123    0.7608   -0.0131 H   0  0  0  0  0  0  0  0  0  0  0  0
   -1.0032    1.6893   -0.6837 H   0  0  0  0  0  0  0  0  0  0  0  0
   -1.9517   -1.1804   -0.7580 H   0  0  0  0  0  0  0  0  0  0  0  0
   -1.5170   -0.0341   -2.1355 H   0  0  0  0  0  0  0  0  0  0  0  0
    0.1753   -1.9248   -0.6714 H   0  0  0  0  0  0  0  0  0  0  0  0
    0.4613   -1.1316   -2.2629 H   0  0  0  0  0  0  0  0  0  0  0  0
    1.1362    0.9538   -1.1072 H   0  0  0  0  0  0  0  0  0  0  0  0
    2.8781   -0.8432   -0.8353 H   0  0  0  0  0  0  0  0  0  0  0  0
    2.1419   -1.2453    0.7920 H   0  0  0  0  0  0  0  0  0  0  0  0
    3.6628    0.2925    1.2658 H   0  0  0  0  0  0  0  0  0  0  0  0
    0.3991    1.2705    1.2260 H   0  0  0  0  0  0  0  0  0  0  0  0
    0.4047   -0.7161    2.2429 H   0  0  0  0  0  0  0  0  0  0  0  0
  1  2  1  0
  2  3  1  0
  3  4  1  0
  4  5  1  0
  5  6  1  0
  6  7  1  0
  5  8  1  0
  8  9  1  0
  8  2  1  0
  1 10  1  0
  1 11  1  0
  1 12  1  0
  2 13  1  0
  3 14  1  0
  3 15  1  0
  4 16  1  0
  4 17  1  0
  5 18  1  0
  6 19  1  0
  6 20  1  0
  7 21  1  0
  8 22  1  0
  9 23  1  0
M  END
