
     RDKit          3D

 21 21  0  0  0  0  0  0  0  0999 V2000
    2.7807   -0.4588    0.1138 C   0  0  0  0  0  0  0  0  0  0  0  0
    1.3020   -0.3420    0.0439 C   0  0  0  0  0  0  0  0  0  0  0  0
    0.7969    0.9707    0.5020 C   0  0  0  0  0  0  0  0  0  0  0  0
   -0.4476    1.2712    0.8212 C   0  0  0  0  0  0  0  0  0  0  0  0
   -1.6471    0.3740    0.8013 C   0  0  0  0  0  0  0  0  0  0  0  0
   -1.4399   -0.6568   -0.3156 C   0  0  0  0  0  0  0  0  0  0  0  0
   -2.7033   -0.8449   -0.8961 O   0  0  0  0  0  0  0  0  0  0  0  0
   -0.5076   -0.1202   -1.3464 C   0  0  0  0  0  0  0  0  0  0  0  0
    0.7906   -0.5694   -1.2269 O   0  0  0  0  0  0  0  0  0  0  0  0
    3.0661   -0.5248    1.2036 H   0  0  0  0  0  0  0  0  0  0  0  0
    3.0701   -1.4471   -0.3095 H   0  0  0  0  0  0  0  0  0  0  0  0
    3.3276    0.3761   -0.3435 H   0  0  0  0  0  0  0  0  0  0  0  0
    0.8693   -1.1464    0.7038 H   0  0  0  0  0  0  0  0  0  0  0  0
    1.5150    1.7645    0.5847 H   0  0  0  0  0  0  0  0  0  0  0  0
   -0.5803    2.3017    1.1307 H   0  0  0  0  0  0  0  0  0  0  0  0
   -1.6090   -0.1960    1.7616 H   0  0  0  0  0  0  0  0  0  0  0  0
   -2.5622    0.9471    0.6644 H   0  0  0  0  0  0  0  0  0  0  0  0
   -1.1219   -1.6367    0.0966 H   0  0  0  0  0  0  0  0  0  0  0  0
   -3.4297   -0.5775   -0.2684 H   0  0  0  0  0  0  0  0  0  0  0  0
   -0.8746   -0.4736   -2.3502 H   0  0  0  0  0  0  0  0  0  0  0  0
   -0.5950    0.9888   -1.3710 H   0  0  0  0  0  0  0  0  0  0  0  0
  1  2  1  0
  2  3  1  0
  3  4  2  0
  4  5  1  0
  5  6  1  0
  6  7  1  0
  6  8  1  0
  8  9  1  0
  9  2  1  0
  1 10  1  0
  1 11  1  0
  1 12  1  0
  2 13  1  0
  3 14  1  0
  4 15  1  0
  5 16  1  0
  5 17  1  0
  6 18  1  0
  7 19  1  0
  8 20  1  0
  8 21  1  0
M  END
