
     RDKit          3D

 19 20  0  0  0  0  0  0  0  0999 V2000
    1.7342   -1.0598   -0.2909 C   0  0  0  0  0  0  0  0  0  0  0  0
    1.2022    0.2517    0.2048 C   0  0  0  0  0  0  0  0  0  0  0  0
    0.1169    0.2791    1.2208 C   0  0  0  0  0  0  0  0  0  0  0  0
   -0.5724   -0.8761    1.4535 O   0  0  0  0  0  0  0  0  0  0  0  0
   -1.3221   -1.2047    0.3666 C   0  0  0  0  0  0  0  0  0  0  0  0
   -1.2224   -0.1364   -0.6591 C   0  0  0  0  0  0  0  0  0  0  0  0
   -0.1334    0.7529   -0.1573 C   0  0  0  0  0  0  0  0  0  0  0  0
   -0.2794    2.1860   -0.4807 C   0  0  0  0  0  0  0  0  0  0  0  0
   -0.2320    3.0315    0.3782 O   0  0  0  0  0  0  0  0  0  0  0  0
    1.0840   -1.5863   -0.9894 H   0  0  0  0  0  0  0  0  0  0  0  0
    1.9784   -1.7067    0.5851 H   0  0  0  0  0  0  0  0  0  0  0  0
    2.7127   -0.9059   -0.8147 H   0  0  0  0  0  0  0  0  0  0  0  0
    1.9855    1.0288    0.3469 H   0  0  0  0  0  0  0  0  0  0  0  0
    0.0819    1.0349    2.0168 H   0  0  0  0  0  0  0  0  0  0  0  0
   -2.3816   -1.3404    0.7045 H   0  0  0  0  0  0  0  0  0  0  0  0
   -1.0406   -2.2080   -0.0624 H   0  0  0  0  0  0  0  0  0  0  0  0
   -2.1742    0.4617   -0.6343 H   0  0  0  0  0  0  0  0  0  0  0  0
   -1.1072   -0.4815   -1.6888 H   0  0  0  0  0  0  0  0  0  0  0  0
   -0.4305    2.4796   -1.4997 H   0  0  0  0  0  0  0  0  0  0  0  0
  1  2  1  0
  2  3  1  0
  3  4  1  0
  4  5  1  0
  5  6  1  0
  6  7  1  0
  7  8  1  0
  8  9  2  0
  7  2  1  0
  7  3  1  0
  1 10  1  0
  1 11  1  0
  1 12  1  0
  2 13  1  0
  3 14  1  0
  5 15  1  0
  5 16  1  0
  6 17  1  0
  6 18  1  0
  8 19  1  0
M  END
