
     RDKit          3D

 21 21  0  0  0  0  0  0  0  0999 V2000
   -2.5024   -0.1192   -0.1160 C   0  0  0  0  0  0  0  0  0  0  0  0
   -1.0148   -0.3200    0.1079 C   0  0  0  0  0  0  0  0  0  0  0  0
   -0.3330    0.9617   -0.3931 C   0  0  0  0  0  0  0  0  0  0  0  0
    0.8183    1.2099    0.5756 C   0  0  0  0  0  0  0  0  0  0  0  0
    1.2072    2.5360    0.4543 O   0  0  0  0  0  0  0  0  0  0  0  0
    1.8988    0.2756    0.2158 C   0  0  0  0  0  0  0  0  0  0  0  0
    1.7663   -1.0172   -0.0612 C   0  0  0  0  0  0  0  0  0  0  0  0
    0.6219   -1.9411   -0.1167 C   0  0  0  0  0  0  0  0  0  0  0  0
   -0.5318   -1.3736   -0.6322 O   0  0  0  0  0  0  0  0  0  0  0  0
   -3.0899   -0.3952    0.7740 H   0  0  0  0  0  0  0  0  0  0  0  0
   -2.7526    0.9457   -0.3343 H   0  0  0  0  0  0  0  0  0  0  0  0
   -2.8352   -0.7271   -0.9854 H   0  0  0  0  0  0  0  0  0  0  0  0
   -0.8351   -0.4414    1.2084 H   0  0  0  0  0  0  0  0  0  0  0  0
    0.0473    0.7839   -1.4112 H   0  0  0  0  0  0  0  0  0  0  0  0
   -1.0220    1.8250   -0.3213 H   0  0  0  0  0  0  0  0  0  0  0  0
    0.4856    0.9693    1.6003 H   0  0  0  0  0  0  0  0  0  0  0  0
    1.1208    2.8166   -0.4873 H   0  0  0  0  0  0  0  0  0  0  0  0
    2.8953    0.7204    0.1822 H   0  0  0  0  0  0  0  0  0  0  0  0
    2.7422   -1.4726   -0.2975 H   0  0  0  0  0  0  0  0  0  0  0  0
    0.8858   -2.7802   -0.8266 H   0  0  0  0  0  0  0  0  0  0  0  0
    0.4271   -2.4566    0.8644 H   0  0  0  0  0  0  0  0  0  0  0  0
  1  2  1  0
  2  3  1  0
  3  4  1  0
  4  5  1  0
  4  6  1  0
  6  7  2  0
  7  8  1  0
  8  9  1  0
  9  2  1  0
  1 10  1  0
  1 11  1  0
  1 12  1  0
  2 13  1  0
  3 14  1  0
  3 15  1  0
  4 16  1  0
  5 17  1  0
  6 18  1  0
  7 19  1  0
  8 20  1  0
  8 21  1  0
M  END
