
     RDKit          3D

 21 22  0  0  0  0  0  0  0  0999 V2000
   -2.3958    0.4227    0.5671 C   0  0  0  0  0  0  0  0  0  0  0  0
   -1.2351    0.1025   -0.2927 C   0  0  0  0  0  0  0  0  0  0  0  0
   -0.9858   -1.4053   -0.5135 C   0  0  0  0  0  0  0  0  0  0  0  0
    0.4096   -0.9722   -0.7429 C   0  0  0  0  0  0  0  0  0  0  0  0
    1.6480   -0.7730   -1.1248 C   0  0  0  0  0  0  0  0  0  0  0  0
    2.3035    0.3450   -0.3534 C   0  0  0  0  0  0  0  0  0  0  0  0
    1.0966    1.1264    0.1067 C   0  0  0  0  0  0  0  0  0  0  0  0
    0.1149    0.0236    0.3663 C   0  0  0  0  0  0  0  0  0  0  0  0
    0.1277   -0.5188    1.6280 O   0  0  0  0  0  0  0  0  0  0  0  0
   -2.7295    1.4659    0.3385 H   0  0  0  0  0  0  0  0  0  0  0  0
   -2.0807    0.4325    1.6234 H   0  0  0  0  0  0  0  0  0  0  0  0
   -3.2637   -0.2250    0.3738 H   0  0  0  0  0  0  0  0  0  0  0  0
   -1.1864    0.5927   -1.2767 H   0  0  0  0  0  0  0  0  0  0  0  0
   -1.0783   -1.9144    0.4643 H   0  0  0  0  0  0  0  0  0  0  0  0
   -1.5257   -1.8271   -1.3591 H   0  0  0  0  0  0  0  0  0  0  0  0
    2.1906   -1.3119   -1.8942 H   0  0  0  0  0  0  0  0  0  0  0  0
    2.9161   -0.0211    0.4629 H   0  0  0  0  0  0  0  0  0  0  0  0
    2.9239    0.9823   -1.0093 H   0  0  0  0  0  0  0  0  0  0  0  0
    1.2816    1.6220    1.0850 H   0  0  0  0  0  0  0  0  0  0  0  0
    0.7166    1.8279   -0.6339 H   0  0  0  0  0  0  0  0  0  0  0  0
    0.7519    0.0254    2.1846 H   0  0  0  0  0  0  0  0  0  0  0  0
  1  2  1  0
  2  3  1  0
  3  4  1  0
  4  5  2  0
  5  6  1  0
  6  7  1  0
  7  8  1  0
  8  9  1  0
  8  2  1  0
  8  4  1  0
  1 10  1  0
  1 11  1  0
  1 12  1  0
  2 13  1  0
  3 14  1  0
  3 15  1  0
  5 16  1  0
  6 17  1  0
  6 18  1  0
  7 19  1  0
  7 20  1  0
  9 21  1  0
M  END
