
     RDKit          3D

 25 26  0  0  0  0  0  0  0  0999 V2000
    2.0699    0.3368   -0.3587 C   0  0  0  0  0  0  0  0  0  0  0  0
    0.8401    0.5606    0.4430 C   0  0  0  0  0  0  0  0  0  0  0  0
    0.0665    1.8103   -0.0232 C   0  0  0  0  0  0  0  0  0  0  0  0
   -0.8918    1.1241   -0.9195 C   0  0  0  0  0  0  0  0  0  0  0  0
   -2.2069    0.6655   -0.8134 C   0  0  0  0  0  0  0  0  0  0  0  0
   -1.4224    0.1758    0.2349 C   0  0  0  0  0  0  0  0  0  0  0  0
   -0.1603   -0.5959    0.3286 C   0  0  0  0  0  0  0  0  0  0  0  0
    0.1137   -1.5298   -0.7717 C   0  0  0  0  0  0  0  0  0  0  0  0
   -0.0374   -1.3494    1.6514 C   0  0  0  0  0  0  0  0  0  0  0  0
    2.5353   -0.5969   -0.0372 H   0  0  0  0  0  0  0  0  0  0  0  0
    1.8980    0.3066   -1.4542 H   0  0  0  0  0  0  0  0  0  0  0  0
    2.7825    1.1535   -0.1096 H   0  0  0  0  0  0  0  0  0  0  0  0
    1.1216    0.7668    1.4895 H   0  0  0  0  0  0  0  0  0  0  0  0
    0.7372    2.5108   -0.5249 H   0  0  0  0  0  0  0  0  0  0  0  0
   -0.4698    2.2560    0.8410 H   0  0  0  0  0  0  0  0  0  0  0  0
   -0.2681    0.6029   -1.7158 H   0  0  0  0  0  0  0  0  0  0  0  0
   -2.6134   -0.0713   -1.5671 H   0  0  0  0  0  0  0  0  0  0  0  0
   -3.0236    1.4164   -0.6034 H   0  0  0  0  0  0  0  0  0  0  0  0
   -1.5871    0.6868    1.2368 H   0  0  0  0  0  0  0  0  0  0  0  0
   -0.5744   -1.4115   -1.6603 H   0  0  0  0  0  0  0  0  0  0  0  0
    1.1340   -1.5614   -1.1603 H   0  0  0  0  0  0  0  0  0  0  0  0
   -0.1104   -2.5836   -0.4242 H   0  0  0  0  0  0  0  0  0  0  0  0
    1.0042   -1.2493    2.0594 H   0  0  0  0  0  0  0  0  0  0  0  0
   -0.7733   -0.9758    2.3834 H   0  0  0  0  0  0  0  0  0  0  0  0
   -0.1642   -2.4480    1.4754 H   0  0  0  0  0  0  0  0  0  0  0  0
  1  2  1  0
  2  3  1  0
  3  4  1  0
  4  5  1  0
  5  6  1  0
  6  7  1  0
  7  8  1  0
  7  9  1  0
  7  2  1  0
  6  4  1  0
  1 10  1  0
  1 11  1  0
  1 12  1  0
  2 13  1  0
  3 14  1  0
  3 15  1  0
  4 16  1  0
  5 17  1  0
  5 18  1  0
  6 19  1  0
  8 20  1  0
  8 21  1  0
  8 22  1  0
  9 23  1  0
  9 24  1  0
  9 25  1  0
M  END
