
     RDKit          3D

 19 20  0  0  0  0  0  0  0  0999 V2000
   -2.2747    0.4843   -0.1405 C   0  0  0  0  0  0  0  0  0  0  0  0
   -1.0726   -0.3502    0.0556 C   0  0  0  0  0  0  0  0  0  0  0  0
    0.0940    0.0729   -0.8632 C   0  0  0  0  0  0  0  0  0  0  0  0
    1.1294    0.2591    0.2270 C   0  0  0  0  0  0  0  0  0  0  0  0
    2.4724    0.5837   -0.1324 C   0  0  0  0  0  0  0  0  0  0  0  0
    3.0445   -0.0744   -0.9925 O   0  0  0  0  0  0  0  0  0  0  0  0
    0.9031   -0.9721    1.1156 C   0  0  0  0  0  0  0  0  0  0  0  0
   -0.3554   -0.1362    1.3601 C   0  0  0  0  0  0  0  0  0  0  0  0
    0.4648    0.9773    1.1851 O   0  0  0  0  0  0  0  0  0  0  0  0
   -2.8542    0.7155    0.7699 H   0  0  0  0  0  0  0  0  0  0  0  0
   -2.9895   -0.0777   -0.8091 H   0  0  0  0  0  0  0  0  0  0  0  0
   -2.0309    1.4104   -0.7294 H   0  0  0  0  0  0  0  0  0  0  0  0
   -1.2220   -1.4283   -0.0877 H   0  0  0  0  0  0  0  0  0  0  0  0
    0.3424   -0.7115   -1.5738 H   0  0  0  0  0  0  0  0  0  0  0  0
   -0.1793    1.0199   -1.3533 H   0  0  0  0  0  0  0  0  0  0  0  0
    3.0895    1.3964    0.2914 H   0  0  0  0  0  0  0  0  0  0  0  0
    0.7357   -1.9021    0.5690 H   0  0  0  0  0  0  0  0  0  0  0  0
    1.5710   -0.9960    1.9827 H   0  0  0  0  0  0  0  0  0  0  0  0
   -0.8681   -0.2711    2.2811 H   0  0  0  0  0  0  0  0  0  0  0  0
  1  2  1  0
  2  3  1  0
  3  4  1  0
  4  5  1  0
  5  6  2  0
  4  7  1  0
  7  8  1  0
  8  9  1  0
  8  2  1  0
  9  4  1  0
  1 10  1  0
  1 11  1  0
  1 12  1  0
  2 13  1  0
  3 14  1  0
  3 15  1  0
  5 16  1  0
  7 17  1  0
  7 18  1  0
  8 19  1  0
M  END
