
     RDKit          3D

 19 19  0  0  0  0  0  0  0  0999 V2000
   -1.8600   -0.3793    0.2153 C   0  0  0  0  0  0  0  0  0  0  0  0
   -0.3643   -0.3665    0.4401 C   0  0  0  0  0  0  0  0  0  0  0  0
    0.2719   -1.4010   -0.4967 C   0  0  0  0  0  0  0  0  0  0  0  0
    1.6295   -1.2056   -0.5639 O   0  0  0  0  0  0  0  0  0  0  0  0
    2.1246   -0.3521    0.4109 C   0  0  0  0  0  0  0  0  0  0  0  0
    1.5949    0.9284    0.3308 O   0  0  0  0  0  0  0  0  0  0  0  0
    0.2575    0.9533    0.0311 C   0  0  0  0  0  0  0  0  0  0  0  0
   -0.4510    2.1180    0.6184 C   0  0  0  0  0  0  0  0  0  0  0  0
   -1.6313    2.2764    0.4423 O   0  0  0  0  0  0  0  0  0  0  0  0
   -2.2136   -1.4211    0.2255 H   0  0  0  0  0  0  0  0  0  0  0  0
   -2.3851    0.1439    1.0416 H   0  0  0  0  0  0  0  0  0  0  0  0
   -2.1525    0.0752   -0.7464 H   0  0  0  0  0  0  0  0  0  0  0  0
   -0.1693   -0.5856    1.4905 H   0  0  0  0  0  0  0  0  0  0  0  0
   -0.0336   -2.4194   -0.2448 H   0  0  0  0  0  0  0  0  0  0  0  0
   -0.1441   -1.1557   -1.5122 H   0  0  0  0  0  0  0  0  0  0  0  0
    2.0466   -0.7865    1.4375 H   0  0  0  0  0  0  0  0  0  0  0  0
    3.2203   -0.2499    0.2213 H   0  0  0  0  0  0  0  0  0  0  0  0
    0.1654    0.9952   -1.0893 H   0  0  0  0  0  0  0  0  0  0  0  0
    0.0942    2.8325    1.2100 H   0  0  0  0  0  0  0  0  0  0  0  0
  1  2  1  0
  2  3  1  0
  3  4  1  0
  4  5  1  0
  5  6  1  0
  6  7  1  0
  7  8  1  0
  8  9  2  0
  7  2  1  0
  1 10  1  0
  1 11  1  0
  1 12  1  0
  2 13  1  0
  3 14  1  0
  3 15  1  0
  5 16  1  0
  5 17  1  0
  7 18  1  0
  8 19  1  0
M  END
