
     RDKit          3D

 23 24  0  0  0  0  0  0  0  0999 V2000
    2.7380   -0.5411    0.3813 C   0  0  0  0  0  0  0  0  0  0  0  0
    1.4364   -0.0536   -0.2597 C   0  0  0  0  0  0  0  0  0  0  0  0
    0.3230   -0.9672    0.2720 C   0  0  0  0  0  0  0  0  0  0  0  0
   -0.9563   -0.2161    0.1451 C   0  0  0  0  0  0  0  0  0  0  0  0
   -2.2163   -0.9942    0.0624 C   0  0  0  0  0  0  0  0  0  0  0  0
   -0.8616    0.8278   -0.9773 C   0  0  0  0  0  0  0  0  0  0  0  0
   -0.0836    1.6676    0.0451 C   0  0  0  0  0  0  0  0  0  0  0  0
   -0.9306    0.9443    1.1034 C   0  0  0  0  0  0  0  0  0  0  0  0
    1.2266    1.2446    0.1229 O   0  0  0  0  0  0  0  0  0  0  0  0
    2.8017   -1.6357    0.3770 H   0  0  0  0  0  0  0  0  0  0  0  0
    2.7819   -0.1122    1.3819 H   0  0  0  0  0  0  0  0  0  0  0  0
    3.6012   -0.1389   -0.2099 H   0  0  0  0  0  0  0  0  0  0  0  0
    1.5761   -0.1963   -1.3517 H   0  0  0  0  0  0  0  0  0  0  0  0
    0.5271   -1.0860    1.3763 H   0  0  0  0  0  0  0  0  0  0  0  0
    0.2955   -1.9288   -0.2458 H   0  0  0  0  0  0  0  0  0  0  0  0
   -3.0390   -0.2804   -0.2166 H   0  0  0  0  0  0  0  0  0  0  0  0
   -2.4449   -1.5621    0.9699 H   0  0  0  0  0  0  0  0  0  0  0  0
   -2.1348   -1.7013   -0.7878 H   0  0  0  0  0  0  0  0  0  0  0  0
   -1.8489    1.2587   -1.2030 H   0  0  0  0  0  0  0  0  0  0  0  0
   -0.2848    0.4867   -1.8324 H   0  0  0  0  0  0  0  0  0  0  0  0
   -0.2394    2.7391   -0.0196 H   0  0  0  0  0  0  0  0  0  0  0  0
   -1.8847    1.4989    1.2180 H   0  0  0  0  0  0  0  0  0  0  0  0
   -0.3826    0.7461    2.0339 H   0  0  0  0  0  0  0  0  0  0  0  0
  1  2  1  0
  2  3  1  0
  3  4  1  0
  4  5  1  0
  4  6  1  0
  6  7  1  0
  7  8  1  0
  7  9  1  0
  9  2  1  0
  8  4  1  0
  1 10  1  0
  1 11  1  0
  1 12  1  0
  2 13  1  0
  3 14  1  0
  3 15  1  0
  5 16  1  0
  5 17  1  0
  5 18  1  0
  6 19  1  0
  6 20  1  0
  7 21  1  0
  8 22  1  0
  8 23  1  0
M  END
