
     RDKit          3D

 19 20  0  0  0  0  0  0  0  0999 V2000
   -1.6231    0.2117    1.0785 C   0  0  0  0  0  0  0  0  0  0  0  0
   -0.8947    0.3548   -0.2128 C   0  0  0  0  0  0  0  0  0  0  0  0
   -1.3609   -0.6049   -1.3017 C   0  0  0  0  0  0  0  0  0  0  0  0
   -0.1310   -1.2728   -1.2889 O   0  0  0  0  0  0  0  0  0  0  0  0
    0.3654   -0.3936   -0.3889 C   0  0  0  0  0  0  0  0  0  0  0  0
    1.5334    0.4557   -0.7866 C   0  0  0  0  0  0  0  0  0  0  0  0
    1.9649    0.3431    0.6788 C   0  0  0  0  0  0  0  0  0  0  0  0
    1.0969   -0.8604    0.7679 C   0  0  0  0  0  0  0  0  0  0  0  0
    1.0530   -1.8156    1.5164 O   0  0  0  0  0  0  0  0  0  0  0  0
   -1.8004   -0.8425    1.3759 H   0  0  0  0  0  0  0  0  0  0  0  0
   -2.6527    0.6522    0.9347 H   0  0  0  0  0  0  0  0  0  0  0  0
   -1.0902    0.8003    1.8500 H   0  0  0  0  0  0  0  0  0  0  0  0
   -0.8613    1.4090   -0.5322 H   0  0  0  0  0  0  0  0  0  0  0  0
   -1.5185   -0.0683   -2.2499 H   0  0  0  0  0  0  0  0  0  0  0  0
   -2.2029   -1.2619   -0.9840 H   0  0  0  0  0  0  0  0  0  0  0  0
    2.2528    0.0125   -1.4855 H   0  0  0  0  0  0  0  0  0  0  0  0
    1.2598    1.5058   -1.0217 H   0  0  0  0  0  0  0  0  0  0  0  0
    3.0392    0.1783    0.7681 H   0  0  0  0  0  0  0  0  0  0  0  0
    1.5704    1.1965    1.2820 H   0  0  0  0  0  0  0  0  0  0  0  0
  1  2  1  0
  2  3  1  0
  3  4  1  0
  4  5  1  0
  5  6  1  0
  6  7  1  0
  7  8  1  0
  8  9  2  0
  5  2  1  0
  8  5  1  0
  1 10  1  0
  1 11  1  0
  1 12  1  0
  2 13  1  0
  3 14  1  0
  3 15  1  0
  6 16  1  0
  6 17  1  0
  7 18  1  0
  7 19  1  0
M  END
