
     RDKit          3D

 25 26  0  0  0  0  0  0  0  0999 V2000
    2.2286   -0.5264    0.8803 C   0  0  0  0  0  0  0  0  0  0  0  0
    1.2357   -0.3070   -0.2699 C   0  0  0  0  0  0  0  0  0  0  0  0
    0.8783    1.1085   -0.4392 C   0  0  0  0  0  0  0  0  0  0  0  0
   -0.2856    1.6162    0.3469 C   0  0  0  0  0  0  0  0  0  0  0  0
   -1.6105    1.1167   -0.1397 C   0  0  0  0  0  0  0  0  0  0  0  0
   -1.7567   -0.3546   -0.1705 C   0  0  0  0  0  0  0  0  0  0  0  0
   -0.8883   -1.0170    0.8696 C   0  0  0  0  0  0  0  0  0  0  0  0
    0.1187   -1.2792   -0.1836 C   0  0  0  0  0  0  0  0  0  0  0  0
   -0.8920   -0.9875   -1.2580 C   0  0  0  0  0  0  0  0  0  0  0  0
    2.3058   -1.6135    1.0256 H   0  0  0  0  0  0  0  0  0  0  0  0
    3.2181   -0.1559    0.5326 H   0  0  0  0  0  0  0  0  0  0  0  0
    1.9498    0.0436    1.7664 H   0  0  0  0  0  0  0  0  0  0  0  0
    1.8197   -0.6027   -1.1951 H   0  0  0  0  0  0  0  0  0  0  0  0
    1.7715    1.7294   -0.1308 H   0  0  0  0  0  0  0  0  0  0  0  0
    0.7083    1.3849   -1.5060 H   0  0  0  0  0  0  0  0  0  0  0  0
   -0.3095    2.7339    0.1582 H   0  0  0  0  0  0  0  0  0  0  0  0
   -0.1497    1.5395    1.4430 H   0  0  0  0  0  0  0  0  0  0  0  0
   -2.3916    1.5359    0.5340 H   0  0  0  0  0  0  0  0  0  0  0  0
   -1.7933    1.5990   -1.1386 H   0  0  0  0  0  0  0  0  0  0  0  0
   -2.7913   -0.6922   -0.2175 H   0  0  0  0  0  0  0  0  0  0  0  0
   -0.6121   -0.4252    1.7384 H   0  0  0  0  0  0  0  0  0  0  0  0
   -1.4122   -1.9517    1.2215 H   0  0  0  0  0  0  0  0  0  0  0  0
    0.4939   -2.3160   -0.1355 H   0  0  0  0  0  0  0  0  0  0  0  0
   -0.5250   -0.2822   -2.0241 H   0  0  0  0  0  0  0  0  0  0  0  0
   -1.3106   -1.8965   -1.7084 H   0  0  0  0  0  0  0  0  0  0  0  0
  1  2  1  0
  2  3  1  0
  3  4  1  0
  4  5  1  0
  5  6  1  0
  6  7  1  0
  7  8  1  0
  8  9  1  0
  8  2  1  0
  9  6  1  0
  1 10  1  0
  1 11  1  0
  1 12  1  0
  2 13  1  0
  3 14  1  0
  3 15  1  0
  4 16  1  0
  4 17  1  0
  5 18  1  0
  5 19  1  0
  6 20  1  0
  7 21  1  0
  7 22  1  0
  8 23  1  0
  9 24  1  0
  9 25  1  0
M  END
