
     RDKit          3D

 21 23  0  0  0  0  0  0  0  0999 V2000
    0.4416    1.9649   -0.4329 C   0  0  0  0  0  0  0  0  0  0  0  0
    0.5382    0.6762    0.3424 C   0  0  0  0  0  0  0  0  0  0  0  0
    1.3754   -0.3989   -0.2414 C   0  0  0  0  0  0  0  0  0  0  0  0
    2.6206   -0.5804    0.3361 O   0  0  0  0  0  0  0  0  0  0  0  0
    0.8997   -1.4469   -1.1394 C   0  0  0  0  0  0  0  0  0  0  0  0
    0.2481   -1.3867    0.2029 C   0  0  0  0  0  0  0  0  0  0  0  0
   -0.6397   -0.2053    0.3530 C   0  0  0  0  0  0  0  0  0  0  0  0
   -1.8390   -0.0946    1.1057 C   0  0  0  0  0  0  0  0  0  0  0  0
   -1.8548    0.0034   -0.4334 C   0  0  0  0  0  0  0  0  0  0  0  0
    1.3031    2.6171   -0.1069 H   0  0  0  0  0  0  0  0  0  0  0  0
   -0.4650    2.4911   -0.0865 H   0  0  0  0  0  0  0  0  0  0  0  0
    0.5291    1.8512   -1.5102 H   0  0  0  0  0  0  0  0  0  0  0  0
    0.8566    0.9244    1.3983 H   0  0  0  0  0  0  0  0  0  0  0  0
    2.5500   -0.7676    1.2860 H   0  0  0  0  0  0  0  0  0  0  0  0
    0.1880   -1.2469   -1.9870 H   0  0  0  0  0  0  0  0  0  0  0  0
    1.5377   -2.3079   -1.3166 H   0  0  0  0  0  0  0  0  0  0  0  0
    0.5411   -2.0281    1.0307 H   0  0  0  0  0  0  0  0  0  0  0  0
   -2.3790   -0.9987    1.4825 H   0  0  0  0  0  0  0  0  0  0  0  0
   -2.1579    0.8253    1.6085 H   0  0  0  0  0  0  0  0  0  0  0  0
   -2.2404   -0.8604   -0.9987 H   0  0  0  0  0  0  0  0  0  0  0  0
   -2.0536    0.9689   -0.8930 H   0  0  0  0  0  0  0  0  0  0  0  0
  1  2  1  0
  2  3  1  0
  3  4  1  0
  3  5  1  0
  5  6  1  0
  6  7  1  0
  7  8  1  0
  8  9  1  0
  7  2  1  0
  6  3  1  0
  9  7  1  0
  1 10  1  0
  1 11  1  0
  1 12  1  0
  2 13  1  0
  4 14  1  0
  5 15  1  0
  5 16  1  0
  6 17  1  0
  8 18  1  0
  8 19  1  0
  9 20  1  0
  9 21  1  0
M  END
