
     RDKit          3D

 20 21  0  0  0  0  0  0  0  0999 V2000
    1.4448   -1.1565   -0.7705 C   0  0  0  0  0  0  0  0  0  0  0  0
    0.6313    0.1025   -0.7722 C   0  0  0  0  0  0  0  0  0  0  0  0
    1.1095    1.1258    0.2202 C   0  0  0  0  0  0  0  0  0  0  0  0
    0.6057    0.1887    1.2802 C   0  0  0  0  0  0  0  0  0  0  0  0
   -0.4815    0.1786    0.2353 C   0  0  0  0  0  0  0  0  0  0  0  0
   -1.6392   -0.5505    0.2531 C   0  0  0  0  0  0  0  0  0  0  0  0
   -2.4175   -0.3624   -0.8881 O   0  0  0  0  0  0  0  0  0  0  0  0
   -0.3118    1.6532    0.1839 C   0  0  0  0  0  0  0  0  0  0  0  0
    1.7982   -1.3783   -1.8142 H   0  0  0  0  0  0  0  0  0  0  0  0
    0.8276   -1.9890   -0.3716 H   0  0  0  0  0  0  0  0  0  0  0  0
    2.3955   -1.0555   -0.1761 H   0  0  0  0  0  0  0  0  0  0  0  0
    0.3581    0.4597   -1.7659 H   0  0  0  0  0  0  0  0  0  0  0  0
    1.9487    1.6605    0.2073 H   0  0  0  0  0  0  0  0  0  0  0  0
    1.1510   -0.7470    1.4208 H   0  0  0  0  0  0  0  0  0  0  0  0
    0.3103    0.7370    2.1749 H   0  0  0  0  0  0  0  0  0  0  0  0
   -2.2913   -0.3287    1.1203 H   0  0  0  0  0  0  0  0  0  0  0  0
   -1.4561   -1.6570    0.3069 H   0  0  0  0  0  0  0  0  0  0  0  0
   -2.8251   -1.2004   -1.2209 H   0  0  0  0  0  0  0  0  0  0  0  0
   -0.5964    2.1725   -0.7490 H   0  0  0  0  0  0  0  0  0  0  0  0
   -0.5617    2.1470    1.1255 H   0  0  0  0  0  0  0  0  0  0  0  0
  1  2  1  0
  2  3  1  0
  3  4  1  0
  4  5  1  0
  5  6  1  0
  6  7  1  0
  5  8  1  0
  5  2  1  0
  8  3  1  0
  1  9  1  0
  1 10  1  0
  1 11  1  0
  2 12  1  0
  3 13  1  0
  4 14  1  0
  4 15  1  0
  6 16  1  0
  6 17  1  0
  7 18  1  0
  8 19  1  0
  8 20  1  0
M  END
