
     RDKit          3D

 19 20  0  0  0  0  0  0  0  0999 V2000
   -1.7294    0.7708    0.4947 C   0  0  0  0  0  0  0  0  0  0  0  0
   -0.5935   -0.1672    0.6973 C   0  0  0  0  0  0  0  0  0  0  0  0
    0.7356    0.5063    0.9009 C   0  0  0  0  0  0  0  0  0  0  0  0
    1.1808    0.8696   -0.5196 C   0  0  0  0  0  0  0  0  0  0  0  0
    1.2127   -0.6662   -0.6498 C   0  0  0  0  0  0  0  0  0  0  0  0
    1.6667   -0.6325    0.7537 C   0  0  0  0  0  0  0  0  0  0  0  0
    2.4161   -1.2167    1.4671 O   0  0  0  0  0  0  0  0  0  0  0  0
   -0.2590   -0.9585   -0.5825 C   0  0  0  0  0  0  0  0  0  0  0  0
   -0.9370   -0.3420   -1.6291 O   0  0  0  0  0  0  0  0  0  0  0  0
   -2.3005    0.6061   -0.4456 H   0  0  0  0  0  0  0  0  0  0  0  0
   -2.4742    0.5740    1.3212 H   0  0  0  0  0  0  0  0  0  0  0  0
   -1.3999    1.8397    0.5870 H   0  0  0  0  0  0  0  0  0  0  0  0
   -0.7490   -0.9065    1.5137 H   0  0  0  0  0  0  0  0  0  0  0  0
    0.8706    1.2208    1.6661 H   0  0  0  0  0  0  0  0  0  0  0  0
    2.2169    1.2275   -0.5774 H   0  0  0  0  0  0  0  0  0  0  0  0
    0.4279    1.3574   -1.1335 H   0  0  0  0  0  0  0  0  0  0  0  0
    1.8165   -1.0779   -1.4103 H   0  0  0  0  0  0  0  0  0  0  0  0
   -0.5120   -2.0098   -0.4519 H   0  0  0  0  0  0  0  0  0  0  0  0
   -1.5893   -0.9947   -2.0019 H   0  0  0  0  0  0  0  0  0  0  0  0
  1  2  1  0
  2  3  1  0
  3  4  1  0
  4  5  1  0
  5  6  1  0
  6  7  2  0
  5  8  1  0
  8  9  1  0
  8  2  1  0
  6  3  1  0
  1 10  1  0
  1 11  1  0
  1 12  1  0
  2 13  1  0
  3 14  1  0
  4 15  1  0
  4 16  1  0
  5 17  1  0
  8 18  1  0
  9 19  1  0
M  END
