
     RDKit          3D

 25 26  0  0  0  0  0  0  0  0999 V2000
    1.8277    1.7100   -0.3647 C   0  0  0  0  0  0  0  0  0  0  0  0
    0.7361    0.8085    0.1025 C   0  0  0  0  0  0  0  0  0  0  0  0
   -0.5769    1.0950   -0.6442 C   0  0  0  0  0  0  0  0  0  0  0  0
   -1.4319   -0.0435   -0.1790 C   0  0  0  0  0  0  0  0  0  0  0  0
   -2.4657    0.2804    0.8703 C   0  0  0  0  0  0  0  0  0  0  0  0
   -1.4811   -1.3283   -0.9107 C   0  0  0  0  0  0  0  0  0  0  0  0
   -0.4530   -1.2026    0.1276 C   0  0  0  0  0  0  0  0  0  0  0  0
    0.9207   -0.6304   -0.2409 C   0  0  0  0  0  0  0  0  0  0  0  0
    1.9345   -1.3375    0.6119 C   0  0  0  0  0  0  0  0  0  0  0  0
    1.8296    2.6441    0.2702 H   0  0  0  0  0  0  0  0  0  0  0  0
    2.8398    1.2368   -0.3141 H   0  0  0  0  0  0  0  0  0  0  0  0
    1.6586    2.0793   -1.4046 H   0  0  0  0  0  0  0  0  0  0  0  0
    0.5048    0.9064    1.1824 H   0  0  0  0  0  0  0  0  0  0  0  0
   -0.9485    2.0824   -0.3371 H   0  0  0  0  0  0  0  0  0  0  0  0
   -0.3561    1.0471   -1.7456 H   0  0  0  0  0  0  0  0  0  0  0  0
   -2.3668    1.3351    1.1800 H   0  0  0  0  0  0  0  0  0  0  0  0
   -3.4673    0.1603    0.4325 H   0  0  0  0  0  0  0  0  0  0  0  0
   -2.3511   -0.3406    1.7843 H   0  0  0  0  0  0  0  0  0  0  0  0
   -1.1082   -1.3808   -1.9645 H   0  0  0  0  0  0  0  0  0  0  0  0
   -2.3239   -2.0013   -0.6988 H   0  0  0  0  0  0  0  0  0  0  0  0
   -0.5768   -1.6112    1.1569 H   0  0  0  0  0  0  0  0  0  0  0  0
    1.1429   -0.7589   -1.3096 H   0  0  0  0  0  0  0  0  0  0  0  0
    1.6330   -1.3340    1.6698 H   0  0  0  0  0  0  0  0  0  0  0  0
    1.9137   -2.4178    0.2965 H   0  0  0  0  0  0  0  0  0  0  0  0
    2.9658   -0.9988    0.4289 H   0  0  0  0  0  0  0  0  0  0  0  0
  1  2  1  0
  2  3  1  0
  3  4  1  0
  4  5  1  0
  4  6  1  0
  6  7  1  0
  7  8  1  0
  8  9  1  0
  8  2  1  0
  7  4  1  0
  1 10  1  0
  1 11  1  0
  1 12  1  0
  2 13  1  0
  3 14  1  0
  3 15  1  0
  5 16  1  0
  5 17  1  0
  5 18  1  0
  6 19  1  0
  6 20  1  0
  7 21  1  0
  8 22  1  0
  9 23  1  0
  9 24  1  0
  9 25  1  0
M  END
