
     RDKit          3D

 21 22  0  0  0  0  0  0  0  0999 V2000
    2.4305    0.0897   -0.1864 C   0  0  0  0  0  0  0  0  0  0  0  0
    1.3630   -0.3733    0.7426 C   0  0  0  0  0  0  0  0  0  0  0  0
    0.5053    0.8309    1.0763 C   0  0  0  0  0  0  0  0  0  0  0  0
   -0.5635    0.8283    0.3323 C   0  0  0  0  0  0  0  0  0  0  0  0
   -1.8414    1.4421   -0.0777 C   0  0  0  0  0  0  0  0  0  0  0  0
   -2.6777    0.3303   -0.0468 O   0  0  0  0  0  0  0  0  0  0  0  0
   -1.9658   -0.6805   -0.6672 C   0  0  0  0  0  0  0  0  0  0  0  0
   -0.5199   -0.3811   -0.6073 C   0  0  0  0  0  0  0  0  0  0  0  0
    0.3717   -1.3441    0.0937 C   0  0  0  0  0  0  0  0  0  0  0  0
    2.8210    1.0670    0.2211 H   0  0  0  0  0  0  0  0  0  0  0  0
    1.9282    0.3424   -1.1660 H   0  0  0  0  0  0  0  0  0  0  0  0
    3.2450   -0.6365   -0.3377 H   0  0  0  0  0  0  0  0  0  0  0  0
    1.7752   -0.7908    1.6550 H   0  0  0  0  0  0  0  0  0  0  0  0
    0.7744    1.5479    1.8164 H   0  0  0  0  0  0  0  0  0  0  0  0
   -1.7132    1.8136   -1.1172 H   0  0  0  0  0  0  0  0  0  0  0  0
   -2.1777    2.2396    0.6152 H   0  0  0  0  0  0  0  0  0  0  0  0
   -2.2471   -1.6632   -0.2260 H   0  0  0  0  0  0  0  0  0  0  0  0
   -2.2673   -0.6357   -1.7519 H   0  0  0  0  0  0  0  0  0  0  0  0
   -0.0607   -0.0889   -1.5661 H   0  0  0  0  0  0  0  0  0  0  0  0
    0.9408   -2.0183   -0.5747 H   0  0  0  0  0  0  0  0  0  0  0  0
   -0.1206   -1.9194    0.9011 H   0  0  0  0  0  0  0  0  0  0  0  0
  1  2  1  0
  2  3  1  0
  3  4  2  0
  4  5  1  0
  5  6  1  0
  6  7  1  0
  7  8  1  0
  8  9  1  0
  9  2  1  0
  8  4  1  0
  1 10  1  0
  1 11  1  0
  1 12  1  0
  2 13  1  0
  3 14  1  0
  5 15  1  0
  5 16  1  0
  7 17  1  0
  7 18  1  0
  8 19  1  0
  9 20  1  0
  9 21  1  0
M  END
