
     RDKit          3D

 21 22  0  0  0  0  0  0  0  0999 V2000
    2.4821    0.0398   -0.4871 C   0  0  0  0  0  0  0  0  0  0  0  0
    1.0878   -0.4071   -0.1543 C   0  0  0  0  0  0  0  0  0  0  0  0
    0.6895    0.0475    1.2383 C   0  0  0  0  0  0  0  0  0  0  0  0
   -0.8202    0.1208    1.1531 C   0  0  0  0  0  0  0  0  0  0  0  0
   -1.4372   -1.1150    0.5673 C   0  0  0  0  0  0  0  0  0  0  0  0
   -1.2055    0.0723   -0.2768 C   0  0  0  0  0  0  0  0  0  0  0  0
   -2.4034    0.7811   -0.7827 C   0  0  0  0  0  0  0  0  0  0  0  0
   -2.6686    1.9328   -0.5606 O   0  0  0  0  0  0  0  0  0  0  0  0
    0.0628    0.3286   -1.0031 C   0  0  0  0  0  0  0  0  0  0  0  0
    2.6390    1.0627   -0.0966 H   0  0  0  0  0  0  0  0  0  0  0  0
    2.6717   -0.0245   -1.5713 H   0  0  0  0  0  0  0  0  0  0  0  0
    3.1866   -0.6623    0.0113 H   0  0  0  0  0  0  0  0  0  0  0  0
    0.9759   -1.4831   -0.2943 H   0  0  0  0  0  0  0  0  0  0  0  0
    0.9544   -0.8076    1.9192 H   0  0  0  0  0  0  0  0  0  0  0  0
    1.1614    0.9882    1.5205 H   0  0  0  0  0  0  0  0  0  0  0  0
   -1.3800    0.8026    1.7891 H   0  0  0  0  0  0  0  0  0  0  0  0
   -0.8305   -2.0435    0.4702 H   0  0  0  0  0  0  0  0  0  0  0  0
   -2.4669   -1.3068    0.8882 H   0  0  0  0  0  0  0  0  0  0  0  0
   -3.0897    0.2074   -1.4016 H   0  0  0  0  0  0  0  0  0  0  0  0
    0.0822    0.0426   -2.0529 H   0  0  0  0  0  0  0  0  0  0  0  0
    0.3084    1.4237   -0.8757 H   0  0  0  0  0  0  0  0  0  0  0  0
  1  2  1  0
  2  3  1  0
  3  4  1  0
  4  5  1  0
  5  6  1  0
  6  7  1  0
  7  8  2  0
  6  9  1  0
  9  2  1  0
  6  4  1  0
  1 10  1  0
  1 11  1  0
  1 12  1  0
  2 13  1  0
  3 14  1  0
  3 15  1  0
  4 16  1  0
  5 17  1  0
  5 18  1  0
  7 19  1  0
  9 20  1  0
  9 21  1  0
M  END
