
     RDKit          3D

 21 22  0  0  0  0  0  0  0  0999 V2000
    2.6473   -0.3159   -0.0453 C   0  0  0  0  0  0  0  0  0  0  0  0
    1.1520   -0.5012   -0.2566 C   0  0  0  0  0  0  0  0  0  0  0  0
    0.4297    0.8036   -0.4208 C   0  0  0  0  0  0  0  0  0  0  0  0
   -0.7275    0.7186    0.5239 C   0  0  0  0  0  0  0  0  0  0  0  0
   -0.8216    1.7370    1.4453 O   0  0  0  0  0  0  0  0  0  0  0  0
   -2.0399    0.2689   -0.0931 C   0  0  0  0  0  0  0  0  0  0  0  0
   -1.5972   -1.1771    0.1310 C   0  0  0  0  0  0  0  0  0  0  0  0
   -0.5929   -0.6352    1.1338 C   0  0  0  0  0  0  0  0  0  0  0  0
    0.6564   -1.1254    0.8688 O   0  0  0  0  0  0  0  0  0  0  0  0
    2.9873    0.6994   -0.2745 H   0  0  0  0  0  0  0  0  0  0  0  0
    2.9377   -0.5123    1.0181 H   0  0  0  0  0  0  0  0  0  0  0  0
    3.1414   -1.1091   -0.6394 H   0  0  0  0  0  0  0  0  0  0  0  0
    0.9438   -1.1046   -1.1776 H   0  0  0  0  0  0  0  0  0  0  0  0
    1.0692    1.6489   -0.1050 H   0  0  0  0  0  0  0  0  0  0  0  0
    0.0473    0.9638   -1.4611 H   0  0  0  0  0  0  0  0  0  0  0  0
   -0.8742    2.6212    1.0414 H   0  0  0  0  0  0  0  0  0  0  0  0
   -2.8726    0.5463    0.5712 H   0  0  0  0  0  0  0  0  0  0  0  0
   -2.1117    0.5686   -1.1470 H   0  0  0  0  0  0  0  0  0  0  0  0
   -1.1585   -1.5555   -0.8041 H   0  0  0  0  0  0  0  0  0  0  0  0
   -2.3341   -1.8139    0.6362 H   0  0  0  0  0  0  0  0  0  0  0  0
   -0.8819   -0.7262    2.1871 H   0  0  0  0  0  0  0  0  0  0  0  0
  1  2  1  0
  2  3  1  0
  3  4  1  0
  4  5  1  0
  4  6  1  0
  6  7  1  0
  7  8  1  0
  8  9  1  0
  9  2  1  0
  8  4  1  0
  1 10  1  0
  1 11  1  0
  1 12  1  0
  2 13  1  0
  3 14  1  0
  3 15  1  0
  5 16  1  0
  6 17  1  0
  6 18  1  0
  7 19  1  0
  7 20  1  0
  8 21  1  0
M  END
