
     RDKit          3D

 23 24  0  0  0  0  0  0  0  0999 V2000
   -1.3494   -0.7483    1.4196 C   0  0  0  0  0  0  0  0  0  0  0  0
   -1.0363   -0.8296   -0.0613 C   0  0  0  0  0  0  0  0  0  0  0  0
   -2.1014   -0.1019   -0.8104 C   0  0  0  0  0  0  0  0  0  0  0  0
   -1.5960    1.3249   -0.7318 C   0  0  0  0  0  0  0  0  0  0  0  0
   -0.1190    1.1554   -0.7382 C   0  0  0  0  0  0  0  0  0  0  0  0
    0.2132   -0.0731   -0.3565 C   0  0  0  0  0  0  0  0  0  0  0  0
    1.5694   -0.6717   -0.2197 C   0  0  0  0  0  0  0  0  0  0  0  0
    2.4495   -0.0739    0.8881 C   0  0  0  0  0  0  0  0  0  0  0  0
    2.7710    0.1500   -0.5337 C   0  0  0  0  0  0  0  0  0  0  0  0
   -0.4497   -0.4767    2.0185 H   0  0  0  0  0  0  0  0  0  0  0  0
   -2.1363   -0.0031    1.6481 H   0  0  0  0  0  0  0  0  0  0  0  0
   -1.7029   -1.7460    1.7725 H   0  0  0  0  0  0  0  0  0  0  0  0
   -0.9384   -1.8966   -0.3432 H   0  0  0  0  0  0  0  0  0  0  0  0
   -3.0672   -0.2314   -0.2768 H   0  0  0  0  0  0  0  0  0  0  0  0
   -2.1710   -0.4409   -1.8773 H   0  0  0  0  0  0  0  0  0  0  0  0
   -1.9639    1.8079    0.2051 H   0  0  0  0  0  0  0  0  0  0  0  0
   -1.9697    1.8724   -1.6226 H   0  0  0  0  0  0  0  0  0  0  0  0
    0.5651    1.9457   -1.0209 H   0  0  0  0  0  0  0  0  0  0  0  0
    1.6904   -1.7659   -0.4224 H   0  0  0  0  0  0  0  0  0  0  0  0
    2.0177    0.8067    1.4312 H   0  0  0  0  0  0  0  0  0  0  0  0
    2.9897   -0.8305    1.5078 H   0  0  0  0  0  0  0  0  0  0  0  0
    3.6731   -0.3566   -0.9349 H   0  0  0  0  0  0  0  0  0  0  0  0
    2.6620    1.1831   -0.9412 H   0  0  0  0  0  0  0  0  0  0  0  0
  1  2  1  0
  2  3  1  0
  3  4  1  0
  4  5  1  0
  5  6  2  0
  6  7  1  0
  7  8  1  0
  8  9  1  0
  6  2  1  0
  9  7  1  0
  1 10  1  0
  1 11  1  0
  1 12  1  0
  2 13  1  0
  3 14  1  0
  3 15  1  0
  4 16  1  0
  4 17  1  0
  5 18  1  0
  7 19  1  0
  8 20  1  0
  8 21  1  0
  9 22  1  0
  9 23  1  0
M  END
