
     RDKit          3D

 23 24  0  0  0  0  0  0  0  0999 V2000
    1.8322    1.3607   -0.0395 C   0  0  0  0  0  0  0  0  0  0  0  0
    1.4703   -0.0932   -0.2189 C   0  0  0  0  0  0  0  0  0  0  0  0
    1.5533   -0.7884    1.1475 C   0  0  0  0  0  0  0  0  0  0  0  0
    0.2107   -0.4946    1.3648 O   0  0  0  0  0  0  0  0  0  0  0  0
    0.0309   -0.4396    0.0045 C   0  0  0  0  0  0  0  0  0  0  0  0
   -0.2629   -1.8101   -0.6217 C   0  0  0  0  0  0  0  0  0  0  0  0
   -0.9753    0.5478   -0.5098 C   0  0  0  0  0  0  0  0  0  0  0  0
   -2.4197    0.1266   -0.2455 C   0  0  0  0  0  0  0  0  0  0  0  0
   -1.8106    1.3707    0.3614 C   0  0  0  0  0  0  0  0  0  0  0  0
    2.7254    1.4159    0.6271 H   0  0  0  0  0  0  0  0  0  0  0  0
    0.9958    1.8928    0.4595 H   0  0  0  0  0  0  0  0  0  0  0  0
    2.1376    1.8253   -0.9971 H   0  0  0  0  0  0  0  0  0  0  0  0
    1.9861   -0.6308   -1.0196 H   0  0  0  0  0  0  0  0  0  0  0  0
    2.2081   -0.2838    1.8733 H   0  0  0  0  0  0  0  0  0  0  0  0
    1.8099   -1.8452    1.0579 H   0  0  0  0  0  0  0  0  0  0  0  0
   -1.2622   -2.1133   -0.2857 H   0  0  0  0  0  0  0  0  0  0  0  0
   -0.3665   -1.5933   -1.7239 H   0  0  0  0  0  0  0  0  0  0  0  0
    0.5349   -2.5266   -0.4273 H   0  0  0  0  0  0  0  0  0  0  0  0
   -0.7912    0.8952   -1.5488 H   0  0  0  0  0  0  0  0  0  0  0  0
   -3.1440    0.2201   -1.0788 H   0  0  0  0  0  0  0  0  0  0  0  0
   -2.6108   -0.7352    0.4131 H   0  0  0  0  0  0  0  0  0  0  0  0
   -1.7171    1.3330    1.4674 H   0  0  0  0  0  0  0  0  0  0  0  0
   -2.1350    2.3661   -0.0599 H   0  0  0  0  0  0  0  0  0  0  0  0
  1  2  1  0
  2  3  1  0
  3  4  1  0
  4  5  1  0
  5  6  1  0
  5  7  1  0
  7  8  1  0
  8  9  1  0
  5  2  1  0
  9  7  1  0
  1 10  1  0
  1 11  1  0
  1 12  1  0
  2 13  1  0
  3 14  1  0
  3 15  1  0
  6 16  1  0
  6 17  1  0
  6 18  1  0
  7 19  1  0
  8 20  1  0
  8 21  1  0
  9 22  1  0
  9 23  1  0
M  END
