
     RDKit          3D

 19 19  0  0  0  0  0  0  0  0999 V2000
    1.9791    0.0865    0.7427 C   0  0  0  0  0  0  0  0  0  0  0  0
    0.8764    0.2852   -0.3115 C   0  0  0  0  0  0  0  0  0  0  0  0
    0.1995   -0.9881   -0.6313 C   0  0  0  0  0  0  0  0  0  0  0  0
   -1.2155   -1.1234   -0.2509 C   0  0  0  0  0  0  0  0  0  0  0  0
   -1.9413    0.1412    0.0460 C   0  0  0  0  0  0  0  0  0  0  0  0
   -1.1529    1.0017    0.7846 O   0  0  0  0  0  0  0  0  0  0  0  0
   -0.0061    1.3966    0.1409 C   0  0  0  0  0  0  0  0  0  0  0  0
    2.8565   -0.4028    0.3034 H   0  0  0  0  0  0  0  0  0  0  0  0
    1.5708   -0.4090    1.6352 H   0  0  0  0  0  0  0  0  0  0  0  0
    2.3072    1.1332    0.9951 H   0  0  0  0  0  0  0  0  0  0  0  0
    1.4360    0.6703   -1.2160 H   0  0  0  0  0  0  0  0  0  0  0  0
    0.2905   -1.2000   -1.7375 H   0  0  0  0  0  0  0  0  0  0  0  0
    0.8004   -1.8231   -0.1625 H   0  0  0  0  0  0  0  0  0  0  0  0
   -1.8059   -1.6629   -1.0493 H   0  0  0  0  0  0  0  0  0  0  0  0
   -1.2925   -1.7677    0.6734 H   0  0  0  0  0  0  0  0  0  0  0  0
   -2.4004    0.6237   -0.8502 H   0  0  0  0  0  0  0  0  0  0  0  0
   -2.8240   -0.1134    0.7044 H   0  0  0  0  0  0  0  0  0  0  0  0
    0.5559    2.0384    0.8838 H   0  0  0  0  0  0  0  0  0  0  0  0
   -0.2338    2.1137   -0.7006 H   0  0  0  0  0  0  0  0  0  0  0  0
  1  2  1  0
  2  3  1  0
  3  4  1  0
  4  5  1  0
  5  6  1  0
  6  7  1  0
  7  2  1  0
  1  8  1  0
  1  9  1  0
  1 10  1  0
  2 11  1  0
  3 12  1  0
  3 13  1  0
  4 14  1  0
  4 15  1  0
  5 16  1  0
  5 17  1  0
  7 18  1  0
  7 19  1  0
M  END
