
     RDKit          3D

 23 24  0  0  0  0  0  0  0  0999 V2000
    2.6866    0.2901   -0.1512 C   0  0  0  0  0  0  0  0  0  0  0  0
    1.5146   -0.5325   -0.5792 C   0  0  0  0  0  0  0  0  0  0  0  0
    0.3546    0.1978   -1.1784 C   0  0  0  0  0  0  0  0  0  0  0  0
   -0.4499   -0.0055    0.0800 C   0  0  0  0  0  0  0  0  0  0  0  0
   -0.5138    1.3026    0.8404 C   0  0  0  0  0  0  0  0  0  0  0  0
   -1.7150   -0.7605   -0.0624 C   0  0  0  0  0  0  0  0  0  0  0  0
   -2.8142   -0.3859   -0.8928 C   0  0  0  0  0  0  0  0  0  0  0  0
   -2.8387    0.0877    0.4199 O   0  0  0  0  0  0  0  0  0  0  0  0
    0.6679   -0.9294    0.5868 C   0  0  0  0  0  0  0  0  0  0  0  0
    3.6024   -0.3677   -0.2182 H   0  0  0  0  0  0  0  0  0  0  0  0
    2.6504    0.6028    0.9183 H   0  0  0  0  0  0  0  0  0  0  0  0
    2.8151    1.2272   -0.7342 H   0  0  0  0  0  0  0  0  0  0  0  0
    1.8016   -1.4006   -1.2356 H   0  0  0  0  0  0  0  0  0  0  0  0
    0.6391    1.2463   -1.4051 H   0  0  0  0  0  0  0  0  0  0  0  0
   -0.0779   -0.2538   -2.0979 H   0  0  0  0  0  0  0  0  0  0  0  0
    0.5040    1.6759    0.9467 H   0  0  0  0  0  0  0  0  0  0  0  0
   -1.0457    1.1050    1.7823 H   0  0  0  0  0  0  0  0  0  0  0  0
   -1.0651    2.0238    0.1942 H   0  0  0  0  0  0  0  0  0  0  0  0
   -1.7483   -1.7646    0.4217 H   0  0  0  0  0  0  0  0  0  0  0  0
   -3.6040   -1.1283   -1.1038 H   0  0  0  0  0  0  0  0  0  0  0  0
   -2.7323    0.3774   -1.7101 H   0  0  0  0  0  0  0  0  0  0  0  0
    0.3902   -2.0106    0.5542 H   0  0  0  0  0  0  0  0  0  0  0  0
    0.9783   -0.5973    1.5804 H   0  0  0  0  0  0  0  0  0  0  0  0
  1  2  1  0
  2  3  1  0
  3  4  1  0
  4  5  1  0
  4  6  1  0
  6  7  1  0
  7  8  1  0
  4  9  1  0
  9  2  1  0
  8  6  1  0
  1 10  1  0
  1 11  1  0
  1 12  1  0
  2 13  1  0
  3 14  1  0
  3 15  1  0
  5 16  1  0
  5 17  1  0
  5 18  1  0
  6 19  1  0
  7 20  1  0
  7 21  1  0
  9 22  1  0
  9 23  1  0
M  END
