
     RDKit          3D

 21 22  0  0  0  0  0  0  0  0999 V2000
   -1.8035   -1.4983    0.5079 C   0  0  0  0  0  0  0  0  0  0  0  0
   -1.3166   -0.4724   -0.4929 C   0  0  0  0  0  0  0  0  0  0  0  0
    0.0790   -0.4432   -0.9560 C   0  0  0  0  0  0  0  0  0  0  0  0
    0.9412   -1.3904   -0.4351 O   0  0  0  0  0  0  0  0  0  0  0  0
    2.0536   -0.8644    0.1787 C   0  0  0  0  0  0  0  0  0  0  0  0
    1.6619    0.4582    0.8365 C   0  0  0  0  0  0  0  0  0  0  0  0
    0.2951    0.4285    1.2001 O   0  0  0  0  0  0  0  0  0  0  0  0
   -0.4038    0.5692   -0.0116 C   0  0  0  0  0  0  0  0  0  0  0  0
   -0.7035    1.9800   -0.3914 C   0  0  0  0  0  0  0  0  0  0  0  0
   -2.8201   -1.1365    0.8409 H   0  0  0  0  0  0  0  0  0  0  0  0
   -1.1540   -1.5648    1.4046 H   0  0  0  0  0  0  0  0  0  0  0  0
   -1.9210   -2.4483   -0.0309 H   0  0  0  0  0  0  0  0  0  0  0  0
   -2.0837   -0.1750   -1.2207 H   0  0  0  0  0  0  0  0  0  0  0  0
    0.2822   -0.2164   -2.0322 H   0  0  0  0  0  0  0  0  0  0  0  0
    2.8767   -0.6651   -0.5659 H   0  0  0  0  0  0  0  0  0  0  0  0
    2.4851   -1.5187    0.9378 H   0  0  0  0  0  0  0  0  0  0  0  0
    1.7630    1.2254    0.0157 H   0  0  0  0  0  0  0  0  0  0  0  0
    2.3166    0.6652    1.6779 H   0  0  0  0  0  0  0  0  0  0  0  0
   -0.8768    2.1033   -1.4897 H   0  0  0  0  0  0  0  0  0  0  0  0
   -1.6976    2.2433    0.0759 H   0  0  0  0  0  0  0  0  0  0  0  0
    0.0262    2.7202   -0.0495 H   0  0  0  0  0  0  0  0  0  0  0  0
  1  2  1  0
  2  3  1  0
  3  4  1  0
  4  5  1  0
  5  6  1  0
  6  7  1  0
  7  8  1  0
  8  9  1  0
  8  2  1  0
  8  3  1  0
  1 10  1  0
  1 11  1  0
  1 12  1  0
  2 13  1  0
  3 14  1  0
  5 15  1  0
  5 16  1  0
  6 17  1  0
  6 18  1  0
  9 19  1  0
  9 20  1  0
  9 21  1  0
M  END
