
     RDKit          3D

 19 20  0  0  0  0  0  0  0  0999 V2000
   -2.1445   -0.0529   -0.8802 C   0  0  0  0  0  0  0  0  0  0  0  0
   -1.2721    0.4095    0.2904 C   0  0  0  0  0  0  0  0  0  0  0  0
   -0.6794   -0.7651    1.0892 C   0  0  0  0  0  0  0  0  0  0  0  0
    0.1262    0.1176    0.2549 C   0  0  0  0  0  0  0  0  0  0  0  0
    0.9239   -0.3156   -0.9174 C   0  0  0  0  0  0  0  0  0  0  0  0
    2.1686    0.0175   -0.0806 C   0  0  0  0  0  0  0  0  0  0  0  0
    1.2497    0.9468    0.7291 C   0  0  0  0  0  0  0  0  0  0  0  0
   -3.0768   -0.5269   -0.4853 H   0  0  0  0  0  0  0  0  0  0  0  0
   -2.3345    0.8000   -1.5370 H   0  0  0  0  0  0  0  0  0  0  0  0
   -1.5981   -0.8930   -1.3915 H   0  0  0  0  0  0  0  0  0  0  0  0
   -1.6951    1.2206    0.9110 H   0  0  0  0  0  0  0  0  0  0  0  0
   -0.8607   -1.7852    0.7262 H   0  0  0  0  0  0  0  0  0  0  0  0
   -0.5959   -0.6072    2.2000 H   0  0  0  0  0  0  0  0  0  0  0  0
    0.9041    0.3564   -1.8100 H   0  0  0  0  0  0  0  0  0  0  0  0
    0.7961   -1.3812   -1.1380 H   0  0  0  0  0  0  0  0  0  0  0  0
    2.4407   -0.9144    0.4750 H   0  0  0  0  0  0  0  0  0  0  0  0
    2.9673    0.5182   -0.6216 H   0  0  0  0  0  0  0  0  0  0  0  0
    1.2946    1.9849    0.3643 H   0  0  0  0  0  0  0  0  0  0  0  0
    1.3858    0.8702    1.8216 H   0  0  0  0  0  0  0  0  0  0  0  0
  1  2  1  0
  2  3  1  0
  3  4  1  0
  4  5  1  0
  5  6  1  0
  6  7  1  0
  4  2  1  0
  7  4  1  0
  1  8  1  0
  1  9  1  0
  1 10  1  0
  2 11  1  0
  3 12  1  0
  3 13  1  0
  5 14  1  0
  5 15  1  0
  6 16  1  0
  6 17  1  0
  7 18  1  0
  7 19  1  0
M  END
