
     RDKit          3D

 20 21  0  0  0  0  0  0  0  0999 V2000
    2.0309   -0.7874    0.2403 C   0  0  0  0  0  0  0  0  0  0  0  0
    0.8933    0.0106   -0.3177 C   0  0  0  0  0  0  0  0  0  0  0  0
    0.6712    1.3689    0.2626 C   0  0  0  0  0  0  0  0  0  0  0  0
   -0.8089    1.0267    0.3566 C   0  0  0  0  0  0  0  0  0  0  0  0
   -1.6975    1.5423   -0.5401 O   0  0  0  0  0  0  0  0  0  0  0  0
   -1.1314   -0.0329    1.3258 C   0  0  0  0  0  0  0  0  0  0  0  0
   -0.4514   -0.4695    0.0963 C   0  0  0  0  0  0  0  0  0  0  0  0
   -1.2366   -1.1755   -0.9736 C   0  0  0  0  0  0  0  0  0  0  0  0
    2.0104   -1.7838   -0.2689 H   0  0  0  0  0  0  0  0  0  0  0  0
    3.0100   -0.3477    0.0102 H   0  0  0  0  0  0  0  0  0  0  0  0
    1.9195   -1.0008    1.3183 H   0  0  0  0  0  0  0  0  0  0  0  0
    1.0249    0.1017   -1.4345 H   0  0  0  0  0  0  0  0  0  0  0  0
    0.8314    2.2353   -0.3794 H   0  0  0  0  0  0  0  0  0  0  0  0
    1.1132    1.4384    1.2905 H   0  0  0  0  0  0  0  0  0  0  0  0
   -1.2936    2.3366   -0.9812 H   0  0  0  0  0  0  0  0  0  0  0  0
   -2.1693   -0.3581    1.4564 H   0  0  0  0  0  0  0  0  0  0  0  0
   -0.5829    0.0396    2.3033 H   0  0  0  0  0  0  0  0  0  0  0  0
   -1.9373   -1.9357   -0.5666 H   0  0  0  0  0  0  0  0  0  0  0  0
   -0.4852   -1.7720   -1.5691 H   0  0  0  0  0  0  0  0  0  0  0  0
   -1.7106   -0.4365   -1.6295 H   0  0  0  0  0  0  0  0  0  0  0  0
  1  2  1  0
  2  3  1  0
  3  4  1  0
  4  5  1  0
  4  6  1  0
  6  7  1  0
  7  8  1  0
  7  2  1  0
  7  4  1  0
  1  9  1  0
  1 10  1  0
  1 11  1  0
  2 12  1  0
  3 13  1  0
  3 14  1  0
  5 15  1  0
  6 16  1  0
  6 17  1  0
  8 18  1  0
  8 19  1  0
  8 20  1  0
M  END
