
     RDKit          3D

 19 20  0  0  0  0  0  0  0  0999 V2000
    2.4455    0.2485   -0.0384 C   0  0  0  0  0  0  0  0  0  0  0  0
    1.0206    0.7068    0.2493 C   0  0  0  0  0  0  0  0  0  0  0  0
    0.3781    1.1377   -1.0124 C   0  0  0  0  0  0  0  0  0  0  0  0
    0.5124    2.0935   -1.7245 O   0  0  0  0  0  0  0  0  0  0  0  0
   -0.4586   -0.1101   -0.9672 C   0  0  0  0  0  0  0  0  0  0  0  0
   -1.8790    0.2563   -0.8851 C   0  0  0  0  0  0  0  0  0  0  0  0
   -2.2713    0.2570    0.3666 C   0  0  0  0  0  0  0  0  0  0  0  0
   -1.1558   -0.1111    1.2850 C   0  0  0  0  0  0  0  0  0  0  0  0
    0.0215   -0.3805    0.4245 C   0  0  0  0  0  0  0  0  0  0  0  0
    2.4159   -0.6726   -0.6429 H   0  0  0  0  0  0  0  0  0  0  0  0
    2.8687    1.0402   -0.7250 H   0  0  0  0  0  0  0  0  0  0  0  0
    3.0623    0.1939    0.8599 H   0  0  0  0  0  0  0  0  0  0  0  0
    1.0369    1.5047    1.0054 H   0  0  0  0  0  0  0  0  0  0  0  0
   -0.1646   -0.8927   -1.6602 H   0  0  0  0  0  0  0  0  0  0  0  0
   -2.5284    0.4950   -1.7187 H   0  0  0  0  0  0  0  0  0  0  0  0
   -3.2690    0.4908    0.7130 H   0  0  0  0  0  0  0  0  0  0  0  0
   -1.5005   -1.0183    1.8506 H   0  0  0  0  0  0  0  0  0  0  0  0
   -0.9823    0.7285    2.0022 H   0  0  0  0  0  0  0  0  0  0  0  0
    0.4476   -1.3798    0.6180 H   0  0  0  0  0  0  0  0  0  0  0  0
  1  2  1  0
  2  3  1  0
  3  4  2  0
  3  5  1  0
  5  6  1  0
  6  7  2  0
  7  8  1  0
  8  9  1  0
  9  2  1  0
  9  5  1  0
  1 10  1  0
  1 11  1  0
  1 12  1  0
  2 13  1  0
  5 14  1  0
  6 15  1  0
  7 16  1  0
  8 17  1  0
  8 18  1  0
  9 19  1  0
M  END
