
     RDKit          3D

 23 25  0  0  0  0  0  0  0  0999 V2000
   -1.0266    1.9408    0.4215 C   0  0  0  0  0  0  0  0  0  0  0  0
   -0.7036    0.7221   -0.4488 C   0  0  0  0  0  0  0  0  0  0  0  0
   -1.1237   -0.5262    0.1957 C   0  0  0  0  0  0  0  0  0  0  0  0
   -1.5768   -1.7978   -0.2108 C   0  0  0  0  0  0  0  0  0  0  0  0
   -0.2334   -1.5814   -0.5620 C   0  0  0  0  0  0  0  0  0  0  0  0
    1.0518   -1.4315    0.1101 C   0  0  0  0  0  0  0  0  0  0  0  0
    1.3191   -0.0422    0.4835 C   0  0  0  0  0  0  0  0  0  0  0  0
    1.9204    1.0871   -0.1055 C   0  0  0  0  0  0  0  0  0  0  0  0
    0.7238    0.7294   -0.7536 C   0  0  0  0  0  0  0  0  0  0  0  0
   -0.2844    2.7519    0.2589 H   0  0  0  0  0  0  0  0  0  0  0  0
   -1.0874    1.6522    1.4983 H   0  0  0  0  0  0  0  0  0  0  0  0
   -2.0167    2.3704    0.1659 H   0  0  0  0  0  0  0  0  0  0  0  0
   -1.3329    0.8704   -1.3721 H   0  0  0  0  0  0  0  0  0  0  0  0
   -0.9941   -0.4433    1.2972 H   0  0  0  0  0  0  0  0  0  0  0  0
   -1.7861   -2.6052    0.5460 H   0  0  0  0  0  0  0  0  0  0  0  0
   -2.3909   -1.8419   -0.9726 H   0  0  0  0  0  0  0  0  0  0  0  0
   -0.1096   -1.4179   -1.6759 H   0  0  0  0  0  0  0  0  0  0  0  0
    1.0921   -2.1181    1.0074 H   0  0  0  0  0  0  0  0  0  0  0  0
    1.9177   -1.7996   -0.5194 H   0  0  0  0  0  0  0  0  0  0  0  0
    0.8672    0.1822    1.4829 H   0  0  0  0  0  0  0  0  0  0  0  0
    2.9174    0.9555   -0.5936 H   0  0  0  0  0  0  0  0  0  0  0  0
    1.9411    2.0790    0.4305 H   0  0  0  0  0  0  0  0  0  0  0  0
    0.9159    0.2640   -1.7682 H   0  0  0  0  0  0  0  0  0  0  0  0
  1  2  1  0
  2  3  1  0
  3  4  1  0
  4  5  1  0
  5  6  1  0
  6  7  1  0
  7  8  1  0
  8  9  1  0
  9  2  1  0
  5  3  1  0
  9  7  1  0
  1 10  1  0
  1 11  1  0
  1 12  1  0
  2 13  1  0
  3 14  1  0
  4 15  1  0
  4 16  1  0
  5 17  1  0
  6 18  1  0
  6 19  1  0
  7 20  1  0
  8 21  1  0
  8 22  1  0
  9 23  1  0
M  END
