
     RDKit          3D

 17 17  0  0  0  0  0  0  0  0999 V2000
   -1.2913    1.2061   -0.4979 C   0  0  0  0  0  0  0  0  0  0  0  0
   -0.8961    0.1659    0.4832 C   0  0  0  0  0  0  0  0  0  0  0  0
   -1.1289   -1.2836    0.0304 C   0  0  0  0  0  0  0  0  0  0  0  0
    0.1018   -1.6075    0.7892 C   0  0  0  0  0  0  0  0  0  0  0  0
    0.5053   -2.5884    1.3629 O   0  0  0  0  0  0  0  0  0  0  0  0
    0.5642   -0.2243    0.5153 C   0  0  0  0  0  0  0  0  0  0  0  0
    1.2444   -0.0664   -0.7071 O   0  0  0  0  0  0  0  0  0  0  0  0
    2.4559    0.6033   -0.7304 C   0  0  0  0  0  0  0  0  0  0  0  0
    2.9322    1.0635    0.3525 O   0  0  0  0  0  0  0  0  0  0  0  0
   -1.9985    0.8060   -1.2746 H   0  0  0  0  0  0  0  0  0  0  0  0
   -1.9041    1.9756    0.0568 H   0  0  0  0  0  0  0  0  0  0  0  0
   -0.4475    1.7581   -0.9497 H   0  0  0  0  0  0  0  0  0  0  0  0
   -1.2602    0.2945    1.5238 H   0  0  0  0  0  0  0  0  0  0  0  0
   -2.0613   -1.7293    0.3806 H   0  0  0  0  0  0  0  0  0  0  0  0
   -0.9756   -1.3792   -1.0817 H   0  0  0  0  0  0  0  0  0  0  0  0
    1.1268    0.2407    1.3589 H   0  0  0  0  0  0  0  0  0  0  0  0
    3.0329    0.7651   -1.6122 H   0  0  0  0  0  0  0  0  0  0  0  0
  1  2  1  0
  2  3  1  0
  3  4  1  0
  4  5  2  0
  4  6  1  0
  6  7  1  0
  7  8  1  0
  8  9  2  0
  6  2  1  0
  1 10  1  0
  1 11  1  0
  1 12  1  0
  2 13  1  0
  3 14  1  0
  3 15  1  0
  6 16  1  0
  8 17  1  0
M  END
