
     RDKit          3D

 21 22  0  0  0  0  0  0  0  0999 V2000
   -2.3050    1.0731   -0.1771 C   0  0  0  0  0  0  0  0  0  0  0  0
   -1.0028    0.3304   -0.3346 C   0  0  0  0  0  0  0  0  0  0  0  0
   -1.1116   -1.0936    0.0842 C   0  0  0  0  0  0  0  0  0  0  0  0
    0.3151   -1.6097   -0.0879 C   0  0  0  0  0  0  0  0  0  0  0  0
    0.9939   -0.4996    0.7392 C   0  0  0  0  0  0  0  0  0  0  0  0
    2.0534    0.2023   -0.0651 C   0  0  0  0  0  0  0  0  0  0  0  0
    2.6047    1.1805    0.7624 O   0  0  0  0  0  0  0  0  0  0  0  0
   -0.2228    0.3505    0.9589 C   0  0  0  0  0  0  0  0  0  0  0  0
   -1.1525   -0.6155    1.4123 O   0  0  0  0  0  0  0  0  0  0  0  0
   -2.5163    1.7624   -1.0230 H   0  0  0  0  0  0  0  0  0  0  0  0
   -3.1481    0.3395   -0.0374 H   0  0  0  0  0  0  0  0  0  0  0  0
   -2.2985    1.7153    0.7347 H   0  0  0  0  0  0  0  0  0  0  0  0
   -0.4292    0.5438   -1.2496 H   0  0  0  0  0  0  0  0  0  0  0  0
   -1.9106   -1.7076   -0.2482 H   0  0  0  0  0  0  0  0  0  0  0  0
    0.3862   -2.5812    0.4079 H   0  0  0  0  0  0  0  0  0  0  0  0
    0.6400   -1.5829   -1.1312 H   0  0  0  0  0  0  0  0  0  0  0  0
    1.4306   -0.9308    1.6326 H   0  0  0  0  0  0  0  0  0  0  0  0
    2.8663   -0.5149   -0.2886 H   0  0  0  0  0  0  0  0  0  0  0  0
    1.6467    0.6775   -0.9803 H   0  0  0  0  0  0  0  0  0  0  0  0
    3.3115    1.7014    0.3453 H   0  0  0  0  0  0  0  0  0  0  0  0
   -0.1508    1.2588    1.5098 H   0  0  0  0  0  0  0  0  0  0  0  0
  1  2  1  0
  2  3  1  0
  3  4  1  0
  4  5  1  0
  5  6  1  0
  6  7  1  0
  5  8  1  0
  8  9  1  0
  8  2  1  0
  9  3  1  0
  1 10  1  0
  1 11  1  0
  1 12  1  0
  2 13  1  0
  3 14  1  0
  4 15  1  0
  4 16  1  0
  5 17  1  0
  6 18  1  0
  6 19  1  0
  7 20  1  0
  8 21  1  0
M  END
