
     RDKit          3D

 23 23  0  0  0  0  0  0  0  0999 V2000
    0.4747    1.7639   -0.5738 C   0  0  0  0  0  0  0  0  0  0  0  0
    0.1018    0.3436   -0.8345 C   0  0  0  0  0  0  0  0  0  0  0  0
    1.3674   -0.5270   -0.6843 C   0  0  0  0  0  0  0  0  0  0  0  0
    2.4888    0.1545   -1.1035 O   0  0  0  0  0  0  0  0  0  0  0  0
    1.4493   -0.6897    0.7900 C   0  0  0  0  0  0  0  0  0  0  0  0
    0.2580   -0.5439    1.3228 C   0  0  0  0  0  0  0  0  0  0  0  0
   -0.7234   -0.2746    0.2601 C   0  0  0  0  0  0  0  0  0  0  0  0
   -1.2084   -1.6305   -0.2237 C   0  0  0  0  0  0  0  0  0  0  0  0
   -1.8602    0.5974    0.7085 C   0  0  0  0  0  0  0  0  0  0  0  0
    0.3595    2.0696    0.4920 H   0  0  0  0  0  0  0  0  0  0  0  0
   -0.1345    2.4690   -1.2053 H   0  0  0  0  0  0  0  0  0  0  0  0
    1.5645    1.9440   -0.8036 H   0  0  0  0  0  0  0  0  0  0  0  0
   -0.3936    0.1603   -1.7953 H   0  0  0  0  0  0  0  0  0  0  0  0
    1.2217   -1.4562   -1.2309 H   0  0  0  0  0  0  0  0  0  0  0  0
    2.9871    0.5461   -0.3353 H   0  0  0  0  0  0  0  0  0  0  0  0
    2.3877   -0.8987    1.3017 H   0  0  0  0  0  0  0  0  0  0  0  0
    0.0425   -0.6170    2.4197 H   0  0  0  0  0  0  0  0  0  0  0  0
   -1.6525   -1.5882   -1.2248 H   0  0  0  0  0  0  0  0  0  0  0  0
   -0.3380   -2.3191   -0.2389 H   0  0  0  0  0  0  0  0  0  0  0  0
   -1.8929   -2.0125    0.5618 H   0  0  0  0  0  0  0  0  0  0  0  0
   -1.7647    1.6458    0.3529 H   0  0  0  0  0  0  0  0  0  0  0  0
   -1.9491    0.6604    1.8132 H   0  0  0  0  0  0  0  0  0  0  0  0
   -2.7858    0.2026    0.2311 H   0  0  0  0  0  0  0  0  0  0  0  0
  1  2  1  0
  2  3  1  0
  3  4  1  0
  3  5  1  0
  5  6  2  0
  6  7  1  0
  7  8  1  0
  7  9  1  0
  7  2  1  0
  1 10  1  0
  1 11  1  0
  1 12  1  0
  2 13  1  0
  3 14  1  0
  4 15  1  0
  5 16  1  0
  6 17  1  0
  8 18  1  0
  8 19  1  0
  8 20  1  0
  9 21  1  0
  9 22  1  0
  9 23  1  0
M  END
