
     RDKit          3D

 20 22  0  0  0  0  0  0  0  0999 V2000
    2.7335    0.5990   -0.3838 C   0  0  0  0  0  0  0  0  0  0  0  0
    1.4680    0.1331    0.2502 C   0  0  0  0  0  0  0  0  0  0  0  0
    0.7069   -1.0035   -0.3026 C   0  0  0  0  0  0  0  0  0  0  0  0
   -0.6761   -1.2949    0.1661 C   0  0  0  0  0  0  0  0  0  0  0  0
   -1.0881   -0.6667    1.4462 C   0  0  0  0  0  0  0  0  0  0  0  0
   -1.0612    0.1226    0.2067 C   0  0  0  0  0  0  0  0  0  0  0  0
   -2.3662    0.6345   -0.3051 C   0  0  0  0  0  0  0  0  0  0  0  0
    0.2188    0.4721   -0.4883 C   0  0  0  0  0  0  0  0  0  0  0  0
    2.9881    0.0205   -1.2958 H   0  0  0  0  0  0  0  0  0  0  0  0
    2.5496    1.6497   -0.7542 H   0  0  0  0  0  0  0  0  0  0  0  0
    3.5836    0.6833    0.3192 H   0  0  0  0  0  0  0  0  0  0  0  0
    1.4107    0.3297    1.3501 H   0  0  0  0  0  0  0  0  0  0  0  0
    1.1219   -1.4983   -1.1770 H   0  0  0  0  0  0  0  0  0  0  0  0
   -1.2998   -2.0132   -0.3748 H   0  0  0  0  0  0  0  0  0  0  0  0
   -2.0601   -0.9616    1.8370 H   0  0  0  0  0  0  0  0  0  0  0  0
   -0.3287   -0.4407    2.2074 H   0  0  0  0  0  0  0  0  0  0  0  0
   -2.6190    1.5512    0.3035 H   0  0  0  0  0  0  0  0  0  0  0  0
   -2.3086    0.9707   -1.3635 H   0  0  0  0  0  0  0  0  0  0  0  0
   -3.1840   -0.0766   -0.1128 H   0  0  0  0  0  0  0  0  0  0  0  0
    0.2106    0.7891   -1.5283 H   0  0  0  0  0  0  0  0  0  0  0  0
  1  2  1  0
  2  3  1  0
  3  4  1  0
  4  5  1  0
  5  6  1  0
  6  7  1  0
  6  8  1  0
  8  2  1  0
  8  3  1  0
  6  4  1  0
  1  9  1  0
  1 10  1  0
  1 11  1  0
  2 12  1  0
  3 13  1  0
  4 14  1  0
  5 15  1  0
  5 16  1  0
  7 17  1  0
  7 18  1  0
  7 19  1  0
  8 20  1  0
M  END
