
     RDKit          3D

 21 22  0  0  0  0  0  0  0  0999 V2000
    1.6476    1.3387   -0.5009 C   0  0  0  0  0  0  0  0  0  0  0  0
    1.2616   -0.0930   -0.7386 C   0  0  0  0  0  0  0  0  0  0  0  0
    1.1644   -0.8960    0.5317 C   0  0  0  0  0  0  0  0  0  0  0  0
   -0.3094   -1.0681    0.4053 C   0  0  0  0  0  0  0  0  0  0  0  0
   -0.7444   -2.3865    0.3664 O   0  0  0  0  0  0  0  0  0  0  0  0
   -0.1857   -0.3654   -0.9880 C   0  0  0  0  0  0  0  0  0  0  0  0
   -1.2299   -0.0068    0.0037 C   0  0  0  0  0  0  0  0  0  0  0  0
   -1.2417    1.3540    0.6577 C   0  0  0  0  0  0  0  0  0  0  0  0
   -2.5258   -0.4298   -0.3493 O   0  0  0  0  0  0  0  0  0  0  0  0
    1.9434    1.4553    0.5771 H   0  0  0  0  0  0  0  0  0  0  0  0
    2.5800    1.6209   -1.0686 H   0  0  0  0  0  0  0  0  0  0  0  0
    0.8790    2.0641   -0.8101 H   0  0  0  0  0  0  0  0  0  0  0  0
    1.8936   -0.5310   -1.5401 H   0  0  0  0  0  0  0  0  0  0  0  0
    1.4550   -0.3650    1.4531 H   0  0  0  0  0  0  0  0  0  0  0  0
    1.7493   -1.8306    0.4491 H   0  0  0  0  0  0  0  0  0  0  0  0
   -1.2990   -2.5229    1.1848 H   0  0  0  0  0  0  0  0  0  0  0  0
   -0.4512   -1.0207   -1.8556 H   0  0  0  0  0  0  0  0  0  0  0  0
   -2.1184    1.3971    1.3446 H   0  0  0  0  0  0  0  0  0  0  0  0
   -0.3578    1.5755    1.2501 H   0  0  0  0  0  0  0  0  0  0  0  0
   -1.4446    2.0919   -0.1567 H   0  0  0  0  0  0  0  0  0  0  0  0
   -2.6660   -1.3817   -0.2156 H   0  0  0  0  0  0  0  0  0  0  0  0
  1  2  1  0
  2  3  1  0
  3  4  1  0
  4  5  1  0
  4  6  1  0
  6  7  1  0
  7  8  1  0
  7  9  1  0
  6  2  1  0
  7  4  1  0
  1 10  1  0
  1 11  1  0
  1 12  1  0
  2 13  1  0
  3 14  1  0
  3 15  1  0
  5 16  1  0
  6 17  1  0
  8 18  1  0
  8 19  1  0
  8 20  1  0
  9 21  1  0
M  END
