
     RDKit          3D

 19 19  0  0  0  0  0  0  0  0999 V2000
   -2.3416    0.0741   -0.6056 C   0  0  0  0  0  0  0  0  0  0  0  0
   -1.1519   -0.0688    0.2774 C   0  0  0  0  0  0  0  0  0  0  0  0
   -0.2983    1.1302    0.4469 C   0  0  0  0  0  0  0  0  0  0  0  0
   -0.5012    2.3202    0.5288 O   0  0  0  0  0  0  0  0  0  0  0  0
    0.8763    0.2236    0.4682 C   0  0  0  0  0  0  0  0  0  0  0  0
    2.1160    0.7409   -0.1834 C   0  0  0  0  0  0  0  0  0  0  0  0
    1.0932   -0.3971    1.7066 O   0  0  0  0  0  0  0  0  0  0  0  0
    0.0540   -0.7324   -0.3991 C   0  0  0  0  0  0  0  0  0  0  0  0
    0.2182   -2.0696   -0.0547 O   0  0  0  0  0  0  0  0  0  0  0  0
   -2.1561    0.8158   -1.3832 H   0  0  0  0  0  0  0  0  0  0  0  0
   -2.5247   -0.9269   -1.0892 H   0  0  0  0  0  0  0  0  0  0  0  0
   -3.2190    0.3176    0.0428 H   0  0  0  0  0  0  0  0  0  0  0  0
   -1.3115   -0.5540    1.2579 H   0  0  0  0  0  0  0  0  0  0  0  0
    2.9930    0.3508    0.4083 H   0  0  0  0  0  0  0  0  0  0  0  0
    2.2198    1.8506   -0.1333 H   0  0  0  0  0  0  0  0  0  0  0  0
    2.1903    0.3351   -1.1955 H   0  0  0  0  0  0  0  0  0  0  0  0
    2.0164   -0.2688    2.0182 H   0  0  0  0  0  0  0  0  0  0  0  0
    0.1244   -0.5581   -1.4745 H   0  0  0  0  0  0  0  0  0  0  0  0
   -0.3973   -2.5833   -0.6366 H   0  0  0  0  0  0  0  0  0  0  0  0
  1  2  1  0
  2  3  1  0
  3  4  2  0
  3  5  1  0
  5  6  1  0
  5  7  1  0
  5  8  1  0
  8  9  1  0
  8  2  1  0
  1 10  1  0
  1 11  1  0
  1 12  1  0
  2 13  1  0
  6 14  1  0
  6 15  1  0
  6 16  1  0
  7 17  1  0
  8 18  1  0
  9 19  1  0
M  END
