
     RDKit          3D

 18 18  0  0  0  0  0  0  0  0999 V2000
    1.9572   -0.3223   -0.1713 C   0  0  0  0  0  0  0  0  0  0  0  0
    0.5113    0.0288   -0.2936 C   0  0  0  0  0  0  0  0  0  0  0  0
   -0.2931   -1.2350   -0.0202 C   0  0  0  0  0  0  0  0  0  0  0  0
   -1.6876   -0.6557    0.1558 C   0  0  0  0  0  0  0  0  0  0  0  0
   -1.4570    0.7004    0.7248 C   0  0  0  0  0  0  0  0  0  0  0  0
   -2.3532    1.4362    1.0717 O   0  0  0  0  0  0  0  0  0  0  0  0
    0.0201    0.9509    0.7762 C   0  0  0  0  0  0  0  0  0  0  0  0
    0.3169    2.2813    0.5434 O   0  0  0  0  0  0  0  0  0  0  0  0
    2.3915   -0.0300    0.8107 H   0  0  0  0  0  0  0  0  0  0  0  0
    2.5235    0.1255   -1.0237 H   0  0  0  0  0  0  0  0  0  0  0  0
    2.1120   -1.4179   -0.2549 H   0  0  0  0  0  0  0  0  0  0  0  0
    0.2091    0.3920   -1.2750 H   0  0  0  0  0  0  0  0  0  0  0  0
   -0.2002   -1.8771   -0.8938 H   0  0  0  0  0  0  0  0  0  0  0  0
    0.0933   -1.6604    0.9103 H   0  0  0  0  0  0  0  0  0  0  0  0
   -2.2428   -0.6260   -0.7965 H   0  0  0  0  0  0  0  0  0  0  0  0
   -2.1824   -1.2527    0.9305 H   0  0  0  0  0  0  0  0  0  0  0  0
    0.3732    0.6298    1.7848 H   0  0  0  0  0  0  0  0  0  0  0  0
   -0.0918    2.5323   -0.3278 H   0  0  0  0  0  0  0  0  0  0  0  0
  1  2  1  0
  2  3  1  0
  3  4  1  0
  4  5  1  0
  5  6  2  0
  5  7  1  0
  7  8  1  0
  7  2  1  0
  1  9  1  0
  1 10  1  0
  1 11  1  0
  2 12  1  0
  3 13  1  0
  3 14  1  0
  4 15  1  0
  4 16  1  0
  7 17  1  0
  8 18  1  0
M  END
