
     RDKit          3D

 21 22  0  0  0  0  0  0  0  0999 V2000
   -1.6746    1.2872    0.5868 C   0  0  0  0  0  0  0  0  0  0  0  0
   -0.4108    0.4621    0.6458 C   0  0  0  0  0  0  0  0  0  0  0  0
    0.7492    1.1048   -0.0644 C   0  0  0  0  0  0  0  0  0  0  0  0
    2.0882    0.6485   -0.2596 C   0  0  0  0  0  0  0  0  0  0  0  0
    1.1730   -0.4221   -0.1162 C   0  0  0  0  0  0  0  0  0  0  0  0
    1.2619   -1.0543    1.1536 O   0  0  0  0  0  0  0  0  0  0  0  0
   -0.2717   -0.5217   -0.5391 C   0  0  0  0  0  0  0  0  0  0  0  0
   -0.8819   -1.8851   -0.2319 C   0  0  0  0  0  0  0  0  0  0  0  0
   -0.6271    0.0037   -1.7430 O   0  0  0  0  0  0  0  0  0  0  0  0
   -2.0820    1.2065   -0.4633 H   0  0  0  0  0  0  0  0  0  0  0  0
   -1.3856    2.3484    0.7696 H   0  0  0  0  0  0  0  0  0  0  0  0
   -2.4270    0.9452    1.3098 H   0  0  0  0  0  0  0  0  0  0  0  0
   -0.2474    0.0224    1.6204 H   0  0  0  0  0  0  0  0  0  0  0  0
    0.3222    1.5054   -1.0406 H   0  0  0  0  0  0  0  0  0  0  0  0
    2.6391    0.7039   -1.2482 H   0  0  0  0  0  0  0  0  0  0  0  0
    2.8246    0.9370    0.5512 H   0  0  0  0  0  0  0  0  0  0  0  0
    1.7074   -0.5184    1.8231 H   0  0  0  0  0  0  0  0  0  0  0  0
   -1.6313   -2.1919   -0.9622 H   0  0  0  0  0  0  0  0  0  0  0  0
   -1.2529   -1.9278    0.8269 H   0  0  0  0  0  0  0  0  0  0  0  0
   -0.0305   -2.6121   -0.2586 H   0  0  0  0  0  0  0  0  0  0  0  0
    0.1571   -0.0417   -2.3602 H   0  0  0  0  0  0  0  0  0  0  0  0
  1  2  1  0
  2  3  1  0
  3  4  1  0
  4  5  1  0
  5  6  1  0
  5  7  1  0
  7  8  1  0
  7  9  1  0
  7  2  1  0
  5  3  1  0
  1 10  1  0
  1 11  1  0
  1 12  1  0
  2 13  1  0
  3 14  1  0
  4 15  1  0
  4 16  1  0
  6 17  1  0
  8 18  1  0
  8 19  1  0
  8 20  1  0
  9 21  1  0
M  END
