
     RDKit          3D

 23 24  0  0  0  0  0  0  0  0999 V2000
    1.9799   -0.5367   -1.3147 C   0  0  0  0  0  0  0  0  0  0  0  0
    0.5592   -0.5283   -0.8208 C   0  0  0  0  0  0  0  0  0  0  0  0
    0.4308   -0.6292    0.7087 C   0  0  0  0  0  0  0  0  0  0  0  0
   -0.6417   -1.5236    1.1697 C   0  0  0  0  0  0  0  0  0  0  0  0
   -1.8943   -0.9987    1.2571 O   0  0  0  0  0  0  0  0  0  0  0  0
   -2.2785   -0.2178    0.1941 C   0  0  0  0  0  0  0  0  0  0  0  0
   -1.3581    0.9659    0.1153 C   0  0  0  0  0  0  0  0  0  0  0  0
    0.0823    0.5936    0.0076 C   0  0  0  0  0  0  0  0  0  0  0  0
    1.0332    1.7824    0.0942 C   0  0  0  0  0  0  0  0  0  0  0  0
    2.1871   -1.5854   -1.6639 H   0  0  0  0  0  0  0  0  0  0  0  0
    2.7142   -0.3869   -0.4699 H   0  0  0  0  0  0  0  0  0  0  0  0
    2.1331    0.1621   -2.1403 H   0  0  0  0  0  0  0  0  0  0  0  0
   -0.1294   -1.1302   -1.4396 H   0  0  0  0  0  0  0  0  0  0  0  0
    1.3669   -0.6274    1.3010 H   0  0  0  0  0  0  0  0  0  0  0  0
   -0.6766   -2.4161    0.4772 H   0  0  0  0  0  0  0  0  0  0  0  0
   -0.3870   -1.9595    2.1765 H   0  0  0  0  0  0  0  0  0  0  0  0
   -3.3001    0.1920    0.4459 H   0  0  0  0  0  0  0  0  0  0  0  0
   -2.3975   -0.7498   -0.7546 H   0  0  0  0  0  0  0  0  0  0  0  0
   -1.4721    1.5154    1.0981 H   0  0  0  0  0  0  0  0  0  0  0  0
   -1.6824    1.7174   -0.6486 H   0  0  0  0  0  0  0  0  0  0  0  0
    2.0513    1.5296   -0.2473 H   0  0  0  0  0  0  0  0  0  0  0  0
    0.6661    2.5678   -0.6282 H   0  0  0  0  0  0  0  0  0  0  0  0
    1.0135    2.2635    1.0825 H   0  0  0  0  0  0  0  0  0  0  0  0
  1  2  1  0
  2  3  1  0
  3  4  1  0
  4  5  1  0
  5  6  1  0
  6  7  1  0
  7  8  1  0
  8  9  1  0
  8  2  1  0
  8  3  1  0
  1 10  1  0
  1 11  1  0
  1 12  1  0
  2 13  1  0
  3 14  1  0
  4 15  1  0
  4 16  1  0
  6 17  1  0
  6 18  1  0
  7 19  1  0
  7 20  1  0
  9 21  1  0
  9 22  1  0
  9 23  1  0
M  END
