
     RDKit          3D

 19 21  0  0  0  0  0  0  0  0999 V2000
    2.2023    0.8711    0.2660 C   0  0  0  0  0  0  0  0  0  0  0  0
    1.0985    0.0460   -0.3571 C   0  0  0  0  0  0  0  0  0  0  0  0
    0.8928   -1.2085    0.3664 C   0  0  0  0  0  0  0  0  0  0  0  0
   -0.2541   -1.2001    1.0236 C   0  0  0  0  0  0  0  0  0  0  0  0
   -1.0092    0.0415    0.8596 C   0  0  0  0  0  0  0  0  0  0  0  0
   -2.2731   -0.0081   -0.0112 C   0  0  0  0  0  0  0  0  0  0  0  0
   -1.3281    0.2969   -1.1749 C   0  0  0  0  0  0  0  0  0  0  0  0
   -0.2377    0.7366   -0.2671 C   0  0  0  0  0  0  0  0  0  0  0  0
   -0.4835    1.2811    0.9808 O   0  0  0  0  0  0  0  0  0  0  0  0
    2.0449    1.9500    0.1871 H   0  0  0  0  0  0  0  0  0  0  0  0
    3.1418    0.6218   -0.2839 H   0  0  0  0  0  0  0  0  0  0  0  0
    2.3686    0.5443    1.3279 H   0  0  0  0  0  0  0  0  0  0  0  0
    1.3012   -0.0951   -1.4468 H   0  0  0  0  0  0  0  0  0  0  0  0
    1.6351   -2.0318    0.3355 H   0  0  0  0  0  0  0  0  0  0  0  0
   -0.5982   -2.0292    1.6222 H   0  0  0  0  0  0  0  0  0  0  0  0
   -2.9500    0.8419    0.2285 H   0  0  0  0  0  0  0  0  0  0  0  0
   -2.7247   -1.0019   -0.0256 H   0  0  0  0  0  0  0  0  0  0  0  0
   -1.7152    1.0107   -1.9107 H   0  0  0  0  0  0  0  0  0  0  0  0
   -1.1115   -0.6670   -1.7203 H   0  0  0  0  0  0  0  0  0  0  0  0
  1  2  1  0
  2  3  1  0
  3  4  2  0
  4  5  1  0
  5  6  1  0
  6  7  1  0
  7  8  1  0
  8  9  1  0
  8  2  1  0
  8  5  1  0
  9  5  1  0
  1 10  1  0
  1 11  1  0
  1 12  1  0
  2 13  1  0
  3 14  1  0
  4 15  1  0
  6 16  1  0
  6 17  1  0
  7 18  1  0
  7 19  1  0
M  END
