
     RDKit          3D

 12 12  0  0  0  0  0  0  0  0999 V2000
    1.3361    0.2237   -0.3576 C   0  0  0  0  0  0  0  0  0  0  0  0
    0.1385   -0.0318    0.5080 C   0  0  0  0  0  0  0  0  0  0  0  0
   -0.9104   -0.9396   -0.1301 C   0  0  0  0  0  0  0  0  0  0  0  0
   -1.8479   -0.1524    0.6205 O   0  0  0  0  0  0  0  0  0  0  0  0
   -0.9686    0.9271    0.4038 C   0  0  0  0  0  0  0  0  0  0  0  0
   -1.1970    2.1506    0.2155 O   0  0  0  0  0  0  0  0  0  0  0  0
    1.2118    1.1136   -1.0137 H   0  0  0  0  0  0  0  0  0  0  0  0
    2.2591    0.3523    0.2707 H   0  0  0  0  0  0  0  0  0  0  0  0
    1.5667   -0.6276   -1.0432 H   0  0  0  0  0  0  0  0  0  0  0  0
    0.3241   -0.3031    1.5544 H   0  0  0  0  0  0  0  0  0  0  0  0
   -1.0513   -0.7211   -1.1978 H   0  0  0  0  0  0  0  0  0  0  0  0
   -0.8610   -1.9916    0.1695 H   0  0  0  0  0  0  0  0  0  0  0  0
  1  2  1  0
  2  3  1  0
  3  4  1  0
  4  5  1  0
  5  6  2  0
  5  2  1  0
  1  7  1  0
  1  8  1  0
  1  9  1  0
  2 10  1  0
  3 11  1  0
  3 12  1  0
M  END
