
     RDKit          3D

 23 24  0  0  0  0  0  0  0  0999 V2000
    2.8303   -0.2011   -0.3298 C   0  0  0  0  0  0  0  0  0  0  0  0
    1.4328    0.3973   -0.3744 C   0  0  0  0  0  0  0  0  0  0  0  0
    0.8584    0.3808    1.0095 C   0  0  0  0  0  0  0  0  0  0  0  0
   -0.5251   -0.1628    0.7916 C   0  0  0  0  0  0  0  0  0  0  0  0
   -1.5231    0.8928    0.3944 C   0  0  0  0  0  0  0  0  0  0  0  0
   -1.9327    0.5679   -1.0451 C   0  0  0  0  0  0  0  0  0  0  0  0
   -1.7107   -0.9308   -1.0570 C   0  0  0  0  0  0  0  0  0  0  0  0
   -0.3037   -1.0102   -0.4681 C   0  0  0  0  0  0  0  0  0  0  0  0
    0.6024   -0.2974   -1.2081 O   0  0  0  0  0  0  0  0  0  0  0  0
    3.2894   -0.1270   -1.3249 H   0  0  0  0  0  0  0  0  0  0  0  0
    2.7138   -1.2389    0.0223 H   0  0  0  0  0  0  0  0  0  0  0  0
    3.3987    0.3718    0.4208 H   0  0  0  0  0  0  0  0  0  0  0  0
    1.5241    1.4787   -0.6708 H   0  0  0  0  0  0  0  0  0  0  0  0
    0.8412    1.3549    1.5052 H   0  0  0  0  0  0  0  0  0  0  0  0
    1.3958   -0.3654    1.6557 H   0  0  0  0  0  0  0  0  0  0  0  0
   -0.8779   -0.8250    1.5964 H   0  0  0  0  0  0  0  0  0  0  0  0
   -2.4447    0.7003    1.0072 H   0  0  0  0  0  0  0  0  0  0  0  0
   -1.1486    1.9189    0.4960 H   0  0  0  0  0  0  0  0  0  0  0  0
   -2.9954    0.7511   -1.2274 H   0  0  0  0  0  0  0  0  0  0  0  0
   -1.2478    1.1126   -1.7121 H   0  0  0  0  0  0  0  0  0  0  0  0
   -2.3826   -1.3541   -0.2771 H   0  0  0  0  0  0  0  0  0  0  0  0
   -1.7959   -1.3877   -2.0334 H   0  0  0  0  0  0  0  0  0  0  0  0
    0.0014   -2.0267   -0.2285 H   0  0  0  0  0  0  0  0  0  0  0  0
  1  2  1  0
  2  3  1  0
  3  4  1  0
  4  5  1  0
  5  6  1  0
  6  7  1  0
  7  8  1  0
  8  9  1  0
  9  2  1  0
  8  4  1  0
  1 10  1  0
  1 11  1  0
  1 12  1  0
  2 13  1  0
  3 14  1  0
  3 15  1  0
  4 16  1  0
  5 17  1  0
  5 18  1  0
  6 19  1  0
  6 20  1  0
  7 21  1  0
  7 22  1  0
  8 23  1  0
M  END
