
     RDKit          3D

 19 20  0  0  0  0  0  0  0  0999 V2000
   -2.3037   -0.0592    0.3100 C   0  0  0  0  0  0  0  0  0  0  0  0
   -0.8276    0.0720    0.6214 C   0  0  0  0  0  0  0  0  0  0  0  0
   -0.4103    1.4322    0.2066 C   0  0  0  0  0  0  0  0  0  0  0  0
    0.5567    1.4079   -0.6901 C   0  0  0  0  0  0  0  0  0  0  0  0
    0.9041    0.0014   -0.9838 C   0  0  0  0  0  0  0  0  0  0  0  0
    2.1110   -0.4541   -0.1953 C   0  0  0  0  0  0  0  0  0  0  0  0
    1.1976   -1.3119    0.6063 C   0  0  0  0  0  0  0  0  0  0  0  0
    1.3952   -2.0667    1.5316 O   0  0  0  0  0  0  0  0  0  0  0  0
    0.0135   -0.8687   -0.1717 C   0  0  0  0  0  0  0  0  0  0  0  0
   -2.8468    0.5520    1.0632 H   0  0  0  0  0  0  0  0  0  0  0  0
   -2.6633   -1.0922    0.3713 H   0  0  0  0  0  0  0  0  0  0  0  0
   -2.5038    0.4276   -0.6717 H   0  0  0  0  0  0  0  0  0  0  0  0
   -0.6510   -0.0961    1.6971 H   0  0  0  0  0  0  0  0  0  0  0  0
   -0.8973    2.3248    0.6403 H   0  0  0  0  0  0  0  0  0  0  0  0
    1.0175    2.2687   -1.1351 H   0  0  0  0  0  0  0  0  0  0  0  0
    1.0021   -0.2463   -2.0589 H   0  0  0  0  0  0  0  0  0  0  0  0
    2.5891    0.3730    0.3630 H   0  0  0  0  0  0  0  0  0  0  0  0
    2.8492   -0.9965   -0.7974 H   0  0  0  0  0  0  0  0  0  0  0  0
   -0.5323   -1.6677   -0.7071 H   0  0  0  0  0  0  0  0  0  0  0  0
  1  2  1  0
  2  3  1  0
  3  4  2  0
  4  5  1  0
  5  6  1  0
  6  7  1  0
  7  8  2  0
  7  9  1  0
  9  2  1  0
  9  5  1  0
  1 10  1  0
  1 11  1  0
  1 12  1  0
  2 13  1  0
  3 14  1  0
  4 15  1  0
  5 16  1  0
  6 17  1  0
  6 18  1  0
  9 19  1  0
M  END
