
     RDKit          3D

 21 23  0  0  0  0  0  0  0  0999 V2000
    2.9438   -0.0343   -0.3991 C   0  0  0  0  0  0  0  0  0  0  0  0
    1.4863    0.2412   -0.5459 C   0  0  0  0  0  0  0  0  0  0  0  0
    0.6007   -1.0028   -0.5052 C   0  0  0  0  0  0  0  0  0  0  0  0
    0.8243   -0.9973    0.8748 O   0  0  0  0  0  0  0  0  0  0  0  0
    0.8035    0.4069    0.7715 C   0  0  0  0  0  0  0  0  0  0  0  0
   -0.6209    0.7185    0.3783 C   0  0  0  0  0  0  0  0  0  0  0  0
   -1.6646   -0.3470    0.5596 C   0  0  0  0  0  0  0  0  0  0  0  0
   -3.0637    0.1355    0.3954 C   0  0  0  0  0  0  0  0  0  0  0  0
   -0.7953   -0.4778   -0.6277 C   0  0  0  0  0  0  0  0  0  0  0  0
    3.4732    0.4745   -1.2362 H   0  0  0  0  0  0  0  0  0  0  0  0
    3.2900    0.4388    0.5436 H   0  0  0  0  0  0  0  0  0  0  0  0
    3.1040   -1.1250   -0.3893 H   0  0  0  0  0  0  0  0  0  0  0  0
    1.1823    0.9991   -1.2705 H   0  0  0  0  0  0  0  0  0  0  0  0
    0.9104   -1.8504   -1.0722 H   0  0  0  0  0  0  0  0  0  0  0  0
    1.2620    0.9703    1.5515 H   0  0  0  0  0  0  0  0  0  0  0  0
   -0.8715    1.6918   -0.0359 H   0  0  0  0  0  0  0  0  0  0  0  0
   -1.4978   -0.9929    1.4480 H   0  0  0  0  0  0  0  0  0  0  0  0
   -3.1166    0.7378   -0.5309 H   0  0  0  0  0  0  0  0  0  0  0  0
   -3.2609    0.8675    1.2325 H   0  0  0  0  0  0  0  0  0  0  0  0
   -3.8393   -0.6339    0.4822 H   0  0  0  0  0  0  0  0  0  0  0  0
   -1.1499   -0.2205   -1.6243 H   0  0  0  0  0  0  0  0  0  0  0  0
  1  2  1  0
  2  3  1  0
  3  4  1  0
  4  5  1  0
  5  6  1  0
  6  7  1  0
  7  8  1  0
  7  9  1  0
  5  2  1  0
  9  6  1  0
  9  3  1  0
  1 10  1  0
  1 11  1  0
  1 12  1  0
  2 13  1  0
  3 14  1  0
  5 15  1  0
  6 16  1  0
  7 17  1  0
  8 18  1  0
  8 19  1  0
  8 20  1  0
  9 21  1  0
M  END
