
     RDKit          3D

 19 21  0  0  0  0  0  0  0  0999 V2000
   -1.0413    1.5409    0.4187 C   0  0  0  0  0  0  0  0  0  0  0  0
   -0.3632    0.6524   -0.5650 C   0  0  0  0  0  0  0  0  0  0  0  0
   -1.1051   -0.6432   -0.8227 C   0  0  0  0  0  0  0  0  0  0  0  0
   -0.8319   -1.5303    0.3728 C   0  0  0  0  0  0  0  0  0  0  0  0
    0.5411   -1.4214   -0.2493 C   0  0  0  0  0  0  0  0  0  0  0  0
   -0.1337   -1.3884   -1.4924 O   0  0  0  0  0  0  0  0  0  0  0  0
    0.9050    0.0038    0.0191 C   0  0  0  0  0  0  0  0  0  0  0  0
    2.1337    0.5639    0.1561 C   0  0  0  0  0  0  0  0  0  0  0  0
    1.2922    0.3468    1.3024 O   0  0  0  0  0  0  0  0  0  0  0  0
   -2.1345    1.4323    0.4609 H   0  0  0  0  0  0  0  0  0  0  0  0
   -0.6041    1.4960    1.4459 H   0  0  0  0  0  0  0  0  0  0  0  0
   -0.8578    2.6034    0.0849 H   0  0  0  0  0  0  0  0  0  0  0  0
   -0.1585    1.1168   -1.5457 H   0  0  0  0  0  0  0  0  0  0  0  0
   -2.0911   -0.6023   -1.2200 H   0  0  0  0  0  0  0  0  0  0  0  0
   -1.2438   -2.5265    0.2202 H   0  0  0  0  0  0  0  0  0  0  0  0
   -0.9578   -1.0742    1.3558 H   0  0  0  0  0  0  0  0  0  0  0  0
    1.2460   -2.2014   -0.0921 H   0  0  0  0  0  0  0  0  0  0  0  0
    3.0740   -0.0241    0.1188 H   0  0  0  0  0  0  0  0  0  0  0  0
    2.3307    1.6557    0.0315 H   0  0  0  0  0  0  0  0  0  0  0  0
  1  2  1  0
  2  3  1  0
  3  4  1  0
  4  5  1  0
  5  6  1  0
  5  7  1  0
  7  8  1  0
  8  9  1  0
  7  2  1  0
  6  3  1  0
  9  7  1  0
  1 10  1  0
  1 11  1  0
  1 12  1  0
  2 13  1  0
  3 14  1  0
  4 15  1  0
  4 16  1  0
  5 17  1  0
  8 18  1  0
  8 19  1  0
M  END
