
     RDKit          3D

 23 24  0  0  0  0  0  0  0  0999 V2000
    0.1823    2.2528    0.2305 C   0  0  0  0  0  0  0  0  0  0  0  0
   -0.3050    1.1366   -0.6247 C   0  0  0  0  0  0  0  0  0  0  0  0
   -1.5525    0.4456   -0.0419 C   0  0  0  0  0  0  0  0  0  0  0  0
   -0.9747   -0.8197   -0.6456 C   0  0  0  0  0  0  0  0  0  0  0  0
   -1.2714   -2.0791    0.1098 C   0  0  0  0  0  0  0  0  0  0  0  0
    0.3612   -0.1970   -0.4327 C   0  0  0  0  0  0  0  0  0  0  0  0
    1.0815   -0.4407    0.8202 C   0  0  0  0  0  0  0  0  0  0  0  0
    2.2633   -0.3689   -0.1523 C   0  0  0  0  0  0  0  0  0  0  0  0
    1.3835   -0.5273   -1.2498 O   0  0  0  0  0  0  0  0  0  0  0  0
    1.2681    2.4498    0.1454 H   0  0  0  0  0  0  0  0  0  0  0  0
   -0.0844    2.0622    1.2860 H   0  0  0  0  0  0  0  0  0  0  0  0
   -0.3350    3.1797   -0.0792 H   0  0  0  0  0  0  0  0  0  0  0  0
   -0.5173    1.3595   -1.6854 H   0  0  0  0  0  0  0  0  0  0  0  0
   -1.5308    0.4043    1.0693 H   0  0  0  0  0  0  0  0  0  0  0  0
   -2.4856    0.8002   -0.4732 H   0  0  0  0  0  0  0  0  0  0  0  0
   -1.2447   -0.8643   -1.7168 H   0  0  0  0  0  0  0  0  0  0  0  0
   -0.7390   -2.9046   -0.4033 H   0  0  0  0  0  0  0  0  0  0  0  0
   -1.0092   -1.9740    1.1648 H   0  0  0  0  0  0  0  0  0  0  0  0
   -2.3604   -2.2874   -0.0067 H   0  0  0  0  0  0  0  0  0  0  0  0
    1.0813    0.4039    1.5449 H   0  0  0  0  0  0  0  0  0  0  0  0
    1.0325   -1.4493    1.2756 H   0  0  0  0  0  0  0  0  0  0  0  0
    2.7789    0.6022   -0.1196 H   0  0  0  0  0  0  0  0  0  0  0  0
    2.9773   -1.1844   -0.0154 H   0  0  0  0  0  0  0  0  0  0  0  0
  1  2  1  0
  2  3  1  0
  3  4  1  0
  4  5  1  0
  4  6  1  0
  6  7  1  0
  7  8  1  0
  8  9  1  0
  6  2  1  0
  9  6  1  0
  1 10  1  0
  1 11  1  0
  1 12  1  0
  2 13  1  0
  3 14  1  0
  3 15  1  0
  4 16  1  0
  5 17  1  0
  5 18  1  0
  5 19  1  0
  7 20  1  0
  7 21  1  0
  8 22  1  0
  8 23  1  0
M  END
