
     RDKit          3D

 15 16  0  0  0  0  0  0  0  0999 V2000
    2.8376   -0.1444    0.1686 C   0  0  0  0  0  0  0  0  0  0  0  0
    1.3346   -0.1545    0.0955 C   0  0  0  0  0  0  0  0  0  0  0  0
    0.5385    0.9800    0.1095 C   0  0  0  0  0  0  0  0  0  0  0  0
   -0.7801    0.5678    0.0267 C   0  0  0  0  0  0  0  0  0  0  0  0
   -0.7207   -0.8103   -0.0341 C   0  0  0  0  0  0  0  0  0  0  0  0
    0.5373   -1.1752    0.0098 O   0  0  0  0  0  0  0  0  0  0  0  0
   -2.0403   -1.2687   -0.1191 O   0  0  0  0  0  0  0  0  0  0  0  0
   -2.9430   -0.1896    0.0264 C   0  0  0  0  0  0  0  0  0  0  0  0
   -2.1228    0.9644   -0.0198 O   0  0  0  0  0  0  0  0  0  0  0  0
    3.1883    0.6795    0.8267 H   0  0  0  0  0  0  0  0  0  0  0  0
    3.2861    0.0496   -0.8283 H   0  0  0  0  0  0  0  0  0  0  0  0
    3.1784   -1.1380    0.5535 H   0  0  0  0  0  0  0  0  0  0  0  0
    0.8452    2.0016    0.1715 H   0  0  0  0  0  0  0  0  0  0  0  0
   -3.6448   -0.1175   -0.8399 H   0  0  0  0  0  0  0  0  0  0  0  0
   -3.4944   -0.2445    0.9983 H   0  0  0  0  0  0  0  0  0  0  0  0
  1  2  1  0
  2  3  2  0
  3  4  1  0
  4  5  2  0
  5  6  1  0
  5  7  1  0
  7  8  1  0
  8  9  1  0
  6  2  1  0
  9  4  1  0
  1 10  1  0
  1 11  1  0
  1 12  1  0
  3 13  1  0
  8 14  1  0
  8 15  1  0
M  END
