
     RDKit          3D

 19 21  0  0  0  0  0  0  0  0999 V2000
   -1.5798    1.1713   -0.5960 C   0  0  0  0  0  0  0  0  0  0  0  0
   -0.4499    0.7492    0.3550 C   0  0  0  0  0  0  0  0  0  0  0  0
    0.7084    0.3493   -0.5167 C   0  0  0  0  0  0  0  0  0  0  0  0
    2.0548    0.3250    0.1301 C   0  0  0  0  0  0  0  0  0  0  0  0
    1.9960   -1.0649    0.1269 O   0  0  0  0  0  0  0  0  0  0  0  0
    0.7586   -1.1423   -0.5240 C   0  0  0  0  0  0  0  0  0  0  0  0
   -0.3294   -1.6081    0.3992 C   0  0  0  0  0  0  0  0  0  0  0  0
   -0.0863   -1.3042    1.7462 O   0  0  0  0  0  0  0  0  0  0  0  0
   -0.9404   -0.4838    1.0560 C   0  0  0  0  0  0  0  0  0  0  0  0
   -2.3545    1.6856    0.0029 H   0  0  0  0  0  0  0  0  0  0  0  0
   -1.1617    1.7918   -1.4099 H   0  0  0  0  0  0  0  0  0  0  0  0
   -2.0718    0.2373   -0.9795 H   0  0  0  0  0  0  0  0  0  0  0  0
   -0.1608    1.5680    1.0289 H   0  0  0  0  0  0  0  0  0  0  0  0
    0.7037    0.8467   -1.5101 H   0  0  0  0  0  0  0  0  0  0  0  0
    2.8985    0.6871   -0.4808 H   0  0  0  0  0  0  0  0  0  0  0  0
    2.0898    0.7864    1.1448 H   0  0  0  0  0  0  0  0  0  0  0  0
    0.8475   -1.6470   -1.4900 H   0  0  0  0  0  0  0  0  0  0  0  0
   -0.9276   -2.4897    0.1375 H   0  0  0  0  0  0  0  0  0  0  0  0
   -1.9952   -0.4577    1.3798 H   0  0  0  0  0  0  0  0  0  0  0  0
  1  2  1  0
  2  3  1  0
  3  4  1  0
  4  5  1  0
  5  6  1  0
  6  7  1  0
  7  8  1  0
  8  9  1  0
  9  2  1  0
  6  3  1  0
  9  7  1  0
  1 10  1  0
  1 11  1  0
  1 12  1  0
  2 13  1  0
  3 14  1  0
  4 15  1  0
  4 16  1  0
  6 17  1  0
  7 18  1  0
  9 19  1  0
M  END
