
     RDKit          3D

 27 27  0  0  0  0  0  0  0  0999 V2000
    2.9020   -0.0533    0.7377 C   0  0  0  0  0  0  0  0  0  0  0  0
    1.8969    0.6928   -0.1323 C   0  0  0  0  0  0  0  0  0  0  0  0
    1.6498   -0.0249   -1.4190 C   0  0  0  0  0  0  0  0  0  0  0  0
    0.3856   -0.8302   -1.0877 C   0  0  0  0  0  0  0  0  0  0  0  0
   -0.3960    0.2020   -0.3513 C   0  0  0  0  0  0  0  0  0  0  0  0
   -1.5598   -0.3604    0.4273 C   0  0  0  0  0  0  0  0  0  0  0  0
   -2.5504   -1.0663   -0.4412 C   0  0  0  0  0  0  0  0  0  0  0  0
   -2.2331    0.8447    1.0991 C   0  0  0  0  0  0  0  0  0  0  0  0
    0.6080    0.7541    0.6287 C   0  0  0  0  0  0  0  0  0  0  0  0
    3.2414    0.6668    1.5232 H   0  0  0  0  0  0  0  0  0  0  0  0
    2.3348   -0.9004    1.1895 H   0  0  0  0  0  0  0  0  0  0  0  0
    3.7504   -0.4246    0.1377 H   0  0  0  0  0  0  0  0  0  0  0  0
    2.2558    1.7290   -0.2691 H   0  0  0  0  0  0  0  0  0  0  0  0
    2.4622   -0.6651   -1.7613 H   0  0  0  0  0  0  0  0  0  0  0  0
    1.3242    0.7282   -2.1718 H   0  0  0  0  0  0  0  0  0  0  0  0
   -0.1390   -1.1387   -2.0008 H   0  0  0  0  0  0  0  0  0  0  0  0
    0.6275   -1.7242   -0.4850 H   0  0  0  0  0  0  0  0  0  0  0  0
   -0.7249    0.9801   -1.0502 H   0  0  0  0  0  0  0  0  0  0  0  0
   -1.2327   -1.0159    1.2586 H   0  0  0  0  0  0  0  0  0  0  0  0
   -2.1970   -2.0981   -0.6130 H   0  0  0  0  0  0  0  0  0  0  0  0
   -3.5248   -1.1062    0.0818 H   0  0  0  0  0  0  0  0  0  0  0  0
   -2.6161   -0.4898   -1.4025 H   0  0  0  0  0  0  0  0  0  0  0  0
   -2.2682    1.6559    0.3363 H   0  0  0  0  0  0  0  0  0  0  0  0
   -3.2715    0.5632    1.3407 H   0  0  0  0  0  0  0  0  0  0  0  0
   -1.6532    1.1853    1.9693 H   0  0  0  0  0  0  0  0  0  0  0  0
    0.3314    1.7902    0.9366 H   0  0  0  0  0  0  0  0  0  0  0  0
    0.5967    0.1059    1.5189 H   0  0  0  0  0  0  0  0  0  0  0  0
  1  2  1  0
  2  3  1  0
  3  4  1  0
  4  5  1  0
  5  6  1  0
  6  7  1  0
  6  8  1  0
  5  9  1  0
  9  2  1  0
  1 10  1  0
  1 11  1  0
  1 12  1  0
  2 13  1  0
  3 14  1  0
  3 15  1  0
  4 16  1  0
  4 17  1  0
  5 18  1  0
  6 19  1  0
  7 20  1  0
  7 21  1  0
  7 22  1  0
  8 23  1  0
  8 24  1  0
  8 25  1  0
  9 26  1  0
  9 27  1  0
M  END
