
     RDKit          3D

 25 25  0  0  0  0  0  0  0  0999 V2000
    3.2220    0.4017   -0.4024 C   0  0  0  0  0  0  0  0  0  0  0  0
    1.7451    0.0593   -0.4485 C   0  0  0  0  0  0  0  0  0  0  0  0
    1.1754   -0.2740    0.9003 C   0  0  0  0  0  0  0  0  0  0  0  0
    0.1082    0.6726    0.4514 C   0  0  0  0  0  0  0  0  0  0  0  0
   -1.1963    0.0396    0.0515 C   0  0  0  0  0  0  0  0  0  0  0  0
   -2.1729    1.0922   -0.3748 C   0  0  0  0  0  0  0  0  0  0  0  0
   -1.0362   -0.9354   -1.0920 C   0  0  0  0  0  0  0  0  0  0  0  0
   -1.7404   -0.7411    1.2290 C   0  0  0  0  0  0  0  0  0  0  0  0
    0.8911    1.1306   -0.6086 O   0  0  0  0  0  0  0  0  0  0  0  0
    3.6391   -0.1985    0.4572 H   0  0  0  0  0  0  0  0  0  0  0  0
    3.4181    1.4687   -0.3105 H   0  0  0  0  0  0  0  0  0  0  0  0
    3.7650    0.0335   -1.2965 H   0  0  0  0  0  0  0  0  0  0  0  0
    1.5916   -0.7206   -1.2337 H   0  0  0  0  0  0  0  0  0  0  0  0
    1.8409    0.1483    1.6989 H   0  0  0  0  0  0  0  0  0  0  0  0
    0.9064   -1.3200    1.0321 H   0  0  0  0  0  0  0  0  0  0  0  0
   -0.0852    1.5192    1.1483 H   0  0  0  0  0  0  0  0  0  0  0  0
   -2.1817    1.9860    0.2828 H   0  0  0  0  0  0  0  0  0  0  0  0
   -3.1906    0.6105   -0.3611 H   0  0  0  0  0  0  0  0  0  0  0  0
   -1.9886    1.3700   -1.4512 H   0  0  0  0  0  0  0  0  0  0  0  0
   -0.6680   -0.4099   -1.9890 H   0  0  0  0  0  0  0  0  0  0  0  0
   -0.4917   -1.8427   -0.8305 H   0  0  0  0  0  0  0  0  0  0  0  0
   -2.0837   -1.2670   -1.3547 H   0  0  0  0  0  0  0  0  0  0  0  0
   -1.2291   -1.7449    1.1884 H   0  0  0  0  0  0  0  0  0  0  0  0
   -1.4027   -0.2369    2.1574 H   0  0  0  0  0  0  0  0  0  0  0  0
   -2.8359   -0.8413    1.1559 H   0  0  0  0  0  0  0  0  0  0  0  0
  1  2  1  0
  2  3  1  0
  3  4  1  0
  4  5  1  0
  5  6  1  0
  5  7  1  0
  5  8  1  0
  4  9  1  0
  9  2  1  0
  1 10  1  0
  1 11  1  0
  1 12  1  0
  2 13  1  0
  3 14  1  0
  3 15  1  0
  4 16  1  0
  6 17  1  0
  6 18  1  0
  6 19  1  0
  7 20  1  0
  7 21  1  0
  7 22  1  0
  8 23  1  0
  8 24  1  0
  8 25  1  0
M  END
