
     RDKit          3D

 23 24  0  0  0  0  0  0  0  0999 V2000
    2.5651   -0.6679    0.5672 C   0  0  0  0  0  0  0  0  0  0  0  0
    1.1306   -0.1662    0.6103 C   0  0  0  0  0  0  0  0  0  0  0  0
    1.0507    1.2946    0.3134 C   0  0  0  0  0  0  0  0  0  0  0  0
    0.1297    1.8281   -0.4764 C   0  0  0  0  0  0  0  0  0  0  0  0
   -0.9309    1.0282   -1.1574 C   0  0  0  0  0  0  0  0  0  0  0  0
   -1.0388   -0.2743   -0.4385 C   0  0  0  0  0  0  0  0  0  0  0  0
   -2.2679   -1.0183   -0.2379 C   0  0  0  0  0  0  0  0  0  0  0  0
   -1.7861   -0.1722    0.8977 C   0  0  0  0  0  0  0  0  0  0  0  0
    0.3256   -0.9138   -0.4207 C   0  0  0  0  0  0  0  0  0  0  0  0
    2.7225   -1.3307   -0.3343 H   0  0  0  0  0  0  0  0  0  0  0  0
    2.7586   -1.3432    1.4408 H   0  0  0  0  0  0  0  0  0  0  0  0
    3.2874    0.1513    0.5648 H   0  0  0  0  0  0  0  0  0  0  0  0
    0.7075   -0.3183    1.6395 H   0  0  0  0  0  0  0  0  0  0  0  0
    1.7689    1.9977    0.7484 H   0  0  0  0  0  0  0  0  0  0  0  0
    0.1020    2.9059   -0.6717 H   0  0  0  0  0  0  0  0  0  0  0  0
   -1.9159    1.5249   -1.1264 H   0  0  0  0  0  0  0  0  0  0  0  0
   -0.6542    0.8793   -2.2420 H   0  0  0  0  0  0  0  0  0  0  0  0
   -3.2150   -0.7385   -0.7174 H   0  0  0  0  0  0  0  0  0  0  0  0
   -2.1528   -2.1374   -0.1390 H   0  0  0  0  0  0  0  0  0  0  0  0
   -2.3712    0.7485    1.0959 H   0  0  0  0  0  0  0  0  0  0  0  0
   -1.3274   -0.6024    1.7867 H   0  0  0  0  0  0  0  0  0  0  0  0
    0.3190   -1.9873   -0.2911 H   0  0  0  0  0  0  0  0  0  0  0  0
    0.7927   -0.6881   -1.4121 H   0  0  0  0  0  0  0  0  0  0  0  0
  1  2  1  0
  2  3  1  0
  3  4  2  0
  4  5  1  0
  5  6  1  0
  6  7  1  0
  7  8  1  0
  6  9  1  0
  9  2  1  0
  8  6  1  0
  1 10  1  0
  1 11  1  0
  1 12  1  0
  2 13  1  0
  3 14  1  0
  4 15  1  0
  5 16  1  0
  5 17  1  0
  7 18  1  0
  7 19  1  0
  8 20  1  0
  8 21  1  0
  9 22  1  0
  9 23  1  0
M  END
