
     RDKit          3D

 18 19  0  0  0  0  0  0  0  0999 V2000
   -1.7023   -0.7403    0.3910 C   0  0  0  0  0  0  0  0  0  0  0  0
   -0.8944   -0.1573   -0.7127 C   0  0  0  0  0  0  0  0  0  0  0  0
   -0.7622    1.3567   -0.5159 C   0  0  0  0  0  0  0  0  0  0  0  0
    0.4987    1.4745    0.2882 C   0  0  0  0  0  0  0  0  0  0  0  0
    1.2233    0.3868    0.2097 C   0  0  0  0  0  0  0  0  0  0  0  0
    2.1581   -0.7563    0.2307 C   0  0  0  0  0  0  0  0  0  0  0  0
    0.9752   -1.5589    0.1368 O   0  0  0  0  0  0  0  0  0  0  0  0
    0.5400   -0.5897   -0.7487 C   0  0  0  0  0  0  0  0  0  0  0  0
   -2.5869   -0.0974    0.5615 H   0  0  0  0  0  0  0  0  0  0  0  0
   -1.0460   -0.7902    1.3048 H   0  0  0  0  0  0  0  0  0  0  0  0
   -2.0579   -1.7533    0.1735 H   0  0  0  0  0  0  0  0  0  0  0  0
   -1.3208   -0.3240   -1.7215 H   0  0  0  0  0  0  0  0  0  0  0  0
   -0.5919    1.8651   -1.4705 H   0  0  0  0  0  0  0  0  0  0  0  0
   -1.6072    1.7102    0.0778 H   0  0  0  0  0  0  0  0  0  0  0  0
    0.7340    2.3703    0.8473 H   0  0  0  0  0  0  0  0  0  0  0  0
    2.7020   -0.8678   -0.7302 H   0  0  0  0  0  0  0  0  0  0  0  0
    2.7246   -0.9212    1.1459 H   0  0  0  0  0  0  0  0  0  0  0  0
    1.0137   -0.6073   -1.7421 H   0  0  0  0  0  0  0  0  0  0  0  0
  1  2  1  0
  2  3  1  0
  3  4  1  0
  4  5  2  0
  5  6  1  0
  6  7  1  0
  7  8  1  0
  8  2  1  0
  8  5  1  0
  1  9  1  0
  1 10  1  0
  1 11  1  0
  2 12  1  0
  3 13  1  0
  3 14  1  0
  4 15  1  0
  6 16  1  0
  6 17  1  0
  8 18  1  0
M  END
