
     RDKit          3D

 23 23  0  0  0  0  0  0  0  0999 V2000
   -2.2153   -0.8068    0.0112 C   0  0  0  0  0  0  0  0  0  0  0  0
   -0.7737   -0.4741   -0.2119 C   0  0  0  0  0  0  0  0  0  0  0  0
    0.1384   -1.0601    0.8541 C   0  0  0  0  0  0  0  0  0  0  0  0
    1.4995   -1.2344    0.2262 C   0  0  0  0  0  0  0  0  0  0  0  0
    1.5171   -0.8201   -1.1150 O   0  0  0  0  0  0  0  0  0  0  0  0
    1.6156    0.5544   -1.2349 C   0  0  0  0  0  0  0  0  0  0  0  0
    0.4220    1.1975   -1.4307 O   0  0  0  0  0  0  0  0  0  0  0  0
   -0.5134    0.9849   -0.4457 C   0  0  0  0  0  0  0  0  0  0  0  0
   -0.1424    1.7504    0.7718 C   0  0  0  0  0  0  0  0  0  0  0  0
   -2.5364   -1.6957   -0.6074 H   0  0  0  0  0  0  0  0  0  0  0  0
   -2.4557   -1.0858    1.0542 H   0  0  0  0  0  0  0  0  0  0  0  0
   -2.8574    0.0306   -0.3668 H   0  0  0  0  0  0  0  0  0  0  0  0
   -0.4683   -0.9949   -1.1687 H   0  0  0  0  0  0  0  0  0  0  0  0
    0.1414   -0.4910    1.7811 H   0  0  0  0  0  0  0  0  0  0  0  0
   -0.2658   -2.0939    1.0502 H   0  0  0  0  0  0  0  0  0  0  0  0
    2.2279   -0.6047    0.7566 H   0  0  0  0  0  0  0  0  0  0  0  0
    1.8095   -2.3177    0.1968 H   0  0  0  0  0  0  0  0  0  0  0  0
    2.2396    0.7420   -2.1540 H   0  0  0  0  0  0  0  0  0  0  0  0
    2.2077    0.9189   -0.3786 H   0  0  0  0  0  0  0  0  0  0  0  0
   -1.4835    1.4197   -0.8296 H   0  0  0  0  0  0  0  0  0  0  0  0
   -0.3364    2.8417    0.5528 H   0  0  0  0  0  0  0  0  0  0  0  0
    0.9506    1.7156    1.0162 H   0  0  0  0  0  0  0  0  0  0  0  0
   -0.7213    1.5232    1.6722 H   0  0  0  0  0  0  0  0  0  0  0  0
  1  2  1  0
  2  3  1  0
  3  4  1  0
  4  5  1  0
  5  6  1  0
  6  7  1  0
  7  8  1  0
  8  9  1  0
  8  2  1  0
  1 10  1  0
  1 11  1  0
  1 12  1  0
  2 13  1  0
  3 14  1  0
  3 15  1  0
  4 16  1  0
  4 17  1  0
  6 18  1  0
  6 19  1  0
  8 20  1  0
  9 21  1  0
  9 22  1  0
  9 23  1  0
M  END
