
     RDKit          3D

 17 17  0  0  0  0  0  0  0  0999 V2000
    1.9433    0.4825   -0.0193 C   0  0  0  0  0  0  0  0  0  0  0  0
    0.7967   -0.4597   -0.1042 C   0  0  0  0  0  0  0  0  0  0  0  0
   -0.1493   -0.0865   -1.2167 C   0  0  0  0  0  0  0  0  0  0  0  0
   -1.2884   -0.0390   -0.2442 C   0  0  0  0  0  0  0  0  0  0  0  0
   -2.2236   -1.0513   -0.3487 O   0  0  0  0  0  0  0  0  0  0  0  0
   -0.3068   -0.3147    0.8829 C   0  0  0  0  0  0  0  0  0  0  0  0
   -0.2620    0.7459    1.7491 O   0  0  0  0  0  0  0  0  0  0  0  0
    2.3381    0.6473    0.9935 H   0  0  0  0  0  0  0  0  0  0  0  0
    2.7938    0.0159   -0.5984 H   0  0  0  0  0  0  0  0  0  0  0  0
    1.7631    1.4569   -0.5474 H   0  0  0  0  0  0  0  0  0  0  0  0
    1.1139   -1.5317   -0.2220 H   0  0  0  0  0  0  0  0  0  0  0  0
    0.0640    0.9024   -1.6740 H   0  0  0  0  0  0  0  0  0  0  0  0
   -0.2974   -0.8635   -1.9776 H   0  0  0  0  0  0  0  0  0  0  0  0
   -1.7881    0.9541   -0.1804 H   0  0  0  0  0  0  0  0  0  0  0  0
   -2.8835   -0.9060    0.3842 H   0  0  0  0  0  0  0  0  0  0  0  0
   -0.5218   -1.2680    1.4405 H   0  0  0  0  0  0  0  0  0  0  0  0
   -1.0922    1.3152    1.6827 H   0  0  0  0  0  0  0  0  0  0  0  0
  1  2  1  0
  2  3  1  0
  3  4  1  0
  4  5  1  0
  4  6  1  0
  6  7  1  0
  6  2  1  0
  1  8  1  0
  1  9  1  0
  1 10  1  0
  2 11  1  0
  3 12  1  0
  3 13  1  0
  4 14  1  0
  5 15  1  0
  6 16  1  0
  7 17  1  0
M  END
