
     RDKit          3D

 23 24  0  0  0  0  0  0  0  0999 V2000
    2.4520   -0.3005    0.5315 C   0  0  0  0  0  0  0  0  0  0  0  0
    1.2148   -0.3303   -0.3096 C   0  0  0  0  0  0  0  0  0  0  0  0
    0.8572    1.0320   -0.8047 C   0  0  0  0  0  0  0  0  0  0  0  0
   -0.2728    1.6346   -0.5806 C   0  0  0  0  0  0  0  0  0  0  0  0
   -1.3429    0.9800    0.2025 C   0  0  0  0  0  0  0  0  0  0  0  0
   -2.0241   -0.1312   -0.5582 C   0  0  0  0  0  0  0  0  0  0  0  0
   -1.0087   -1.2478   -0.6299 C   0  0  0  0  0  0  0  0  0  0  0  0
    0.0151   -0.9024    0.4309 C   0  0  0  0  0  0  0  0  0  0  0  0
   -0.6192    0.1865    1.2906 C   0  0  0  0  0  0  0  0  0  0  0  0
    2.2326   -0.3512    1.5951 H   0  0  0  0  0  0  0  0  0  0  0  0
    3.1702   -1.0871    0.1818 H   0  0  0  0  0  0  0  0  0  0  0  0
    2.9685    0.6723    0.3219 H   0  0  0  0  0  0  0  0  0  0  0  0
    1.3592   -0.9670   -1.2069 H   0  0  0  0  0  0  0  0  0  0  0  0
    1.6221    1.5380   -1.3980 H   0  0  0  0  0  0  0  0  0  0  0  0
   -0.4558    2.6248   -0.9603 H   0  0  0  0  0  0  0  0  0  0  0  0
   -2.0829    1.6655    0.6061 H   0  0  0  0  0  0  0  0  0  0  0  0
   -2.8579   -0.4989    0.0717 H   0  0  0  0  0  0  0  0  0  0  0  0
   -2.3438    0.2273   -1.5480 H   0  0  0  0  0  0  0  0  0  0  0  0
   -1.4549   -2.2374   -0.4053 H   0  0  0  0  0  0  0  0  0  0  0  0
   -0.5588   -1.3282   -1.6376 H   0  0  0  0  0  0  0  0  0  0  0  0
    0.2670   -1.7629    1.0499 H   0  0  0  0  0  0  0  0  0  0  0  0
    0.1939    0.7938    1.7514 H   0  0  0  0  0  0  0  0  0  0  0  0
   -1.3307   -0.2097    2.0058 H   0  0  0  0  0  0  0  0  0  0  0  0
  1  2  1  0
  2  3  1  0
  3  4  2  0
  4  5  1  0
  5  6  1  0
  6  7  1  0
  7  8  1  0
  8  9  1  0
  8  2  1  0
  9  5  1  0
  1 10  1  0
  1 11  1  0
  1 12  1  0
  2 13  1  0
  3 14  1  0
  4 15  1  0
  5 16  1  0
  6 17  1  0
  6 18  1  0
  7 19  1  0
  7 20  1  0
  8 21  1  0
  9 22  1  0
  9 23  1  0
M  END
