
     RDKit          3D

 19 20  0  0  0  0  0  0  0  0999 V2000
    0.6972   -1.6887   -0.4231 C   0  0  0  0  0  0  0  0  0  0  0  0
    0.2299   -0.5604    0.4164 C   0  0  0  0  0  0  0  0  0  0  0  0
   -1.0120    0.1525    0.0014 C   0  0  0  0  0  0  0  0  0  0  0  0
   -2.2940   -0.3634   -0.0413 C   0  0  0  0  0  0  0  0  0  0  0  0
   -0.2797    0.6285   -1.0730 O   0  0  0  0  0  0  0  0  0  0  0  0
    0.6072    0.8222   -0.0112 C   0  0  0  0  0  0  0  0  0  0  0  0
    1.8838    1.3348   -0.1206 C   0  0  0  0  0  0  0  0  0  0  0  0
   -0.5230    1.2997    0.7349 C   0  0  0  0  0  0  0  0  0  0  0  0
   -0.9010    2.1202    1.4999 O   0  0  0  0  0  0  0  0  0  0  0  0
    1.7145   -1.5050   -0.8069 H   0  0  0  0  0  0  0  0  0  0  0  0
    0.0041   -1.9812   -1.2335 H   0  0  0  0  0  0  0  0  0  0  0  0
    0.7893   -2.5942    0.2458 H   0  0  0  0  0  0  0  0  0  0  0  0
    0.3283   -0.6916    1.5070 H   0  0  0  0  0  0  0  0  0  0  0  0
   -2.3259   -1.4510   -0.2499 H   0  0  0  0  0  0  0  0  0  0  0  0
   -2.9213    0.1069   -0.8485 H   0  0  0  0  0  0  0  0  0  0  0  0
   -2.8735   -0.1666    0.9013 H   0  0  0  0  0  0  0  0  0  0  0  0
    2.6827    0.5666   -0.1041 H   0  0  0  0  0  0  0  0  0  0  0  0
    2.1473    2.0658    0.6865 H   0  0  0  0  0  0  0  0  0  0  0  0
    2.0461    1.9049   -1.0810 H   0  0  0  0  0  0  0  0  0  0  0  0
  1  2  1  0
  2  3  1  0
  3  4  1  0
  3  5  1  0
  5  6  1  0
  6  7  1  0
  6  8  1  0
  8  9  2  0
  6  2  1  0
  8  3  1  0
  1 10  1  0
  1 11  1  0
  1 12  1  0
  2 13  1  0
  4 14  1  0
  4 15  1  0
  4 16  1  0
  7 17  1  0
  7 18  1  0
  7 19  1  0
M  END
