
     RDKit          3D

 19 20  0  0  0  0  0  0  0  0999 V2000
    1.8201    0.7528   -0.8598 C   0  0  0  0  0  0  0  0  0  0  0  0
    1.1148   -0.1612    0.1052 C   0  0  0  0  0  0  0  0  0  0  0  0
    0.2429    0.5015    1.1248 C   0  0  0  0  0  0  0  0  0  0  0  0
   -0.7821   -0.5590    0.8187 C   0  0  0  0  0  0  0  0  0  0  0  0
   -0.9376   -1.6192    1.7106 O   0  0  0  0  0  0  0  0  0  0  0  0
   -1.3982   -0.5459   -0.4940 C   0  0  0  0  0  0  0  0  0  0  0  0
   -1.8800    0.7059   -1.1001 C   0  0  0  0  0  0  0  0  0  0  0  0
   -1.1708    1.6853   -1.0954 O   0  0  0  0  0  0  0  0  0  0  0  0
   -0.0098   -0.9654   -0.4569 C   0  0  0  0  0  0  0  0  0  0  0  0
    2.9205    0.6101   -0.8659 H   0  0  0  0  0  0  0  0  0  0  0  0
    1.4808    0.6350   -1.9011 H   0  0  0  0  0  0  0  0  0  0  0  0
    1.6590    1.8063   -0.4867 H   0  0  0  0  0  0  0  0  0  0  0  0
    1.8723   -0.7970    0.6182 H   0  0  0  0  0  0  0  0  0  0  0  0
   -0.1122    1.5238    0.8844 H   0  0  0  0  0  0  0  0  0  0  0  0
    0.6447    0.4289    2.1726 H   0  0  0  0  0  0  0  0  0  0  0  0
   -0.6593   -1.3959    2.6191 H   0  0  0  0  0  0  0  0  0  0  0  0
   -2.1645   -1.3719   -0.6255 H   0  0  0  0  0  0  0  0  0  0  0  0
   -2.8535    0.8032   -1.5600 H   0  0  0  0  0  0  0  0  0  0  0  0
    0.2129   -2.0372   -0.6082 H   0  0  0  0  0  0  0  0  0  0  0  0
  1  2  1  0
  2  3  1  0
  3  4  1  0
  4  5  1  0
  4  6  1  0
  6  7  1  0
  7  8  2  0
  6  9  1  0
  9  2  1  0
  9  4  1  0
  1 10  1  0
  1 11  1  0
  1 12  1  0
  2 13  1  0
  3 14  1  0
  3 15  1  0
  5 16  1  0
  6 17  1  0
  7 18  1  0
  9 19  1  0
M  END
