
     RDKit          3D

 21 22  0  0  0  0  0  0  0  0999 V2000
   -2.4278   -0.6182   -0.1238 C   0  0  0  0  0  0  0  0  0  0  0  0
   -1.4353    0.5376   -0.1573 C   0  0  0  0  0  0  0  0  0  0  0  0
   -1.1453    1.0154    1.2432 C   0  0  0  0  0  0  0  0  0  0  0  0
   -0.2142   -0.0471    1.3406 O   0  0  0  0  0  0  0  0  0  0  0  0
   -0.0664    0.0268   -0.0052 C   0  0  0  0  0  0  0  0  0  0  0  0
    0.3494   -1.1043   -0.8610 C   0  0  0  0  0  0  0  0  0  0  0  0
    1.1040    0.2328   -0.7694 C   0  0  0  0  0  0  0  0  0  0  0  0
    2.4646    0.0937   -0.1269 C   0  0  0  0  0  0  0  0  0  0  0  0
    2.6534    0.9784    0.9258 O   0  0  0  0  0  0  0  0  0  0  0  0
   -3.2707   -0.4232    0.5670 H   0  0  0  0  0  0  0  0  0  0  0  0
   -2.7853   -0.8529   -1.1665 H   0  0  0  0  0  0  0  0  0  0  0  0
   -1.9552   -1.5591    0.2318 H   0  0  0  0  0  0  0  0  0  0  0  0
   -1.6604    1.3062   -0.8881 H   0  0  0  0  0  0  0  0  0  0  0  0
   -0.6015    1.9522    1.3384 H   0  0  0  0  0  0  0  0  0  0  0  0
   -2.0101    0.9258    1.8963 H   0  0  0  0  0  0  0  0  0  0  0  0
   -0.2026   -1.2983   -1.8153 H   0  0  0  0  0  0  0  0  0  0  0  0
    0.7608   -1.9765   -0.3554 H   0  0  0  0  0  0  0  0  0  0  0  0
    1.0784    0.8659   -1.6796 H   0  0  0  0  0  0  0  0  0  0  0  0
    2.6403   -0.9275    0.2848 H   0  0  0  0  0  0  0  0  0  0  0  0
    3.2520    0.2328   -0.9082 H   0  0  0  0  0  0  0  0  0  0  0  0
    3.4717    0.6393    1.4116 H   0  0  0  0  0  0  0  0  0  0  0  0
  1  2  1  0
  2  3  1  0
  3  4  1  0
  4  5  1  0
  5  6  1  0
  6  7  1  0
  7  8  1  0
  8  9  1  0
  5  2  1  0
  7  5  1  0
  1 10  1  0
  1 11  1  0
  1 12  1  0
  2 13  1  0
  3 14  1  0
  3 15  1  0
  6 16  1  0
  6 17  1  0
  7 18  1  0
  8 19  1  0
  8 20  1  0
  9 21  1  0
M  END
