
     RDKit          3D

 19 19  0  0  0  0  0  0  0  0999 V2000
    1.8160   -0.7649    0.4926 C   0  0  0  0  0  0  0  0  0  0  0  0
    0.6511   -0.0104   -0.0504 C   0  0  0  0  0  0  0  0  0  0  0  0
    0.3661    1.2656    0.7195 C   0  0  0  0  0  0  0  0  0  0  0  0
   -0.7883    1.9209    0.0104 C   0  0  0  0  0  0  0  0  0  0  0  0
   -0.8687    3.1644    0.0463 O   0  0  0  0  0  0  0  0  0  0  0  0
   -1.7372    1.1943   -0.6625 O   0  0  0  0  0  0  0  0  0  0  0  0
   -1.5039   -0.1072   -1.1343 C   0  0  0  0  0  0  0  0  0  0  0  0
   -0.6246   -0.8043   -0.0861 C   0  0  0  0  0  0  0  0  0  0  0  0
   -0.4579   -2.1304   -0.3834 O   0  0  0  0  0  0  0  0  0  0  0  0
    2.0246   -1.6134   -0.1704 H   0  0  0  0  0  0  0  0  0  0  0  0
    1.6374   -1.1513    1.5071 H   0  0  0  0  0  0  0  0  0  0  0  0
    2.6876   -0.0987    0.5133 H   0  0  0  0  0  0  0  0  0  0  0  0
    0.9192    0.3183   -1.0888 H   0  0  0  0  0  0  0  0  0  0  0  0
    1.2448    1.9256    0.7710 H   0  0  0  0  0  0  0  0  0  0  0  0
   -0.0118    0.9935    1.7349 H   0  0  0  0  0  0  0  0  0  0  0  0
   -2.4019   -0.6776   -1.3493 H   0  0  0  0  0  0  0  0  0  0  0  0
   -0.9085   -0.0302   -2.0678 H   0  0  0  0  0  0  0  0  0  0  0  0
   -1.1707   -0.6677    0.8898 H   0  0  0  0  0  0  0  0  0  0  0  0
   -0.8733   -2.7264    0.3080 H   0  0  0  0  0  0  0  0  0  0  0  0
  1  2  1  0
  2  3  1  0
  3  4  1  0
  4  5  2  0
  4  6  1  0
  6  7  1  0
  7  8  1  0
  8  9  1  0
  8  2  1  0
  1 10  1  0
  1 11  1  0
  1 12  1  0
  2 13  1  0
  3 14  1  0
  3 15  1  0
  7 16  1  0
  7 17  1  0
  8 18  1  0
  9 19  1  0
M  END
