
     RDKit          3D

 23 24  0  0  0  0  0  0  0  0999 V2000
   -2.1010   -1.2630   -0.7180 C   0  0  0  0  0  0  0  0  0  0  0  0
   -0.9024   -0.3768   -0.6383 C   0  0  0  0  0  0  0  0  0  0  0  0
   -0.8642    0.3441    0.6925 C   0  0  0  0  0  0  0  0  0  0  0  0
   -0.8382    1.8368    0.5464 C   0  0  0  0  0  0  0  0  0  0  0  0
    0.4146   -0.3283    1.0396 C   0  0  0  0  0  0  0  0  0  0  0  0
    0.3969   -1.0414   -0.3432 C   0  0  0  0  0  0  0  0  0  0  0  0
    1.5820   -0.3386    0.1493 C   0  0  0  0  0  0  0  0  0  0  0  0
    2.0445    0.9792   -0.3986 C   0  0  0  0  0  0  0  0  0  0  0  0
    2.6409   -1.1731    0.5514 O   0  0  0  0  0  0  0  0  0  0  0  0
   -2.8472   -0.8769   -1.4612 H   0  0  0  0  0  0  0  0  0  0  0  0
   -2.6520   -1.3415    0.2575 H   0  0  0  0  0  0  0  0  0  0  0  0
   -1.8795   -2.2995   -1.0207 H   0  0  0  0  0  0  0  0  0  0  0  0
   -0.8279    0.2719   -1.5320 H   0  0  0  0  0  0  0  0  0  0  0  0
   -1.6931    0.0597    1.3936 H   0  0  0  0  0  0  0  0  0  0  0  0
   -1.7633    2.3292    0.9520 H   0  0  0  0  0  0  0  0  0  0  0  0
    0.0031    2.2863    1.0889 H   0  0  0  0  0  0  0  0  0  0  0  0
   -0.8401    2.0983   -0.5430 H   0  0  0  0  0  0  0  0  0  0  0  0
    0.4155   -0.9908    1.9311 H   0  0  0  0  0  0  0  0  0  0  0  0
    0.3539   -2.1465   -0.3090 H   0  0  0  0  0  0  0  0  0  0  0  0
    1.3866    1.4113   -1.1610 H   0  0  0  0  0  0  0  0  0  0  0  0
    2.2373    1.6723    0.4630 H   0  0  0  0  0  0  0  0  0  0  0  0
    3.0526    0.8714   -0.8913 H   0  0  0  0  0  0  0  0  0  0  0  0
    2.6811   -1.9843   -0.0488 H   0  0  0  0  0  0  0  0  0  0  0  0
  1  2  1  0
  2  3  1  0
  3  4  1  0
  3  5  1  0
  5  6  1  0
  6  7  1  0
  7  8  1  0
  7  9  1  0
  6  2  1  0
  7  5  1  0
  1 10  1  0
  1 11  1  0
  1 12  1  0
  2 13  1  0
  3 14  1  0
  4 15  1  0
  4 16  1  0
  4 17  1  0
  5 18  1  0
  6 19  1  0
  8 20  1  0
  8 21  1  0
  8 22  1  0
  9 23  1  0
M  END
