
     RDKit          3D

 17 17  0  0  0  0  0  0  0  0999 V2000
   -2.2128    0.4523    0.4755 C   0  0  0  0  0  0  0  0  0  0  0  0
   -1.0841   -0.0155   -0.3759 C   0  0  0  0  0  0  0  0  0  0  0  0
    0.0735    0.9093   -0.1908 C   0  0  0  0  0  0  0  0  0  0  0  0
    1.2170    0.2526   -0.1534 C   0  0  0  0  0  0  0  0  0  0  0  0
    2.5686    0.8340    0.0175 C   0  0  0  0  0  0  0  0  0  0  0  0
    3.5757    0.0943    0.0354 O   0  0  0  0  0  0  0  0  0  0  0  0
    0.9362   -1.1869   -0.3211 C   0  0  0  0  0  0  0  0  0  0  0  0
   -0.4697   -1.2990    0.1442 C   0  0  0  0  0  0  0  0  0  0  0  0
   -1.0226   -2.1718    0.7770 O   0  0  0  0  0  0  0  0  0  0  0  0
   -2.2095   -0.1369    1.4370 H   0  0  0  0  0  0  0  0  0  0  0  0
   -2.1382    1.5340    0.7432 H   0  0  0  0  0  0  0  0  0  0  0  0
   -3.1695    0.3316   -0.0570 H   0  0  0  0  0  0  0  0  0  0  0  0
   -1.3283   -0.1958   -1.4267 H   0  0  0  0  0  0  0  0  0  0  0  0
    0.0420    1.9987   -0.0927 H   0  0  0  0  0  0  0  0  0  0  0  0
    2.6696    1.9059    0.1261 H   0  0  0  0  0  0  0  0  0  0  0  0
    1.6274   -1.8232    0.2654 H   0  0  0  0  0  0  0  0  0  0  0  0
    0.9247   -1.4835   -1.4037 H   0  0  0  0  0  0  0  0  0  0  0  0
  1  2  1  0
  2  3  1  0
  3  4  2  0
  4  5  1  0
  5  6  2  0
  4  7  1  0
  7  8  1  0
  8  9  2  0
  8  2  1  0
  1 10  1  0
  1 11  1  0
  1 12  1  0
  2 13  1  0
  3 14  1  0
  5 15  1  0
  7 16  1  0
  7 17  1  0
M  END
