
     RDKit          3D

 21 22  0  0  0  0  0  0  0  0999 V2000
   -2.5169    0.5080   -0.2305 C   0  0  0  0  0  0  0  0  0  0  0  0
   -1.2187   -0.1324   -0.6208 C   0  0  0  0  0  0  0  0  0  0  0  0
   -0.0221    0.7601   -0.2721 C   0  0  0  0  0  0  0  0  0  0  0  0
    1.0787   -0.2364   -0.2180 C   0  0  0  0  0  0  0  0  0  0  0  0
    2.3675    0.2722    0.3365 C   0  0  0  0  0  0  0  0  0  0  0  0
    2.8034    1.3202   -0.4582 O   0  0  0  0  0  0  0  0  0  0  0  0
    0.4802   -1.3538    0.6086 C   0  0  0  0  0  0  0  0  0  0  0  0
   -0.5194   -1.0580    1.5223 O   0  0  0  0  0  0  0  0  0  0  0  0
   -0.9444   -1.3520    0.1948 C   0  0  0  0  0  0  0  0  0  0  0  0
   -2.3715    1.6004   -0.1507 H   0  0  0  0  0  0  0  0  0  0  0  0
   -2.8103    0.1006    0.7582 H   0  0  0  0  0  0  0  0  0  0  0  0
   -3.3430    0.2359   -0.9356 H   0  0  0  0  0  0  0  0  0  0  0  0
   -1.1906   -0.3158   -1.7190 H   0  0  0  0  0  0  0  0  0  0  0  0
    0.0938    1.5598   -0.9992 H   0  0  0  0  0  0  0  0  0  0  0  0
   -0.2654    1.2115    0.7100 H   0  0  0  0  0  0  0  0  0  0  0  0
    1.2537   -0.6310   -1.2279 H   0  0  0  0  0  0  0  0  0  0  0  0
    3.1122   -0.5485    0.2698 H   0  0  0  0  0  0  0  0  0  0  0  0
    2.3179    0.6078    1.3753 H   0  0  0  0  0  0  0  0  0  0  0  0
    2.1291    2.0153   -0.5511 H   0  0  0  0  0  0  0  0  0  0  0  0
    1.0697   -2.2731    0.7077 H   0  0  0  0  0  0  0  0  0  0  0  0
   -1.5038   -2.2909    0.0343 H   0  0  0  0  0  0  0  0  0  0  0  0
  1  2  1  0
  2  3  1  0
  3  4  1  0
  4  5  1  0
  5  6  1  0
  4  7  1  0
  7  8  1  0
  8  9  1  0
  9  2  1  0
  9  7  1  0
  1 10  1  0
  1 11  1  0
  1 12  1  0
  2 13  1  0
  3 14  1  0
  3 15  1  0
  4 16  1  0
  5 17  1  0
  5 18  1  0
  6 19  1  0
  7 20  1  0
  9 21  1  0
M  END
