
     RDKit          3D

 17 18  0  0  0  0  0  0  0  0999 V2000
   -1.7082   -1.2273    0.1408 C   0  0  0  0  0  0  0  0  0  0  0  0
   -0.7454   -0.1818   -0.3207 C   0  0  0  0  0  0  0  0  0  0  0  0
   -1.2140    1.1572    0.1734 C   0  0  0  0  0  0  0  0  0  0  0  0
   -2.3800    1.5991    0.2850 O   0  0  0  0  0  0  0  0  0  0  0  0
   -0.0676    1.8757    0.5101 O   0  0  0  0  0  0  0  0  0  0  0  0
    0.9561    1.2360   -0.1874 C   0  0  0  0  0  0  0  0  0  0  0  0
    1.8681    0.2141    0.0872 C   0  0  0  0  0  0  0  0  0  0  0  0
    2.5275   -0.4568   -0.9688 O   0  0  0  0  0  0  0  0  0  0  0  0
    0.5654   -0.1881    0.3957 C   0  0  0  0  0  0  0  0  0  0  0  0
   -1.6708   -1.2628    1.2445 H   0  0  0  0  0  0  0  0  0  0  0  0
   -1.5529   -2.1941   -0.3364 H   0  0  0  0  0  0  0  0  0  0  0  0
   -2.7363   -0.8899   -0.1401 H   0  0  0  0  0  0  0  0  0  0  0  0
   -0.6336   -0.1055   -1.4034 H   0  0  0  0  0  0  0  0  0  0  0  0
    0.7406    1.3773   -1.2936 H   0  0  0  0  0  0  0  0  0  0  0  0
    2.6176    0.3810    0.9159 H   0  0  0  0  0  0  0  0  0  0  0  0
    3.1149   -1.1419   -0.6093 H   0  0  0  0  0  0  0  0  0  0  0  0
    0.3185   -0.1920    1.5072 H   0  0  0  0  0  0  0  0  0  0  0  0
  1  2  1  0
  2  3  1  0
  3  4  2  0
  3  5  1  0
  5  6  1  0
  6  7  1  0
  7  8  1  0
  7  9  1  0
  9  2  1  0
  9  6  1  0
  1 10  1  0
  1 11  1  0
  1 12  1  0
  2 13  1  0
  6 14  1  0
  7 15  1  0
  8 16  1  0
  9 17  1  0
M  END
