
     RDKit          3D

 21 23  0  0  0  0  0  0  0  0999 V2000
   -2.4508    0.4321   -0.4224 C   0  0  0  0  0  0  0  0  0  0  0  0
   -1.0389    0.4034    0.0349 C   0  0  0  0  0  0  0  0  0  0  0  0
   -0.7702   -0.5902    1.1411 C   0  0  0  0  0  0  0  0  0  0  0  0
    0.6731   -1.0263    0.9601 C   0  0  0  0  0  0  0  0  0  0  0  0
    0.7015   -2.0684    0.0038 O   0  0  0  0  0  0  0  0  0  0  0  0
    0.8136   -1.1148   -1.0026 C   0  0  0  0  0  0  0  0  0  0  0  0
   -0.0332    0.0814   -1.0083 C   0  0  0  0  0  0  0  0  0  0  0  0
    1.1918   -0.1175   -0.0643 C   0  0  0  0  0  0  0  0  0  0  0  0
    2.2253    0.8605    0.0053 C   0  0  0  0  0  0  0  0  0  0  0  0
   -2.6614   -0.3894   -1.1069 H   0  0  0  0  0  0  0  0  0  0  0  0
   -3.1100    0.4069    0.4824 H   0  0  0  0  0  0  0  0  0  0  0  0
   -2.6331    1.4460   -0.8885 H   0  0  0  0  0  0  0  0  0  0  0  0
   -0.7702    1.4161    0.4574 H   0  0  0  0  0  0  0  0  0  0  0  0
   -1.4793   -1.4462    0.9610 H   0  0  0  0  0  0  0  0  0  0  0  0
   -0.9549   -0.1511    2.1324 H   0  0  0  0  0  0  0  0  0  0  0  0
    1.2467   -1.2001    1.8610 H   0  0  0  0  0  0  0  0  0  0  0  0
    1.3656   -1.3552   -1.9071 H   0  0  0  0  0  0  0  0  0  0  0  0
    0.1315    0.8071   -1.8116 H   0  0  0  0  0  0  0  0  0  0  0  0
    2.7149    0.8739    1.0175 H   0  0  0  0  0  0  0  0  0  0  0  0
    1.7959    1.9028   -0.0945 H   0  0  0  0  0  0  0  0  0  0  0  0
    3.0424    0.8289   -0.7505 H   0  0  0  0  0  0  0  0  0  0  0  0
  1  2  1  0
  2  3  1  0
  3  4  1  0
  4  5  1  0
  5  6  1  0
  6  7  1  0
  7  8  1  0
  8  9  1  0
  7  2  1  0
  8  4  1  0
  8  6  1  0
  1 10  1  0
  1 11  1  0
  1 12  1  0
  2 13  1  0
  3 14  1  0
  3 15  1  0
  4 16  1  0
  6 17  1  0
  7 18  1  0
  9 19  1  0
  9 20  1  0
  9 21  1  0
M  END
