
     RDKit          3D

 25 25  0  0  0  0  0  0  0  0999 V2000
    2.8870   -0.4537   -1.0828 C   0  0  0  0  0  0  0  0  0  0  0  0
    1.5702    0.2166   -0.7457 C   0  0  0  0  0  0  0  0  0  0  0  0
    1.4905    0.6842    0.6993 C   0  0  0  0  0  0  0  0  0  0  0  0
    0.6632   -0.4296    0.1927 C   0  0  0  0  0  0  0  0  0  0  0  0
   -0.8182   -0.2317    0.1994 C   0  0  0  0  0  0  0  0  0  0  0  0
   -1.4358   -1.0707    1.3241 C   0  0  0  0  0  0  0  0  0  0  0  0
   -1.5004   -0.6196   -1.0659 C   0  0  0  0  0  0  0  0  0  0  0  0
   -1.1993    1.2091    0.5426 C   0  0  0  0  0  0  0  0  0  0  0  0
   -2.5994    1.2843    0.5214 O   0  0  0  0  0  0  0  0  0  0  0  0
    3.2832   -0.1473   -2.0675 H   0  0  0  0  0  0  0  0  0  0  0  0
    3.6852   -0.1671   -0.3373 H   0  0  0  0  0  0  0  0  0  0  0  0
    2.8198   -1.5521   -1.0876 H   0  0  0  0  0  0  0  0  0  0  0  0
    1.2268    0.9110   -1.5479 H   0  0  0  0  0  0  0  0  0  0  0  0
    1.1047    1.7118    0.8029 H   0  0  0  0  0  0  0  0  0  0  0  0
    2.3363    0.4707    1.3811 H   0  0  0  0  0  0  0  0  0  0  0  0
    0.9851   -1.4481    0.5516 H   0  0  0  0  0  0  0  0  0  0  0  0
   -1.5941   -2.0880    0.9409 H   0  0  0  0  0  0  0  0  0  0  0  0
   -0.6941   -1.0394    2.1593 H   0  0  0  0  0  0  0  0  0  0  0  0
   -2.3829   -0.6121    1.6800 H   0  0  0  0  0  0  0  0  0  0  0  0
   -0.8385   -0.9200   -1.8784 H   0  0  0  0  0  0  0  0  0  0  0  0
   -2.1434    0.2186   -1.4645 H   0  0  0  0  0  0  0  0  0  0  0  0
   -2.2284   -1.4729   -0.9283 H   0  0  0  0  0  0  0  0  0  0  0  0
   -0.8216    1.9222   -0.1921 H   0  0  0  0  0  0  0  0  0  0  0  0
   -0.8738    1.4230    1.5832 H   0  0  0  0  0  0  0  0  0  0  0  0
   -2.9220    2.2008    0.3831 H   0  0  0  0  0  0  0  0  0  0  0  0
  1  2  1  0
  2  3  1  0
  3  4  1  0
  4  5  1  0
  5  6  1  0
  5  7  1  0
  5  8  1  0
  8  9  1  0
  4  2  1  0
  1 10  1  0
  1 11  1  0
  1 12  1  0
  2 13  1  0
  3 14  1  0
  3 15  1  0
  4 16  1  0
  6 17  1  0
  6 18  1  0
  6 19  1  0
  7 20  1  0
  7 21  1  0
  7 22  1  0
  8 23  1  0
  8 24  1  0
  9 25  1  0
M  END
