
     RDKit          3D

 23 25  0  0  0  0  0  0  0  0999 V2000
    2.7012    0.4782    0.6905 C   0  0  0  0  0  0  0  0  0  0  0  0
    1.5757   -0.4400    0.3639 C   0  0  0  0  0  0  0  0  0  0  0  0
    1.1379   -0.3216   -1.1075 C   0  0  0  0  0  0  0  0  0  0  0  0
   -0.3415   -0.1332   -0.8858 C   0  0  0  0  0  0  0  0  0  0  0  0
   -0.4563    0.8833    0.1971 C   0  0  0  0  0  0  0  0  0  0  0  0
   -1.7005    0.1546    0.6319 C   0  0  0  0  0  0  0  0  0  0  0  0
   -2.8461    0.1536   -0.3145 C   0  0  0  0  0  0  0  0  0  0  0  0
   -0.7209   -0.9435    0.3252 C   0  0  0  0  0  0  0  0  0  0  0  0
    0.2881   -0.1107    1.0453 C   0  0  0  0  0  0  0  0  0  0  0  0
    2.5674    0.9493    1.7087 H   0  0  0  0  0  0  0  0  0  0  0  0
    3.6333   -0.1503    0.7659 H   0  0  0  0  0  0  0  0  0  0  0  0
    2.8936    1.2250   -0.0840 H   0  0  0  0  0  0  0  0  0  0  0  0
    1.7933   -1.5156    0.5619 H   0  0  0  0  0  0  0  0  0  0  0  0
    1.2916   -1.2706   -1.6277 H   0  0  0  0  0  0  0  0  0  0  0  0
    1.6053    0.5544   -1.5917 H   0  0  0  0  0  0  0  0  0  0  0  0
   -0.9976   -0.1102   -1.7265 H   0  0  0  0  0  0  0  0  0  0  0  0
   -0.3167    1.8709    0.1536 H   0  0  0  0  0  0  0  0  0  0  0  0
   -1.9045    0.2758    1.6985 H   0  0  0  0  0  0  0  0  0  0  0  0
   -3.7862    0.0343    0.3008 H   0  0  0  0  0  0  0  0  0  0  0  0
   -2.9669    1.0772   -0.9029 H   0  0  0  0  0  0  0  0  0  0  0  0
   -2.8288   -0.7089   -1.0276 H   0  0  0  0  0  0  0  0  0  0  0  0
   -0.8705   -1.9295    0.3746 H   0  0  0  0  0  0  0  0  0  0  0  0
    0.2492   -0.0223    2.1091 H   0  0  0  0  0  0  0  0  0  0  0  0
  1  2  1  0
  2  3  1  0
  3  4  1  0
  4  5  1  0
  5  6  1  0
  6  7  1  0
  6  8  1  0
  8  9  1  0
  9  2  1  0
  8  4  1  0
  9  5  1  0
  1 10  1  0
  1 11  1  0
  1 12  1  0
  2 13  1  0
  3 14  1  0
  3 15  1  0
  4 16  1  0
  5 17  1  0
  6 18  1  0
  7 19  1  0
  7 20  1  0
  7 21  1  0
  8 22  1  0
  9 23  1  0
M  END
