
     RDKit          3D

 21 21  0  0  0  0  0  0  0  0999 V2000
   -1.8618   -1.2269    0.2680 C   0  0  0  0  0  0  0  0  0  0  0  0
   -0.9661   -0.1196   -0.2312 C   0  0  0  0  0  0  0  0  0  0  0  0
   -0.8470    1.0041    0.7754 C   0  0  0  0  0  0  0  0  0  0  0  0
    0.1017    1.9896    0.2023 C   0  0  0  0  0  0  0  0  0  0  0  0
    1.2672    1.5478   -0.2385 C   0  0  0  0  0  0  0  0  0  0  0  0
    1.5086    0.0857   -0.1114 C   0  0  0  0  0  0  0  0  0  0  0  0
    2.7116   -0.2991   -0.6583 O   0  0  0  0  0  0  0  0  0  0  0  0
    0.3333   -0.6053   -0.7707 C   0  0  0  0  0  0  0  0  0  0  0  0
    0.4953   -1.9843   -0.6522 O   0  0  0  0  0  0  0  0  0  0  0  0
   -2.8638   -0.7466    0.4610 H   0  0  0  0  0  0  0  0  0  0  0  0
   -2.0321   -1.9103   -0.5913 H   0  0  0  0  0  0  0  0  0  0  0  0
   -1.4942   -1.7372    1.1524 H   0  0  0  0  0  0  0  0  0  0  0  0
   -1.5284    0.3370   -1.1017 H   0  0  0  0  0  0  0  0  0  0  0  0
   -1.8496    1.4601    0.8909 H   0  0  0  0  0  0  0  0  0  0  0  0
   -0.5288    0.6408    1.7715 H   0  0  0  0  0  0  0  0  0  0  0  0
   -0.1485    3.0338    0.1456 H   0  0  0  0  0  0  0  0  0  0  0  0
    2.0508    2.1439   -0.6772 H   0  0  0  0  0  0  0  0  0  0  0  0
    1.5470   -0.2030    0.9770 H   0  0  0  0  0  0  0  0  0  0  0  0
    3.3096   -0.7820   -0.0305 H   0  0  0  0  0  0  0  0  0  0  0  0
    0.4550   -0.3892   -1.8746 H   0  0  0  0  0  0  0  0  0  0  0  0
    0.3401   -2.2394    0.2936 H   0  0  0  0  0  0  0  0  0  0  0  0
  1  2  1  0
  2  3  1  0
  3  4  1  0
  4  5  2  0
  5  6  1  0
  6  7  1  0
  6  8  1  0
  8  9  1  0
  8  2  1  0
  1 10  1  0
  1 11  1  0
  1 12  1  0
  2 13  1  0
  3 14  1  0
  3 15  1  0
  4 16  1  0
  5 17  1  0
  6 18  1  0
  7 19  1  0
  8 20  1  0
  9 21  1  0
M  END
