
     RDKit          3D

 21 22  0  0  0  0  0  0  0  0999 V2000
   -2.3323    0.7824   -0.3627 C   0  0  0  0  0  0  0  0  0  0  0  0
   -1.1246   -0.0958   -0.3217 C   0  0  0  0  0  0  0  0  0  0  0  0
    0.1770    0.7303   -0.2794 C   0  0  0  0  0  0  0  0  0  0  0  0
    0.7664    0.8021   -1.5150 O   0  0  0  0  0  0  0  0  0  0  0  0
    1.0868   -0.0579    0.6757 C   0  0  0  0  0  0  0  0  0  0  0  0
    2.4876   -0.1467    0.1246 C   0  0  0  0  0  0  0  0  0  0  0  0
    0.4145   -1.3792    0.6403 C   0  0  0  0  0  0  0  0  0  0  0  0
   -0.5188   -1.9457    1.3554 O   0  0  0  0  0  0  0  0  0  0  0  0
   -0.9916   -0.7900    0.9856 C   0  0  0  0  0  0  0  0  0  0  0  0
   -3.1670    0.2556    0.1830 H   0  0  0  0  0  0  0  0  0  0  0  0
   -2.6860    0.8859   -1.4196 H   0  0  0  0  0  0  0  0  0  0  0  0
   -2.1753    1.8014    0.0174 H   0  0  0  0  0  0  0  0  0  0  0  0
   -1.1258   -0.8106   -1.1441 H   0  0  0  0  0  0  0  0  0  0  0  0
   -0.1123    1.7015    0.1489 H   0  0  0  0  0  0  0  0  0  0  0  0
    0.1451    0.8226   -2.2778 H   0  0  0  0  0  0  0  0  0  0  0  0
    1.0888    0.3477    1.6806 H   0  0  0  0  0  0  0  0  0  0  0  0
    2.9988    0.8316    0.1268 H   0  0  0  0  0  0  0  0  0  0  0  0
    2.5067   -0.6352   -0.8655 H   0  0  0  0  0  0  0  0  0  0  0  0
    3.0592   -0.8021    0.8096 H   0  0  0  0  0  0  0  0  0  0  0  0
    0.5054   -1.8384   -0.3929 H   0  0  0  0  0  0  0  0  0  0  0  0
   -1.0027   -0.0335    1.8309 H   0  0  0  0  0  0  0  0  0  0  0  0
  1  2  1  0
  2  3  1  0
  3  4  1  0
  3  5  1  0
  5  6  1  0
  5  7  1  0
  7  8  1  0
  8  9  1  0
  9  2  1  0
  9  7  1  0
  1 10  1  0
  1 11  1  0
  1 12  1  0
  2 13  1  0
  3 14  1  0
  4 15  1  0
  5 16  1  0
  6 17  1  0
  6 18  1  0
  6 19  1  0
  7 20  1  0
  9 21  1  0
M  END
