
     RDKit          3D

 23 24  0  0  0  0  0  0  0  0999 V2000
   -1.6415   -1.7602   -0.2151 C   0  0  0  0  0  0  0  0  0  0  0  0
   -1.1997   -0.4012   -0.6535 C   0  0  0  0  0  0  0  0  0  0  0  0
   -1.0995    0.6131    0.4913 C   0  0  0  0  0  0  0  0  0  0  0  0
   -1.6665    1.9979    0.2382 C   0  0  0  0  0  0  0  0  0  0  0  0
    0.0919    0.1845   -0.3002 C   0  0  0  0  0  0  0  0  0  0  0  0
    0.5911    1.1488   -1.1827 O   0  0  0  0  0  0  0  0  0  0  0  0
    1.1683   -0.6255    0.3922 C   0  0  0  0  0  0  0  0  0  0  0  0
    2.4643   -0.0203    0.7421 C   0  0  0  0  0  0  0  0  0  0  0  0
    2.4246   -0.8971   -0.4620 C   0  0  0  0  0  0  0  0  0  0  0  0
   -2.4138   -1.6091    0.5894 H   0  0  0  0  0  0  0  0  0  0  0  0
   -0.8488   -2.3668    0.2469 H   0  0  0  0  0  0  0  0  0  0  0  0
   -2.1443   -2.3473   -1.0198 H   0  0  0  0  0  0  0  0  0  0  0  0
   -1.7375   -0.0428   -1.5759 H   0  0  0  0  0  0  0  0  0  0  0  0
   -1.1742    0.2323    1.5302 H   0  0  0  0  0  0  0  0  0  0  0  0
   -1.7906    2.0879   -0.8689 H   0  0  0  0  0  0  0  0  0  0  0  0
   -0.9110    2.7729    0.5118 H   0  0  0  0  0  0  0  0  0  0  0  0
   -2.6144    2.1468    0.7555 H   0  0  0  0  0  0  0  0  0  0  0  0
    0.7142    1.9787   -0.6294 H   0  0  0  0  0  0  0  0  0  0  0  0
    0.8104   -1.4403    1.0349 H   0  0  0  0  0  0  0  0  0  0  0  0
    2.6285    1.0654    0.6382 H   0  0  0  0  0  0  0  0  0  0  0  0
    3.0240   -0.4500    1.6130 H   0  0  0  0  0  0  0  0  0  0  0  0
    2.4905   -0.3419   -1.4374 H   0  0  0  0  0  0  0  0  0  0  0  0
    2.8338   -1.9258   -0.4389 H   0  0  0  0  0  0  0  0  0  0  0  0
  1  2  1  0
  2  3  1  0
  3  4  1  0
  3  5  1  0
  5  6  1  0
  5  7  1  0
  7  8  1  0
  8  9  1  0
  5  2  1  0
  9  7  1  0
  1 10  1  0
  1 11  1  0
  1 12  1  0
  2 13  1  0
  3 14  1  0
  4 15  1  0
  4 16  1  0
  4 17  1  0
  6 18  1  0
  7 19  1  0
  8 20  1  0
  8 21  1  0
  9 22  1  0
  9 23  1  0
M  END
