
     RDKit          3D

 20 20  0  0  0  0  0  0  0  0999 V2000
   -2.5948   -0.4947    0.1450 C   0  0  0  0  0  0  0  0  0  0  0  0
   -1.2057    0.0254   -0.2200 C   0  0  0  0  0  0  0  0  0  0  0  0
   -0.6789    1.0249    0.7923 C   0  0  0  0  0  0  0  0  0  0  0  0
   -0.0568   -0.2976    0.6381 C   0  0  0  0  0  0  0  0  0  0  0  0
   -0.3308   -1.2419    1.6560 O   0  0  0  0  0  0  0  0  0  0  0  0
    1.3372   -0.4206    0.1013 C   0  0  0  0  0  0  0  0  0  0  0  0
    1.8389    0.8371   -0.5470 C   0  0  0  0  0  0  0  0  0  0  0  0
    3.1503    0.5604   -0.9958 O   0  0  0  0  0  0  0  0  0  0  0  0
   -3.1029   -0.9642   -0.6963 H   0  0  0  0  0  0  0  0  0  0  0  0
   -3.1989    0.3564    0.5738 H   0  0  0  0  0  0  0  0  0  0  0  0
   -2.5111   -1.2411    0.9614 H   0  0  0  0  0  0  0  0  0  0  0  0
   -0.9989    0.1901   -1.2886 H   0  0  0  0  0  0  0  0  0  0  0  0
   -0.2669    1.9372    0.3266 H   0  0  0  0  0  0  0  0  0  0  0  0
   -1.2398    1.2185    1.7153 H   0  0  0  0  0  0  0  0  0  0  0  0
   -0.2619   -2.1288    1.1950 H   0  0  0  0  0  0  0  0  0  0  0  0
    1.4839   -1.2674   -0.5694 H   0  0  0  0  0  0  0  0  0  0  0  0
    2.0063   -0.6043    0.9929 H   0  0  0  0  0  0  0  0  0  0  0  0
    1.9291    1.6537    0.1742 H   0  0  0  0  0  0  0  0  0  0  0  0
    1.1940    1.1136   -1.4218 H   0  0  0  0  0  0  0  0  0  0  0  0
    3.5077   -0.2568   -0.5913 H   0  0  0  0  0  0  0  0  0  0  0  0
  1  2  1  0
  2  3  1  0
  3  4  1  0
  4  5  1  0
  4  6  1  0
  6  7  1  0
  7  8  1  0
  4  2  1  0
  1  9  1  0
  1 10  1  0
  1 11  1  0
  2 12  1  0
  3 13  1  0
  3 14  1  0
  5 15  1  0
  6 16  1  0
  6 17  1  0
  7 18  1  0
  7 19  1  0
  8 20  1  0
M  END
