
     RDKit          3D

 19 19  0  0  0  0  0  0  0  0999 V2000
   -2.5193    0.7146   -0.2683 C   0  0  0  0  0  0  0  0  0  0  0  0
   -1.1154    0.4093    0.1583 C   0  0  0  0  0  0  0  0  0  0  0  0
   -0.2664   -0.0863   -1.0196 C   0  0  0  0  0  0  0  0  0  0  0  0
    0.9257   -0.6047   -0.1970 C   0  0  0  0  0  0  0  0  0  0  0  0
    1.6056    0.5289    0.2581 O   0  0  0  0  0  0  0  0  0  0  0  0
    2.9393    0.7318   -0.0100 C   0  0  0  0  0  0  0  0  0  0  0  0
    3.5228   -0.1437   -0.6811 O   0  0  0  0  0  0  0  0  0  0  0  0
    0.1631   -1.2540    0.9367 C   0  0  0  0  0  0  0  0  0  0  0  0
   -1.0045   -0.5636    1.1133 O   0  0  0  0  0  0  0  0  0  0  0  0
   -2.5194    1.6698   -0.8279 H   0  0  0  0  0  0  0  0  0  0  0  0
   -3.1391    0.8334    0.6262 H   0  0  0  0  0  0  0  0  0  0  0  0
   -2.9313   -0.0956   -0.9129 H   0  0  0  0  0  0  0  0  0  0  0  0
   -0.6261    1.3585    0.5092 H   0  0  0  0  0  0  0  0  0  0  0  0
    0.0322    0.7219   -1.6837 H   0  0  0  0  0  0  0  0  0  0  0  0
   -0.7729   -0.9360   -1.5057 H   0  0  0  0  0  0  0  0  0  0  0  0
    1.5260   -1.3081   -0.7740 H   0  0  0  0  0  0  0  0  0  0  0  0
    3.4875    1.6196    0.3419 H   0  0  0  0  0  0  0  0  0  0  0  0
    0.7790   -1.3025    1.8508 H   0  0  0  0  0  0  0  0  0  0  0  0
   -0.0870   -2.2934    0.5775 H   0  0  0  0  0  0  0  0  0  0  0  0
  1  2  1  0
  2  3  1  0
  3  4  1  0
  4  5  1  0
  5  6  1  0
  6  7  2  0
  4  8  1  0
  8  9  1  0
  9  2  1  0
  1 10  1  0
  1 11  1  0
  1 12  1  0
  2 13  1  0
  3 14  1  0
  3 15  1  0
  4 16  1  0
  6 17  1  0
  8 18  1  0
  8 19  1  0
M  END
