
     RDKit          3D

 24 24  0  0  0  0  0  0  0  0999 V2000
    2.4673    0.0443   -0.4622 C   0  0  0  0  0  0  0  0  0  0  0  0
    1.2538    0.5090    0.2891 C   0  0  0  0  0  0  0  0  0  0  0  0
    0.5304   -0.5384    1.0840 C   0  0  0  0  0  0  0  0  0  0  0  0
   -0.6210   -0.5338    0.1038 C   0  0  0  0  0  0  0  0  0  0  0  0
   -0.7006   -1.7670   -0.7699 C   0  0  0  0  0  0  0  0  0  0  0  0
   -1.9749   -0.2937    0.7512 C   0  0  0  0  0  0  0  0  0  0  0  0
   -0.0020    0.6706   -0.5444 C   0  0  0  0  0  0  0  0  0  0  0  0
   -0.6501    1.9904   -0.2492 C   0  0  0  0  0  0  0  0  0  0  0  0
    3.2385   -0.2320    0.2842 H   0  0  0  0  0  0  0  0  0  0  0  0
    2.8305    0.8609   -1.0915 H   0  0  0  0  0  0  0  0  0  0  0  0
    2.2903   -0.8331   -1.0933 H   0  0  0  0  0  0  0  0  0  0  0  0
    1.5106    1.3703    0.9302 H   0  0  0  0  0  0  0  0  0  0  0  0
    1.1138   -1.4570    1.1452 H   0  0  0  0  0  0  0  0  0  0  0  0
    0.2130   -0.2011    2.1060 H   0  0  0  0  0  0  0  0  0  0  0  0
    0.2699   -2.1290   -1.1132 H   0  0  0  0  0  0  0  0  0  0  0  0
   -1.1433   -2.5774   -0.1429 H   0  0  0  0  0  0  0  0  0  0  0  0
   -1.3776   -1.5369   -1.6124 H   0  0  0  0  0  0  0  0  0  0  0  0
   -2.1852   -1.1908    1.3937 H   0  0  0  0  0  0  0  0  0  0  0  0
   -2.7277   -0.2817   -0.0545 H   0  0  0  0  0  0  0  0  0  0  0  0
   -2.0036    0.6087    1.3669 H   0  0  0  0  0  0  0  0  0  0  0  0
    0.1296    0.4857   -1.6326 H   0  0  0  0  0  0  0  0  0  0  0  0
   -1.7535    1.9136   -0.2784 H   0  0  0  0  0  0  0  0  0  0  0  0
   -0.3264    2.4441    0.6982 H   0  0  0  0  0  0  0  0  0  0  0  0
   -0.3817    2.6743   -1.1077 H   0  0  0  0  0  0  0  0  0  0  0  0
  1  2  1  0
  2  3  1  0
  3  4  1  0
  4  5  1  0
  4  6  1  0
  4  7  1  0
  7  8  1  0
  7  2  1  0
  1  9  1  0
  1 10  1  0
  1 11  1  0
  2 12  1  0
  3 13  1  0
  3 14  1  0
  5 15  1  0
  5 16  1  0
  5 17  1  0
  6 18  1  0
  6 19  1  0
  6 20  1  0
  7 21  1  0
  8 22  1  0
  8 23  1  0
  8 24  1  0
M  END
