
     RDKit          3D

 23 24  0  0  0  0  0  0  0  0999 V2000
   -2.1958   -1.0475    0.0923 C   0  0  0  0  0  0  0  0  0  0  0  0
   -0.7178   -0.9316   -0.0488 C   0  0  0  0  0  0  0  0  0  0  0  0
   -0.4288    0.0849   -1.1723 C   0  0  0  0  0  0  0  0  0  0  0  0
    0.3867    1.0792   -0.3837 C   0  0  0  0  0  0  0  0  0  0  0  0
    0.8800    2.1608   -0.9754 O   0  0  0  0  0  0  0  0  0  0  0  0
   -0.4000    1.2238    0.9039 C   0  0  0  0  0  0  0  0  0  0  0  0
   -0.0214   -0.2552    1.0730 C   0  0  0  0  0  0  0  0  0  0  0  0
    1.3014    0.2130    0.4665 C   0  0  0  0  0  0  0  0  0  0  0  0
    2.1166   -0.7893   -0.2364 C   0  0  0  0  0  0  0  0  0  0  0  0
   -2.5049   -1.8707    0.7465 H   0  0  0  0  0  0  0  0  0  0  0  0
   -2.6116   -1.2834   -0.9315 H   0  0  0  0  0  0  0  0  0  0  0  0
   -2.7041   -0.1244    0.4058 H   0  0  0  0  0  0  0  0  0  0  0  0
   -0.3130   -1.9212   -0.3119 H   0  0  0  0  0  0  0  0  0  0  0  0
   -1.3549    0.4911   -1.5795 H   0  0  0  0  0  0  0  0  0  0  0  0
    0.1589   -0.4339   -1.9396 H   0  0  0  0  0  0  0  0  0  0  0  0
    0.6612    3.0263   -0.5714 H   0  0  0  0  0  0  0  0  0  0  0  0
    0.1533    1.7921    1.6969 H   0  0  0  0  0  0  0  0  0  0  0  0
   -1.4529    1.4321    0.8205 H   0  0  0  0  0  0  0  0  0  0  0  0
   -0.0105   -0.6509    2.0566 H   0  0  0  0  0  0  0  0  0  0  0  0
    1.8274    0.8897    1.1972 H   0  0  0  0  0  0  0  0  0  0  0  0
    1.9290   -1.8353    0.0158 H   0  0  0  0  0  0  0  0  0  0  0  0
    2.1020   -0.6503   -1.3575 H   0  0  0  0  0  0  0  0  0  0  0  0
    3.1990   -0.5995    0.0330 H   0  0  0  0  0  0  0  0  0  0  0  0
  1  2  1  0
  2  3  1  0
  3  4  1  0
  4  5  1  0
  4  6  1  0
  6  7  1  0
  7  8  1  0
  8  9  1  0
  7  2  1  0
  8  4  1  0
  1 10  1  0
  1 11  1  0
  1 12  1  0
  2 13  1  0
  3 14  1  0
  3 15  1  0
  5 16  1  0
  6 17  1  0
  6 18  1  0
  7 19  1  0
  8 20  1  0
  9 21  1  0
  9 22  1  0
  9 23  1  0
M  END
