
     RDKit          3D

 18 18  0  0  0  0  0  0  0  0999 V2000
   -1.9982   -1.1456    0.1678 C   0  0  0  0  0  0  0  0  0  0  0  0
   -0.8342   -0.2736    0.5631 C   0  0  0  0  0  0  0  0  0  0  0  0
   -0.3868    0.6804   -0.5378 C   0  0  0  0  0  0  0  0  0  0  0  0
   -0.0640    2.0645   -0.0506 C   0  0  0  0  0  0  0  0  0  0  0  0
    0.4570   -0.4898   -0.1262 C   0  0  0  0  0  0  0  0  0  0  0  0
    1.6785   -0.1324    0.4933 O   0  0  0  0  0  0  0  0  0  0  0  0
    2.8290   -0.8434    0.1836 C   0  0  0  0  0  0  0  0  0  0  0  0
    2.7335   -1.7782   -0.6380 O   0  0  0  0  0  0  0  0  0  0  0  0
   -2.4596   -1.6488    1.0313 H   0  0  0  0  0  0  0  0  0  0  0  0
   -1.6812   -1.9465   -0.5412 H   0  0  0  0  0  0  0  0  0  0  0  0
   -2.7699   -0.5555   -0.3940 H   0  0  0  0  0  0  0  0  0  0  0  0
   -0.8281    0.0843    1.6109 H   0  0  0  0  0  0  0  0  0  0  0  0
   -0.8749    0.6276   -1.5178 H   0  0  0  0  0  0  0  0  0  0  0  0
   -0.7517    2.2991    0.8110 H   0  0  0  0  0  0  0  0  0  0  0  0
   -0.3131    2.8273   -0.8229 H   0  0  0  0  0  0  0  0  0  0  0  0
    0.9782    2.1863    0.2787 H   0  0  0  0  0  0  0  0  0  0  0  0
    0.4884   -1.3421   -0.8447 H   0  0  0  0  0  0  0  0  0  0  0  0
    3.7970   -0.6135    0.6290 H   0  0  0  0  0  0  0  0  0  0  0  0
  1  2  1  0
  2  3  1  0
  3  4  1  0
  3  5  1  0
  5  6  1  0
  6  7  1  0
  7  8  2  0
  5  2  1  0
  1  9  1  0
  1 10  1  0
  1 11  1  0
  2 12  1  0
  3 13  1  0
  4 14  1  0
  4 15  1  0
  4 16  1  0
  5 17  1  0
  7 18  1  0
M  END
