
     RDKit          3D

 23 23  0  0  0  0  0  0  0  0999 V2000
   -2.2649    0.7313   -0.4974 C   0  0  0  0  0  0  0  0  0  0  0  0
   -0.9710    0.9078    0.2801 C   0  0  0  0  0  0  0  0  0  0  0  0
   -0.9389   -0.0103    1.4966 C   0  0  0  0  0  0  0  0  0  0  0  0
   -0.7005   -1.4205    1.0856 C   0  0  0  0  0  0  0  0  0  0  0  0
    0.2021   -1.6748    0.1474 C   0  0  0  0  0  0  0  0  0  0  0  0
    0.9478   -0.5672   -0.4674 C   0  0  0  0  0  0  0  0  0  0  0  0
    2.2653   -0.3392    0.2865 C   0  0  0  0  0  0  0  0  0  0  0  0
    2.9083    0.7192   -0.3535 O   0  0  0  0  0  0  0  0  0  0  0  0
    0.2346    0.7244   -0.5694 C   0  0  0  0  0  0  0  0  0  0  0  0
   -2.0684    0.4666   -1.5574 H   0  0  0  0  0  0  0  0  0  0  0  0
   -2.7950   -0.1335   -0.0514 H   0  0  0  0  0  0  0  0  0  0  0  0
   -2.9250    1.6204   -0.4242 H   0  0  0  0  0  0  0  0  0  0  0  0
   -1.0029    1.9479    0.7044 H   0  0  0  0  0  0  0  0  0  0  0  0
   -1.9342    0.1035    1.9844 H   0  0  0  0  0  0  0  0  0  0  0  0
   -0.1196    0.3291    2.1622 H   0  0  0  0  0  0  0  0  0  0  0  0
   -1.2610   -2.2086    1.5533 H   0  0  0  0  0  0  0  0  0  0  0  0
    0.3478   -2.7280   -0.1279 H   0  0  0  0  0  0  0  0  0  0  0  0
    1.2802   -0.9376   -1.4808 H   0  0  0  0  0  0  0  0  0  0  0  0
    2.9037   -1.2642    0.1875 H   0  0  0  0  0  0  0  0  0  0  0  0
    2.0806   -0.1696    1.3488 H   0  0  0  0  0  0  0  0  0  0  0  0
    3.0032    1.4517    0.2896 H   0  0  0  0  0  0  0  0  0  0  0  0
   -0.1046    0.8341   -1.6421 H   0  0  0  0  0  0  0  0  0  0  0  0
    0.9124    1.6175   -0.4285 H   0  0  0  0  0  0  0  0  0  0  0  0
  1  2  1  0
  2  3  1  0
  3  4  1  0
  4  5  2  0
  5  6  1  0
  6  7  1  0
  7  8  1  0
  6  9  1  0
  9  2  1  0
  1 10  1  0
  1 11  1  0
  1 12  1  0
  2 13  1  0
  3 14  1  0
  3 15  1  0
  4 16  1  0
  5 17  1  0
  6 18  1  0
  7 19  1  0
  7 20  1  0
  8 21  1  0
  9 22  1  0
  9 23  1  0
M  END
