
     RDKit          3D

 23 24  0  0  0  0  0  0  0  0999 V2000
    2.1823   -0.1026    0.9000 C   0  0  0  0  0  0  0  0  0  0  0  0
    1.3096   -0.1820   -0.2898 C   0  0  0  0  0  0  0  0  0  0  0  0
    0.8696   -1.6273   -0.5347 C   0  0  0  0  0  0  0  0  0  0  0  0
   -0.3974   -1.7245   -0.0294 O   0  0  0  0  0  0  0  0  0  0  0  0
   -1.0382   -0.5299   -0.1275 C   0  0  0  0  0  0  0  0  0  0  0  0
   -2.3579   -0.3852    0.5213 C   0  0  0  0  0  0  0  0  0  0  0  0
   -0.8980    0.2980   -1.4050 C   0  0  0  0  0  0  0  0  0  0  0  0
   -0.0052    0.5088   -0.1779 C   0  0  0  0  0  0  0  0  0  0  0  0
   -0.1427    1.8372    0.4844 C   0  0  0  0  0  0  0  0  0  0  0  0
    2.2280    0.8480    1.4169 H   0  0  0  0  0  0  0  0  0  0  0  0
    1.9114   -0.9384    1.6060 H   0  0  0  0  0  0  0  0  0  0  0  0
    3.2325   -0.3616    0.5744 H   0  0  0  0  0  0  0  0  0  0  0  0
    1.8165    0.1562   -1.2338 H   0  0  0  0  0  0  0  0  0  0  0  0
    1.5441   -2.3364   -0.0240 H   0  0  0  0  0  0  0  0  0  0  0  0
    0.8350   -1.8437   -1.6155 H   0  0  0  0  0  0  0  0  0  0  0  0
   -3.1278   -0.8430   -0.1684 H   0  0  0  0  0  0  0  0  0  0  0  0
   -2.6467    0.6990    0.5690 H   0  0  0  0  0  0  0  0  0  0  0  0
   -2.4833   -0.9018    1.4812 H   0  0  0  0  0  0  0  0  0  0  0  0
   -0.4897   -0.2041   -2.2855 H   0  0  0  0  0  0  0  0  0  0  0  0
   -1.6423    1.0690   -1.6227 H   0  0  0  0  0  0  0  0  0  0  0  0
   -1.0238    1.7861    1.1764 H   0  0  0  0  0  0  0  0  0  0  0  0
   -0.3903    2.6092   -0.2777 H   0  0  0  0  0  0  0  0  0  0  0  0
    0.7143    2.1690    1.0623 H   0  0  0  0  0  0  0  0  0  0  0  0
  1  2  1  0
  2  3  1  0
  3  4  1  0
  4  5  1  0
  5  6  1  0
  5  7  1  0
  7  8  1  0
  8  9  1  0
  8  2  1  0
  8  5  1  0
  1 10  1  0
  1 11  1  0
  1 12  1  0
  2 13  1  0
  3 14  1  0
  3 15  1  0
  6 16  1  0
  6 17  1  0
  6 18  1  0
  7 19  1  0
  7 20  1  0
  9 21  1  0
  9 22  1  0
  9 23  1  0
M  END
