
     RDKit          3D

 20 21  0  0  0  0  0  0  0  0999 V2000
    1.9588    1.1453    0.0118 C   0  0  0  0  0  0  0  0  0  0  0  0
    1.2179   -0.0681    0.4818 C   0  0  0  0  0  0  0  0  0  0  0  0
    1.1456   -1.3072   -0.3384 C   0  0  0  0  0  0  0  0  0  0  0  0
   -0.0457   -0.5164   -0.0948 C   0  0  0  0  0  0  0  0  0  0  0  0
   -0.7768    0.2498   -1.1597 C   0  0  0  0  0  0  0  0  0  0  0  0
   -1.9184    0.8617   -0.3821 C   0  0  0  0  0  0  0  0  0  0  0  0
   -2.1050    0.1959    0.7439 C   0  0  0  0  0  0  0  0  0  0  0  0
   -1.1405   -0.9049    0.8486 C   0  0  0  0  0  0  0  0  0  0  0  0
    3.0508    0.9235    0.1177 H   0  0  0  0  0  0  0  0  0  0  0  0
    1.7544    1.9645    0.7570 H   0  0  0  0  0  0  0  0  0  0  0  0
    1.6986    1.4808   -0.9915 H   0  0  0  0  0  0  0  0  0  0  0  0
    1.3647   -0.2636    1.5845 H   0  0  0  0  0  0  0  0  0  0  0  0
    1.3121   -2.3116    0.1391 H   0  0  0  0  0  0  0  0  0  0  0  0
    1.5824   -1.3035   -1.3795 H   0  0  0  0  0  0  0  0  0  0  0  0
   -1.2549   -0.4037   -1.9121 H   0  0  0  0  0  0  0  0  0  0  0  0
   -0.1784    0.9990   -1.6773 H   0  0  0  0  0  0  0  0  0  0  0  0
   -2.4955    1.7082   -0.6897 H   0  0  0  0  0  0  0  0  0  0  0  0
   -2.8640    0.4343    1.4806 H   0  0  0  0  0  0  0  0  0  0  0  0
   -1.5659   -1.8893    0.5841 H   0  0  0  0  0  0  0  0  0  0  0  0
   -0.7402   -0.9946    1.8760 H   0  0  0  0  0  0  0  0  0  0  0  0
  1  2  1  0
  2  3  1  0
  3  4  1  0
  4  5  1  0
  5  6  1  0
  6  7  2  0
  7  8  1  0
  4  2  1  0
  8  4  1  0
  1  9  1  0
  1 10  1  0
  1 11  1  0
  2 12  1  0
  3 13  1  0
  3 14  1  0
  5 15  1  0
  5 16  1  0
  6 17  1  0
  7 18  1  0
  8 19  1  0
  8 20  1  0
M  END
