
     RDKit          3D

 19 19  0  0  0  0  0  0  0  0999 V2000
   -1.1386   -1.5304   -0.0940 C   0  0  0  0  0  0  0  0  0  0  0  0
   -1.1358   -0.0714    0.1971 C   0  0  0  0  0  0  0  0  0  0  0  0
   -1.0536    0.9001   -0.9687 C   0  0  0  0  0  0  0  0  0  0  0  0
    0.0823    0.8008    0.0362 C   0  0  0  0  0  0  0  0  0  0  0  0
    0.1828    1.7955    1.0471 C   0  0  0  0  0  0  0  0  0  0  0  0
   -0.4031    2.9219    0.8223 O   0  0  0  0  0  0  0  0  0  0  0  0
    1.3387    0.1030   -0.4651 C   0  0  0  0  0  0  0  0  0  0  0  0
    1.8372   -1.0343    0.3174 C   0  0  0  0  0  0  0  0  0  0  0  0
    1.8954   -1.1048    1.5227 O   0  0  0  0  0  0  0  0  0  0  0  0
   -0.3269   -1.9211   -0.6993 H   0  0  0  0  0  0  0  0  0  0  0  0
   -2.1119   -1.7661   -0.6412 H   0  0  0  0  0  0  0  0  0  0  0  0
   -1.2127   -2.0793    0.9084 H   0  0  0  0  0  0  0  0  0  0  0  0
   -1.8142    0.1893    1.0467 H   0  0  0  0  0  0  0  0  0  0  0  0
   -1.7299    1.7545   -0.9464 H   0  0  0  0  0  0  0  0  0  0  0  0
   -0.8522    0.4361   -1.9701 H   0  0  0  0  0  0  0  0  0  0  0  0
    0.7036    1.7073    2.0266 H   0  0  0  0  0  0  0  0  0  0  0  0
    2.1881    0.8972   -0.3507 H   0  0  0  0  0  0  0  0  0  0  0  0
    1.3444   -0.0803   -1.5375 H   0  0  0  0  0  0  0  0  0  0  0  0
    2.2063   -1.9179   -0.2514 H   0  0  0  0  0  0  0  0  0  0  0  0
  1  2  1  0
  2  3  1  0
  3  4  1  0
  4  5  1  0
  5  6  2  0
  4  7  1  0
  7  8  1  0
  8  9  2  0
  4  2  1  0
  1 10  1  0
  1 11  1  0
  1 12  1  0
  2 13  1  0
  3 14  1  0
  3 15  1  0
  5 16  1  0
  7 17  1  0
  7 18  1  0
  8 19  1  0
M  END
