
     RDKit          3D

 17 17  0  0  0  0  0  0  0  0999 V2000
   -2.3887   -0.7113    0.0632 C   0  0  0  0  0  0  0  0  0  0  0  0
   -1.0734    0.0134    0.0181 C   0  0  0  0  0  0  0  0  0  0  0  0
    0.1134   -0.6861    0.0140 C   0  0  0  0  0  0  0  0  0  0  0  0
    1.3325   -0.0353   -0.0272 C   0  0  0  0  0  0  0  0  0  0  0  0
    2.5849   -0.8293   -0.0300 C   0  0  0  0  0  0  0  0  0  0  0  0
    1.2928    1.2662   -0.0617 O   0  0  0  0  0  0  0  0  0  0  0  0
    0.2101    1.9870   -0.0603 C   0  0  0  0  0  0  0  0  0  0  0  0
    0.2283    3.2559   -0.0951 O   0  0  0  0  0  0  0  0  0  0  0  0
   -1.0240    1.3873   -0.0201 C   0  0  0  0  0  0  0  0  0  0  0  0
   -2.1890   -1.7524   -0.2377 H   0  0  0  0  0  0  0  0  0  0  0  0
   -3.1214   -0.2391   -0.6254 H   0  0  0  0  0  0  0  0  0  0  0  0
   -2.7543   -0.6215    1.1127 H   0  0  0  0  0  0  0  0  0  0  0  0
    0.0917   -1.7676    0.0438 H   0  0  0  0  0  0  0  0  0  0  0  0
    2.6434   -1.5100   -0.9114 H   0  0  0  0  0  0  0  0  0  0  0  0
    3.4662   -0.1885   -0.0225 H   0  0  0  0  0  0  0  0  0  0  0  0
    2.5380   -1.5175    0.8570 H   0  0  0  0  0  0  0  0  0  0  0  0
   -1.9507    1.9488   -0.0174 H   0  0  0  0  0  0  0  0  0  0  0  0
  1  2  1  0
  2  3  1  0
  3  4  2  0
  4  5  1  0
  4  6  1  0
  6  7  1  0
  7  8  2  0
  7  9  1  0
  9  2  2  0
  1 10  1  0
  1 11  1  0
  1 12  1  0
  3 13  1  0
  5 14  1  0
  5 15  1  0
  5 16  1  0
  9 17  1  0
M  END
