
     RDKit          3D

 17 17  0  0  0  0  0  0  0  0999 V2000
   -1.5428   -1.2732   -0.7633 C   0  0  0  0  0  0  0  0  0  0  0  0
   -1.0650    0.0876   -0.3936 C   0  0  0  0  0  0  0  0  0  0  0  0
   -1.9086    0.8693    0.5713 C   0  0  0  0  0  0  0  0  0  0  0  0
   -0.7057    1.3911    1.1025 O   0  0  0  0  0  0  0  0  0  0  0  0
   -0.1260    0.1607    0.7898 C   0  0  0  0  0  0  0  0  0  0  0  0
    1.2689    0.2009    0.4052 C   0  0  0  0  0  0  0  0  0  0  0  0
    2.4421    0.2340    0.1019 C   0  0  0  0  0  0  0  0  0  0  0  0
    3.8317    0.2843   -0.2770 C   0  0  0  0  0  0  0  0  0  0  0  0
    4.7263   -0.3434    0.3471 O   0  0  0  0  0  0  0  0  0  0  0  0
   -0.6811   -1.9678   -0.7102 H   0  0  0  0  0  0  0  0  0  0  0  0
   -1.9948   -1.2368   -1.7715 H   0  0  0  0  0  0  0  0  0  0  0  0
   -2.3217   -1.5866   -0.0498 H   0  0  0  0  0  0  0  0  0  0  0  0
   -0.7365    0.7050   -1.2455 H   0  0  0  0  0  0  0  0  0  0  0  0
   -2.4463    0.1982    1.2969 H   0  0  0  0  0  0  0  0  0  0  0  0
   -2.4963    1.6909    0.1621 H   0  0  0  0  0  0  0  0  0  0  0  0
   -0.3897   -0.5892    1.5581 H   0  0  0  0  0  0  0  0  0  0  0  0
    4.1455    0.8748   -1.1240 H   0  0  0  0  0  0  0  0  0  0  0  0
  1  2  1  0
  2  3  1  0
  3  4  1  0
  4  5  1  0
  5  6  1  0
  6  7  3  0
  7  8  1  0
  8  9  2  0
  5  2  1  0
  1 10  1  0
  1 11  1  0
  1 12  1  0
  2 13  1  0
  3 14  1  0
  3 15  1  0
  5 16  1  0
  8 17  1  0
M  END
