
     RDKit          3D

 23 24  0  0  0  0  0  0  0  0999 V2000
   -2.1217   -1.4076   -0.0993 C   0  0  0  0  0  0  0  0  0  0  0  0
   -0.7108   -1.0242   -0.4574 C   0  0  0  0  0  0  0  0  0  0  0  0
    0.1498   -0.6959    0.7523 C   0  0  0  0  0  0  0  0  0  0  0  0
    1.5898   -1.0840    0.5943 C   0  0  0  0  0  0  0  0  0  0  0  0
    2.1990    0.1647    0.0009 C   0  0  0  0  0  0  0  0  0  0  0  0
    1.1030    0.7026   -0.8900 C   0  0  0  0  0  0  0  0  0  0  0  0
   -0.1892    0.3389   -0.2279 C   0  0  0  0  0  0  0  0  0  0  0  0
   -1.1101    1.4817    0.0648 C   0  0  0  0  0  0  0  0  0  0  0  0
   -0.3297    2.6207    0.2311 O   0  0  0  0  0  0  0  0  0  0  0  0
   -2.7940   -1.5110   -0.9495 H   0  0  0  0  0  0  0  0  0  0  0  0
   -2.5348   -0.7282    0.6895 H   0  0  0  0  0  0  0  0  0  0  0  0
   -2.0616   -2.4128    0.3898 H   0  0  0  0  0  0  0  0  0  0  0  0
   -0.2710   -1.6454   -1.2668 H   0  0  0  0  0  0  0  0  0  0  0  0
   -0.3128   -0.6381    1.7470 H   0  0  0  0  0  0  0  0  0  0  0  0
    1.7070   -1.8870   -0.1901 H   0  0  0  0  0  0  0  0  0  0  0  0
    2.0765   -1.4295    1.5046 H   0  0  0  0  0  0  0  0  0  0  0  0
    2.5017    0.9012    0.7726 H   0  0  0  0  0  0  0  0  0  0  0  0
    3.1007   -0.1369   -0.5884 H   0  0  0  0  0  0  0  0  0  0  0  0
    1.2101    1.8127   -1.0055 H   0  0  0  0  0  0  0  0  0  0  0  0
    1.1406    0.2808   -1.9063 H   0  0  0  0  0  0  0  0  0  0  0  0
   -1.7915    1.6053   -0.8221 H   0  0  0  0  0  0  0  0  0  0  0  0
   -1.7448    1.3528    0.9411 H   0  0  0  0  0  0  0  0  0  0  0  0
   -0.8060    3.3392    0.7153 H   0  0  0  0  0  0  0  0  0  0  0  0
  1  2  1  0
  2  3  1  0
  3  4  1  0
  4  5  1  0
  5  6  1  0
  6  7  1  0
  7  8  1  0
  8  9  1  0
  7  2  1  0
  7  3  1  0
  1 10  1  0
  1 11  1  0
  1 12  1  0
  2 13  1  0
  3 14  1  0
  4 15  1  0
  4 16  1  0
  5 17  1  0
  5 18  1  0
  6 19  1  0
  6 20  1  0
  8 21  1  0
  8 22  1  0
  9 23  1  0
M  END
