
     RDKit          3D

 21 21  0  0  0  0  0  0  0  0999 V2000
   -2.3683    0.8260   -0.2102 C   0  0  0  0  0  0  0  0  0  0  0  0
   -1.4361   -0.1292    0.4844 C   0  0  0  0  0  0  0  0  0  0  0  0
   -1.2721   -1.3221   -0.3858 C   0  0  0  0  0  0  0  0  0  0  0  0
   -0.1146   -1.8203   -0.7503 C   0  0  0  0  0  0  0  0  0  0  0  0
    1.1190   -1.1433   -0.2577 C   0  0  0  0  0  0  0  0  0  0  0  0
    0.7418    0.3211   -0.0436 C   0  0  0  0  0  0  0  0  0  0  0  0
    1.9318    1.1733    0.2344 C   0  0  0  0  0  0  0  0  0  0  0  0
    2.5544    0.9057    1.4270 O   0  0  0  0  0  0  0  0  0  0  0  0
   -0.2588    0.4274    0.8898 O   0  0  0  0  0  0  0  0  0  0  0  0
   -3.2057    0.2025   -0.6390 H   0  0  0  0  0  0  0  0  0  0  0  0
   -2.8791    1.5008    0.5300 H   0  0  0  0  0  0  0  0  0  0  0  0
   -1.9064    1.3683   -1.0349 H   0  0  0  0  0  0  0  0  0  0  0  0
   -1.9777   -0.4865    1.4024 H   0  0  0  0  0  0  0  0  0  0  0  0
   -2.1802   -1.8012   -0.7343 H   0  0  0  0  0  0  0  0  0  0  0  0
   -0.0638   -2.6910   -1.3853 H   0  0  0  0  0  0  0  0  0  0  0  0
    1.9155   -1.1415   -1.0298 H   0  0  0  0  0  0  0  0  0  0  0  0
    1.4526   -1.5924    0.6997 H   0  0  0  0  0  0  0  0  0  0  0  0
    0.3138    0.6557   -1.0246 H   0  0  0  0  0  0  0  0  0  0  0  0
    1.6196    2.2327    0.1712 H   0  0  0  0  0  0  0  0  0  0  0  0
    2.6717    0.9982   -0.5823 H   0  0  0  0  0  0  0  0  0  0  0  0
    3.3425    1.5160    1.4915 H   0  0  0  0  0  0  0  0  0  0  0  0
  1  2  1  0
  2  3  1  0
  3  4  2  0
  4  5  1  0
  5  6  1  0
  6  7  1  0
  7  8  1  0
  6  9  1  0
  9  2  1  0
  1 10  1  0
  1 11  1  0
  1 12  1  0
  2 13  1  0
  3 14  1  0
  4 15  1  0
  5 16  1  0
  5 17  1  0
  6 18  1  0
  7 19  1  0
  7 20  1  0
  8 21  1  0
M  END
