
     RDKit          3D

 21 21  0  0  0  0  0  0  0  0999 V2000
   -3.0210   -0.4678    1.0438 C   0  0  0  0  0  0  0  0  0  0  0  0
   -1.8366    0.1816    0.4030 C   0  0  0  0  0  0  0  0  0  0  0  0
   -1.7220   -0.0884   -1.0933 C   0  0  0  0  0  0  0  0  0  0  0  0
   -0.6971   -0.5773   -0.1193 C   0  0  0  0  0  0  0  0  0  0  0  0
    0.6570    0.1223   -0.1422 C   0  0  0  0  0  0  0  0  0  0  0  0
    1.5736   -0.7494   -0.6602 O   0  0  0  0  0  0  0  0  0  0  0  0
    2.8585   -0.3015   -0.7637 C   0  0  0  0  0  0  0  0  0  0  0  0
    3.3601    0.0465    0.5932 C   0  0  0  0  0  0  0  0  0  0  0  0
    4.5012    0.4841    0.7534 O   0  0  0  0  0  0  0  0  0  0  0  0
   -3.9366    0.0727    0.7074 H   0  0  0  0  0  0  0  0  0  0  0  0
   -3.1455   -1.5222    0.7273 H   0  0  0  0  0  0  0  0  0  0  0  0
   -2.9962   -0.3623    2.1483 H   0  0  0  0  0  0  0  0  0  0  0  0
   -1.6890    1.2426    0.6711 H   0  0  0  0  0  0  0  0  0  0  0  0
   -1.4857    0.7692   -1.7629 H   0  0  0  0  0  0  0  0  0  0  0  0
   -2.4337   -0.7966   -1.5608 H   0  0  0  0  0  0  0  0  0  0  0  0
   -0.6360   -1.6945    0.0368 H   0  0  0  0  0  0  0  0  0  0  0  0
    0.5463    1.0432   -0.7819 H   0  0  0  0  0  0  0  0  0  0  0  0
    0.8847    0.5041    0.8700 H   0  0  0  0  0  0  0  0  0  0  0  0
    3.5109   -1.1182   -1.1521 H   0  0  0  0  0  0  0  0  0  0  0  0
    2.9781    0.6085   -1.3833 H   0  0  0  0  0  0  0  0  0  0  0  0
    2.7291   -0.0794    1.4657 H   0  0  0  0  0  0  0  0  0  0  0  0
  1  2  1  0
  2  3  1  0
  3  4  1  0
  4  5  1  0
  5  6  1  0
  6  7  1  0
  7  8  1  0
  8  9  2  0
  4  2  1  0
  1 10  1  0
  1 11  1  0
  1 12  1  0
  2 13  1  0
  3 14  1  0
  3 15  1  0
  4 16  1  0
  5 17  1  0
  5 18  1  0
  7 19  1  0
  7 20  1  0
  8 21  1  0
M  END
