
     RDKit          3D

 21 22  0  0  0  0  0  0  0  0999 V2000
    2.4067    0.0641   -0.3821 C   0  0  0  0  0  0  0  0  0  0  0  0
    0.9317   -0.1505   -0.5525 C   0  0  0  0  0  0  0  0  0  0  0  0
    0.1564    1.0910   -0.1993 C   0  0  0  0  0  0  0  0  0  0  0  0
   -1.3043    0.9940   -0.5658 C   0  0  0  0  0  0  0  0  0  0  0  0
   -1.9179   -0.3150   -0.1863 C   0  0  0  0  0  0  0  0  0  0  0  0
   -0.9788   -1.3130    0.3854 C   0  0  0  0  0  0  0  0  0  0  0  0
    0.3603   -0.7202    0.7549 C   0  0  0  0  0  0  0  0  0  0  0  0
    0.2616    0.6685    1.2255 C   0  0  0  0  0  0  0  0  0  0  0  0
    0.2605    1.2602    2.2798 O   0  0  0  0  0  0  0  0  0  0  0  0
    2.8990   -0.9283   -0.4327 H   0  0  0  0  0  0  0  0  0  0  0  0
    2.5629    0.4181    0.6777 H   0  0  0  0  0  0  0  0  0  0  0  0
    2.8291    0.8011   -1.0842 H   0  0  0  0  0  0  0  0  0  0  0  0
    0.6004   -0.7133   -1.4242 H   0  0  0  0  0  0  0  0  0  0  0  0
    0.5923    2.0478   -0.4624 H   0  0  0  0  0  0  0  0  0  0  0  0
   -1.8170    1.7868    0.0568 H   0  0  0  0  0  0  0  0  0  0  0  0
   -1.4881    1.2923   -1.6128 H   0  0  0  0  0  0  0  0  0  0  0  0
   -2.7686   -0.1978    0.5464 H   0  0  0  0  0  0  0  0  0  0  0  0
   -2.4227   -0.7160   -1.1124 H   0  0  0  0  0  0  0  0  0  0  0  0
   -1.4184   -1.9003    1.2161 H   0  0  0  0  0  0  0  0  0  0  0  0
   -0.7618   -2.0744   -0.4205 H   0  0  0  0  0  0  0  0  0  0  0  0
    1.0167   -1.3950    1.2925 H   0  0  0  0  0  0  0  0  0  0  0  0
  1  2  1  0
  2  3  1  0
  3  4  1  0
  4  5  1  0
  5  6  1  0
  6  7  1  0
  7  8  1  0
  8  9  2  0
  7  2  1  0
  8  3  1  0
  1 10  1  0
  1 11  1  0
  1 12  1  0
  2 13  1  0
  3 14  1  0
  4 15  1  0
  4 16  1  0
  5 17  1  0
  5 18  1  0
  6 19  1  0
  6 20  1  0
  7 21  1  0
M  END
