
     RDKit          3D

 19 20  0  0  0  0  0  0  0  0999 V2000
    2.0503    0.0871   -0.3418 C   0  0  0  0  0  0  0  0  0  0  0  0
    0.8835   -0.4084    0.4865 C   0  0  0  0  0  0  0  0  0  0  0  0
    0.2456    0.8311    1.0656 C   0  0  0  0  0  0  0  0  0  0  0  0
   -0.5855    1.4814    0.2577 C   0  0  0  0  0  0  0  0  0  0  0  0
   -1.3042    0.7504   -0.8280 C   0  0  0  0  0  0  0  0  0  0  0  0
   -2.2756   -0.0721   -0.2724 O   0  0  0  0  0  0  0  0  0  0  0  0
   -1.5118   -1.1126    0.2692 C   0  0  0  0  0  0  0  0  0  0  0  0
   -0.1631   -1.0412   -0.3997 C   0  0  0  0  0  0  0  0  0  0  0  0
   -0.4186   -0.1468   -1.4473 O   0  0  0  0  0  0  0  0  0  0  0  0
    2.6224   -0.7424   -0.8074 H   0  0  0  0  0  0  0  0  0  0  0  0
    1.7582    0.8160   -1.1117 H   0  0  0  0  0  0  0  0  0  0  0  0
    2.7441    0.6137    0.3704 H   0  0  0  0  0  0  0  0  0  0  0  0
    1.2694   -1.0710    1.2628 H   0  0  0  0  0  0  0  0  0  0  0  0
    0.4595    1.1601    2.0777 H   0  0  0  0  0  0  0  0  0  0  0  0
   -0.7186    2.5627    0.4207 H   0  0  0  0  0  0  0  0  0  0  0  0
   -1.7530    1.4609   -1.5250 H   0  0  0  0  0  0  0  0  0  0  0  0
   -1.4705   -1.0918    1.3624 H   0  0  0  0  0  0  0  0  0  0  0  0
   -1.9966   -2.0571   -0.0545 H   0  0  0  0  0  0  0  0  0  0  0  0
    0.1645   -2.0200   -0.7852 H   0  0  0  0  0  0  0  0  0  0  0  0
  1  2  1  0
  2  3  1  0
  3  4  2  0
  4  5  1  0
  5  6  1  0
  6  7  1  0
  7  8  1  0
  8  9  1  0
  8  2  1  0
  9  5  1  0
  1 10  1  0
  1 11  1  0
  1 12  1  0
  2 13  1  0
  3 14  1  0
  4 15  1  0
  5 16  1  0
  7 17  1  0
  7 18  1  0
  8 19  1  0
M  END
