
     RDKit          3D

 21 21  0  0  0  0  0  0  0  0999 V2000
    2.4790   -0.4425   -0.4632 C   0  0  0  0  0  0  0  0  0  0  0  0
    1.2405    0.1227    0.1630 C   0  0  0  0  0  0  0  0  0  0  0  0
    0.1371   -0.8736    0.3385 C   0  0  0  0  0  0  0  0  0  0  0  0
   -1.0964   -0.0001    0.4433 C   0  0  0  0  0  0  0  0  0  0  0  0
   -2.1694   -0.5261   -0.4902 C   0  0  0  0  0  0  0  0  0  0  0  0
   -1.5790   -0.0242    1.7526 O   0  0  0  0  0  0  0  0  0  0  0  0
   -0.7063    1.3764    0.0032 C   0  0  0  0  0  0  0  0  0  0  0  0
    0.5856    1.1451   -0.6824 C   0  0  0  0  0  0  0  0  0  0  0  0
    0.9469    1.6995   -1.6904 O   0  0  0  0  0  0  0  0  0  0  0  0
    2.8957   -1.1909    0.2537 H   0  0  0  0  0  0  0  0  0  0  0  0
    2.2274   -0.9197   -1.4208 H   0  0  0  0  0  0  0  0  0  0  0  0
    3.2227    0.3656   -0.5356 H   0  0  0  0  0  0  0  0  0  0  0  0
    1.4543    0.5719    1.1447 H   0  0  0  0  0  0  0  0  0  0  0  0
    0.3223   -1.4424    1.2667 H   0  0  0  0  0  0  0  0  0  0  0  0
    0.1010   -1.5110   -0.5653 H   0  0  0  0  0  0  0  0  0  0  0  0
   -1.7599   -0.4078   -1.5293 H   0  0  0  0  0  0  0  0  0  0  0  0
   -3.0797    0.0969   -0.3916 H   0  0  0  0  0  0  0  0  0  0  0  0
   -2.4270   -1.5761   -0.2739 H   0  0  0  0  0  0  0  0  0  0  0  0
   -0.8646   -0.3141    2.3701 H   0  0  0  0  0  0  0  0  0  0  0  0
   -0.4768    1.9701    0.9270 H   0  0  0  0  0  0  0  0  0  0  0  0
   -1.4532    1.8803   -0.6204 H   0  0  0  0  0  0  0  0  0  0  0  0
  1  2  1  0
  2  3  1  0
  3  4  1  0
  4  5  1  0
  4  6  1  0
  4  7  1  0
  7  8  1  0
  8  9  2  0
  8  2  1  0
  1 10  1  0
  1 11  1  0
  1 12  1  0
  2 13  1  0
  3 14  1  0
  3 15  1  0
  5 16  1  0
  5 17  1  0
  5 18  1  0
  6 19  1  0
  7 20  1  0
  7 21  1  0
M  END
