
     RDKit          3D

 23 23  0  0  0  0  0  0  0  0999 V2000
   -1.0783    0.4897    1.6906 C   0  0  0  0  0  0  0  0  0  0  0  0
   -1.4419    0.4999    0.2347 C   0  0  0  0  0  0  0  0  0  0  0  0
   -1.6593   -0.7994   -0.4428 C   0  0  0  0  0  0  0  0  0  0  0  0
   -0.9370   -0.2146   -1.6554 C   0  0  0  0  0  0  0  0  0  0  0  0
   -0.3934    0.8502   -0.7443 C   0  0  0  0  0  0  0  0  0  0  0  0
    1.0303    0.7034   -0.3355 C   0  0  0  0  0  0  0  0  0  0  0  0
    1.4380   -0.6845    0.0448 C   0  0  0  0  0  0  0  0  0  0  0  0
    2.8647   -0.6710    0.4422 C   0  0  0  0  0  0  0  0  0  0  0  0
    3.2228    0.0823    1.3184 O   0  0  0  0  0  0  0  0  0  0  0  0
   -1.1415   -0.5270    2.1605 H   0  0  0  0  0  0  0  0  0  0  0  0
   -1.8085    1.1115    2.2915 H   0  0  0  0  0  0  0  0  0  0  0  0
   -0.1082    0.9872    1.8700 H   0  0  0  0  0  0  0  0  0  0  0  0
   -2.3488    1.1577    0.0710 H   0  0  0  0  0  0  0  0  0  0  0  0
   -1.1921   -1.6998   -0.0112 H   0  0  0  0  0  0  0  0  0  0  0  0
   -2.7435   -1.0466   -0.6482 H   0  0  0  0  0  0  0  0  0  0  0  0
   -0.1546   -0.8726   -2.0704 H   0  0  0  0  0  0  0  0  0  0  0  0
   -1.7022    0.1557   -2.3611 H   0  0  0  0  0  0  0  0  0  0  0  0
   -0.5368    1.8549   -1.2317 H   0  0  0  0  0  0  0  0  0  0  0  0
    1.6517    0.9866   -1.2360 H   0  0  0  0  0  0  0  0  0  0  0  0
    1.2793    1.4186    0.4529 H   0  0  0  0  0  0  0  0  0  0  0  0
    1.2853   -1.4137   -0.7523 H   0  0  0  0  0  0  0  0  0  0  0  0
    0.9025   -1.0516    0.9493 H   0  0  0  0  0  0  0  0  0  0  0  0
    3.5714   -1.3169   -0.0370 H   0  0  0  0  0  0  0  0  0  0  0  0
  1  2  1  0
  2  3  1  0
  3  4  1  0
  4  5  1  0
  5  6  1  0
  6  7  1  0
  7  8  1  0
  8  9  2  0
  5  2  1  0
  1 10  1  0
  1 11  1  0
  1 12  1  0
  2 13  1  0
  3 14  1  0
  3 15  1  0
  4 16  1  0
  4 17  1  0
  5 18  1  0
  6 19  1  0
  6 20  1  0
  7 21  1  0
  7 22  1  0
  8 23  1  0
M  END
