
     RDKit          3D

 21 21  0  0  0  0  0  0  0  0999 V2000
   -1.6622   -1.0830    0.3795 C   0  0  0  0  0  0  0  0  0  0  0  0
   -0.2706   -0.5500    0.4675 C   0  0  0  0  0  0  0  0  0  0  0  0
    0.5880   -1.0882   -0.6813 C   0  0  0  0  0  0  0  0  0  0  0  0
    1.5811    0.0403   -0.8195 C   0  0  0  0  0  0  0  0  0  0  0  0
    2.6037    0.0139    0.2266 C   0  0  0  0  0  0  0  0  0  0  0  0
    2.6616    0.9178    1.0375 O   0  0  0  0  0  0  0  0  0  0  0  0
    0.8046    1.1568   -0.7036 O   0  0  0  0  0  0  0  0  0  0  0  0
   -0.1624    0.9235    0.2532 C   0  0  0  0  0  0  0  0  0  0  0  0
   -1.4849    1.5498   -0.0608 C   0  0  0  0  0  0  0  0  0  0  0  0
   -2.1450   -0.9808    1.3679 H   0  0  0  0  0  0  0  0  0  0  0  0
   -2.2921   -0.5660   -0.3611 H   0  0  0  0  0  0  0  0  0  0  0  0
   -1.6401   -2.1511    0.1131 H   0  0  0  0  0  0  0  0  0  0  0  0
    0.2042   -0.8655    1.4095 H   0  0  0  0  0  0  0  0  0  0  0  0
    1.0316   -2.0508   -0.4446 H   0  0  0  0  0  0  0  0  0  0  0  0
   -0.0683   -1.0916   -1.5804 H   0  0  0  0  0  0  0  0  0  0  0  0
    2.0773   -0.0450   -1.7984 H   0  0  0  0  0  0  0  0  0  0  0  0
    3.3463   -0.7756    0.3468 H   0  0  0  0  0  0  0  0  0  0  0  0
    0.2084    1.3917    1.2026 H   0  0  0  0  0  0  0  0  0  0  0  0
   -1.3538    2.6598    0.0062 H   0  0  0  0  0  0  0  0  0  0  0  0
   -1.8315    1.3320   -1.0876 H   0  0  0  0  0  0  0  0  0  0  0  0
   -2.1958    1.2621    0.7269 H   0  0  0  0  0  0  0  0  0  0  0  0
  1  2  1  0
  2  3  1  0
  3  4  1  0
  4  5  1  0
  5  6  2  0
  4  7  1  0
  7  8  1  0
  8  9  1  0
  8  2  1  0
  1 10  1  0
  1 11  1  0
  1 12  1  0
  2 13  1  0
  3 14  1  0
  3 15  1  0
  4 16  1  0
  5 17  1  0
  8 18  1  0
  9 19  1  0
  9 20  1  0
  9 21  1  0
M  END
