
     RDKit          3D

 19 19  0  0  0  0  0  0  0  0999 V2000
    0.5302   -0.9828    0.9645 C   0  0  0  0  0  0  0  0  0  0  0  0
    0.2334   -0.7806   -0.4755 C   0  0  0  0  0  0  0  0  0  0  0  0
    1.0640    0.3443   -1.0526 C   0  0  0  0  0  0  0  0  0  0  0  0
    2.0529    0.9270   -0.0988 C   0  0  0  0  0  0  0  0  0  0  0  0
    3.0859    0.3377    0.1385 O   0  0  0  0  0  0  0  0  0  0  0  0
   -0.0598    1.1543   -1.2038 O   0  0  0  0  0  0  0  0  0  0  0  0
   -0.8912    0.0585   -0.8954 C   0  0  0  0  0  0  0  0  0  0  0  0
   -1.9655    0.4146    0.0757 C   0  0  0  0  0  0  0  0  0  0  0  0
   -1.5351    0.8716    1.2858 O   0  0  0  0  0  0  0  0  0  0  0  0
   -0.1791   -1.7045    1.4432 H   0  0  0  0  0  0  0  0  0  0  0  0
    0.6376   -0.0481    1.5452 H   0  0  0  0  0  0  0  0  0  0  0  0
    1.5308   -1.4932    1.0356 H   0  0  0  0  0  0  0  0  0  0  0  0
    0.3847   -1.7200   -1.0486 H   0  0  0  0  0  0  0  0  0  0  0  0
    1.5575    0.1085   -2.0106 H   0  0  0  0  0  0  0  0  0  0  0  0
    1.8467    1.8765    0.3807 H   0  0  0  0  0  0  0  0  0  0  0  0
   -1.3390   -0.2969   -1.8487 H   0  0  0  0  0  0  0  0  0  0  0  0
   -2.5887    1.2216   -0.4137 H   0  0  0  0  0  0  0  0  0  0  0  0
   -2.6513   -0.4493    0.1989 H   0  0  0  0  0  0  0  0  0  0  0  0
   -1.7143    0.1609    1.9798 H   0  0  0  0  0  0  0  0  0  0  0  0
  1  2  1  0
  2  3  1  0
  3  4  1  0
  4  5  2  0
  3  6  1  0
  6  7  1  0
  7  8  1  0
  8  9  1  0
  7  2  1  0
  1 10  1  0
  1 11  1  0
  1 12  1  0
  2 13  1  0
  3 14  1  0
  4 15  1  0
  7 16  1  0
  8 17  1  0
  8 18  1  0
  9 19  1  0
M  END
