
     RDKit          3D

 23 24  0  0  0  0  0  0  0  0999 V2000
    1.9989    0.6341    0.9596 C   0  0  0  0  0  0  0  0  0  0  0  0
    1.2040   -0.0708   -0.1063 C   0  0  0  0  0  0  0  0  0  0  0  0
    1.1285   -1.5160    0.0643 C   0  0  0  0  0  0  0  0  0  0  0  0
   -0.0350   -1.9618   -0.3489 C   0  0  0  0  0  0  0  0  0  0  0  0
   -0.8509   -0.8288   -0.8393 C   0  0  0  0  0  0  0  0  0  0  0  0
   -2.0292   -0.6232    0.0864 C   0  0  0  0  0  0  0  0  0  0  0  0
   -1.1031    0.2408    0.9565 C   0  0  0  0  0  0  0  0  0  0  0  0
   -0.1906    0.4066   -0.2319 C   0  0  0  0  0  0  0  0  0  0  0  0
   -0.3412    1.6647   -1.0095 C   0  0  0  0  0  0  0  0  0  0  0  0
    3.0580    0.3402    0.8281 H   0  0  0  0  0  0  0  0  0  0  0  0
    1.9540    1.7268    0.7237 H   0  0  0  0  0  0  0  0  0  0  0  0
    1.6190    0.4669    1.9786 H   0  0  0  0  0  0  0  0  0  0  0  0
    1.7215    0.1207   -1.0706 H   0  0  0  0  0  0  0  0  0  0  0  0
    1.9226   -2.1917    0.4829 H   0  0  0  0  0  0  0  0  0  0  0  0
   -0.4130   -2.9939   -0.3599 H   0  0  0  0  0  0  0  0  0  0  0  0
   -1.0463   -0.7740   -1.9045 H   0  0  0  0  0  0  0  0  0  0  0  0
   -2.3808   -1.5381    0.6141 H   0  0  0  0  0  0  0  0  0  0  0  0
   -2.8864   -0.0856   -0.3336 H   0  0  0  0  0  0  0  0  0  0  0  0
   -1.6371    1.1919    1.2052 H   0  0  0  0  0  0  0  0  0  0  0  0
   -0.6753   -0.2962    1.8215 H   0  0  0  0  0  0  0  0  0  0  0  0
   -0.2780    2.5274   -0.2921 H   0  0  0  0  0  0  0  0  0  0  0  0
   -1.2844    1.7788   -1.5505 H   0  0  0  0  0  0  0  0  0  0  0  0
    0.5446    1.7809   -1.6738 H   0  0  0  0  0  0  0  0  0  0  0  0
  1  2  1  0
  2  3  1  0
  3  4  2  0
  4  5  1  0
  5  6  1  0
  6  7  1  0
  7  8  1  0
  8  9  1  0
  8  2  1  0
  8  5  1  0
  1 10  1  0
  1 11  1  0
  1 12  1  0
  2 13  1  0
  3 14  1  0
  4 15  1  0
  5 16  1  0
  6 17  1  0
  6 18  1  0
  7 19  1  0
  7 20  1  0
  9 21  1  0
  9 22  1  0
  9 23  1  0
M  END
