
     RDKit          3D

 21 22  0  0  0  0  0  0  0  0999 V2000
    2.4014   -0.0805    0.0431 C   0  0  0  0  0  0  0  0  0  0  0  0
    0.9350   -0.1600    0.2928 C   0  0  0  0  0  0  0  0  0  0  0  0
    0.2410    1.1909    0.1002 C   0  0  0  0  0  0  0  0  0  0  0  0
   -1.2390    0.9050    0.3842 C   0  0  0  0  0  0  0  0  0  0  0  0
   -2.0375    1.9865    0.0866 O   0  0  0  0  0  0  0  0  0  0  0  0
   -1.5922   -0.3119   -0.4434 C   0  0  0  0  0  0  0  0  0  0  0  0
   -1.0424   -1.5728    0.2204 C   0  0  0  0  0  0  0  0  0  0  0  0
    0.2120   -1.1568   -0.5555 C   0  0  0  0  0  0  0  0  0  0  0  0
   -0.6615   -0.5342   -1.4675 O   0  0  0  0  0  0  0  0  0  0  0  0
    2.9504   -0.6408    0.8397 H   0  0  0  0  0  0  0  0  0  0  0  0
    2.6997    0.9984    0.1604 H   0  0  0  0  0  0  0  0  0  0  0  0
    2.7124   -0.4101   -0.9596 H   0  0  0  0  0  0  0  0  0  0  0  0
    0.7609   -0.4328    1.3638 H   0  0  0  0  0  0  0  0  0  0  0  0
    0.3475    1.4599   -0.9814 H   0  0  0  0  0  0  0  0  0  0  0  0
    0.6565    1.9384    0.7804 H   0  0  0  0  0  0  0  0  0  0  0  0
   -1.2915    0.6984    1.4814 H   0  0  0  0  0  0  0  0  0  0  0  0
   -1.7448    2.4690   -0.7260 H   0  0  0  0  0  0  0  0  0  0  0  0
   -2.6379   -0.3952   -0.7597 H   0  0  0  0  0  0  0  0  0  0  0  0
   -1.5123   -2.4697   -0.1936 H   0  0  0  0  0  0  0  0  0  0  0  0
   -0.9453   -1.5010    1.3139 H   0  0  0  0  0  0  0  0  0  0  0  0
    0.7875   -1.9806   -0.9803 H   0  0  0  0  0  0  0  0  0  0  0  0
  1  2  1  0
  2  3  1  0
  3  4  1  0
  4  5  1  0
  4  6  1  0
  6  7  1  0
  7  8  1  0
  8  9  1  0
  8  2  1  0
  9  6  1  0
  1 10  1  0
  1 11  1  0
  1 12  1  0
  2 13  1  0
  3 14  1  0
  3 15  1  0
  4 16  1  0
  5 17  1  0
  6 18  1  0
  7 19  1  0
  7 20  1  0
  8 21  1  0
M  END
