
     RDKit          3D

 23 23  0  0  0  0  0  0  0  0999 V2000
   -1.1341   -1.8044    0.6988 C   0  0  0  0  0  0  0  0  0  0  0  0
   -1.0318   -0.6653   -0.2995 C   0  0  0  0  0  0  0  0  0  0  0  0
    0.1170   -0.9343   -1.1764 C   0  0  0  0  0  0  0  0  0  0  0  0
    1.3659   -0.5622   -1.0651 C   0  0  0  0  0  0  0  0  0  0  0  0
    2.1237    0.2283   -0.0929 C   0  0  0  0  0  0  0  0  0  0  0  0
    1.3989    0.6000    1.1309 C   0  0  0  0  0  0  0  0  0  0  0  0
    0.1102    0.7899    1.3425 C   0  0  0  0  0  0  0  0  0  0  0  0
   -0.9926    0.6795    0.3858 C   0  0  0  0  0  0  0  0  0  0  0  0
   -0.9438    1.7330   -0.6962 C   0  0  0  0  0  0  0  0  0  0  0  0
   -1.5877   -2.6598    0.1571 H   0  0  0  0  0  0  0  0  0  0  0  0
   -0.1340   -2.1200    1.0299 H   0  0  0  0  0  0  0  0  0  0  0  0
   -1.8021   -1.5129    1.5482 H   0  0  0  0  0  0  0  0  0  0  0  0
   -1.9934   -0.6865   -0.8894 H   0  0  0  0  0  0  0  0  0  0  0  0
   -0.1113   -1.5290   -2.0406 H   0  0  0  0  0  0  0  0  0  0  0  0
    2.0015   -0.9232   -1.8897 H   0  0  0  0  0  0  0  0  0  0  0  0
    2.5305    1.1518   -0.5996 H   0  0  0  0  0  0  0  0  0  0  0  0
    3.0426   -0.3481    0.2044 H   0  0  0  0  0  0  0  0  0  0  0  0
    2.0329    0.7463    2.0268 H   0  0  0  0  0  0  0  0  0  0  0  0
   -0.1536    1.0593    2.3465 H   0  0  0  0  0  0  0  0  0  0  0  0
   -1.9754    0.7998    0.8966 H   0  0  0  0  0  0  0  0  0  0  0  0
   -0.3886    2.6298   -0.3983 H   0  0  0  0  0  0  0  0  0  0  0  0
   -0.4916    1.3013   -1.6232 H   0  0  0  0  0  0  0  0  0  0  0  0
   -1.9832    2.0267   -0.9966 H   0  0  0  0  0  0  0  0  0  0  0  0
  1  2  1  0
  2  3  1  0
  3  4  2  0
  4  5  1  0
  5  6  1  0
  6  7  2  0
  7  8  1  0
  8  9  1  0
  8  2  1  0
  1 10  1  0
  1 11  1  0
  1 12  1  0
  2 13  1  0
  3 14  1  0
  4 15  1  0
  5 16  1  0
  5 17  1  0
  6 18  1  0
  7 19  1  0
  8 20  1  0
  9 21  1  0
  9 22  1  0
  9 23  1  0
M  END
