
     RDKit          3D

 23 24  0  0  0  0  0  0  0  0999 V2000
   -2.7377    0.0696   -0.1744 C   0  0  0  0  0  0  0  0  0  0  0  0
   -1.4970    0.3795    0.6743 C   0  0  0  0  0  0  0  0  0  0  0  0
   -0.3960   -0.5608    0.7545 C   0  0  0  0  0  0  0  0  0  0  0  0
   -0.1186   -1.6551   -0.2156 C   0  0  0  0  0  0  0  0  0  0  0  0
    1.0836   -1.2236   -1.0242 C   0  0  0  0  0  0  0  0  0  0  0  0
    1.9793   -0.2833   -0.7814 C   0  0  0  0  0  0  0  0  0  0  0  0
    2.1040    0.6534    0.3533 C   0  0  0  0  0  0  0  0  0  0  0  0
    0.8561    1.5115    0.5239 C   0  0  0  0  0  0  0  0  0  0  0  0
   -0.2903    0.7600   -0.0425 C   0  0  0  0  0  0  0  0  0  0  0  0
   -3.2789   -0.8128    0.2071 H   0  0  0  0  0  0  0  0  0  0  0  0
   -2.4226   -0.0810   -1.2381 H   0  0  0  0  0  0  0  0  0  0  0  0
   -3.3526    0.9883   -0.1600 H   0  0  0  0  0  0  0  0  0  0  0  0
   -1.8015    0.8729    1.6403 H   0  0  0  0  0  0  0  0  0  0  0  0
    0.1756   -0.6330    1.7007 H   0  0  0  0  0  0  0  0  0  0  0  0
    0.0469   -2.6436    0.2401 H   0  0  0  0  0  0  0  0  0  0  0  0
   -0.9795   -1.6751   -0.9460 H   0  0  0  0  0  0  0  0  0  0  0  0
    1.1818   -1.8081   -1.9371 H   0  0  0  0  0  0  0  0  0  0  0  0
    2.7415   -0.1852   -1.5338 H   0  0  0  0  0  0  0  0  0  0  0  0
    2.3378    0.1218    1.3154 H   0  0  0  0  0  0  0  0  0  0  0  0
    2.9509    1.3524    0.1998 H   0  0  0  0  0  0  0  0  0  0  0  0
    0.7285    1.7034    1.6291 H   0  0  0  0  0  0  0  0  0  0  0  0
    1.0008    2.4496   -0.0411 H   0  0  0  0  0  0  0  0  0  0  0  0
   -0.3121    0.6994   -1.1445 H   0  0  0  0  0  0  0  0  0  0  0  0
  1  2  1  0
  2  3  1  0
  3  4  1  0
  4  5  1  0
  5  6  2  0
  6  7  1  0
  7  8  1  0
  8  9  1  0
  9  2  1  0
  9  3  1  0
  1 10  1  0
  1 11  1  0
  1 12  1  0
  2 13  1  0
  3 14  1  0
  4 15  1  0
  4 16  1  0
  5 17  1  0
  6 18  1  0
  7 19  1  0
  7 20  1  0
  8 21  1  0
  8 22  1  0
  9 23  1  0
M  END
