
     RDKit          3D

 23 24  0  0  0  0  0  0  0  0999 V2000
    2.8685    0.5769    0.8915 C   0  0  0  0  0  0  0  0  0  0  0  0
    2.0154   -0.3226    0.0279 C   0  0  0  0  0  0  0  0  0  0  0  0
    1.2150   -1.3525    0.8261 C   0  0  0  0  0  0  0  0  0  0  0  0
    0.6148   -0.1903    0.0057 C   0  0  0  0  0  0  0  0  0  0  0  0
   -0.3298    0.6324    0.7386 C   0  0  0  0  0  0  0  0  0  0  0  0
   -1.4244   -0.2277    0.1080 C   0  0  0  0  0  0  0  0  0  0  0  0
   -2.6143    0.5545   -0.3581 C   0  0  0  0  0  0  0  0  0  0  0  0
   -3.1640    1.2093    0.7364 O   0  0  0  0  0  0  0  0  0  0  0  0
   -0.3949   -0.5329   -0.9910 C   0  0  0  0  0  0  0  0  0  0  0  0
    3.8136   -0.0071    1.0958 H   0  0  0  0  0  0  0  0  0  0  0  0
    2.4203    0.7616    1.8835 H   0  0  0  0  0  0  0  0  0  0  0  0
    3.1935    1.4916    0.3688 H   0  0  0  0  0  0  0  0  0  0  0  0
    2.5510   -0.7676   -0.8230 H   0  0  0  0  0  0  0  0  0  0  0  0
    1.0381   -2.3391    0.3917 H   0  0  0  0  0  0  0  0  0  0  0  0
    1.1872   -1.2565    1.9231 H   0  0  0  0  0  0  0  0  0  0  0  0
   -0.3336    0.6026    1.8555 H   0  0  0  0  0  0  0  0  0  0  0  0
   -0.4955    1.6825    0.4253 H   0  0  0  0  0  0  0  0  0  0  0  0
   -1.6303   -1.1453    0.6915 H   0  0  0  0  0  0  0  0  0  0  0  0
   -3.3261   -0.1221   -0.8357 H   0  0  0  0  0  0  0  0  0  0  0  0
   -2.2525    1.2720   -1.1298 H   0  0  0  0  0  0  0  0  0  0  0  0
   -4.0147    0.7932    1.0282 H   0  0  0  0  0  0  0  0  0  0  0  0
   -0.4569   -1.5439   -1.3977 H   0  0  0  0  0  0  0  0  0  0  0  0
   -0.4805    0.2311   -1.7928 H   0  0  0  0  0  0  0  0  0  0  0  0
  1  2  1  0
  2  3  1  0
  3  4  1  0
  4  5  1  0
  5  6  1  0
  6  7  1  0
  7  8  1  0
  6  9  1  0
  4  2  1  0
  9  4  1  0
  1 10  1  0
  1 11  1  0
  1 12  1  0
  2 13  1  0
  3 14  1  0
  3 15  1  0
  5 16  1  0
  5 17  1  0
  6 18  1  0
  7 19  1  0
  7 20  1  0
  8 21  1  0
  9 22  1  0
  9 23  1  0
M  END
