
     RDKit          3D

 23 23  0  0  0  0  0  0  0  0999 V2000
   -1.8367   -0.4056   -1.0325 C   0  0  0  0  0  0  0  0  0  0  0  0
   -1.0010    0.0364    0.1784 C   0  0  0  0  0  0  0  0  0  0  0  0
   -0.4124   -1.2020    0.7718 C   0  0  0  0  0  0  0  0  0  0  0  0
    0.7933   -1.6048    0.0049 C   0  0  0  0  0  0  0  0  0  0  0  0
    1.8545   -0.5603    0.0047 C   0  0  0  0  0  0  0  0  0  0  0  0
    1.3903    0.8326    0.0969 C   0  0  0  0  0  0  0  0  0  0  0  0
   -0.0406    1.0900   -0.1894 C   0  0  0  0  0  0  0  0  0  0  0  0
   -0.4260    2.3547    0.5284 C   0  0  0  0  0  0  0  0  0  0  0  0
   -0.5408    3.4200   -0.0101 O   0  0  0  0  0  0  0  0  0  0  0  0
   -2.6948   -1.0247   -0.6361 H   0  0  0  0  0  0  0  0  0  0  0  0
   -2.2851    0.4697   -1.5438 H   0  0  0  0  0  0  0  0  0  0  0  0
   -1.2624   -1.0373   -1.7183 H   0  0  0  0  0  0  0  0  0  0  0  0
   -1.7725    0.3975    0.9224 H   0  0  0  0  0  0  0  0  0  0  0  0
   -1.1739   -2.0239    0.6601 H   0  0  0  0  0  0  0  0  0  0  0  0
   -0.2320   -1.1255    1.8654 H   0  0  0  0  0  0  0  0  0  0  0  0
    1.2090   -2.5698    0.3960 H   0  0  0  0  0  0  0  0  0  0  0  0
    0.5019   -1.8098   -1.0410 H   0  0  0  0  0  0  0  0  0  0  0  0
    2.5487   -0.7910    0.8647 H   0  0  0  0  0  0  0  0  0  0  0  0
    2.4900   -0.7483   -0.9094 H   0  0  0  0  0  0  0  0  0  0  0  0
    1.9930    1.4475   -0.6377 H   0  0  0  0  0  0  0  0  0  0  0  0
    1.6756    1.2755    1.0968 H   0  0  0  0  0  0  0  0  0  0  0  0
   -0.1760    1.3366   -1.2837 H   0  0  0  0  0  0  0  0  0  0  0  0
   -0.6025    2.2425    1.6114 H   0  0  0  0  0  0  0  0  0  0  0  0
  1  2  1  0
  2  3  1  0
  3  4  1  0
  4  5  1  0
  5  6  1  0
  6  7  1  0
  7  8  1  0
  8  9  2  0
  7  2  1  0
  1 10  1  0
  1 11  1  0
  1 12  1  0
  2 13  1  0
  3 14  1  0
  3 15  1  0
  4 16  1  0
  4 17  1  0
  5 18  1  0
  5 19  1  0
  6 20  1  0
  6 21  1  0
  7 22  1  0
  8 23  1  0
M  END
