
     RDKit          3D

 21 22  0  0  0  0  0  0  0  0999 V2000
   -2.5855    0.8230   -0.1024 C   0  0  0  0  0  0  0  0  0  0  0  0
   -1.1621    0.7395   -0.4626 C   0  0  0  0  0  0  0  0  0  0  0  0
   -0.5908   -0.6294   -0.7534 C   0  0  0  0  0  0  0  0  0  0  0  0
   -0.7387   -0.8792    0.7147 C   0  0  0  0  0  0  0  0  0  0  0  0
   -0.1697    0.4969    0.6473 C   0  0  0  0  0  0  0  0  0  0  0  0
    0.7177   -0.0061   -0.4589 C   0  0  0  0  0  0  0  0  0  0  0  0
    1.8959   -0.8222   -0.1175 C   0  0  0  0  0  0  0  0  0  0  0  0
    3.0565    0.0974    0.1220 C   0  0  0  0  0  0  0  0  0  0  0  0
    4.1630   -0.3193    0.4229 O   0  0  0  0  0  0  0  0  0  0  0  0
   -3.0884    1.5356   -0.8213 H   0  0  0  0  0  0  0  0  0  0  0  0
   -2.6797    1.3350    0.8913 H   0  0  0  0  0  0  0  0  0  0  0  0
   -3.1650   -0.1011   -0.1467 H   0  0  0  0  0  0  0  0  0  0  0  0
   -0.8030    1.4660   -1.2210 H   0  0  0  0  0  0  0  0  0  0  0  0
   -0.8585   -1.2295   -1.5084 H   0  0  0  0  0  0  0  0  0  0  0  0
   -1.7768   -0.9277    1.0989 H   0  0  0  0  0  0  0  0  0  0  0  0
   -0.1501   -1.6878    1.1420 H   0  0  0  0  0  0  0  0  0  0  0  0
    0.0717    1.1210    1.3877 H   0  0  0  0  0  0  0  0  0  0  0  0
    0.9582    0.7710   -1.2407 H   0  0  0  0  0  0  0  0  0  0  0  0
    1.8258   -1.4518    0.7660 H   0  0  0  0  0  0  0  0  0  0  0  0
    2.1271   -1.5022   -0.9877 H   0  0  0  0  0  0  0  0  0  0  0  0
    2.9523    1.1709    0.0356 H   0  0  0  0  0  0  0  0  0  0  0  0
  1  2  1  0
  2  3  1  0
  3  4  1  0
  4  5  1  0
  5  6  1  0
  6  7  1  0
  7  8  1  0
  8  9  2  0
  5  2  1  0
  6  3  1  0
  1 10  1  0
  1 11  1  0
  1 12  1  0
  2 13  1  0
  3 14  1  0
  4 15  1  0
  4 16  1  0
  5 17  1  0
  6 18  1  0
  7 19  1  0
  7 20  1  0
  8 21  1  0
M  END
