
     RDKit          3D

 23 24  0  0  0  0  0  0  0  0999 V2000
   -0.7504    1.8658    0.3850 C   0  0  0  0  0  0  0  0  0  0  0  0
   -0.2457    0.5308    0.7981 C   0  0  0  0  0  0  0  0  0  0  0  0
   -1.3054   -0.5612    0.5614 C   0  0  0  0  0  0  0  0  0  0  0  0
   -1.4398   -0.4154   -0.9242 C   0  0  0  0  0  0  0  0  0  0  0  0
   -0.2657   -0.0158   -1.4420 C   0  0  0  0  0  0  0  0  0  0  0  0
    0.6868    0.0020   -0.3045 C   0  0  0  0  0  0  0  0  0  0  0  0
    1.9121    0.7524   -0.4833 C   0  0  0  0  0  0  0  0  0  0  0  0
    0.8344   -1.4368    0.1467 C   0  0  0  0  0  0  0  0  0  0  0  0
   -0.4898   -1.7743    0.8418 C   0  0  0  0  0  0  0  0  0  0  0  0
   -0.5672    2.6775    1.0979 H   0  0  0  0  0  0  0  0  0  0  0  0
   -0.3475    2.1982   -0.6130 H   0  0  0  0  0  0  0  0  0  0  0  0
   -1.8652    1.8185    0.2300 H   0  0  0  0  0  0  0  0  0  0  0  0
    0.1990    0.4641    1.7822 H   0  0  0  0  0  0  0  0  0  0  0  0
   -2.2033   -0.4204    1.1165 H   0  0  0  0  0  0  0  0  0  0  0  0
   -2.3702   -0.6171   -1.4415 H   0  0  0  0  0  0  0  0  0  0  0  0
   -0.1381    0.2222   -2.4880 H   0  0  0  0  0  0  0  0  0  0  0  0
    1.9934    1.6761    0.1589 H   0  0  0  0  0  0  0  0  0  0  0  0
    2.0797    1.0569   -1.5418 H   0  0  0  0  0  0  0  0  0  0  0  0
    2.8028    0.1320   -0.1772 H   0  0  0  0  0  0  0  0  0  0  0  0
    0.9557   -2.0402   -0.7868 H   0  0  0  0  0  0  0  0  0  0  0  0
    1.6928   -1.5422    0.8335 H   0  0  0  0  0  0  0  0  0  0  0  0
   -0.9069   -2.6657    0.3477 H   0  0  0  0  0  0  0  0  0  0  0  0
   -0.2616   -1.9073    1.9027 H   0  0  0  0  0  0  0  0  0  0  0  0
  1  2  1  0
  2  3  1  0
  3  4  1  0
  4  5  2  0
  5  6  1  0
  6  7  1  0
  6  8  1  0
  8  9  1  0
  6  2  1  0
  9  3  1  0
  1 10  1  0
  1 11  1  0
  1 12  1  0
  2 13  1  0
  3 14  1  0
  4 15  1  0
  5 16  1  0
  7 17  1  0
  7 18  1  0
  7 19  1  0
  8 20  1  0
  8 21  1  0
  9 22  1  0
  9 23  1  0
M  END
