
     RDKit          3D

 21 22  0  0  0  0  0  0  0  0999 V2000
    2.7238    0.9219   -0.3714 C   0  0  0  0  0  0  0  0  0  0  0  0
    1.6071   -0.0564   -0.4779 C   0  0  0  0  0  0  0  0  0  0  0  0
    1.4497   -1.0908    0.6309 C   0  0  0  0  0  0  0  0  0  0  0  0
    0.4371   -0.0485    0.4263 C   0  0  0  0  0  0  0  0  0  0  0  0
   -0.8947   -0.3302   -0.2215 C   0  0  0  0  0  0  0  0  0  0  0  0
   -1.1737    0.6337   -1.2134 O   0  0  0  0  0  0  0  0  0  0  0  0
   -2.5266    0.6274   -0.8161 C   0  0  0  0  0  0  0  0  0  0  0  0
   -2.1006    0.1343    0.5214 C   0  0  0  0  0  0  0  0  0  0  0  0
   -2.8630   -0.8895    1.0780 O   0  0  0  0  0  0  0  0  0  0  0  0
    3.6297    0.3502   -0.0125 H   0  0  0  0  0  0  0  0  0  0  0  0
    2.5366    1.7868    0.2698 H   0  0  0  0  0  0  0  0  0  0  0  0
    3.0341    1.2838   -1.3956 H   0  0  0  0  0  0  0  0  0  0  0  0
    1.4728   -0.4983   -1.4830 H   0  0  0  0  0  0  0  0  0  0  0  0
    2.1689   -0.9552    1.4714 H   0  0  0  0  0  0  0  0  0  0  0  0
    1.2859   -2.1412    0.3739 H   0  0  0  0  0  0  0  0  0  0  0  0
    0.3547    0.7295    1.2386 H   0  0  0  0  0  0  0  0  0  0  0  0
   -0.9744   -1.3331   -0.7047 H   0  0  0  0  0  0  0  0  0  0  0  0
   -3.0833   -0.1225   -1.4188 H   0  0  0  0  0  0  0  0  0  0  0  0
   -2.9764    1.6353   -0.8632 H   0  0  0  0  0  0  0  0  0  0  0  0
   -1.8396    0.9566    1.2198 H   0  0  0  0  0  0  0  0  0  0  0  0
   -2.2678   -1.5939    1.4427 H   0  0  0  0  0  0  0  0  0  0  0  0
  1  2  1  0
  2  3  1  0
  3  4  1  0
  4  5  1  0
  5  6  1  0
  6  7  1  0
  7  8  1  0
  8  9  1  0
  4  2  1  0
  8  5  1  0
  1 10  1  0
  1 11  1  0
  1 12  1  0
  2 13  1  0
  3 14  1  0
  3 15  1  0
  4 16  1  0
  5 17  1  0
  7 18  1  0
  7 19  1  0
  8 20  1  0
  9 21  1  0
M  END
