
     RDKit          3D

 21 23  0  0  0  0  0  0  0  0999 V2000
   -2.4686    0.5588    0.4715 C   0  0  0  0  0  0  0  0  0  0  0  0
   -1.0261    0.5735    0.2428 C   0  0  0  0  0  0  0  0  0  0  0  0
   -0.4536    0.0462   -1.0283 C   0  0  0  0  0  0  0  0  0  0  0  0
   -0.7752   -1.3324   -0.5183 C   0  0  0  0  0  0  0  0  0  0  0  0
   -0.2163   -0.6226    0.6826 C   0  0  0  0  0  0  0  0  0  0  0  0
    0.7909   -0.0896   -0.2416 C   0  0  0  0  0  0  0  0  0  0  0  0
    2.0741   -0.5386   -0.5783 C   0  0  0  0  0  0  0  0  0  0  0  0
    1.7992    0.8936   -0.0095 C   0  0  0  0  0  0  0  0  0  0  0  0
    2.2314    1.1342    1.2823 O   0  0  0  0  0  0  0  0  0  0  0  0
   -2.7097    1.2400    1.3158 H   0  0  0  0  0  0  0  0  0  0  0  0
   -2.9868    1.0096   -0.4195 H   0  0  0  0  0  0  0  0  0  0  0  0
   -2.9242   -0.4160    0.7094 H   0  0  0  0  0  0  0  0  0  0  0  0
   -0.5499    1.5173    0.5471 H   0  0  0  0  0  0  0  0  0  0  0  0
   -0.5874    0.3895   -1.9634 H   0  0  0  0  0  0  0  0  0  0  0  0
   -1.8102   -1.6350   -0.4949 H   0  0  0  0  0  0  0  0  0  0  0  0
   -0.1080   -2.0735   -1.0030 H   0  0  0  0  0  0  0  0  0  0  0  0
   -0.1372   -0.9766    1.6143 H   0  0  0  0  0  0  0  0  0  0  0  0
    2.6463   -1.1893    0.1363 H   0  0  0  0  0  0  0  0  0  0  0  0
    2.5123   -0.5720   -1.5963 H   0  0  0  0  0  0  0  0  0  0  0  0
    1.9975    1.7067   -0.7267 H   0  0  0  0  0  0  0  0  0  0  0  0
    2.7015    0.3761    1.6885 H   0  0  0  0  0  0  0  0  0  0  0  0
  1  2  1  0
  2  3  1  0
  3  4  1  0
  4  5  1  0
  5  6  1  0
  6  7  1  0
  7  8  1  0
  8  9  1  0
  5  2  1  0
  8  6  1  0
  6  3  1  0
  1 10  1  0
  1 11  1  0
  1 12  1  0
  2 13  1  0
  3 14  1  0
  4 15  1  0
  4 16  1  0
  5 17  1  0
  7 18  1  0
  7 19  1  0
  8 20  1  0
  9 21  1  0
M  END
