
     RDKit          3D

 21 22  0  0  0  0  0  0  0  0999 V2000
   -2.5988   -0.0212   -0.0352 C   0  0  0  0  0  0  0  0  0  0  0  0
   -1.1534    0.1175    0.3654 C   0  0  0  0  0  0  0  0  0  0  0  0
   -0.3078   -1.0118   -0.2391 C   0  0  0  0  0  0  0  0  0  0  0  0
    0.9820   -1.0252    0.5295 C   0  0  0  0  0  0  0  0  0  0  0  0
    2.2932   -0.8972   -0.1019 C   0  0  0  0  0  0  0  0  0  0  0  0
    1.6129    0.3119    0.4487 C   0  0  0  0  0  0  0  0  0  0  0  0
    0.9218    1.2791   -0.4713 C   0  0  0  0  0  0  0  0  0  0  0  0
   -0.5504    1.3836   -0.1468 C   0  0  0  0  0  0  0  0  0  0  0  0
   -1.1649    2.4096   -0.2961 O   0  0  0  0  0  0  0  0  0  0  0  0
   -3.1465    0.8252    0.3881 H   0  0  0  0  0  0  0  0  0  0  0  0
   -2.6896    0.0377   -1.1349 H   0  0  0  0  0  0  0  0  0  0  0  0
   -2.9481   -1.0010    0.3407 H   0  0  0  0  0  0  0  0  0  0  0  0
   -1.0373    0.1254    1.4574 H   0  0  0  0  0  0  0  0  0  0  0  0
   -0.1340   -0.7175   -1.3144 H   0  0  0  0  0  0  0  0  0  0  0  0
   -0.9059   -1.9231   -0.1394 H   0  0  0  0  0  0  0  0  0  0  0  0
    0.9328   -1.5790    1.4933 H   0  0  0  0  0  0  0  0  0  0  0  0
    2.3518   -1.0664   -1.1988 H   0  0  0  0  0  0  0  0  0  0  0  0
    3.1715   -1.2818    0.4526 H   0  0  0  0  0  0  0  0  0  0  0  0
    1.9953    0.7026    1.4275 H   0  0  0  0  0  0  0  0  0  0  0  0
    1.3258    2.2909   -0.2919 H   0  0  0  0  0  0  0  0  0  0  0  0
    1.0495    1.0407   -1.5335 H   0  0  0  0  0  0  0  0  0  0  0  0
  1  2  1  0
  2  3  1  0
  3  4  1  0
  4  5  1  0
  5  6  1  0
  6  7  1  0
  7  8  1  0
  8  9  2  0
  8  2  1  0
  6  4  1  0
  1 10  1  0
  1 11  1  0
  1 12  1  0
  2 13  1  0
  3 14  1  0
  3 15  1  0
  4 16  1  0
  5 17  1  0
  5 18  1  0
  6 19  1  0
  7 20  1  0
  7 21  1  0
M  END
