
     RDKit          3D

 18 19  0  0  0  0  0  0  0  0999 V2000
   -2.5572   -0.0327    0.0838 C   0  0  0  0  0  0  0  0  0  0  0  0
   -1.1347   -0.3357    0.5509 C   0  0  0  0  0  0  0  0  0  0  0  0
   -0.2083    0.7158    0.5434 C   0  0  0  0  0  0  0  0  0  0  0  0
    0.3276    1.5306   -0.4093 O   0  0  0  0  0  0  0  0  0  0  0  0
    1.6118    0.9334   -0.5479 C   0  0  0  0  0  0  0  0  0  0  0  0
    1.3614   -0.5783   -0.3521 C   0  0  0  0  0  0  0  0  0  0  0  0
    1.7769   -0.9964    0.8952 O   0  0  0  0  0  0  0  0  0  0  0  0
   -0.1201   -0.5622   -0.3902 C   0  0  0  0  0  0  0  0  0  0  0  0
   -2.9460    0.8916    0.5135 H   0  0  0  0  0  0  0  0  0  0  0  0
   -3.2532   -0.8471    0.2870 H   0  0  0  0  0  0  0  0  0  0  0  0
   -2.5191    0.0833   -1.0379 H   0  0  0  0  0  0  0  0  0  0  0  0
   -1.1893   -1.0336    1.4393 H   0  0  0  0  0  0  0  0  0  0  0  0
    0.5097    0.7227    1.4246 H   0  0  0  0  0  0  0  0  0  0  0  0
    2.0415    1.1369   -1.5324 H   0  0  0  0  0  0  0  0  0  0  0  0
    2.2500    1.2785    0.3020 H   0  0  0  0  0  0  0  0  0  0  0  0
    1.7983   -1.1353   -1.1821 H   0  0  0  0  0  0  0  0  0  0  0  0
    2.6833   -1.3870    0.9014 H   0  0  0  0  0  0  0  0  0  0  0  0
   -0.4327   -0.3845   -1.4677 H   0  0  0  0  0  0  0  0  0  0  0  0
  1  2  1  0
  2  3  1  0
  3  4  1  0
  4  5  1  0
  5  6  1  0
  6  7  1  0
  6  8  1  0
  8  2  1  0
  8  3  1  0
  1  9  1  0
  1 10  1  0
  1 11  1  0
  2 12  1  0
  3 13  1  0
  5 14  1  0
  5 15  1  0
  6 16  1  0
  7 17  1  0
  8 18  1  0
M  END
