
     RDKit          3D

 19 20  0  0  0  0  0  0  0  0999 V2000
    2.2006    0.3117   -0.0323 C   0  0  0  0  0  0  0  0  0  0  0  0
    0.8297    0.1227   -0.6474 C   0  0  0  0  0  0  0  0  0  0  0  0
    0.2761   -1.1723   -0.1407 C   0  0  0  0  0  0  0  0  0  0  0  0
   -1.2091   -1.2781   -0.2053 C   0  0  0  0  0  0  0  0  0  0  0  0
   -1.9339   -1.2573    1.0344 O   0  0  0  0  0  0  0  0  0  0  0  0
   -1.9634   -0.1045    0.2487 C   0  0  0  0  0  0  0  0  0  0  0  0
   -1.1011    1.0360    0.7269 C   0  0  0  0  0  0  0  0  0  0  0  0
   -0.0504    1.2613   -0.2980 C   0  0  0  0  0  0  0  0  0  0  0  0
    0.0404    2.3470   -0.7957 O   0  0  0  0  0  0  0  0  0  0  0  0
    2.4645    1.3844   -0.0525 H   0  0  0  0  0  0  0  0  0  0  0  0
    2.9679   -0.2719   -0.5677 H   0  0  0  0  0  0  0  0  0  0  0  0
    2.1174    0.0204    1.0276 H   0  0  0  0  0  0  0  0  0  0  0  0
    0.9899    0.0340   -1.7441 H   0  0  0  0  0  0  0  0  0  0  0  0
    0.5947   -1.3414    0.9108 H   0  0  0  0  0  0  0  0  0  0  0  0
    0.6941   -2.0165   -0.7638 H   0  0  0  0  0  0  0  0  0  0  0  0
   -1.6860   -1.9651   -0.9407 H   0  0  0  0  0  0  0  0  0  0  0  0
   -2.8867    0.1434   -0.3135 H   0  0  0  0  0  0  0  0  0  0  0  0
   -1.7513    1.9247    0.8760 H   0  0  0  0  0  0  0  0  0  0  0  0
   -0.5936    0.8214    1.6773 H   0  0  0  0  0  0  0  0  0  0  0  0
  1  2  1  0
  2  3  1  0
  3  4  1  0
  4  5  1  0
  5  6  1  0
  6  7  1  0
  7  8  1  0
  8  9  2  0
  8  2  1  0
  6  4  1  0
  1 10  1  0
  1 11  1  0
  1 12  1  0
  2 13  1  0
  3 14  1  0
  3 15  1  0
  4 16  1  0
  6 17  1  0
  7 18  1  0
  7 19  1  0
M  END
