
     RDKit          3D

 23 23  0  0  0  0  0  0  0  0999 V2000
   -2.4136   -1.0946    0.0764 C   0  0  0  0  0  0  0  0  0  0  0  0
   -1.2163   -0.2414    0.3329 C   0  0  0  0  0  0  0  0  0  0  0  0
   -1.2452    1.0717   -0.4284 C   0  0  0  0  0  0  0  0  0  0  0  0
   -0.0790    1.8987    0.1185 C   0  0  0  0  0  0  0  0  0  0  0  0
    1.1049    1.2461   -0.1390 O   0  0  0  0  0  0  0  0  0  0  0  0
    1.2008   -0.0026    0.4317 C   0  0  0  0  0  0  0  0  0  0  0  0
    2.5508   -0.5873    0.1071 C   0  0  0  0  0  0  0  0  0  0  0  0
    2.7551   -0.7165   -1.2634 O   0  0  0  0  0  0  0  0  0  0  0  0
    0.0879   -0.9204   -0.0729 C   0  0  0  0  0  0  0  0  0  0  0  0
   -3.0205   -0.8036   -0.7809 H   0  0  0  0  0  0  0  0  0  0  0  0
   -2.1222   -2.1729    0.0658 H   0  0  0  0  0  0  0  0  0  0  0  0
   -3.0830   -0.9971    0.9799 H   0  0  0  0  0  0  0  0  0  0  0  0
   -1.0844    0.0010    1.4280 H   0  0  0  0  0  0  0  0  0  0  0  0
   -2.1938    1.5966   -0.3555 H   0  0  0  0  0  0  0  0  0  0  0  0
   -0.9693    0.8421   -1.4963 H   0  0  0  0  0  0  0  0  0  0  0  0
   -0.0347    2.8918   -0.3651 H   0  0  0  0  0  0  0  0  0  0  0  0
   -0.2917    2.0120    1.2086 H   0  0  0  0  0  0  0  0  0  0  0  0
    1.1142    0.0040    1.5422 H   0  0  0  0  0  0  0  0  0  0  0  0
    2.6987   -1.5458    0.6396 H   0  0  0  0  0  0  0  0  0  0  0  0
    3.3155    0.1197    0.4876 H   0  0  0  0  0  0  0  0  0  0  0  0
    2.6124    0.1941   -1.6559 H   0  0  0  0  0  0  0  0  0  0  0  0
    0.1185   -0.8730   -1.1888 H   0  0  0  0  0  0  0  0  0  0  0  0
    0.1947   -1.9228    0.3277 H   0  0  0  0  0  0  0  0  0  0  0  0
  1  2  1  0
  2  3  1  0
  3  4  1  0
  4  5  1  0
  5  6  1  0
  6  7  1  0
  7  8  1  0
  6  9  1  0
  9  2  1  0
  1 10  1  0
  1 11  1  0
  1 12  1  0
  2 13  1  0
  3 14  1  0
  3 15  1  0
  4 16  1  0
  4 17  1  0
  6 18  1  0
  7 19  1  0
  7 20  1  0
  8 21  1  0
  9 22  1  0
  9 23  1  0
M  END
