
     RDKit          3D

 20 21  0  0  0  0  0  0  0  0999 V2000
    2.3675   -0.7596   -0.2528 C   0  0  0  0  0  0  0  0  0  0  0  0
    1.1826    0.1293   -0.3283 C   0  0  0  0  0  0  0  0  0  0  0  0
    0.6302    0.6278    0.9967 C   0  0  0  0  0  0  0  0  0  0  0  0
   -0.7386    0.3762    0.4283 C   0  0  0  0  0  0  0  0  0  0  0  0
   -1.6170    1.4997    0.0010 C   0  0  0  0  0  0  0  0  0  0  0  0
   -1.0831   -1.0459    0.1898 C   0  0  0  0  0  0  0  0  0  0  0  0
   -2.3880   -1.2390   -0.2616 O   0  0  0  0  0  0  0  0  0  0  0  0
   -0.1138   -0.4447   -0.7513 C   0  0  0  0  0  0  0  0  0  0  0  0
    2.1800   -1.7966    0.0111 H   0  0  0  0  0  0  0  0  0  0  0  0
    3.1326   -0.2694    0.4176 H   0  0  0  0  0  0  0  0  0  0  0  0
    2.8627   -0.7474   -1.2675 H   0  0  0  0  0  0  0  0  0  0  0  0
    1.4259    1.0369   -0.9543 H   0  0  0  0  0  0  0  0  0  0  0  0
    0.8520   -0.1444    1.7823 H   0  0  0  0  0  0  0  0  0  0  0  0
    0.8852    1.6535    1.2577 H   0  0  0  0  0  0  0  0  0  0  0  0
   -1.0572    2.4064   -0.2972 H   0  0  0  0  0  0  0  0  0  0  0  0
   -2.2543    1.1242   -0.8470 H   0  0  0  0  0  0  0  0  0  0  0  0
   -2.2975    1.7667    0.8332 H   0  0  0  0  0  0  0  0  0  0  0  0
   -0.7497   -1.8286    0.8963 H   0  0  0  0  0  0  0  0  0  0  0  0
   -2.7379   -2.1319   -0.0998 H   0  0  0  0  0  0  0  0  0  0  0  0
   -0.4818   -0.2132   -1.7540 H   0  0  0  0  0  0  0  0  0  0  0  0
  1  2  1  0
  2  3  1  0
  3  4  1  0
  4  5  1  0
  4  6  1  0
  6  7  1  0
  6  8  1  0
  8  2  1  0
  8  4  1  0
  1  9  1  0
  1 10  1  0
  1 11  1  0
  2 12  1  0
  3 13  1  0
  3 14  1  0
  5 15  1  0
  5 16  1  0
  5 17  1  0
  6 18  1  0
  7 19  1  0
  8 20  1  0
M  END
