
     RDKit          3D

 21 23  0  0  0  0  0  0  0  0999 V2000
   -2.5985    0.4081   -0.0351 C   0  0  0  0  0  0  0  0  0  0  0  0
   -1.1412    0.4364   -0.3718 C   0  0  0  0  0  0  0  0  0  0  0  0
   -0.3442    0.8461    0.8628 C   0  0  0  0  0  0  0  0  0  0  0  0
    0.9459    0.5822    0.9015 C   0  0  0  0  0  0  0  0  0  0  0  0
    2.3679    0.2494    0.8533 C   0  0  0  0  0  0  0  0  0  0  0  0
    2.0398   -0.7918   -0.3008 C   0  0  0  0  0  0  0  0  0  0  0  0
    0.6802   -1.2249   -0.4650 C   0  0  0  0  0  0  0  0  0  0  0  0
   -0.6603   -0.8852   -0.9567 C   0  0  0  0  0  0  0  0  0  0  0  0
    1.1923    0.2101   -0.6205 C   0  0  0  0  0  0  0  0  0  0  0  0
   -3.0385    1.3953   -0.2842 H   0  0  0  0  0  0  0  0  0  0  0  0
   -2.8135    0.2098    1.0320 H   0  0  0  0  0  0  0  0  0  0  0  0
   -3.0930   -0.3303   -0.7135 H   0  0  0  0  0  0  0  0  0  0  0  0
   -0.9463    1.2363   -1.1093 H   0  0  0  0  0  0  0  0  0  0  0  0
   -0.8122    1.3451    1.7135 H   0  0  0  0  0  0  0  0  0  0  0  0
    2.7869   -0.2919    1.7291 H   0  0  0  0  0  0  0  0  0  0  0  0
    3.0191    1.0518    0.4655 H   0  0  0  0  0  0  0  0  0  0  0  0
    2.9137   -1.1059   -0.8990 H   0  0  0  0  0  0  0  0  0  0  0  0
    0.4810   -1.7333    0.5160 H   0  0  0  0  0  0  0  0  0  0  0  0
   -1.3714   -1.7060   -0.7974 H   0  0  0  0  0  0  0  0  0  0  0  0
   -0.6322   -0.7960   -2.0956 H   0  0  0  0  0  0  0  0  0  0  0  0
    1.0246    0.8949   -1.3618 H   0  0  0  0  0  0  0  0  0  0  0  0
  1  2  1  0
  2  3  1  0
  3  4  2  0
  4  5  1  0
  5  6  1  0
  6  7  1  0
  7  8  1  0
  7  9  1  0
  8  2  1  0
  9  4  1  0
  9  6  1  0
  1 10  1  0
  1 11  1  0
  1 12  1  0
  2 13  1  0
  3 14  1  0
  5 15  1  0
  5 16  1  0
  6 17  1  0
  7 18  1  0
  8 19  1  0
  8 20  1  0
  9 21  1  0
M  END
