
     RDKit          3D

 19 19  0  0  0  0  0  0  0  0999 V2000
   -2.3949   -0.5116    0.6193 C   0  0  0  0  0  0  0  0  0  0  0  0
   -1.0525    0.2171    0.6074 C   0  0  0  0  0  0  0  0  0  0  0  0
    0.0212   -0.7976    0.5158 C   0  0  0  0  0  0  0  0  0  0  0  0
    1.1878   -0.3839    0.0633 C   0  0  0  0  0  0  0  0  0  0  0  0
    2.3031   -1.2948   -0.0649 C   0  0  0  0  0  0  0  0  0  0  0  0
    3.4317   -0.9450   -0.4909 O   0  0  0  0  0  0  0  0  0  0  0  0
    1.2833    1.0509   -0.3029 C   0  0  0  0  0  0  0  0  0  0  0  0
    0.0311    1.3032   -1.1537 C   0  0  0  0  0  0  0  0  0  0  0  0
   -1.0869    1.1408   -0.3876 O   0  0  0  0  0  0  0  0  0  0  0  0
   -2.9431   -0.3233   -0.3481 H   0  0  0  0  0  0  0  0  0  0  0  0
   -2.2674   -1.6072    0.6712 H   0  0  0  0  0  0  0  0  0  0  0  0
   -3.0508   -0.1651    1.4317 H   0  0  0  0  0  0  0  0  0  0  0  0
   -0.9975    0.7578    1.5927 H   0  0  0  0  0  0  0  0  0  0  0  0
   -0.1007   -1.8218    0.7914 H   0  0  0  0  0  0  0  0  0  0  0  0
    2.1684   -2.3271    0.2167 H   0  0  0  0  0  0  0  0  0  0  0  0
    1.1819    1.6265    0.6623 H   0  0  0  0  0  0  0  0  0  0  0  0
    2.1979    1.2940   -0.8502 H   0  0  0  0  0  0  0  0  0  0  0  0
    0.0657    2.2843   -1.6260 H   0  0  0  0  0  0  0  0  0  0  0  0
    0.0218    0.5029   -1.9476 H   0  0  0  0  0  0  0  0  0  0  0  0
  1  2  1  0
  2  3  1  0
  3  4  2  0
  4  5  1  0
  5  6  2  0
  4  7  1  0
  7  8  1  0
  8  9  1  0
  9  2  1  0
  1 10  1  0
  1 11  1  0
  1 12  1  0
  2 13  1  0
  3 14  1  0
  5 15  1  0
  7 16  1  0
  7 17  1  0
  8 18  1  0
  8 19  1  0
M  END
