
     RDKit          3D

 18 18  0  0  0  0  0  0  0  0999 V2000
   -1.1643    1.5136    0.1939 C   0  0  0  0  0  0  0  0  0  0  0  0
   -0.0939    0.7238   -0.4551 C   0  0  0  0  0  0  0  0  0  0  0  0
    0.9796    0.1436    0.4054 C   0  0  0  0  0  0  0  0  0  0  0  0
    2.1065    0.8841    0.6143 O   0  0  0  0  0  0  0  0  0  0  0  0
    1.0885   -0.9092   -0.7082 C   0  0  0  0  0  0  0  0  0  0  0  0
   -0.4385   -0.7354   -0.7648 C   0  0  0  0  0  0  0  0  0  0  0  0
   -1.0277   -1.4576    0.3880 C   0  0  0  0  0  0  0  0  0  0  0  0
   -1.0194   -2.6809    0.3872 O   0  0  0  0  0  0  0  0  0  0  0  0
   -1.7285    2.0473   -0.6231 H   0  0  0  0  0  0  0  0  0  0  0  0
   -1.9017    0.9555    0.7645 H   0  0  0  0  0  0  0  0  0  0  0  0
   -0.7094    2.2765    0.8571 H   0  0  0  0  0  0  0  0  0  0  0  0
    0.3259    1.1770   -1.3760 H   0  0  0  0  0  0  0  0  0  0  0  0
    0.5581   -0.3777    1.3028 H   0  0  0  0  0  0  0  0  0  0  0  0
    2.4417    0.6674    1.5378 H   0  0  0  0  0  0  0  0  0  0  0  0
    1.4363   -1.8800   -0.4036 H   0  0  0  0  0  0  0  0  0  0  0  0
    1.5069   -0.4596   -1.6326 H   0  0  0  0  0  0  0  0  0  0  0  0
   -0.8857   -0.9089   -1.7369 H   0  0  0  0  0  0  0  0  0  0  0  0
   -1.4743   -0.9795    1.2492 H   0  0  0  0  0  0  0  0  0  0  0  0
  1  2  1  0
  2  3  1  0
  3  4  1  0
  3  5  1  0
  5  6  1  0
  6  7  1  0
  7  8  2  0
  6  2  1  0
  1  9  1  0
  1 10  1  0
  1 11  1  0
  2 12  1  0
  3 13  1  0
  4 14  1  0
  5 15  1  0
  5 16  1  0
  6 17  1  0
  7 18  1  0
M  END
