
     RDKit          3D

 21 21  0  0  0  0  0  0  0  0999 V2000
    2.2825    0.7761   -0.3042 C   0  0  0  0  0  0  0  0  0  0  0  0
    1.3488   -0.3974   -0.4387 C   0  0  0  0  0  0  0  0  0  0  0  0
    1.0450   -0.9495    0.9060 C   0  0  0  0  0  0  0  0  0  0  0  0
   -0.4318   -0.8654    0.9845 C   0  0  0  0  0  0  0  0  0  0  0  0
   -1.1733   -1.3386    1.8064 O   0  0  0  0  0  0  0  0  0  0  0  0
   -0.8478   -0.0508   -0.1940 C   0  0  0  0  0  0  0  0  0  0  0  0
   -1.2901    1.3426    0.2511 C   0  0  0  0  0  0  0  0  0  0  0  0
   -2.0478   -0.6953   -0.8531 C   0  0  0  0  0  0  0  0  0  0  0  0
    0.2034   -0.0201   -1.0611 O   0  0  0  0  0  0  0  0  0  0  0  0
    2.4557    1.0404    0.7695 H   0  0  0  0  0  0  0  0  0  0  0  0
    3.2812    0.5993   -0.7361 H   0  0  0  0  0  0  0  0  0  0  0  0
    1.8720    1.6691   -0.8415 H   0  0  0  0  0  0  0  0  0  0  0  0
    1.9080   -1.1829   -1.0141 H   0  0  0  0  0  0  0  0  0  0  0  0
    1.4119   -1.9840    1.0706 H   0  0  0  0  0  0  0  0  0  0  0  0
    1.4557   -0.3239    1.7502 H   0  0  0  0  0  0  0  0  0  0  0  0
   -1.7240    1.8346   -0.6585 H   0  0  0  0  0  0  0  0  0  0  0  0
   -0.4903    1.9140    0.7177 H   0  0  0  0  0  0  0  0  0  0  0  0
   -2.1694    1.1693    0.9303 H   0  0  0  0  0  0  0  0  0  0  0  0
   -2.2684   -1.6738   -0.3832 H   0  0  0  0  0  0  0  0  0  0  0  0
   -1.8545   -0.7768   -1.9496 H   0  0  0  0  0  0  0  0  0  0  0  0
   -2.9673   -0.0869   -0.7521 H   0  0  0  0  0  0  0  0  0  0  0  0
  1  2  1  0
  2  3  1  0
  3  4  1  0
  4  5  2  0
  4  6  1  0
  6  7  1  0
  6  8  1  0
  6  9  1  0
  9  2  1  0
  1 10  1  0
  1 11  1  0
  1 12  1  0
  2 13  1  0
  3 14  1  0
  3 15  1  0
  7 16  1  0
  7 17  1  0
  7 18  1  0
  8 19  1  0
  8 20  1  0
  8 21  1  0
M  END
