
     RDKit          3D

 19 20  0  0  0  0  0  0  0  0999 V2000
    1.9909   -0.1945    0.3326 C   0  0  0  0  0  0  0  0  0  0  0  0
    0.7003   -0.2436   -0.4840 C   0  0  0  0  0  0  0  0  0  0  0  0
   -0.2654   -1.1030    0.3079 C   0  0  0  0  0  0  0  0  0  0  0  0
   -1.5668   -1.2922   -0.4274 C   0  0  0  0  0  0  0  0  0  0  0  0
   -2.0873    0.0139   -0.4041 O   0  0  0  0  0  0  0  0  0  0  0  0
   -1.2390    0.7726    0.3745 C   0  0  0  0  0  0  0  0  0  0  0  0
   -0.6788   -0.1608    1.2826 O   0  0  0  0  0  0  0  0  0  0  0  0
   -0.0118    1.1017   -0.4579 C   0  0  0  0  0  0  0  0  0  0  0  0
    0.7438    2.0700    0.1881 O   0  0  0  0  0  0  0  0  0  0  0  0
    1.7222    0.0530    1.3854 H   0  0  0  0  0  0  0  0  0  0  0  0
    2.3367   -1.2680    0.3780 H   0  0  0  0  0  0  0  0  0  0  0  0
    2.7440    0.4571   -0.1058 H   0  0  0  0  0  0  0  0  0  0  0  0
    0.8923   -0.6098   -1.4905 H   0  0  0  0  0  0  0  0  0  0  0  0
    0.1650   -1.9958    0.7312 H   0  0  0  0  0  0  0  0  0  0  0  0
   -1.4575   -1.6789   -1.4405 H   0  0  0  0  0  0  0  0  0  0  0  0
   -2.2214   -1.9045    0.2257 H   0  0  0  0  0  0  0  0  0  0  0  0
   -1.6871    1.6230    0.8636 H   0  0  0  0  0  0  0  0  0  0  0  0
   -0.2943    1.4624   -1.4428 H   0  0  0  0  0  0  0  0  0  0  0  0
    0.2141    2.8975    0.1834 H   0  0  0  0  0  0  0  0  0  0  0  0
  1  2  1  0
  2  3  1  0
  3  4  1  0
  4  5  1  0
  5  6  1  0
  6  7  1  0
  6  8  1  0
  8  9  1  0
  8  2  1  0
  7  3  1  0
  1 10  1  0
  1 11  1  0
  1 12  1  0
  2 13  1  0
  3 14  1  0
  4 15  1  0
  4 16  1  0
  6 17  1  0
  8 18  1  0
  9 19  1  0
M  END
