
     RDKit          3D

 25 25  0  0  0  0  0  0  0  0999 V2000
   -2.0070    1.2136    0.8849 C   0  0  0  0  0  0  0  0  0  0  0  0
   -1.2128   -0.0543    1.0072 C   0  0  0  0  0  0  0  0  0  0  0  0
   -1.0097   -0.9829   -0.1034 C   0  0  0  0  0  0  0  0  0  0  0  0
   -1.7361   -0.8344   -1.4207 C   0  0  0  0  0  0  0  0  0  0  0  0
    0.1240   -0.0892    0.2363 C   0  0  0  0  0  0  0  0  0  0  0  0
    0.4007    1.0387   -0.7145 C   0  0  0  0  0  0  0  0  0  0  0  0
    1.2936   -0.6469    1.0461 C   0  0  0  0  0  0  0  0  0  0  0  0
    2.5602   -0.6451    0.2177 C   0  0  0  0  0  0  0  0  0  0  0  0
    2.8774    0.6739   -0.1846 O   0  0  0  0  0  0  0  0  0  0  0  0
   -1.3422    2.0661    0.6250 H   0  0  0  0  0  0  0  0  0  0  0  0
   -2.8093    1.1692    0.1284 H   0  0  0  0  0  0  0  0  0  0  0  0
   -2.5142    1.4998    1.8481 H   0  0  0  0  0  0  0  0  0  0  0  0
   -1.1947   -0.4612    2.0483 H   0  0  0  0  0  0  0  0  0  0  0  0
   -0.8461   -2.0555    0.1712 H   0  0  0  0  0  0  0  0  0  0  0  0
   -2.2143    0.1427   -1.5494 H   0  0  0  0  0  0  0  0  0  0  0  0
   -2.5292   -1.6103   -1.4725 H   0  0  0  0  0  0  0  0  0  0  0  0
   -1.0379   -0.9667   -2.2900 H   0  0  0  0  0  0  0  0  0  0  0  0
   -0.5645    1.3777   -1.1307 H   0  0  0  0  0  0  0  0  0  0  0  0
    1.0004    0.6695   -1.5771 H   0  0  0  0  0  0  0  0  0  0  0  0
    0.8713    1.8857   -0.1863 H   0  0  0  0  0  0  0  0  0  0  0  0
    1.4921   -0.0166    1.9371 H   0  0  0  0  0  0  0  0  0  0  0  0
    1.1103   -1.6822    1.3671 H   0  0  0  0  0  0  0  0  0  0  0  0
    3.4308   -0.9761    0.8190 H   0  0  0  0  0  0  0  0  0  0  0  0
    2.4921   -1.2964   -0.6599 H   0  0  0  0  0  0  0  0  0  0  0  0
    3.3651    0.5809   -1.0471 H   0  0  0  0  0  0  0  0  0  0  0  0
  1  2  1  0
  2  3  1  0
  3  4  1  0
  3  5  1  0
  5  6  1  0
  5  7  1  0
  7  8  1  0
  8  9  1  0
  5  2  1  0
  1 10  1  0
  1 11  1  0
  1 12  1  0
  2 13  1  0
  3 14  1  0
  4 15  1  0
  4 16  1  0
  4 17  1  0
  6 18  1  0
  6 19  1  0
  6 20  1  0
  7 21  1  0
  7 22  1  0
  8 23  1  0
  8 24  1  0
  9 25  1  0
M  END
