
     RDKit          3D

 21 21  0  0  0  0  0  0  0  0999 V2000
   -2.0470   -0.5083    0.4895 C   0  0  0  0  0  0  0  0  0  0  0  0
   -0.7823   -0.8803   -0.2625 C   0  0  0  0  0  0  0  0  0  0  0  0
   -0.6014    0.1527   -1.3451 C   0  0  0  0  0  0  0  0  0  0  0  0
   -0.3503    1.4591   -0.6832 C   0  0  0  0  0  0  0  0  0  0  0  0
    0.5394    1.4726    0.2998 C   0  0  0  0  0  0  0  0  0  0  0  0
    1.2466    0.2456    0.7161 C   0  0  0  0  0  0  0  0  0  0  0  0
    2.4736    0.0512   -0.0983 C   0  0  0  0  0  0  0  0  0  0  0  0
    3.3739   -0.6502    0.3409 O   0  0  0  0  0  0  0  0  0  0  0  0
    0.3790   -0.9792    0.6752 C   0  0  0  0  0  0  0  0  0  0  0  0
   -2.0803   -0.9450    1.5057 H   0  0  0  0  0  0  0  0  0  0  0  0
   -2.0996    0.6022    0.6275 H   0  0  0  0  0  0  0  0  0  0  0  0
   -2.9243   -0.8322   -0.1132 H   0  0  0  0  0  0  0  0  0  0  0  0
   -0.9751   -1.8485   -0.7735 H   0  0  0  0  0  0  0  0  0  0  0  0
    0.2619   -0.1450   -1.9747 H   0  0  0  0  0  0  0  0  0  0  0  0
   -1.5052    0.1550   -1.9651 H   0  0  0  0  0  0  0  0  0  0  0  0
   -0.8651    2.3763   -0.9789 H   0  0  0  0  0  0  0  0  0  0  0  0
    0.7351    2.4193    0.7938 H   0  0  0  0  0  0  0  0  0  0  0  0
    1.5752    0.3992    1.7654 H   0  0  0  0  0  0  0  0  0  0  0  0
    2.6078    0.5054   -1.0690 H   0  0  0  0  0  0  0  0  0  0  0  0
    1.0233   -1.8254    0.3556 H   0  0  0  0  0  0  0  0  0  0  0  0
    0.0148   -1.2245    1.6942 H   0  0  0  0  0  0  0  0  0  0  0  0
  1  2  1  0
  2  3  1  0
  3  4  1  0
  4  5  2  0
  5  6  1  0
  6  7  1  0
  7  8  2  0
  6  9  1  0
  9  2  1  0
  1 10  1  0
  1 11  1  0
  1 12  1  0
  2 13  1  0
  3 14  1  0
  3 15  1  0
  4 16  1  0
  5 17  1  0
  6 18  1  0
  7 19  1  0
  9 20  1  0
  9 21  1  0
M  END
