
     RDKit          3D

 21 23  0  0  0  0  0  0  0  0999 V2000
   -2.2575   -1.3068    0.3275 C   0  0  0  0  0  0  0  0  0  0  0  0
   -0.9516   -0.9633   -0.3031 C   0  0  0  0  0  0  0  0  0  0  0  0
    0.1253   -0.2553    0.4692 C   0  0  0  0  0  0  0  0  0  0  0  0
    1.3200    0.1283   -0.3407 C   0  0  0  0  0  0  0  0  0  0  0  0
    2.5337    0.7041    0.1856 C   0  0  0  0  0  0  0  0  0  0  0  0
    2.5059   -0.7102   -0.4422 C   0  0  0  0  0  0  0  0  0  0  0  0
    0.5833    0.5917   -1.3850 O   0  0  0  0  0  0  0  0  0  0  0  0
   -0.5924    0.4102   -0.6839 C   0  0  0  0  0  0  0  0  0  0  0  0
   -1.4209    1.6015   -0.3387 C   0  0  0  0  0  0  0  0  0  0  0  0
   -3.0721   -0.9107   -0.3255 H   0  0  0  0  0  0  0  0  0  0  0  0
   -2.3221   -0.8775    1.3490 H   0  0  0  0  0  0  0  0  0  0  0  0
   -2.3961   -2.4089    0.3568 H   0  0  0  0  0  0  0  0  0  0  0  0
   -0.5839   -1.7518   -1.0240 H   0  0  0  0  0  0  0  0  0  0  0  0
   -0.0575    0.1500    1.4680 H   0  0  0  0  0  0  0  0  0  0  0  0
    2.7800    0.7704    1.2630 H   0  0  0  0  0  0  0  0  0  0  0  0
    3.0513    1.4754   -0.4505 H   0  0  0  0  0  0  0  0  0  0  0  0
    2.5897   -1.5683    0.2723 H   0  0  0  0  0  0  0  0  0  0  0  0
    2.9773   -0.8389   -1.4263 H   0  0  0  0  0  0  0  0  0  0  0  0
   -2.4787    1.4663   -0.6084 H   0  0  0  0  0  0  0  0  0  0  0  0
   -1.3830    1.8041    0.7551 H   0  0  0  0  0  0  0  0  0  0  0  0
   -0.9507    2.4899   -0.8251 H   0  0  0  0  0  0  0  0  0  0  0  0
  1  2  1  0
  2  3  1  0
  3  4  1  0
  4  5  1  0
  5  6  1  0
  4  7  1  0
  7  8  1  0
  8  9  1  0
  8  2  1  0
  8  3  1  0
  6  4  1  0
  1 10  1  0
  1 11  1  0
  1 12  1  0
  2 13  1  0
  3 14  1  0
  5 15  1  0
  5 16  1  0
  6 17  1  0
  6 18  1  0
  9 19  1  0
  9 20  1  0
  9 21  1  0
M  END
