
     RDKit          3D

 20 20  0  0  0  0  0  0  0  0999 V2000
    2.6285   -0.0730    0.1055 C   0  0  0  0  0  0  0  0  0  0  0  0
    1.1242   -0.2844    0.2556 C   0  0  0  0  0  0  0  0  0  0  0  0
    0.4467   -0.5011   -1.0891 C   0  0  0  0  0  0  0  0  0  0  0  0
    0.1725    0.6928   -0.2505 C   0  0  0  0  0  0  0  0  0  0  0  0
   -1.1942    0.8559    0.3578 C   0  0  0  0  0  0  0  0  0  0  0  0
   -1.9027    1.8799   -0.3122 O   0  0  0  0  0  0  0  0  0  0  0  0
   -1.9493   -0.4432    0.2315 C   0  0  0  0  0  0  0  0  0  0  0  0
   -1.2863   -1.4519    0.9051 O   0  0  0  0  0  0  0  0  0  0  0  0
    2.8426    0.3966   -0.8760 H   0  0  0  0  0  0  0  0  0  0  0  0
    3.0392    0.5091    0.9502 H   0  0  0  0  0  0  0  0  0  0  0  0
    3.0746   -1.0960    0.1377 H   0  0  0  0  0  0  0  0  0  0  0  0
    0.8895   -0.9080    1.1196 H   0  0  0  0  0  0  0  0  0  0  0  0
    1.0439   -0.3687   -2.0246 H   0  0  0  0  0  0  0  0  0  0  0  0
   -0.1652   -1.3985   -1.1150 H   0  0  0  0  0  0  0  0  0  0  0  0
    0.5257    1.6632   -0.7216 H   0  0  0  0  0  0  0  0  0  0  0  0
   -1.0984    1.1954    1.4023 H   0  0  0  0  0  0  0  0  0  0  0  0
   -1.3568    2.6967   -0.3487 H   0  0  0  0  0  0  0  0  0  0  0  0
   -3.0042   -0.3416    0.5861 H   0  0  0  0  0  0  0  0  0  0  0  0
   -2.0572   -0.7198   -0.8534 H   0  0  0  0  0  0  0  0  0  0  0  0
   -1.7730   -2.3035    0.8370 H   0  0  0  0  0  0  0  0  0  0  0  0
  1  2  1  0
  2  3  1  0
  3  4  1  0
  4  5  1  0
  5  6  1  0
  5  7  1  0
  7  8  1  0
  4  2  1  0
  1  9  1  0
  1 10  1  0
  1 11  1  0
  2 12  1  0
  3 13  1  0
  3 14  1  0
  4 15  1  0
  5 16  1  0
  6 17  1  0
  7 18  1  0
  7 19  1  0
  8 20  1  0
M  END
