
     RDKit          3D

 14 14  0  0  0  0  0  0  0  0999 V2000
    1.6340   -0.6490    0.2147 C   0  0  0  0  0  0  0  0  0  0  0  0
    0.3865   -0.1603   -0.4793 C   0  0  0  0  0  0  0  0  0  0  0  0
   -0.4820    0.7156    0.4139 C   0  0  0  0  0  0  0  0  0  0  0  0
   -0.8231    1.9214   -0.1744 O   0  0  0  0  0  0  0  0  0  0  0  0
   -0.9576   -0.5799   -0.0707 C   0  0  0  0  0  0  0  0  0  0  0  0
   -1.9307   -0.5426   -1.0909 O   0  0  0  0  0  0  0  0  0  0  0  0
    2.4158   -0.9664   -0.4774 H   0  0  0  0  0  0  0  0  0  0  0  0
    1.4016   -1.3981    1.0109 H   0  0  0  0  0  0  0  0  0  0  0  0
    2.0357    0.2417    0.7823 H   0  0  0  0  0  0  0  0  0  0  0  0
    0.5633    0.1511   -1.5268 H   0  0  0  0  0  0  0  0  0  0  0  0
   -0.2434    0.7959    1.4863 H   0  0  0  0  0  0  0  0  0  0  0  0
   -0.0298    2.5249   -0.0454 H   0  0  0  0  0  0  0  0  0  0  0  0
   -1.1501   -1.3751    0.6773 H   0  0  0  0  0  0  0  0  0  0  0  0
   -2.8202   -0.6792   -0.7204 H   0  0  0  0  0  0  0  0  0  0  0  0
  1  2  1  0
  2  3  1  0
  3  4  1  0
  3  5  1  0
  5  6  1  0
  5  2  1  0
  1  7  1  0
  1  8  1  0
  1  9  1  0
  2 10  1  0
  3 11  1  0
  4 12  1  0
  5 13  1  0
  6 14  1  0
M  END
