
     RDKit          3D

 21 22  0  0  0  0  0  0  0  0999 V2000
   -2.1428   -0.9121    0.2910 C   0  0  0  0  0  0  0  0  0  0  0  0
   -1.3040   -0.0063   -0.5612 C   0  0  0  0  0  0  0  0  0  0  0  0
   -1.3434    1.4104    0.0009 C   0  0  0  0  0  0  0  0  0  0  0  0
   -0.4423    0.9474    0.9800 O   0  0  0  0  0  0  0  0  0  0  0  0
    0.0837    0.1275   -0.0458 C   0  0  0  0  0  0  0  0  0  0  0  0
    1.0445    0.8970   -0.8222 C   0  0  0  0  0  0  0  0  0  0  0  0
    2.2688    0.5787   -0.4328 C   0  0  0  0  0  0  0  0  0  0  0  0
    2.1938   -0.4576    0.6622 C   0  0  0  0  0  0  0  0  0  0  0  0
    0.8035   -1.0760    0.4090 C   0  0  0  0  0  0  0  0  0  0  0  0
   -2.2626   -0.4741    1.3236 H   0  0  0  0  0  0  0  0  0  0  0  0
   -3.1436   -1.0565   -0.1214 H   0  0  0  0  0  0  0  0  0  0  0  0
   -1.6562   -1.9070    0.3564 H   0  0  0  0  0  0  0  0  0  0  0  0
   -1.4675   -0.0309   -1.6353 H   0  0  0  0  0  0  0  0  0  0  0  0
   -0.8722    2.1090   -0.7171 H   0  0  0  0  0  0  0  0  0  0  0  0
   -2.3203    1.7319    0.3887 H   0  0  0  0  0  0  0  0  0  0  0  0
    0.8983    1.6379   -1.6150 H   0  0  0  0  0  0  0  0  0  0  0  0
    3.2301    0.9618   -0.7974 H   0  0  0  0  0  0  0  0  0  0  0  0
    2.1851    0.0018    1.6531 H   0  0  0  0  0  0  0  0  0  0  0  0
    2.9813   -1.1779    0.4645 H   0  0  0  0  0  0  0  0  0  0  0  0
    0.3888   -1.5120    1.3242 H   0  0  0  0  0  0  0  0  0  0  0  0
    0.8769   -1.7932   -0.4375 H   0  0  0  0  0  0  0  0  0  0  0  0
  1  2  1  0
  2  3  1  0
  3  4  1  0
  4  5  1  0
  5  6  1  0
  6  7  2  0
  7  8  1  0
  8  9  1  0
  5  2  1  0
  9  5  1  0
  1 10  1  0
  1 11  1  0
  1 12  1  0
  2 13  1  0
  3 14  1  0
  3 15  1  0
  6 16  1  0
  7 17  1  0
  8 18  1  0
  8 19  1  0
  9 20  1  0
  9 21  1  0
M  END
