
     RDKit          3D

 25 25  0  0  0  0  0  0  0  0999 V2000
    3.1782    0.0212   -0.8916 C   0  0  0  0  0  0  0  0  0  0  0  0
    1.9374   -0.1114   -0.0385 C   0  0  0  0  0  0  0  0  0  0  0  0
    0.9003   -0.9888   -0.6660 C   0  0  0  0  0  0  0  0  0  0  0  0
    0.0116    0.0216    0.0006 C   0  0  0  0  0  0  0  0  0  0  0  0
   -0.2915   -0.1907    1.4422 C   0  0  0  0  0  0  0  0  0  0  0  0
   -1.2143    0.4168   -0.7681 C   0  0  0  0  0  0  0  0  0  0  0  0
   -1.9770    1.4378    0.0638 C   0  0  0  0  0  0  0  0  0  0  0  0
   -2.1551   -0.7375   -1.0106 C   0  0  0  0  0  0  0  0  0  0  0  0
    1.0366    0.9572   -0.1524 O   0  0  0  0  0  0  0  0  0  0  0  0
    3.1748   -0.7413   -1.7113 H   0  0  0  0  0  0  0  0  0  0  0  0
    4.1059   -0.1849   -0.3081 H   0  0  0  0  0  0  0  0  0  0  0  0
    3.2694    1.0246   -1.3561 H   0  0  0  0  0  0  0  0  0  0  0  0
    2.2117   -0.3039    0.9979 H   0  0  0  0  0  0  0  0  0  0  0  0
    0.8835   -0.8401   -1.7624 H   0  0  0  0  0  0  0  0  0  0  0  0
    0.8018   -2.0048   -0.2900 H   0  0  0  0  0  0  0  0  0  0  0  0
    0.4878   -0.7404    2.0004 H   0  0  0  0  0  0  0  0  0  0  0  0
   -0.4114    0.8104    1.9214 H   0  0  0  0  0  0  0  0  0  0  0  0
   -1.2339   -0.7746    1.5827 H   0  0  0  0  0  0  0  0  0  0  0  0
   -0.9431    0.8293   -1.7604 H   0  0  0  0  0  0  0  0  0  0  0  0
   -1.2942    2.1103    0.6191 H   0  0  0  0  0  0  0  0  0  0  0  0
   -2.5586    2.0796   -0.6380 H   0  0  0  0  0  0  0  0  0  0  0  0
   -2.6473    0.9505    0.7795 H   0  0  0  0  0  0  0  0  0  0  0  0
   -2.8557   -0.9005   -0.1683 H   0  0  0  0  0  0  0  0  0  0  0  0
   -1.6323   -1.6742   -1.2832 H   0  0  0  0  0  0  0  0  0  0  0  0
   -2.7847   -0.4664   -1.8864 H   0  0  0  0  0  0  0  0  0  0  0  0
  1  2  1  0
  2  3  1  0
  3  4  1  0
  4  5  1  0
  4  6  1  0
  6  7  1  0
  6  8  1  0
  4  9  1  0
  9  2  1  0
  1 10  1  0
  1 11  1  0
  1 12  1  0
  2 13  1  0
  3 14  1  0
  3 15  1  0
  5 16  1  0
  5 17  1  0
  5 18  1  0
  6 19  1  0
  7 20  1  0
  7 21  1  0
  7 22  1  0
  8 23  1  0
  8 24  1  0
  8 25  1  0
M  END
