
     RDKit          3D

 19 19  0  0  0  0  0  0  0  0999 V2000
    1.8696   -0.4953   -0.0979 C   0  0  0  0  0  0  0  0  0  0  0  0
    0.4519   -0.4027    0.3955 C   0  0  0  0  0  0  0  0  0  0  0  0
   -0.2677   -1.6681   -0.0123 C   0  0  0  0  0  0  0  0  0  0  0  0
   -1.6275   -1.1841   -0.3543 C   0  0  0  0  0  0  0  0  0  0  0  0
   -2.5992   -1.9081   -0.7523 O   0  0  0  0  0  0  0  0  0  0  0  0
   -1.6966    0.2610   -0.1675 C   0  0  0  0  0  0  0  0  0  0  0  0
   -2.7329    0.9722    0.0478 O   0  0  0  0  0  0  0  0  0  0  0  0
   -0.2881    0.7217   -0.2840 C   0  0  0  0  0  0  0  0  0  0  0  0
   -0.0495    2.0522    0.3316 C   0  0  0  0  0  0  0  0  0  0  0  0
    2.0128    0.0320   -1.0817 H   0  0  0  0  0  0  0  0  0  0  0  0
    2.1919   -1.5480   -0.2107 H   0  0  0  0  0  0  0  0  0  0  0  0
    2.5164    0.0108    0.6701 H   0  0  0  0  0  0  0  0  0  0  0  0
    0.3964   -0.2549    1.4929 H   0  0  0  0  0  0  0  0  0  0  0  0
   -0.3557   -2.3713    0.8583 H   0  0  0  0  0  0  0  0  0  0  0  0
    0.2212   -2.1648   -0.8679 H   0  0  0  0  0  0  0  0  0  0  0  0
   -0.0469    0.7788   -1.3638 H   0  0  0  0  0  0  0  0  0  0  0  0
   -0.8328    2.2734    1.0779 H   0  0  0  0  0  0  0  0  0  0  0  0
    0.9715    2.0518    0.7778 H   0  0  0  0  0  0  0  0  0  0  0  0
   -0.1348    2.8433   -0.4595 H   0  0  0  0  0  0  0  0  0  0  0  0
  1  2  1  0
  2  3  1  0
  3  4  1  0
  4  5  2  0
  4  6  1  0
  6  7  2  0
  6  8  1  0
  8  9  1  0
  8  2  1  0
  1 10  1  0
  1 11  1  0
  1 12  1  0
  2 13  1  0
  3 14  1  0
  3 15  1  0
  8 16  1  0
  9 17  1  0
  9 18  1  0
  9 19  1  0
M  END
