
     RDKit          3D

 23 23  0  0  0  0  0  0  0  0999 V2000
   -0.2494    2.0881    0.0152 C   0  0  0  0  0  0  0  0  0  0  0  0
   -0.4512    0.6882   -0.4353 C   0  0  0  0  0  0  0  0  0  0  0  0
   -1.3507   -0.1281    0.4517 C   0  0  0  0  0  0  0  0  0  0  0  0
   -2.6885    0.0418    0.1568 O   0  0  0  0  0  0  0  0  0  0  0  0
   -0.9483   -1.5596    0.2399 C   0  0  0  0  0  0  0  0  0  0  0  0
    0.2216   -1.5327   -0.7197 C   0  0  0  0  0  0  0  0  0  0  0  0
    0.7928   -0.1096   -0.6207 C   0  0  0  0  0  0  0  0  0  0  0  0
    1.7160   -0.1005    0.5520 C   0  0  0  0  0  0  0  0  0  0  0  0
    2.1790    1.1378    0.9204 O   0  0  0  0  0  0  0  0  0  0  0  0
   -1.0595    2.7821   -0.3546 H   0  0  0  0  0  0  0  0  0  0  0  0
   -0.3246    2.1217    1.1240 H   0  0  0  0  0  0  0  0  0  0  0  0
    0.7206    2.5273   -0.2612 H   0  0  0  0  0  0  0  0  0  0  0  0
   -0.9632    0.7314   -1.4409 H   0  0  0  0  0  0  0  0  0  0  0  0
   -1.1900    0.1993    1.5140 H   0  0  0  0  0  0  0  0  0  0  0  0
   -3.1559   -0.8502    0.1743 H   0  0  0  0  0  0  0  0  0  0  0  0
   -0.6833   -2.0451    1.2111 H   0  0  0  0  0  0  0  0  0  0  0  0
   -1.7406   -2.1696   -0.2290 H   0  0  0  0  0  0  0  0  0  0  0  0
   -0.0778   -1.6621   -1.7721 H   0  0  0  0  0  0  0  0  0  0  0  0
    0.9822   -2.2306   -0.3656 H   0  0  0  0  0  0  0  0  0  0  0  0
    1.3169    0.1252   -1.5846 H   0  0  0  0  0  0  0  0  0  0  0  0
    1.2227   -0.6535    1.3825 H   0  0  0  0  0  0  0  0  0  0  0  0
    2.6095   -0.7156    0.2724 H   0  0  0  0  0  0  0  0  0  0  0  0
    3.1218    1.3141    0.6752 H   0  0  0  0  0  0  0  0  0  0  0  0
  1  2  1  0
  2  3  1  0
  3  4  1  0
  3  5  1  0
  5  6  1  0
  6  7  1  0
  7  8  1  0
  8  9  1  0
  7  2  1  0
  1 10  1  0
  1 11  1  0
  1 12  1  0
  2 13  1  0
  3 14  1  0
  4 15  1  0
  5 16  1  0
  5 17  1  0
  6 18  1  0
  6 19  1  0
  7 20  1  0
  8 21  1  0
  8 22  1  0
  9 23  1  0
M  END
