
     RDKit          3D

 23 23  0  0  0  0  0  0  0  0999 V2000
   -2.1816    0.6459   -0.6049 C   0  0  0  0  0  0  0  0  0  0  0  0
   -1.4120    0.2405    0.6699 C   0  0  0  0  0  0  0  0  0  0  0  0
   -0.3611    1.2098    0.8200 C   0  0  0  0  0  0  0  0  0  0  0  0
    0.8888    1.5101    0.4680 C   0  0  0  0  0  0  0  0  0  0  0  0
    1.8803    0.8507   -0.3701 C   0  0  0  0  0  0  0  0  0  0  0  0
    2.1846   -0.5712   -0.0330 C   0  0  0  0  0  0  0  0  0  0  0  0
    1.1332   -1.3983   -0.6519 C   0  0  0  0  0  0  0  0  0  0  0  0
   -0.1259   -1.6252   -0.3975 C   0  0  0  0  0  0  0  0  0  0  0  0
   -1.1044   -1.1942    0.5922 C   0  0  0  0  0  0  0  0  0  0  0  0
   -2.6065    1.6726   -0.4407 H   0  0  0  0  0  0  0  0  0  0  0  0
   -3.0238   -0.0640   -0.7127 H   0  0  0  0  0  0  0  0  0  0  0  0
   -1.4802    0.6298   -1.4621 H   0  0  0  0  0  0  0  0  0  0  0  0
   -2.1622    0.3815    1.4777 H   0  0  0  0  0  0  0  0  0  0  0  0
   -0.7089    2.0257    1.4727 H   0  0  0  0  0  0  0  0  0  0  0  0
    1.2514    2.4405    0.8910 H   0  0  0  0  0  0  0  0  0  0  0  0
    2.8184    1.4283   -0.3987 H   0  0  0  0  0  0  0  0  0  0  0  0
    1.4915    0.8760   -1.4315 H   0  0  0  0  0  0  0  0  0  0  0  0
    3.1980   -0.8234   -0.4204 H   0  0  0  0  0  0  0  0  0  0  0  0
    2.1578   -0.6999    1.0840 H   0  0  0  0  0  0  0  0  0  0  0  0
    1.4959   -1.9305   -1.5044 H   0  0  0  0  0  0  0  0  0  0  0  0
   -0.5420   -2.3159   -1.1164 H   0  0  0  0  0  0  0  0  0  0  0  0
   -0.7234   -1.5430    1.6002 H   0  0  0  0  0  0  0  0  0  0  0  0
   -2.0680   -1.7457    0.4687 H   0  0  0  0  0  0  0  0  0  0  0  0
  1  2  1  0
  2  3  1  0
  3  4  2  3
  4  5  1  0
  5  6  1  0
  6  7  1  0
  7  8  2  3
  8  9  1  0
  9  2  1  0
  1 10  1  0
  1 11  1  0
  1 12  1  0
  2 13  1  0
  3 14  1  0
  4 15  1  0
  5 16  1  0
  5 17  1  0
  6 18  1  0
  6 19  1  0
  7 20  1  0
  8 21  1  0
  9 22  1  0
  9 23  1  0
M  END
