
     RDKit          3D

 19 20  0  0  0  0  0  0  0  0999 V2000
    2.2332   -0.8611   -0.0263 C   0  0  0  0  0  0  0  0  0  0  0  0
    0.9183   -0.3453   -0.5490 C   0  0  0  0  0  0  0  0  0  0  0  0
    0.6323    1.1388   -0.2039 C   0  0  0  0  0  0  0  0  0  0  0  0
   -0.1928    0.0436    0.2311 C   0  0  0  0  0  0  0  0  0  0  0  0
   -0.6134   -0.2878    1.5825 C   0  0  0  0  0  0  0  0  0  0  0  0
   -1.8958    0.2260    1.2626 O   0  0  0  0  0  0  0  0  0  0  0  0
   -1.6359   -0.1492   -0.0505 C   0  0  0  0  0  0  0  0  0  0  0  0
   -2.1563    0.7174   -1.1033 C   0  0  0  0  0  0  0  0  0  0  0  0
   -1.9410    0.4086   -2.2598 O   0  0  0  0  0  0  0  0  0  0  0  0
    3.0472   -0.3579   -0.6229 H   0  0  0  0  0  0  0  0  0  0  0  0
    2.3216   -1.9281   -0.2313 H   0  0  0  0  0  0  0  0  0  0  0  0
    2.3966   -0.6228    1.0320 H   0  0  0  0  0  0  0  0  0  0  0  0
    0.7722   -0.5802   -1.6423 H   0  0  0  0  0  0  0  0  0  0  0  0
    1.3228    1.6048    0.5457 H   0  0  0  0  0  0  0  0  0  0  0  0
    0.2676    1.7806   -1.0317 H   0  0  0  0  0  0  0  0  0  0  0  0
   -0.7268   -1.3999    1.7363 H   0  0  0  0  0  0  0  0  0  0  0  0
   -0.1367    0.2333    2.4173 H   0  0  0  0  0  0  0  0  0  0  0  0
   -1.8979   -1.2279   -0.1709 H   0  0  0  0  0  0  0  0  0  0  0  0
   -2.7155    1.6073   -0.9156 H   0  0  0  0  0  0  0  0  0  0  0  0
  1  2  1  0
  2  3  1  0
  3  4  1  0
  4  5  1  0
  5  6  1  0
  6  7  1  0
  7  8  1  0
  8  9  2  0
  4  2  1  0
  7  4  1  0
  1 10  1  0
  1 11  1  0
  1 12  1  0
  2 13  1  0
  3 14  1  0
  3 15  1  0
  5 16  1  0
  5 17  1  0
  7 18  1  0
  8 19  1  0
M  END
