
     RDKit          3D

 23 25  0  0  0  0  0  0  0  0999 V2000
    2.3694    0.3639   -0.4803 C   0  0  0  0  0  0  0  0  0  0  0  0
    1.4565   -0.5144    0.3154 C   0  0  0  0  0  0  0  0  0  0  0  0
    0.9669   -0.0852    1.6722 C   0  0  0  0  0  0  0  0  0  0  0  0
    0.0615   -0.2871    0.5487 C   0  0  0  0  0  0  0  0  0  0  0  0
   -0.8576    0.6855   -0.0128 C   0  0  0  0  0  0  0  0  0  0  0  0
   -0.3974    1.6551   -1.0402 C   0  0  0  0  0  0  0  0  0  0  0  0
   -1.7184   -0.4540   -0.5161 C   0  0  0  0  0  0  0  0  0  0  0  0
   -2.3531   -1.2730    0.5478 C   0  0  0  0  0  0  0  0  0  0  0  0
   -0.9053   -1.4087    0.4237 C   0  0  0  0  0  0  0  0  0  0  0  0
    2.3283    1.4218   -0.2420 H   0  0  0  0  0  0  0  0  0  0  0  0
    3.4310    0.0336   -0.2781 H   0  0  0  0  0  0  0  0  0  0  0  0
    2.2310    0.1433   -1.5785 H   0  0  0  0  0  0  0  0  0  0  0  0
    1.8055   -1.5910    0.3134 H   0  0  0  0  0  0  0  0  0  0  0  0
    1.1628    0.9887    1.9582 H   0  0  0  0  0  0  0  0  0  0  0  0
    0.9311   -0.7973    2.5046 H   0  0  0  0  0  0  0  0  0  0  0  0
   -1.4397    1.2285    0.7874 H   0  0  0  0  0  0  0  0  0  0  0  0
    0.0853    1.1691   -1.8992 H   0  0  0  0  0  0  0  0  0  0  0  0
   -1.3180    2.1576   -1.4599 H   0  0  0  0  0  0  0  0  0  0  0  0
    0.1808    2.4448   -0.5599 H   0  0  0  0  0  0  0  0  0  0  0  0
   -1.7081   -0.7376   -1.5654 H   0  0  0  0  0  0  0  0  0  0  0  0
   -2.9695   -2.1140    0.1831 H   0  0  0  0  0  0  0  0  0  0  0  0
   -2.8422   -0.7087    1.3704 H   0  0  0  0  0  0  0  0  0  0  0  0
   -0.5006   -2.3209   -0.0719 H   0  0  0  0  0  0  0  0  0  0  0  0
  1  2  1  0
  2  3  1  0
  3  4  1  0
  4  5  1  0
  5  6  1  0
  5  7  1  0
  7  8  1  0
  8  9  1  0
  4  2  1  0
  9  7  1  0
  9  4  1  0
  1 10  1  0
  1 11  1  0
  1 12  1  0
  2 13  1  0
  3 14  1  0
  3 15  1  0
  5 16  1  0
  6 17  1  0
  6 18  1  0
  6 19  1  0
  7 20  1  0
  8 21  1  0
  8 22  1  0
  9 23  1  0
M  END
