
     RDKit          3D

 18 18  0  0  0  0  0  0  0  0999 V2000
   -2.3915   -0.2514   -0.1770 C   0  0  0  0  0  0  0  0  0  0  0  0
   -0.9302   -0.4335    0.1923 C   0  0  0  0  0  0  0  0  0  0  0  0
   -0.3582    0.6691    1.0550 C   0  0  0  0  0  0  0  0  0  0  0  0
    0.0702    0.5283   -0.3530 C   0  0  0  0  0  0  0  0  0  0  0  0
    1.4958    0.0961   -0.5715 C   0  0  0  0  0  0  0  0  0  0  0  0
    1.5949   -0.9637   -1.4658 O   0  0  0  0  0  0  0  0  0  0  0  0
    2.1975   -0.1916    0.7041 C   0  0  0  0  0  0  0  0  0  0  0  0
    2.7512   -1.2723    0.8105 O   0  0  0  0  0  0  0  0  0  0  0  0
   -2.7822   -1.0895   -0.7613 H   0  0  0  0  0  0  0  0  0  0  0  0
   -2.5513    0.6867   -0.7633 H   0  0  0  0  0  0  0  0  0  0  0  0
   -3.0145   -0.1904    0.7542 H   0  0  0  0  0  0  0  0  0  0  0  0
   -0.6350   -1.4715    0.3358 H   0  0  0  0  0  0  0  0  0  0  0  0
    0.2529    0.2788    1.9011 H   0  0  0  0  0  0  0  0  0  0  0  0
   -1.0274    1.5420    1.2910 H   0  0  0  0  0  0  0  0  0  0  0  0
   -0.2994    1.2653   -1.0786 H   0  0  0  0  0  0  0  0  0  0  0  0
    2.0461    0.9491   -1.0424 H   0  0  0  0  0  0  0  0  0  0  0  0
    1.3328   -0.6364   -2.3624 H   0  0  0  0  0  0  0  0  0  0  0  0
    2.2482    0.4849    1.5311 H   0  0  0  0  0  0  0  0  0  0  0  0
  1  2  1  0
  2  3  1  0
  3  4  1  0
  4  5  1  0
  5  6  1  0
  5  7  1  0
  7  8  2  0
  4  2  1  0
  1  9  1  0
  1 10  1  0
  1 11  1  0
  2 12  1  0
  3 13  1  0
  3 14  1  0
  4 15  1  0
  5 16  1  0
  6 17  1  0
  7 18  1  0
M  END
