
     RDKit          3D

 16 17  0  0  0  0  0  0  0  0999 V2000
   -1.9486    0.3071   -0.2703 C   0  0  0  0  0  0  0  0  0  0  0  0
   -0.6556   -0.0028    0.4058 C   0  0  0  0  0  0  0  0  0  0  0  0
    0.0887   -1.1452   -0.3247 C   0  0  0  0  0  0  0  0  0  0  0  0
    1.2189   -0.5072    0.4970 C   0  0  0  0  0  0  0  0  0  0  0  0
    1.8988    0.7032    0.2374 C   0  0  0  0  0  0  0  0  0  0  0  0
    0.5264    0.7739   -0.1412 C   0  0  0  0  0  0  0  0  0  0  0  0
   -2.0554   -0.2852   -1.2251 H   0  0  0  0  0  0  0  0  0  0  0  0
   -1.9753    1.3761   -0.5284 H   0  0  0  0  0  0  0  0  0  0  0  0
   -2.8109   -0.0077    0.3534 H   0  0  0  0  0  0  0  0  0  0  0  0
   -0.6717   -0.1876    1.4753 H   0  0  0  0  0  0  0  0  0  0  0  0
    0.2479   -0.9617   -1.3873 H   0  0  0  0  0  0  0  0  0  0  0  0
   -0.1747   -2.1388    0.0114 H   0  0  0  0  0  0  0  0  0  0  0  0
    0.9284   -0.6706    1.5845 H   0  0  0  0  0  0  0  0  0  0  0  0
    2.2191    1.3727    1.0907 H   0  0  0  0  0  0  0  0  0  0  0  0
    2.7533    0.6609   -0.5058 H   0  0  0  0  0  0  0  0  0  0  0  0
    0.4108    0.7128   -1.2726 H   0  0  0  0  0  0  0  0  0  0  0  0
  1  2  1  0
  2  3  1  0
  3  4  1  0
  4  5  1  0
  5  6  1  0
  6  2  1  0
  6  4  1  0
  1  7  1  0
  1  8  1  0
  1  9  1  0
  2 10  1  0
  3 11  1  0
  3 12  1  0
  4 13  1  0
  5 14  1  0
  5 15  1  0
  6 16  1  0
M  END
