
     RDKit          3D

 23 23  0  0  0  0  0  0  0  0999 V2000
    1.4094    0.0024    1.4361 C   0  0  0  0  0  0  0  0  0  0  0  0
    0.6548   -0.7024    0.3528 C   0  0  0  0  0  0  0  0  0  0  0  0
    1.4503   -0.6096   -0.9571 C   0  0  0  0  0  0  0  0  0  0  0  0
    0.5550    0.5840   -1.3112 C   0  0  0  0  0  0  0  0  0  0  0  0
   -0.4383    0.0508   -0.3187 C   0  0  0  0  0  0  0  0  0  0  0  0
   -1.4044   -0.8922   -1.0045 C   0  0  0  0  0  0  0  0  0  0  0  0
   -1.9938   -1.7728   -0.0932 O   0  0  0  0  0  0  0  0  0  0  0  0
   -1.1611    1.0833    0.4941 C   0  0  0  0  0  0  0  0  0  0  0  0
   -0.3598    2.0861    0.9723 O   0  0  0  0  0  0  0  0  0  0  0  0
    1.7208    1.0347    1.1439 H   0  0  0  0  0  0  0  0  0  0  0  0
    2.3824   -0.5572    1.5638 H   0  0  0  0  0  0  0  0  0  0  0  0
    0.9172   -0.0336    2.4184 H   0  0  0  0  0  0  0  0  0  0  0  0
    0.4294   -1.7344    0.6364 H   0  0  0  0  0  0  0  0  0  0  0  0
    1.2395   -1.4604   -1.6345 H   0  0  0  0  0  0  0  0  0  0  0  0
    2.4885   -0.3067   -0.8356 H   0  0  0  0  0  0  0  0  0  0  0  0
    0.2450    0.5631   -2.3690 H   0  0  0  0  0  0  0  0  0  0  0  0
    0.9736    1.5645   -0.9829 H   0  0  0  0  0  0  0  0  0  0  0  0
   -0.8691   -1.4623   -1.8183 H   0  0  0  0  0  0  0  0  0  0  0  0
   -2.2097   -0.3330   -1.5426 H   0  0  0  0  0  0  0  0  0  0  0  0
   -1.7289   -1.4615    0.8080 H   0  0  0  0  0  0  0  0  0  0  0  0
   -1.9319    1.5410   -0.1697 H   0  0  0  0  0  0  0  0  0  0  0  0
   -1.7343    0.5532    1.2913 H   0  0  0  0  0  0  0  0  0  0  0  0
   -0.6346    2.2628    1.9201 H   0  0  0  0  0  0  0  0  0  0  0  0
  1  2  1  0
  2  3  1  0
  3  4  1  0
  4  5  1  0
  5  6  1  0
  6  7  1  0
  5  8  1  0
  8  9  1  0
  5  2  1  0
  1 10  1  0
  1 11  1  0
  1 12  1  0
  2 13  1  0
  3 14  1  0
  3 15  1  0
  4 16  1  0
  4 17  1  0
  6 18  1  0
  6 19  1  0
  7 20  1  0
  8 21  1  0
  8 22  1  0
  9 23  1  0
M  END
