
     RDKit          3D

 23 25  0  0  0  0  0  0  0  0999 V2000
    2.5227   -0.0047    0.5460 C   0  0  0  0  0  0  0  0  0  0  0  0
    1.2387   -0.3796   -0.1004 C   0  0  0  0  0  0  0  0  0  0  0  0
    0.4197    0.8816   -0.4014 C   0  0  0  0  0  0  0  0  0  0  0  0
   -0.5881    0.5244   -1.4916 C   0  0  0  0  0  0  0  0  0  0  0  0
   -1.6375   -0.2223   -0.6763 C   0  0  0  0  0  0  0  0  0  0  0  0
   -1.0028   -1.4119   -0.0272 C   0  0  0  0  0  0  0  0  0  0  0  0
    0.1075   -0.7780    0.8188 C   0  0  0  0  0  0  0  0  0  0  0  0
   -0.2617    0.6715    0.9133 C   0  0  0  0  0  0  0  0  0  0  0  0
   -1.7415    0.7399    0.5171 C   0  0  0  0  0  0  0  0  0  0  0  0
    3.0199    0.7834   -0.0914 H   0  0  0  0  0  0  0  0  0  0  0  0
    2.4416    0.4253    1.5455 H   0  0  0  0  0  0  0  0  0  0  0  0
    3.2199   -0.8808    0.4881 H   0  0  0  0  0  0  0  0  0  0  0  0
    1.3371   -1.0775   -0.9264 H   0  0  0  0  0  0  0  0  0  0  0  0
    0.9898    1.7872   -0.5535 H   0  0  0  0  0  0  0  0  0  0  0  0
   -0.1872   -0.1900   -2.2174 H   0  0  0  0  0  0  0  0  0  0  0  0
   -1.0053    1.4400   -1.9384 H   0  0  0  0  0  0  0  0  0  0  0  0
   -2.5672   -0.3843   -1.1829 H   0  0  0  0  0  0  0  0  0  0  0  0
   -1.7368   -1.9147    0.6370 H   0  0  0  0  0  0  0  0  0  0  0  0
   -0.6102   -2.0673   -0.8068 H   0  0  0  0  0  0  0  0  0  0  0  0
    0.3656   -1.3051    1.7288 H   0  0  0  0  0  0  0  0  0  0  0  0
    0.0378    1.2412    1.7663 H   0  0  0  0  0  0  0  0  0  0  0  0
   -2.4020    0.3680    1.2948 H   0  0  0  0  0  0  0  0  0  0  0  0
   -1.9598    1.7537    0.1579 H   0  0  0  0  0  0  0  0  0  0  0  0
  1  2  1  0
  2  3  1  0
  3  4  1  0
  4  5  1  0
  5  6  1  0
  6  7  1  0
  7  8  1  0
  8  9  1  0
  7  2  1  0
  8  3  1  0
  9  5  1  0
  1 10  1  0
  1 11  1  0
  1 12  1  0
  2 13  1  0
  3 14  1  0
  4 15  1  0
  4 16  1  0
  5 17  1  0
  6 18  1  0
  6 19  1  0
  7 20  1  0
  8 21  1  0
  9 22  1  0
  9 23  1  0
M  END
