
     RDKit          3D

 23 24  0  0  0  0  0  0  0  0999 V2000
   -3.1929   -0.3551   -0.4721 C   0  0  0  0  0  0  0  0  0  0  0  0
   -1.8778    0.2034    0.0329 C   0  0  0  0  0  0  0  0  0  0  0  0
   -1.1102   -0.6213    1.0448 C   0  0  0  0  0  0  0  0  0  0  0  0
   -0.5994   -0.4101   -0.3533 C   0  0  0  0  0  0  0  0  0  0  0  0
    0.6446    0.3972   -0.4638 C   0  0  0  0  0  0  0  0  0  0  0  0
    1.8454   -0.4565   -0.8944 C   0  0  0  0  0  0  0  0  0  0  0  0
    2.9673    0.4671   -0.4253 C   0  0  0  0  0  0  0  0  0  0  0  0
    2.5074    1.1999    0.6333 O   0  0  0  0  0  0  0  0  0  0  0  0
    1.2014    0.8238    0.9025 C   0  0  0  0  0  0  0  0  0  0  0  0
   -3.1966   -0.4835   -1.5730 H   0  0  0  0  0  0  0  0  0  0  0  0
   -4.0186    0.3454   -0.2003 H   0  0  0  0  0  0  0  0  0  0  0  0
   -3.4349   -1.3388   -0.0309 H   0  0  0  0  0  0  0  0  0  0  0  0
   -1.8719    1.3117    0.1313 H   0  0  0  0  0  0  0  0  0  0  0  0
   -0.7403   -0.0252    1.8956 H   0  0  0  0  0  0  0  0  0  0  0  0
   -1.5931   -1.6114    1.2907 H   0  0  0  0  0  0  0  0  0  0  0  0
   -0.6885   -1.3086   -1.0068 H   0  0  0  0  0  0  0  0  0  0  0  0
    0.5765    1.2790   -1.1051 H   0  0  0  0  0  0  0  0  0  0  0  0
    1.8556   -1.3349   -0.2499 H   0  0  0  0  0  0  0  0  0  0  0  0
    1.8639   -0.6427   -1.9634 H   0  0  0  0  0  0  0  0  0  0  0  0
    3.1346    1.1898   -1.2766 H   0  0  0  0  0  0  0  0  0  0  0  0
    3.8903   -0.0894   -0.1984 H   0  0  0  0  0  0  0  0  0  0  0  0
    1.2465   -0.1016    1.5137 H   0  0  0  0  0  0  0  0  0  0  0  0
    0.5908    1.5619    1.4054 H   0  0  0  0  0  0  0  0  0  0  0  0
  1  2  1  0
  2  3  1  0
  3  4  1  0
  4  5  1  0
  5  6  1  0
  6  7  1  0
  7  8  1  0
  8  9  1  0
  4  2  1  0
  9  5  1  0
  1 10  1  0
  1 11  1  0
  1 12  1  0
  2 13  1  0
  3 14  1  0
  3 15  1  0
  4 16  1  0
  5 17  1  0
  6 18  1  0
  6 19  1  0
  7 20  1  0
  7 21  1  0
  9 22  1  0
  9 23  1  0
M  END
