
     RDKit          3D

 25 25  0  0  0  0  0  0  0  0999 V2000
    2.2539   -0.7512    0.7437 C   0  0  0  0  0  0  0  0  0  0  0  0
    1.7537    0.5024    0.0936 C   0  0  0  0  0  0  0  0  0  0  0  0
    1.3351    0.2857   -1.3778 C   0  0  0  0  0  0  0  0  0  0  0  0
    0.3970    0.7830   -0.2988 C   0  0  0  0  0  0  0  0  0  0  0  0
    0.0855    2.1598   -0.4711 O   0  0  0  0  0  0  0  0  0  0  0  0
   -0.8254    0.0109    0.0283 C   0  0  0  0  0  0  0  0  0  0  0  0
   -0.8856   -1.4013   -0.4220 C   0  0  0  0  0  0  0  0  0  0  0  0
   -2.0971    0.6892   -0.4670 C   0  0  0  0  0  0  0  0  0  0  0  0
   -0.9499   -0.0042    1.5597 C   0  0  0  0  0  0  0  0  0  0  0  0
    2.0455   -1.6584    0.1392 H   0  0  0  0  0  0  0  0  0  0  0  0
    1.8885   -0.8547    1.8004 H   0  0  0  0  0  0  0  0  0  0  0  0
    3.3616   -0.7150    0.8336 H   0  0  0  0  0  0  0  0  0  0  0  0
    2.4490    1.3759    0.2833 H   0  0  0  0  0  0  0  0  0  0  0  0
    1.1441   -0.7453   -1.7001 H   0  0  0  0  0  0  0  0  0  0  0  0
    1.7967    1.0111   -2.0853 H   0  0  0  0  0  0  0  0  0  0  0  0
   -0.5455    2.2933   -1.2096 H   0  0  0  0  0  0  0  0  0  0  0  0
   -0.3069   -2.0955    0.2174 H   0  0  0  0  0  0  0  0  0  0  0  0
   -0.7117   -1.5523   -1.5075 H   0  0  0  0  0  0  0  0  0  0  0  0
   -1.9605   -1.7312   -0.2763 H   0  0  0  0  0  0  0  0  0  0  0  0
   -2.1210    0.7768   -1.5683 H   0  0  0  0  0  0  0  0  0  0  0  0
   -2.9373    0.0620   -0.0838 H   0  0  0  0  0  0  0  0  0  0  0  0
   -2.2286    1.6901   -0.0436 H   0  0  0  0  0  0  0  0  0  0  0  0
   -0.5059   -0.9560    1.9291 H   0  0  0  0  0  0  0  0  0  0  0  0
   -0.4183    0.8455    2.0177 H   0  0  0  0  0  0  0  0  0  0  0  0
   -2.0168   -0.0205    1.8653 H   0  0  0  0  0  0  0  0  0  0  0  0
  1  2  1  0
  2  3  1  0
  3  4  1  0
  4  5  1  0
  4  6  1  0
  6  7  1  0
  6  8  1  0
  6  9  1  0
  4  2  1  0
  1 10  1  0
  1 11  1  0
  1 12  1  0
  2 13  1  0
  3 14  1  0
  3 15  1  0
  5 16  1  0
  7 17  1  0
  7 18  1  0
  7 19  1  0
  8 20  1  0
  8 21  1  0
  8 22  1  0
  9 23  1  0
  9 24  1  0
  9 25  1  0
M  END
