
     RDKit          3D

 21 22  0  0  0  0  0  0  0  0999 V2000
    2.1733   -0.2518   -0.1345 C   0  0  0  0  0  0  0  0  0  0  0  0
    0.7670   -0.0562   -0.5678 C   0  0  0  0  0  0  0  0  0  0  0  0
    0.3058    1.3831   -0.3059 C   0  0  0  0  0  0  0  0  0  0  0  0
   -1.1833    1.2535    0.0150 C   0  0  0  0  0  0  0  0  0  0  0  0
   -1.8318    0.4297   -0.8760 O   0  0  0  0  0  0  0  0  0  0  0  0
   -1.4931   -0.9061   -0.7640 C   0  0  0  0  0  0  0  0  0  0  0  0
   -0.2280   -0.9541    0.1064 C   0  0  0  0  0  0  0  0  0  0  0  0
   -0.6627   -0.4149    1.4682 C   0  0  0  0  0  0  0  0  0  0  0  0
   -1.2703    0.8481    1.3322 O   0  0  0  0  0  0  0  0  0  0  0  0
    2.7127    0.7277   -0.2874 H   0  0  0  0  0  0  0  0  0  0  0  0
    2.6768   -0.9522   -0.8498 H   0  0  0  0  0  0  0  0  0  0  0  0
    2.2949   -0.5471    0.9164 H   0  0  0  0  0  0  0  0  0  0  0  0
    0.7085   -0.2008   -1.6679 H   0  0  0  0  0  0  0  0  0  0  0  0
    0.4967    2.0407   -1.1586 H   0  0  0  0  0  0  0  0  0  0  0  0
    0.8660    1.6982    0.6086 H   0  0  0  0  0  0  0  0  0  0  0  0
   -1.6554    2.2603   -0.0640 H   0  0  0  0  0  0  0  0  0  0  0  0
   -2.2559   -1.5317   -0.2887 H   0  0  0  0  0  0  0  0  0  0  0  0
   -1.1869   -1.3649   -1.7333 H   0  0  0  0  0  0  0  0  0  0  0  0
    0.1191   -1.9753    0.2733 H   0  0  0  0  0  0  0  0  0  0  0  0
   -1.5071   -1.0966    1.7843 H   0  0  0  0  0  0  0  0  0  0  0  0
    0.1537   -0.3895    2.1935 H   0  0  0  0  0  0  0  0  0  0  0  0
  1  2  1  0
  2  3  1  0
  3  4  1  0
  4  5  1  0
  5  6  1  0
  6  7  1  0
  7  8  1  0
  8  9  1  0
  7  2  1  0
  9  4  1  0
  1 10  1  0
  1 11  1  0
  1 12  1  0
  2 13  1  0
  3 14  1  0
  3 15  1  0
  4 16  1  0
  6 17  1  0
  6 18  1  0
  7 19  1  0
  8 20  1  0
  8 21  1  0
M  END
