
     RDKit          3D

 23 25  0  0  0  0  0  0  0  0999 V2000
   -1.4994    1.4223   -0.9379 C   0  0  0  0  0  0  0  0  0  0  0  0
   -0.6223    0.2197   -1.1629 C   0  0  0  0  0  0  0  0  0  0  0  0
   -0.9739   -0.9731   -0.2724 C   0  0  0  0  0  0  0  0  0  0  0  0
   -2.0881   -0.8338    0.7190 C   0  0  0  0  0  0  0  0  0  0  0  0
    0.2623   -0.2244   -0.1091 C   0  0  0  0  0  0  0  0  0  0  0  0
    0.6615    0.5456    1.0831 C   0  0  0  0  0  0  0  0  0  0  0  0
    2.0710    0.0008    0.9360 C   0  0  0  0  0  0  0  0  0  0  0  0
    2.7563    0.0909   -0.3807 C   0  0  0  0  0  0  0  0  0  0  0  0
    1.6095   -0.8252   -0.3093 C   0  0  0  0  0  0  0  0  0  0  0  0
   -2.4500    1.3051   -1.5158 H   0  0  0  0  0  0  0  0  0  0  0  0
   -1.7714    1.4877    0.1279 H   0  0  0  0  0  0  0  0  0  0  0  0
   -1.0291    2.3600   -1.2714 H   0  0  0  0  0  0  0  0  0  0  0  0
   -0.3517    0.0263   -2.2190 H   0  0  0  0  0  0  0  0  0  0  0  0
   -0.8785   -1.9703   -0.7948 H   0  0  0  0  0  0  0  0  0  0  0  0
   -2.5470   -1.8471    0.8868 H   0  0  0  0  0  0  0  0  0  0  0  0
   -2.9099   -0.1836    0.3955 H   0  0  0  0  0  0  0  0  0  0  0  0
   -1.6785   -0.5455    1.7186 H   0  0  0  0  0  0  0  0  0  0  0  0
    0.5779    1.6376    0.9454 H   0  0  0  0  0  0  0  0  0  0  0  0
    0.2203    0.1397    2.0152 H   0  0  0  0  0  0  0  0  0  0  0  0
    2.5339   -0.5616    1.7496 H   0  0  0  0  0  0  0  0  0  0  0  0
    2.6505    0.9973   -1.0125 H   0  0  0  0  0  0  0  0  0  0  0  0
    3.7547   -0.3551   -0.4265 H   0  0  0  0  0  0  0  0  0  0  0  0
    1.7017   -1.9133   -0.1648 H   0  0  0  0  0  0  0  0  0  0  0  0
  1  2  1  0
  2  3  1  0
  3  4  1  0
  3  5  1  0
  5  6  1  0
  6  7  1  0
  7  8  1  0
  8  9  1  0
  5  2  1  0
  9  7  1  0
  9  5  1  0
  1 10  1  0
  1 11  1  0
  1 12  1  0
  2 13  1  0
  3 14  1  0
  4 15  1  0
  4 16  1  0
  4 17  1  0
  6 18  1  0
  6 19  1  0
  7 20  1  0
  8 21  1  0
  8 22  1  0
  9 23  1  0
M  END
