
     RDKit          3D

 17 18  0  0  0  0  0  0  0  0999 V2000
    1.8007    0.4674    0.4066 C   0  0  0  0  0  0  0  0  0  0  0  0
    0.7344   -0.2368   -0.4147 C   0  0  0  0  0  0  0  0  0  0  0  0
    0.0452   -1.2854    0.4076 C   0  0  0  0  0  0  0  0  0  0  0  0
   -1.1196   -1.1270   -0.5335 C   0  0  0  0  0  0  0  0  0  0  0  0
   -0.6595    0.2894   -0.2197 C   0  0  0  0  0  0  0  0  0  0  0  0
   -1.1802    1.4240   -0.7228 C   0  0  0  0  0  0  0  0  0  0  0  0
   -0.5153    2.4471   -0.9590 O   0  0  0  0  0  0  0  0  0  0  0  0
   -0.5519   -0.1637    1.1681 C   0  0  0  0  0  0  0  0  0  0  0  0
   -0.8336    0.2456    2.2551 O   0  0  0  0  0  0  0  0  0  0  0  0
    1.3510    1.2357    1.0827 H   0  0  0  0  0  0  0  0  0  0  0  0
    2.5823    0.9069   -0.2475 H   0  0  0  0  0  0  0  0  0  0  0  0
    2.2275   -0.3048    1.0812 H   0  0  0  0  0  0  0  0  0  0  0  0
    1.0331   -0.5128   -1.4236 H   0  0  0  0  0  0  0  0  0  0  0  0
    0.4247   -2.1362    0.7695 H   0  0  0  0  0  0  0  0  0  0  0  0
   -2.1186   -1.3606   -0.1070 H   0  0  0  0  0  0  0  0  0  0  0  0
   -0.9708   -1.4459   -1.5675 H   0  0  0  0  0  0  0  0  0  0  0  0
   -2.2492    1.5571   -0.9753 H   0  0  0  0  0  0  0  0  0  0  0  0
  1  2  1  0
  2  3  1  0
  3  4  1  0
  4  5  1  0
  5  6  1  0
  6  7  2  0
  5  8  1  0
  8  9  2  0
  5  2  1  0
  8  3  1  0
  1 10  1  0
  1 11  1  0
  1 12  1  0
  2 13  1  0
  3 14  1  0
  4 15  1  0
  4 16  1  0
  6 17  1  0
M  END
