
     RDKit          3D

 21 22  0  0  0  0  0  0  0  0999 V2000
    2.3127    0.2891    0.2202 C   0  0  0  0  0  0  0  0  0  0  0  0
    0.9855   -0.1849   -0.3334 C   0  0  0  0  0  0  0  0  0  0  0  0
    0.2467   -1.0701    0.6173 C   0  0  0  0  0  0  0  0  0  0  0  0
   -1.1141   -1.3651    0.0131 C   0  0  0  0  0  0  0  0  0  0  0  0
   -1.7141   -0.1292   -0.6213 C   0  0  0  0  0  0  0  0  0  0  0  0
   -1.7572    0.9315    0.4052 C   0  0  0  0  0  0  0  0  0  0  0  0
   -0.6250    1.6044    0.2882 C   0  0  0  0  0  0  0  0  0  0  0  0
    0.1494    0.9577   -0.8132 C   0  0  0  0  0  0  0  0  0  0  0  0
   -0.8855    0.4097   -1.5986 O   0  0  0  0  0  0  0  0  0  0  0  0
    2.7383   -0.5376    0.8118 H   0  0  0  0  0  0  0  0  0  0  0  0
    2.9812    0.4976   -0.6449 H   0  0  0  0  0  0  0  0  0  0  0  0
    2.1482    1.2140    0.8024 H   0  0  0  0  0  0  0  0  0  0  0  0
    1.2415   -0.8137   -1.2363 H   0  0  0  0  0  0  0  0  0  0  0  0
    0.8117   -2.0454    0.6598 H   0  0  0  0  0  0  0  0  0  0  0  0
    0.1880   -0.7080    1.6438 H   0  0  0  0  0  0  0  0  0  0  0  0
   -1.7936   -1.6464    0.8587 H   0  0  0  0  0  0  0  0  0  0  0  0
   -1.0561   -2.2209   -0.6636 H   0  0  0  0  0  0  0  0  0  0  0  0
   -2.6893   -0.3944   -1.0376 H   0  0  0  0  0  0  0  0  0  0  0  0
   -2.5654    1.0940    1.0935 H   0  0  0  0  0  0  0  0  0  0  0  0
   -0.3718    2.4548    0.9079 H   0  0  0  0  0  0  0  0  0  0  0  0
    0.7689    1.6628   -1.3729 H   0  0  0  0  0  0  0  0  0  0  0  0
  1  2  1  0
  2  3  1  0
  3  4  1  0
  4  5  1  0
  5  6  1  0
  6  7  2  0
  7  8  1  0
  8  9  1  0
  8  2  1  0
  9  5  1  0
  1 10  1  0
  1 11  1  0
  1 12  1  0
  2 13  1  0
  3 14  1  0
  3 15  1  0
  4 16  1  0
  4 17  1  0
  5 18  1  0
  6 19  1  0
  7 20  1  0
  8 21  1  0
M  END
