
     RDKit          3D

 18 18  0  0  0  0  0  0  0  0999 V2000
   -1.0852   -1.5494   -0.4214 C   0  0  0  0  0  0  0  0  0  0  0  0
   -0.7047   -0.0979   -0.5572 C   0  0  0  0  0  0  0  0  0  0  0  0
   -1.2082    0.6716    0.6008 C   0  0  0  0  0  0  0  0  0  0  0  0
   -0.2890    1.5311    1.0021 C   0  0  0  0  0  0  0  0  0  0  0  0
    0.9417    1.4599    0.1822 C   0  0  0  0  0  0  0  0  0  0  0  0
    0.7687    0.1342   -0.5731 C   0  0  0  0  0  0  0  0  0  0  0  0
    1.5551   -0.9009    0.1225 C   0  0  0  0  0  0  0  0  0  0  0  0
    1.0165   -1.6168    0.9224 O   0  0  0  0  0  0  0  0  0  0  0  0
   -2.0540   -1.7163   -0.9681 H   0  0  0  0  0  0  0  0  0  0  0  0
   -0.3655   -2.2457   -0.8550 H   0  0  0  0  0  0  0  0  0  0  0  0
   -1.2969   -1.7917    0.6379 H   0  0  0  0  0  0  0  0  0  0  0  0
   -1.1722    0.3390   -1.4866 H   0  0  0  0  0  0  0  0  0  0  0  0
   -2.2107    0.5096    1.0245 H   0  0  0  0  0  0  0  0  0  0  0  0
   -0.3749    2.2384    1.8395 H   0  0  0  0  0  0  0  0  0  0  0  0
    0.9300    2.2883   -0.5516 H   0  0  0  0  0  0  0  0  0  0  0  0
    1.8467    1.4408    0.8022 H   0  0  0  0  0  0  0  0  0  0  0  0
    1.1077    0.2979   -1.6194 H   0  0  0  0  0  0  0  0  0  0  0  0
    2.5950   -0.9921   -0.1019 H   0  0  0  0  0  0  0  0  0  0  0  0
  1  2  1  0
  2  3  1  0
  3  4  2  0
  4  5  1  0
  5  6  1  0
  6  7  1  0
  7  8  2  0
  6  2  1  0
  1  9  1  0
  1 10  1  0
  1 11  1  0
  2 12  1  0
  3 13  1  0
  4 14  1  0
  5 15  1  0
  5 16  1  0
  6 17  1  0
  7 18  1  0
M  END
