
     RDKit          3D

 21 22  0  0  0  0  0  0  0  0999 V2000
    2.6640   -0.3905   -0.0482 C   0  0  0  0  0  0  0  0  0  0  0  0
    1.2782    0.0968    0.3152 C   0  0  0  0  0  0  0  0  0  0  0  0
    0.2441   -0.8607   -0.1583 C   0  0  0  0  0  0  0  0  0  0  0  0
   -1.0900   -0.2916   -0.4404 C   0  0  0  0  0  0  0  0  0  0  0  0
   -2.2815   -1.1184    0.0079 C   0  0  0  0  0  0  0  0  0  0  0  0
   -1.1588    0.4537   -1.6019 O   0  0  0  0  0  0  0  0  0  0  0  0
   -1.2740    1.1303   -0.4277 C   0  0  0  0  0  0  0  0  0  0  0  0
   -0.1308    1.8253    0.2429 C   0  0  0  0  0  0  0  0  0  0  0  0
    1.0865    1.3797   -0.2422 O   0  0  0  0  0  0  0  0  0  0  0  0
    3.1819    0.3642   -0.6631 H   0  0  0  0  0  0  0  0  0  0  0  0
    3.2402   -0.5618    0.8842 H   0  0  0  0  0  0  0  0  0  0  0  0
    2.6189   -1.3166   -0.6540 H   0  0  0  0  0  0  0  0  0  0  0  0
    1.1799    0.2201    1.4186 H   0  0  0  0  0  0  0  0  0  0  0  0
    0.6426   -1.3095   -1.1137 H   0  0  0  0  0  0  0  0  0  0  0  0
    0.1932   -1.7241    0.5530 H   0  0  0  0  0  0  0  0  0  0  0  0
   -1.9675   -2.1336    0.3479 H   0  0  0  0  0  0  0  0  0  0  0  0
   -2.6792   -0.6160    0.9368 H   0  0  0  0  0  0  0  0  0  0  0  0
   -3.0848   -1.1362   -0.7399 H   0  0  0  0  0  0  0  0  0  0  0  0
   -2.2636    1.5617   -0.2039 H   0  0  0  0  0  0  0  0  0  0  0  0
   -0.2190    2.9259    0.2625 H   0  0  0  0  0  0  0  0  0  0  0  0
   -0.1803    1.5014    1.3244 H   0  0  0  0  0  0  0  0  0  0  0  0
  1  2  1  0
  2  3  1  0
  3  4  1  0
  4  5  1  0
  4  6  1  0
  6  7  1  0
  7  8  1  0
  8  9  1  0
  9  2  1  0
  7  4  1  0
  1 10  1  0
  1 11  1  0
  1 12  1  0
  2 13  1  0
  3 14  1  0
  3 15  1  0
  5 16  1  0
  5 17  1  0
  5 18  1  0
  7 19  1  0
  8 20  1  0
  8 21  1  0
M  END
