
     RDKit          3D

 19 20  0  0  0  0  0  0  0  0999 V2000
    1.8775   -0.1896    0.7654 C   0  0  0  0  0  0  0  0  0  0  0  0
    1.0202    0.6726   -0.1163 C   0  0  0  0  0  0  0  0  0  0  0  0
    0.2103   -0.0366   -1.1346 C   0  0  0  0  0  0  0  0  0  0  0  0
   -0.0815   -1.4857   -0.9239 C   0  0  0  0  0  0  0  0  0  0  0  0
   -0.8949   -1.6550    0.1088 C   0  0  0  0  0  0  0  0  0  0  0  0
   -1.2335   -0.3481    0.6969 C   0  0  0  0  0  0  0  0  0  0  0  0
   -0.4456    0.6954   -0.0100 C   0  0  0  0  0  0  0  0  0  0  0  0
   -1.1731    1.9792   -0.2899 C   0  0  0  0  0  0  0  0  0  0  0  0
   -1.1438    2.9034    0.5006 O   0  0  0  0  0  0  0  0  0  0  0  0
    2.1946    0.3388    1.6955 H   0  0  0  0  0  0  0  0  0  0  0  0
    2.7775   -0.5032    0.1968 H   0  0  0  0  0  0  0  0  0  0  0  0
    1.3702   -1.1225    1.0791 H   0  0  0  0  0  0  0  0  0  0  0  0
    1.5048    1.6068   -0.4400 H   0  0  0  0  0  0  0  0  0  0  0  0
    0.0796    0.3763   -2.1533 H   0  0  0  0  0  0  0  0  0  0  0  0
    0.3167   -2.2774   -1.5299 H   0  0  0  0  0  0  0  0  0  0  0  0
   -1.2675   -2.6006    0.4820 H   0  0  0  0  0  0  0  0  0  0  0  0
   -2.3249   -0.1682    0.4742 H   0  0  0  0  0  0  0  0  0  0  0  0
   -1.0420   -0.3105    1.7975 H   0  0  0  0  0  0  0  0  0  0  0  0
   -1.7447    2.1250   -1.1988 H   0  0  0  0  0  0  0  0  0  0  0  0
  1  2  1  0
  2  3  1  0
  3  4  1  0
  4  5  2  0
  5  6  1  0
  6  7  1  0
  7  8  1  0
  8  9  2  0
  7  2  1  0
  7  3  1  0
  1 10  1  0
  1 11  1  0
  1 12  1  0
  2 13  1  0
  3 14  1  0
  4 15  1  0
  5 16  1  0
  6 17  1  0
  6 18  1  0
  8 19  1  0
M  END
