
     RDKit          3D

 19 20  0  0  0  0  0  0  0  0999 V2000
    1.7049    1.0404   -0.0210 C   0  0  0  0  0  0  0  0  0  0  0  0
    0.5482    0.2715    0.5819 C   0  0  0  0  0  0  0  0  0  0  0  0
    0.4071   -1.1514    0.0409 C   0  0  0  0  0  0  0  0  0  0  0  0
    0.3960   -2.1943    1.0928 C   0  0  0  0  0  0  0  0  0  0  0  0
    0.1364   -3.3301    0.7558 O   0  0  0  0  0  0  0  0  0  0  0  0
   -1.0287   -0.8407   -0.3869 C   0  0  0  0  0  0  0  0  0  0  0  0
   -0.7243    0.6030   -0.1176 C   0  0  0  0  0  0  0  0  0  0  0  0
   -1.6136    1.6178    0.0356 C   0  0  0  0  0  0  0  0  0  0  0  0
   -0.7883    1.5453   -1.1094 O   0  0  0  0  0  0  0  0  0  0  0  0
    1.8155    0.6898   -1.0666 H   0  0  0  0  0  0  0  0  0  0  0  0
    2.6397    0.9351    0.5271 H   0  0  0  0  0  0  0  0  0  0  0  0
    1.4551    2.1359   -0.1057 H   0  0  0  0  0  0  0  0  0  0  0  0
    0.5173    0.3195    1.7072 H   0  0  0  0  0  0  0  0  0  0  0  0
    1.1012   -1.3443   -0.7946 H   0  0  0  0  0  0  0  0  0  0  0  0
    0.6127   -1.9345    2.1122 H   0  0  0  0  0  0  0  0  0  0  0  0
   -1.2362   -1.0833   -1.4502 H   0  0  0  0  0  0  0  0  0  0  0  0
   -1.7953   -1.3030    0.2467 H   0  0  0  0  0  0  0  0  0  0  0  0
   -1.4263    2.5513    0.6097 H   0  0  0  0  0  0  0  0  0  0  0  0
   -2.7215    1.4720   -0.1310 H   0  0  0  0  0  0  0  0  0  0  0  0
  1  2  1  0
  2  3  1  0
  3  4  1  0
  4  5  2  0
  3  6  1  0
  6  7  1  0
  7  8  1  0
  8  9  1  0
  7  2  1  0
  9  7  1  0
  1 10  1  0
  1 11  1  0
  1 12  1  0
  2 13  1  0
  3 14  1  0
  4 15  1  0
  6 16  1  0
  6 17  1  0
  8 18  1  0
  8 19  1  0
M  END
