
     RDKit          3D

 23 24  0  0  0  0  0  0  0  0999 V2000
   -2.4475   -0.7579    0.0816 C   0  0  0  0  0  0  0  0  0  0  0  0
   -1.0937   -0.1615    0.3274 C   0  0  0  0  0  0  0  0  0  0  0  0
   -0.9824    1.0698   -0.5699 C   0  0  0  0  0  0  0  0  0  0  0  0
    0.3829    1.7571   -0.3722 C   0  0  0  0  0  0  0  0  0  0  0  0
    1.2770    0.6943    0.1397 C   0  0  0  0  0  0  0  0  0  0  0  0
    2.2912   -0.0788   -0.4863 C   0  0  0  0  0  0  0  0  0  0  0  0
    3.0905   -0.9091    0.2949 O   0  0  0  0  0  0  0  0  0  0  0  0
    0.9821   -0.5034   -0.8190 C   0  0  0  0  0  0  0  0  0  0  0  0
   -0.0563   -1.2274   -0.0701 C   0  0  0  0  0  0  0  0  0  0  0  0
   -3.2676   -0.0348    0.2325 H   0  0  0  0  0  0  0  0  0  0  0  0
   -2.5231   -1.1658   -0.9478 H   0  0  0  0  0  0  0  0  0  0  0  0
   -2.6383   -1.6098    0.7744 H   0  0  0  0  0  0  0  0  0  0  0  0
   -1.0157    0.1195    1.3739 H   0  0  0  0  0  0  0  0  0  0  0  0
   -1.7886    1.7409   -0.2738 H   0  0  0  0  0  0  0  0  0  0  0  0
   -1.1327    0.7823   -1.6237 H   0  0  0  0  0  0  0  0  0  0  0  0
    0.2209    2.5474    0.3818 H   0  0  0  0  0  0  0  0  0  0  0  0
    0.6503    2.1770   -1.3464 H   0  0  0  0  0  0  0  0  0  0  0  0
    1.1302    0.5297    1.2350 H   0  0  0  0  0  0  0  0  0  0  0  0
    2.9096    0.4233   -1.2790 H   0  0  0  0  0  0  0  0  0  0  0  0
    3.5626   -1.5126   -0.3473 H   0  0  0  0  0  0  0  0  0  0  0  0
    0.6146   -0.2507   -1.8529 H   0  0  0  0  0  0  0  0  0  0  0  0
    0.3684   -1.5921    0.8871 H   0  0  0  0  0  0  0  0  0  0  0  0
   -0.5343   -2.0373   -0.6659 H   0  0  0  0  0  0  0  0  0  0  0  0
  1  2  1  0
  2  3  1  0
  3  4  1  0
  4  5  1  0
  5  6  1  0
  6  7  1  0
  6  8  1  0
  8  9  1  0
  9  2  1  0
  8  5  1  0
  1 10  1  0
  1 11  1  0
  1 12  1  0
  2 13  1  0
  3 14  1  0
  3 15  1  0
  4 16  1  0
  4 17  1  0
  5 18  1  0
  6 19  1  0
  7 20  1  0
  8 21  1  0
  9 22  1  0
  9 23  1  0
M  END
