
     RDKit          3D

 19 19  0  0  0  0  0  0  0  0999 V2000
   -2.0694   -0.7617   -0.5299 C   0  0  0  0  0  0  0  0  0  0  0  0
   -1.1297    0.1683    0.2142 C   0  0  0  0  0  0  0  0  0  0  0  0
   -0.2672   -0.6271    1.1365 C   0  0  0  0  0  0  0  0  0  0  0  0
    0.8988   -1.0448    0.4765 O   0  0  0  0  0  0  0  0  0  0  0  0
    1.4945    0.1458    0.0380 C   0  0  0  0  0  0  0  0  0  0  0  0
    2.9428    0.0368   -0.0726 C   0  0  0  0  0  0  0  0  0  0  0  0
    3.4649   -1.0216    0.2116 O   0  0  0  0  0  0  0  0  0  0  0  0
    0.8447    0.4861   -1.1435 O   0  0  0  0  0  0  0  0  0  0  0  0
   -0.4063    0.9965   -0.7791 C   0  0  0  0  0  0  0  0  0  0  0  0
   -2.9575   -0.1627   -0.8574 H   0  0  0  0  0  0  0  0  0  0  0  0
   -2.3577   -1.5962    0.1071 H   0  0  0  0  0  0  0  0  0  0  0  0
   -1.5343   -1.0603   -1.4605 H   0  0  0  0  0  0  0  0  0  0  0  0
   -1.7819    0.8574    0.8215 H   0  0  0  0  0  0  0  0  0  0  0  0
    0.0996    0.0544    1.9598 H   0  0  0  0  0  0  0  0  0  0  0  0
   -0.7823   -1.5074    1.5400 H   0  0  0  0  0  0  0  0  0  0  0  0
    1.2688    0.9768    0.7590 H   0  0  0  0  0  0  0  0  0  0  0  0
    3.5326    0.8711   -0.3972 H   0  0  0  0  0  0  0  0  0  0  0  0
   -1.0554    1.1641   -1.6656 H   0  0  0  0  0  0  0  0  0  0  0  0
   -0.2050    2.0244   -0.3584 H   0  0  0  0  0  0  0  0  0  0  0  0
  1  2  1  0
  2  3  1  0
  3  4  1  0
  4  5  1  0
  5  6  1  0
  6  7  2  0
  5  8  1  0
  8  9  1  0
  9  2  1  0
  1 10  1  0
  1 11  1  0
  1 12  1  0
  2 13  1  0
  3 14  1  0
  3 15  1  0
  5 16  1  0
  6 17  1  0
  9 18  1  0
  9 19  1  0
M  END
