
     RDKit          3D

 25 26  0  0  0  0  0  0  0  0999 V2000
    2.5946    0.4802   -0.5612 C   0  0  0  0  0  0  0  0  0  0  0  0
    1.4554    0.1458    0.3858 C   0  0  0  0  0  0  0  0  0  0  0  0
    1.1295   -1.3740    0.1925 C   0  0  0  0  0  0  0  0  0  0  0  0
   -0.2372   -1.4813   -0.1330 C   0  0  0  0  0  0  0  0  0  0  0  0
   -1.6449   -1.3541   -0.3068 C   0  0  0  0  0  0  0  0  0  0  0  0
   -1.9619    0.1096   -0.5611 C   0  0  0  0  0  0  0  0  0  0  0  0
   -2.3212    1.2599    0.0543 C   0  0  0  0  0  0  0  0  0  0  0  0
   -1.0181    0.8134    0.4815 C   0  0  0  0  0  0  0  0  0  0  0  0
    0.2994    1.0312   -0.0463 C   0  0  0  0  0  0  0  0  0  0  0  0
    3.1938   -0.4018   -0.8211 H   0  0  0  0  0  0  0  0  0  0  0  0
    2.1964    0.8776   -1.5407 H   0  0  0  0  0  0  0  0  0  0  0  0
    3.1815    1.2955   -0.1182 H   0  0  0  0  0  0  0  0  0  0  0  0
    1.7808    0.3392    1.4032 H   0  0  0  0  0  0  0  0  0  0  0  0
    1.5088   -1.9315    1.1071 H   0  0  0  0  0  0  0  0  0  0  0  0
    1.8123   -1.8096   -0.5821 H   0  0  0  0  0  0  0  0  0  0  0  0
   -0.0502   -0.8466   -1.0586 H   0  0  0  0  0  0  0  0  0  0  0  0
   -0.4157   -1.0192    0.8787 H   0  0  0  0  0  0  0  0  0  0  0  0
   -1.9594   -1.9709   -1.2139 H   0  0  0  0  0  0  0  0  0  0  0  0
   -2.3489   -1.8128    0.4499 H   0  0  0  0  0  0  0  0  0  0  0  0
   -1.5134    0.2674   -1.6172 H   0  0  0  0  0  0  0  0  0  0  0  0
   -3.2298    1.3027    0.7228 H   0  0  0  0  0  0  0  0  0  0  0  0
   -2.3123    2.2445   -0.5019 H   0  0  0  0  0  0  0  0  0  0  0  0
   -1.0833    0.6302    1.5657 H   0  0  0  0  0  0  0  0  0  0  0  0
    0.6516    2.0583    0.2888 H   0  0  0  0  0  0  0  0  0  0  0  0
    0.2920    1.1464   -1.1670 H   0  0  0  0  0  0  0  0  0  0  0  0
  1  2  1  0
  2  3  1  0
  3  4  1  0
  4  5  1  0
  5  6  1  0
  6  7  1  0
  7  8  1  0
  8  9  1  0
  9  2  1  0
  8  6  1  0
  1 10  1  0
  1 11  1  0
  1 12  1  0
  2 13  1  0
  3 14  1  0
  3 15  1  0
  4 16  1  0
  4 17  1  0
  5 18  1  0
  5 19  1  0
  6 20  1  0
  7 21  1  0
  7 22  1  0
  8 23  1  0
  9 24  1  0
  9 25  1  0
M  END
