
     RDKit          3D

 21 23  0  0  0  0  0  0  0  0999 V2000
    2.2097   -0.1321    0.4637 C   0  0  0  0  0  0  0  0  0  0  0  0
    1.5123   -0.0404   -0.8561 C   0  0  0  0  0  0  0  0  0  0  0  0
    0.8117    1.3329   -1.0507 C   0  0  0  0  0  0  0  0  0  0  0  0
    0.0717    0.0049   -1.0415 C   0  0  0  0  0  0  0  0  0  0  0  0
   -0.9725   -0.1752   -0.0393 C   0  0  0  0  0  0  0  0  0  0  0  0
   -1.1248    0.6988    1.1790 C   0  0  0  0  0  0  0  0  0  0  0  0
   -1.3468   -0.4587    1.9294 O   0  0  0  0  0  0  0  0  0  0  0  0
   -1.3242   -1.2635    0.7965 C   0  0  0  0  0  0  0  0  0  0  0  0
   -2.1971   -0.9744   -0.3650 C   0  0  0  0  0  0  0  0  0  0  0  0
    1.5642   -0.2757    1.3259 H   0  0  0  0  0  0  0  0  0  0  0  0
    2.7302    0.8478    0.6243 H   0  0  0  0  0  0  0  0  0  0  0  0
    3.0428   -0.8892    0.4358 H   0  0  0  0  0  0  0  0  0  0  0  0
    2.1542   -0.3681   -1.7004 H   0  0  0  0  0  0  0  0  0  0  0  0
    0.6964    1.9839   -0.1889 H   0  0  0  0  0  0  0  0  0  0  0  0
    1.0373    1.8278   -2.0145 H   0  0  0  0  0  0  0  0  0  0  0  0
   -0.2883   -0.2639   -2.0777 H   0  0  0  0  0  0  0  0  0  0  0  0
   -0.2539    1.2853    1.4584 H   0  0  0  0  0  0  0  0  0  0  0  0
   -2.0918    1.2556    1.1054 H   0  0  0  0  0  0  0  0  0  0  0  0
   -0.8798   -2.2610    0.8788 H   0  0  0  0  0  0  0  0  0  0  0  0
   -2.1988   -1.7269   -1.1617 H   0  0  0  0  0  0  0  0  0  0  0  0
   -3.1525   -0.4080   -0.2195 H   0  0  0  0  0  0  0  0  0  0  0  0
  1  2  1  0
  2  3  1  0
  3  4  1  0
  4  5  1  0
  5  6  1  0
  6  7  1  0
  7  8  1  0
  8  9  1  0
  4  2  1  0
  8  5  1  0
  9  5  1  0
  1 10  1  0
  1 11  1  0
  1 12  1  0
  2 13  1  0
  3 14  1  0
  3 15  1  0
  4 16  1  0
  6 17  1  0
  6 18  1  0
  8 19  1  0
  9 20  1  0
  9 21  1  0
M  END
