
     RDKit          3D

 19 19  0  0  0  0  0  0  0  0999 V2000
   -2.3146    0.3052    0.0601 C   0  0  0  0  0  0  0  0  0  0  0  0
   -0.9952   -0.3650    0.2693 C   0  0  0  0  0  0  0  0  0  0  0  0
   -0.1292   -0.4071   -0.9556 C   0  0  0  0  0  0  0  0  0  0  0  0
    1.2515   -0.6157   -0.3262 C   0  0  0  0  0  0  0  0  0  0  0  0
    2.2403   -0.3640   -1.2391 O   0  0  0  0  0  0  0  0  0  0  0  0
    1.2690    0.3132    0.8668 C   0  0  0  0  0  0  0  0  0  0  0  0
    1.8659    1.5239    0.6074 O   0  0  0  0  0  0  0  0  0  0  0  0
   -0.1661    0.4187    1.2165 C   0  0  0  0  0  0  0  0  0  0  0  0
   -0.6174    1.0509    2.1414 O   0  0  0  0  0  0  0  0  0  0  0  0
   -2.9586   -0.3324   -0.5984 H   0  0  0  0  0  0  0  0  0  0  0  0
   -2.8213    0.3821    1.0321 H   0  0  0  0  0  0  0  0  0  0  0  0
   -2.1669    1.2771   -0.4351 H   0  0  0  0  0  0  0  0  0  0  0  0
   -1.0929   -1.3882    0.6599 H   0  0  0  0  0  0  0  0  0  0  0  0
   -0.0872    0.5639   -1.4617 H   0  0  0  0  0  0  0  0  0  0  0  0
   -0.3173   -1.2531   -1.6152 H   0  0  0  0  0  0  0  0  0  0  0  0
    1.2544   -1.6896    0.0067 H   0  0  0  0  0  0  0  0  0  0  0  0
    2.4067   -1.2243   -1.7336 H   0  0  0  0  0  0  0  0  0  0  0  0
    1.8690   -0.2000    1.6617 H   0  0  0  0  0  0  0  0  0  0  0  0
    1.5097    2.0045   -0.1570 H   0  0  0  0  0  0  0  0  0  0  0  0
  1  2  1  0
  2  3  1  0
  3  4  1  0
  4  5  1  0
  4  6  1  0
  6  7  1  0
  6  8  1  0
  8  9  2  0
  8  2  1  0
  1 10  1  0
  1 11  1  0
  1 12  1  0
  2 13  1  0
  3 14  1  0
  3 15  1  0
  4 16  1  0
  5 17  1  0
  6 18  1  0
  7 19  1  0
M  END
