
     RDKit          3D

 19 19  0  0  0  0  0  0  0  0999 V2000
    1.9545   -0.2689   -0.4355 C   0  0  0  0  0  0  0  0  0  0  0  0
    0.7084   -0.4006    0.4043 C   0  0  0  0  0  0  0  0  0  0  0  0
    0.0178   -1.6780    0.2160 C   0  0  0  0  0  0  0  0  0  0  0  0
   -1.2313   -1.4924   -0.1848 C   0  0  0  0  0  0  0  0  0  0  0  0
   -1.5156   -0.0163   -0.3106 C   0  0  0  0  0  0  0  0  0  0  0  0
   -0.2351    0.6907    0.0055 C   0  0  0  0  0  0  0  0  0  0  0  0
    0.1833    1.4142   -1.0961 O   0  0  0  0  0  0  0  0  0  0  0  0
   -0.4391    1.5888    1.1943 C   0  0  0  0  0  0  0  0  0  0  0  0
   -0.8091    1.1155    2.2551 O   0  0  0  0  0  0  0  0  0  0  0  0
    1.7288   -0.2880   -1.5198 H   0  0  0  0  0  0  0  0  0  0  0  0
    2.3910    0.7328   -0.2218 H   0  0  0  0  0  0  0  0  0  0  0  0
    2.7350   -1.0286   -0.1575 H   0  0  0  0  0  0  0  0  0  0  0  0
    1.0239   -0.3113    1.4731 H   0  0  0  0  0  0  0  0  0  0  0  0
    0.4532   -2.6536    0.3777 H   0  0  0  0  0  0  0  0  0  0  0  0
   -1.9889   -2.2226   -0.4075 H   0  0  0  0  0  0  0  0  0  0  0  0
   -2.3491    0.2425    0.3446 H   0  0  0  0  0  0  0  0  0  0  0  0
   -1.8249    0.1455   -1.3709 H   0  0  0  0  0  0  0  0  0  0  0  0
   -0.5569    1.7869   -1.6279 H   0  0  0  0  0  0  0  0  0  0  0  0
   -0.2461    2.6435    1.0619 H   0  0  0  0  0  0  0  0  0  0  0  0
  1  2  1  0
  2  3  1  0
  3  4  2  0
  4  5  1  0
  5  6  1  0
  6  7  1  0
  6  8  1  0
  8  9  2  0
  6  2  1  0
  1 10  1  0
  1 11  1  0
  1 12  1  0
  2 13  1  0
  3 14  1  0
  4 15  1  0
  5 16  1  0
  5 17  1  0
  7 18  1  0
  8 19  1  0
M  END
