
     RDKit          3D

 21 22  0  0  0  0  0  0  0  0999 V2000
   -1.3832   -1.9494    0.3077 C   0  0  0  0  0  0  0  0  0  0  0  0
   -1.1320   -0.6226   -0.3806 C   0  0  0  0  0  0  0  0  0  0  0  0
   -1.1918    0.5599    0.3012 C   0  0  0  0  0  0  0  0  0  0  0  0
   -0.9768    1.8693   -0.3611 C   0  0  0  0  0  0  0  0  0  0  0  0
    0.4028    1.5320    0.1575 C   0  0  0  0  0  0  0  0  0  0  0  0
    0.1147    0.0852    0.1016 C   0  0  0  0  0  0  0  0  0  0  0  0
    1.2075   -0.7002   -0.2733 C   0  0  0  0  0  0  0  0  0  0  0  0
    2.5258   -0.1442    0.1477 C   0  0  0  0  0  0  0  0  0  0  0  0
    2.5989    0.8689    0.7870 O   0  0  0  0  0  0  0  0  0  0  0  0
   -1.7505   -2.7295   -0.3879 H   0  0  0  0  0  0  0  0  0  0  0  0
   -2.1925   -1.7940    1.0794 H   0  0  0  0  0  0  0  0  0  0  0  0
   -0.5154   -2.3318    0.8537 H   0  0  0  0  0  0  0  0  0  0  0  0
   -1.3379   -0.6691   -1.4840 H   0  0  0  0  0  0  0  0  0  0  0  0
   -1.5719    0.6388    1.3576 H   0  0  0  0  0  0  0  0  0  0  0  0
   -1.4162    2.7681    0.1211 H   0  0  0  0  0  0  0  0  0  0  0  0
   -1.0449    1.8762   -1.4725 H   0  0  0  0  0  0  0  0  0  0  0  0
    1.1152    1.9693   -0.5632 H   0  0  0  0  0  0  0  0  0  0  0  0
    0.5117    1.9605    1.1866 H   0  0  0  0  0  0  0  0  0  0  0  0
    1.3011   -0.7767   -1.4029 H   0  0  0  0  0  0  0  0  0  0  0  0
    1.2659   -1.7866    0.0264 H   0  0  0  0  0  0  0  0  0  0  0  0
    3.4694   -0.6245   -0.1021 H   0  0  0  0  0  0  0  0  0  0  0  0
  1  2  1  0
  2  3  1  0
  3  4  1  0
  4  5  1  0
  5  6  1  0
  6  7  1  0
  7  8  1  0
  8  9  2  0
  6  2  1  0
  6  3  1  0
  1 10  1  0
  1 11  1  0
  1 12  1  0
  2 13  1  0
  3 14  1  0
  4 15  1  0
  4 16  1  0
  5 17  1  0
  5 18  1  0
  7 19  1  0
  7 20  1  0
  8 21  1  0
M  END
