
     RDKit          3D

 21 21  0  0  0  0  0  0  0  0999 V2000
   -2.4490    1.1093    0.0145 C   0  0  0  0  0  0  0  0  0  0  0  0
   -1.2110    0.3775    0.3923 C   0  0  0  0  0  0  0  0  0  0  0  0
   -1.3780   -1.1278    0.4116 C   0  0  0  0  0  0  0  0  0  0  0  0
    0.0775   -1.5323    0.3943 C   0  0  0  0  0  0  0  0  0  0  0  0
    0.7971   -0.5982   -0.2040 C   0  0  0  0  0  0  0  0  0  0  0  0
    2.2683   -0.5761   -0.4450 C   0  0  0  0  0  0  0  0  0  0  0  0
    2.8857    0.6180    0.2284 C   0  0  0  0  0  0  0  0  0  0  0  0
    4.0795    0.7819    0.1282 O   0  0  0  0  0  0  0  0  0  0  0  0
   -0.1074    0.4958   -0.6376 C   0  0  0  0  0  0  0  0  0  0  0  0
   -2.8720    1.6037    0.9301 H   0  0  0  0  0  0  0  0  0  0  0  0
   -2.1973    1.9203   -0.7283 H   0  0  0  0  0  0  0  0  0  0  0  0
   -3.2395    0.4978   -0.4356 H   0  0  0  0  0  0  0  0  0  0  0  0
   -0.8033    0.6816    1.3736 H   0  0  0  0  0  0  0  0  0  0  0  0
   -1.8983   -1.5002    1.2981 H   0  0  0  0  0  0  0  0  0  0  0  0
   -1.8008   -1.4751   -0.5488 H   0  0  0  0  0  0  0  0  0  0  0  0
    0.5116   -2.4398    0.7984 H   0  0  0  0  0  0  0  0  0  0  0  0
    2.4726   -0.4573   -1.5289 H   0  0  0  0  0  0  0  0  0  0  0  0
    2.7704   -1.4696   -0.0202 H   0  0  0  0  0  0  0  0  0  0  0  0
    2.2330    1.2916    0.7823 H   0  0  0  0  0  0  0  0  0  0  0  0
   -0.4969    0.3013   -1.6580 H   0  0  0  0  0  0  0  0  0  0  0  0
    0.3577    1.4975   -0.5455 H   0  0  0  0  0  0  0  0  0  0  0  0
  1  2  1  0
  2  3  1  0
  3  4  1  0
  4  5  2  0
  5  6  1  0
  6  7  1  0
  7  8  2  0
  5  9  1  0
  9  2  1  0
  1 10  1  0
  1 11  1  0
  1 12  1  0
  2 13  1  0
  3 14  1  0
  3 15  1  0
  4 16  1  0
  6 17  1  0
  6 18  1  0
  7 19  1  0
  9 20  1  0
  9 21  1  0
M  END
