
     RDKit          3D

 18 19  0  0  0  0  0  0  0  0999 V2000
   -2.4436   -1.0948   -0.1935 C   0  0  0  0  0  0  0  0  0  0  0  0
   -1.5334    0.0124    0.3626 C   0  0  0  0  0  0  0  0  0  0  0  0
   -0.8697    0.8386   -0.5808 C   0  0  0  0  0  0  0  0  0  0  0  0
    0.2709    0.5629   -1.3380 O   0  0  0  0  0  0  0  0  0  0  0  0
    0.9145    0.9135   -0.1197 C   0  0  0  0  0  0  0  0  0  0  0  0
    2.3254    0.4353   -0.0224 C   0  0  0  0  0  0  0  0  0  0  0  0
    2.4310   -0.9588   -0.1114 O   0  0  0  0  0  0  0  0  0  0  0  0
   -0.0942   -0.1216    0.4091 C   0  0  0  0  0  0  0  0  0  0  0  0
   -2.3133   -1.1582   -1.3058 H   0  0  0  0  0  0  0  0  0  0  0  0
   -3.4912   -0.9289    0.0717 H   0  0  0  0  0  0  0  0  0  0  0  0
   -2.0816   -2.0343    0.2676 H   0  0  0  0  0  0  0  0  0  0  0  0
   -2.0017    0.4551    1.2885 H   0  0  0  0  0  0  0  0  0  0  0  0
   -0.8163    1.9358   -0.2943 H   0  0  0  0  0  0  0  0  0  0  0  0
    0.7716    1.9325    0.2211 H   0  0  0  0  0  0  0  0  0  0  0  0
    2.7139    0.7378    0.9672 H   0  0  0  0  0  0  0  0  0  0  0  0
    2.9929    0.8938   -0.7933 H   0  0  0  0  0  0  0  0  0  0  0  0
    2.9908   -1.3176    0.6472 H   0  0  0  0  0  0  0  0  0  0  0  0
    0.2340   -1.1035   -0.0603 H   0  0  0  0  0  0  0  0  0  0  0  0
  1  2  1  0
  2  3  1  0
  3  4  1  0
  4  5  1  0
  5  6  1  0
  6  7  1  0
  5  8  1  0
  8  2  1  0
  8  3  1  0
  1  9  1  0
  1 10  1  0
  1 11  1  0
  2 12  1  0
  3 13  1  0
  5 14  1  0
  6 15  1  0
  6 16  1  0
  7 17  1  0
  8 18  1  0
M  END
