
     RDKit          3D

 23 24  0  0  0  0  0  0  0  0999 V2000
   -1.5964    1.2484   -0.3982 C   0  0  0  0  0  0  0  0  0  0  0  0
   -1.1873   -0.1263   -0.8535 C   0  0  0  0  0  0  0  0  0  0  0  0
   -1.9053   -1.1897   -0.0126 C   0  0  0  0  0  0  0  0  0  0  0  0
   -0.5751   -1.6298    0.5758 C   0  0  0  0  0  0  0  0  0  0  0  0
    0.1004   -0.6543   -0.3335 C   0  0  0  0  0  0  0  0  0  0  0  0
    1.0252    0.3391    0.3256 C   0  0  0  0  0  0  0  0  0  0  0  0
    0.4852    0.9697    1.4256 O   0  0  0  0  0  0  0  0  0  0  0  0
    1.9301    1.0718   -0.6123 C   0  0  0  0  0  0  0  0  0  0  0  0
    2.4873    0.0984    0.3601 C   0  0  0  0  0  0  0  0  0  0  0  0
   -2.4769    1.5416   -1.0235 H   0  0  0  0  0  0  0  0  0  0  0  0
   -0.8358    2.0185   -0.5463 H   0  0  0  0  0  0  0  0  0  0  0  0
   -1.9851    1.2079    0.6461 H   0  0  0  0  0  0  0  0  0  0  0  0
   -1.3885   -0.2841   -1.9314 H   0  0  0  0  0  0  0  0  0  0  0  0
   -2.4264   -1.9556   -0.6021 H   0  0  0  0  0  0  0  0  0  0  0  0
   -2.5361   -0.7674    0.7970 H   0  0  0  0  0  0  0  0  0  0  0  0
   -0.4473   -1.4258    1.6391 H   0  0  0  0  0  0  0  0  0  0  0  0
   -0.3964   -2.6960    0.3486 H   0  0  0  0  0  0  0  0  0  0  0  0
    0.6459   -1.2123   -1.1415 H   0  0  0  0  0  0  0  0  0  0  0  0
    1.0149    0.8663    2.2548 H   0  0  0  0  0  0  0  0  0  0  0  0
    1.9656    0.7628   -1.6797 H   0  0  0  0  0  0  0  0  0  0  0  0
    2.1377    2.1505   -0.4771 H   0  0  0  0  0  0  0  0  0  0  0  0
    3.0648    0.5460    1.1990 H   0  0  0  0  0  0  0  0  0  0  0  0
    2.8996   -0.8796    0.0403 H   0  0  0  0  0  0  0  0  0  0  0  0
  1  2  1  0
  2  3  1  0
  3  4  1  0
  4  5  1  0
  5  6  1  0
  6  7  1  0
  6  8  1  0
  8  9  1  0
  5  2  1  0
  9  6  1  0
  1 10  1  0
  1 11  1  0
  1 12  1  0
  2 13  1  0
  3 14  1  0
  3 15  1  0
  4 16  1  0
  4 17  1  0
  5 18  1  0
  7 19  1  0
  8 20  1  0
  8 21  1  0
  9 22  1  0
  9 23  1  0
M  END
