
     RDKit          3D

 19 21  0  0  0  0  0  0  0  0999 V2000
    1.8820   -0.6281    0.4049 C   0  0  0  0  0  0  0  0  0  0  0  0
    0.9899    0.3540   -0.2706 C   0  0  0  0  0  0  0  0  0  0  0  0
   -0.0260   -0.2555   -1.1886 C   0  0  0  0  0  0  0  0  0  0  0  0
   -0.9559   -1.1217   -0.3615 C   0  0  0  0  0  0  0  0  0  0  0  0
   -1.5531   -0.0558    0.5600 C   0  0  0  0  0  0  0  0  0  0  0  0
   -0.6419    0.2426    1.5548 O   0  0  0  0  0  0  0  0  0  0  0  0
    0.0710    1.0896    0.7041 C   0  0  0  0  0  0  0  0  0  0  0  0
   -1.1707    1.2250   -0.1262 C   0  0  0  0  0  0  0  0  0  0  0  0
   -0.8643    0.8603   -1.4232 O   0  0  0  0  0  0  0  0  0  0  0  0
    2.9300   -0.4320    0.0305 H   0  0  0  0  0  0  0  0  0  0  0  0
    1.8819   -0.4758    1.4887 H   0  0  0  0  0  0  0  0  0  0  0  0
    1.6083   -1.6973    0.2083 H   0  0  0  0  0  0  0  0  0  0  0  0
    1.5491    1.1612   -0.8079 H   0  0  0  0  0  0  0  0  0  0  0  0
    0.3490   -0.7132   -2.0821 H   0  0  0  0  0  0  0  0  0  0  0  0
   -1.7244   -1.5969   -0.9863 H   0  0  0  0  0  0  0  0  0  0  0  0
   -0.4251   -1.8415    0.2760 H   0  0  0  0  0  0  0  0  0  0  0  0
   -2.5893   -0.1961    0.8356 H   0  0  0  0  0  0  0  0  0  0  0  0
    0.4827    1.9893    1.1535 H   0  0  0  0  0  0  0  0  0  0  0  0
   -1.7931    2.0918    0.0301 H   0  0  0  0  0  0  0  0  0  0  0  0
  1  2  1  0
  2  3  1  0
  3  4  1  0
  4  5  1  0
  5  6  1  0
  6  7  1  0
  7  8  1  0
  8  9  1  0
  7  2  1  0
  9  3  1  0
  8  5  1  0
  1 10  1  0
  1 11  1  0
  1 12  1  0
  2 13  1  0
  3 14  1  0
  4 15  1  0
  4 16  1  0
  5 17  1  0
  7 18  1  0
  8 19  1  0
M  END
