
     RDKit          3D

 19 19  0  0  0  0  0  0  0  0999 V2000
   -2.8982   -0.3399   -0.4820 C   0  0  0  0  0  0  0  0  0  0  0  0
   -1.6278    0.2928    0.0311 C   0  0  0  0  0  0  0  0  0  0  0  0
   -1.3068    0.0707    1.4602 C   0  0  0  0  0  0  0  0  0  0  0  0
   -0.5414    0.9832    2.1705 O   0  0  0  0  0  0  0  0  0  0  0  0
   -0.5547   -0.6987    0.4215 C   0  0  0  0  0  0  0  0  0  0  0  0
    0.8119   -0.3003    0.0859 C   0  0  0  0  0  0  0  0  0  0  0  0
    1.9480    0.0322   -0.2125 C   0  0  0  0  0  0  0  0  0  0  0  0
    3.3163    0.4062   -0.5700 C   0  0  0  0  0  0  0  0  0  0  0  0
    3.7777   -0.3952   -1.5855 O   0  0  0  0  0  0  0  0  0  0  0  0
   -3.6013   -0.5059    0.3689 H   0  0  0  0  0  0  0  0  0  0  0  0
   -2.6260   -1.2872   -0.9759 H   0  0  0  0  0  0  0  0  0  0  0  0
   -3.4366    0.3160   -1.1951 H   0  0  0  0  0  0  0  0  0  0  0  0
   -1.3279    1.2298   -0.4927 H   0  0  0  0  0  0  0  0  0  0  0  0
   -2.0542   -0.4925    2.0741 H   0  0  0  0  0  0  0  0  0  0  0  0
   -0.4093    0.6030    3.0802 H   0  0  0  0  0  0  0  0  0  0  0  0
   -0.7586   -1.7762    0.3681 H   0  0  0  0  0  0  0  0  0  0  0  0
    3.3477    1.4923   -0.8656 H   0  0  0  0  0  0  0  0  0  0  0  0
    3.9393    0.2450    0.3279 H   0  0  0  0  0  0  0  0  0  0  0  0
    4.0021    0.1245   -2.3961 H   0  0  0  0  0  0  0  0  0  0  0  0
  1  2  1  0
  2  3  1  0
  3  4  1  0
  3  5  1  0
  5  6  1  0
  6  7  3  0
  7  8  1  0
  8  9  1  0
  5  2  1  0
  1 10  1  0
  1 11  1  0
  1 12  1  0
  2 13  1  0
  3 14  1  0
  4 15  1  0
  5 16  1  0
  8 17  1  0
  8 18  1  0
  9 19  1  0
M  END
