
     RDKit          3D

 21 23  0  0  0  0  0  0  0  0999 V2000
    0.1503   -1.9116   -0.7391 C   0  0  0  0  0  0  0  0  0  0  0  0
    0.0046   -0.7927    0.2459 C   0  0  0  0  0  0  0  0  0  0  0  0
   -0.8384    0.3518   -0.1782 C   0  0  0  0  0  0  0  0  0  0  0  0
   -2.2413    0.3424    0.3710 C   0  0  0  0  0  0  0  0  0  0  0  0
   -0.3572    1.6104   -0.7405 C   0  0  0  0  0  0  0  0  0  0  0  0
    0.2055    1.2311    0.5709 C   0  0  0  0  0  0  0  0  0  0  0  0
    1.1759    0.0961    0.4390 C   0  0  0  0  0  0  0  0  0  0  0  0
    2.3581    0.1274   -0.2044 C   0  0  0  0  0  0  0  0  0  0  0  0
    2.1977   -0.1179    1.2733 O   0  0  0  0  0  0  0  0  0  0  0  0
   -0.3608   -2.8306   -0.3779 H   0  0  0  0  0  0  0  0  0  0  0  0
    1.1940   -2.1995   -0.9475 H   0  0  0  0  0  0  0  0  0  0  0  0
   -0.4077   -1.6263   -1.6770 H   0  0  0  0  0  0  0  0  0  0  0  0
   -0.3233   -1.2034    1.2472 H   0  0  0  0  0  0  0  0  0  0  0  0
   -2.9059    0.8145   -0.3985 H   0  0  0  0  0  0  0  0  0  0  0  0
   -2.3429    0.8151    1.3479 H   0  0  0  0  0  0  0  0  0  0  0  0
   -2.5625   -0.7145    0.4535 H   0  0  0  0  0  0  0  0  0  0  0  0
   -1.0366    2.4752   -0.7291 H   0  0  0  0  0  0  0  0  0  0  0  0
    0.3688    1.6555   -1.5982 H   0  0  0  0  0  0  0  0  0  0  0  0
   -0.1340    1.6075    1.5239 H   0  0  0  0  0  0  0  0  0  0  0  0
    2.9901    1.0415   -0.3693 H   0  0  0  0  0  0  0  0  0  0  0  0
    2.8654   -0.7723   -0.6615 H   0  0  0  0  0  0  0  0  0  0  0  0
  1  2  1  0
  2  3  1  0
  3  4  1  0
  3  5  1  0
  5  6  1  0
  6  7  1  0
  7  8  1  0
  8  9  1  0
  7  2  1  0
  6  3  1  0
  9  7  1  0
  1 10  1  0
  1 11  1  0
  1 12  1  0
  2 13  1  0
  4 14  1  0
  4 15  1  0
  4 16  1  0
  5 17  1  0
  5 18  1  0
  6 19  1  0
  8 20  1  0
  8 21  1  0
M  END
