
     RDKit          3D

 17 18  0  0  0  0  0  0  0  0999 V2000
   -1.5447    0.8489    0.6223 C   0  0  0  0  0  0  0  0  0  0  0  0
   -0.8829   -0.3445    0.0375 C   0  0  0  0  0  0  0  0  0  0  0  0
    0.0108   -0.0862   -1.1695 C   0  0  0  0  0  0  0  0  0  0  0  0
    0.8607   -1.2550   -0.6448 C   0  0  0  0  0  0  0  0  0  0  0  0
    0.3817   -0.8179    0.7470 C   0  0  0  0  0  0  0  0  0  0  0  0
    1.1820    0.2876    1.1578 O   0  0  0  0  0  0  0  0  0  0  0  0
    1.5049    1.2074    0.1652 C   0  0  0  0  0  0  0  0  0  0  0  0
    2.4250    2.0719    0.3141 O   0  0  0  0  0  0  0  0  0  0  0  0
    0.7542    1.1218   -1.0065 O   0  0  0  0  0  0  0  0  0  0  0  0
   -2.6131    0.8517    0.2572 H   0  0  0  0  0  0  0  0  0  0  0  0
   -1.6506    0.7322    1.7402 H   0  0  0  0  0  0  0  0  0  0  0  0
   -1.1083    1.8086    0.3355 H   0  0  0  0  0  0  0  0  0  0  0  0
   -1.5170   -1.2195   -0.1715 H   0  0  0  0  0  0  0  0  0  0  0  0
   -0.4404   -0.2436   -2.1425 H   0  0  0  0  0  0  0  0  0  0  0  0
    0.4358   -2.2263   -0.9065 H   0  0  0  0  0  0  0  0  0  0  0  0
    1.9462   -1.1203   -0.8026 H   0  0  0  0  0  0  0  0  0  0  0  0
    0.2557   -1.6168    1.4669 H   0  0  0  0  0  0  0  0  0  0  0  0
  1  2  1  0
  2  3  1  0
  3  4  1  0
  4  5  1  0
  5  6  1  0
  6  7  1  0
  7  8  2  0
  7  9  1  0
  5  2  1  0
  9  3  1  0
  1 10  1  0
  1 11  1  0
  1 12  1  0
  2 13  1  0
  3 14  1  0
  4 15  1  0
  4 16  1  0
  5 17  1  0
M  END
