
     RDKit          3D

 21 22  0  0  0  0  0  0  0  0999 V2000
   -2.2525    0.0226    0.2168 C   0  0  0  0  0  0  0  0  0  0  0  0
   -0.7975   -0.1621    0.4032 C   0  0  0  0  0  0  0  0  0  0  0  0
   -0.1879   -1.1837   -0.5103 C   0  0  0  0  0  0  0  0  0  0  0  0
    1.3076   -1.3268   -0.1794 C   0  0  0  0  0  0  0  0  0  0  0  0
    1.8651    0.0026   -0.4679 C   0  0  0  0  0  0  0  0  0  0  0  0
    2.5343    0.8921    0.2176 O   0  0  0  0  0  0  0  0  0  0  0  0
    1.3399    0.8250    0.7422 C   0  0  0  0  0  0  0  0  0  0  0  0
   -0.0220    1.1603    0.2864 C   0  0  0  0  0  0  0  0  0  0  0  0
   -0.0965    1.6565   -1.0033 O   0  0  0  0  0  0  0  0  0  0  0  0
   -2.7442   -0.9524    0.2083 H   0  0  0  0  0  0  0  0  0  0  0  0
   -2.5023    0.5317   -0.7393 H   0  0  0  0  0  0  0  0  0  0  0  0
   -2.6648    0.6030    1.0666 H   0  0  0  0  0  0  0  0  0  0  0  0
   -0.6191   -0.5086    1.4527 H   0  0  0  0  0  0  0  0  0  0  0  0
   -0.7069   -2.1258   -0.5343 H   0  0  0  0  0  0  0  0  0  0  0  0
   -0.1951   -0.7582   -1.5560 H   0  0  0  0  0  0  0  0  0  0  0  0
    1.6893   -2.1625   -0.7588 H   0  0  0  0  0  0  0  0  0  0  0  0
    1.3726   -1.5914    0.9155 H   0  0  0  0  0  0  0  0  0  0  0  0
    1.5609    0.3738   -1.4922 H   0  0  0  0  0  0  0  0  0  0  0  0
    1.3200    0.2895    1.7392 H   0  0  0  0  0  0  0  0  0  0  0  0
   -0.4933    1.8614    0.9934 H   0  0  0  0  0  0  0  0  0  0  0  0
    0.2924    2.5527   -1.0004 H   0  0  0  0  0  0  0  0  0  0  0  0
  1  2  1  0
  2  3  1  0
  3  4  1  0
  4  5  1  0
  5  6  1  0
  6  7  1  0
  7  8  1  0
  8  9  1  0
  8  2  1  0
  7  5  1  0
  1 10  1  0
  1 11  1  0
  1 12  1  0
  2 13  1  0
  3 14  1  0
  3 15  1  0
  4 16  1  0
  4 17  1  0
  5 18  1  0
  7 19  1  0
  8 20  1  0
  9 21  1  0
M  END
