
     RDKit          3D

 21 22  0  0  0  0  0  0  0  0999 V2000
    2.5823    0.0162    0.5330 C   0  0  0  0  0  0  0  0  0  0  0  0
    1.1472    0.4124    0.1555 C   0  0  0  0  0  0  0  0  0  0  0  0
    0.6726   -0.4593   -0.9540 C   0  0  0  0  0  0  0  0  0  0  0  0
   -0.7359   -0.9152   -0.8485 C   0  0  0  0  0  0  0  0  0  0  0  0
   -1.5842   -0.1692    0.1129 C   0  0  0  0  0  0  0  0  0  0  0  0
   -2.8014   -0.7556    0.4178 O   0  0  0  0  0  0  0  0  0  0  0  0
   -1.4856    1.3369   -0.0005 C   0  0  0  0  0  0  0  0  0  0  0  0
   -0.9296    0.6073    1.1446 C   0  0  0  0  0  0  0  0  0  0  0  0
    0.3930    0.2973    1.2948 O   0  0  0  0  0  0  0  0  0  0  0  0
    3.2051    0.8826    0.7579 H   0  0  0  0  0  0  0  0  0  0  0  0
    2.9978   -0.6333   -0.2642 H   0  0  0  0  0  0  0  0  0  0  0  0
    2.5666   -0.6227    1.4545 H   0  0  0  0  0  0  0  0  0  0  0  0
    1.1888    1.4963   -0.1560 H   0  0  0  0  0  0  0  0  0  0  0  0
    0.8900    0.0541   -1.9309 H   0  0  0  0  0  0  0  0  0  0  0  0
    1.3214   -1.3825   -0.9871 H   0  0  0  0  0  0  0  0  0  0  0  0
   -0.8229   -2.0036   -0.6305 H   0  0  0  0  0  0  0  0  0  0  0  0
   -1.2033   -0.7942   -1.8709 H   0  0  0  0  0  0  0  0  0  0  0  0
   -2.7197   -1.7223    0.2910 H   0  0  0  0  0  0  0  0  0  0  0  0
   -0.7712    1.7714   -0.7535 H   0  0  0  0  0  0  0  0  0  0  0  0
   -2.4394    1.8604    0.1049 H   0  0  0  0  0  0  0  0  0  0  0  0
   -1.4715    0.7229    2.1294 H   0  0  0  0  0  0  0  0  0  0  0  0
  1  2  1  0
  2  3  1  0
  3  4  1  0
  4  5  1  0
  5  6  1  0
  5  7  1  0
  7  8  1  0
  8  9  1  0
  9  2  1  0
  8  5  1  0
  1 10  1  0
  1 11  1  0
  1 12  1  0
  2 13  1  0
  3 14  1  0
  3 15  1  0
  4 16  1  0
  4 17  1  0
  6 18  1  0
  7 19  1  0
  7 20  1  0
  8 21  1  0
M  END
