
     RDKit          3D

 18 19  0  0  0  0  0  0  0  0999 V2000
    2.3500    0.6643    0.0411 C   0  0  0  0  0  0  0  0  0  0  0  0
    1.0642    0.0919    0.5267 C   0  0  0  0  0  0  0  0  0  0  0  0
    0.2869   -0.7119   -0.4418 C   0  0  0  0  0  0  0  0  0  0  0  0
   -0.8992   -1.4782    0.0547 C   0  0  0  0  0  0  0  0  0  0  0  0
   -1.4420   -0.2046    0.6396 C   0  0  0  0  0  0  0  0  0  0  0  0
   -2.6589    0.2182    0.0969 O   0  0  0  0  0  0  0  0  0  0  0  0
   -0.2565    0.5846    0.1027 C   0  0  0  0  0  0  0  0  0  0  0  0
   -0.4462    1.5930   -0.7971 O   0  0  0  0  0  0  0  0  0  0  0  0
    3.1482    0.6880    0.8242 H   0  0  0  0  0  0  0  0  0  0  0  0
    2.7513    0.0189   -0.7868 H   0  0  0  0  0  0  0  0  0  0  0  0
    2.2644    1.6811   -0.3552 H   0  0  0  0  0  0  0  0  0  0  0  0
    1.1087   -0.2726    1.5906 H   0  0  0  0  0  0  0  0  0  0  0  0
    0.5326   -0.7336   -1.5107 H   0  0  0  0  0  0  0  0  0  0  0  0
   -1.4766   -1.9444   -0.7499 H   0  0  0  0  0  0  0  0  0  0  0  0
   -0.5908   -2.2572    0.7848 H   0  0  0  0  0  0  0  0  0  0  0  0
   -1.4429   -0.2926    1.7589 H   0  0  0  0  0  0  0  0  0  0  0  0
   -3.0340    0.9100    0.7124 H   0  0  0  0  0  0  0  0  0  0  0  0
   -1.2592    1.4448   -1.3630 H   0  0  0  0  0  0  0  0  0  0  0  0
  1  2  1  0
  2  3  1  0
  3  4  1  0
  4  5  1  0
  5  6  1  0
  5  7  1  0
  7  8  1  0
  7  2  1  0
  7  3  1  0
  1  9  1  0
  1 10  1  0
  1 11  1  0
  2 12  1  0
  3 13  1  0
  4 14  1  0
  4 15  1  0
  5 16  1  0
  6 17  1  0
  8 18  1  0
M  END
