
     RDKit          3D

 21 21  0  0  0  0  0  0  0  0999 V2000
   -2.7052    0.8281    0.2802 C   0  0  0  0  0  0  0  0  0  0  0  0
   -1.6748   -0.2657   -0.0215 C   0  0  0  0  0  0  0  0  0  0  0  0
   -0.4827    0.0189    0.8555 C   0  0  0  0  0  0  0  0  0  0  0  0
    0.6068    0.2559   -0.1800 C   0  0  0  0  0  0  0  0  0  0  0  0
    1.9179   -0.2515    0.3609 C   0  0  0  0  0  0  0  0  0  0  0  0
    3.0207   -0.0581   -0.5825 C   0  0  0  0  0  0  0  0  0  0  0  0
    4.1417   -0.4136   -0.2970 O   0  0  0  0  0  0  0  0  0  0  0  0
    0.0777   -0.6133   -1.3086 C   0  0  0  0  0  0  0  0  0  0  0  0
   -1.2589   -0.2089   -1.3316 O   0  0  0  0  0  0  0  0  0  0  0  0
   -2.5428    1.2204    1.3097 H   0  0  0  0  0  0  0  0  0  0  0  0
   -3.7225    0.4328    0.2477 H   0  0  0  0  0  0  0  0  0  0  0  0
   -2.5403    1.6948   -0.3978 H   0  0  0  0  0  0  0  0  0  0  0  0
   -2.0990   -1.2716    0.1589 H   0  0  0  0  0  0  0  0  0  0  0  0
   -0.6185    0.8629    1.5314 H   0  0  0  0  0  0  0  0  0  0  0  0
   -0.1948   -0.9001    1.4310 H   0  0  0  0  0  0  0  0  0  0  0  0
    0.6551    1.3190   -0.4718 H   0  0  0  0  0  0  0  0  0  0  0  0
    2.1329    0.3279    1.2829 H   0  0  0  0  0  0  0  0  0  0  0  0
    1.7724   -1.2997    0.6806 H   0  0  0  0  0  0  0  0  0  0  0  0
    2.8319    0.4031   -1.5353 H   0  0  0  0  0  0  0  0  0  0  0  0
    0.0937   -1.6527   -0.9714 H   0  0  0  0  0  0  0  0  0  0  0  0
    0.5885   -0.4287   -2.2622 H   0  0  0  0  0  0  0  0  0  0  0  0
  1  2  1  0
  2  3  1  0
  3  4  1  0
  4  5  1  0
  5  6  1  0
  6  7  2  0
  4  8  1  0
  8  9  1  0
  9  2  1  0
  1 10  1  0
  1 11  1  0
  1 12  1  0
  2 13  1  0
  3 14  1  0
  3 15  1  0
  4 16  1  0
  5 17  1  0
  5 18  1  0
  6 19  1  0
  8 20  1  0
  8 21  1  0
M  END
