
     RDKit          3D

 21 22  0  0  0  0  0  0  0  0999 V2000
    1.5788   -1.4766   -0.7449 C   0  0  0  0  0  0  0  0  0  0  0  0
    0.5177   -0.7516    0.0794 C   0  0  0  0  0  0  0  0  0  0  0  0
    1.2141    0.2287    1.0322 C   0  0  0  0  0  0  0  0  0  0  0  0
    0.5060    1.5339    1.1419 C   0  0  0  0  0  0  0  0  0  0  0  0
   -0.7466    1.7425    0.7706 C   0  0  0  0  0  0  0  0  0  0  0  0
   -1.4287    0.5899    0.2271 C   0  0  0  0  0  0  0  0  0  0  0  0
   -1.7198    0.1244   -1.0658 C   0  0  0  0  0  0  0  0  0  0  0  0
   -2.4152   -1.0998   -1.1877 O   0  0  0  0  0  0  0  0  0  0  0  0
   -0.3378    0.0647   -0.7830 C   0  0  0  0  0  0  0  0  0  0  0  0
    1.1969   -2.4333   -1.1123 H   0  0  0  0  0  0  0  0  0  0  0  0
    1.8226   -0.8210   -1.6223 H   0  0  0  0  0  0  0  0  0  0  0  0
    2.4752   -1.5542   -0.1047 H   0  0  0  0  0  0  0  0  0  0  0  0
   -0.0816   -1.4995    0.6659 H   0  0  0  0  0  0  0  0  0  0  0  0
    1.3917   -0.2457    2.0205 H   0  0  0  0  0  0  0  0  0  0  0  0
    2.2119    0.4511    0.5990 H   0  0  0  0  0  0  0  0  0  0  0  0
    1.1068    2.3486    1.5662 H   0  0  0  0  0  0  0  0  0  0  0  0
   -1.1861    2.7048    0.8799 H   0  0  0  0  0  0  0  0  0  0  0  0
   -1.6792   -0.1198    1.0809 H   0  0  0  0  0  0  0  0  0  0  0  0
   -2.0895    0.8249   -1.8590 H   0  0  0  0  0  0  0  0  0  0  0  0
   -2.6284   -1.4736   -0.2927 H   0  0  0  0  0  0  0  0  0  0  0  0
    0.2910    0.8615   -1.2913 H   0  0  0  0  0  0  0  0  0  0  0  0
  1  2  1  0
  2  3  1  0
  3  4  1  0
  4  5  2  0
  5  6  1  0
  6  7  1  0
  7  8  1  0
  7  9  1  0
  9  2  1  0
  9  6  1  0
  1 10  1  0
  1 11  1  0
  1 12  1  0
  2 13  1  0
  3 14  1  0
  3 15  1  0
  4 16  1  0
  5 17  1  0
  6 18  1  0
  7 19  1  0
  8 20  1  0
  9 21  1  0
M  END
