
     RDKit          3D

 19 21  0  0  0  0  0  0  0  0999 V2000
    2.1322   -0.0134   -0.4977 C   0  0  0  0  0  0  0  0  0  0  0  0
    1.0198   -0.2829    0.4571 C   0  0  0  0  0  0  0  0  0  0  0  0
    0.0676    0.9299    0.5732 C   0  0  0  0  0  0  0  0  0  0  0  0
   -0.0354    1.1240   -0.8315 O   0  0  0  0  0  0  0  0  0  0  0  0
   -0.6955   -0.1039   -1.1077 C   0  0  0  0  0  0  0  0  0  0  0  0
   -1.9698    0.2672   -0.3148 C   0  0  0  0  0  0  0  0  0  0  0  0
   -1.1774    0.2350    1.0128 C   0  0  0  0  0  0  0  0  0  0  0  0
   -0.9210   -1.1610    0.9625 O   0  0  0  0  0  0  0  0  0  0  0  0
   -0.1006   -1.1250   -0.1950 C   0  0  0  0  0  0  0  0  0  0  0  0
    2.3149    1.0851   -0.6225 H   0  0  0  0  0  0  0  0  0  0  0  0
    1.9206   -0.4750   -1.4875 H   0  0  0  0  0  0  0  0  0  0  0  0
    3.0449   -0.5066   -0.1181 H   0  0  0  0  0  0  0  0  0  0  0  0
    1.3058   -0.6688    1.4274 H   0  0  0  0  0  0  0  0  0  0  0  0
    0.4389    1.7377    1.1242 H   0  0  0  0  0  0  0  0  0  0  0  0
   -0.8469   -0.3302   -2.1173 H   0  0  0  0  0  0  0  0  0  0  0  0
   -2.7182   -0.5137   -0.3597 H   0  0  0  0  0  0  0  0  0  0  0  0
   -2.2827    1.2740   -0.5706 H   0  0  0  0  0  0  0  0  0  0  0  0
   -1.6997    0.5792    1.8517 H   0  0  0  0  0  0  0  0  0  0  0  0
    0.2025   -2.0516   -0.5769 H   0  0  0  0  0  0  0  0  0  0  0  0
  1  2  1  0
  2  3  1  0
  3  4  1  0
  4  5  1  0
  5  6  1  0
  6  7  1  0
  7  8  1  0
  8  9  1  0
  9  2  1  0
  7  3  1  0
  9  5  1  0
  1 10  1  0
  1 11  1  0
  1 12  1  0
  2 13  1  0
  3 14  1  0
  5 15  1  0
  6 16  1  0
  6 17  1  0
  7 18  1  0
  9 19  1  0
M  END
