
     RDKit          3D

 17 18  0  0  0  0  0  0  0  0999 V2000
    1.8365   -0.5010    0.3842 C   0  0  0  0  0  0  0  0  0  0  0  0
    0.7990    0.0968   -0.5444 C   0  0  0  0  0  0  0  0  0  0  0  0
    0.2448    1.3391    0.0608 C   0  0  0  0  0  0  0  0  0  0  0  0
   -1.0879    1.4492    0.0719 C   0  0  0  0  0  0  0  0  0  0  0  0
   -1.8361    0.1566   -0.1307 C   0  0  0  0  0  0  0  0  0  0  0  0
   -1.4305   -0.3927   -1.3316 O   0  0  0  0  0  0  0  0  0  0  0  0
   -0.3184   -0.9108   -0.6775 C   0  0  0  0  0  0  0  0  0  0  0  0
   -1.0951   -0.9125    0.5856 C   0  0  0  0  0  0  0  0  0  0  0  0
   -1.1770   -1.4388    1.6627 O   0  0  0  0  0  0  0  0  0  0  0  0
    1.4301   -1.3089    1.0058 H   0  0  0  0  0  0  0  0  0  0  0  0
    2.6543   -0.9570   -0.2307 H   0  0  0  0  0  0  0  0  0  0  0  0
    2.3282    0.3015    0.9771 H   0  0  0  0  0  0  0  0  0  0  0  0
    1.2700    0.2829   -1.5329 H   0  0  0  0  0  0  0  0  0  0  0  0
    0.9057    2.1005    0.4649 H   0  0  0  0  0  0  0  0  0  0  0  0
   -1.6024    2.3938    0.2153 H   0  0  0  0  0  0  0  0  0  0  0  0
   -2.8930    0.1865    0.0923 H   0  0  0  0  0  0  0  0  0  0  0  0
   -0.0283   -1.8852   -1.0729 H   0  0  0  0  0  0  0  0  0  0  0  0
  1  2  1  0
  2  3  1  0
  3  4  2  0
  4  5  1  0
  5  6  1  0
  6  7  1  0
  7  8  1  0
  8  9  2  0
  7  2  1  0
  8  5  1  0
  1 10  1  0
  1 11  1  0
  1 12  1  0
  2 13  1  0
  3 14  1  0
  4 15  1  0
  5 16  1  0
  7 17  1  0
M  END
