
     RDKit          3D

 21 22  0  0  0  0  0  0  0  0999 V2000
    1.2761   -0.6770    1.3007 C   0  0  0  0  0  0  0  0  0  0  0  0
    1.0535   -0.2621   -0.0944 C   0  0  0  0  0  0  0  0  0  0  0  0
   -0.0585   -0.9233   -0.8581 C   0  0  0  0  0  0  0  0  0  0  0  0
   -1.3068   -1.1083   -0.0582 C   0  0  0  0  0  0  0  0  0  0  0  0
   -1.7516    0.1797    0.5342 C   0  0  0  0  0  0  0  0  0  0  0  0
   -0.8565    1.1601    0.5643 C   0  0  0  0  0  0  0  0  0  0  0  0
    0.3218    1.0413   -0.3187 C   0  0  0  0  0  0  0  0  0  0  0  0
    1.0912    2.1555   -0.4956 O   0  0  0  0  0  0  0  0  0  0  0  0
   -0.1821    0.4019   -1.6234 C   0  0  0  0  0  0  0  0  0  0  0  0
    2.1134   -1.4282    1.3225 H   0  0  0  0  0  0  0  0  0  0  0  0
    1.6591    0.2027    1.8882 H   0  0  0  0  0  0  0  0  0  0  0  0
    0.4210   -1.0695    1.8456 H   0  0  0  0  0  0  0  0  0  0  0  0
    1.9791   -0.2710   -0.7014 H   0  0  0  0  0  0  0  0  0  0  0  0
    0.2161   -1.7760   -1.4828 H   0  0  0  0  0  0  0  0  0  0  0  0
   -2.0717   -1.5547   -0.7255 H   0  0  0  0  0  0  0  0  0  0  0  0
   -1.1850   -1.8195    0.7854 H   0  0  0  0  0  0  0  0  0  0  0  0
   -2.7610    0.3053    0.9214 H   0  0  0  0  0  0  0  0  0  0  0  0
   -1.0265    1.9984    1.2294 H   0  0  0  0  0  0  0  0  0  0  0  0
    1.6744    2.3158    0.2733 H   0  0  0  0  0  0  0  0  0  0  0  0
    0.5920    0.4461   -2.4125 H   0  0  0  0  0  0  0  0  0  0  0  0
   -1.1979    0.6827   -1.8946 H   0  0  0  0  0  0  0  0  0  0  0  0
  1  2  1  0
  2  3  1  0
  3  4  1  0
  4  5  1  0
  5  6  2  0
  6  7  1  0
  7  8  1  0
  7  9  1  0
  7  2  1  0
  9  3  1  0
  1 10  1  0
  1 11  1  0
  1 12  1  0
  2 13  1  0
  3 14  1  0
  4 15  1  0
  4 16  1  0
  5 17  1  0
  6 18  1  0
  8 19  1  0
  9 20  1  0
  9 21  1  0
M  END
