
     RDKit          3D

 17 17  0  0  0  0  0  0  0  0999 V2000
    2.1444   -0.0451    0.5365 C   0  0  0  0  0  0  0  0  0  0  0  0
    0.9431   -0.7614   -0.0315 C   0  0  0  0  0  0  0  0  0  0  0  0
    0.1381   -0.0080   -1.0373 C   0  0  0  0  0  0  0  0  0  0  0  0
   -0.9100    0.0025    0.0532 C   0  0  0  0  0  0  0  0  0  0  0  0
   -2.1717   -0.6717   -0.2780 C   0  0  0  0  0  0  0  0  0  0  0  0
   -2.4152   -1.7694    0.1941 O   0  0  0  0  0  0  0  0  0  0  0  0
   -1.1332    1.3728    0.5857 C   0  0  0  0  0  0  0  0  0  0  0  0
   -1.8241    2.1430   -0.0598 O   0  0  0  0  0  0  0  0  0  0  0  0
   -0.1118   -0.7285    0.9038 O   0  0  0  0  0  0  0  0  0  0  0  0
    2.0166    1.0587    0.5435 H   0  0  0  0  0  0  0  0  0  0  0  0
    2.2864   -0.4319    1.5786 H   0  0  0  0  0  0  0  0  0  0  0  0
    3.0726   -0.2714   -0.0390 H   0  0  0  0  0  0  0  0  0  0  0  0
    1.1602   -1.7966   -0.2930 H   0  0  0  0  0  0  0  0  0  0  0  0
    0.5295    0.9938   -1.2949 H   0  0  0  0  0  0  0  0  0  0  0  0
   -0.1273   -0.5995   -1.9340 H   0  0  0  0  0  0  0  0  0  0  0  0
   -2.8913   -0.1911   -0.9460 H   0  0  0  0  0  0  0  0  0  0  0  0
   -0.7063    1.7039    1.5180 H   0  0  0  0  0  0  0  0  0  0  0  0
  1  2  1  0
  2  3  1  0
  3  4  1  0
  4  5  1  0
  5  6  2  0
  4  7  1  0
  7  8  2  0
  4  9  1  0
  9  2  1  0
  1 10  1  0
  1 11  1  0
  1 12  1  0
  2 13  1  0
  3 14  1  0
  3 15  1  0
  5 16  1  0
  7 17  1  0
M  END
