
     RDKit          3D

 21 22  0  0  0  0  0  0  0  0999 V2000
   -1.4570    1.7095    0.5145 C   0  0  0  0  0  0  0  0  0  0  0  0
   -0.2054    1.0072    0.1316 C   0  0  0  0  0  0  0  0  0  0  0  0
    0.0380   -0.3043    0.8656 C   0  0  0  0  0  0  0  0  0  0  0  0
    1.5345   -0.5310    0.7828 C   0  0  0  0  0  0  0  0  0  0  0  0
    1.8398   -0.7559   -0.6951 C   0  0  0  0  0  0  0  0  0  0  0  0
    1.0787   -0.0093   -1.5327 O   0  0  0  0  0  0  0  0  0  0  0  0
   -0.2228    0.2064   -1.1354 C   0  0  0  0  0  0  0  0  0  0  0  0
   -0.6508   -0.9968   -0.3111 C   0  0  0  0  0  0  0  0  0  0  0  0
   -1.9976   -1.1167   -0.0799 O   0  0  0  0  0  0  0  0  0  0  0  0
   -1.3326    2.0567    1.5790 H   0  0  0  0  0  0  0  0  0  0  0  0
   -1.5580    2.6153   -0.1048 H   0  0  0  0  0  0  0  0  0  0  0  0
   -2.3679    1.1196    0.4886 H   0  0  0  0  0  0  0  0  0  0  0  0
    0.6558    1.6942    0.1385 H   0  0  0  0  0  0  0  0  0  0  0  0
   -0.4297   -0.4182    1.8288 H   0  0  0  0  0  0  0  0  0  0  0  0
    1.8961   -1.3386    1.4083 H   0  0  0  0  0  0  0  0  0  0  0  0
    2.0258    0.4300    1.1168 H   0  0  0  0  0  0  0  0  0  0  0  0
    2.9259   -0.4724   -0.8092 H   0  0  0  0  0  0  0  0  0  0  0  0
    1.8204   -1.8549   -0.8880 H   0  0  0  0  0  0  0  0  0  0  0  0
   -0.9014    0.5116   -1.9250 H   0  0  0  0  0  0  0  0  0  0  0  0
   -0.1998   -1.9457   -0.6203 H   0  0  0  0  0  0  0  0  0  0  0  0
   -2.4921   -1.6069   -0.7531 H   0  0  0  0  0  0  0  0  0  0  0  0
  1  2  1  0
  2  3  1  0
  3  4  1  0
  4  5  1  0
  5  6  1  0
  6  7  1  0
  7  8  1  0
  8  9  1  0
  7  2  1  0
  8  3  1  0
  1 10  1  0
  1 11  1  0
  1 12  1  0
  2 13  1  0
  3 14  1  0
  4 15  1  0
  4 16  1  0
  5 17  1  0
  5 18  1  0
  7 19  1  0
  8 20  1  0
  9 21  1  0
M  END
