
     RDKit          3D

 21 21  0  0  0  0  0  0  0  0999 V2000
   -1.2848   -1.6470    0.1192 C   0  0  0  0  0  0  0  0  0  0  0  0
   -0.3037   -0.5839    0.4331 C   0  0  0  0  0  0  0  0  0  0  0  0
    1.1129   -1.0135    0.0475 C   0  0  0  0  0  0  0  0  0  0  0  0
    2.1034    0.0821    0.2391 C   0  0  0  0  0  0  0  0  0  0  0  0
    1.7043    1.3149   -0.2096 O   0  0  0  0  0  0  0  0  0  0  0  0
    0.4775    1.6827    0.3516 C   0  0  0  0  0  0  0  0  0  0  0  0
   -0.5553    0.7263   -0.2615 C   0  0  0  0  0  0  0  0  0  0  0  0
   -1.9277    1.2217   -0.1128 C   0  0  0  0  0  0  0  0  0  0  0  0
   -2.1762    2.3623   -0.4403 O   0  0  0  0  0  0  0  0  0  0  0  0
   -1.9084   -1.8747    1.0317 H   0  0  0  0  0  0  0  0  0  0  0  0
   -0.7187   -2.6065   -0.0604 H   0  0  0  0  0  0  0  0  0  0  0  0
   -1.9105   -1.4806   -0.7608 H   0  0  0  0  0  0  0  0  0  0  0  0
   -0.3144   -0.3633    1.5407 H   0  0  0  0  0  0  0  0  0  0  0  0
    1.4165   -1.8947    0.6143 H   0  0  0  0  0  0  0  0  0  0  0  0
    1.0605   -1.2417   -1.0452 H   0  0  0  0  0  0  0  0  0  0  0  0
    3.0211   -0.1971   -0.3576 H   0  0  0  0  0  0  0  0  0  0  0  0
    2.4272    0.0818    1.3068 H   0  0  0  0  0  0  0  0  0  0  0  0
    0.5488    1.4763    1.4473 H   0  0  0  0  0  0  0  0  0  0  0  0
    0.2191    2.7254    0.2099 H   0  0  0  0  0  0  0  0  0  0  0  0
   -0.2663    0.6141   -1.3407 H   0  0  0  0  0  0  0  0  0  0  0  0
   -2.7253    0.6154    0.2752 H   0  0  0  0  0  0  0  0  0  0  0  0
  1  2  1  0
  2  3  1  0
  3  4  1  0
  4  5  1  0
  5  6  1  0
  6  7  1  0
  7  8  1  0
  8  9  2  0
  7  2  1  0
  1 10  1  0
  1 11  1  0
  1 12  1  0
  2 13  1  0
  3 14  1  0
  3 15  1  0
  4 16  1  0
  4 17  1  0
  6 18  1  0
  6 19  1  0
  7 20  1  0
  8 21  1  0
M  END
