
     RDKit          3D

 22 22  0  0  0  0  0  0  0  0999 V2000
    1.6837   -0.8826    0.7599 C   0  0  0  0  0  0  0  0  0  0  0  0
    0.7055   -0.6941   -0.3584 C   0  0  0  0  0  0  0  0  0  0  0  0
    1.2829    0.3536   -1.2771 C   0  0  0  0  0  0  0  0  0  0  0  0
    0.7052    1.5265   -1.0497 C   0  0  0  0  0  0  0  0  0  0  0  0
   -0.3100    1.4255    0.0235 C   0  0  0  0  0  0  0  0  0  0  0  0
   -0.5827   -0.0551    0.0591 C   0  0  0  0  0  0  0  0  0  0  0  0
   -1.0036   -0.4104    1.4613 C   0  0  0  0  0  0  0  0  0  0  0  0
   -1.6600   -0.3990   -0.9104 C   0  0  0  0  0  0  0  0  0  0  0  0
    2.6329   -1.2476    0.3135 H   0  0  0  0  0  0  0  0  0  0  0  0
    1.9319    0.0890    1.2435 H   0  0  0  0  0  0  0  0  0  0  0  0
    1.3771   -1.6286    1.5040 H   0  0  0  0  0  0  0  0  0  0  0  0
    0.5657   -1.6394   -0.9030 H   0  0  0  0  0  0  0  0  0  0  0  0
    2.0546    0.2269   -2.0293 H   0  0  0  0  0  0  0  0  0  0  0  0
    0.9038    2.4848   -1.5521 H   0  0  0  0  0  0  0  0  0  0  0  0
   -1.2061    2.0182   -0.2520 H   0  0  0  0  0  0  0  0  0  0  0  0
    0.0818    1.7282    1.0166 H   0  0  0  0  0  0  0  0  0  0  0  0
   -0.2801    0.0065    2.1996 H   0  0  0  0  0  0  0  0  0  0  0  0
   -1.1945   -1.4867    1.6013 H   0  0  0  0  0  0  0  0  0  0  0  0
   -1.9702    0.1103    1.6373 H   0  0  0  0  0  0  0  0  0  0  0  0
   -1.4317   -1.4310   -1.3077 H   0  0  0  0  0  0  0  0  0  0  0  0
   -2.6615   -0.4028   -0.4234 H   0  0  0  0  0  0  0  0  0  0  0  0
   -1.6248    0.3078   -1.7566 H   0  0  0  0  0  0  0  0  0  0  0  0
  1  2  1  0
  2  3  1  0
  3  4  2  0
  4  5  1  0
  5  6  1  0
  6  7  1  0
  6  8  1  0
  6  2  1  0
  1  9  1  0
  1 10  1  0
  1 11  1  0
  2 12  1  0
  3 13  1  0
  4 14  1  0
  5 15  1  0
  5 16  1  0
  7 17  1  0
  7 18  1  0
  7 19  1  0
  8 20  1  0
  8 21  1  0
  8 22  1  0
M  END
