
     RDKit          3D

 19 20  0  0  0  0  0  0  0  0999 V2000
   -2.1189    0.4706    0.3491 C   0  0  0  0  0  0  0  0  0  0  0  0
   -0.7250   -0.0257    0.4822 C   0  0  0  0  0  0  0  0  0  0  0  0
   -0.4422   -1.2873   -0.2960 C   0  0  0  0  0  0  0  0  0  0  0  0
    0.8800   -0.8946   -0.9579 C   0  0  0  0  0  0  0  0  0  0  0  0
    0.4770    0.3793   -1.4346 O   0  0  0  0  0  0  0  0  0  0  0  0
    0.1975    0.9738   -0.1946 C   0  0  0  0  0  0  0  0  0  0  0  0
    1.5841    0.8691    0.4347 C   0  0  0  0  0  0  0  0  0  0  0  0
    1.9056   -0.5266    0.0276 C   0  0  0  0  0  0  0  0  0  0  0  0
    2.8426   -1.1378    0.4787 O   0  0  0  0  0  0  0  0  0  0  0  0
   -2.2203    1.3178   -0.3882 H   0  0  0  0  0  0  0  0  0  0  0  0
   -2.8574   -0.2843    0.0722 H   0  0  0  0  0  0  0  0  0  0  0  0
   -2.4045    0.9397    1.3359 H   0  0  0  0  0  0  0  0  0  0  0  0
   -0.4244   -0.2219    1.5305 H   0  0  0  0  0  0  0  0  0  0  0  0
   -1.1718   -1.4078   -1.1291 H   0  0  0  0  0  0  0  0  0  0  0  0
   -0.3382   -2.1790    0.3156 H   0  0  0  0  0  0  0  0  0  0  0  0
    1.1867   -1.5641   -1.7430 H   0  0  0  0  0  0  0  0  0  0  0  0
   -0.1869    1.9749   -0.2526 H   0  0  0  0  0  0  0  0  0  0  0  0
    1.5854    1.0351    1.5053 H   0  0  0  0  0  0  0  0  0  0  0  0
    2.2309    1.5688   -0.1358 H   0  0  0  0  0  0  0  0  0  0  0  0
  1  2  1  0
  2  3  1  0
  3  4  1  0
  4  5  1  0
  5  6  1  0
  6  7  1  0
  7  8  1  0
  8  9  2  0
  6  2  1  0
  8  4  1  0
  1 10  1  0
  1 11  1  0
  1 12  1  0
  2 13  1  0
  3 14  1  0
  3 15  1  0
  4 16  1  0
  6 17  1  0
  7 18  1  0
  7 19  1  0
M  END
