
     RDKit          3D

 21 22  0  0  0  0  0  0  0  0999 V2000
    2.9348    0.1227   -0.1700 C   0  0  0  0  0  0  0  0  0  0  0  0
    1.5920   -0.4492    0.1462 C   0  0  0  0  0  0  0  0  0  0  0  0
    0.6998    0.4467    0.9914 C   0  0  0  0  0  0  0  0  0  0  0  0
   -0.2077   -0.2088    1.7765 O   0  0  0  0  0  0  0  0  0  0  0  0
   -1.0096   -0.9962    0.9909 C   0  0  0  0  0  0  0  0  0  0  0  0
   -0.9473   -0.4580   -0.4058 C   0  0  0  0  0  0  0  0  0  0  0  0
   -2.0055    0.6394   -0.5840 C   0  0  0  0  0  0  0  0  0  0  0  0
   -3.2469    0.0747   -0.3443 O   0  0  0  0  0  0  0  0  0  0  0  0
    0.4071    0.2154   -0.4327 C   0  0  0  0  0  0  0  0  0  0  0  0
    3.3516    0.7184    0.6891 H   0  0  0  0  0  0  0  0  0  0  0  0
    3.6998   -0.6743   -0.3798 H   0  0  0  0  0  0  0  0  0  0  0  0
    2.9067    0.8435   -1.0252 H   0  0  0  0  0  0  0  0  0  0  0  0
    1.5270   -1.5435    0.2969 H   0  0  0  0  0  0  0  0  0  0  0  0
    1.0777    1.4486    1.2819 H   0  0  0  0  0  0  0  0  0  0  0  0
   -2.0666   -0.8961    1.3553 H   0  0  0  0  0  0  0  0  0  0  0  0
   -0.7235   -2.0720    1.0023 H   0  0  0  0  0  0  0  0  0  0  0  0
   -1.0773   -1.2244   -1.1624 H   0  0  0  0  0  0  0  0  0  0  0  0
   -1.9197    1.0865   -1.5938 H   0  0  0  0  0  0  0  0  0  0  0  0
   -1.8393    1.4519    0.1522 H   0  0  0  0  0  0  0  0  0  0  0  0
   -3.7301    0.4983    0.4059 H   0  0  0  0  0  0  0  0  0  0  0  0
    0.5770    0.9765   -1.1979 H   0  0  0  0  0  0  0  0  0  0  0  0
  1  2  1  0
  2  3  1  0
  3  4  1  0
  4  5  1  0
  5  6  1  0
  6  7  1  0
  7  8  1  0
  6  9  1  0
  9  2  1  0
  9  3  1  0
  1 10  1  0
  1 11  1  0
  1 12  1  0
  2 13  1  0
  3 14  1  0
  5 15  1  0
  5 16  1  0
  6 17  1  0
  7 18  1  0
  7 19  1  0
  8 20  1  0
  9 21  1  0
M  END
