
     RDKit          3D

 25 26  0  0  0  0  0  0  0  0999 V2000
    1.9837    1.3470   -0.1822 C   0  0  0  0  0  0  0  0  0  0  0  0
    1.3435    0.0403   -0.1074 C   0  0  0  0  0  0  0  0  0  0  0  0
    0.3455   -0.2778    0.9507 C   0  0  0  0  0  0  0  0  0  0  0  0
    0.1494   -1.7791    0.6875 C   0  0  0  0  0  0  0  0  0  0  0  0
    0.0875   -1.7208   -0.8496 C   0  0  0  0  0  0  0  0  0  0  0  0
    0.1492   -0.2316   -1.0392 C   0  0  0  0  0  0  0  0  0  0  0  0
   -0.7406    0.2827    0.0456 C   0  0  0  0  0  0  0  0  0  0  0  0
   -2.0818   -0.3631    0.2002 C   0  0  0  0  0  0  0  0  0  0  0  0
   -0.8829    1.7748    0.1536 C   0  0  0  0  0  0  0  0  0  0  0  0
    1.4985    2.0976   -0.8695 H   0  0  0  0  0  0  0  0  0  0  0  0
    3.0210    1.2504   -0.6320 H   0  0  0  0  0  0  0  0  0  0  0  0
    2.1942    1.8056    0.8244 H   0  0  0  0  0  0  0  0  0  0  0  0
    2.1079   -0.7942   -0.1439 H   0  0  0  0  0  0  0  0  0  0  0  0
    0.4329    0.0577    1.9393 H   0  0  0  0  0  0  0  0  0  0  0  0
    1.0340   -2.3127    1.0412 H   0  0  0  0  0  0  0  0  0  0  0  0
   -0.7557   -2.1712    1.1319 H   0  0  0  0  0  0  0  0  0  0  0  0
    1.0599   -2.1536   -1.2071 H   0  0  0  0  0  0  0  0  0  0  0  0
   -0.7474   -2.2342   -1.2792 H   0  0  0  0  0  0  0  0  0  0  0  0
    0.1640    0.1987   -1.9994 H   0  0  0  0  0  0  0  0  0  0  0  0
   -2.8035    0.2501   -0.4057 H   0  0  0  0  0  0  0  0  0  0  0  0
   -2.4468   -0.2526    1.2552 H   0  0  0  0  0  0  0  0  0  0  0  0
   -2.1747   -1.3925   -0.1047 H   0  0  0  0  0  0  0  0  0  0  0  0
   -1.8889    2.0647    0.5864 H   0  0  0  0  0  0  0  0  0  0  0  0
   -0.8888    2.2718   -0.8511 H   0  0  0  0  0  0  0  0  0  0  0  0
   -0.1601    2.2420    0.8549 H   0  0  0  0  0  0  0  0  0  0  0  0
  1  2  1  0
  2  3  1  0
  3  4  1  0
  4  5  1  0
  5  6  1  0
  6  7  1  0
  7  8  1  0
  7  9  1  0
  6  2  1  0
  7  3  1  0
  1 10  1  0
  1 11  1  0
  1 12  1  0
  2 13  1  0
  3 14  1  0
  4 15  1  0
  4 16  1  0
  5 17  1  0
  5 18  1  0
  6 19  1  0
  8 20  1  0
  8 21  1  0
  8 22  1  0
  9 23  1  0
  9 24  1  0
  9 25  1  0
M  END
