
     RDKit          3D

 21 22  0  0  0  0  0  0  0  0999 V2000
    1.7827   -1.0414    0.5921 C   0  0  0  0  0  0  0  0  0  0  0  0
    0.8299    0.0989    0.8501 C   0  0  0  0  0  0  0  0  0  0  0  0
    1.1049    1.2667   -0.1073 C   0  0  0  0  0  0  0  0  0  0  0  0
   -0.1085    0.8030   -0.9311 C   0  0  0  0  0  0  0  0  0  0  0  0
   -1.0567    1.8278   -1.1136 O   0  0  0  0  0  0  0  0  0  0  0  0
   -0.4671   -0.0725    0.1837 C   0  0  0  0  0  0  0  0  0  0  0  0
   -1.0333   -1.4022   -0.0361 C   0  0  0  0  0  0  0  0  0  0  0  0
   -1.7407   -1.2712    1.1819 O   0  0  0  0  0  0  0  0  0  0  0  0
   -1.7205    0.1217    0.9304 C   0  0  0  0  0  0  0  0  0  0  0  0
    2.8103   -0.7888    0.8884 H   0  0  0  0  0  0  0  0  0  0  0  0
    1.7461   -1.2515   -0.5074 H   0  0  0  0  0  0  0  0  0  0  0  0
    1.4422   -1.9604    1.0998 H   0  0  0  0  0  0  0  0  0  0  0  0
    0.8086    0.3953    1.9203 H   0  0  0  0  0  0  0  0  0  0  0  0
    0.8937    2.2049    0.4182 H   0  0  0  0  0  0  0  0  0  0  0  0
    2.0633    1.1598   -0.6166 H   0  0  0  0  0  0  0  0  0  0  0  0
    0.1773    0.3067   -1.8896 H   0  0  0  0  0  0  0  0  0  0  0  0
   -1.2452    2.1593   -0.1844 H   0  0  0  0  0  0  0  0  0  0  0  0
   -0.3313   -2.2366   -0.0760 H   0  0  0  0  0  0  0  0  0  0  0  0
   -1.7716   -1.4185   -0.8701 H   0  0  0  0  0  0  0  0  0  0  0  0
   -1.6144    0.7464    1.8245 H   0  0  0  0  0  0  0  0  0  0  0  0
   -2.5699    0.3525    0.2559 H   0  0  0  0  0  0  0  0  0  0  0  0
  1  2  1  0
  2  3  1  0
  3  4  1  0
  4  5  1  0
  4  6  1  0
  6  7  1  0
  7  8  1  0
  8  9  1  0
  6  2  1  0
  9  6  1  0
  1 10  1  0
  1 11  1  0
  1 12  1  0
  2 13  1  0
  3 14  1  0
  3 15  1  0
  4 16  1  0
  5 17  1  0
  7 18  1  0
  7 19  1  0
  9 20  1  0
  9 21  1  0
M  END
