
     RDKit          3D

 21 21  0  0  0  0  0  0  0  0999 V2000
   -1.7348    1.3609    0.0152 C   0  0  0  0  0  0  0  0  0  0  0  0
   -0.5950    0.4478    0.4919 C   0  0  0  0  0  0  0  0  0  0  0  0
   -1.1509   -0.9156    0.6439 C   0  0  0  0  0  0  0  0  0  0  0  0
   -0.7873   -1.7539   -0.4152 O   0  0  0  0  0  0  0  0  0  0  0  0
    0.5858   -1.9334   -0.3142 C   0  0  0  0  0  0  0  0  0  0  0  0
    1.2335   -0.6765   -0.8277 C   0  0  0  0  0  0  0  0  0  0  0  0
    0.5983    0.5788   -0.3673 C   0  0  0  0  0  0  0  0  0  0  0  0
    1.6601    1.4284    0.2809 C   0  0  0  0  0  0  0  0  0  0  0  0
    1.7665    1.5664    1.4686 O   0  0  0  0  0  0  0  0  0  0  0  0
   -1.7582    2.3066    0.5636 H   0  0  0  0  0  0  0  0  0  0  0  0
   -2.7146    0.8441    0.0835 H   0  0  0  0  0  0  0  0  0  0  0  0
   -1.5640    1.5164   -1.0847 H   0  0  0  0  0  0  0  0  0  0  0  0
   -0.3443    0.8327    1.5238 H   0  0  0  0  0  0  0  0  0  0  0  0
   -2.2750   -0.9134    0.6521 H   0  0  0  0  0  0  0  0  0  0  0  0
   -0.8538   -1.3942    1.5979 H   0  0  0  0  0  0  0  0  0  0  0  0
    0.8195   -2.1203    0.7610 H   0  0  0  0  0  0  0  0  0  0  0  0
    0.8789   -2.7711   -0.9561 H   0  0  0  0  0  0  0  0  0  0  0  0
    1.2430   -0.7707   -1.9539 H   0  0  0  0  0  0  0  0  0  0  0  0
    2.3157   -0.7494   -0.5100 H   0  0  0  0  0  0  0  0  0  0  0  0
    0.2985    1.1644   -1.2861 H   0  0  0  0  0  0  0  0  0  0  0  0
    2.3781    1.9518   -0.3674 H   0  0  0  0  0  0  0  0  0  0  0  0
  1  2  1  0
  2  3  1  0
  3  4  1  0
  4  5  1  0
  5  6  1  0
  6  7  1  0
  7  8  1  0
  8  9  2  0
  7  2  1  0
  1 10  1  0
  1 11  1  0
  1 12  1  0
  2 13  1  0
  3 14  1  0
  3 15  1  0
  5 16  1  0
  5 17  1  0
  6 18  1  0
  6 19  1  0
  7 20  1  0
  8 21  1  0
M  END
