
     RDKit          3D

 21 22  0  0  0  0  0  0  0  0999 V2000
    2.1910    0.6973    0.5233 C   0  0  0  0  0  0  0  0  0  0  0  0
    1.5957   -0.2207   -0.5467 C   0  0  0  0  0  0  0  0  0  0  0  0
    0.9295   -1.3407    0.1622 C   0  0  0  0  0  0  0  0  0  0  0  0
   -0.3156   -0.9907    0.4306 C   0  0  0  0  0  0  0  0  0  0  0  0
   -1.7294   -0.9253    0.8789 C   0  0  0  0  0  0  0  0  0  0  0  0
   -1.9464   -0.0606   -0.3802 C   0  0  0  0  0  0  0  0  0  0  0  0
   -2.9610    0.8460   -0.1062 O   0  0  0  0  0  0  0  0  0  0  0  0
   -0.5672    0.4091   -0.1011 C   0  0  0  0  0  0  0  0  0  0  0  0
    0.4254    0.4492   -1.2367 C   0  0  0  0  0  0  0  0  0  0  0  0
    1.4933    1.4664    0.8509 H   0  0  0  0  0  0  0  0  0  0  0  0
    3.0896    1.2272    0.1235 H   0  0  0  0  0  0  0  0  0  0  0  0
    2.4550    0.0578    1.3884 H   0  0  0  0  0  0  0  0  0  0  0  0
    2.3656   -0.5565   -1.2610 H   0  0  0  0  0  0  0  0  0  0  0  0
    1.3796   -2.3191    0.4335 H   0  0  0  0  0  0  0  0  0  0  0  0
   -2.2889   -1.8582    0.8880 H   0  0  0  0  0  0  0  0  0  0  0  0
   -1.7995   -0.2910    1.7897 H   0  0  0  0  0  0  0  0  0  0  0  0
   -2.0899   -0.6927   -1.2769 H   0  0  0  0  0  0  0  0  0  0  0  0
   -2.5256    1.6036    0.3892 H   0  0  0  0  0  0  0  0  0  0  0  0
   -0.5156    1.1981    0.6416 H   0  0  0  0  0  0  0  0  0  0  0  0
    0.1026   -0.1772   -2.0657 H   0  0  0  0  0  0  0  0  0  0  0  0
    0.7120    1.4778   -1.5252 H   0  0  0  0  0  0  0  0  0  0  0  0
  1  2  1  0
  2  3  1  0
  3  4  2  0
  4  5  1  0
  5  6  1  0
  6  7  1  0
  6  8  1  0
  8  9  1  0
  9  2  1  0
  8  4  1  0
  1 10  1  0
  1 11  1  0
  1 12  1  0
  2 13  1  0
  3 14  1  0
  5 15  1  0
  5 16  1  0
  6 17  1  0
  7 18  1  0
  8 19  1  0
  9 20  1  0
  9 21  1  0
M  END
