
     RDKit          3D

 16 17  0  0  0  0  0  0  0  0999 V2000
   -2.2510   -0.0160    0.0782 C   0  0  0  0  0  0  0  0  0  0  0  0
   -0.9047   -0.0605   -0.6079 C   0  0  0  0  0  0  0  0  0  0  0  0
    0.2281    0.5106    0.1925 C   0  0  0  0  0  0  0  0  0  0  0  0
    1.4751    0.8795   -0.5531 C   0  0  0  0  0  0  0  0  0  0  0  0
    2.2232   -0.4249   -0.5693 C   0  0  0  0  0  0  0  0  0  0  0  0
    3.4545   -0.5209   -0.4426 O   0  0  0  0  0  0  0  0  0  0  0  0
    1.2390   -1.3875   -0.7484 O   0  0  0  0  0  0  0  0  0  0  0  0
    0.0822   -1.0073   -0.0655 C   0  0  0  0  0  0  0  0  0  0  0  0
   -2.4580   -1.0022    0.5681 H   0  0  0  0  0  0  0  0  0  0  0  0
   -3.0829    0.1876   -0.6196 H   0  0  0  0  0  0  0  0  0  0  0  0
   -2.2361    0.7635    0.8704 H   0  0  0  0  0  0  0  0  0  0  0  0
   -0.9048    0.1498   -1.6979 H   0  0  0  0  0  0  0  0  0  0  0  0
    0.0968    0.8043    1.2430 H   0  0  0  0  0  0  0  0  0  0  0  0
    2.0547    1.6870   -0.1129 H   0  0  0  0  0  0  0  0  0  0  0  0
    1.1788    1.0658   -1.6218 H   0  0  0  0  0  0  0  0  0  0  0  0
   -0.1951   -1.6288    0.8036 H   0  0  0  0  0  0  0  0  0  0  0  0
  1  2  1  0
  2  3  1  0
  3  4  1  0
  4  5  1  0
  5  6  2  0
  5  7  1  0
  7  8  1  0
  8  2  1  0
  8  3  1  0
  1  9  1  0
  1 10  1  0
  1 11  1  0
  2 12  1  0
  3 13  1  0
  4 14  1  0
  4 15  1  0
  8 16  1  0
M  END
