
     RDKit          3D

 20 22  0  0  0  0  0  0  0  0999 V2000
    2.4094    0.1924   -0.4844 C   0  0  0  0  0  0  0  0  0  0  0  0
    1.2942    0.2606    0.5018 C   0  0  0  0  0  0  0  0  0  0  0  0
    0.2511   -0.8087    0.4328 C   0  0  0  0  0  0  0  0  0  0  0  0
   -0.2111   -0.1474   -0.8445 C   0  0  0  0  0  0  0  0  0  0  0  0
   -1.7035   -0.3528   -0.8943 C   0  0  0  0  0  0  0  0  0  0  0  0
   -2.0214   -0.1542    0.5980 C   0  0  0  0  0  0  0  0  0  0  0  0
   -0.6590    0.1729    1.1069 C   0  0  0  0  0  0  0  0  0  0  0  0
    0.0522    0.9950    0.0637 C   0  0  0  0  0  0  0  0  0  0  0  0
    2.5508    1.1589   -1.0245 H   0  0  0  0  0  0  0  0  0  0  0  0
    2.3194   -0.6593   -1.1921 H   0  0  0  0  0  0  0  0  0  0  0  0
    3.3549   -0.0026    0.1013 H   0  0  0  0  0  0  0  0  0  0  0  0
    1.5642    0.5041    1.5386 H   0  0  0  0  0  0  0  0  0  0  0  0
    0.3438   -1.7872    0.6039 H   0  0  0  0  0  0  0  0  0  0  0  0
    0.3659   -0.2901   -1.7351 H   0  0  0  0  0  0  0  0  0  0  0  0
   -2.2384    0.4235   -1.4623 H   0  0  0  0  0  0  0  0  0  0  0  0
   -2.0069   -1.3652   -1.1667 H   0  0  0  0  0  0  0  0  0  0  0  0
   -2.7847    0.5985    0.7619 H   0  0  0  0  0  0  0  0  0  0  0  0
   -2.3301   -1.1226    1.0515 H   0  0  0  0  0  0  0  0  0  0  0  0
   -0.5094    0.4071    2.1402 H   0  0  0  0  0  0  0  0  0  0  0  0
   -0.0414    1.9771   -0.0966 H   0  0  0  0  0  0  0  0  0  0  0  0
  1  2  1  0
  2  3  1  0
  3  4  1  0
  4  5  1  0
  5  6  1  0
  6  7  1  0
  7  8  1  0
  8  2  1  0
  7  3  1  0
  8  4  1  0
  1  9  1  0
  1 10  1  0
  1 11  1  0
  2 12  1  0
  3 13  1  0
  4 14  1  0
  5 15  1  0
  5 16  1  0
  6 17  1  0
  6 18  1  0
  7 19  1  0
  8 20  1  0
M  END
