
     RDKit          3D

 23 24  0  0  0  0  0  0  0  0999 V2000
   -1.0036    1.7689    0.8318 C   0  0  0  0  0  0  0  0  0  0  0  0
   -0.5565    0.3274    0.7951 C   0  0  0  0  0  0  0  0  0  0  0  0
   -1.3926   -0.3410   -0.3196 C   0  0  0  0  0  0  0  0  0  0  0  0
   -0.3686   -1.2073   -1.0814 C   0  0  0  0  0  0  0  0  0  0  0  0
    0.6003   -1.4187    0.0157 C   0  0  0  0  0  0  0  0  0  0  0  0
   -0.1053   -2.0750    1.0656 O   0  0  0  0  0  0  0  0  0  0  0  0
    1.8037   -0.8109    0.4054 C   0  0  0  0  0  0  0  0  0  0  0  0
    0.7932    0.1449    0.2178 C   0  0  0  0  0  0  0  0  0  0  0  0
    0.9228    0.9599   -1.0826 C   0  0  0  0  0  0  0  0  0  0  0  0
   -1.6103    1.9706    1.7377 H   0  0  0  0  0  0  0  0  0  0  0  0
   -1.6203    2.0556   -0.0354 H   0  0  0  0  0  0  0  0  0  0  0  0
   -0.1033    2.4277    0.8029 H   0  0  0  0  0  0  0  0  0  0  0  0
   -0.7318   -0.1531    1.7569 H   0  0  0  0  0  0  0  0  0  0  0  0
   -2.1188   -1.0173    0.1621 H   0  0  0  0  0  0  0  0  0  0  0  0
   -1.8524    0.3994   -0.9745 H   0  0  0  0  0  0  0  0  0  0  0  0
   -0.0162   -0.7443   -1.9830 H   0  0  0  0  0  0  0  0  0  0  0  0
   -0.8588   -2.1701   -1.3365 H   0  0  0  0  0  0  0  0  0  0  0  0
    0.2850   -1.9122    1.9363 H   0  0  0  0  0  0  0  0  0  0  0  0
    2.6797   -0.8610   -0.2894 H   0  0  0  0  0  0  0  0  0  0  0  0
    2.1937   -0.9594    1.4565 H   0  0  0  0  0  0  0  0  0  0  0  0
    1.6330    0.4752   -1.7969 H   0  0  0  0  0  0  0  0  0  0  0  0
    1.4483    1.8975   -0.7593 H   0  0  0  0  0  0  0  0  0  0  0  0
   -0.0212    1.2431   -1.5251 H   0  0  0  0  0  0  0  0  0  0  0  0
  1  2  1  0
  2  3  1  0
  3  4  1  0
  4  5  1  0
  5  6  1  0
  5  7  1  0
  7  8  1  0
  8  9  1  0
  8  2  1  0
  8  5  1  0
  1 10  1  0
  1 11  1  0
  1 12  1  0
  2 13  1  0
  3 14  1  0
  3 15  1  0
  4 16  1  0
  4 17  1  0
  6 18  1  0
  7 19  1  0
  7 20  1  0
  9 21  1  0
  9 22  1  0
  9 23  1  0
M  END
