
     RDKit          3D

 19 19  0  0  0  0  0  0  0  0999 V2000
   -2.1539    1.1991    0.4054 C   0  0  0  0  0  0  0  0  0  0  0  0
   -1.0913    0.4878   -0.3977 C   0  0  0  0  0  0  0  0  0  0  0  0
    0.2620    0.7177    0.1080 C   0  0  0  0  0  0  0  0  0  0  0  0
    0.9721   -0.3696    0.0227 C   0  0  0  0  0  0  0  0  0  0  0  0
    2.3986   -0.5992    0.4187 C   0  0  0  0  0  0  0  0  0  0  0  0
    2.9532    0.5796    0.9407 O   0  0  0  0  0  0  0  0  0  0  0  0
    0.1699   -1.4277   -0.5436 C   0  0  0  0  0  0  0  0  0  0  0  0
    0.4965   -2.5352   -1.0398 O   0  0  0  0  0  0  0  0  0  0  0  0
   -1.2600   -0.9841   -0.4524 C   0  0  0  0  0  0  0  0  0  0  0  0
   -3.1066    1.1090   -0.1694 H   0  0  0  0  0  0  0  0  0  0  0  0
   -1.8927    2.2824    0.3982 H   0  0  0  0  0  0  0  0  0  0  0  0
   -2.2675    0.7931    1.4294 H   0  0  0  0  0  0  0  0  0  0  0  0
   -1.1588    0.8931   -1.4375 H   0  0  0  0  0  0  0  0  0  0  0  0
    0.6619    1.6702    0.5143 H   0  0  0  0  0  0  0  0  0  0  0  0
    3.0286   -0.8501   -0.4692 H   0  0  0  0  0  0  0  0  0  0  0  0
    2.4924   -1.4420    1.1133 H   0  0  0  0  0  0  0  0  0  0  0  0
    2.9829    1.2202    0.1626 H   0  0  0  0  0  0  0  0  0  0  0  0
   -1.7530   -1.2974   -1.4192 H   0  0  0  0  0  0  0  0  0  0  0  0
   -1.7341   -1.4471    0.4153 H   0  0  0  0  0  0  0  0  0  0  0  0
  1  2  1  0
  2  3  1  0
  3  4  2  0
  4  5  1  0
  5  6  1  0
  4  7  1  0
  7  8  2  0
  7  9  1  0
  9  2  1  0
  1 10  1  0
  1 11  1  0
  1 12  1  0
  2 13  1  0
  3 14  1  0
  5 15  1  0
  5 16  1  0
  6 17  1  0
  9 18  1  0
  9 19  1  0
M  END
