
     RDKit          3D

 23 24  0  0  0  0  0  0  0  0999 V2000
    2.1827   -0.2117    0.3983 C   0  0  0  0  0  0  0  0  0  0  0  0
    1.2584    0.1074   -0.7405 C   0  0  0  0  0  0  0  0  0  0  0  0
    0.6671   -1.2325   -1.1983 C   0  0  0  0  0  0  0  0  0  0  0  0
   -0.0577   -1.5621   -0.0286 O   0  0  0  0  0  0  0  0  0  0  0  0
   -0.8530   -0.4333    0.1123 C   0  0  0  0  0  0  0  0  0  0  0  0
   -2.0650   -0.3960    0.9180 C   0  0  0  0  0  0  0  0  0  0  0  0
   -2.2332   -0.5735   -0.5518 C   0  0  0  0  0  0  0  0  0  0  0  0
   -0.0256    0.7634   -0.2156 C   0  0  0  0  0  0  0  0  0  0  0  0
    0.2319    1.6818    0.9278 C   0  0  0  0  0  0  0  0  0  0  0  0
    2.8252    0.6060    0.7141 H   0  0  0  0  0  0  0  0  0  0  0  0
    1.5315   -0.6153    1.2289 H   0  0  0  0  0  0  0  0  0  0  0  0
    2.8002   -1.0966    0.0646 H   0  0  0  0  0  0  0  0  0  0  0  0
    1.7090    0.6655   -1.5572 H   0  0  0  0  0  0  0  0  0  0  0  0
    1.4299   -1.9657   -1.4415 H   0  0  0  0  0  0  0  0  0  0  0  0
   -0.0951   -1.0661   -1.9849 H   0  0  0  0  0  0  0  0  0  0  0  0
   -2.3455    0.5879    1.3603 H   0  0  0  0  0  0  0  0  0  0  0  0
   -2.3081   -1.2611    1.5479 H   0  0  0  0  0  0  0  0  0  0  0  0
   -2.5044   -1.5588   -0.9757 H   0  0  0  0  0  0  0  0  0  0  0  0
   -2.5304    0.2679   -1.2077 H   0  0  0  0  0  0  0  0  0  0  0  0
   -0.4875    1.3686   -1.0503 H   0  0  0  0  0  0  0  0  0  0  0  0
   -0.1527    1.3075    1.9029 H   0  0  0  0  0  0  0  0  0  0  0  0
   -0.2891    2.6728    0.7807 H   0  0  0  0  0  0  0  0  0  0  0  0
    1.3116    1.9440    0.9964 H   0  0  0  0  0  0  0  0  0  0  0  0
  1  2  1  0
  2  3  1  0
  3  4  1  0
  4  5  1  0
  5  6  1  0
  6  7  1  0
  5  8  1  0
  8  9  1  0
  8  2  1  0
  7  5  1  0
  1 10  1  0
  1 11  1  0
  1 12  1  0
  2 13  1  0
  3 14  1  0
  3 15  1  0
  6 16  1  0
  6 17  1  0
  7 18  1  0
  7 19  1  0
  8 20  1  0
  9 21  1  0
  9 22  1  0
  9 23  1  0
M  END
