
     RDKit          3D

 18 19  0  0  0  0  0  0  0  0999 V2000
    1.8442   -0.6902    0.1171 C   0  0  0  0  0  0  0  0  0  0  0  0
    0.6531    0.0144   -0.3952 C   0  0  0  0  0  0  0  0  0  0  0  0
    0.5387    1.4572    0.0028 C   0  0  0  0  0  0  0  0  0  0  0  0
   -0.7494    1.7265   -0.5165 O   0  0  0  0  0  0  0  0  0  0  0  0
   -1.5569    0.7227   -0.0527 C   0  0  0  0  0  0  0  0  0  0  0  0
   -1.8042   -0.5318   -0.7738 C   0  0  0  0  0  0  0  0  0  0  0  0
   -0.6599   -0.5082    0.1462 C   0  0  0  0  0  0  0  0  0  0  0  0
   -0.7164   -1.0228    1.4308 O   0  0  0  0  0  0  0  0  0  0  0  0
    2.7104   -0.4561   -0.5360 H   0  0  0  0  0  0  0  0  0  0  0  0
    2.0762   -0.4978    1.1813 H   0  0  0  0  0  0  0  0  0  0  0  0
    1.6755   -1.7885    0.0064 H   0  0  0  0  0  0  0  0  0  0  0  0
    0.6406   -0.0337   -1.4944 H   0  0  0  0  0  0  0  0  0  0  0  0
    0.4049    1.5842    1.1103 H   0  0  0  0  0  0  0  0  0  0  0  0
    1.2876    2.1156   -0.4226 H   0  0  0  0  0  0  0  0  0  0  0  0
   -2.2529    0.9949    0.7532 H   0  0  0  0  0  0  0  0  0  0  0  0
   -1.5310   -0.6674   -1.8532 H   0  0  0  0  0  0  0  0  0  0  0  0
   -2.6999   -1.1097   -0.4955 H   0  0  0  0  0  0  0  0  0  0  0  0
    0.1393   -1.3093    1.7917 H   0  0  0  0  0  0  0  0  0  0  0  0
  1  2  1  0
  2  3  1  0
  3  4  1  0
  4  5  1  0
  5  6  1  0
  6  7  1  0
  7  8  1  0
  7  2  1  0
  7  5  1  0
  1  9  1  0
  1 10  1  0
  1 11  1  0
  2 12  1  0
  3 13  1  0
  3 14  1  0
  5 15  1  0
  6 16  1  0
  6 17  1  0
  8 18  1  0
M  END
