
     RDKit          3D

 19 20  0  0  0  0  0  0  0  0999 V2000
   -1.8518    0.9890   -0.8043 C   0  0  0  0  0  0  0  0  0  0  0  0
   -0.9732    0.6245    0.3858 C   0  0  0  0  0  0  0  0  0  0  0  0
   -1.2088   -0.8132    0.6986 C   0  0  0  0  0  0  0  0  0  0  0  0
    0.0860   -1.5497    0.5391 C   0  0  0  0  0  0  0  0  0  0  0  0
    1.0535   -0.5080    0.1287 C   0  0  0  0  0  0  0  0  0  0  0  0
    2.3878   -0.3432   -0.2061 C   0  0  0  0  0  0  0  0  0  0  0  0
    2.5495    0.9967   -0.4866 C   0  0  0  0  0  0  0  0  0  0  0  0
    1.3867    1.5830   -0.3275 O   0  0  0  0  0  0  0  0  0  0  0  0
    0.4678    0.7247    0.0385 C   0  0  0  0  0  0  0  0  0  0  0  0
   -1.4422    0.4658   -1.6975 H   0  0  0  0  0  0  0  0  0  0  0  0
   -1.9246    2.0795   -0.9543 H   0  0  0  0  0  0  0  0  0  0  0  0
   -2.8573    0.5761   -0.5780 H   0  0  0  0  0  0  0  0  0  0  0  0
   -1.1624    1.2984    1.2451 H   0  0  0  0  0  0  0  0  0  0  0  0
   -1.5868   -0.8922    1.7592 H   0  0  0  0  0  0  0  0  0  0  0  0
   -2.0169   -1.2687    0.0584 H   0  0  0  0  0  0  0  0  0  0  0  0
    0.3957   -2.0133    1.5122 H   0  0  0  0  0  0  0  0  0  0  0  0
    0.0363   -2.2972   -0.2805 H   0  0  0  0  0  0  0  0  0  0  0  0
    3.1716   -1.1005   -0.2475 H   0  0  0  0  0  0  0  0  0  0  0  0
    3.4892    1.4482   -0.7833 H   0  0  0  0  0  0  0  0  0  0  0  0
  1  2  1  0
  2  3  1  0
  3  4  1  0
  4  5  1  0
  5  6  1  0
  6  7  2  0
  7  8  1  0
  8  9  1  0
  9  2  1  0
  9  5  2  0
  1 10  1  0
  1 11  1  0
  1 12  1  0
  2 13  1  0
  3 14  1  0
  3 15  1  0
  4 16  1  0
  4 17  1  0
  6 18  1  0
  7 19  1  0
M  END
