
     RDKit          3D

 21 21  0  0  0  0  0  0  0  0999 V2000
   -0.8050   -1.7811    0.2070 C   0  0  0  0  0  0  0  0  0  0  0  0
   -0.7177   -0.4483   -0.4425 C   0  0  0  0  0  0  0  0  0  0  0  0
   -1.0103    0.6982    0.5250 C   0  0  0  0  0  0  0  0  0  0  0  0
   -2.3396    0.7600    0.8289 O   0  0  0  0  0  0  0  0  0  0  0  0
   -0.5295    1.8257   -0.3276 C   0  0  0  0  0  0  0  0  0  0  0  0
    0.4144    1.4129   -1.1583 C   0  0  0  0  0  0  0  0  0  0  0  0
    0.6274   -0.0342   -0.9091 C   0  0  0  0  0  0  0  0  0  0  0  0
    1.6967   -0.1131    0.1581 C   0  0  0  0  0  0  0  0  0  0  0  0
    1.8624   -1.3886    0.6601 O   0  0  0  0  0  0  0  0  0  0  0  0
   -0.3991   -2.5410   -0.4532 H   0  0  0  0  0  0  0  0  0  0  0  0
   -0.3757   -1.7820    1.2255 H   0  0  0  0  0  0  0  0  0  0  0  0
   -1.8953   -2.0126    0.3370 H   0  0  0  0  0  0  0  0  0  0  0  0
   -1.4208   -0.3771   -1.2856 H   0  0  0  0  0  0  0  0  0  0  0  0
   -0.4171    0.5291    1.4178 H   0  0  0  0  0  0  0  0  0  0  0  0
   -2.5400    1.5326    1.3799 H   0  0  0  0  0  0  0  0  0  0  0  0
   -0.8927    2.8315   -0.2799 H   0  0  0  0  0  0  0  0  0  0  0  0
    0.9574    2.0175   -1.9078 H   0  0  0  0  0  0  0  0  0  0  0  0
    0.9561   -0.5715   -1.8217 H   0  0  0  0  0  0  0  0  0  0  0  0
    2.6628    0.1504   -0.3629 H   0  0  0  0  0  0  0  0  0  0  0  0
    1.5564    0.6637    0.9212 H   0  0  0  0  0  0  0  0  0  0  0  0
    2.6091   -1.3722    1.2882 H   0  0  0  0  0  0  0  0  0  0  0  0
  1  2  1  0
  2  3  1  0
  3  4  1  0
  3  5  1  0
  5  6  2  0
  6  7  1  0
  7  8  1  0
  8  9  1  0
  7  2  1  0
  1 10  1  0
  1 11  1  0
  1 12  1  0
  2 13  1  0
  3 14  1  0
  4 15  1  0
  5 16  1  0
  6 17  1  0
  7 18  1  0
  8 19  1  0
  8 20  1  0
  9 21  1  0
M  END
