
     RDKit          3D

 21 21  0  0  0  0  0  0  0  0999 V2000
    2.0159   -0.3174   -0.4298 C   0  0  0  0  0  0  0  0  0  0  0  0
    0.9485   -0.0812    0.6173 C   0  0  0  0  0  0  0  0  0  0  0  0
   -0.0294    0.9917    0.5082 C   0  0  0  0  0  0  0  0  0  0  0  0
   -0.1842    1.8680   -0.7004 C   0  0  0  0  0  0  0  0  0  0  0  0
   -0.4641   -0.4286    0.3269 C   0  0  0  0  0  0  0  0  0  0  0  0
   -0.7652   -0.9923   -1.0081 C   0  0  0  0  0  0  0  0  0  0  0  0
   -1.3683   -0.9331    1.4451 C   0  0  0  0  0  0  0  0  0  0  0  0
    1.7852    0.1538   -1.3809 H   0  0  0  0  0  0  0  0  0  0  0  0
    2.9591    0.1327   -0.0163 H   0  0  0  0  0  0  0  0  0  0  0  0
    2.2190   -1.3825   -0.6066 H   0  0  0  0  0  0  0  0  0  0  0  0
    1.3003   -0.3640    1.6416 H   0  0  0  0  0  0  0  0  0  0  0  0
   -0.2970    1.5306    1.4602 H   0  0  0  0  0  0  0  0  0  0  0  0
    0.2765    2.8565   -0.4821 H   0  0  0  0  0  0  0  0  0  0  0  0
   -1.2887    2.0874   -0.7962 H   0  0  0  0  0  0  0  0  0  0  0  0
    0.2578    1.4849   -1.6125 H   0  0  0  0  0  0  0  0  0  0  0  0
   -0.6624   -0.3190   -1.8568 H   0  0  0  0  0  0  0  0  0  0  0  0
   -0.0557   -1.8473   -1.1893 H   0  0  0  0  0  0  0  0  0  0  0  0
   -1.7895   -1.4531   -1.0452 H   0  0  0  0  0  0  0  0  0  0  0  0
   -1.7745   -1.9324    1.2348 H   0  0  0  0  0  0  0  0  0  0  0  0
   -0.8544   -0.8498    2.4187 H   0  0  0  0  0  0  0  0  0  0  0  0
   -2.2290   -0.2050    1.4711 H   0  0  0  0  0  0  0  0  0  0  0  0
  1  2  1  0
  2  3  1  0
  3  4  1  0
  3  5  1  0
  5  6  1  0
  5  7  1  0
  5  2  1  0
  1  8  1  0
  1  9  1  0
  1 10  1  0
  2 11  1  0
  3 12  1  0
  4 13  1  0
  4 14  1  0
  4 15  1  0
  6 16  1  0
  6 17  1  0
  6 18  1  0
  7 19  1  0
  7 20  1  0
  7 21  1  0
M  END
