
     RDKit          3D

 17 18  0  0  0  0  0  0  0  0999 V2000
    1.9424   -0.4126    0.0359 C   0  0  0  0  0  0  0  0  0  0  0  0
    0.5463   -0.7860   -0.3315 C   0  0  0  0  0  0  0  0  0  0  0  0
   -0.5929   -0.6366    0.5943 C   0  0  0  0  0  0  0  0  0  0  0  0
   -1.9545   -0.9542   -0.0020 C   0  0  0  0  0  0  0  0  0  0  0  0
   -1.7190    0.0863   -0.9194 O   0  0  0  0  0  0  0  0  0  0  0  0
   -0.4178    0.3408   -0.5046 C   0  0  0  0  0  0  0  0  0  0  0  0
   -0.0415    1.7386   -0.0749 C   0  0  0  0  0  0  0  0  0  0  0  0
    2.2865   -0.9146    0.9678 H   0  0  0  0  0  0  0  0  0  0  0  0
    2.1263    0.6881    0.0551 H   0  0  0  0  0  0  0  0  0  0  0  0
    2.6339   -0.7973   -0.7660 H   0  0  0  0  0  0  0  0  0  0  0  0
    0.4394   -1.6480   -1.0531 H   0  0  0  0  0  0  0  0  0  0  0  0
   -0.5081   -0.2982    1.6250 H   0  0  0  0  0  0  0  0  0  0  0  0
   -2.8119   -0.7526    0.6394 H   0  0  0  0  0  0  0  0  0  0  0  0
   -1.9375   -1.9443   -0.5006 H   0  0  0  0  0  0  0  0  0  0  0  0
    0.5745    1.7329    0.8709 H   0  0  0  0  0  0  0  0  0  0  0  0
   -1.0043    2.2365    0.2424 H   0  0  0  0  0  0  0  0  0  0  0  0
    0.4382    2.3213   -0.8788 H   0  0  0  0  0  0  0  0  0  0  0  0
  1  2  1  0
  2  3  1  0
  3  4  1  0
  4  5  1  0
  5  6  1  0
  6  7  1  0
  6  2  1  0
  6  3  1  0
  1  8  1  0
  1  9  1  0
  1 10  1  0
  2 11  1  0
  3 12  1  0
  4 13  1  0
  4 14  1  0
  7 15  1  0
  7 16  1  0
  7 17  1  0
M  END
