
     RDKit          3D

 18 20  0  0  0  0  0  0  0  0999 V2000
    2.1869   -0.2708   -0.4930 C   0  0  0  0  0  0  0  0  0  0  0  0
    1.3274   -0.2702    0.7470 C   0  0  0  0  0  0  0  0  0  0  0  0
    0.3024    0.7789    0.9715 C   0  0  0  0  0  0  0  0  0  0  0  0
   -0.4816    1.2134   -0.2549 C   0  0  0  0  0  0  0  0  0  0  0  0
   -1.0498   -0.1733   -0.3087 C   0  0  0  0  0  0  0  0  0  0  0  0
   -2.3718   -0.5480   -0.5636 C   0  0  0  0  0  0  0  0  0  0  0  0
   -1.3403   -0.7885   -1.4856 O   0  0  0  0  0  0  0  0  0  0  0  0
   -0.0890   -0.7090    0.6855 C   0  0  0  0  0  0  0  0  0  0  0  0
    1.6450   -0.7668   -1.3360 H   0  0  0  0  0  0  0  0  0  0  0  0
    3.1208   -0.8532   -0.3229 H   0  0  0  0  0  0  0  0  0  0  0  0
    2.4671    0.7673   -0.8159 H   0  0  0  0  0  0  0  0  0  0  0  0
    1.8753   -0.5754    1.6762 H   0  0  0  0  0  0  0  0  0  0  0  0
    0.0591    1.1690    1.9536 H   0  0  0  0  0  0  0  0  0  0  0  0
    0.1776    1.5083   -1.0973 H   0  0  0  0  0  0  0  0  0  0  0  0
   -1.2935    1.9387   -0.0144 H   0  0  0  0  0  0  0  0  0  0  0  0
   -2.8512   -1.4348   -0.0882 H   0  0  0  0  0  0  0  0  0  0  0  0
   -3.1361    0.2294   -0.8269 H   0  0  0  0  0  0  0  0  0  0  0  0
   -0.5482   -1.2149    1.5738 H   0  0  0  0  0  0  0  0  0  0  0  0
  1  2  1  0
  2  3  1  0
  3  4  1  0
  4  5  1  0
  5  6  1  0
  6  7  1  0
  5  8  1  0
  8  2  1  0
  8  3  1  0
  7  5  1  0
  1  9  1  0
  1 10  1  0
  1 11  1  0
  2 12  1  0
  3 13  1  0
  4 14  1  0
  4 15  1  0
  6 16  1  0
  6 17  1  0
  8 18  1  0
M  END
