
     RDKit          3D

 18 19  0  0  0  0  0  0  0  0999 V2000
    1.6435   -0.7190   -0.6297 C   0  0  0  0  0  0  0  0  0  0  0  0
    1.2250   -0.1655    0.6786 C   0  0  0  0  0  0  0  0  0  0  0  0
   -0.0822   -0.6521    1.2165 C   0  0  0  0  0  0  0  0  0  0  0  0
   -0.3959   -1.4947    1.9917 O   0  0  0  0  0  0  0  0  0  0  0  0
   -0.8711    0.3258    0.4106 C   0  0  0  0  0  0  0  0  0  0  0  0
   -1.7787   -0.3896   -0.4030 C   0  0  0  0  0  0  0  0  0  0  0  0
   -0.3972    1.5005   -0.3756 C   0  0  0  0  0  0  0  0  0  0  0  0
    0.3379    1.0555    0.6631 C   0  0  0  0  0  0  0  0  0  0  0  0
    0.9869   -1.5264   -1.0265 H   0  0  0  0  0  0  0  0  0  0  0  0
    2.6541   -1.2066   -0.5154 H   0  0  0  0  0  0  0  0  0  0  0  0
    1.7752    0.0310   -1.4294 H   0  0  0  0  0  0  0  0  0  0  0  0
    2.0432   -0.1376    1.4357 H   0  0  0  0  0  0  0  0  0  0  0  0
   -2.3932   -1.1036    0.2291 H   0  0  0  0  0  0  0  0  0  0  0  0
   -1.3648   -1.0718   -1.2054 H   0  0  0  0  0  0  0  0  0  0  0  0
   -2.5837    0.1707   -0.9627 H   0  0  0  0  0  0  0  0  0  0  0  0
   -0.0810    1.3963   -1.4530 H   0  0  0  0  0  0  0  0  0  0  0  0
   -1.0899    2.3903   -0.2826 H   0  0  0  0  0  0  0  0  0  0  0  0
    0.3718    1.5968    1.6580 H   0  0  0  0  0  0  0  0  0  0  0  0
  1  2  1  0
  2  3  1  0
  3  4  2  0
  3  5  1  0
  5  6  1  0
  5  7  1  0
  7  8  1  0
  8  2  1  0
  8  5  1  0
  1  9  1  0
  1 10  1  0
  1 11  1  0
  2 12  1  0
  6 13  1  0
  6 14  1  0
  6 15  1  0
  7 16  1  0
  7 17  1  0
  8 18  1  0
M  END
