
     RDKit          3D

 18 19  0  0  0  0  0  0  0  0999 V2000
    2.0737   -0.3800    0.0629 C   0  0  0  0  0  0  0  0  0  0  0  0
    0.6722   -0.0027    0.4110 C   0  0  0  0  0  0  0  0  0  0  0  0
    0.2983    1.3913   -0.0126 C   0  0  0  0  0  0  0  0  0  0  0  0
   -1.1679    1.3361    0.0800 C   0  0  0  0  0  0  0  0  0  0  0  0
   -1.8883    2.1723    0.5232 O   0  0  0  0  0  0  0  0  0  0  0  0
   -1.5869    0.0441   -0.4817 C   0  0  0  0  0  0  0  0  0  0  0  0
   -1.5690   -1.2162    0.3036 C   0  0  0  0  0  0  0  0  0  0  0  0
   -0.3065   -0.8390   -0.3849 C   0  0  0  0  0  0  0  0  0  0  0  0
    2.2935   -1.3558    0.5333 H   0  0  0  0  0  0  0  0  0  0  0  0
    2.7845    0.3741    0.4493 H   0  0  0  0  0  0  0  0  0  0  0  0
    2.2413   -0.4891   -1.0186 H   0  0  0  0  0  0  0  0  0  0  0  0
    0.5108   -0.1522    1.4954 H   0  0  0  0  0  0  0  0  0  0  0  0
    0.7502    2.1740    0.6268 H   0  0  0  0  0  0  0  0  0  0  0  0
    0.6080    1.4908   -1.0775 H   0  0  0  0  0  0  0  0  0  0  0  0
   -2.0779    0.0345   -1.4798 H   0  0  0  0  0  0  0  0  0  0  0  0
   -1.5285   -1.1726    1.4088 H   0  0  0  0  0  0  0  0  0  0  0  0
   -2.1110   -2.0624   -0.1436 H   0  0  0  0  0  0  0  0  0  0  0  0
    0.0035   -1.3473   -1.2957 H   0  0  0  0  0  0  0  0  0  0  0  0
  1  2  1  0
  2  3  1  0
  3  4  1  0
  4  5  2  0
  4  6  1  0
  6  7  1  0
  7  8  1  0
  8  2  1  0
  8  6  1  0
  1  9  1  0
  1 10  1  0
  1 11  1  0
  2 12  1  0
  3 13  1  0
  3 14  1  0
  6 15  1  0
  7 16  1  0
  7 17  1  0
  8 18  1  0
M  END
