
     RDKit          3D

 19 19  0  0  0  0  0  0  0  0999 V2000
   -1.8007    0.9601   -0.3491 C   0  0  0  0  0  0  0  0  0  0  0  0
   -1.0177    0.0554    0.5085 C   0  0  0  0  0  0  0  0  0  0  0  0
   -1.1065   -1.3867   -0.0121 C   0  0  0  0  0  0  0  0  0  0  0  0
    0.3272   -1.2418   -0.4505 C   0  0  0  0  0  0  0  0  0  0  0  0
    0.4194   -0.0334    0.4824 C   0  0  0  0  0  0  0  0  0  0  0  0
    1.2735    0.9855   -0.1310 C   0  0  0  0  0  0  0  0  0  0  0  0
    0.8683    2.0261   -0.6902 O   0  0  0  0  0  0  0  0  0  0  0  0
    2.7113    0.7589   -0.0804 C   0  0  0  0  0  0  0  0  0  0  0  0
    3.2491   -0.2462    0.4520 O   0  0  0  0  0  0  0  0  0  0  0  0
   -2.7459    0.4585   -0.7146 H   0  0  0  0  0  0  0  0  0  0  0  0
   -1.3092    1.3678   -1.2269 H   0  0  0  0  0  0  0  0  0  0  0  0
   -2.1853    1.8493    0.2336 H   0  0  0  0  0  0  0  0  0  0  0  0
   -1.4421    0.0395    1.5564 H   0  0  0  0  0  0  0  0  0  0  0  0
   -1.2107   -2.1504    0.7522 H   0  0  0  0  0  0  0  0  0  0  0  0
   -1.7563   -1.5032   -0.9002 H   0  0  0  0  0  0  0  0  0  0  0  0
    1.0045   -2.0620   -0.1431 H   0  0  0  0  0  0  0  0  0  0  0  0
    0.4693   -1.0075   -1.5134 H   0  0  0  0  0  0  0  0  0  0  0  0
    0.8689   -0.3489    1.4529 H   0  0  0  0  0  0  0  0  0  0  0  0
    3.3829    1.4790   -0.5175 H   0  0  0  0  0  0  0  0  0  0  0  0
  1  2  1  0
  2  3  1  0
  3  4  1  0
  4  5  1  0
  5  6  1  0
  6  7  2  0
  6  8  1  0
  8  9  2  0
  5  2  1  0
  1 10  1  0
  1 11  1  0
  1 12  1  0
  2 13  1  0
  3 14  1  0
  3 15  1  0
  4 16  1  0
  4 17  1  0
  5 18  1  0
  8 19  1  0
M  END
