
     RDKit          3D

 20 21  0  0  0  0  0  0  0  0999 V2000
    1.4284    1.5604   -0.4885 C   0  0  0  0  0  0  0  0  0  0  0  0
    0.8525    0.2100   -0.7296 C   0  0  0  0  0  0  0  0  0  0  0  0
    0.6993   -0.6470    0.4891 C   0  0  0  0  0  0  0  0  0  0  0  0
    0.3722   -2.0880    0.2174 C   0  0  0  0  0  0  0  0  0  0  0  0
   -0.9355   -1.5963   -0.4139 C   0  0  0  0  0  0  0  0  0  0  0  0
   -0.4764   -0.1853   -0.2747 C   0  0  0  0  0  0  0  0  0  0  0  0
   -1.4489    0.8196    0.3061 C   0  0  0  0  0  0  0  0  0  0  0  0
   -0.9439    1.4369    1.4393 O   0  0  0  0  0  0  0  0  0  0  0  0
    1.3619    1.8954    0.5801 H   0  0  0  0  0  0  0  0  0  0  0  0
    1.0592    2.3415   -1.1866 H   0  0  0  0  0  0  0  0  0  0  0  0
    2.5369    1.4937   -0.6905 H   0  0  0  0  0  0  0  0  0  0  0  0
    1.2593   -0.3059   -1.6375 H   0  0  0  0  0  0  0  0  0  0  0  0
    0.9083   -0.2822    1.4902 H   0  0  0  0  0  0  0  0  0  0  0  0
    0.2322   -2.7287    1.1058 H   0  0  0  0  0  0  0  0  0  0  0  0
    1.0769   -2.5159   -0.5325 H   0  0  0  0  0  0  0  0  0  0  0  0
   -1.1035   -1.9629   -1.4432 H   0  0  0  0  0  0  0  0  0  0  0  0
   -1.7853   -1.8798    0.2631 H   0  0  0  0  0  0  0  0  0  0  0  0
   -2.4248    0.3882    0.5284 H   0  0  0  0  0  0  0  0  0  0  0  0
   -1.6164    1.6261   -0.4541 H   0  0  0  0  0  0  0  0  0  0  0  0
   -1.0525    2.4200    1.4315 H   0  0  0  0  0  0  0  0  0  0  0  0
  1  2  1  0
  2  3  1  0
  3  4  1  0
  4  5  1  0
  5  6  1  0
  6  7  1  0
  7  8  1  0
  6  2  1  0
  6  3  1  0
  1  9  1  0
  1 10  1  0
  1 11  1  0
  2 12  1  0
  3 13  1  0
  4 14  1  0
  4 15  1  0
  5 16  1  0
  5 17  1  0
  7 18  1  0
  7 19  1  0
  8 20  1  0
M  END
