
     RDKit          3D

 25 26  0  0  0  0  0  0  0  0999 V2000
   -2.6877   -0.5863   -0.6837 C   0  0  0  0  0  0  0  0  0  0  0  0
   -1.4214    0.1821   -0.8925 C   0  0  0  0  0  0  0  0  0  0  0  0
   -0.1541   -0.6841   -0.9588 C   0  0  0  0  0  0  0  0  0  0  0  0
    0.5072    0.3892   -0.1893 C   0  0  0  0  0  0  0  0  0  0  0  0
    1.5087    1.3050   -0.6762 C   0  0  0  0  0  0  0  0  0  0  0  0
    1.7420    0.3358    0.5227 C   0  0  0  0  0  0  0  0  0  0  0  0
    2.8223   -0.6826    0.2915 C   0  0  0  0  0  0  0  0  0  0  0  0
   -0.8240    0.7915    0.3681 C   0  0  0  0  0  0  0  0  0  0  0  0
   -1.1208   -0.0443    1.6180 C   0  0  0  0  0  0  0  0  0  0  0  0
   -2.6120   -1.4049    0.0378 H   0  0  0  0  0  0  0  0  0  0  0  0
   -3.0797   -0.8744   -1.6688 H   0  0  0  0  0  0  0  0  0  0  0  0
   -3.4404    0.1434   -0.2637 H   0  0  0  0  0  0  0  0  0  0  0  0
   -1.4913    0.8765   -1.7228 H   0  0  0  0  0  0  0  0  0  0  0  0
   -0.2540   -1.6131   -0.3291 H   0  0  0  0  0  0  0  0  0  0  0  0
    0.1956   -0.9135   -1.9613 H   0  0  0  0  0  0  0  0  0  0  0  0
    2.1110    1.1062   -1.5859 H   0  0  0  0  0  0  0  0  0  0  0  0
    1.4782    2.3850   -0.4200 H   0  0  0  0  0  0  0  0  0  0  0  0
    1.8211    0.8383    1.5175 H   0  0  0  0  0  0  0  0  0  0  0  0
    3.7850   -0.1034    0.1964 H   0  0  0  0  0  0  0  0  0  0  0  0
    2.9238   -1.3127    1.1754 H   0  0  0  0  0  0  0  0  0  0  0  0
    2.6319   -1.2653   -0.6505 H   0  0  0  0  0  0  0  0  0  0  0  0
   -1.0106    1.8604    0.5011 H   0  0  0  0  0  0  0  0  0  0  0  0
   -0.7333    0.5441    2.4714 H   0  0  0  0  0  0  0  0  0  0  0  0
   -2.1870   -0.2867    1.7000 H   0  0  0  0  0  0  0  0  0  0  0  0
   -0.5104   -0.9862    1.6030 H   0  0  0  0  0  0  0  0  0  0  0  0
  1  2  1  0
  2  3  1  0
  3  4  1  0
  4  5  1  0
  5  6  1  0
  6  7  1  0
  4  8  1  0
  8  9  1  0
  8  2  1  0
  6  4  1  0
  1 10  1  0
  1 11  1  0
  1 12  1  0
  2 13  1  0
  3 14  1  0
  3 15  1  0
  5 16  1  0
  5 17  1  0
  6 18  1  0
  7 19  1  0
  7 20  1  0
  7 21  1  0
  8 22  1  0
  9 23  1  0
  9 24  1  0
  9 25  1  0
M  END
