
     RDKit          3D

 17 18  0  0  0  0  0  0  0  0999 V2000
    1.7910    0.2774    0.4033 C   0  0  0  0  0  0  0  0  0  0  0  0
    0.8244   -0.1453   -0.6622 C   0  0  0  0  0  0  0  0  0  0  0  0
    0.0905   -1.3470   -0.1601 C   0  0  0  0  0  0  0  0  0  0  0  0
    0.6392   -2.3596    0.1999 O   0  0  0  0  0  0  0  0  0  0  0  0
   -1.3245   -0.9715   -0.2283 C   0  0  0  0  0  0  0  0  0  0  0  0
   -1.5728    0.0357    0.8513 C   0  0  0  0  0  0  0  0  0  0  0  0
   -0.9831    1.1525    0.4451 C   0  0  0  0  0  0  0  0  0  0  0  0
   -0.3293    0.8047   -0.8442 C   0  0  0  0  0  0  0  0  0  0  0  0
   -1.3056   -0.0998   -1.3484 O   0  0  0  0  0  0  0  0  0  0  0  0
    1.4320   -0.0622    1.4083 H   0  0  0  0  0  0  0  0  0  0  0  0
    2.7281   -0.2917    0.2176 H   0  0  0  0  0  0  0  0  0  0  0  0
    1.9917    1.3648    0.3870 H   0  0  0  0  0  0  0  0  0  0  0  0
    1.3098   -0.2981   -1.6218 H   0  0  0  0  0  0  0  0  0  0  0  0
   -2.0445   -1.7532   -0.2965 H   0  0  0  0  0  0  0  0  0  0  0  0
   -2.1040   -0.0390    1.7901 H   0  0  0  0  0  0  0  0  0  0  0  0
   -0.9951    2.0956    0.9642 H   0  0  0  0  0  0  0  0  0  0  0  0
   -0.1477    1.6369   -1.5052 H   0  0  0  0  0  0  0  0  0  0  0  0
  1  2  1  0
  2  3  1  0
  3  4  2  0
  3  5  1  0
  5  6  1  0
  6  7  2  0
  7  8  1  0
  8  9  1  0
  8  2  1  0
  9  5  1  0
  1 10  1  0
  1 11  1  0
  1 12  1  0
  2 13  1  0
  5 14  1  0
  6 15  1  0
  7 16  1  0
  8 17  1  0
M  END
