
     RDKit          3D

 23 24  0  0  0  0  0  0  0  0999 V2000
    2.5131    0.0605    0.7848 C   0  0  0  0  0  0  0  0  0  0  0  0
    1.6662    0.4052   -0.4394 C   0  0  0  0  0  0  0  0  0  0  0  0
    0.7319    1.4808   -0.0167 C   0  0  0  0  0  0  0  0  0  0  0  0
   -0.5573    1.3106    0.1833 C   0  0  0  0  0  0  0  0  0  0  0  0
   -1.2100    0.0070    0.0025 C   0  0  0  0  0  0  0  0  0  0  0  0
   -0.2332   -1.1094   -0.1089 C   0  0  0  0  0  0  0  0  0  0  0  0
    0.9531   -0.8073   -0.9603 C   0  0  0  0  0  0  0  0  0  0  0  0
   -2.4246   -0.3103    0.8630 C   0  0  0  0  0  0  0  0  0  0  0  0
   -2.5564   -0.0374   -0.5946 C   0  0  0  0  0  0  0  0  0  0  0  0
    2.8036    1.0358    1.2295 H   0  0  0  0  0  0  0  0  0  0  0  0
    1.8884   -0.4541    1.5332 H   0  0  0  0  0  0  0  0  0  0  0  0
    3.4289   -0.4753    0.5265 H   0  0  0  0  0  0  0  0  0  0  0  0
    2.3342    0.8345   -1.2105 H   0  0  0  0  0  0  0  0  0  0  0  0
    1.1882    2.4737    0.1286 H   0  0  0  0  0  0  0  0  0  0  0  0
   -1.1274    2.1883    0.4924 H   0  0  0  0  0  0  0  0  0  0  0  0
   -0.7579   -2.0348   -0.4364 H   0  0  0  0  0  0  0  0  0  0  0  0
    0.1416   -1.3370    0.9246 H   0  0  0  0  0  0  0  0  0  0  0  0
    1.6687   -1.6729   -0.8421 H   0  0  0  0  0  0  0  0  0  0  0  0
    0.7215   -0.7441   -2.0372 H   0  0  0  0  0  0  0  0  0  0  0  0
   -2.5918   -1.3495    1.1967 H   0  0  0  0  0  0  0  0  0  0  0  0
   -2.7271    0.4443    1.6119 H   0  0  0  0  0  0  0  0  0  0  0  0
   -2.8645   -0.8562   -1.2840 H   0  0  0  0  0  0  0  0  0  0  0  0
   -2.9893    0.9475   -0.8840 H   0  0  0  0  0  0  0  0  0  0  0  0
  1  2  1  0
  2  3  1  0
  3  4  2  0
  4  5  1  0
  5  6  1  0
  6  7  1  0
  5  8  1  0
  8  9  1  0
  7  2  1  0
  9  5  1  0
  1 10  1  0
  1 11  1  0
  1 12  1  0
  2 13  1  0
  3 14  1  0
  4 15  1  0
  6 16  1  0
  6 17  1  0
  7 18  1  0
  7 19  1  0
  8 20  1  0
  8 21  1  0
  9 22  1  0
  9 23  1  0
M  END
