
     RDKit          3D

 18 19  0  0  0  0  0  0  0  0999 V2000
   -1.7972    0.4970    0.7097 C   0  0  0  0  0  0  0  0  0  0  0  0
   -0.7795    0.6885   -0.3613 C   0  0  0  0  0  0  0  0  0  0  0  0
   -0.6736   -0.3658   -1.4110 C   0  0  0  0  0  0  0  0  0  0  0  0
   -0.1470   -1.2842   -0.3487 C   0  0  0  0  0  0  0  0  0  0  0  0
    0.5347    0.0144   -0.1791 C   0  0  0  0  0  0  0  0  0  0  0  0
    1.5519    0.3615    0.6816 C   0  0  0  0  0  0  0  0  0  0  0  0
    2.6937   -0.4546    0.4954 O   0  0  0  0  0  0  0  0  0  0  0  0
    0.6376    0.0471   -1.5896 O   0  0  0  0  0  0  0  0  0  0  0  0
   -1.3197    0.1113    1.6542 H   0  0  0  0  0  0  0  0  0  0  0  0
   -2.2270    1.5050    0.9479 H   0  0  0  0  0  0  0  0  0  0  0  0
   -2.6282   -0.1685    0.4538 H   0  0  0  0  0  0  0  0  0  0  0  0
   -0.7141    1.6979   -0.8154 H   0  0  0  0  0  0  0  0  0  0  0  0
   -1.3434   -0.5923   -2.1320 H   0  0  0  0  0  0  0  0  0  0  0  0
    0.4826   -2.1181   -0.7398 H   0  0  0  0  0  0  0  0  0  0  0  0
   -0.8600   -1.6080    0.4230 H   0  0  0  0  0  0  0  0  0  0  0  0
    1.3060    0.2648    1.7582 H   0  0  0  0  0  0  0  0  0  0  0  0
    1.9268    1.3984    0.5512 H   0  0  0  0  0  0  0  0  0  0  0  0
    3.3561    0.0056   -0.0980 H   0  0  0  0  0  0  0  0  0  0  0  0
  1  2  1  0
  2  3  1  0
  3  4  1  0
  4  5  1  0
  5  6  1  0
  6  7  1  0
  5  8  1  0
  5  2  1  0
  8  3  1  0
  1  9  1  0
  1 10  1  0
  1 11  1  0
  2 12  1  0
  3 13  1  0
  4 14  1  0
  4 15  1  0
  6 16  1  0
  6 17  1  0
  7 18  1  0
M  END
