
     RDKit          3D

 25 25  0  0  0  0  0  0  0  0999 V2000
    1.4419    1.5377   -0.8365 C   0  0  0  0  0  0  0  0  0  0  0  0
    1.5486    0.4592    0.1725 C   0  0  0  0  0  0  0  0  0  0  0  0
    2.3278   -0.7284   -0.4083 C   0  0  0  0  0  0  0  0  0  0  0  0
    1.1190   -1.3684   -0.6663 O   0  0  0  0  0  0  0  0  0  0  0  0
    0.5176   -0.5709    0.3102 C   0  0  0  0  0  0  0  0  0  0  0  0
   -0.9126   -0.2797    0.0722 C   0  0  0  0  0  0  0  0  0  0  0  0
   -1.2927    0.2049   -1.2727 C   0  0  0  0  0  0  0  0  0  0  0  0
   -1.6687   -1.6012    0.2955 C   0  0  0  0  0  0  0  0  0  0  0  0
   -1.4296    0.6777    1.1122 C   0  0  0  0  0  0  0  0  0  0  0  0
    2.4877    1.9546   -0.9643 H   0  0  0  0  0  0  0  0  0  0  0  0
    1.1366    1.2172   -1.8364 H   0  0  0  0  0  0  0  0  0  0  0  0
    0.8581    2.4020   -0.4420 H   0  0  0  0  0  0  0  0  0  0  0  0
    1.9756    0.8429    1.1217 H   0  0  0  0  0  0  0  0  0  0  0  0
    2.9877   -1.2264    0.3079 H   0  0  0  0  0  0  0  0  0  0  0  0
    2.8430   -0.5088   -1.3595 H   0  0  0  0  0  0  0  0  0  0  0  0
    0.6197   -1.1016    1.2874 H   0  0  0  0  0  0  0  0  0  0  0  0
   -0.8294   -0.3485   -2.1148 H   0  0  0  0  0  0  0  0  0  0  0  0
   -2.4010   -0.0004   -1.3898 H   0  0  0  0  0  0  0  0  0  0  0  0
   -1.2211    1.3116   -1.3962 H   0  0  0  0  0  0  0  0  0  0  0  0
   -2.7468   -1.4685    0.1497 H   0  0  0  0  0  0  0  0  0  0  0  0
   -1.3053   -2.2714   -0.5219 H   0  0  0  0  0  0  0  0  0  0  0  0
   -1.3850   -2.0203    1.2700 H   0  0  0  0  0  0  0  0  0  0  0  0
   -2.0362    1.5050    0.6395 H   0  0  0  0  0  0  0  0  0  0  0  0
   -2.0731    0.1983    1.8732 H   0  0  0  0  0  0  0  0  0  0  0  0
   -0.5617    1.1832    1.6134 H   0  0  0  0  0  0  0  0  0  0  0  0
  1  2  1  0
  2  3  1  0
  3  4  1  0
  4  5  1  0
  5  6  1  0
  6  7  1  0
  6  8  1  0
  6  9  1  0
  5  2  1  0
  1 10  1  0
  1 11  1  0
  1 12  1  0
  2 13  1  0
  3 14  1  0
  3 15  1  0
  5 16  1  0
  7 17  1  0
  7 18  1  0
  7 19  1  0
  8 20  1  0
  8 21  1  0
  8 22  1  0
  9 23  1  0
  9 24  1  0
  9 25  1  0
M  END
