
     RDKit          3D

 21 23  0  0  0  0  0  0  0  0999 V2000
    2.4185    0.5912    0.0904 C   0  0  0  0  0  0  0  0  0  0  0  0
    1.2502   -0.2070   -0.4127 C   0  0  0  0  0  0  0  0  0  0  0  0
    0.8543   -1.1702    0.7022 C   0  0  0  0  0  0  0  0  0  0  0  0
    0.0093   -2.2879    0.1748 O   0  0  0  0  0  0  0  0  0  0  0  0
   -0.4860   -1.1080    0.8806 C   0  0  0  0  0  0  0  0  0  0  0  0
   -1.0681   -0.0377   -0.0162 C   0  0  0  0  0  0  0  0  0  0  0  0
   -2.4304   -0.1967   -0.5978 C   0  0  0  0  0  0  0  0  0  0  0  0
   -0.6759    1.4106    0.2752 C   0  0  0  0  0  0  0  0  0  0  0  0
    0.0457    0.6140   -0.7118 C   0  0  0  0  0  0  0  0  0  0  0  0
    2.3324    0.7443    1.1924 H   0  0  0  0  0  0  0  0  0  0  0  0
    3.3341   -0.0091   -0.0602 H   0  0  0  0  0  0  0  0  0  0  0  0
    2.5114    1.5442   -0.4678 H   0  0  0  0  0  0  0  0  0  0  0  0
    1.5087   -0.8423   -1.2834 H   0  0  0  0  0  0  0  0  0  0  0  0
    1.7075   -1.6238    1.1945 H   0  0  0  0  0  0  0  0  0  0  0  0
   -1.1598   -1.4247    1.6842 H   0  0  0  0  0  0  0  0  0  0  0  0
   -2.4673   -0.0607   -1.6951 H   0  0  0  0  0  0  0  0  0  0  0  0
   -2.8392   -1.1696   -0.2593 H   0  0  0  0  0  0  0  0  0  0  0  0
   -3.0937    0.5826   -0.1406 H   0  0  0  0  0  0  0  0  0  0  0  0
   -1.3316    2.2081   -0.0905 H   0  0  0  0  0  0  0  0  0  0  0  0
   -0.3537    1.5472    1.3241 H   0  0  0  0  0  0  0  0  0  0  0  0
   -0.0664    0.8955   -1.7829 H   0  0  0  0  0  0  0  0  0  0  0  0
  1  2  1  0
  2  3  1  0
  3  4  1  0
  4  5  1  0
  5  6  1  0
  6  7  1  0
  6  8  1  0
  8  9  1  0
  9  2  1  0
  5  3  1  0
  9  6  1  0
  1 10  1  0
  1 11  1  0
  1 12  1  0
  2 13  1  0
  3 14  1  0
  5 15  1  0
  7 16  1  0
  7 17  1  0
  7 18  1  0
  8 19  1  0
  8 20  1  0
  9 21  1  0
M  END
