
     RDKit          3D

 17 18  0  0  0  0  0  0  0  0999 V2000
    1.0755   -1.3348    0.6223 C   0  0  0  0  0  0  0  0  0  0  0  0
    0.6485    0.0849    0.7931 C   0  0  0  0  0  0  0  0  0  0  0  0
    0.7749    0.9197   -0.4314 C   0  0  0  0  0  0  0  0  0  0  0  0
    0.4811    2.3371   -0.2908 C   0  0  0  0  0  0  0  0  0  0  0  0
    1.0846    3.4042   -0.4740 O   0  0  0  0  0  0  0  0  0  0  0  0
   -0.7860    2.0073    0.1446 O   0  0  0  0  0  0  0  0  0  0  0  0
   -0.5836    0.6073    0.1845 C   0  0  0  0  0  0  0  0  0  0  0  0
   -1.5373   -0.2571   -0.5924 C   0  0  0  0  0  0  0  0  0  0  0  0
   -1.1500   -1.5831   -0.4086 O   0  0  0  0  0  0  0  0  0  0  0  0
    2.1272   -1.4073    1.0292 H   0  0  0  0  0  0  0  0  0  0  0  0
    1.1856   -1.6412   -0.4526 H   0  0  0  0  0  0  0  0  0  0  0  0
    0.4860   -2.0687    1.1875 H   0  0  0  0  0  0  0  0  0  0  0  0
    0.9419    0.5360    1.7695 H   0  0  0  0  0  0  0  0  0  0  0  0
    1.0362    0.4710   -1.4074 H   0  0  0  0  0  0  0  0  0  0  0  0
   -2.5875   -0.0801   -0.3073 H   0  0  0  0  0  0  0  0  0  0  0  0
   -1.4448   -0.0622   -1.6883 H   0  0  0  0  0  0  0  0  0  0  0  0
   -1.7522   -1.9329    0.3221 H   0  0  0  0  0  0  0  0  0  0  0  0
  1  2  1  0
  2  3  1  0
  3  4  1  0
  4  5  2  0
  4  6  1  0
  6  7  1  0
  7  8  1  0
  8  9  1  0
  7  2  1  0
  7  3  1  0
  1 10  1  0
  1 11  1  0
  1 12  1  0
  2 13  1  0
  3 14  1  0
  8 15  1  0
  8 16  1  0
  9 17  1  0
M  END
