
     RDKit          3D

 13 14  0  0  0  0  0  0  0  0999 V2000
   -1.6179   -0.0964   -0.0211 C   0  0  0  0  0  0  0  0  0  0  0  0
   -0.1579   -0.3017   -0.2998 C   0  0  0  0  0  0  0  0  0  0  0  0
    0.7099   -0.5863    0.8903 C   0  0  0  0  0  0  0  0  0  0  0  0
    0.3420    0.6836    1.3285 O   0  0  0  0  0  0  0  0  0  0  0  0
    0.6514    0.9216   -0.0075 C   0  0  0  0  0  0  0  0  0  0  0  0
    1.7887    0.0536    0.1935 C   0  0  0  0  0  0  0  0  0  0  0  0
    2.9397   -0.0335   -0.0830 O   0  0  0  0  0  0  0  0  0  0  0  0
   -1.8764    0.9686    0.1729 H   0  0  0  0  0  0  0  0  0  0  0  0
   -1.9144   -0.6434    0.9079 H   0  0  0  0  0  0  0  0  0  0  0  0
   -2.2236   -0.4913   -0.8525 H   0  0  0  0  0  0  0  0  0  0  0  0
    0.0640   -0.8616   -1.2046 H   0  0  0  0  0  0  0  0  0  0  0  0
    0.6968   -1.4260    1.4499 H   0  0  0  0  0  0  0  0  0  0  0  0
    0.5977    1.8130   -0.4737 H   0  0  0  0  0  0  0  0  0  0  0  0
  1  2  1  0
  2  3  1  0
  3  4  1  0
  4  5  1  0
  5  6  1  0
  6  7  2  0
  5  2  1  0
  6  3  1  0
  1  8  1  0
  1  9  1  0
  1 10  1  0
  2 11  1  0
  3 12  1  0
  5 13  1  0
M  END
