
     RDKit          3D

 21 21  0  0  0  0  0  0  0  0999 V2000
    1.1199   -0.9993    0.7700 C   0  0  0  0  0  0  0  0  0  0  0  0
    0.5530   -0.6723   -0.5814 C   0  0  0  0  0  0  0  0  0  0  0  0
    0.7421    0.8322   -0.8034 C   0  0  0  0  0  0  0  0  0  0  0  0
    2.0438    1.2269   -0.6626 O   0  0  0  0  0  0  0  0  0  0  0  0
   -0.1581    1.3562    0.3221 C   0  0  0  0  0  0  0  0  0  0  0  0
   -1.3517    0.4245    0.2684 C   0  0  0  0  0  0  0  0  0  0  0  0
   -1.7002   -0.0683    1.5162 O   0  0  0  0  0  0  0  0  0  0  0  0
   -0.9612   -0.7398   -0.5994 C   0  0  0  0  0  0  0  0  0  0  0  0
   -1.4359   -1.9500   -0.1631 O   0  0  0  0  0  0  0  0  0  0  0  0
    1.7316   -1.9471    0.7333 H   0  0  0  0  0  0  0  0  0  0  0  0
    0.3725   -1.1530    1.5527 H   0  0  0  0  0  0  0  0  0  0  0  0
    1.8086   -0.1861    1.1189 H   0  0  0  0  0  0  0  0  0  0  0  0
    1.0235   -1.2693   -1.3721 H   0  0  0  0  0  0  0  0  0  0  0  0
    0.2708    1.0747   -1.7603 H   0  0  0  0  0  0  0  0  0  0  0  0
    2.1680    2.0440   -1.2376 H   0  0  0  0  0  0  0  0  0  0  0  0
    0.3692    1.2729    1.2995 H   0  0  0  0  0  0  0  0  0  0  0  0
   -0.4092    2.3844    0.0590 H   0  0  0  0  0  0  0  0  0  0  0  0
   -2.2216    0.9934   -0.1494 H   0  0  0  0  0  0  0  0  0  0  0  0
   -1.3382    0.4495    2.2651 H   0  0  0  0  0  0  0  0  0  0  0  0
   -1.2678   -0.4841   -1.6412 H   0  0  0  0  0  0  0  0  0  0  0  0
   -1.3590   -2.5895   -0.9345 H   0  0  0  0  0  0  0  0  0  0  0  0
  1  2  1  0
  2  3  1  0
  3  4  1  0
  3  5  1  0
  5  6  1  0
  6  7  1  0
  6  8  1  0
  8  9  1  0
  8  2  1  0
  1 10  1  0
  1 11  1  0
  1 12  1  0
  2 13  1  0
  3 14  1  0
  4 15  1  0
  5 16  1  0
  5 17  1  0
  6 18  1  0
  7 19  1  0
  8 20  1  0
  9 21  1  0
M  END
