
     RDKit          3D

 25 26  0  0  0  0  0  0  0  0999 V2000
    1.5329    1.2968   -1.4855 C   0  0  0  0  0  0  0  0  0  0  0  0
    0.8801    0.8872   -0.1947 C   0  0  0  0  0  0  0  0  0  0  0  0
   -0.6501    0.8863   -0.2621 C   0  0  0  0  0  0  0  0  0  0  0  0
   -1.3230    1.6192    0.8617 C   0  0  0  0  0  0  0  0  0  0  0  0
   -0.5972   -0.5910   -0.1301 C   0  0  0  0  0  0  0  0  0  0  0  0
   -1.4188   -1.5126   -0.9118 C   0  0  0  0  0  0  0  0  0  0  0  0
   -1.5273   -1.4201    0.5876 C   0  0  0  0  0  0  0  0  0  0  0  0
    0.8811   -0.6417   -0.0432 C   0  0  0  0  0  0  0  0  0  0  0  0
    1.4846   -1.0692    1.2633 C   0  0  0  0  0  0  0  0  0  0  0  0
    1.1972    2.2763   -1.8566 H   0  0  0  0  0  0  0  0  0  0  0  0
    2.6184    1.3387   -1.3117 H   0  0  0  0  0  0  0  0  0  0  0  0
    1.3734    0.5464   -2.2924 H   0  0  0  0  0  0  0  0  0  0  0  0
    1.2944    1.4034    0.6737 H   0  0  0  0  0  0  0  0  0  0  0  0
   -1.0253    1.1712   -1.2786 H   0  0  0  0  0  0  0  0  0  0  0  0
   -2.1305    2.2678    0.4663 H   0  0  0  0  0  0  0  0  0  0  0  0
   -0.5642    2.2420    1.3763 H   0  0  0  0  0  0  0  0  0  0  0  0
   -1.6882    0.8818    1.5995 H   0  0  0  0  0  0  0  0  0  0  0  0
   -0.8969   -2.3766   -1.3737 H   0  0  0  0  0  0  0  0  0  0  0  0
   -2.2142   -1.0314   -1.5465 H   0  0  0  0  0  0  0  0  0  0  0  0
   -2.5060   -1.0709    0.9541 H   0  0  0  0  0  0  0  0  0  0  0  0
   -1.1518   -2.3499    1.0996 H   0  0  0  0  0  0  0  0  0  0  0  0
    1.3087   -1.1576   -0.9380 H   0  0  0  0  0  0  0  0  0  0  0  0
    0.8888   -1.8107    1.8148 H   0  0  0  0  0  0  0  0  0  0  0  0
    1.7803   -0.2064    1.9114 H   0  0  0  0  0  0  0  0  0  0  0  0
    2.4536   -1.5793    1.0167 H   0  0  0  0  0  0  0  0  0  0  0  0
  1  2  1  0
  2  3  1  0
  3  4  1  0
  3  5  1  0
  5  6  1  0
  6  7  1  0
  5  8  1  0
  8  9  1  0
  8  2  1  0
  7  5  1  0
  1 10  1  0
  1 11  1  0
  1 12  1  0
  2 13  1  0
  3 14  1  0
  4 15  1  0
  4 16  1  0
  4 17  1  0
  6 18  1  0
  6 19  1  0
  7 20  1  0
  7 21  1  0
  8 22  1  0
  9 23  1  0
  9 24  1  0
  9 25  1  0
M  END
