
     RDKit          3D

 19 19  0  0  0  0  0  0  0  0999 V2000
   -1.2183    1.0853    0.5487 C   0  0  0  0  0  0  0  0  0  0  0  0
   -0.8127   -0.3651    0.5181 C   0  0  0  0  0  0  0  0  0  0  0  0
   -1.5787   -0.9797   -0.6559 C   0  0  0  0  0  0  0  0  0  0  0  0
   -0.8354   -0.5687   -1.7880 O   0  0  0  0  0  0  0  0  0  0  0  0
    0.4257   -0.1038   -1.3926 C   0  0  0  0  0  0  0  0  0  0  0  0
    1.2107    0.5508   -2.0980 O   0  0  0  0  0  0  0  0  0  0  0  0
    0.5928   -0.5538   -0.0072 C   0  0  0  0  0  0  0  0  0  0  0  0
    1.6194    0.2146    0.7697 C   0  0  0  0  0  0  0  0  0  0  0  0
    2.8586   -0.0295    0.2071 O   0  0  0  0  0  0  0  0  0  0  0  0
   -0.5105    1.7207    1.1249 H   0  0  0  0  0  0  0  0  0  0  0  0
   -1.3759    1.4795   -0.4898 H   0  0  0  0  0  0  0  0  0  0  0  0
   -2.1981    1.1439    1.0629 H   0  0  0  0  0  0  0  0  0  0  0  0
   -1.0103   -0.8589    1.4604 H   0  0  0  0  0  0  0  0  0  0  0  0
   -2.6284   -0.6601   -0.6798 H   0  0  0  0  0  0  0  0  0  0  0  0
   -1.4486   -2.0798   -0.5520 H   0  0  0  0  0  0  0  0  0  0  0  0
    0.8367   -1.6151    0.0007 H   0  0  0  0  0  0  0  0  0  0  0  0
    1.6190   -0.2091    1.8040 H   0  0  0  0  0  0  0  0  0  0  0  0
    1.4507    1.2970    0.7562 H   0  0  0  0  0  0  0  0  0  0  0  0
    3.0031    0.5318   -0.5893 H   0  0  0  0  0  0  0  0  0  0  0  0
  1  2  1  0
  2  3  1  0
  3  4  1  0
  4  5  1  0
  5  6  2  0
  5  7  1  0
  7  8  1  0
  8  9  1  0
  7  2  1  0
  1 10  1  0
  1 11  1  0
  1 12  1  0
  2 13  1  0
  3 14  1  0
  3 15  1  0
  7 16  1  0
  8 17  1  0
  8 18  1  0
  9 19  1  0
M  END
