
     RDKit          3D

 19 20  0  0  0  0  0  0  0  0999 V2000
    2.4113   -0.1967    0.0364 C   0  0  0  0  0  0  0  0  0  0  0  0
    1.0762   -0.0674   -0.6137 C   0  0  0  0  0  0  0  0  0  0  0  0
    0.3231    1.1976   -0.4593 C   0  0  0  0  0  0  0  0  0  0  0  0
   -0.9392    0.4551   -0.2047 C   0  0  0  0  0  0  0  0  0  0  0  0
   -1.9105    1.0279    0.7099 C   0  0  0  0  0  0  0  0  0  0  0  0
   -1.5979    1.6813    1.6784 O   0  0  0  0  0  0  0  0  0  0  0  0
   -1.2640   -0.8858   -0.7133 C   0  0  0  0  0  0  0  0  0  0  0  0
   -2.2939   -1.5922   -0.1086 O   0  0  0  0  0  0  0  0  0  0  0  0
   -0.0687   -0.7123    0.1263 C   0  0  0  0  0  0  0  0  0  0  0  0
    3.2219   -0.0126   -0.6926 H   0  0  0  0  0  0  0  0  0  0  0  0
    2.5214    0.3942    0.9628 H   0  0  0  0  0  0  0  0  0  0  0  0
    2.5182   -1.2703    0.3551 H   0  0  0  0  0  0  0  0  0  0  0  0
    1.1406   -0.3598   -1.6996 H   0  0  0  0  0  0  0  0  0  0  0  0
    0.6436    1.7313    0.4795 H   0  0  0  0  0  0  0  0  0  0  0  0
    0.3071    1.8945   -1.3126 H   0  0  0  0  0  0  0  0  0  0  0  0
   -2.9600    0.8703    0.5277 H   0  0  0  0  0  0  0  0  0  0  0  0
   -1.1308   -1.1028   -1.7990 H   0  0  0  0  0  0  0  0  0  0  0  0
   -2.0462   -1.9548    0.7856 H   0  0  0  0  0  0  0  0  0  0  0  0
    0.0477   -1.0978    1.1334 H   0  0  0  0  0  0  0  0  0  0  0  0
  1  2  1  0
  2  3  1  0
  3  4  1  0
  4  5  1  0
  5  6  2  0
  4  7  1  0
  7  8  1  0
  7  9  1  0
  9  2  1  0
  9  4  1  0
  1 10  1  0
  1 11  1  0
  1 12  1  0
  2 13  1  0
  3 14  1  0
  3 15  1  0
  5 16  1  0
  7 17  1  0
  8 18  1  0
  9 19  1  0
M  END
