
     RDKit          3D

 19 19  0  0  0  0  0  0  0  0999 V2000
    1.7129   -0.4218    0.4788 C   0  0  0  0  0  0  0  0  0  0  0  0
    0.7526   -0.0988   -0.6147 C   0  0  0  0  0  0  0  0  0  0  0  0
    0.7496    1.3771   -0.8094 C   0  0  0  0  0  0  0  0  0  0  0  0
   -0.3685    1.9086   -0.3395 C   0  0  0  0  0  0  0  0  0  0  0  0
   -1.2696    0.8559    0.2360 C   0  0  0  0  0  0  0  0  0  0  0  0
   -0.6586   -0.4023   -0.3829 C   0  0  0  0  0  0  0  0  0  0  0  0
   -0.9969   -1.5739    0.4561 C   0  0  0  0  0  0  0  0  0  0  0  0
    1.8873    0.4403    1.1695 H   0  0  0  0  0  0  0  0  0  0  0  0
    2.7298   -0.6565    0.0432 H   0  0  0  0  0  0  0  0  0  0  0  0
    1.4573   -1.2780    1.0970 H   0  0  0  0  0  0  0  0  0  0  0  0
    1.1276   -0.6035   -1.5451 H   0  0  0  0  0  0  0  0  0  0  0  0
    1.5525    1.9481   -1.2736 H   0  0  0  0  0  0  0  0  0  0  0  0
   -0.6645    2.9602   -0.3360 H   0  0  0  0  0  0  0  0  0  0  0  0
   -1.1476    0.8100    1.3199 H   0  0  0  0  0  0  0  0  0  0  0  0
   -2.3144    0.9920   -0.0601 H   0  0  0  0  0  0  0  0  0  0  0  0
   -1.1742   -0.5168   -1.3639 H   0  0  0  0  0  0  0  0  0  0  0  0
   -0.5220   -1.6508    1.4215 H   0  0  0  0  0  0  0  0  0  0  0  0
   -0.7555   -2.5137   -0.1144 H   0  0  0  0  0  0  0  0  0  0  0  0
   -2.0978   -1.5761    0.6174 H   0  0  0  0  0  0  0  0  0  0  0  0
  1  2  1  0
  2  3  1  0
  3  4  2  0
  4  5  1  0
  5  6  1  0
  6  7  1  0
  6  2  1  0
  1  8  1  0
  1  9  1  0
  1 10  1  0
  2 11  1  0
  3 12  1  0
  4 13  1  0
  5 14  1  0
  5 15  1  0
  6 16  1  0
  7 17  1  0
  7 18  1  0
  7 19  1  0
M  END
