
     RDKit          3D

 20 21  0  0  0  0  0  0  0  0999 V2000
   -0.6392    1.9264    0.3356 C   0  0  0  0  0  0  0  0  0  0  0  0
   -0.0667    0.8075   -0.5323 C   0  0  0  0  0  0  0  0  0  0  0  0
    1.3922    0.9452   -0.6991 C   0  0  0  0  0  0  0  0  0  0  0  0
    1.9738   -0.2051   -0.3894 C   0  0  0  0  0  0  0  0  0  0  0  0
    0.9593   -1.2276    0.0159 C   0  0  0  0  0  0  0  0  0  0  0  0
    0.2917   -0.9565    1.3115 C   0  0  0  0  0  0  0  0  0  0  0  0
   -0.3306   -0.5408    0.0443 C   0  0  0  0  0  0  0  0  0  0  0  0
   -1.5982   -1.2119   -0.4383 C   0  0  0  0  0  0  0  0  0  0  0  0
   -0.1514    1.9413    1.3304 H   0  0  0  0  0  0  0  0  0  0  0  0
   -0.4595    2.8753   -0.2158 H   0  0  0  0  0  0  0  0  0  0  0  0
   -1.7259    1.7147    0.4293 H   0  0  0  0  0  0  0  0  0  0  0  0
   -0.5542    0.9183   -1.5277 H   0  0  0  0  0  0  0  0  0  0  0  0
    1.9439    1.8206   -1.0190 H   0  0  0  0  0  0  0  0  0  0  0  0
    3.0596   -0.3774   -0.4278 H   0  0  0  0  0  0  0  0  0  0  0  0
    1.1100   -2.2486   -0.3341 H   0  0  0  0  0  0  0  0  0  0  0  0
    0.7368   -0.2206    1.9815 H   0  0  0  0  0  0  0  0  0  0  0  0
   -0.1207   -1.8492    1.8314 H   0  0  0  0  0  0  0  0  0  0  0  0
   -1.3892   -2.1066   -1.0723 H   0  0  0  0  0  0  0  0  0  0  0  0
   -2.2372   -1.4806    0.4433 H   0  0  0  0  0  0  0  0  0  0  0  0
   -2.1944   -0.5243   -1.0677 H   0  0  0  0  0  0  0  0  0  0  0  0
  1  2  1  0
  2  3  1  0
  3  4  2  0
  4  5  1  0
  5  6  1  0
  6  7  1  0
  7  8  1  0
  7  2  1  0
  7  5  1  0
  1  9  1  0
  1 10  1  0
  1 11  1  0
  2 12  1  0
  3 13  1  0
  4 14  1  0
  5 15  1  0
  6 16  1  0
  6 17  1  0
  8 18  1  0
  8 19  1  0
  8 20  1  0
M  END
