
     RDKit          3D

 21 23  0  0  0  0  0  0  0  0999 V2000
    2.0729    0.7032    1.1077 C   0  0  0  0  0  0  0  0  0  0  0  0
    1.6348   -0.1638   -0.0156 C   0  0  0  0  0  0  0  0  0  0  0  0
    0.3365   -0.9145    0.1794 C   0  0  0  0  0  0  0  0  0  0  0  0
    0.3229   -0.9776   -1.3272 C   0  0  0  0  0  0  0  0  0  0  0  0
    0.6973    0.4491   -1.0252 C   0  0  0  0  0  0  0  0  0  0  0  0
   -0.3373    0.4094    0.0546 C   0  0  0  0  0  0  0  0  0  0  0  0
   -1.7603    0.4076   -0.3713 C   0  0  0  0  0  0  0  0  0  0  0  0
   -2.7723   -0.2859    0.4308 C   0  0  0  0  0  0  0  0  0  0  0  0
   -2.5774    1.1945    0.5834 O   0  0  0  0  0  0  0  0  0  0  0  0
    3.1915    0.6066    1.1968 H   0  0  0  0  0  0  0  0  0  0  0  0
    1.6822    0.3178    2.0913 H   0  0  0  0  0  0  0  0  0  0  0  0
    1.8727    1.7758    0.9845 H   0  0  0  0  0  0  0  0  0  0  0  0
    2.3956   -0.8540   -0.4323 H   0  0  0  0  0  0  0  0  0  0  0  0
    0.1644   -1.6582    0.8198 H   0  0  0  0  0  0  0  0  0  0  0  0
    1.1995   -1.5769   -1.6711 H   0  0  0  0  0  0  0  0  0  0  0  0
   -0.6280   -1.1596   -1.8088 H   0  0  0  0  0  0  0  0  0  0  0  0
    0.8989    1.1778   -1.6748 H   0  0  0  0  0  0  0  0  0  0  0  0
   -0.0532    1.0742    0.8834 H   0  0  0  0  0  0  0  0  0  0  0  0
   -2.0650    0.7237   -1.3853 H   0  0  0  0  0  0  0  0  0  0  0  0
   -2.5367   -0.7253    1.4146 H   0  0  0  0  0  0  0  0  0  0  0  0
   -3.7391   -0.5239   -0.0346 H   0  0  0  0  0  0  0  0  0  0  0  0
  1  2  1  0
  2  3  1  0
  3  4  1  0
  4  5  1  0
  5  6  1  0
  6  7  1  0
  7  8  1  0
  8  9  1  0
  5  2  1  0
  9  7  1  0
  6  3  1  0
  1 10  1  0
  1 11  1  0
  1 12  1  0
  2 13  1  0
  3 14  1  0
  4 15  1  0
  4 16  1  0
  5 17  1  0
  6 18  1  0
  7 19  1  0
  8 20  1  0
  8 21  1  0
M  END
