
     RDKit          3D

 19 19  0  0  0  0  0  0  0  0999 V2000
    1.3084    1.7815    0.3127 C   0  0  0  0  0  0  0  0  0  0  0  0
    0.1581    0.8486    0.5672 C   0  0  0  0  0  0  0  0  0  0  0  0
   -0.7116    0.3987   -0.5381 C   0  0  0  0  0  0  0  0  0  0  0  0
   -2.1736    0.1164   -0.2492 C   0  0  0  0  0  0  0  0  0  0  0  0
   -2.3139   -0.8923    0.7095 O   0  0  0  0  0  0  0  0  0  0  0  0
    0.2608   -0.5905    0.0350 C   0  0  0  0  0  0  0  0  0  0  0  0
    1.4176   -0.8347   -0.7436 O   0  0  0  0  0  0  0  0  0  0  0  0
    2.0932   -2.0417   -0.6293 C   0  0  0  0  0  0  0  0  0  0  0  0
    1.6248   -2.8792    0.1865 O   0  0  0  0  0  0  0  0  0  0  0  0
    2.1212    1.1950   -0.1603 H   0  0  0  0  0  0  0  0  0  0  0  0
    1.0121    2.6654   -0.3103 H   0  0  0  0  0  0  0  0  0  0  0  0
    1.7134    2.1242    1.2991 H   0  0  0  0  0  0  0  0  0  0  0  0
   -0.3570    0.9940    1.5459 H   0  0  0  0  0  0  0  0  0  0  0  0
   -0.5393    0.7338   -1.5946 H   0  0  0  0  0  0  0  0  0  0  0  0
   -2.6121    1.0419    0.1414 H   0  0  0  0  0  0  0  0  0  0  0  0
   -2.6826   -0.2470   -1.1691 H   0  0  0  0  0  0  0  0  0  0  0  0
   -3.2151   -0.7897    1.0865 H   0  0  0  0  0  0  0  0  0  0  0  0
   -0.0985   -1.3676    0.7328 H   0  0  0  0  0  0  0  0  0  0  0  0
    2.9941   -2.2569   -1.2221 H   0  0  0  0  0  0  0  0  0  0  0  0
  1  2  1  0
  2  3  1  0
  3  4  1  0
  4  5  1  0
  3  6  1  0
  6  7  1  0
  7  8  1  0
  8  9  2  0
  6  2  1  0
  1 10  1  0
  1 11  1  0
  1 12  1  0
  2 13  1  0
  3 14  1  0
  4 15  1  0
  4 16  1  0
  5 17  1  0
  6 18  1  0
  8 19  1  0
M  END
