
     RDKit          3D

 21 22  0  0  0  0  0  0  0  0999 V2000
    2.9846    0.5752    0.2337 C   0  0  0  0  0  0  0  0  0  0  0  0
    1.5165    0.4030   -0.1585 C   0  0  0  0  0  0  0  0  0  0  0  0
    1.0451   -1.0139   -0.2325 C   0  0  0  0  0  0  0  0  0  0  0  0
   -0.1059   -0.4178    0.5000 C   0  0  0  0  0  0  0  0  0  0  0  0
   -1.1908    0.2091   -0.3309 C   0  0  0  0  0  0  0  0  0  0  0  0
   -2.2735    0.7601    0.5875 C   0  0  0  0  0  0  0  0  0  0  0  0
   -3.0667   -0.3560    0.3720 O   0  0  0  0  0  0  0  0  0  0  0  0
   -2.3048   -0.7220   -0.7460 C   0  0  0  0  0  0  0  0  0  0  0  0
    0.7355    0.5866    0.9855 O   0  0  0  0  0  0  0  0  0  0  0  0
    3.6595    0.3260   -0.5837 H   0  0  0  0  0  0  0  0  0  0  0  0
    3.1588   -0.1212    1.0942 H   0  0  0  0  0  0  0  0  0  0  0  0
    3.0713    1.6211    0.5983 H   0  0  0  0  0  0  0  0  0  0  0  0
    1.2363    1.0430   -1.0148 H   0  0  0  0  0  0  0  0  0  0  0  0
    1.6292   -1.6809    0.4179 H   0  0  0  0  0  0  0  0  0  0  0  0
    0.8200   -1.4127   -1.2423 H   0  0  0  0  0  0  0  0  0  0  0  0
   -0.5294   -0.9975    1.3418 H   0  0  0  0  0  0  0  0  0  0  0  0
   -0.8637    0.8747   -1.1316 H   0  0  0  0  0  0  0  0  0  0  0  0
   -2.7031    1.7268    0.2496 H   0  0  0  0  0  0  0  0  0  0  0  0
   -1.9907    0.8227    1.6454 H   0  0  0  0  0  0  0  0  0  0  0  0
   -1.9870   -1.7826   -0.7177 H   0  0  0  0  0  0  0  0  0  0  0  0
   -2.8412   -0.4438   -1.6549 H   0  0  0  0  0  0  0  0  0  0  0  0
  1  2  1  0
  2  3  1  0
  3  4  1  0
  4  5  1  0
  5  6  1  0
  6  7  1  0
  7  8  1  0
  4  9  1  0
  9  2  1  0
  8  5  1  0
  1 10  1  0
  1 11  1  0
  1 12  1  0
  2 13  1  0
  3 14  1  0
  3 15  1  0
  4 16  1  0
  5 17  1  0
  6 18  1  0
  6 19  1  0
  8 20  1  0
  8 21  1  0
M  END
