
     RDKit          3D

 23 24  0  0  0  0  0  0  0  0999 V2000
   -2.0651   -0.4300   -1.2462 C   0  0  0  0  0  0  0  0  0  0  0  0
   -1.3906    0.0443    0.0193 C   0  0  0  0  0  0  0  0  0  0  0  0
   -1.5354    1.4602    0.2842 C   0  0  0  0  0  0  0  0  0  0  0  0
   -0.3983    1.9731    0.6847 C   0  0  0  0  0  0  0  0  0  0  0  0
    0.6591    0.9309    0.7325 C   0  0  0  0  0  0  0  0  0  0  0  0
    1.1188    0.4622   -0.5976 C   0  0  0  0  0  0  0  0  0  0  0  0
    2.4843   -0.2100   -0.5927 C   0  0  0  0  0  0  0  0  0  0  0  0
    0.0457   -0.2795    0.0830 C   0  0  0  0  0  0  0  0  0  0  0  0
    0.3735   -1.6528    0.6321 C   0  0  0  0  0  0  0  0  0  0  0  0
   -1.9186    0.2345   -2.0982 H   0  0  0  0  0  0  0  0  0  0  0  0
   -1.7209   -1.4721   -1.4250 H   0  0  0  0  0  0  0  0  0  0  0  0
   -3.1652   -0.4708   -1.0242 H   0  0  0  0  0  0  0  0  0  0  0  0
   -1.8997   -0.5076    0.8700 H   0  0  0  0  0  0  0  0  0  0  0  0
   -2.4557    2.0319    0.1705 H   0  0  0  0  0  0  0  0  0  0  0  0
   -0.2192    3.0027    0.9506 H   0  0  0  0  0  0  0  0  0  0  0  0
    1.2998    0.8344    1.6164 H   0  0  0  0  0  0  0  0  0  0  0  0
    0.9738    1.1322   -1.4413 H   0  0  0  0  0  0  0  0  0  0  0  0
    3.2724    0.4682   -1.0004 H   0  0  0  0  0  0  0  0  0  0  0  0
    2.4346   -1.1017   -1.2181 H   0  0  0  0  0  0  0  0  0  0  0  0
    2.8128   -0.4386    0.4519 H   0  0  0  0  0  0  0  0  0  0  0  0
   -0.3900   -1.9499    1.3744 H   0  0  0  0  0  0  0  0  0  0  0  0
    1.3579   -1.7130    1.1037 H   0  0  0  0  0  0  0  0  0  0  0  0
    0.3261   -2.3484   -0.2559 H   0  0  0  0  0  0  0  0  0  0  0  0
  1  2  1  0
  2  3  1  0
  3  4  2  0
  4  5  1  0
  5  6  1  0
  6  7  1  0
  6  8  1  0
  8  9  1  0
  8  2  1  0
  8  5  1  0
  1 10  1  0
  1 11  1  0
  1 12  1  0
  2 13  1  0
  3 14  1  0
  4 15  1  0
  5 16  1  0
  6 17  1  0
  7 18  1  0
  7 19  1  0
  7 20  1  0
  9 21  1  0
  9 22  1  0
  9 23  1  0
M  END
