
     RDKit          3D

 21 22  0  0  0  0  0  0  0  0999 V2000
   -2.2219   -0.8586   -0.0005 C   0  0  0  0  0  0  0  0  0  0  0  0
   -1.2055   -0.0785   -0.7413 C   0  0  0  0  0  0  0  0  0  0  0  0
   -1.3543    1.4474   -0.6591 C   0  0  0  0  0  0  0  0  0  0  0  0
    0.1475    1.4935   -0.6563 C   0  0  0  0  0  0  0  0  0  0  0  0
    1.0348    2.2784   -0.9351 O   0  0  0  0  0  0  0  0  0  0  0  0
    0.1259    0.1259   -0.1503 C   0  0  0  0  0  0  0  0  0  0  0  0
    0.5328   -0.2535    1.1989 C   0  0  0  0  0  0  0  0  0  0  0  0
    1.2184   -0.7959   -0.0884 C   0  0  0  0  0  0  0  0  0  0  0  0
    2.6416   -0.3484   -0.3284 C   0  0  0  0  0  0  0  0  0  0  0  0
   -3.2162   -0.3709    0.0810 H   0  0  0  0  0  0  0  0  0  0  0  0
   -1.8197   -1.1853    0.9787 H   0  0  0  0  0  0  0  0  0  0  0  0
   -2.4191   -1.8145   -0.5677 H   0  0  0  0  0  0  0  0  0  0  0  0
   -1.1705   -0.3545   -1.8321 H   0  0  0  0  0  0  0  0  0  0  0  0
   -1.7166    1.8160    0.3111 H   0  0  0  0  0  0  0  0  0  0  0  0
   -1.7844    1.9164   -1.5437 H   0  0  0  0  0  0  0  0  0  0  0  0
    1.1344    0.5200    1.7567 H   0  0  0  0  0  0  0  0  0  0  0  0
    0.0208   -0.9812    1.8346 H   0  0  0  0  0  0  0  0  0  0  0  0
    1.0231   -1.8904   -0.2869 H   0  0  0  0  0  0  0  0  0  0  0  0
    3.1600   -0.0900    0.6140 H   0  0  0  0  0  0  0  0  0  0  0  0
    2.6784    0.5603   -0.9917 H   0  0  0  0  0  0  0  0  0  0  0  0
    3.1905   -1.1362   -0.9032 H   0  0  0  0  0  0  0  0  0  0  0  0
  1  2  1  0
  2  3  1  0
  3  4  1  0
  4  5  2  0
  4  6  1  0
  6  7  1  0
  7  8  1  0
  8  9  1  0
  6  2  1  0
  8  6  1  0
  1 10  1  0
  1 11  1  0
  1 12  1  0
  2 13  1  0
  3 14  1  0
  3 15  1  0
  7 16  1  0
  7 17  1  0
  8 18  1  0
  9 19  1  0
  9 20  1  0
  9 21  1  0
M  END
