
     RDKit          3D

 23 24  0  0  0  0  0  0  0  0999 V2000
   -0.3159    2.2027    0.4974 C   0  0  0  0  0  0  0  0  0  0  0  0
    0.0755    0.7962    0.8609 C   0  0  0  0  0  0  0  0  0  0  0  0
    1.3359    0.4640    0.0328 C   0  0  0  0  0  0  0  0  0  0  0  0
    1.1522   -1.0272   -0.3081 C   0  0  0  0  0  0  0  0  0  0  0  0
    0.9159   -1.2737   -1.6148 O   0  0  0  0  0  0  0  0  0  0  0  0
    0.1700   -1.4221    0.6963 C   0  0  0  0  0  0  0  0  0  0  0  0
   -1.2287   -1.5179    0.7884 C   0  0  0  0  0  0  0  0  0  0  0  0
   -0.8288   -0.2513    0.3268 C   0  0  0  0  0  0  0  0  0  0  0  0
   -1.0996   -0.0023   -1.1427 C   0  0  0  0  0  0  0  0  0  0  0  0
   -1.3960    2.2422    0.2952 H   0  0  0  0  0  0  0  0  0  0  0  0
    0.2027    2.5539   -0.4253 H   0  0  0  0  0  0  0  0  0  0  0  0
   -0.0350    2.9240    1.2942 H   0  0  0  0  0  0  0  0  0  0  0  0
    0.3342    0.6854    1.9237 H   0  0  0  0  0  0  0  0  0  0  0  0
    2.2181    0.6211    0.6919 H   0  0  0  0  0  0  0  0  0  0  0  0
    1.4221    1.0843   -0.8558 H   0  0  0  0  0  0  0  0  0  0  0  0
    2.1629   -1.4879   -0.0834 H   0  0  0  0  0  0  0  0  0  0  0  0
    1.6256   -1.7656   -2.1050 H   0  0  0  0  0  0  0  0  0  0  0  0
    0.6610   -1.3260    1.7223 H   0  0  0  0  0  0  0  0  0  0  0  0
   -1.7478   -2.2441    0.1071 H   0  0  0  0  0  0  0  0  0  0  0  0
   -1.7675   -1.5462    1.7813 H   0  0  0  0  0  0  0  0  0  0  0  0
   -0.3984    0.6457   -1.6512 H   0  0  0  0  0  0  0  0  0  0  0  0
   -1.3814   -0.9320   -1.6997 H   0  0  0  0  0  0  0  0  0  0  0  0
   -2.0769    0.5768   -1.1323 H   0  0  0  0  0  0  0  0  0  0  0  0
  1  2  1  0
  2  3  1  0
  3  4  1  0
  4  5  1  0
  4  6  1  0
  6  7  1  0
  7  8  1  0
  8  9  1  0
  8  2  1  0
  8  6  1  0
  1 10  1  0
  1 11  1  0
  1 12  1  0
  2 13  1  0
  3 14  1  0
  3 15  1  0
  4 16  1  0
  5 17  1  0
  6 18  1  0
  7 19  1  0
  7 20  1  0
  9 21  1  0
  9 22  1  0
  9 23  1  0
M  END
