
     RDKit          3D

 21 21  0  0  0  0  0  0  0  0999 V2000
   -2.4490   -1.3339    0.2973 C   0  0  0  0  0  0  0  0  0  0  0  0
   -1.3604   -0.2837    0.5604 C   0  0  0  0  0  0  0  0  0  0  0  0
   -0.0322   -0.8798    0.2505 C   0  0  0  0  0  0  0  0  0  0  0  0
    0.8981   -0.0673   -0.2352 C   0  0  0  0  0  0  0  0  0  0  0  0
    2.2283   -0.6529   -0.5481 C   0  0  0  0  0  0  0  0  0  0  0  0
    3.2342   -0.0190    0.2145 O   0  0  0  0  0  0  0  0  0  0  0  0
    0.6653    1.3803   -0.4744 C   0  0  0  0  0  0  0  0  0  0  0  0
   -0.7266    1.8144   -0.1878 C   0  0  0  0  0  0  0  0  0  0  0  0
   -1.6626    0.7995   -0.2305 O   0  0  0  0  0  0  0  0  0  0  0  0
   -3.4205   -0.8059    0.2735 H   0  0  0  0  0  0  0  0  0  0  0  0
   -2.2620   -1.7138   -0.7221 H   0  0  0  0  0  0  0  0  0  0  0  0
   -2.4722   -2.1010    1.0751 H   0  0  0  0  0  0  0  0  0  0  0  0
   -1.4024   -0.0718    1.6425 H   0  0  0  0  0  0  0  0  0  0  0  0
    0.1951   -1.9313    0.4049 H   0  0  0  0  0  0  0  0  0  0  0  0
    2.5188   -0.5262   -1.6082 H   0  0  0  0  0  0  0  0  0  0  0  0
    2.2852   -1.7140   -0.3099 H   0  0  0  0  0  0  0  0  0  0  0  0
    3.2051   -0.3828    1.1526 H   0  0  0  0  0  0  0  0  0  0  0  0
    1.3833    1.9551    0.1507 H   0  0  0  0  0  0  0  0  0  0  0  0
    0.9333    1.6064   -1.5447 H   0  0  0  0  0  0  0  0  0  0  0  0
   -1.0196    2.5626   -0.9544 H   0  0  0  0  0  0  0  0  0  0  0  0
   -0.7392    2.3650    0.7933 H   0  0  0  0  0  0  0  0  0  0  0  0
  1  2  1  0
  2  3  1  0
  3  4  2  0
  4  5  1  0
  5  6  1  0
  4  7  1  0
  7  8  1  0
  8  9  1  0
  9  2  1  0
  1 10  1  0
  1 11  1  0
  1 12  1  0
  2 13  1  0
  3 14  1  0
  5 15  1  0
  5 16  1  0
  6 17  1  0
  7 18  1  0
  7 19  1  0
  8 20  1  0
  8 21  1  0
M  END
