
     RDKit          3D

 25 26  0  0  0  0  0  0  0  0999 V2000
   -2.4167    0.9971   -0.3227 C   0  0  0  0  0  0  0  0  0  0  0  0
   -1.1273    0.5686    0.3640 C   0  0  0  0  0  0  0  0  0  0  0  0
    0.0719    1.1484   -0.2879 C   0  0  0  0  0  0  0  0  0  0  0  0
    1.1889    0.1972   -0.5406 C   0  0  0  0  0  0  0  0  0  0  0  0
    2.5307    0.7467   -0.0707 C   0  0  0  0  0  0  0  0  0  0  0  0
    0.9341   -1.1835   -0.0198 C   0  0  0  0  0  0  0  0  0  0  0  0
   -0.4037   -1.6192   -0.6387 C   0  0  0  0  0  0  0  0  0  0  0  0
   -1.0594   -0.9241    0.5333 C   0  0  0  0  0  0  0  0  0  0  0  0
    0.2318   -1.2018    1.3147 C   0  0  0  0  0  0  0  0  0  0  0  0
   -3.2771    0.4832    0.1005 H   0  0  0  0  0  0  0  0  0  0  0  0
   -2.5368    2.0881   -0.0578 H   0  0  0  0  0  0  0  0  0  0  0  0
   -2.3249    0.9339   -1.4212 H   0  0  0  0  0  0  0  0  0  0  0  0
   -1.2009    0.9961    1.4077 H   0  0  0  0  0  0  0  0  0  0  0  0
   -0.2746    1.6549   -1.2369 H   0  0  0  0  0  0  0  0  0  0  0  0
    0.4978    2.0011    0.3189 H   0  0  0  0  0  0  0  0  0  0  0  0
    1.2982    0.0965   -1.6613 H   0  0  0  0  0  0  0  0  0  0  0  0
    2.6773    0.6647    1.0034 H   0  0  0  0  0  0  0  0  0  0  0  0
    3.3255    0.2368   -0.6769 H   0  0  0  0  0  0  0  0  0  0  0  0
    2.5208    1.8334   -0.3739 H   0  0  0  0  0  0  0  0  0  0  0  0
    1.7578   -1.8699   -0.1638 H   0  0  0  0  0  0  0  0  0  0  0  0
   -0.5308   -2.6993   -0.5981 H   0  0  0  0  0  0  0  0  0  0  0  0
   -0.5683   -1.1543   -1.6242 H   0  0  0  0  0  0  0  0  0  0  0  0
   -1.9568   -1.3712    0.9384 H   0  0  0  0  0  0  0  0  0  0  0  0
    0.4635   -0.3953    2.0081 H   0  0  0  0  0  0  0  0  0  0  0  0
    0.1789   -2.2283    1.7055 H   0  0  0  0  0  0  0  0  0  0  0  0
  1  2  1  0
  2  3  1  0
  3  4  1  0
  4  5  1  0
  4  6  1  0
  6  7  1  0
  7  8  1  0
  8  9  1  0
  8  2  1  0
  9  6  1  0
  1 10  1  0
  1 11  1  0
  1 12  1  0
  2 13  1  0
  3 14  1  0
  3 15  1  0
  4 16  1  0
  5 17  1  0
  5 18  1  0
  5 19  1  0
  6 20  1  0
  7 21  1  0
  7 22  1  0
  8 23  1  0
  9 24  1  0
  9 25  1  0
M  END
