
     RDKit          3D

 20 21  0  0  0  0  0  0  0  0999 V2000
   -2.6014    0.4555    0.2149 C   0  0  0  0  0  0  0  0  0  0  0  0
   -1.2725    0.4699   -0.4461 C   0  0  0  0  0  0  0  0  0  0  0  0
   -0.6319   -0.9133   -0.6502 C   0  0  0  0  0  0  0  0  0  0  0  0
    0.6486   -0.2550   -0.3621 C   0  0  0  0  0  0  0  0  0  0  0  0
    1.7861   -0.9693    0.2030 C   0  0  0  0  0  0  0  0  0  0  0  0
    2.4996    0.2179   -0.4656 C   0  0  0  0  0  0  0  0  0  0  0  0
    1.4138    0.2315   -1.3757 O   0  0  0  0  0  0  0  0  0  0  0  0
   -0.0856    0.7382    0.4919 C   0  0  0  0  0  0  0  0  0  0  0  0
   -2.7406   -0.4195    0.8511 H   0  0  0  0  0  0  0  0  0  0  0  0
   -2.6613    1.3810    0.8620 H   0  0  0  0  0  0  0  0  0  0  0  0
   -3.3805    0.5604   -0.5714 H   0  0  0  0  0  0  0  0  0  0  0  0
   -1.1467    1.0667   -1.3464 H   0  0  0  0  0  0  0  0  0  0  0  0
   -0.8141   -1.3589   -1.6279 H   0  0  0  0  0  0  0  0  0  0  0  0
   -0.9511   -1.5666    0.2104 H   0  0  0  0  0  0  0  0  0  0  0  0
    2.0551   -1.8780   -0.3594 H   0  0  0  0  0  0  0  0  0  0  0  0
    1.9104   -1.0149    1.2908 H   0  0  0  0  0  0  0  0  0  0  0  0
    2.4325    1.1559    0.1328 H   0  0  0  0  0  0  0  0  0  0  0  0
    3.4669   -0.0205   -0.9051 H   0  0  0  0  0  0  0  0  0  0  0  0
    0.3414    1.7353    0.4212 H   0  0  0  0  0  0  0  0  0  0  0  0
   -0.2688    0.3837    1.5343 H   0  0  0  0  0  0  0  0  0  0  0  0
  1  2  1  0
  2  3  1  0
  3  4  1  0
  4  5  1  0
  5  6  1  0
  6  7  1  0
  4  8  1  0
  8  2  1  0
  7  4  1  0
  1  9  1  0
  1 10  1  0
  1 11  1  0
  2 12  1  0
  3 13  1  0
  3 14  1  0
  5 15  1  0
  5 16  1  0
  6 17  1  0
  6 18  1  0
  8 19  1  0
  8 20  1  0
M  END
