
     RDKit          3D

 19 19  0  0  0  0  0  0  0  0999 V2000
   -1.7162   -0.8736    0.2386 C   0  0  0  0  0  0  0  0  0  0  0  0
   -0.7999   -0.1800   -0.7180 C   0  0  0  0  0  0  0  0  0  0  0  0
    0.5711   -0.7867   -0.7941 C   0  0  0  0  0  0  0  0  0  0  0  0
    1.3503   -0.0749    0.2585 C   0  0  0  0  0  0  0  0  0  0  0  0
    2.5791   -0.5500    0.8719 C   0  0  0  0  0  0  0  0  0  0  0  0
    3.1162   -1.6430    0.5602 O   0  0  0  0  0  0  0  0  0  0  0  0
    0.7541    1.0579    0.5519 C   0  0  0  0  0  0  0  0  0  0  0  0
   -0.4789    1.2350   -0.2600 C   0  0  0  0  0  0  0  0  0  0  0  0
   -1.4763    1.7980    0.4920 O   0  0  0  0  0  0  0  0  0  0  0  0
   -2.7410   -0.4659    0.0752 H   0  0  0  0  0  0  0  0  0  0  0  0
   -1.4411   -0.7154    1.2993 H   0  0  0  0  0  0  0  0  0  0  0  0
   -1.7579   -1.9434   -0.0072 H   0  0  0  0  0  0  0  0  0  0  0  0
   -1.2619   -0.1859   -1.7192 H   0  0  0  0  0  0  0  0  0  0  0  0
    0.5952   -1.8670   -0.6924 H   0  0  0  0  0  0  0  0  0  0  0  0
    1.0102   -0.4591   -1.7704 H   0  0  0  0  0  0  0  0  0  0  0  0
    3.0761    0.0355    1.6293 H   0  0  0  0  0  0  0  0  0  0  0  0
    1.0925    1.7701    1.2730 H   0  0  0  0  0  0  0  0  0  0  0  0
   -0.2339    1.8090   -1.1830 H   0  0  0  0  0  0  0  0  0  0  0  0
   -2.2376    2.0394   -0.1056 H   0  0  0  0  0  0  0  0  0  0  0  0
  1  2  1  0
  2  3  1  0
  3  4  1  0
  4  5  1  0
  5  6  2  0
  4  7  2  0
  7  8  1  0
  8  9  1  0
  8  2  1  0
  1 10  1  0
  1 11  1  0
  1 12  1  0
  2 13  1  0
  3 14  1  0
  3 15  1  0
  5 16  1  0
  7 17  1  0
  8 18  1  0
  9 19  1  0
M  END
