
     RDKit          3D

 20 21  0  0  0  0  0  0  0  0999 V2000
   -2.3924   -0.0654   -0.3558 C   0  0  0  0  0  0  0  0  0  0  0  0
   -0.9387   -0.5542   -0.4605 C   0  0  0  0  0  0  0  0  0  0  0  0
   -0.5436   -0.9825    0.8825 C   0  0  0  0  0  0  0  0  0  0  0  0
    0.2592   -0.0567    1.3806 C   0  0  0  0  0  0  0  0  0  0  0  0
    0.4829    1.0660    0.4441 C   0  0  0  0  0  0  0  0  0  0  0  0
    1.3272    0.7186   -0.7377 C   0  0  0  0  0  0  0  0  0  0  0  0
    2.2510   -0.4703   -0.6848 C   0  0  0  0  0  0  0  0  0  0  0  0
   -0.1214    0.5910   -0.8914 C   0  0  0  0  0  0  0  0  0  0  0  0
   -2.7233    0.3641   -1.3292 H   0  0  0  0  0  0  0  0  0  0  0  0
   -3.0571   -0.8420    0.0359 H   0  0  0  0  0  0  0  0  0  0  0  0
   -2.4158    0.7873    0.3825 H   0  0  0  0  0  0  0  0  0  0  0  0
   -0.9520   -1.3819   -1.2019 H   0  0  0  0  0  0  0  0  0  0  0  0
   -0.8745   -1.9139    1.3592 H   0  0  0  0  0  0  0  0  0  0  0  0
    0.6966   -0.1244    2.3630 H   0  0  0  0  0  0  0  0  0  0  0  0
    0.2313    2.0919    0.7072 H   0  0  0  0  0  0  0  0  0  0  0  0
    1.7907    1.6033   -1.2212 H   0  0  0  0  0  0  0  0  0  0  0  0
    1.9165   -1.2695   -0.0214 H   0  0  0  0  0  0  0  0  0  0  0  0
    2.4783   -0.8100   -1.7230 H   0  0  0  0  0  0  0  0  0  0  0  0
    3.2417   -0.1067   -0.2858 H   0  0  0  0  0  0  0  0  0  0  0  0
   -0.6566    1.3553   -1.5126 H   0  0  0  0  0  0  0  0  0  0  0  0
  1  2  1  0
  2  3  1  0
  3  4  2  0
  4  5  1  0
  5  6  1  0
  6  7  1  0
  6  8  1  0
  8  2  1  0
  8  5  1  0
  1  9  1  0
  1 10  1  0
  1 11  1  0
  2 12  1  0
  3 13  1  0
  4 14  1  0
  5 15  1  0
  6 16  1  0
  7 17  1  0
  7 18  1  0
  7 19  1  0
  8 20  1  0
M  END
