
     RDKit          3D

 19 20  0  0  0  0  0  0  0  0999 V2000
    2.3579   -0.3748    0.1006 C   0  0  0  0  0  0  0  0  0  0  0  0
    1.0416    0.2938    0.3397 C   0  0  0  0  0  0  0  0  0  0  0  0
    0.7135    1.4128   -0.6048 C   0  0  0  0  0  0  0  0  0  0  0  0
    1.3715    2.3976   -0.9024 O   0  0  0  0  0  0  0  0  0  0  0  0
   -0.5857    0.7812   -0.9085 C   0  0  0  0  0  0  0  0  0  0  0  0
   -1.6609    1.1929   -0.1384 O   0  0  0  0  0  0  0  0  0  0  0  0
   -2.3144    0.0189    0.2046 C   0  0  0  0  0  0  0  0  0  0  0  0
   -1.1511   -0.7980    0.7838 C   0  0  0  0  0  0  0  0  0  0  0  0
   -0.0849   -0.4954   -0.2437 C   0  0  0  0  0  0  0  0  0  0  0  0
    3.0213   -0.3515    1.0125 H   0  0  0  0  0  0  0  0  0  0  0  0
    2.2271   -1.4556   -0.1323 H   0  0  0  0  0  0  0  0  0  0  0  0
    2.9069    0.0568   -0.7855 H   0  0  0  0  0  0  0  0  0  0  0  0
    0.8463    0.6336    1.3744 H   0  0  0  0  0  0  0  0  0  0  0  0
   -0.8086    0.6180   -1.9867 H   0  0  0  0  0  0  0  0  0  0  0  0
   -3.1067    0.1470    0.9378 H   0  0  0  0  0  0  0  0  0  0  0  0
   -2.6148   -0.5181   -0.7188 H   0  0  0  0  0  0  0  0  0  0  0  0
   -1.4095   -1.8769    0.8284 H   0  0  0  0  0  0  0  0  0  0  0  0
   -0.9255   -0.3728    1.7686 H   0  0  0  0  0  0  0  0  0  0  0  0
    0.1759   -1.3095   -0.9293 H   0  0  0  0  0  0  0  0  0  0  0  0
  1  2  1  0
  2  3  1  0
  3  4  2  0
  3  5  1  0
  5  6  1  0
  6  7  1  0
  7  8  1  0
  8  9  1  0
  9  2  1  0
  9  5  1  0
  1 10  1  0
  1 11  1  0
  1 12  1  0
  2 13  1  0
  5 14  1  0
  7 15  1  0
  7 16  1  0
  8 17  1  0
  8 18  1  0
  9 19  1  0
M  END
