
     RDKit          3D

 21 22  0  0  0  0  0  0  0  0999 V2000
    2.1272   -0.5861    0.2367 C   0  0  0  0  0  0  0  0  0  0  0  0
    0.8691    0.1991    0.1888 C   0  0  0  0  0  0  0  0  0  0  0  0
   -0.2741   -0.4392    0.9634 C   0  0  0  0  0  0  0  0  0  0  0  0
   -1.2998    0.6777    1.0995 C   0  0  0  0  0  0  0  0  0  0  0  0
   -1.8276    0.8962   -0.1558 O   0  0  0  0  0  0  0  0  0  0  0  0
   -0.9095    1.2189   -1.1199 C   0  0  0  0  0  0  0  0  0  0  0  0
    0.2250    0.2192   -1.1944 C   0  0  0  0  0  0  0  0  0  0  0  0
   -0.3150   -1.0596   -1.2858 O   0  0  0  0  0  0  0  0  0  0  0  0
   -0.8185   -1.4049   -0.0612 C   0  0  0  0  0  0  0  0  0  0  0  0
    2.0189   -1.6672    0.2798 H   0  0  0  0  0  0  0  0  0  0  0  0
    2.7460   -0.1785    1.0877 H   0  0  0  0  0  0  0  0  0  0  0  0
    2.7262   -0.3049   -0.6800 H   0  0  0  0  0  0  0  0  0  0  0  0
    1.0333    1.2332    0.5254 H   0  0  0  0  0  0  0  0  0  0  0  0
    0.0209   -0.8850    1.9020 H   0  0  0  0  0  0  0  0  0  0  0  0
   -0.7417    1.5823    1.4091 H   0  0  0  0  0  0  0  0  0  0  0  0
   -2.0806    0.3675    1.7854 H   0  0  0  0  0  0  0  0  0  0  0  0
   -1.4325    1.2299   -2.0979 H   0  0  0  0  0  0  0  0  0  0  0  0
   -0.4280    2.2218   -0.9560 H   0  0  0  0  0  0  0  0  0  0  0  0
    0.9171    0.4516   -1.9916 H   0  0  0  0  0  0  0  0  0  0  0  0
   -1.9408   -1.3071   -0.1278 H   0  0  0  0  0  0  0  0  0  0  0  0
   -0.6155   -2.4649    0.1928 H   0  0  0  0  0  0  0  0  0  0  0  0
  1  2  1  0
  2  3  1  0
  3  4  1  0
  4  5  1  0
  5  6  1  0
  6  7  1  0
  7  8  1  0
  8  9  1  0
  7  2  1  0
  9  3  1  0
  1 10  1  0
  1 11  1  0
  1 12  1  0
  2 13  1  0
  3 14  1  0
  4 15  1  0
  4 16  1  0
  6 17  1  0
  6 18  1  0
  7 19  1  0
  9 20  1  0
  9 21  1  0
M  END
