
     RDKit          3D

 19 20  0  0  0  0  0  0  0  0999 V2000
   -2.2266    0.0813   -0.7249 C   0  0  0  0  0  0  0  0  0  0  0  0
   -0.8581    0.4079   -0.1413 C   0  0  0  0  0  0  0  0  0  0  0  0
   -0.7298   -0.4015    1.1228 C   0  0  0  0  0  0  0  0  0  0  0  0
    0.5719   -0.5508    1.6055 O   0  0  0  0  0  0  0  0  0  0  0  0
    1.3919    0.2245    0.8784 C   0  0  0  0  0  0  0  0  0  0  0  0
    2.5546   -0.0064    0.1007 C   0  0  0  0  0  0  0  0  0  0  0  0
    1.3895   -0.4884   -0.5261 C   0  0  0  0  0  0  0  0  0  0  0  0
    0.2294    0.1298   -1.1232 C   0  0  0  0  0  0  0  0  0  0  0  0
    0.1180    0.4025   -2.2713 O   0  0  0  0  0  0  0  0  0  0  0  0
   -2.9676    0.6076   -0.0713 H   0  0  0  0  0  0  0  0  0  0  0  0
   -2.3568    0.4904   -1.7331 H   0  0  0  0  0  0  0  0  0  0  0  0
   -2.4389   -0.9968   -0.6931 H   0  0  0  0  0  0  0  0  0  0  0  0
   -0.8530    1.5020    0.0434 H   0  0  0  0  0  0  0  0  0  0  0  0
   -1.2803    0.1608    1.9082 H   0  0  0  0  0  0  0  0  0  0  0  0
   -1.2449   -1.3716    1.0095 H   0  0  0  0  0  0  0  0  0  0  0  0
    1.0299    1.2949    0.9011 H   0  0  0  0  0  0  0  0  0  0  0  0
    3.3049   -0.7554    0.4919 H   0  0  0  0  0  0  0  0  0  0  0  0
    3.1340    0.8815   -0.2814 H   0  0  0  0  0  0  0  0  0  0  0  0
    1.2321   -1.6124   -0.4956 H   0  0  0  0  0  0  0  0  0  0  0  0
  1  2  1  0
  2  3  1  0
  3  4  1  0
  4  5  1  0
  5  6  1  0
  6  7  1  0
  7  8  1  0
  8  9  2  0
  8  2  1  0
  7  5  1  0
  1 10  1  0
  1 11  1  0
  1 12  1  0
  2 13  1  0
  3 14  1  0
  3 15  1  0
  5 16  1  0
  6 17  1  0
  6 18  1  0
  7 19  1  0
M  END
