
     RDKit          3D

 21 24  0  0  0  0  0  0  0  0999 V2000
    2.1666   -0.1991    0.4801 C   0  0  0  0  0  0  0  0  0  0  0  0
    1.0566    0.1316   -0.4523 C   0  0  0  0  0  0  0  0  0  0  0  0
    0.0462    1.1114    0.1632 C   0  0  0  0  0  0  0  0  0  0  0  0
   -0.8963    1.1675   -1.0532 C   0  0  0  0  0  0  0  0  0  0  0  0
   -1.1818   -0.3467   -1.0823 C   0  0  0  0  0  0  0  0  0  0  0  0
    0.0791   -1.0182   -0.6358 C   0  0  0  0  0  0  0  0  0  0  0  0
   -0.4944   -1.0983    0.7555 C   0  0  0  0  0  0  0  0  0  0  0  0
   -0.7426    0.2988    1.1169 C   0  0  0  0  0  0  0  0  0  0  0  0
   -1.7214   -0.5321    0.2868 C   0  0  0  0  0  0  0  0  0  0  0  0
    2.8938    0.6334    0.4606 H   0  0  0  0  0  0  0  0  0  0  0  0
    1.8373   -0.3372    1.5239 H   0  0  0  0  0  0  0  0  0  0  0  0
    2.6845   -1.0943    0.1117 H   0  0  0  0  0  0  0  0  0  0  0  0
    1.3987    0.5714   -1.3821 H   0  0  0  0  0  0  0  0  0  0  0  0
    0.4431    2.0402    0.4634 H   0  0  0  0  0  0  0  0  0  0  0  0
   -1.7913    1.7489   -0.8519 H   0  0  0  0  0  0  0  0  0  0  0  0
   -0.2967    1.4740   -1.9094 H   0  0  0  0  0  0  0  0  0  0  0  0
   -1.7071   -0.7134   -1.9357 H   0  0  0  0  0  0  0  0  0  0  0  0
    0.4185   -1.9035   -1.1157 H   0  0  0  0  0  0  0  0  0  0  0  0
   -0.3147   -1.9182    1.4197 H   0  0  0  0  0  0  0  0  0  0  0  0
   -1.1483    0.6609    2.0457 H   0  0  0  0  0  0  0  0  0  0  0  0
   -2.7299   -0.6771    0.5668 H   0  0  0  0  0  0  0  0  0  0  0  0
  1  2  1  0
  2  3  1  0
  3  4  1  0
  4  5  1  0
  5  6  1  0
  6  7  1  0
  7  8  1  0
  8  9  1  0
  6  2  1  0
  9  7  1  0
  8  3  1  0
  9  5  1  0
  1 10  1  0
  1 11  1  0
  1 12  1  0
  2 13  1  0
  3 14  1  0
  4 15  1  0
  4 16  1  0
  5 17  1  0
  6 18  1  0
  7 19  1  0
  8 20  1  0
  9 21  1  0
M  END
