
     RDKit          3D

 21 22  0  0  0  0  0  0  0  0999 V2000
    2.4126   -0.2157    0.5073 C   0  0  0  0  0  0  0  0  0  0  0  0
    1.4093   -0.1365   -0.5961 C   0  0  0  0  0  0  0  0  0  0  0  0
    0.6457    1.1715   -0.7600 C   0  0  0  0  0  0  0  0  0  0  0  0
   -0.0296   -0.0721   -0.3968 C   0  0  0  0  0  0  0  0  0  0  0  0
   -0.9908   -0.7448   -1.3054 C   0  0  0  0  0  0  0  0  0  0  0  0
   -2.2032   -0.7213   -0.7835 C   0  0  0  0  0  0  0  0  0  0  0  0
   -2.1476   -0.0125    0.5497 C   0  0  0  0  0  0  0  0  0  0  0  0
   -0.7068   -0.2893    0.9269 C   0  0  0  0  0  0  0  0  0  0  0  0
   -0.2389    0.4742    1.9490 O   0  0  0  0  0  0  0  0  0  0  0  0
    2.0026   -0.2001    1.5155 H   0  0  0  0  0  0  0  0  0  0  0  0
    2.9823   -1.1628    0.3854 H   0  0  0  0  0  0  0  0  0  0  0  0
    3.1750    0.6006    0.3565 H   0  0  0  0  0  0  0  0  0  0  0  0
    1.7608   -0.5689   -1.5685 H   0  0  0  0  0  0  0  0  0  0  0  0
    0.8720    1.9905   -0.0621 H   0  0  0  0  0  0  0  0  0  0  0  0
    0.4937    1.5563   -1.8106 H   0  0  0  0  0  0  0  0  0  0  0  0
   -0.7224   -1.1805   -2.2445 H   0  0  0  0  0  0  0  0  0  0  0  0
   -3.1373   -1.1141   -1.1672 H   0  0  0  0  0  0  0  0  0  0  0  0
   -2.8717   -0.3968    1.2579 H   0  0  0  0  0  0  0  0  0  0  0  0
   -2.2436    1.0830    0.3674 H   0  0  0  0  0  0  0  0  0  0  0  0
   -0.6230   -1.3866    1.1494 H   0  0  0  0  0  0  0  0  0  0  0  0
    0.1607    1.3259    1.7298 H   0  0  0  0  0  0  0  0  0  0  0  0
  1  2  1  0
  2  3  1  0
  3  4  1  0
  4  5  1  0
  5  6  2  0
  6  7  1  0
  7  8  1  0
  8  9  1  0
  4  2  1  0
  8  4  1  0
  1 10  1  0
  1 11  1  0
  1 12  1  0
  2 13  1  0
  3 14  1  0
  3 15  1  0
  5 16  1  0
  6 17  1  0
  7 18  1  0
  7 19  1  0
  8 20  1  0
  9 21  1  0
M  END
