
     RDKit          3D

 21 22  0  0  0  0  0  0  0  0999 V2000
    2.4322    0.0805    0.0026 C   0  0  0  0  0  0  0  0  0  0  0  0
    0.9827    0.2087   -0.4287 C   0  0  0  0  0  0  0  0  0  0  0  0
    0.4524   -1.1448   -0.6174 C   0  0  0  0  0  0  0  0  0  0  0  0
   -0.8180   -1.6032   -0.7214 C   0  0  0  0  0  0  0  0  0  0  0  0
   -1.9819   -0.7360   -0.6561 C   0  0  0  0  0  0  0  0  0  0  0  0
   -2.9457   -0.6333    0.2477 O   0  0  0  0  0  0  0  0  0  0  0  0
   -1.8462   -0.0730    0.7336 C   0  0  0  0  0  0  0  0  0  0  0  0
   -1.1821    1.1994    0.4392 C   0  0  0  0  0  0  0  0  0  0  0  0
    0.2962    1.0266    0.6165 C   0  0  0  0  0  0  0  0  0  0  0  0
    2.5126   -0.8486    0.6409 H   0  0  0  0  0  0  0  0  0  0  0  0
    3.1267    0.0769   -0.8330 H   0  0  0  0  0  0  0  0  0  0  0  0
    2.7199    0.9156    0.7059 H   0  0  0  0  0  0  0  0  0  0  0  0
    0.9986    0.7670   -1.4048 H   0  0  0  0  0  0  0  0  0  0  0  0
    1.1929   -1.9336   -0.6915 H   0  0  0  0  0  0  0  0  0  0  0  0
   -0.8730   -2.6664   -0.8561 H   0  0  0  0  0  0  0  0  0  0  0  0
   -2.0926   -0.0726   -1.5365 H   0  0  0  0  0  0  0  0  0  0  0  0
   -1.3509   -0.6690    1.5425 H   0  0  0  0  0  0  0  0  0  0  0  0
   -1.5027    2.0085    1.1304 H   0  0  0  0  0  0  0  0  0  0  0  0
   -1.3593    1.6013   -0.5874 H   0  0  0  0  0  0  0  0  0  0  0  0
    0.7892    2.0004    0.6761 H   0  0  0  0  0  0  0  0  0  0  0  0
    0.4492    0.4955    1.5973 H   0  0  0  0  0  0  0  0  0  0  0  0
  1  2  1  0
  2  3  1  0
  3  4  2  0
  4  5  1  0
  5  6  1  0
  6  7  1  0
  7  8  1  0
  8  9  1  0
  9  2  1  0
  7  5  1  0
  1 10  1  0
  1 11  1  0
  1 12  1  0
  2 13  1  0
  3 14  1  0
  4 15  1  0
  5 16  1  0
  7 17  1  0
  8 18  1  0
  8 19  1  0
  9 20  1  0
  9 21  1  0
M  END
