
     RDKit          3D

 25 26  0  0  0  0  0  0  0  0999 V2000
    2.1953   -0.2666    0.9903 C   0  0  0  0  0  0  0  0  0  0  0  0
    1.7304   -0.4756   -0.4206 C   0  0  0  0  0  0  0  0  0  0  0  0
    1.0030    0.6362   -1.1324 C   0  0  0  0  0  0  0  0  0  0  0  0
    0.4638    1.6848   -0.2338 C   0  0  0  0  0  0  0  0  0  0  0  0
   -0.7870    1.1190    0.3423 C   0  0  0  0  0  0  0  0  0  0  0  0
   -0.8601   -0.3157   -0.0650 C   0  0  0  0  0  0  0  0  0  0  0  0
   -2.1046   -0.4772   -0.9366 C   0  0  0  0  0  0  0  0  0  0  0  0
   -1.1168   -1.1649    1.1501 C   0  0  0  0  0  0  0  0  0  0  0  0
    0.3536   -0.6683   -0.8262 C   0  0  0  0  0  0  0  0  0  0  0  0
    1.5328    0.3060    1.6220 H   0  0  0  0  0  0  0  0  0  0  0  0
    2.4605   -1.2417    1.4256 H   0  0  0  0  0  0  0  0  0  0  0  0
    3.1643    0.3113    0.9186 H   0  0  0  0  0  0  0  0  0  0  0  0
    2.5202   -0.9356   -1.0518 H   0  0  0  0  0  0  0  0  0  0  0  0
    1.2725    0.9000   -2.1737 H   0  0  0  0  0  0  0  0  0  0  0  0
    1.1702    2.0118    0.5632 H   0  0  0  0  0  0  0  0  0  0  0  0
    0.2714    2.6187   -0.8382 H   0  0  0  0  0  0  0  0  0  0  0  0
   -1.6489    1.7309   -0.0571 H   0  0  0  0  0  0  0  0  0  0  0  0
   -0.8531    1.2651    1.4561 H   0  0  0  0  0  0  0  0  0  0  0  0
   -2.1566   -1.5494   -1.2630 H   0  0  0  0  0  0  0  0  0  0  0  0
   -2.9662   -0.2498   -0.2834 H   0  0  0  0  0  0  0  0  0  0  0  0
   -2.0035    0.1847   -1.7967 H   0  0  0  0  0  0  0  0  0  0  0  0
   -0.4824   -0.9400    2.0051 H   0  0  0  0  0  0  0  0  0  0  0  0
   -2.1722   -0.9263    1.4781 H   0  0  0  0  0  0  0  0  0  0  0  0
   -1.1518   -2.2549    0.9006 H   0  0  0  0  0  0  0  0  0  0  0  0
    0.1654   -1.3026   -1.7296 H   0  0  0  0  0  0  0  0  0  0  0  0
  1  2  1  0
  2  3  1  0
  3  4  1  0
  4  5  1  0
  5  6  1  0
  6  7  1  0
  6  8  1  0
  6  9  1  0
  9  2  1  0
  9  3  1  0
  1 10  1  0
  1 11  1  0
  1 12  1  0
  2 13  1  0
  3 14  1  0
  4 15  1  0
  4 16  1  0
  5 17  1  0
  5 18  1  0
  7 19  1  0
  7 20  1  0
  7 21  1  0
  8 22  1  0
  8 23  1  0
  8 24  1  0
  9 25  1  0
M  END
