
     RDKit          3D

 21 22  0  0  0  0  0  0  0  0999 V2000
    2.0245   -0.7029   -0.5490 C   0  0  0  0  0  0  0  0  0  0  0  0
    1.4939    0.3304    0.3997 C   0  0  0  0  0  0  0  0  0  0  0  0
    0.9139    1.5127   -0.2906 C   0  0  0  0  0  0  0  0  0  0  0  0
   -0.3992    1.3892   -0.3857 C   0  0  0  0  0  0  0  0  0  0  0  0
   -0.8103    0.1357    0.2205 C   0  0  0  0  0  0  0  0  0  0  0  0
   -2.2237   -0.0123    0.6595 C   0  0  0  0  0  0  0  0  0  0  0  0
   -2.2323   -1.2931    0.0874 O   0  0  0  0  0  0  0  0  0  0  0  0
   -1.2819   -0.8504   -0.8128 C   0  0  0  0  0  0  0  0  0  0  0  0
    0.2752   -0.2816    1.1134 C   0  0  0  0  0  0  0  0  0  0  0  0
    1.7725   -0.5072   -1.6086 H   0  0  0  0  0  0  0  0  0  0  0  0
    3.1455   -0.7489   -0.4607 H   0  0  0  0  0  0  0  0  0  0  0  0
    1.6664   -1.7348   -0.2965 H   0  0  0  0  0  0  0  0  0  0  0  0
    2.2600    0.6561    1.1353 H   0  0  0  0  0  0  0  0  0  0  0  0
    1.5046    2.3573   -0.6615 H   0  0  0  0  0  0  0  0  0  0  0  0
   -1.0572    2.1559   -0.8671 H   0  0  0  0  0  0  0  0  0  0  0  0
   -2.4335   -0.0408    1.7343 H   0  0  0  0  0  0  0  0  0  0  0  0
   -2.8903    0.6486    0.0547 H   0  0  0  0  0  0  0  0  0  0  0  0
   -1.7515   -0.2975   -1.6650 H   0  0  0  0  0  0  0  0  0  0  0  0
   -0.5602   -1.5754   -1.1801 H   0  0  0  0  0  0  0  0  0  0  0  0
    0.1849    0.2156    2.1062 H   0  0  0  0  0  0  0  0  0  0  0  0
    0.3985   -1.3567    1.2664 H   0  0  0  0  0  0  0  0  0  0  0  0
  1  2  1  0
  2  3  1  0
  3  4  2  0
  4  5  1  0
  5  6  1  0
  6  7  1  0
  7  8  1  0
  5  9  1  0
  9  2  1  0
  8  5  1  0
  1 10  1  0
  1 11  1  0
  1 12  1  0
  2 13  1  0
  3 14  1  0
  4 15  1  0
  6 16  1  0
  6 17  1  0
  8 18  1  0
  8 19  1  0
  9 20  1  0
  9 21  1  0
M  END
