
     RDKit          3D

 23 24  0  0  0  0  0  0  0  0999 V2000
   -2.8184   -0.6396   -0.0749 C   0  0  0  0  0  0  0  0  0  0  0  0
   -1.6084   -0.0813   -0.7745 C   0  0  0  0  0  0  0  0  0  0  0  0
   -0.9312    1.0109    0.0356 C   0  0  0  0  0  0  0  0  0  0  0  0
    0.0902    0.3050    0.9416 C   0  0  0  0  0  0  0  0  0  0  0  0
    1.1939   -0.1316    0.0461 C   0  0  0  0  0  0  0  0  0  0  0  0
    2.4988   -0.5894    0.4651 C   0  0  0  0  0  0  0  0  0  0  0  0
    2.3563    0.8463   -0.0397 C   0  0  0  0  0  0  0  0  0  0  0  0
    0.5888   -0.6474   -1.2407 C   0  0  0  0  0  0  0  0  0  0  0  0
   -0.7018   -1.1126   -0.9423 O   0  0  0  0  0  0  0  0  0  0  0  0
   -2.7742   -1.7534    0.0285 H   0  0  0  0  0  0  0  0  0  0  0  0
   -3.7245   -0.4226   -0.6788 H   0  0  0  0  0  0  0  0  0  0  0  0
   -2.9848   -0.1817    0.9133 H   0  0  0  0  0  0  0  0  0  0  0  0
   -1.8604    0.3238   -1.7799 H   0  0  0  0  0  0  0  0  0  0  0  0
   -1.6582    1.5875    0.6027 H   0  0  0  0  0  0  0  0  0  0  0  0
   -0.3257    1.6581   -0.6302 H   0  0  0  0  0  0  0  0  0  0  0  0
   -0.4646   -0.5090    1.4311 H   0  0  0  0  0  0  0  0  0  0  0  0
    0.4276    0.9885    1.7521 H   0  0  0  0  0  0  0  0  0  0  0  0
    3.0558   -1.2511   -0.2614 H   0  0  0  0  0  0  0  0  0  0  0  0
    2.8285   -0.7565    1.4989 H   0  0  0  0  0  0  0  0  0  0  0  0
    2.4542    1.6377    0.7188 H   0  0  0  0  0  0  0  0  0  0  0  0
    2.7098    1.0781   -1.0665 H   0  0  0  0  0  0  0  0  0  0  0  0
    1.1424   -1.5292   -1.6273 H   0  0  0  0  0  0  0  0  0  0  0  0
    0.5061    0.1697   -1.9937 H   0  0  0  0  0  0  0  0  0  0  0  0
  1  2  1  0
  2  3  1  0
  3  4  1  0
  4  5  1  0
  5  6  1  0
  6  7  1  0
  5  8  1  0
  8  9  1  0
  9  2  1  0
  7  5  1  0
  1 10  1  0
  1 11  1  0
  1 12  1  0
  2 13  1  0
  3 14  1  0
  3 15  1  0
  4 16  1  0
  4 17  1  0
  6 18  1  0
  6 19  1  0
  7 20  1  0
  7 21  1  0
  8 22  1  0
  8 23  1  0
M  END
