
     RDKit          3D

 15 15  0  0  0  0  0  0  0  0999 V2000
   -1.3045   -1.0667    0.0931 C   0  0  0  0  0  0  0  0  0  0  0  0
   -0.3667    0.0294    0.4792 C   0  0  0  0  0  0  0  0  0  0  0  0
   -0.6720    1.3828   -0.1635 C   0  0  0  0  0  0  0  0  0  0  0  0
    0.7251    1.5867   -0.1964 O   0  0  0  0  0  0  0  0  0  0  0  0
    0.8462    0.2127   -0.3981 C   0  0  0  0  0  0  0  0  0  0  0  0
    2.1032   -0.3535    0.1195 C   0  0  0  0  0  0  0  0  0  0  0  0
    2.3541   -1.5318    0.0196 O   0  0  0  0  0  0  0  0  0  0  0  0
   -0.8019   -1.9673   -0.3219 H   0  0  0  0  0  0  0  0  0  0  0  0
   -1.8548   -1.3724    1.0210 H   0  0  0  0  0  0  0  0  0  0  0  0
   -2.0704   -0.7006   -0.6370 H   0  0  0  0  0  0  0  0  0  0  0  0
   -0.1416    0.1661    1.5366 H   0  0  0  0  0  0  0  0  0  0  0  0
   -1.2066    2.0908    0.4928 H   0  0  0  0  0  0  0  0  0  0  0  0
   -1.0722    1.2705   -1.1834 H   0  0  0  0  0  0  0  0  0  0  0  0
    0.6346   -0.0274   -1.4626 H   0  0  0  0  0  0  0  0  0  0  0  0
    2.8275    0.2807    0.6010 H   0  0  0  0  0  0  0  0  0  0  0  0
  1  2  1  0
  2  3  1  0
  3  4  1  0
  4  5  1  0
  5  6  1  0
  6  7  2  0
  5  2  1  0
  1  8  1  0
  1  9  1  0
  1 10  1  0
  2 11  1  0
  3 12  1  0
  3 13  1  0
  5 14  1  0
  6 15  1  0
M  END
