
     RDKit          3D

 21 21  0  0  0  0  0  0  0  0999 V2000
    1.9085   -0.8127    0.0805 C   0  0  0  0  0  0  0  0  0  0  0  0
    0.5129   -0.5511   -0.4500 C   0  0  0  0  0  0  0  0  0  0  0  0
    0.4839    0.8659   -0.9544 C   0  0  0  0  0  0  0  0  0  0  0  0
    1.5688    1.5930   -0.4804 O   0  0  0  0  0  0  0  0  0  0  0  0
   -0.8101    1.4750   -0.5163 C   0  0  0  0  0  0  0  0  0  0  0  0
   -1.5265    0.4956    0.3445 C   0  0  0  0  0  0  0  0  0  0  0  0
   -0.5019   -0.5783    0.6578 C   0  0  0  0  0  0  0  0  0  0  0  0
   -1.2194   -1.8584    0.7739 C   0  0  0  0  0  0  0  0  0  0  0  0
   -1.8406   -2.2842   -0.1623 O   0  0  0  0  0  0  0  0  0  0  0  0
    2.6349   -0.3815   -0.6416 H   0  0  0  0  0  0  0  0  0  0  0  0
    2.0088   -0.2056    1.0078 H   0  0  0  0  0  0  0  0  0  0  0  0
    2.1067   -1.8761    0.2517 H   0  0  0  0  0  0  0  0  0  0  0  0
    0.2972   -1.2454   -1.2687 H   0  0  0  0  0  0  0  0  0  0  0  0
    0.5646    0.8818   -2.0719 H   0  0  0  0  0  0  0  0  0  0  0  0
    1.3472    2.0869    0.3607 H   0  0  0  0  0  0  0  0  0  0  0  0
   -0.6596    2.4502    0.0251 H   0  0  0  0  0  0  0  0  0  0  0  0
   -1.4477    1.7217   -1.4130 H   0  0  0  0  0  0  0  0  0  0  0  0
   -1.8443    0.9089    1.3339 H   0  0  0  0  0  0  0  0  0  0  0  0
   -2.4159    0.0614   -0.1626 H   0  0  0  0  0  0  0  0  0  0  0  0
    0.0230   -0.3369    1.5999 H   0  0  0  0  0  0  0  0  0  0  0  0
   -1.1906   -2.4102    1.6857 H   0  0  0  0  0  0  0  0  0  0  0  0
  1  2  1  0
  2  3  1  0
  3  4  1  0
  3  5  1  0
  5  6  1  0
  6  7  1  0
  7  8  1  0
  8  9  2  0
  7  2  1  0
  1 10  1  0
  1 11  1  0
  1 12  1  0
  2 13  1  0
  3 14  1  0
  4 15  1  0
  5 16  1  0
  5 17  1  0
  6 18  1  0
  6 19  1  0
  7 20  1  0
  8 21  1  0
M  END
