
     RDKit          3D

 17 17  0  0  0  0  0  0  0  0999 V2000
   -2.2011    0.3106    0.3631 C   0  0  0  0  0  0  0  0  0  0  0  0
   -0.7373   -0.0378    0.3616 C   0  0  0  0  0  0  0  0  0  0  0  0
   -0.4095   -1.1696   -0.5276 C   0  0  0  0  0  0  0  0  0  0  0  0
    0.7868   -0.9692   -1.0431 C   0  0  0  0  0  0  0  0  0  0  0  0
    1.3805    0.3200   -0.5505 C   0  0  0  0  0  0  0  0  0  0  0  0
    2.1270    0.1200    0.7082 C   0  0  0  0  0  0  0  0  0  0  0  0
    2.6009   -0.9481    1.0165 O   0  0  0  0  0  0  0  0  0  0  0  0
    0.1106    1.0453   -0.1871 C   0  0  0  0  0  0  0  0  0  0  0  0
   -0.1472    2.2087   -0.3118 O   0  0  0  0  0  0  0  0  0  0  0  0
   -2.3968    0.8304    1.3455 H   0  0  0  0  0  0  0  0  0  0  0  0
   -2.7971   -0.6130    0.3433 H   0  0  0  0  0  0  0  0  0  0  0  0
   -2.4226    1.0291   -0.4234 H   0  0  0  0  0  0  0  0  0  0  0  0
   -0.3534   -0.2472    1.3833 H   0  0  0  0  0  0  0  0  0  0  0  0
   -1.0269   -2.0569   -0.7557 H   0  0  0  0  0  0  0  0  0  0  0  0
    1.3148   -1.6264   -1.7398 H   0  0  0  0  0  0  0  0  0  0  0  0
    1.9362    0.8110   -1.3435 H   0  0  0  0  0  0  0  0  0  0  0  0
    2.2350    0.9933    1.3609 H   0  0  0  0  0  0  0  0  0  0  0  0
  1  2  1  0
  2  3  1  0
  3  4  2  0
  4  5  1  0
  5  6  1  0
  6  7  2  0
  5  8  1  0
  8  9  2  0
  8  2  1  0
  1 10  1  0
  1 11  1  0
  1 12  1  0
  2 13  1  0
  3 14  1  0
  4 15  1  0
  5 16  1  0
  6 17  1  0
M  END
