
     RDKit          3D

 21 21  0  0  0  0  0  0  0  0999 V2000
   -0.7681    2.1309    0.3485 C   0  0  0  0  0  0  0  0  0  0  0  0
   -0.2365    0.7260    0.4482 C   0  0  0  0  0  0  0  0  0  0  0  0
    1.2117    0.6762    0.2261 C   0  0  0  0  0  0  0  0  0  0  0  0
    1.5147   -0.4897   -0.3105 C   0  0  0  0  0  0  0  0  0  0  0  0
    2.8461   -0.9301   -0.6809 C   0  0  0  0  0  0  0  0  0  0  0  0
    3.0492   -2.0598   -1.1884 O   0  0  0  0  0  0  0  0  0  0  0  0
    0.2703   -1.3202   -0.5044 C   0  0  0  0  0  0  0  0  0  0  0  0
   -0.7929   -0.2039   -0.5709 C   0  0  0  0  0  0  0  0  0  0  0  0
   -2.0889   -0.8514   -0.1345 C   0  0  0  0  0  0  0  0  0  0  0  0
   -0.4101    2.6503   -0.5439 H   0  0  0  0  0  0  0  0  0  0  0  0
   -1.8528    2.1633    0.3727 H   0  0  0  0  0  0  0  0  0  0  0  0
   -0.3841    2.6947    1.2272 H   0  0  0  0  0  0  0  0  0  0  0  0
   -0.4452    0.3086    1.4506 H   0  0  0  0  0  0  0  0  0  0  0  0
    1.8923    1.4956    0.4793 H   0  0  0  0  0  0  0  0  0  0  0  0
    3.7047   -0.2908   -0.5277 H   0  0  0  0  0  0  0  0  0  0  0  0
    0.1070   -1.9568    0.3653 H   0  0  0  0  0  0  0  0  0  0  0  0
    0.3574   -1.8449   -1.4549 H   0  0  0  0  0  0  0  0  0  0  0  0
   -0.8553    0.2019   -1.5916 H   0  0  0  0  0  0  0  0  0  0  0  0
   -2.3744   -1.5747   -0.9301 H   0  0  0  0  0  0  0  0  0  0  0  0
   -2.8856   -0.1119    0.0108 H   0  0  0  0  0  0  0  0  0  0  0  0
   -1.8597   -1.4133    0.7974 H   0  0  0  0  0  0  0  0  0  0  0  0
  1  2  1  0
  2  3  1  0
  3  4  2  0
  4  5  1  0
  5  6  2  0
  4  7  1  0
  7  8  1  0
  8  9  1  0
  8  2  1  0
  1 10  1  0
  1 11  1  0
  1 12  1  0
  2 13  1  0
  3 14  1  0
  5 15  1  0
  7 16  1  0
  7 17  1  0
  8 18  1  0
  9 19  1  0
  9 20  1  0
  9 21  1  0
M  END
