
     RDKit          3D

 23 24  0  0  0  0  0  0  0  0999 V2000
    1.1909    0.5314   -1.9090 C   0  0  0  0  0  0  0  0  0  0  0  0
    1.2409    0.6439   -0.4245 C   0  0  0  0  0  0  0  0  0  0  0  0
    1.0523   -0.5398    0.4524 C   0  0  0  0  0  0  0  0  0  0  0  0
    1.9377   -0.6925    1.6684 C   0  0  0  0  0  0  0  0  0  0  0  0
    0.0392    0.5516    0.4106 C   0  0  0  0  0  0  0  0  0  0  0  0
   -1.3437    0.3033   -0.0734 C   0  0  0  0  0  0  0  0  0  0  0  0
   -2.4213    0.2705    1.0120 C   0  0  0  0  0  0  0  0  0  0  0  0
   -1.6148   -0.6764   -1.1972 C   0  0  0  0  0  0  0  0  0  0  0  0
   -1.8039    0.6832   -1.3032 O   0  0  0  0  0  0  0  0  0  0  0  0
    1.9936    1.1818   -2.3773 H   0  0  0  0  0  0  0  0  0  0  0  0
    1.4284   -0.4842   -2.2876 H   0  0  0  0  0  0  0  0  0  0  0  0
    0.2527    0.9577   -2.3164 H   0  0  0  0  0  0  0  0  0  0  0  0
    2.0679    1.3333   -0.0650 H   0  0  0  0  0  0  0  0  0  0  0  0
    0.7420   -1.5250    0.0180 H   0  0  0  0  0  0  0  0  0  0  0  0
    2.9238   -0.2250    1.5379 H   0  0  0  0  0  0  0  0  0  0  0  0
    1.4368   -0.1506    2.5192 H   0  0  0  0  0  0  0  0  0  0  0  0
    2.0028   -1.7526    2.0139 H   0  0  0  0  0  0  0  0  0  0  0  0
    0.0494    1.1840    1.3540 H   0  0  0  0  0  0  0  0  0  0  0  0
   -2.2552    1.1852    1.6209 H   0  0  0  0  0  0  0  0  0  0  0  0
   -2.1348   -0.5859    1.6748 H   0  0  0  0  0  0  0  0  0  0  0  0
   -3.4281    0.1890    0.6046 H   0  0  0  0  0  0  0  0  0  0  0  0
   -2.5548   -1.2653   -1.1637 H   0  0  0  0  0  0  0  0  0  0  0  0
   -0.8018   -1.1176   -1.7694 H   0  0  0  0  0  0  0  0  0  0  0  0
  1  2  1  0
  2  3  1  0
  3  4  1  0
  3  5  1  0
  5  6  1  0
  6  7  1  0
  6  8  1  0
  8  9  1  0
  5  2  1  0
  9  6  1  0
  1 10  1  0
  1 11  1  0
  1 12  1  0
  2 13  1  0
  3 14  1  0
  4 15  1  0
  4 16  1  0
  4 17  1  0
  5 18  1  0
  7 19  1  0
  7 20  1  0
  7 21  1  0
  8 22  1  0
  8 23  1  0
M  END
