
     RDKit          3D

 21 22  0  0  0  0  0  0  0  0999 V2000
   -2.3837    0.3107   -0.3349 C   0  0  0  0  0  0  0  0  0  0  0  0
   -1.0853    0.3389    0.3458 C   0  0  0  0  0  0  0  0  0  0  0  0
    0.0028    1.1031   -0.4340 C   0  0  0  0  0  0  0  0  0  0  0  0
    1.1208    0.1177   -0.2573 C   0  0  0  0  0  0  0  0  0  0  0  0
    2.4409    0.4342   -0.6674 C   0  0  0  0  0  0  0  0  0  0  0  0
    3.1255    1.2195   -0.0722 O   0  0  0  0  0  0  0  0  0  0  0  0
    0.4707   -1.1621   -0.7327 C   0  0  0  0  0  0  0  0  0  0  0  0
   -0.3917   -0.9630    0.5218 C   0  0  0  0  0  0  0  0  0  0  0  0
    0.9193   -0.4638    1.1527 C   0  0  0  0  0  0  0  0  0  0  0  0
   -2.5495    1.2702   -0.8802 H   0  0  0  0  0  0  0  0  0  0  0  0
   -2.5731   -0.5712   -0.9756 H   0  0  0  0  0  0  0  0  0  0  0  0
   -3.1959    0.2832    0.4488 H   0  0  0  0  0  0  0  0  0  0  0  0
   -1.1485    0.8557    1.3280 H   0  0  0  0  0  0  0  0  0  0  0  0
    0.1927    2.0902    0.0014 H   0  0  0  0  0  0  0  0  0  0  0  0
   -0.2993    1.0995   -1.4799 H   0  0  0  0  0  0  0  0  0  0  0  0
    2.8806   -0.0374   -1.5546 H   0  0  0  0  0  0  0  0  0  0  0  0
   -0.1015   -1.0929   -1.6622 H   0  0  0  0  0  0  0  0  0  0  0  0
    1.0634   -2.0728   -0.6425 H   0  0  0  0  0  0  0  0  0  0  0  0
   -0.8561   -1.8059    0.9491 H   0  0  0  0  0  0  0  0  0  0  0  0
    1.6427   -1.2476    1.3777 H   0  0  0  0  0  0  0  0  0  0  0  0
    0.7254    0.2936    1.9142 H   0  0  0  0  0  0  0  0  0  0  0  0
  1  2  1  0
  2  3  1  0
  3  4  1  0
  4  5  1  0
  5  6  2  0
  4  7  1  0
  7  8  1  0
  8  9  1  0
  8  2  1  0
  9  4  1  0
  1 10  1  0
  1 11  1  0
  1 12  1  0
  2 13  1  0
  3 14  1  0
  3 15  1  0
  5 16  1  0
  7 17  1  0
  7 18  1  0
  8 19  1  0
  9 20  1  0
  9 21  1  0
M  END
