
     RDKit          3D

 23 24  0  0  0  0  0  0  0  0999 V2000
   -2.6392   -0.6962   -0.6593 C   0  0  0  0  0  0  0  0  0  0  0  0
   -1.6316   -0.2623    0.3322 C   0  0  0  0  0  0  0  0  0  0  0  0
   -0.2764   -0.9786    0.2346 C   0  0  0  0  0  0  0  0  0  0  0  0
    0.3169    0.3539    0.6827 C   0  0  0  0  0  0  0  0  0  0  0  0
    1.6451    0.6579    0.1109 C   0  0  0  0  0  0  0  0  0  0  0  0
    2.7265   -0.3897    0.4701 C   0  0  0  0  0  0  0  0  0  0  0  0
    2.3091   -0.1214   -0.9299 C   0  0  0  0  0  0  0  0  0  0  0  0
   -0.8797    1.0154    0.0330 C   0  0  0  0  0  0  0  0  0  0  0  0
   -1.2983    2.0944    0.8102 O   0  0  0  0  0  0  0  0  0  0  0  0
   -3.0021    0.0641   -1.3472 H   0  0  0  0  0  0  0  0  0  0  0  0
   -3.5195   -1.1169   -0.0907 H   0  0  0  0  0  0  0  0  0  0  0  0
   -2.2238   -1.5962   -1.2006 H   0  0  0  0  0  0  0  0  0  0  0  0
   -1.9346   -0.2576    1.4038 H   0  0  0  0  0  0  0  0  0  0  0  0
   -0.0792   -1.1978   -0.8170 H   0  0  0  0  0  0  0  0  0  0  0  0
   -0.1619   -1.8045    0.9491 H   0  0  0  0  0  0  0  0  0  0  0  0
    0.3012    0.4339    1.7719 H   0  0  0  0  0  0  0  0  0  0  0  0
    1.9881    1.7113    0.2629 H   0  0  0  0  0  0  0  0  0  0  0  0
    2.3903   -1.3449    0.8916 H   0  0  0  0  0  0  0  0  0  0  0  0
    3.6640   -0.0149    0.8915 H   0  0  0  0  0  0  0  0  0  0  0  0
    3.0951    0.4052   -1.5398 H   0  0  0  0  0  0  0  0  0  0  0  0
    1.8145   -0.9179   -1.5218 H   0  0  0  0  0  0  0  0  0  0  0  0
   -0.7420    1.2538   -1.0332 H   0  0  0  0  0  0  0  0  0  0  0  0
   -1.8625    2.7089    0.2952 H   0  0  0  0  0  0  0  0  0  0  0  0
  1  2  1  0
  2  3  1  0
  3  4  1  0
  4  5  1  0
  5  6  1  0
  6  7  1  0
  4  8  1  0
  8  9  1  0
  8  2  1  0
  7  5  1  0
  1 10  1  0
  1 11  1  0
  1 12  1  0
  2 13  1  0
  3 14  1  0
  3 15  1  0
  4 16  1  0
  5 17  1  0
  6 18  1  0
  6 19  1  0
  7 20  1  0
  7 21  1  0
  8 22  1  0
  9 23  1  0
M  END
