
     RDKit          3D

 21 21  0  0  0  0  0  0  0  0999 V2000
   -2.1309   -0.4849    0.1977 C   0  0  0  0  0  0  0  0  0  0  0  0
   -0.6374   -0.3605    0.5311 C   0  0  0  0  0  0  0  0  0  0  0  0
    0.0044   -1.6415    0.0820 C   0  0  0  0  0  0  0  0  0  0  0  0
    1.3461   -1.7220    0.3088 O   0  0  0  0  0  0  0  0  0  0  0  0
    2.0532   -0.5636    0.1046 C   0  0  0  0  0  0  0  0  0  0  0  0
    1.7816    0.3941    1.0708 O   0  0  0  0  0  0  0  0  0  0  0  0
    1.0213    1.4385    0.5723 C   0  0  0  0  0  0  0  0  0  0  0  0
   -0.1304    0.8423   -0.1942 C   0  0  0  0  0  0  0  0  0  0  0  0
   -1.1547    1.8129   -0.1940 O   0  0  0  0  0  0  0  0  0  0  0  0
   -2.2016   -0.2502   -0.9008 H   0  0  0  0  0  0  0  0  0  0  0  0
   -2.7308    0.1888    0.8187 H   0  0  0  0  0  0  0  0  0  0  0  0
   -2.4794   -1.5208    0.3262 H   0  0  0  0  0  0  0  0  0  0  0  0
   -0.5419   -0.2503    1.6227 H   0  0  0  0  0  0  0  0  0  0  0  0
   -0.3026   -1.8565   -0.9698 H   0  0  0  0  0  0  0  0  0  0  0  0
   -0.4842   -2.4639    0.6848 H   0  0  0  0  0  0  0  0  0  0  0  0
    1.9790   -0.1539   -0.9211 H   0  0  0  0  0  0  0  0  0  0  0  0
    3.1445   -0.8275    0.2308 H   0  0  0  0  0  0  0  0  0  0  0  0
    0.5923    1.9704    1.4594 H   0  0  0  0  0  0  0  0  0  0  0  0
    1.6012    2.1719   -0.0130 H   0  0  0  0  0  0  0  0  0  0  0  0
    0.1055    0.5911   -1.2323 H   0  0  0  0  0  0  0  0  0  0  0  0
   -0.8354    2.6856    0.1104 H   0  0  0  0  0  0  0  0  0  0  0  0
  1  2  1  0
  2  3  1  0
  3  4  1  0
  4  5  1  0
  5  6  1  0
  6  7  1  0
  7  8  1  0
  8  9  1  0
  8  2  1  0
  1 10  1  0
  1 11  1  0
  1 12  1  0
  2 13  1  0
  3 14  1  0
  3 15  1  0
  5 16  1  0
  5 17  1  0
  7 18  1  0
  7 19  1  0
  8 20  1  0
  9 21  1  0
M  END
