
     RDKit          3D

 19 21  0  0  0  0  0  0  0  0999 V2000
    2.2991    0.1693    0.1572 C   0  0  0  0  0  0  0  0  0  0  0  0
    0.7834    0.0642    0.2572 C   0  0  0  0  0  0  0  0  0  0  0  0
    0.1060    1.1526   -0.5469 C   0  0  0  0  0  0  0  0  0  0  0  0
   -0.5015    2.1230    0.2213 O   0  0  0  0  0  0  0  0  0  0  0  0
   -1.3241    1.1546   -0.3306 C   0  0  0  0  0  0  0  0  0  0  0  0
   -1.7386   -0.0396    0.4991 C   0  0  0  0  0  0  0  0  0  0  0  0
   -1.1832   -1.3364   -0.0584 C   0  0  0  0  0  0  0  0  0  0  0  0
   -0.3360   -2.1041    0.7230 O   0  0  0  0  0  0  0  0  0  0  0  0
    0.2681   -1.2563   -0.2365 C   0  0  0  0  0  0  0  0  0  0  0  0
    2.8103   -0.2243    1.0467 H   0  0  0  0  0  0  0  0  0  0  0  0
    2.6666   -0.2572   -0.7963 H   0  0  0  0  0  0  0  0  0  0  0  0
    2.5427    1.2616    0.1120 H   0  0  0  0  0  0  0  0  0  0  0  0
    0.5520    0.1518    1.3496 H   0  0  0  0  0  0  0  0  0  0  0  0
    0.5039    1.3546   -1.5391 H   0  0  0  0  0  0  0  0  0  0  0  0
   -2.0725    1.5806   -1.0429 H   0  0  0  0  0  0  0  0  0  0  0  0
   -2.8519   -0.1204    0.4173 H   0  0  0  0  0  0  0  0  0  0  0  0
   -1.4911    0.0638    1.5614 H   0  0  0  0  0  0  0  0  0  0  0  0
   -1.8105   -1.9416   -0.7470 H   0  0  0  0  0  0  0  0  0  0  0  0
    0.7775   -1.7963   -1.0471 H   0  0  0  0  0  0  0  0  0  0  0  0
  1  2  1  0
  2  3  1  0
  3  4  1  0
  4  5  1  0
  5  6  1  0
  6  7  1  0
  7  8  1  0
  8  9  1  0
  9  2  1  0
  5  3  1  0
  9  7  1  0
  1 10  1  0
  1 11  1  0
  1 12  1  0
  2 13  1  0
  3 14  1  0
  5 15  1  0
  6 16  1  0
  6 17  1  0
  7 18  1  0
  9 19  1  0
M  END
