
     RDKit          3D

 23 24  0  0  0  0  0  0  0  0999 V2000
   -2.3478    1.1578   -0.3484 C   0  0  0  0  0  0  0  0  0  0  0  0
   -1.3864    0.2272    0.3327 C   0  0  0  0  0  0  0  0  0  0  0  0
   -1.4308   -1.1737   -0.2303 C   0  0  0  0  0  0  0  0  0  0  0  0
   -0.0709   -1.7262    0.1262 C   0  0  0  0  0  0  0  0  0  0  0  0
    0.7609   -0.6026    0.6421 C   0  0  0  0  0  0  0  0  0  0  0  0
    2.1436   -0.5076    0.0458 C   0  0  0  0  0  0  0  0  0  0  0  0
    2.2586    1.0028   -0.1197 C   0  0  0  0  0  0  0  0  0  0  0  0
    0.8597    1.4753   -0.2946 C   0  0  0  0  0  0  0  0  0  0  0  0
    0.0220    0.5796    0.1342 C   0  0  0  0  0  0  0  0  0  0  0  0
   -2.1263    1.2291   -1.4313 H   0  0  0  0  0  0  0  0  0  0  0  0
   -2.1871    2.1678    0.0824 H   0  0  0  0  0  0  0  0  0  0  0  0
   -3.3653    0.8500   -0.1081 H   0  0  0  0  0  0  0  0  0  0  0  0
   -1.6001    0.2371    1.4184 H   0  0  0  0  0  0  0  0  0  0  0  0
   -2.2581   -1.7702    0.1795 H   0  0  0  0  0  0  0  0  0  0  0  0
   -1.5224   -1.0721   -1.3406 H   0  0  0  0  0  0  0  0  0  0  0  0
   -0.1564   -2.4932    0.9476 H   0  0  0  0  0  0  0  0  0  0  0  0
    0.3743   -2.1957   -0.7823 H   0  0  0  0  0  0  0  0  0  0  0  0
    0.8243   -0.5837    1.7596 H   0  0  0  0  0  0  0  0  0  0  0  0
    2.1347   -1.0393   -0.9148 H   0  0  0  0  0  0  0  0  0  0  0  0
    2.9017   -0.9026    0.7576 H   0  0  0  0  0  0  0  0  0  0  0  0
    2.9065    1.2727   -0.9693 H   0  0  0  0  0  0  0  0  0  0  0  0
    2.6174    1.3923    0.8548 H   0  0  0  0  0  0  0  0  0  0  0  0
    0.6477    2.4752   -0.7413 H   0  0  0  0  0  0  0  0  0  0  0  0
  1  2  1  0
  2  3  1  0
  3  4  1  0
  4  5  1  0
  5  6  1  0
  6  7  1  0
  7  8  1  0
  8  9  2  0
  9  2  1  0
  9  5  1  0
  1 10  1  0
  1 11  1  0
  1 12  1  0
  2 13  1  0
  3 14  1  0
  3 15  1  0
  4 16  1  0
  4 17  1  0
  5 18  1  0
  6 19  1  0
  6 20  1  0
  7 21  1  0
  7 22  1  0
  8 23  1  0
M  END
