
     RDKit          3D

 19 20  0  0  0  0  0  0  0  0999 V2000
   -2.0104    0.0191   -0.8354 C   0  0  0  0  0  0  0  0  0  0  0  0
   -0.9384   -0.4918    0.0853 C   0  0  0  0  0  0  0  0  0  0  0  0
    0.2910   -0.8869   -0.6706 C   0  0  0  0  0  0  0  0  0  0  0  0
    1.4015   -0.6177    0.3068 C   0  0  0  0  0  0  0  0  0  0  0  0
    1.9626    0.7905    0.2029 C   0  0  0  0  0  0  0  0  0  0  0  0
    0.9818    0.4352    1.2418 C   0  0  0  0  0  0  0  0  0  0  0  0
   -0.4875    0.5861    1.0394 C   0  0  0  0  0  0  0  0  0  0  0  0
   -2.7061    0.6498   -0.2539 H   0  0  0  0  0  0  0  0  0  0  0  0
   -1.5843    0.6318   -1.6674 H   0  0  0  0  0  0  0  0  0  0  0  0
   -2.5103   -0.8715   -1.2917 H   0  0  0  0  0  0  0  0  0  0  0  0
   -1.3039   -1.4070    0.6175 H   0  0  0  0  0  0  0  0  0  0  0  0
    0.3169   -1.9405   -0.9830 H   0  0  0  0  0  0  0  0  0  0  0  0
    0.3887   -0.2270   -1.5680 H   0  0  0  0  0  0  0  0  0  0  0  0
    2.0261   -1.4333    0.6790 H   0  0  0  0  0  0  0  0  0  0  0  0
    3.0115    0.8753    0.4699 H   0  0  0  0  0  0  0  0  0  0  0  0
    1.6404    1.4466   -0.6190 H   0  0  0  0  0  0  0  0  0  0  0  0
    1.3417    0.4729    2.2841 H   0  0  0  0  0  0  0  0  0  0  0  0
   -1.0118    0.3799    2.0109 H   0  0  0  0  0  0  0  0  0  0  0  0
   -0.8094    1.5886    0.7144 H   0  0  0  0  0  0  0  0  0  0  0  0
  1  2  1  0
  2  3  1  0
  3  4  1  0
  4  5  1  0
  5  6  1  0
  6  7  1  0
  7  2  1  0
  6  4  1  0
  1  8  1  0
  1  9  1  0
  1 10  1  0
  2 11  1  0
  3 12  1  0
  3 13  1  0
  4 14  1  0
  5 15  1  0
  5 16  1  0
  6 17  1  0
  7 18  1  0
  7 19  1  0
M  END
