
     RDKit          3D

 21 23  0  0  0  0  0  0  0  0999 V2000
   -2.4720    0.1064    0.3896 C   0  0  0  0  0  0  0  0  0  0  0  0
   -1.3112   -0.3975   -0.4628 C   0  0  0  0  0  0  0  0  0  0  0  0
   -0.2136   -0.9949    0.2547 C   0  0  0  0  0  0  0  0  0  0  0  0
    1.0398   -0.4352    0.8114 C   0  0  0  0  0  0  0  0  0  0  0  0
    2.3656   -0.3427    0.2539 C   0  0  0  0  0  0  0  0  0  0  0  0
    1.3112   -0.2088   -0.7229 C   0  0  0  0  0  0  0  0  0  0  0  0
    1.2565   -1.2974   -1.5810 O   0  0  0  0  0  0  0  0  0  0  0  0
   -0.0647    0.3308   -0.5734 C   0  0  0  0  0  0  0  0  0  0  0  0
   -0.1068    1.6491    0.1158 C   0  0  0  0  0  0  0  0  0  0  0  0
   -3.1911   -0.7639    0.4397 H   0  0  0  0  0  0  0  0  0  0  0  0
   -2.1817    0.3183    1.4183 H   0  0  0  0  0  0  0  0  0  0  0  0
   -2.9863    0.9030   -0.1437 H   0  0  0  0  0  0  0  0  0  0  0  0
   -1.7163   -0.7617   -1.4496 H   0  0  0  0  0  0  0  0  0  0  0  0
    0.0821   -1.9588   -0.2560 H   0  0  0  0  0  0  0  0  0  0  0  0
    0.8042    0.4436    1.4351 H   0  0  0  0  0  0  0  0  0  0  0  0
    3.0265    0.5597    0.3719 H   0  0  0  0  0  0  0  0  0  0  0  0
    3.0000   -1.2733    0.3609 H   0  0  0  0  0  0  0  0  0  0  0  0
    1.7986   -2.0591   -1.3517 H   0  0  0  0  0  0  0  0  0  0  0  0
   -0.7342    1.7000    1.0145 H   0  0  0  0  0  0  0  0  0  0  0  0
    0.8946    2.1156    0.2864 H   0  0  0  0  0  0  0  0  0  0  0  0
   -0.6012    2.3668   -0.6110 H   0  0  0  0  0  0  0  0  0  0  0  0
  1  2  1  0
  2  3  1  0
  3  4  1  0
  4  5  1  0
  5  6  1  0
  6  7  1  0
  6  8  1  0
  8  9  1  0
  8  2  1  0
  8  3  1  0
  6  4  1  0
  1 10  1  0
  1 11  1  0
  1 12  1  0
  2 13  1  0
  3 14  1  0
  4 15  1  0
  5 16  1  0
  5 17  1  0
  7 18  1  0
  9 19  1  0
  9 20  1  0
  9 21  1  0
M  END
