
     RDKit          3D

 18 19  0  0  0  0  0  0  0  0999 V2000
    1.4191   -1.1364    0.7512 C   0  0  0  0  0  0  0  0  0  0  0  0
    0.4503   -0.7127   -0.3451 C   0  0  0  0  0  0  0  0  0  0  0  0
    1.0474    0.4786   -0.9977 C   0  0  0  0  0  0  0  0  0  0  0  0
    0.5481    1.5697   -0.4379 C   0  0  0  0  0  0  0  0  0  0  0  0
   -0.4379    1.2118    0.6495 C   0  0  0  0  0  0  0  0  0  0  0  0
   -0.7896   -0.1841    0.2470 C   0  0  0  0  0  0  0  0  0  0  0  0
   -2.0640   -0.4582   -0.5222 C   0  0  0  0  0  0  0  0  0  0  0  0
   -1.7793   -0.9078    0.7957 O   0  0  0  0  0  0  0  0  0  0  0  0
    0.8327   -1.7518    1.4578 H   0  0  0  0  0  0  0  0  0  0  0  0
    2.2702   -1.7002    0.3647 H   0  0  0  0  0  0  0  0  0  0  0  0
    1.7843   -0.2098    1.2586 H   0  0  0  0  0  0  0  0  0  0  0  0
    0.2659   -1.5392   -1.0621 H   0  0  0  0  0  0  0  0  0  0  0  0
    1.7778    0.4840   -1.8056 H   0  0  0  0  0  0  0  0  0  0  0  0
    0.7731    2.6086   -0.6791 H   0  0  0  0  0  0  0  0  0  0  0  0
    0.0705    1.3041    1.6080 H   0  0  0  0  0  0  0  0  0  0  0  0
   -1.3352    1.8415    0.5977 H   0  0  0  0  0  0  0  0  0  0  0  0
   -2.0575   -1.2726   -1.2653 H   0  0  0  0  0  0  0  0  0  0  0  0
   -2.7758    0.3744   -0.6153 H   0  0  0  0  0  0  0  0  0  0  0  0
  1  2  1  0
  2  3  1  0
  3  4  2  0
  4  5  1  0
  5  6  1  0
  6  7  1  0
  7  8  1  0
  6  2  1  0
  8  6  1  0
  1  9  1  0
  1 10  1  0
  1 11  1  0
  2 12  1  0
  3 13  1  0
  4 14  1  0
  5 15  1  0
  5 16  1  0
  7 17  1  0
  7 18  1  0
M  END
