
     RDKit          3D

 21 21  0  0  0  0  0  0  0  0999 V2000
   -1.2663    1.3736   -0.7303 C   0  0  0  0  0  0  0  0  0  0  0  0
   -0.2144    0.8816    0.2068 C   0  0  0  0  0  0  0  0  0  0  0  0
    1.0754    1.5267   -0.0824 C   0  0  0  0  0  0  0  0  0  0  0  0
    2.0421    0.6466    0.1258 C   0  0  0  0  0  0  0  0  0  0  0  0
    1.4962   -0.6286    0.5606 C   0  0  0  0  0  0  0  0  0  0  0  0
    2.1135   -1.5619    1.1186 O   0  0  0  0  0  0  0  0  0  0  0  0
    0.0377   -0.5684    0.1899 C   0  0  0  0  0  0  0  0  0  0  0  0
   -0.7590   -1.2250    1.3127 C   0  0  0  0  0  0  0  0  0  0  0  0
   -0.1518   -1.2585   -1.1096 C   0  0  0  0  0  0  0  0  0  0  0  0
   -1.3998    2.4736   -0.5230 H   0  0  0  0  0  0  0  0  0  0  0  0
   -2.2605    0.9257   -0.4691 H   0  0  0  0  0  0  0  0  0  0  0  0
   -1.0276    1.2966   -1.7880 H   0  0  0  0  0  0  0  0  0  0  0  0
   -0.5110    1.1860    1.2365 H   0  0  0  0  0  0  0  0  0  0  0  0
    1.1502    2.5560   -0.4083 H   0  0  0  0  0  0  0  0  0  0  0  0
    3.0857    0.8577   -0.0113 H   0  0  0  0  0  0  0  0  0  0  0  0
   -1.8148   -0.8514    1.2281 H   0  0  0  0  0  0  0  0  0  0  0  0
   -0.3628   -0.8235    2.2718 H   0  0  0  0  0  0  0  0  0  0  0  0
   -0.7098   -2.3271    1.2557 H   0  0  0  0  0  0  0  0  0  0  0  0
   -1.0195   -1.9806   -1.0964 H   0  0  0  0  0  0  0  0  0  0  0  0
    0.7376   -1.9219   -1.3220 H   0  0  0  0  0  0  0  0  0  0  0  0
   -0.2411   -0.5773   -1.9661 H   0  0  0  0  0  0  0  0  0  0  0  0
  1  2  1  0
  2  3  1  0
  3  4  2  0
  4  5  1  0
  5  6  2  0
  5  7  1  0
  7  8  1  0
  7  9  1  0
  7  2  1  0
  1 10  1  0
  1 11  1  0
  1 12  1  0
  2 13  1  0
  3 14  1  0
  4 15  1  0
  8 16  1  0
  8 17  1  0
  8 18  1  0
  9 19  1  0
  9 20  1  0
  9 21  1  0
M  END
