
     RDKit          3D

 19 19  0  0  0  0  0  0  0  0999 V2000
   -1.9617   -0.4436    0.0159 C   0  0  0  0  0  0  0  0  0  0  0  0
   -0.8220    0.2390    0.7353 C   0  0  0  0  0  0  0  0  0  0  0  0
    0.2394   -0.7858    0.9015 C   0  0  0  0  0  0  0  0  0  0  0  0
    1.1936   -0.6439    0.0098 C   0  0  0  0  0  0  0  0  0  0  0  0
    2.3586   -1.4879   -0.0834 C   0  0  0  0  0  0  0  0  0  0  0  0
    2.5579   -2.4509    0.7016 O   0  0  0  0  0  0  0  0  0  0  0  0
    0.8754    0.5096   -0.8621 C   0  0  0  0  0  0  0  0  0  0  0  0
   -0.1617    1.2976   -0.0810 C   0  0  0  0  0  0  0  0  0  0  0  0
   -1.0045    2.0249   -0.8774 O   0  0  0  0  0  0  0  0  0  0  0  0
   -1.5495   -1.0816   -0.7990 H   0  0  0  0  0  0  0  0  0  0  0  0
   -2.7257    0.2713   -0.3505 H   0  0  0  0  0  0  0  0  0  0  0  0
   -2.4189   -1.1444    0.7467 H   0  0  0  0  0  0  0  0  0  0  0  0
   -1.1137    0.5695    1.7540 H   0  0  0  0  0  0  0  0  0  0  0  0
    0.2111   -1.5461    1.6684 H   0  0  0  0  0  0  0  0  0  0  0  0
    3.1295   -1.3401   -0.8364 H   0  0  0  0  0  0  0  0  0  0  0  0
    1.7656    1.1209   -1.1169 H   0  0  0  0  0  0  0  0  0  0  0  0
    0.4330    0.1839   -1.8400 H   0  0  0  0  0  0  0  0  0  0  0  0
    0.4039    1.9657    0.6064 H   0  0  0  0  0  0  0  0  0  0  0  0
   -1.4106    2.7421   -0.2927 H   0  0  0  0  0  0  0  0  0  0  0  0
  1  2  1  0
  2  3  1  0
  3  4  2  0
  4  5  1  0
  5  6  2  0
  4  7  1  0
  7  8  1  0
  8  9  1  0
  8  2  1  0
  1 10  1  0
  1 11  1  0
  1 12  1  0
  2 13  1  0
  3 14  1  0
  5 15  1  0
  7 16  1  0
  7 17  1  0
  8 18  1  0
  9 19  1  0
M  END
