
     RDKit          3D

 21 22  0  0  0  0  0  0  0  0999 V2000
   -2.6775   -0.3786   -0.1370 C   0  0  0  0  0  0  0  0  0  0  0  0
   -1.3077    0.1655   -0.3149 C   0  0  0  0  0  0  0  0  0  0  0  0
   -0.4957   -0.6114   -1.3622 C   0  0  0  0  0  0  0  0  0  0  0  0
    0.8483   -0.6261   -0.6576 C   0  0  0  0  0  0  0  0  0  0  0  0
    0.4182   -1.0847    0.6137 O   0  0  0  0  0  0  0  0  0  0  0  0
   -0.4248    0.0185    0.8980 C   0  0  0  0  0  0  0  0  0  0  0  0
    0.5112    1.0533    0.8594 O   0  0  0  0  0  0  0  0  0  0  0  0
    1.2860    0.7641   -0.2884 C   0  0  0  0  0  0  0  0  0  0  0  0
    2.7211    0.6620    0.2102 C   0  0  0  0  0  0  0  0  0  0  0  0
   -2.9150   -1.2195   -0.7987 H   0  0  0  0  0  0  0  0  0  0  0  0
   -2.8855   -0.6964    0.9208 H   0  0  0  0  0  0  0  0  0  0  0  0
   -3.4019    0.4560   -0.3689 H   0  0  0  0  0  0  0  0  0  0  0  0
   -1.2907    1.2242   -0.6748 H   0  0  0  0  0  0  0  0  0  0  0  0
   -0.4802   -0.1140   -2.3279 H   0  0  0  0  0  0  0  0  0  0  0  0
   -0.8876   -1.6314   -1.3480 H   0  0  0  0  0  0  0  0  0  0  0  0
    1.5929   -1.2515   -1.1117 H   0  0  0  0  0  0  0  0  0  0  0  0
   -0.9419   -0.0723    1.8376 H   0  0  0  0  0  0  0  0  0  0  0  0
    1.1559    1.5059   -1.0737 H   0  0  0  0  0  0  0  0  0  0  0  0
    3.2057   -0.2229   -0.2733 H   0  0  0  0  0  0  0  0  0  0  0  0
    2.7556    0.4499    1.3073 H   0  0  0  0  0  0  0  0  0  0  0  0
    3.2137    1.6095   -0.0044 H   0  0  0  0  0  0  0  0  0  0  0  0
  1  2  1  0
  2  3  1  0
  3  4  1  0
  4  5  1  0
  5  6  1  0
  6  7  1  0
  7  8  1  0
  8  9  1  0
  6  2  1  0
  8  4  1  0
  1 10  1  0
  1 11  1  0
  1 12  1  0
  2 13  1  0
  3 14  1  0
  3 15  1  0
  4 16  1  0
  6 17  1  0
  8 18  1  0
  9 19  1  0
  9 20  1  0
  9 21  1  0
M  END
