
     RDKit          3D

 23 24  0  0  0  0  0  0  0  0999 V2000
   -2.4026   -0.5922    0.4389 C   0  0  0  0  0  0  0  0  0  0  0  0
   -1.0191   -0.4259   -0.1293 C   0  0  0  0  0  0  0  0  0  0  0  0
   -0.7975    0.8268   -0.9438 C   0  0  0  0  0  0  0  0  0  0  0  0
    0.6563    0.6163   -1.3624 C   0  0  0  0  0  0  0  0  0  0  0  0
    1.2365    0.2049   -0.0187 C   0  0  0  0  0  0  0  0  0  0  0  0
    1.8319   -1.1568   -0.0007 C   0  0  0  0  0  0  0  0  0  0  0  0
    2.3243   -1.3911    1.3019 O   0  0  0  0  0  0  0  0  0  0  0  0
   -0.0184    0.2113    0.8058 C   0  0  0  0  0  0  0  0  0  0  0  0
   -0.6216    1.5345    0.3748 C   0  0  0  0  0  0  0  0  0  0  0  0
   -2.6526    0.1074    1.2351 H   0  0  0  0  0  0  0  0  0  0  0  0
   -2.4343   -1.6290    0.8752 H   0  0  0  0  0  0  0  0  0  0  0  0
   -3.1257   -0.6140   -0.4034 H   0  0  0  0  0  0  0  0  0  0  0  0
   -0.7183   -1.2982   -0.6969 H   0  0  0  0  0  0  0  0  0  0  0  0
   -1.5057    1.1482   -1.6495 H   0  0  0  0  0  0  0  0  0  0  0  0
    0.7131   -0.2016   -2.0945 H   0  0  0  0  0  0  0  0  0  0  0  0
    1.1310    1.5453   -1.7071 H   0  0  0  0  0  0  0  0  0  0  0  0
    1.9433    0.9677    0.3680 H   0  0  0  0  0  0  0  0  0  0  0  0
    2.6958   -1.2616   -0.7150 H   0  0  0  0  0  0  0  0  0  0  0  0
    1.1118   -1.9734   -0.1816 H   0  0  0  0  0  0  0  0  0  0  0  0
    3.0563   -0.7383    1.5126 H   0  0  0  0  0  0  0  0  0  0  0  0
   -0.0036   -0.0486    1.8255 H   0  0  0  0  0  0  0  0  0  0  0  0
    0.1200    2.3546    0.2486 H   0  0  0  0  0  0  0  0  0  0  0  0
   -1.5209    1.8137    0.9165 H   0  0  0  0  0  0  0  0  0  0  0  0
  1  2  1  0
  2  3  1  0
  3  4  1  0
  4  5  1  0
  5  6  1  0
  6  7  1  0
  5  8  1  0
  8  9  1  0
  8  2  1  0
  9  3  1  0
  1 10  1  0
  1 11  1  0
  1 12  1  0
  2 13  1  0
  3 14  1  0
  4 15  1  0
  4 16  1  0
  5 17  1  0
  6 18  1  0
  6 19  1  0
  7 20  1  0
  8 21  1  0
  9 22  1  0
  9 23  1  0
M  END
