
     RDKit          3D

 21 22  0  0  0  0  0  0  0  0999 V2000
   -2.1951   -0.3832    0.1479 C   0  0  0  0  0  0  0  0  0  0  0  0
   -0.9044   -0.0107    0.8413 C   0  0  0  0  0  0  0  0  0  0  0  0
    0.0506   -1.2059    0.9827 C   0  0  0  0  0  0  0  0  0  0  0  0
    0.5222   -0.8588   -0.4393 C   0  0  0  0  0  0  0  0  0  0  0  0
    1.9571   -1.0688   -0.6646 C   0  0  0  0  0  0  0  0  0  0  0  0
    2.3431   -2.1066   -1.1966 O   0  0  0  0  0  0  0  0  0  0  0  0
    0.0896    0.5138   -0.1313 C   0  0  0  0  0  0  0  0  0  0  0  0
    0.0435    1.6662   -0.9436 C   0  0  0  0  0  0  0  0  0  0  0  0
    1.0178    1.5832    0.2282 C   0  0  0  0  0  0  0  0  0  0  0  0
   -2.4528    0.3246   -0.6672 H   0  0  0  0  0  0  0  0  0  0  0  0
   -3.0499   -0.4181    0.8710 H   0  0  0  0  0  0  0  0  0  0  0  0
   -2.0366   -1.3671   -0.3426 H   0  0  0  0  0  0  0  0  0  0  0  0
   -1.0367    0.5255    1.7894 H   0  0  0  0  0  0  0  0  0  0  0  0
   -0.4254   -2.1715    1.0853 H   0  0  0  0  0  0  0  0  0  0  0  0
    0.8507   -0.9269    1.6806 H   0  0  0  0  0  0  0  0  0  0  0  0
   -0.0950   -1.4537   -1.1484 H   0  0  0  0  0  0  0  0  0  0  0  0
    2.7322   -0.3655   -0.3940 H   0  0  0  0  0  0  0  0  0  0  0  0
   -0.7865    2.4103   -0.8834 H   0  0  0  0  0  0  0  0  0  0  0  0
    0.5048    1.6300   -1.9703 H   0  0  0  0  0  0  0  0  0  0  0  0
    2.0962    1.5334   -0.0003 H   0  0  0  0  0  0  0  0  0  0  0  0
    0.7746    2.1498    1.1551 H   0  0  0  0  0  0  0  0  0  0  0  0
  1  2  1  0
  2  3  1  0
  3  4  1  0
  4  5  1  0
  5  6  2  0
  4  7  1  0
  7  8  1  0
  8  9  1  0
  7  2  1  0
  9  7  1  0
  1 10  1  0
  1 11  1  0
  1 12  1  0
  2 13  1  0
  3 14  1  0
  3 15  1  0
  4 16  1  0
  5 17  1  0
  8 18  1  0
  8 19  1  0
  9 20  1  0
  9 21  1  0
M  END
