
     RDKit          3D

 23 23  0  0  0  0  0  0  0  0999 V2000
   -1.8870   -1.2789    0.2663 C   0  0  0  0  0  0  0  0  0  0  0  0
   -0.5292   -0.6855    0.4752 C   0  0  0  0  0  0  0  0  0  0  0  0
    0.5482   -1.2024   -0.4879 C   0  0  0  0  0  0  0  0  0  0  0  0
   -0.0279   -1.4097   -1.7275 O   0  0  0  0  0  0  0  0  0  0  0  0
    1.1062    0.2274   -0.4398 C   0  0  0  0  0  0  0  0  0  0  0  0
    2.0075    0.4896    0.7294 C   0  0  0  0  0  0  0  0  0  0  0  0
   -0.3133    0.6625   -0.2297 C   0  0  0  0  0  0  0  0  0  0  0  0
   -0.5421    1.8193    0.6749 C   0  0  0  0  0  0  0  0  0  0  0  0
   -1.0021    0.6595   -1.4355 O   0  0  0  0  0  0  0  0  0  0  0  0
   -1.7925   -2.3298   -0.0318 H   0  0  0  0  0  0  0  0  0  0  0  0
   -2.4899   -1.1745    1.1802 H   0  0  0  0  0  0  0  0  0  0  0  0
   -2.3991   -0.6763   -0.5178 H   0  0  0  0  0  0  0  0  0  0  0  0
   -0.2255   -0.6923    1.5324 H   0  0  0  0  0  0  0  0  0  0  0  0
    1.2000   -1.9698   -0.0906 H   0  0  0  0  0  0  0  0  0  0  0  0
    0.4004   -2.1484   -2.1894 H   0  0  0  0  0  0  0  0  0  0  0  0
    1.5863    0.5028   -1.3804 H   0  0  0  0  0  0  0  0  0  0  0  0
    1.7092   -0.0545    1.6522 H   0  0  0  0  0  0  0  0  0  0  0  0
    2.0067    1.6013    0.8931 H   0  0  0  0  0  0  0  0  0  0  0  0
    3.0468    0.2023    0.4824 H   0  0  0  0  0  0  0  0  0  0  0  0
   -0.3771    1.4834    1.7239 H   0  0  0  0  0  0  0  0  0  0  0  0
    0.1227    2.6885    0.4518 H   0  0  0  0  0  0  0  0  0  0  0  0
   -1.6158    2.0982    0.6134 H   0  0  0  0  0  0  0  0  0  0  0  0
   -0.5325    1.1873   -2.1450 H   0  0  0  0  0  0  0  0  0  0  0  0
  1  2  1  0
  2  3  1  0
  3  4  1  0
  3  5  1  0
  5  6  1  0
  5  7  1  0
  7  8  1  0
  7  9  1  0
  7  2  1  0
  1 10  1  0
  1 11  1  0
  1 12  1  0
  2 13  1  0
  3 14  1  0
  4 15  1  0
  5 16  1  0
  6 17  1  0
  6 18  1  0
  6 19  1  0
  8 20  1  0
  8 21  1  0
  8 22  1  0
  9 23  1  0
M  END
