
     RDKit          3D

 18 19  0  0  0  0  0  0  0  0999 V2000
    2.0779   -0.0049   -0.1041 C   0  0  0  0  0  0  0  0  0  0  0  0
    0.6929   -0.5679    0.1715 C   0  0  0  0  0  0  0  0  0  0  0  0
   -0.0026    0.3956    1.1007 C   0  0  0  0  0  0  0  0  0  0  0  0
   -1.1712    1.1033    0.5026 C   0  0  0  0  0  0  0  0  0  0  0  0
   -1.9366    0.4597   -0.3679 C   0  0  0  0  0  0  0  0  0  0  0  0
   -1.5059   -0.8996   -0.6242 C   0  0  0  0  0  0  0  0  0  0  0  0
   -0.8906   -1.4864   -1.6195 O   0  0  0  0  0  0  0  0  0  0  0  0
   -0.0473   -0.6273   -1.0862 C   0  0  0  0  0  0  0  0  0  0  0  0
    2.8230   -0.8026   -0.2827 H   0  0  0  0  0  0  0  0  0  0  0  0
    2.0232    0.6339   -1.0140 H   0  0  0  0  0  0  0  0  0  0  0  0
    2.4227    0.6640    0.7140 H   0  0  0  0  0  0  0  0  0  0  0  0
    0.8185   -1.5846    0.6298 H   0  0  0  0  0  0  0  0  0  0  0  0
   -0.3434   -0.2269    1.9854 H   0  0  0  0  0  0  0  0  0  0  0  0
    0.7070    1.1710    1.4924 H   0  0  0  0  0  0  0  0  0  0  0  0
   -1.3903    2.1553    0.7871 H   0  0  0  0  0  0  0  0  0  0  0  0
   -2.7864    0.9010   -0.8334 H   0  0  0  0  0  0  0  0  0  0  0  0
   -1.6217   -1.5500    0.2887 H   0  0  0  0  0  0  0  0  0  0  0  0
    0.1307    0.2664   -1.7400 H   0  0  0  0  0  0  0  0  0  0  0  0
  1  2  1  0
  2  3  1  0
  3  4  1  0
  4  5  2  0
  5  6  1  0
  6  7  1  0
  7  8  1  0
  8  2  1  0
  8  6  1  0
  1  9  1  0
  1 10  1  0
  1 11  1  0
  2 12  1  0
  3 13  1  0
  3 14  1  0
  4 15  1  0
  5 16  1  0
  6 17  1  0
  8 18  1  0
M  END
