
     RDKit          3D

 18 19  0  0  0  0  0  0  0  0999 V2000
   -1.6990   -0.7178   -0.4747 C   0  0  0  0  0  0  0  0  0  0  0  0
   -0.6432   -0.1626    0.4274 C   0  0  0  0  0  0  0  0  0  0  0  0
   -0.3137    1.2911    0.1644 C   0  0  0  0  0  0  0  0  0  0  0  0
   -0.4849    2.1367    1.2635 O   0  0  0  0  0  0  0  0  0  0  0  0
    1.1427    0.9172   -0.0004 C   0  0  0  0  0  0  0  0  0  0  0  0
    0.7654   -0.5142    0.1495 C   0  0  0  0  0  0  0  0  0  0  0  0
    1.3275   -1.6143   -0.4320 C   0  0  0  0  0  0  0  0  0  0  0  0
    1.4894   -1.3256    1.0196 O   0  0  0  0  0  0  0  0  0  0  0  0
   -2.6793   -0.6542    0.0633 H   0  0  0  0  0  0  0  0  0  0  0  0
   -1.7624   -0.1268   -1.4149 H   0  0  0  0  0  0  0  0  0  0  0  0
   -1.5370   -1.8000   -0.6633 H   0  0  0  0  0  0  0  0  0  0  0  0
   -0.9013   -0.3886    1.5028 H   0  0  0  0  0  0  0  0  0  0  0  0
   -0.7336    1.6712   -0.7859 H   0  0  0  0  0  0  0  0  0  0  0  0
   -0.3983    3.0684    0.8894 H   0  0  0  0  0  0  0  0  0  0  0  0
    1.7770    1.2368    0.8697 H   0  0  0  0  0  0  0  0  0  0  0  0
    1.5638    1.1341   -0.9948 H   0  0  0  0  0  0  0  0  0  0  0  0
    0.7833   -2.5690   -0.6101 H   0  0  0  0  0  0  0  0  0  0  0  0
    2.3035   -1.5824   -0.9736 H   0  0  0  0  0  0  0  0  0  0  0  0
  1  2  1  0
  2  3  1  0
  3  4  1  0
  3  5  1  0
  5  6  1  0
  6  7  1  0
  7  8  1  0
  6  2  1  0
  8  6  1  0
  1  9  1  0
  1 10  1  0
  1 11  1  0
  2 12  1  0
  3 13  1  0
  4 14  1  0
  5 15  1  0
  5 16  1  0
  7 17  1  0
  7 18  1  0
M  END
