
     RDKit          3D

 21 22  0  0  0  0  0  0  0  0999 V2000
   -2.3630    0.2984    0.0903 C   0  0  0  0  0  0  0  0  0  0  0  0
   -1.2209   -0.2934   -0.6815 C   0  0  0  0  0  0  0  0  0  0  0  0
   -0.1847    0.7411   -0.9354 C   0  0  0  0  0  0  0  0  0  0  0  0
   -0.1940    1.6961   -1.6380 O   0  0  0  0  0  0  0  0  0  0  0  0
    0.9223    0.2912   -0.0700 C   0  0  0  0  0  0  0  0  0  0  0  0
    2.1291    1.0587    0.0673 C   0  0  0  0  0  0  0  0  0  0  0  0
    0.2236   -0.2304    1.1879 C   0  0  0  0  0  0  0  0  0  0  0  0
   -0.3950   -1.2130    0.1879 C   0  0  0  0  0  0  0  0  0  0  0  0
    0.9974   -1.1766   -0.4641 C   0  0  0  0  0  0  0  0  0  0  0  0
   -3.2411    0.5466   -0.5306 H   0  0  0  0  0  0  0  0  0  0  0  0
   -2.7050   -0.4748    0.8143 H   0  0  0  0  0  0  0  0  0  0  0  0
   -2.0823    1.2532    0.6144 H   0  0  0  0  0  0  0  0  0  0  0  0
   -1.5840   -0.7803   -1.5931 H   0  0  0  0  0  0  0  0  0  0  0  0
    2.0492    1.7600    0.9492 H   0  0  0  0  0  0  0  0  0  0  0  0
    2.2545    1.7317   -0.8212 H   0  0  0  0  0  0  0  0  0  0  0  0
    3.0101    0.3877    0.2049 H   0  0  0  0  0  0  0  0  0  0  0  0
    0.9544   -0.7628    1.8130 H   0  0  0  0  0  0  0  0  0  0  0  0
   -0.4693    0.4547    1.6609 H   0  0  0  0  0  0  0  0  0  0  0  0
   -0.7703   -2.1298    0.5330 H   0  0  0  0  0  0  0  0  0  0  0  0
    0.9751   -1.3819   -1.5360 H   0  0  0  0  0  0  0  0  0  0  0  0
    1.6938   -1.7766    0.1468 H   0  0  0  0  0  0  0  0  0  0  0  0
  1  2  1  0
  2  3  1  0
  3  4  2  0
  3  5  1  0
  5  6  1  0
  5  7  1  0
  7  8  1  0
  8  9  1  0
  8  2  1  0
  9  5  1  0
  1 10  1  0
  1 11  1  0
  1 12  1  0
  2 13  1  0
  6 14  1  0
  6 15  1  0
  6 16  1  0
  7 17  1  0
  7 18  1  0
  8 19  1  0
  9 20  1  0
  9 21  1  0
M  END
