
     RDKit          3D

 21 23  0  0  0  0  0  0  0  0999 V2000
    2.5188   -0.5453    0.5269 C   0  0  0  0  0  0  0  0  0  0  0  0
    1.6958    0.0682   -0.5547 C   0  0  0  0  0  0  0  0  0  0  0  0
    1.2868    1.5460   -0.3341 C   0  0  0  0  0  0  0  0  0  0  0  0
    0.3246    0.4738   -0.4450 C   0  0  0  0  0  0  0  0  0  0  0  0
   -0.6437    0.3433   -1.3943 O   0  0  0  0  0  0  0  0  0  0  0  0
   -1.5133   -0.1130   -0.4293 C   0  0  0  0  0  0  0  0  0  0  0  0
   -2.2065   -1.4247   -0.5556 C   0  0  0  0  0  0  0  0  0  0  0  0
   -1.9389    0.8620    0.6480 C   0  0  0  0  0  0  0  0  0  0  0  0
   -0.6013    0.2117    0.6879 C   0  0  0  0  0  0  0  0  0  0  0  0
    3.2557    0.2021    0.9358 H   0  0  0  0  0  0  0  0  0  0  0  0
    1.8977   -0.9400    1.3658 H   0  0  0  0  0  0  0  0  0  0  0  0
    3.1605   -1.3779    0.1377 H   0  0  0  0  0  0  0  0  0  0  0  0
    2.0892   -0.1558   -1.5906 H   0  0  0  0  0  0  0  0  0  0  0  0
    1.5920    2.2347   -1.1194 H   0  0  0  0  0  0  0  0  0  0  0  0
    1.4909    1.9335    0.7069 H   0  0  0  0  0  0  0  0  0  0  0  0
   -1.5504   -2.2736   -0.7964 H   0  0  0  0  0  0  0  0  0  0  0  0
   -2.7580   -1.6032    0.4091 H   0  0  0  0  0  0  0  0  0  0  0  0
   -3.0148   -1.3091   -1.3212 H   0  0  0  0  0  0  0  0  0  0  0  0
   -2.6825    0.4639    1.3799 H   0  0  0  0  0  0  0  0  0  0  0  0
   -2.0843    1.8850    0.2713 H   0  0  0  0  0  0  0  0  0  0  0  0
   -0.3183   -0.4819    1.4713 H   0  0  0  0  0  0  0  0  0  0  0  0
  1  2  1  0
  2  3  1  0
  3  4  1  0
  4  5  1  0
  5  6  1  0
  6  7  1  0
  6  8  1  0
  8  9  1  0
  4  2  1  0
  9  6  1  0
  9  4  1  0
  1 10  1  0
  1 11  1  0
  1 12  1  0
  2 13  1  0
  3 14  1  0
  3 15  1  0
  7 16  1  0
  7 17  1  0
  7 18  1  0
  8 19  1  0
  8 20  1  0
  9 21  1  0
M  END
