
     RDKit          3D

 17 18  0  0  0  0  0  0  0  0999 V2000
   -2.1927    0.1881   -0.1436 C   0  0  0  0  0  0  0  0  0  0  0  0
   -0.8736   -0.5302   -0.4653 C   0  0  0  0  0  0  0  0  0  0  0  0
    0.2829    0.1983   -0.7870 C   0  0  0  0  0  0  0  0  0  0  0  0
    1.7363   -0.0593   -0.7838 C   0  0  0  0  0  0  0  0  0  0  0  0
    2.1054    0.3273    0.5257 O   0  0  0  0  0  0  0  0  0  0  0  0
    0.9222    0.3617    1.2936 C   0  0  0  0  0  0  0  0  0  0  0  0
    0.0744   -0.6034    0.5649 C   0  0  0  0  0  0  0  0  0  0  0  0
   -2.9551   -0.5706    0.1099 H   0  0  0  0  0  0  0  0  0  0  0  0
   -2.5678    0.7492   -1.0215 H   0  0  0  0  0  0  0  0  0  0  0  0
   -2.0848    0.8322    0.7547 H   0  0  0  0  0  0  0  0  0  0  0  0
   -1.1113   -1.4279   -1.1097 H   0  0  0  0  0  0  0  0  0  0  0  0
    0.1357    1.3217   -0.7085 H   0  0  0  0  0  0  0  0  0  0  0  0
    1.9267   -1.1573   -0.8620 H   0  0  0  0  0  0  0  0  0  0  0  0
    2.3056    0.4676   -1.5509 H   0  0  0  0  0  0  0  0  0  0  0  0
    0.5684    1.4244    1.2298 H   0  0  0  0  0  0  0  0  0  0  0  0
    1.1153    0.0847    2.3409 H   0  0  0  0  0  0  0  0  0  0  0  0
    0.6123   -1.6065    0.6130 H   0  0  0  0  0  0  0  0  0  0  0  0
  1  2  1  0
  2  3  1  0
  3  4  1  0
  4  5  1  0
  5  6  1  0
  6  7  1  0
  7  2  1  0
  7  3  1  0
  1  8  1  0
  1  9  1  0
  1 10  1  0
  2 11  1  0
  3 12  1  0
  4 13  1  0
  4 14  1  0
  6 15  1  0
  6 16  1  0
  7 17  1  0
M  END
