
     RDKit          3D

 19 20  0  0  0  0  0  0  0  0999 V2000
    1.4482    1.2060   -0.6199 C   0  0  0  0  0  0  0  0  0  0  0  0
    1.2104    0.0400    0.2690 C   0  0  0  0  0  0  0  0  0  0  0  0
   -0.0498    0.0835    1.1117 C   0  0  0  0  0  0  0  0  0  0  0  0
   -1.2121    0.6751    0.3431 C   0  0  0  0  0  0  0  0  0  0  0  0
   -1.5656   -0.3364   -0.7421 C   0  0  0  0  0  0  0  0  0  0  0  0
   -0.3815   -0.7235   -1.3643 O   0  0  0  0  0  0  0  0  0  0  0  0
    0.5303   -1.1631   -0.4032 C   0  0  0  0  0  0  0  0  0  0  0  0
   -0.1200   -1.3867    0.9121 C   0  0  0  0  0  0  0  0  0  0  0  0
   -0.5279   -2.3254    1.5485 O   0  0  0  0  0  0  0  0  0  0  0  0
    1.2464    0.9772   -1.6868 H   0  0  0  0  0  0  0  0  0  0  0  0
    2.5548    1.4355   -0.5790 H   0  0  0  0  0  0  0  0  0  0  0  0
    0.9583    2.1417   -0.2755 H   0  0  0  0  0  0  0  0  0  0  0  0
    2.0474   -0.3226    0.8691 H   0  0  0  0  0  0  0  0  0  0  0  0
    0.0833    0.4322    2.1329 H   0  0  0  0  0  0  0  0  0  0  0  0
   -2.0806    0.6690    1.0460 H   0  0  0  0  0  0  0  0  0  0  0  0
   -1.0136    1.6597   -0.0740 H   0  0  0  0  0  0  0  0  0  0  0  0
   -2.2758    0.0907   -1.4593 H   0  0  0  0  0  0  0  0  0  0  0  0
   -2.0669   -1.2147   -0.2789 H   0  0  0  0  0  0  0  0  0  0  0  0
    1.2147   -1.9383   -0.7492 H   0  0  0  0  0  0  0  0  0  0  0  0
  1  2  1  0
  2  3  1  0
  3  4  1  0
  4  5  1  0
  5  6  1  0
  6  7  1  0
  7  8  1  0
  8  9  2  0
  7  2  1  0
  8  3  1  0
  1 10  1  0
  1 11  1  0
  1 12  1  0
  2 13  1  0
  3 14  1  0
  4 15  1  0
  4 16  1  0
  5 17  1  0
  5 18  1  0
  7 19  1  0
M  END
