
     RDKit          3D

 21 23  0  0  0  0  0  0  0  0999 V2000
   -1.6593   -1.3492   -0.3085 C   0  0  0  0  0  0  0  0  0  0  0  0
   -0.6097   -0.3820   -0.8074 C   0  0  0  0  0  0  0  0  0  0  0  0
   -0.9502    1.0547   -0.4882 C   0  0  0  0  0  0  0  0  0  0  0  0
    0.0784    2.1162   -0.6500 C   0  0  0  0  0  0  0  0  0  0  0  0
    0.3139    1.1494    0.4273 C   0  0  0  0  0  0  0  0  0  0  0  0
    0.1160    1.4054    1.7531 O   0  0  0  0  0  0  0  0  0  0  0  0
    0.5966   -0.2613    0.0437 C   0  0  0  0  0  0  0  0  0  0  0  0
    1.9048   -0.8004   -0.2568 C   0  0  0  0  0  0  0  0  0  0  0  0
    1.0924   -1.2840    0.9496 C   0  0  0  0  0  0  0  0  0  0  0  0
   -2.6214   -0.8264   -0.1864 H   0  0  0  0  0  0  0  0  0  0  0  0
   -1.3680   -1.8328    0.6547 H   0  0  0  0  0  0  0  0  0  0  0  0
   -1.8431   -2.1857   -1.0157 H   0  0  0  0  0  0  0  0  0  0  0  0
   -0.3712   -0.5746   -1.8745 H   0  0  0  0  0  0  0  0  0  0  0  0
   -1.9126    1.2525   -0.0192 H   0  0  0  0  0  0  0  0  0  0  0  0
   -0.2434    3.1293   -0.3677 H   0  0  0  0  0  0  0  0  0  0  0  0
    0.7453    2.1131   -1.5424 H   0  0  0  0  0  0  0  0  0  0  0  0
   -0.2022    2.3019    1.9791 H   0  0  0  0  0  0  0  0  0  0  0  0
    2.8511   -0.2527   -0.0337 H   0  0  0  0  0  0  0  0  0  0  0  0
    2.0087   -1.5233   -1.1104 H   0  0  0  0  0  0  0  0  0  0  0  0
    0.6589   -2.2962    0.8940 H   0  0  0  0  0  0  0  0  0  0  0  0
    1.4151   -0.9542    1.9593 H   0  0  0  0  0  0  0  0  0  0  0  0
  1  2  1  0
  2  3  1  0
  3  4  1  0
  4  5  1  0
  5  6  1  0
  5  7  1  0
  7  8  1  0
  8  9  1  0
  7  2  1  0
  5  3  1  0
  9  7  1  0
  1 10  1  0
  1 11  1  0
  1 12  1  0
  2 13  1  0
  3 14  1  0
  4 15  1  0
  4 16  1  0
  6 17  1  0
  8 18  1  0
  8 19  1  0
  9 20  1  0
  9 21  1  0
M  END
