
     RDKit          3D

 21 22  0  0  0  0  0  0  0  0999 V2000
    1.9025    0.6906   -0.3835 C   0  0  0  0  0  0  0  0  0  0  0  0
    0.8323    0.2981    0.5563 C   0  0  0  0  0  0  0  0  0  0  0  0
    0.4176   -1.1604    0.5513 C   0  0  0  0  0  0  0  0  0  0  0  0
    0.0681   -1.3858   -0.8766 C   0  0  0  0  0  0  0  0  0  0  0  0
   -0.6888   -0.2137   -1.1387 O   0  0  0  0  0  0  0  0  0  0  0  0
   -0.6033    0.4797    0.0411 C   0  0  0  0  0  0  0  0  0  0  0  0
   -1.2306    1.7716    0.2060 C   0  0  0  0  0  0  0  0  0  0  0  0
   -0.9095   -0.6030    1.0911 C   0  0  0  0  0  0  0  0  0  0  0  0
   -2.0107   -1.3663    0.8194 O   0  0  0  0  0  0  0  0  0  0  0  0
    1.5850    1.1690   -1.3116 H   0  0  0  0  0  0  0  0  0  0  0  0
    2.5573   -0.1932   -0.5862 H   0  0  0  0  0  0  0  0  0  0  0  0
    2.5686    1.4401    0.1373 H   0  0  0  0  0  0  0  0  0  0  0  0
    0.8891    0.6663    1.5954 H   0  0  0  0  0  0  0  0  0  0  0  0
    0.9389   -1.8614    1.1329 H   0  0  0  0  0  0  0  0  0  0  0  0
    0.9178   -1.3407   -1.5781 H   0  0  0  0  0  0  0  0  0  0  0  0
   -0.5482   -2.2977   -1.0507 H   0  0  0  0  0  0  0  0  0  0  0  0
   -0.4648    2.5818    0.2856 H   0  0  0  0  0  0  0  0  0  0  0  0
   -1.9050    1.8868    1.0712 H   0  0  0  0  0  0  0  0  0  0  0  0
   -1.8352    2.0244   -0.7150 H   0  0  0  0  0  0  0  0  0  0  0  0
   -0.7437   -0.2816    2.1285 H   0  0  0  0  0  0  0  0  0  0  0  0
   -1.7372   -2.3045    0.7582 H   0  0  0  0  0  0  0  0  0  0  0  0
  1  2  1  0
  2  3  1  0
  3  4  1  0
  4  5  1  0
  5  6  1  0
  6  7  1  0
  6  8  1  0
  8  9  1  0
  6  2  1  0
  8  3  1  0
  1 10  1  0
  1 11  1  0
  1 12  1  0
  2 13  1  0
  3 14  1  0
  4 15  1  0
  4 16  1  0
  7 17  1  0
  7 18  1  0
  7 19  1  0
  8 20  1  0
  9 21  1  0
M  END
