
     RDKit          3D

 23 24  0  0  0  0  0  0  0  0999 V2000
    2.3980    0.0362   -1.2729 C   0  0  0  0  0  0  0  0  0  0  0  0
    1.3520    0.3563   -0.2089 C   0  0  0  0  0  0  0  0  0  0  0  0
    2.0008    0.4330    1.1779 C   0  0  0  0  0  0  0  0  0  0  0  0
    0.8185   -0.1297    1.6746 O   0  0  0  0  0  0  0  0  0  0  0  0
    0.7374   -0.8334    0.4505 C   0  0  0  0  0  0  0  0  0  0  0  0
   -0.7106   -1.1032    0.1426 C   0  0  0  0  0  0  0  0  0  0  0  0
   -1.5825    0.0842    0.5682 C   0  0  0  0  0  0  0  0  0  0  0  0
   -3.0417    0.0273    0.3553 C   0  0  0  0  0  0  0  0  0  0  0  0
   -2.1848    0.9655   -0.4481 C   0  0  0  0  0  0  0  0  0  0  0  0
    1.9995    0.4479   -2.2258 H   0  0  0  0  0  0  0  0  0  0  0  0
    3.3568    0.5441   -1.0006 H   0  0  0  0  0  0  0  0  0  0  0  0
    2.5553   -1.0622   -1.3647 H   0  0  0  0  0  0  0  0  0  0  0  0
    0.6863    1.1848   -0.4444 H   0  0  0  0  0  0  0  0  0  0  0  0
    2.2128    1.4495    1.5008 H   0  0  0  0  0  0  0  0  0  0  0  0
    2.8123   -0.3031    1.2392 H   0  0  0  0  0  0  0  0  0  0  0  0
    1.3844   -1.7039    0.5061 H   0  0  0  0  0  0  0  0  0  0  0  0
   -0.8991   -1.4008   -0.8967 H   0  0  0  0  0  0  0  0  0  0  0  0
   -1.0295   -1.9539    0.7865 H   0  0  0  0  0  0  0  0  0  0  0  0
   -1.2434    0.5402    1.5228 H   0  0  0  0  0  0  0  0  0  0  0  0
   -3.4398   -0.8943   -0.1361 H   0  0  0  0  0  0  0  0  0  0  0  0
   -3.7664    0.4583    1.0803 H   0  0  0  0  0  0  0  0  0  0  0  0
   -2.0960    0.8060   -1.5222 H   0  0  0  0  0  0  0  0  0  0  0  0
   -2.3200    2.0510   -0.1819 H   0  0  0  0  0  0  0  0  0  0  0  0
  1  2  1  0
  2  3  1  0
  3  4  1  0
  4  5  1  0
  5  6  1  0
  6  7  1  0
  7  8  1  0
  8  9  1  0
  5  2  1  0
  9  7  1  0
  1 10  1  0
  1 11  1  0
  1 12  1  0
  2 13  1  0
  3 14  1  0
  3 15  1  0
  5 16  1  0
  6 17  1  0
  6 18  1  0
  7 19  1  0
  8 20  1  0
  8 21  1  0
  9 22  1  0
  9 23  1  0
M  END
