
     RDKit          3D

 23 25  0  0  0  0  0  0  0  0999 V2000
    2.5595    0.6234    0.4244 C   0  0  0  0  0  0  0  0  0  0  0  0
    1.0998    0.1815    0.5671 C   0  0  0  0  0  0  0  0  0  0  0  0
    1.0166   -1.2961    0.2122 C   0  0  0  0  0  0  0  0  0  0  0  0
   -0.0437   -0.9754   -0.8156 C   0  0  0  0  0  0  0  0  0  0  0  0
   -1.4138   -1.1935   -0.2430 C   0  0  0  0  0  0  0  0  0  0  0  0
   -2.0898    0.1626   -0.3596 C   0  0  0  0  0  0  0  0  0  0  0  0
   -1.8036    1.0887    0.7739 C   0  0  0  0  0  0  0  0  0  0  0  0
   -1.0121    1.1785   -0.4571 C   0  0  0  0  0  0  0  0  0  0  0  0
    0.2909    0.4809   -0.6531 C   0  0  0  0  0  0  0  0  0  0  0  0
    3.2108    0.0558    1.1156 H   0  0  0  0  0  0  0  0  0  0  0  0
    2.6725    1.7129    0.5262 H   0  0  0  0  0  0  0  0  0  0  0  0
    2.8447    0.3150   -0.6211 H   0  0  0  0  0  0  0  0  0  0  0  0
    0.6467    0.4059    1.5428 H   0  0  0  0  0  0  0  0  0  0  0  0
    0.6373   -1.9166    1.0525 H   0  0  0  0  0  0  0  0  0  0  0  0
    1.9050   -1.7096   -0.2882 H   0  0  0  0  0  0  0  0  0  0  0  0
    0.1340   -1.3844   -1.8298 H   0  0  0  0  0  0  0  0  0  0  0  0
   -1.3773   -1.4778    0.8376 H   0  0  0  0  0  0  0  0  0  0  0  0
   -1.9567   -1.9478   -0.8394 H   0  0  0  0  0  0  0  0  0  0  0  0
   -3.0275    0.2382   -0.9329 H   0  0  0  0  0  0  0  0  0  0  0  0
   -1.3850    0.6710    1.6987 H   0  0  0  0  0  0  0  0  0  0  0  0
   -2.5647    1.8747    0.9391 H   0  0  0  0  0  0  0  0  0  0  0  0
   -1.2132    2.0469   -1.1429 H   0  0  0  0  0  0  0  0  0  0  0  0
    0.8697    0.8650   -1.5075 H   0  0  0  0  0  0  0  0  0  0  0  0
  1  2  1  0
  2  3  1  0
  3  4  1  0
  4  5  1  0
  5  6  1  0
  6  7  1  0
  7  8  1  0
  8  9  1  0
  9  2  1  0
  9  4  1  0
  8  6  1  0
  1 10  1  0
  1 11  1  0
  1 12  1  0
  2 13  1  0
  3 14  1  0
  3 15  1  0
  4 16  1  0
  5 17  1  0
  5 18  1  0
  6 19  1  0
  7 20  1  0
  7 21  1  0
  8 22  1  0
  9 23  1  0
M  END
