
     RDKit          3D

 19 20  0  0  0  0  0  0  0  0999 V2000
    2.1123   -0.3493    0.4237 C   0  0  0  0  0  0  0  0  0  0  0  0
    0.8196   -0.1896   -0.3708 C   0  0  0  0  0  0  0  0  0  0  0  0
    0.5369    1.2911   -0.3571 C   0  0  0  0  0  0  0  0  0  0  0  0
    1.4358    2.0870   -0.5667 O   0  0  0  0  0  0  0  0  0  0  0  0
   -0.8120    1.8101   -0.0942 C   0  0  0  0  0  0  0  0  0  0  0  0
   -1.7677    0.8460   -0.2956 O   0  0  0  0  0  0  0  0  0  0  0  0
   -1.5740   -0.3274    0.3694 C   0  0  0  0  0  0  0  0  0  0  0  0
   -1.3963   -1.5390   -0.5521 C   0  0  0  0  0  0  0  0  0  0  0  0
   -0.2768   -0.9723    0.2602 C   0  0  0  0  0  0  0  0  0  0  0  0
    2.7401   -1.1498    0.0363 H   0  0  0  0  0  0  0  0  0  0  0  0
    1.8228   -0.4876    1.4735 H   0  0  0  0  0  0  0  0  0  0  0  0
    2.7218    0.5946    0.3895 H   0  0  0  0  0  0  0  0  0  0  0  0
    1.0387   -0.4541   -1.4170 H   0  0  0  0  0  0  0  0  0  0  0  0
   -1.0004    2.6395   -0.8145 H   0  0  0  0  0  0  0  0  0  0  0  0
   -0.8652    2.1574    0.9569 H   0  0  0  0  0  0  0  0  0  0  0  0
   -2.1891   -0.4866    1.2946 H   0  0  0  0  0  0  0  0  0  0  0  0
   -1.9214   -2.4478   -0.2137 H   0  0  0  0  0  0  0  0  0  0  0  0
   -1.4489   -1.3841   -1.6407 H   0  0  0  0  0  0  0  0  0  0  0  0
    0.0237   -1.6383    1.1182 H   0  0  0  0  0  0  0  0  0  0  0  0
  1  2  1  0
  2  3  1  0
  3  4  2  0
  3  5  1  0
  5  6  1  0
  6  7  1  0
  7  8  1  0
  8  9  1  0
  9  2  1  0
  9  7  1  0
  1 10  1  0
  1 11  1  0
  1 12  1  0
  2 13  1  0
  5 14  1  0
  5 15  1  0
  7 16  1  0
  8 17  1  0
  8 18  1  0
  9 19  1  0
M  END
