
     RDKit          3D

 21 23  0  0  0  0  0  0  0  0999 V2000
   -3.0910   -0.3345   -0.0161 C   0  0  0  0  0  0  0  0  0  0  0  0
   -1.9013    0.4079   -0.6429 C   0  0  0  0  0  0  0  0  0  0  0  0
   -0.7835    0.6319    0.2316 C   0  0  0  0  0  0  0  0  0  0  0  0
   -0.7041   -0.2810   -1.0590 C   0  0  0  0  0  0  0  0  0  0  0  0
    0.7283    0.1437   -0.8935 C   0  0  0  0  0  0  0  0  0  0  0  0
    0.3400   -0.3075    0.5730 C   0  0  0  0  0  0  0  0  0  0  0  0
    1.6902   -0.2997    0.0884 C   0  0  0  0  0  0  0  0  0  0  0  0
    2.6469    0.6786    0.7908 C   0  0  0  0  0  0  0  0  0  0  0  0
    2.3782   -1.4947   -0.2321 O   0  0  0  0  0  0  0  0  0  0  0  0
   -3.3061    0.1976    0.9392 H   0  0  0  0  0  0  0  0  0  0  0  0
   -3.9847   -0.2843   -0.6333 H   0  0  0  0  0  0  0  0  0  0  0  0
   -2.8443   -1.4011    0.1476 H   0  0  0  0  0  0  0  0  0  0  0  0
   -2.2799    1.1984   -1.3521 H   0  0  0  0  0  0  0  0  0  0  0  0
   -0.3393    1.6655    0.1075 H   0  0  0  0  0  0  0  0  0  0  0  0
   -0.7741   -1.3912   -0.8538 H   0  0  0  0  0  0  0  0  0  0  0  0
    0.7802    1.2648   -1.0426 H   0  0  0  0  0  0  0  0  0  0  0  0
   -0.0812   -1.3553    0.6439 H   0  0  0  0  0  0  0  0  0  0  0  0
    3.6783    0.5402    0.4525 H   0  0  0  0  0  0  0  0  0  0  0  0
    2.5584    0.4529    1.8824 H   0  0  0  0  0  0  0  0  0  0  0  0
    2.2356    1.6799    0.6192 H   0  0  0  0  0  0  0  0  0  0  0  0
    3.0534   -1.7120    0.4497 H   0  0  0  0  0  0  0  0  0  0  0  0
  1  2  1  0
  2  3  1  0
  3  4  1  0
  4  5  1  0
  5  6  1  0
  6  7  1  0
  7  8  1  0
  7  9  1  0
  4  2  1  0
  7  5  1  0
  6  3  1  0
  1 10  1  0
  1 11  1  0
  1 12  1  0
  2 13  1  0
  3 14  1  0
  4 15  1  0
  5 16  1  0
  6 17  1  0
  8 18  1  0
  8 19  1  0
  8 20  1  0
  9 21  1  0
M  END
