
     RDKit          3D

 21 22  0  0  0  0  0  0  0  0999 V2000
   -0.6918    1.7865    0.0978 C   0  0  0  0  0  0  0  0  0  0  0  0
   -0.6187    0.5011   -0.6741 C   0  0  0  0  0  0  0  0  0  0  0  0
   -1.4753   -0.5412    0.0708 C   0  0  0  0  0  0  0  0  0  0  0  0
   -0.8197   -1.9023    0.0414 C   0  0  0  0  0  0  0  0  0  0  0  0
    0.4331   -1.9258    0.6590 O   0  0  0  0  0  0  0  0  0  0  0  0
    0.8878   -0.6517    0.7315 C   0  0  0  0  0  0  0  0  0  0  0  0
    1.8934    0.0599    0.0272 C   0  0  0  0  0  0  0  0  0  0  0  0
    2.2837    1.3224    0.5274 O   0  0  0  0  0  0  0  0  0  0  0  0
    0.7132   -0.1249   -0.7325 C   0  0  0  0  0  0  0  0  0  0  0  0
    0.0459    1.8939    0.8874 H   0  0  0  0  0  0  0  0  0  0  0  0
   -1.7012    1.8264    0.5860 H   0  0  0  0  0  0  0  0  0  0  0  0
   -0.6195    2.6842   -0.5663 H   0  0  0  0  0  0  0  0  0  0  0  0
   -0.9951    0.6891   -1.6839 H   0  0  0  0  0  0  0  0  0  0  0  0
   -1.6395   -0.2446    1.1171 H   0  0  0  0  0  0  0  0  0  0  0  0
   -2.4452   -0.6577   -0.4573 H   0  0  0  0  0  0  0  0  0  0  0  0
   -1.4752   -2.5724    0.6357 H   0  0  0  0  0  0  0  0  0  0  0  0
   -0.7491   -2.3168   -0.9757 H   0  0  0  0  0  0  0  0  0  0  0  0
    0.3484   -0.0861    1.5446 H   0  0  0  0  0  0  0  0  0  0  0  0
    2.8178   -0.5041   -0.2872 H   0  0  0  0  0  0  0  0  0  0  0  0
    3.0618    1.6762   -0.0017 H   0  0  0  0  0  0  0  0  0  0  0  0
    0.7452   -0.9119   -1.5474 H   0  0  0  0  0  0  0  0  0  0  0  0
  1  2  1  0
  2  3  1  0
  3  4  1  0
  4  5  1  0
  5  6  1  0
  6  7  1  0
  7  8  1  0
  7  9  1  0
  9  2  1  0
  9  6  1  0
  1 10  1  0
  1 11  1  0
  1 12  1  0
  2 13  1  0
  3 14  1  0
  3 15  1  0
  4 16  1  0
  4 17  1  0
  6 18  1  0
  7 19  1  0
  8 20  1  0
  9 21  1  0
M  END
