
     RDKit          3D

 18 18  0  0  0  0  0  0  0  0999 V2000
   -2.1876   -0.0357   -0.2432 C   0  0  0  0  0  0  0  0  0  0  0  0
   -0.8546   -0.3311    0.3619 C   0  0  0  0  0  0  0  0  0  0  0  0
    0.1630   -0.8312   -0.6347 C   0  0  0  0  0  0  0  0  0  0  0  0
    1.5343   -0.5940    0.0101 C   0  0  0  0  0  0  0  0  0  0  0  0
    1.8510    0.8797   -0.2425 C   0  0  0  0  0  0  0  0  0  0  0  0
    0.7496    1.6016    0.3281 O   0  0  0  0  0  0  0  0  0  0  0  0
   -0.3008    0.9292    0.9446 C   0  0  0  0  0  0  0  0  0  0  0  0
   -0.8408    1.3288    2.0086 O   0  0  0  0  0  0  0  0  0  0  0  0
   -2.9209    0.0441    0.6107 H   0  0  0  0  0  0  0  0  0  0  0  0
   -2.2332    0.9511   -0.7496 H   0  0  0  0  0  0  0  0  0  0  0  0
   -2.5666   -0.8298   -0.9024 H   0  0  0  0  0  0  0  0  0  0  0  0
   -0.9893   -1.1168    1.1508 H   0  0  0  0  0  0  0  0  0  0  0  0
    0.0802   -1.9175   -0.7759 H   0  0  0  0  0  0  0  0  0  0  0  0
    0.0919   -0.3556   -1.6166 H   0  0  0  0  0  0  0  0  0  0  0  0
    2.3003   -1.2611   -0.3846 H   0  0  0  0  0  0  0  0  0  0  0  0
    1.4162   -0.6760    1.1242 H   0  0  0  0  0  0  0  0  0  0  0  0
    2.7560    1.1345    0.3337 H   0  0  0  0  0  0  0  0  0  0  0  0
    1.9512    1.0797   -1.3231 H   0  0  0  0  0  0  0  0  0  0  0  0
  1  2  1  0
  2  3  1  0
  3  4  1  0
  4  5  1  0
  5  6  1  0
  6  7  1  0
  7  8  2  0
  7  2  1  0
  1  9  1  0
  1 10  1  0
  1 11  1  0
  2 12  1  0
  3 13  1  0
  3 14  1  0
  4 15  1  0
  4 16  1  0
  5 17  1  0
  5 18  1  0
M  END
