
     RDKit          3D

 21 22  0  0  0  0  0  0  0  0999 V2000
   -2.6252    0.9289    0.2675 C   0  0  0  0  0  0  0  0  0  0  0  0
   -1.6496   -0.2186    0.4629 C   0  0  0  0  0  0  0  0  0  0  0  0
   -1.1062   -0.7292   -0.8450 C   0  0  0  0  0  0  0  0  0  0  0  0
    0.3736   -0.4973   -0.7198 C   0  0  0  0  0  0  0  0  0  0  0  0
    1.5541   -0.3755   -1.3032 C   0  0  0  0  0  0  0  0  0  0  0  0
    2.6157   -0.1232   -0.2941 C   0  0  0  0  0  0  0  0  0  0  0  0
    1.7730    0.5623    0.7959 C   0  0  0  0  0  0  0  0  0  0  0  0
    0.5574   -0.3379    0.7677 C   0  0  0  0  0  0  0  0  0  0  0  0
   -0.5978    0.2725    1.2195 O   0  0  0  0  0  0  0  0  0  0  0  0
   -3.6231    0.5597   -0.0273 H   0  0  0  0  0  0  0  0  0  0  0  0
   -2.7374    1.4740    1.2298 H   0  0  0  0  0  0  0  0  0  0  0  0
   -2.1741    1.6259   -0.4544 H   0  0  0  0  0  0  0  0  0  0  0  0
   -2.2022   -1.0220    1.0072 H   0  0  0  0  0  0  0  0  0  0  0  0
   -1.5277   -0.1074   -1.6539 H   0  0  0  0  0  0  0  0  0  0  0  0
   -1.2571   -1.8148   -0.9920 H   0  0  0  0  0  0  0  0  0  0  0  0
    1.7208   -0.4494   -2.3635 H   0  0  0  0  0  0  0  0  0  0  0  0
    2.9487   -1.0837    0.1666 H   0  0  0  0  0  0  0  0  0  0  0  0
    3.4259    0.5108   -0.6449 H   0  0  0  0  0  0  0  0  0  0  0  0
    1.4827    1.5616    0.4092 H   0  0  0  0  0  0  0  0  0  0  0  0
    2.2879    0.5802    1.7560 H   0  0  0  0  0  0  0  0  0  0  0  0
    0.7603   -1.3169    1.2156 H   0  0  0  0  0  0  0  0  0  0  0  0
  1  2  1  0
  2  3  1  0
  3  4  1  0
  4  5  2  0
  5  6  1  0
  6  7  1  0
  7  8  1  0
  8  9  1  0
  9  2  1  0
  8  4  1  0
  1 10  1  0
  1 11  1  0
  1 12  1  0
  2 13  1  0
  3 14  1  0
  3 15  1  0
  5 16  1  0
  6 17  1  0
  6 18  1  0
  7 19  1  0
  7 20  1  0
  8 21  1  0
M  END
