
     RDKit          3D

 19 19  0  0  0  0  0  0  0  0999 V2000
   -0.7972    1.7636    0.3093 C   0  0  0  0  0  0  0  0  0  0  0  0
   -0.1542    0.9568   -0.7850 C   0  0  0  0  0  0  0  0  0  0  0  0
   -0.6648   -0.4590   -0.9357 C   0  0  0  0  0  0  0  0  0  0  0  0
   -1.6429   -0.9798    0.0292 C   0  0  0  0  0  0  0  0  0  0  0  0
   -2.5652   -1.6762   -0.3546 O   0  0  0  0  0  0  0  0  0  0  0  0
    0.7270   -0.1837   -0.4868 C   0  0  0  0  0  0  0  0  0  0  0  0
    1.7250   -0.5112   -1.4117 O   0  0  0  0  0  0  0  0  0  0  0  0
    1.1494   -0.4474    0.9371 C   0  0  0  0  0  0  0  0  0  0  0  0
    1.4536   -1.7958    1.1129 O   0  0  0  0  0  0  0  0  0  0  0  0
   -1.2282    2.6973   -0.1097 H   0  0  0  0  0  0  0  0  0  0  0  0
   -1.6153    1.2442    0.8269 H   0  0  0  0  0  0  0  0  0  0  0  0
   -0.0735    2.0836    1.0864 H   0  0  0  0  0  0  0  0  0  0  0  0
    0.1095    1.5438   -1.6905 H   0  0  0  0  0  0  0  0  0  0  0  0
   -0.8242   -0.7385   -2.0027 H   0  0  0  0  0  0  0  0  0  0  0  0
   -1.5945   -0.7781    1.0904 H   0  0  0  0  0  0  0  0  0  0  0  0
    1.3422   -0.9180   -2.2298 H   0  0  0  0  0  0  0  0  0  0  0  0
    0.4141   -0.1101    1.6803 H   0  0  0  0  0  0  0  0  0  0  0  0
    2.0855    0.1439    1.1211 H   0  0  0  0  0  0  0  0  0  0  0  0
    2.1538   -1.8352    1.8130 H   0  0  0  0  0  0  0  0  0  0  0  0
  1  2  1  0
  2  3  1  0
  3  4  1  0
  4  5  2  0
  3  6  1  0
  6  7  1  0
  6  8  1  0
  8  9  1  0
  6  2  1  0
  1 10  1  0
  1 11  1  0
  1 12  1  0
  2 13  1  0
  3 14  1  0
  4 15  1  0
  7 16  1  0
  8 17  1  0
  8 18  1  0
  9 19  1  0
M  END
