
     RDKit          3D

 23 24  0  0  0  0  0  0  0  0999 V2000
   -1.9384    1.2335   -0.1404 C   0  0  0  0  0  0  0  0  0  0  0  0
   -1.2490    0.1800    0.6123 C   0  0  0  0  0  0  0  0  0  0  0  0
    0.1058    0.4994    1.2027 C   0  0  0  0  0  0  0  0  0  0  0  0
    0.2277   -0.9924    1.2620 C   0  0  0  0  0  0  0  0  0  0  0  0
   -0.2954   -0.7259   -0.1154 C   0  0  0  0  0  0  0  0  0  0  0  0
   -0.6026   -1.6441   -1.0894 C   0  0  0  0  0  0  0  0  0  0  0  0
    0.6381    0.4282   -0.1810 C   0  0  0  0  0  0  0  0  0  0  0  0
    2.0838    0.1883   -0.3905 C   0  0  0  0  0  0  0  0  0  0  0  0
    2.7791    1.2521    0.2357 O   0  0  0  0  0  0  0  0  0  0  0  0
   -2.2441    0.9313   -1.1828 H   0  0  0  0  0  0  0  0  0  0  0  0
   -1.4044    2.1976   -0.2252 H   0  0  0  0  0  0  0  0  0  0  0  0
   -2.8994    1.4730    0.3846 H   0  0  0  0  0  0  0  0  0  0  0  0
   -1.8606   -0.3419    1.3777 H   0  0  0  0  0  0  0  0  0  0  0  0
    0.2947    1.1611    1.9278 H   0  0  0  0  0  0  0  0  0  0  0  0
    1.1883   -1.4461    1.3958 H   0  0  0  0  0  0  0  0  0  0  0  0
   -0.6009   -1.3988    1.9136 H   0  0  0  0  0  0  0  0  0  0  0  0
   -1.6743   -1.9737   -1.0715 H   0  0  0  0  0  0  0  0  0  0  0  0
   -0.4518   -1.2521   -2.1266 H   0  0  0  0  0  0  0  0  0  0  0  0
   -0.0144   -2.5840   -1.0490 H   0  0  0  0  0  0  0  0  0  0  0  0
    0.2642    1.1907   -0.9022 H   0  0  0  0  0  0  0  0  0  0  0  0
    2.5025   -0.7251    0.0241 H   0  0  0  0  0  0  0  0  0  0  0  0
    2.3068    0.3203   -1.4788 H   0  0  0  0  0  0  0  0  0  0  0  0
    2.8442    2.0287   -0.3835 H   0  0  0  0  0  0  0  0  0  0  0  0
  1  2  1  0
  2  3  1  0
  3  4  1  0
  4  5  1  0
  5  6  1  0
  5  7  1  0
  7  8  1  0
  8  9  1  0
  5  2  1  0
  7  3  1  0
  1 10  1  0
  1 11  1  0
  1 12  1  0
  2 13  1  0
  3 14  1  0
  4 15  1  0
  4 16  1  0
  6 17  1  0
  6 18  1  0
  6 19  1  0
  7 20  1  0
  8 21  1  0
  8 22  1  0
  9 23  1  0
M  END
