
     RDKit          3D

 21 22  0  0  0  0  0  0  0  0999 V2000
    2.1276   -0.8568    0.1614 C   0  0  0  0  0  0  0  0  0  0  0  0
    0.9445   -0.2627   -0.5692 C   0  0  0  0  0  0  0  0  0  0  0  0
    0.6417    1.0817    0.0131 C   0  0  0  0  0  0  0  0  0  0  0  0
    1.1206    2.1363   -0.7774 O   0  0  0  0  0  0  0  0  0  0  0  0
   -0.8639    1.1958    0.0582 C   0  0  0  0  0  0  0  0  0  0  0  0
   -1.4024   -0.1170   -0.4407 C   0  0  0  0  0  0  0  0  0  0  0  0
   -1.9427   -0.9398    0.6918 C   0  0  0  0  0  0  0  0  0  0  0  0
   -0.6174   -1.2322    1.0483 O   0  0  0  0  0  0  0  0  0  0  0  0
   -0.2778   -1.0912   -0.2947 C   0  0  0  0  0  0  0  0  0  0  0  0
    2.9459   -0.1228    0.1914 H   0  0  0  0  0  0  0  0  0  0  0  0
    1.7634   -1.1404    1.1728 H   0  0  0  0  0  0  0  0  0  0  0  0
    2.4331   -1.7570   -0.4003 H   0  0  0  0  0  0  0  0  0  0  0  0
    1.0958   -0.2219   -1.6527 H   0  0  0  0  0  0  0  0  0  0  0  0
    1.0828    1.1983    1.0175 H   0  0  0  0  0  0  0  0  0  0  0  0
    0.6767    2.9563   -0.4100 H   0  0  0  0  0  0  0  0  0  0  0  0
   -1.2434    2.0180   -0.5692 H   0  0  0  0  0  0  0  0  0  0  0  0
   -1.1633    1.3821    1.1205 H   0  0  0  0  0  0  0  0  0  0  0  0
   -1.9599   -0.1093   -1.3742 H   0  0  0  0  0  0  0  0  0  0  0  0
   -2.5401   -1.8201    0.4287 H   0  0  0  0  0  0  0  0  0  0  0  0
   -2.4499   -0.2605    1.4291 H   0  0  0  0  0  0  0  0  0  0  0  0
   -0.3714   -2.0367   -0.8442 H   0  0  0  0  0  0  0  0  0  0  0  0
  1  2  1  0
  2  3  1  0
  3  4  1  0
  3  5  1  0
  5  6  1  0
  6  7  1  0
  7  8  1  0
  8  9  1  0
  9  2  1  0
  9  6  1  0
  1 10  1  0
  1 11  1  0
  1 12  1  0
  2 13  1  0
  3 14  1  0
  4 15  1  0
  5 16  1  0
  5 17  1  0
  6 18  1  0
  7 19  1  0
  7 20  1  0
  9 21  1  0
M  END
