
     RDKit          3D

 21 22  0  0  0  0  0  0  0  0999 V2000
    2.2031   -0.6147    0.2875 C   0  0  0  0  0  0  0  0  0  0  0  0
    0.8819   -0.0156    0.7777 C   0  0  0  0  0  0  0  0  0  0  0  0
    0.7009    1.3137    0.1229 C   0  0  0  0  0  0  0  0  0  0  0  0
   -0.5743    1.6584   -0.1852 O   0  0  0  0  0  0  0  0  0  0  0  0
   -1.3505    0.6987   -0.7785 C   0  0  0  0  0  0  0  0  0  0  0  0
   -2.2398    0.1187    0.3314 C   0  0  0  0  0  0  0  0  0  0  0  0
   -1.3608   -0.5647    1.1272 O   0  0  0  0  0  0  0  0  0  0  0  0
   -0.2706   -0.9570    0.3973 C   0  0  0  0  0  0  0  0  0  0  0  0
   -0.5531   -0.5824   -1.0656 C   0  0  0  0  0  0  0  0  0  0  0  0
    2.4724   -1.5267    0.8212 H   0  0  0  0  0  0  0  0  0  0  0  0
    2.1825   -0.8001   -0.8005 H   0  0  0  0  0  0  0  0  0  0  0  0
    2.9767    0.1589    0.4650 H   0  0  0  0  0  0  0  0  0  0  0  0
    0.9427    0.0244    1.8835 H   0  0  0  0  0  0  0  0  0  0  0  0
    1.3988    1.4289   -0.7584 H   0  0  0  0  0  0  0  0  0  0  0  0
    1.0871    2.0826    0.8583 H   0  0  0  0  0  0  0  0  0  0  0  0
   -1.9242    1.0162   -1.6472 H   0  0  0  0  0  0  0  0  0  0  0  0
   -2.9018   -0.6267   -0.1852 H   0  0  0  0  0  0  0  0  0  0  0  0
   -2.8057    0.9037    0.8410 H   0  0  0  0  0  0  0  0  0  0  0  0
    0.0083   -2.0063    0.5057 H   0  0  0  0  0  0  0  0  0  0  0  0
    0.3558   -0.3816   -1.6260 H   0  0  0  0  0  0  0  0  0  0  0  0
   -1.2294   -1.3283   -1.4880 H   0  0  0  0  0  0  0  0  0  0  0  0
  1  2  1  0
  2  3  1  0
  3  4  1  0
  4  5  1  0
  5  6  1  0
  6  7  1  0
  7  8  1  0
  8  9  1  0
  8  2  1  0
  9  5  1  0
  1 10  1  0
  1 11  1  0
  1 12  1  0
  2 13  1  0
  3 14  1  0
  3 15  1  0
  5 16  1  0
  6 17  1  0
  6 18  1  0
  8 19  1  0
  9 20  1  0
  9 21  1  0
M  END
