
     RDKit          3D

 23 24  0  0  0  0  0  0  0  0999 V2000
   -1.7690    2.0118    0.3232 C   0  0  0  0  0  0  0  0  0  0  0  0
   -0.8681    0.7814    0.4103 C   0  0  0  0  0  0  0  0  0  0  0  0
   -1.6587   -0.4813    0.0633 C   0  0  0  0  0  0  0  0  0  0  0  0
   -0.7073   -1.6410    0.1282 C   0  0  0  0  0  0  0  0  0  0  0  0
    0.4572   -1.3941   -0.8258 C   0  0  0  0  0  0  0  0  0  0  0  0
    1.0198   -0.0508   -0.5103 C   0  0  0  0  0  0  0  0  0  0  0  0
    1.9551   -0.0330    0.6922 C   0  0  0  0  0  0  0  0  0  0  0  0
    2.4138    0.3245   -0.6762 C   0  0  0  0  0  0  0  0  0  0  0  0
    0.0628    0.9303   -0.6411 O   0  0  0  0  0  0  0  0  0  0  0  0
   -1.3164    2.7872    0.9599 H   0  0  0  0  0  0  0  0  0  0  0  0
   -2.8113    1.7839    0.5993 H   0  0  0  0  0  0  0  0  0  0  0  0
   -1.7854    2.4242   -0.7206 H   0  0  0  0  0  0  0  0  0  0  0  0
   -0.3514    0.7048    1.3663 H   0  0  0  0  0  0  0  0  0  0  0  0
   -1.9898   -0.3279   -0.9957 H   0  0  0  0  0  0  0  0  0  0  0  0
   -2.4947   -0.6087    0.7511 H   0  0  0  0  0  0  0  0  0  0  0  0
   -1.1796   -2.6019   -0.1124 H   0  0  0  0  0  0  0  0  0  0  0  0
   -0.2537   -1.6894    1.1441 H   0  0  0  0  0  0  0  0  0  0  0  0
    0.1815   -1.5502   -1.8773 H   0  0  0  0  0  0  0  0  0  0  0  0
    1.2244   -2.1890   -0.5952 H   0  0  0  0  0  0  0  0  0  0  0  0
    2.3078   -0.9970    1.1043 H   0  0  0  0  0  0  0  0  0  0  0  0
    1.7792    0.7325    1.4702 H   0  0  0  0  0  0  0  0  0  0  0  0
    2.6383    1.4129   -0.8643 H   0  0  0  0  0  0  0  0  0  0  0  0
    3.1454   -0.3292   -1.1933 H   0  0  0  0  0  0  0  0  0  0  0  0
  1  2  1  0
  2  3  1  0
  3  4  1  0
  4  5  1  0
  5  6  1  0
  6  7  1  0
  7  8  1  0
  6  9  1  0
  9  2  1  0
  8  6  1  0
  1 10  1  0
  1 11  1  0
  1 12  1  0
  2 13  1  0
  3 14  1  0
  3 15  1  0
  4 16  1  0
  4 17  1  0
  5 18  1  0
  5 19  1  0
  7 20  1  0
  7 21  1  0
  8 22  1  0
  8 23  1  0
M  END
