
     RDKit          3D

 23 24  0  0  0  0  0  0  0  0999 V2000
    2.0252    0.2594   -1.0650 C   0  0  0  0  0  0  0  0  0  0  0  0
    1.3655    0.0291    0.2124 C   0  0  0  0  0  0  0  0  0  0  0  0
    0.1538    0.9073    0.5601 C   0  0  0  0  0  0  0  0  0  0  0  0
   -0.0129    0.4149    1.9835 C   0  0  0  0  0  0  0  0  0  0  0  0
    0.0450   -0.9807    1.7280 O   0  0  0  0  0  0  0  0  0  0  0  0
    0.3413   -1.0506    0.3556 C   0  0  0  0  0  0  0  0  0  0  0  0
   -0.6872   -0.0792   -0.1816 C   0  0  0  0  0  0  0  0  0  0  0  0
   -2.0307   -0.4083    0.4639 C   0  0  0  0  0  0  0  0  0  0  0  0
   -0.8287    0.0447   -1.6446 C   0  0  0  0  0  0  0  0  0  0  0  0
    2.1693   -0.7219   -1.6077 H   0  0  0  0  0  0  0  0  0  0  0  0
    1.5901    1.0345   -1.7281 H   0  0  0  0  0  0  0  0  0  0  0  0
    3.0898    0.6082   -0.8975 H   0  0  0  0  0  0  0  0  0  0  0  0
    2.0895   -0.0307    1.0706 H   0  0  0  0  0  0  0  0  0  0  0  0
    0.1789    1.9254    0.3340 H   0  0  0  0  0  0  0  0  0  0  0  0
   -0.9385    0.7153    2.4544 H   0  0  0  0  0  0  0  0  0  0  0  0
    0.9090    0.6428    2.5454 H   0  0  0  0  0  0  0  0  0  0  0  0
    0.4635   -1.9931   -0.0946 H   0  0  0  0  0  0  0  0  0  0  0  0
   -1.9340   -0.7779    1.4844 H   0  0  0  0  0  0  0  0  0  0  0  0
   -2.7648    0.4045    0.3285 H   0  0  0  0  0  0  0  0  0  0  0  0
   -2.4355   -1.2734   -0.1422 H   0  0  0  0  0  0  0  0  0  0  0  0
   -0.7980    1.1451   -1.9045 H   0  0  0  0  0  0  0  0  0  0  0  0
   -1.8580   -0.2666   -2.0004 H   0  0  0  0  0  0  0  0  0  0  0  0
   -0.1325   -0.5490   -2.2546 H   0  0  0  0  0  0  0  0  0  0  0  0
  1  2  1  0
  2  3  1  0
  3  4  1  0
  4  5  1  0
  5  6  1  0
  6  7  1  0
  7  8  1  0
  7  9  1  0
  6  2  1  0
  7  3  1  0
  1 10  1  0
  1 11  1  0
  1 12  1  0
  2 13  1  0
  3 14  1  0
  4 15  1  0
  4 16  1  0
  6 17  1  0
  8 18  1  0
  8 19  1  0
  8 20  1  0
  9 21  1  0
  9 22  1  0
  9 23  1  0
M  END
