
     RDKit          3D

 25 25  0  0  0  0  0  0  0  0999 V2000
    0.4132    2.0597    0.3285 C   0  0  0  0  0  0  0  0  0  0  0  0
    0.5636    0.5891    0.3632 C   0  0  0  0  0  0  0  0  0  0  0  0
    1.6314    0.1632   -0.6382 C   0  0  0  0  0  0  0  0  0  0  0  0
    1.9022   -1.3108   -0.3175 C   0  0  0  0  0  0  0  0  0  0  0  0
    0.7504   -1.9992   -0.6498 O   0  0  0  0  0  0  0  0  0  0  0  0
   -0.3318   -1.6722    0.1319 C   0  0  0  0  0  0  0  0  0  0  0  0
   -0.6763   -0.1917    0.0830 C   0  0  0  0  0  0  0  0  0  0  0  0
   -1.3556    0.1478   -1.1912 C   0  0  0  0  0  0  0  0  0  0  0  0
   -1.7007    0.0153    1.2056 C   0  0  0  0  0  0  0  0  0  0  0  0
    1.2196    2.5254   -0.3112 H   0  0  0  0  0  0  0  0  0  0  0  0
    0.6085    2.4842    1.3521 H   0  0  0  0  0  0  0  0  0  0  0  0
   -0.5484    2.4417   -0.0183 H   0  0  0  0  0  0  0  0  0  0  0  0
    0.9508    0.2528    1.3583 H   0  0  0  0  0  0  0  0  0  0  0  0
    1.2678    0.2014   -1.6693 H   0  0  0  0  0  0  0  0  0  0  0  0
    2.5200    0.7851   -0.5222 H   0  0  0  0  0  0  0  0  0  0  0  0
    2.2034   -1.4455    0.7385 H   0  0  0  0  0  0  0  0  0  0  0  0
    2.7155   -1.6423   -0.9715 H   0  0  0  0  0  0  0  0  0  0  0  0
   -1.2133   -2.2246   -0.2848 H   0  0  0  0  0  0  0  0  0  0  0  0
   -0.1800   -1.9306    1.2143 H   0  0  0  0  0  0  0  0  0  0  0  0
   -1.8910    1.1213   -1.0480 H   0  0  0  0  0  0  0  0  0  0  0  0
   -2.1320   -0.6425   -1.3827 H   0  0  0  0  0  0  0  0  0  0  0  0
   -0.7317    0.2230   -2.0723 H   0  0  0  0  0  0  0  0  0  0  0  0
   -2.3147    0.9249    1.0232 H   0  0  0  0  0  0  0  0  0  0  0  0
   -1.2479   -0.0324    2.1963 H   0  0  0  0  0  0  0  0  0  0  0  0
   -2.4230   -0.8431    1.0818 H   0  0  0  0  0  0  0  0  0  0  0  0
  1  2  1  0
  2  3  1  0
  3  4  1  0
  4  5  1  0
  5  6  1  0
  6  7  1  0
  7  8  1  0
  7  9  1  0
  7  2  1  0
  1 10  1  0
  1 11  1  0
  1 12  1  0
  2 13  1  0
  3 14  1  0
  3 15  1  0
  4 16  1  0
  4 17  1  0
  6 18  1  0
  6 19  1  0
  8 20  1  0
  8 21  1  0
  8 22  1  0
  9 23  1  0
  9 24  1  0
  9 25  1  0
M  END
