
     RDKit          3D

 19 20  0  0  0  0  0  0  0  0999 V2000
   -2.2346    0.4009    0.2920 C   0  0  0  0  0  0  0  0  0  0  0  0
   -1.0273   -0.2761   -0.3151 C   0  0  0  0  0  0  0  0  0  0  0  0
   -0.0859    0.7742   -0.8702 C   0  0  0  0  0  0  0  0  0  0  0  0
    1.3132    0.2670   -0.8729 C   0  0  0  0  0  0  0  0  0  0  0  0
    1.8452    0.2744    0.5403 C   0  0  0  0  0  0  0  0  0  0  0  0
    1.2148   -1.0985    0.5218 C   0  0  0  0  0  0  0  0  0  0  0  0
    1.4505   -1.1092   -0.8687 O   0  0  0  0  0  0  0  0  0  0  0  0
   -0.2522   -1.0511    0.6725 C   0  0  0  0  0  0  0  0  0  0  0  0
   -0.8048   -1.6246    1.5710 O   0  0  0  0  0  0  0  0  0  0  0  0
   -2.6538    1.0659   -0.4969 H   0  0  0  0  0  0  0  0  0  0  0  0
   -2.9838   -0.3707    0.5468 H   0  0  0  0  0  0  0  0  0  0  0  0
   -1.9222    0.9773    1.1621 H   0  0  0  0  0  0  0  0  0  0  0  0
   -1.3126   -0.9634   -1.1385 H   0  0  0  0  0  0  0  0  0  0  0  0
   -0.4679    1.0767   -1.8642 H   0  0  0  0  0  0  0  0  0  0  0  0
   -0.1286    1.6313   -0.1362 H   0  0  0  0  0  0  0  0  0  0  0  0
    1.9993    0.7198   -1.6212 H   0  0  0  0  0  0  0  0  0  0  0  0
    1.3625    1.0217    1.1664 H   0  0  0  0  0  0  0  0  0  0  0  0
    2.9442    0.1682    0.6329 H   0  0  0  0  0  0  0  0  0  0  0  0
    1.7441   -1.8838    1.0778 H   0  0  0  0  0  0  0  0  0  0  0  0
  1  2  1  0
  2  3  1  0
  3  4  1  0
  4  5  1  0
  5  6  1  0
  6  7  1  0
  6  8  1  0
  8  9  2  0
  8  2  1  0
  7  4  1  0
  1 10  1  0
  1 11  1  0
  1 12  1  0
  2 13  1  0
  3 14  1  0
  3 15  1  0
  4 16  1  0
  5 17  1  0
  5 18  1  0
  6 19  1  0
M  END
