
     RDKit          3D

 17 18  0  0  0  0  0  0  0  0999 V2000
    1.8091   -0.2599    0.7230 C   0  0  0  0  0  0  0  0  0  0  0  0
    1.1241    0.1262   -0.5458 C   0  0  0  0  0  0  0  0  0  0  0  0
    0.4453    1.4417   -0.4839 C   0  0  0  0  0  0  0  0  0  0  0  0
   -0.8399    1.3037   -0.3234 C   0  0  0  0  0  0  0  0  0  0  0  0
   -1.1821   -0.1242   -0.2571 C   0  0  0  0  0  0  0  0  0  0  0  0
   -1.9609   -0.7497    0.7158 C   0  0  0  0  0  0  0  0  0  0  0  0
   -2.4305   -0.5638   -0.6823 O   0  0  0  0  0  0  0  0  0  0  0  0
   -0.0251   -0.8040   -0.8566 C   0  0  0  0  0  0  0  0  0  0  0  0
    0.1004   -1.8456   -1.4681 O   0  0  0  0  0  0  0  0  0  0  0  0
    1.5357   -1.3043    1.0074 H   0  0  0  0  0  0  0  0  0  0  0  0
    2.9195   -0.3036    0.5342 H   0  0  0  0  0  0  0  0  0  0  0  0
    1.6809    0.4601    1.5512 H   0  0  0  0  0  0  0  0  0  0  0  0
    1.8177    0.1502   -1.4210 H   0  0  0  0  0  0  0  0  0  0  0  0
    1.0385    2.3732   -0.5723 H   0  0  0  0  0  0  0  0  0  0  0  0
   -1.5269    2.1658   -0.2536 H   0  0  0  0  0  0  0  0  0  0  0  0
   -1.8188   -1.8313    0.9609 H   0  0  0  0  0  0  0  0  0  0  0  0
   -2.6870   -0.2345    1.3717 H   0  0  0  0  0  0  0  0  0  0  0  0
  1  2  1  0
  2  3  1  0
  3  4  2  0
  4  5  1  0
  5  6  1  0
  6  7  1  0
  5  8  1  0
  8  9  2  0
  8  2  1  0
  7  5  1  0
  1 10  1  0
  1 11  1  0
  1 12  1  0
  2 13  1  0
  3 14  1  0
  4 15  1  0
  6 16  1  0
  6 17  1  0
M  END
