
     RDKit          3D

 23 24  0  0  0  0  0  0  0  0999 V2000
    1.7914   -0.8906   -1.2014 C   0  0  0  0  0  0  0  0  0  0  0  0
    1.2670    0.0693   -0.1599 C   0  0  0  0  0  0  0  0  0  0  0  0
    0.0537   -0.3627    0.5572 C   0  0  0  0  0  0  0  0  0  0  0  0
    0.0209   -0.0931    2.0603 C   0  0  0  0  0  0  0  0  0  0  0  0
   -0.9429   -1.2996   -0.0256 C   0  0  0  0  0  0  0  0  0  0  0  0
   -1.6064   -0.5381   -1.1610 C   0  0  0  0  0  0  0  0  0  0  0  0
   -0.7266    0.4571   -1.4826 O   0  0  0  0  0  0  0  0  0  0  0  0
   -0.0041    0.8128   -0.3795 C   0  0  0  0  0  0  0  0  0  0  0  0
   -0.2221    2.1814    0.1801 C   0  0  0  0  0  0  0  0  0  0  0  0
    1.2936   -1.8822   -1.1411 H   0  0  0  0  0  0  0  0  0  0  0  0
    1.6623   -0.4636   -2.2201 H   0  0  0  0  0  0  0  0  0  0  0  0
    2.8776   -1.0720   -1.0336 H   0  0  0  0  0  0  0  0  0  0  0  0
    2.0310    0.6028    0.4160 H   0  0  0  0  0  0  0  0  0  0  0  0
    0.5071    0.9016    2.2406 H   0  0  0  0  0  0  0  0  0  0  0  0
   -1.0289   -0.0733    2.3619 H   0  0  0  0  0  0  0  0  0  0  0  0
    0.6237   -0.8336    2.6224 H   0  0  0  0  0  0  0  0  0  0  0  0
   -1.7218   -1.5155    0.7533 H   0  0  0  0  0  0  0  0  0  0  0  0
   -0.5595   -2.2602   -0.3602 H   0  0  0  0  0  0  0  0  0  0  0  0
   -1.7286   -1.1849   -2.0717 H   0  0  0  0  0  0  0  0  0  0  0  0
   -2.6077   -0.1586   -0.8758 H   0  0  0  0  0  0  0  0  0  0  0  0
   -0.8128    2.7838   -0.5612 H   0  0  0  0  0  0  0  0  0  0  0  0
   -0.8679    2.0834    1.0837 H   0  0  0  0  0  0  0  0  0  0  0  0
    0.7012    2.7358    0.3983 H   0  0  0  0  0  0  0  0  0  0  0  0
  1  2  1  0
  2  3  1  0
  3  4  1  0
  3  5  1  0
  5  6  1  0
  6  7  1  0
  7  8  1  0
  8  9  1  0
  8  2  1  0
  8  3  1  0
  1 10  1  0
  1 11  1  0
  1 12  1  0
  2 13  1  0
  4 14  1  0
  4 15  1  0
  4 16  1  0
  5 17  1  0
  5 18  1  0
  6 19  1  0
  6 20  1  0
  9 21  1  0
  9 22  1  0
  9 23  1  0
M  END
