
     RDKit          3D

 18 19  0  0  0  0  0  0  0  0999 V2000
   -2.4919   -0.0893   -0.1488 C   0  0  0  0  0  0  0  0  0  0  0  0
   -1.0620   -0.4076    0.1125 C   0  0  0  0  0  0  0  0  0  0  0  0
   -0.2655    0.6291    0.8623 C   0  0  0  0  0  0  0  0  0  0  0  0
    0.8387    0.4187   -0.1457 C   0  0  0  0  0  0  0  0  0  0  0  0
    2.1119   -0.2377    0.2321 C   0  0  0  0  0  0  0  0  0  0  0  0
    3.1701    0.6008   -0.1169 O   0  0  0  0  0  0  0  0  0  0  0  0
    0.5266    0.7736   -1.4257 O   0  0  0  0  0  0  0  0  0  0  0  0
   -0.1163   -0.3750   -1.0316 C   0  0  0  0  0  0  0  0  0  0  0  0
   -2.5570    0.6724   -0.9520 H   0  0  0  0  0  0  0  0  0  0  0  0
   -3.0014   -1.0497   -0.4418 H   0  0  0  0  0  0  0  0  0  0  0  0
   -2.9504    0.2811    0.8091 H   0  0  0  0  0  0  0  0  0  0  0  0
   -0.9729   -1.3875    0.6609 H   0  0  0  0  0  0  0  0  0  0  0  0
   -0.6549    1.6781    0.7446 H   0  0  0  0  0  0  0  0  0  0  0  0
   -0.0048    0.4029    1.8934 H   0  0  0  0  0  0  0  0  0  0  0  0
    2.2360   -1.1743   -0.3644 H   0  0  0  0  0  0  0  0  0  0  0  0
    2.1001   -0.5115    1.2914 H   0  0  0  0  0  0  0  0  0  0  0  0
    2.8794    1.0866   -0.9303 H   0  0  0  0  0  0  0  0  0  0  0  0
    0.2143   -1.3110   -1.4832 H   0  0  0  0  0  0  0  0  0  0  0  0
  1  2  1  0
  2  3  1  0
  3  4  1  0
  4  5  1  0
  5  6  1  0
  4  7  1  0
  7  8  1  0
  8  2  1  0
  8  4  1  0
  1  9  1  0
  1 10  1  0
  1 11  1  0
  2 12  1  0
  3 13  1  0
  3 14  1  0
  5 15  1  0
  5 16  1  0
  6 17  1  0
  8 18  1  0
M  END
