
     RDKit          3D

 21 23  0  0  0  0  0  0  0  0999 V2000
    2.1373   -0.4921   -0.1389 C   0  0  0  0  0  0  0  0  0  0  0  0
    0.7690   -0.9308    0.2712 C   0  0  0  0  0  0  0  0  0  0  0  0
   -0.3373   -0.4693   -0.6071 C   0  0  0  0  0  0  0  0  0  0  0  0
   -0.1549    0.5756   -1.6461 C   0  0  0  0  0  0  0  0  0  0  0  0
   -1.7082   -1.0105   -0.2770 C   0  0  0  0  0  0  0  0  0  0  0  0
   -2.6161   -0.0866    0.1753 O   0  0  0  0  0  0  0  0  0  0  0  0
   -1.6136   -0.6040    1.0479 C   0  0  0  0  0  0  0  0  0  0  0  0
   -0.2283   -0.0607    0.8572 C   0  0  0  0  0  0  0  0  0  0  0  0
   -0.0401    1.3734    1.1908 C   0  0  0  0  0  0  0  0  0  0  0  0
    2.8628   -1.3494   -0.1705 H   0  0  0  0  0  0  0  0  0  0  0  0
    2.1446   -0.0974   -1.1980 H   0  0  0  0  0  0  0  0  0  0  0  0
    2.5412    0.3493    0.4699 H   0  0  0  0  0  0  0  0  0  0  0  0
    0.7015   -2.0252    0.5403 H   0  0  0  0  0  0  0  0  0  0  0  0
    0.6503    1.3092   -1.3509 H   0  0  0  0  0  0  0  0  0  0  0  0
   -1.0830    1.1673   -1.7346 H   0  0  0  0  0  0  0  0  0  0  0  0
    0.1352    0.1141   -2.6247 H   0  0  0  0  0  0  0  0  0  0  0  0
   -2.0165   -1.9951   -0.6610 H   0  0  0  0  0  0  0  0  0  0  0  0
   -1.9537   -1.0251    1.9848 H   0  0  0  0  0  0  0  0  0  0  0  0
    0.7454    1.8930    0.6320 H   0  0  0  0  0  0  0  0  0  0  0  0
    0.0795    1.4700    2.2832 H   0  0  0  0  0  0  0  0  0  0  0  0
   -1.0152    1.8941    0.9561 H   0  0  0  0  0  0  0  0  0  0  0  0
  1  2  1  0
  2  3  1  0
  3  4  1  0
  3  5  1  0
  5  6  1  0
  6  7  1  0
  7  8  1  0
  8  9  1  0
  8  2  1  0
  8  3  1  0
  7  5  1  0
  1 10  1  0
  1 11  1  0
  1 12  1  0
  2 13  1  0
  4 14  1  0
  4 15  1  0
  4 16  1  0
  5 17  1  0
  7 18  1  0
  9 19  1  0
  9 20  1  0
  9 21  1  0
M  END
