
     RDKit          3D

 21 22  0  0  0  0  0  0  0  0999 V2000
   -2.1490   -0.9318    0.5086 C   0  0  0  0  0  0  0  0  0  0  0  0
   -0.8722   -0.0841    0.5589 C   0  0  0  0  0  0  0  0  0  0  0  0
   -1.1170    1.0925   -0.3612 C   0  0  0  0  0  0  0  0  0  0  0  0
    0.0812    1.9713   -0.2890 C   0  0  0  0  0  0  0  0  0  0  0  0
    1.2565    1.3547   -0.3835 C   0  0  0  0  0  0  0  0  0  0  0  0
    1.3769   -0.1105   -0.5499 C   0  0  0  0  0  0  0  0  0  0  0  0
    1.9125   -0.5881   -1.7198 O   0  0  0  0  0  0  0  0  0  0  0  0
    1.6100   -0.8409    0.7554 C   0  0  0  0  0  0  0  0  0  0  0  0
    0.3016   -0.9004    0.0789 C   0  0  0  0  0  0  0  0  0  0  0  0
   -2.3162   -1.3660    1.4999 H   0  0  0  0  0  0  0  0  0  0  0  0
   -2.9882   -0.3860    0.0794 H   0  0  0  0  0  0  0  0  0  0  0  0
   -1.9388   -1.7954   -0.1852 H   0  0  0  0  0  0  0  0  0  0  0  0
   -0.7603    0.2913    1.5771 H   0  0  0  0  0  0  0  0  0  0  0  0
   -1.2416    0.7394   -1.4205 H   0  0  0  0  0  0  0  0  0  0  0  0
   -2.0441    1.6109   -0.0591 H   0  0  0  0  0  0  0  0  0  0  0  0
    0.0161    3.0506   -0.1670 H   0  0  0  0  0  0  0  0  0  0  0  0
    2.1766    1.9303   -0.3392 H   0  0  0  0  0  0  0  0  0  0  0  0
    2.6855   -1.2068   -1.5752 H   0  0  0  0  0  0  0  0  0  0  0  0
    1.6773   -0.2744    1.6986 H   0  0  0  0  0  0  0  0  0  0  0  0
    2.2975   -1.6884    0.6885 H   0  0  0  0  0  0  0  0  0  0  0  0
    0.0355   -1.8682   -0.3958 H   0  0  0  0  0  0  0  0  0  0  0  0
  1  2  1  0
  2  3  1  0
  3  4  1  0
  4  5  2  0
  5  6  1  0
  6  7  1  0
  6  8  1  0
  8  9  1  0
  9  2  1  0
  9  6  1  0
  1 10  1  0
  1 11  1  0
  1 12  1  0
  2 13  1  0
  3 14  1  0
  3 15  1  0
  4 16  1  0
  5 17  1  0
  7 18  1  0
  8 19  1  0
  8 20  1  0
  9 21  1  0
M  END
