
     RDKit          3D

 16 17  0  0  0  0  0  0  0  0999 V2000
    2.2848   -0.0341    0.3422 C   0  0  0  0  0  0  0  0  0  0  0  0
    1.0242   -0.0127   -0.5344 C   0  0  0  0  0  0  0  0  0  0  0  0
   -0.0467   -0.8245   -0.1430 C   0  0  0  0  0  0  0  0  0  0  0  0
   -0.8747   -0.8960    0.9452 O   0  0  0  0  0  0  0  0  0  0  0  0
   -2.0427   -0.2995    0.3812 C   0  0  0  0  0  0  0  0  0  0  0  0
   -1.4937    0.7985   -0.4756 C   0  0  0  0  0  0  0  0  0  0  0  0
   -2.0865    1.5212   -1.2340 O   0  0  0  0  0  0  0  0  0  0  0  0
   -0.0794    0.7629   -0.1560 C   0  0  0  0  0  0  0  0  0  0  0  0
    2.6427   -1.0531    0.5216 H   0  0  0  0  0  0  0  0  0  0  0  0
    3.1044    0.5518   -0.1181 H   0  0  0  0  0  0  0  0  0  0  0  0
    2.0310    0.5052    1.2989 H   0  0  0  0  0  0  0  0  0  0  0  0
    1.3456    0.0172   -1.6156 H   0  0  0  0  0  0  0  0  0  0  0  0
   -0.6048   -1.3171   -1.0037 H   0  0  0  0  0  0  0  0  0  0  0  0
   -2.5485   -1.0361   -0.2674 H   0  0  0  0  0  0  0  0  0  0  0  0
   -2.6893    0.0721    1.1876 H   0  0  0  0  0  0  0  0  0  0  0  0
    0.0335    1.2441    0.8711 H   0  0  0  0  0  0  0  0  0  0  0  0
  1  2  1  0
  2  3  1  0
  3  4  1  0
  4  5  1  0
  5  6  1  0
  6  7  2  0
  6  8  1  0
  8  2  1  0
  8  3  1  0
  1  9  1  0
  1 10  1  0
  1 11  1  0
  2 12  1  0
  3 13  1  0
  5 14  1  0
  5 15  1  0
  8 16  1  0
M  END
