
     RDKit          3D

 23 23  0  0  0  0  0  0  0  0999 V2000
   -2.2636    0.0276   -1.2000 C   0  0  0  0  0  0  0  0  0  0  0  0
   -0.9848   -0.4872   -0.6160 C   0  0  0  0  0  0  0  0  0  0  0  0
   -0.8670   -0.3706    0.9152 C   0  0  0  0  0  0  0  0  0  0  0  0
   -0.4549   -1.5366    1.5084 O   0  0  0  0  0  0  0  0  0  0  0  0
   -0.0320    0.4674    0.0630 C   0  0  0  0  0  0  0  0  0  0  0  0
   -0.4787    1.9294   -0.0718 C   0  0  0  0  0  0  0  0  0  0  0  0
    1.4422    0.2874   -0.1028 C   0  0  0  0  0  0  0  0  0  0  0  0
    1.9621   -1.0274    0.3832 C   0  0  0  0  0  0  0  0  0  0  0  0
    3.3475   -1.0370    0.1581 O   0  0  0  0  0  0  0  0  0  0  0  0
   -2.9727    0.4069   -0.4412 H   0  0  0  0  0  0  0  0  0  0  0  0
   -2.1015    0.8233   -1.9638 H   0  0  0  0  0  0  0  0  0  0  0  0
   -2.7592   -0.8088   -1.7263 H   0  0  0  0  0  0  0  0  0  0  0  0
   -0.4973   -1.3438   -1.1078 H   0  0  0  0  0  0  0  0  0  0  0  0
   -1.7470    0.1016    1.4376 H   0  0  0  0  0  0  0  0  0  0  0  0
   -0.6663   -2.3512    0.9868 H   0  0  0  0  0  0  0  0  0  0  0  0
   -0.2652    2.4063    0.9063 H   0  0  0  0  0  0  0  0  0  0  0  0
    0.1294    2.4204   -0.8813 H   0  0  0  0  0  0  0  0  0  0  0  0
   -1.5422    2.0039   -0.3349 H   0  0  0  0  0  0  0  0  0  0  0  0
    1.9439    1.0845    0.4964 H   0  0  0  0  0  0  0  0  0  0  0  0
    1.7670    0.4289   -1.1578 H   0  0  0  0  0  0  0  0  0  0  0  0
    1.8393   -1.0892    1.4876 H   0  0  0  0  0  0  0  0  0  0  0  0
    1.4519   -1.8593   -0.1515 H   0  0  0  0  0  0  0  0  0  0  0  0
    3.7489   -0.4764    0.8718 H   0  0  0  0  0  0  0  0  0  0  0  0
  1  2  1  0
  2  3  1  0
  3  4  1  0
  3  5  1  0
  5  6  1  0
  5  7  1  0
  7  8  1  0
  8  9  1  0
  5  2  1  0
  1 10  1  0
  1 11  1  0
  1 12  1  0
  2 13  1  0
  3 14  1  0
  4 15  1  0
  6 16  1  0
  6 17  1  0
  6 18  1  0
  7 19  1  0
  7 20  1  0
  8 21  1  0
  8 22  1  0
  9 23  1  0
M  END
