
     RDKit          3D

 23 24  0  0  0  0  0  0  0  0999 V2000
    2.5948   -0.5845   -0.3892 C   0  0  0  0  0  0  0  0  0  0  0  0
    1.6340    0.1296    0.5426 C   0  0  0  0  0  0  0  0  0  0  0  0
    0.3286   -0.4635    0.7211 C   0  0  0  0  0  0  0  0  0  0  0  0
   -0.3745   -1.3727   -0.2138 C   0  0  0  0  0  0  0  0  0  0  0  0
   -1.8405   -0.9532   -0.2426 C   0  0  0  0  0  0  0  0  0  0  0  0
   -1.9916    0.5462   -0.2650 C   0  0  0  0  0  0  0  0  0  0  0  0
   -1.5540    1.1868    0.8591 O   0  0  0  0  0  0  0  0  0  0  0  0
   -0.3335    1.8619    0.6032 C   0  0  0  0  0  0  0  0  0  0  0  0
    0.5482    0.8650   -0.0595 C   0  0  0  0  0  0  0  0  0  0  0  0
    3.5074    0.0447   -0.4511 H   0  0  0  0  0  0  0  0  0  0  0  0
    2.9324   -1.5576    0.0468 H   0  0  0  0  0  0  0  0  0  0  0  0
    2.1540   -0.7469   -1.3965 H   0  0  0  0  0  0  0  0  0  0  0  0
    2.1514    0.5197    1.4492 H   0  0  0  0  0  0  0  0  0  0  0  0
   -0.1354   -0.3974    1.7246 H   0  0  0  0  0  0  0  0  0  0  0  0
    0.0699   -1.3596   -1.2161 H   0  0  0  0  0  0  0  0  0  0  0  0
   -0.3479   -2.4309    0.1465 H   0  0  0  0  0  0  0  0  0  0  0  0
   -2.3862   -1.4363    0.5649 H   0  0  0  0  0  0  0  0  0  0  0  0
   -2.2392   -1.3288   -1.2119 H   0  0  0  0  0  0  0  0  0  0  0  0
   -3.1041    0.7302   -0.3338 H   0  0  0  0  0  0  0  0  0  0  0  0
   -1.5851    0.9370   -1.2175 H   0  0  0  0  0  0  0  0  0  0  0  0
   -0.5637    2.7360   -0.0512 H   0  0  0  0  0  0  0  0  0  0  0  0
    0.0858    2.2468    1.5533 H   0  0  0  0  0  0  0  0  0  0  0  0
    0.4491    0.8275   -1.1629 H   0  0  0  0  0  0  0  0  0  0  0  0
  1  2  1  0
  2  3  1  0
  3  4  1  0
  4  5  1  0
  5  6  1  0
  6  7  1  0
  7  8  1  0
  8  9  1  0
  9  2  1  0
  9  3  1  0
  1 10  1  0
  1 11  1  0
  1 12  1  0
  2 13  1  0
  3 14  1  0
  4 15  1  0
  4 16  1  0
  5 17  1  0
  5 18  1  0
  6 19  1  0
  6 20  1  0
  8 21  1  0
  8 22  1  0
  9 23  1  0
M  END
