
     RDKit          3D

 20 21  0  0  0  0  0  0  0  0999 V2000
    2.2326   -0.2734   -0.2680 C   0  0  0  0  0  0  0  0  0  0  0  0
    0.7385   -0.3274   -0.3957 C   0  0  0  0  0  0  0  0  0  0  0  0
    0.0166   -0.1598    0.9436 C   0  0  0  0  0  0  0  0  0  0  0  0
   -1.3739   -0.7008    0.7541 C   0  0  0  0  0  0  0  0  0  0  0  0
   -1.7624   -0.4794   -0.6983 C   0  0  0  0  0  0  0  0  0  0  0  0
   -1.2298    0.6534   -1.2411 O   0  0  0  0  0  0  0  0  0  0  0  0
    0.0581    0.9305   -0.8279 C   0  0  0  0  0  0  0  0  0  0  0  0
   -0.0285    1.3233    0.6536 C   0  0  0  0  0  0  0  0  0  0  0  0
    2.5676   -1.3038    0.0213 H   0  0  0  0  0  0  0  0  0  0  0  0
    2.5726    0.3828    0.5688 H   0  0  0  0  0  0  0  0  0  0  0  0
    2.7245   -0.0458   -1.2165 H   0  0  0  0  0  0  0  0  0  0  0  0
    0.4106   -1.2045   -0.9630 H   0  0  0  0  0  0  0  0  0  0  0  0
    0.5684   -0.4774    1.8196 H   0  0  0  0  0  0  0  0  0  0  0  0
   -1.3915   -1.7761    0.9958 H   0  0  0  0  0  0  0  0  0  0  0  0
   -2.0522   -0.0902    1.3797 H   0  0  0  0  0  0  0  0  0  0  0  0
   -1.5901   -1.3992   -1.3149 H   0  0  0  0  0  0  0  0  0  0  0  0
   -2.8855   -0.3591   -0.6987 H   0  0  0  0  0  0  0  0  0  0  0  0
    0.6104    1.6423   -1.4264 H   0  0  0  0  0  0  0  0  0  0  0  0
   -1.0117    1.7511    0.9271 H   0  0  0  0  0  0  0  0  0  0  0  0
    0.8257    1.9134    0.9869 H   0  0  0  0  0  0  0  0  0  0  0  0
  1  2  1  0
  2  3  1  0
  3  4  1  0
  4  5  1  0
  5  6  1  0
  6  7  1  0
  7  8  1  0
  7  2  1  0
  8  3  1  0
  1  9  1  0
  1 10  1  0
  1 11  1  0
  2 12  1  0
  3 13  1  0
  4 14  1  0
  4 15  1  0
  5 16  1  0
  5 17  1  0
  7 18  1  0
  8 19  1  0
  8 20  1  0
M  END
