
     RDKit          3D

 27 27  0  0  0  0  0  0  0  0999 V2000
    2.1370    0.9555    0.5085 C   0  0  0  0  0  0  0  0  0  0  0  0
    1.0503    0.4009   -0.3823 C   0  0  0  0  0  0  0  0  0  0  0  0
    0.0503    1.4537   -0.6854 C   0  0  0  0  0  0  0  0  0  0  0  0
   -1.0959    1.5299    0.2724 C   0  0  0  0  0  0  0  0  0  0  0  0
   -2.2319    0.6114   -0.0575 C   0  0  0  0  0  0  0  0  0  0  0  0
   -1.9578   -0.8124    0.3920 C   0  0  0  0  0  0  0  0  0  0  0  0
   -0.7709   -1.3060   -0.3918 C   0  0  0  0  0  0  0  0  0  0  0  0
    0.5005   -0.8283    0.2654 C   0  0  0  0  0  0  0  0  0  0  0  0
    1.5395   -1.9302    0.0997 C   0  0  0  0  0  0  0  0  0  0  0  0
    2.8938    0.2122    0.7943 H   0  0  0  0  0  0  0  0  0  0  0  0
    1.7026    1.4232    1.4050 H   0  0  0  0  0  0  0  0  0  0  0  0
    2.6647    1.7408   -0.0726 H   0  0  0  0  0  0  0  0  0  0  0  0
    1.5631    0.0690   -1.3282 H   0  0  0  0  0  0  0  0  0  0  0  0
    0.5824    2.4486   -0.6339 H   0  0  0  0  0  0  0  0  0  0  0  0
   -0.2895    1.3661   -1.7331 H   0  0  0  0  0  0  0  0  0  0  0  0
   -1.4975    2.5754    0.2304 H   0  0  0  0  0  0  0  0  0  0  0  0
   -0.7782    1.3360    1.3029 H   0  0  0  0  0  0  0  0  0  0  0  0
   -2.5053    0.6073   -1.1346 H   0  0  0  0  0  0  0  0  0  0  0  0
   -3.1227    0.9755    0.5158 H   0  0  0  0  0  0  0  0  0  0  0  0
   -1.7446   -0.7703    1.4846 H   0  0  0  0  0  0  0  0  0  0  0  0
   -2.8351   -1.4318    0.1614 H   0  0  0  0  0  0  0  0  0  0  0  0
   -0.8442   -2.4011   -0.4668 H   0  0  0  0  0  0  0  0  0  0  0  0
   -0.8059   -0.9085   -1.4280 H   0  0  0  0  0  0  0  0  0  0  0  0
    0.3570   -0.6625    1.3682 H   0  0  0  0  0  0  0  0  0  0  0  0
    1.1944   -2.7010   -0.6274 H   0  0  0  0  0  0  0  0  0  0  0  0
    1.7487   -2.4143    1.0595 H   0  0  0  0  0  0  0  0  0  0  0  0
    2.4952   -1.5391   -0.3129 H   0  0  0  0  0  0  0  0  0  0  0  0
  1  2  1  0
  2  3  1  0
  3  4  1  0
  4  5  1  0
  5  6  1  0
  6  7  1  0
  7  8  1  0
  8  9  1  0
  8  2  1  0
  1 10  1  0
  1 11  1  0
  1 12  1  0
  2 13  1  0
  3 14  1  0
  3 15  1  0
  4 16  1  0
  4 17  1  0
  5 18  1  0
  5 19  1  0
  6 20  1  0
  6 21  1  0
  7 22  1  0
  7 23  1  0
  8 24  1  0
  9 25  1  0
  9 26  1  0
  9 27  1  0
M  END
