
     RDKit          3D

 23 24  0  0  0  0  0  0  0  0999 V2000
   -2.0410   -1.4010   -0.9559 C   0  0  0  0  0  0  0  0  0  0  0  0
   -1.2387   -0.5386   -0.0454 C   0  0  0  0  0  0  0  0  0  0  0  0
   -1.6210    0.9330   -0.1249 C   0  0  0  0  0  0  0  0  0  0  0  0
   -0.4079    1.5475    0.5894 C   0  0  0  0  0  0  0  0  0  0  0  0
    0.7200    0.8591   -0.1448 C   0  0  0  0  0  0  0  0  0  0  0  0
    1.4677    1.6459   -1.0003 O   0  0  0  0  0  0  0  0  0  0  0  0
    1.2825   -0.4210    0.3716 C   0  0  0  0  0  0  0  0  0  0  0  0
    2.6398   -0.8280   -0.1499 C   0  0  0  0  0  0  0  0  0  0  0  0
    0.1830   -0.4724   -0.6175 C   0  0  0  0  0  0  0  0  0  0  0  0
   -3.0416   -0.9985   -1.1194 H   0  0  0  0  0  0  0  0  0  0  0  0
   -2.0431   -2.4360   -0.5209 H   0  0  0  0  0  0  0  0  0  0  0  0
   -1.5550   -1.5263   -1.9611 H   0  0  0  0  0  0  0  0  0  0  0  0
   -1.1651   -0.8974    0.9924 H   0  0  0  0  0  0  0  0  0  0  0  0
   -1.5377    1.2266   -1.1743 H   0  0  0  0  0  0  0  0  0  0  0  0
   -2.5580    1.1659    0.3699 H   0  0  0  0  0  0  0  0  0  0  0  0
   -0.4153    1.2395    1.6719 H   0  0  0  0  0  0  0  0  0  0  0  0
   -0.3949    2.6377    0.4958 H   0  0  0  0  0  0  0  0  0  0  0  0
    1.5137    2.5592   -0.6220 H   0  0  0  0  0  0  0  0  0  0  0  0
    1.0149   -0.7363    1.4080 H   0  0  0  0  0  0  0  0  0  0  0  0
    3.0901   -1.5527    0.5474 H   0  0  0  0  0  0  0  0  0  0  0  0
    2.5445   -1.3755   -1.1291 H   0  0  0  0  0  0  0  0  0  0  0  0
    3.2312    0.0751   -0.3243 H   0  0  0  0  0  0  0  0  0  0  0  0
    0.3320   -0.7056   -1.6727 H   0  0  0  0  0  0  0  0  0  0  0  0
  1  2  1  0
  2  3  1  0
  3  4  1  0
  4  5  1  0
  5  6  1  0
  5  7  1  0
  7  8  1  0
  7  9  1  0
  9  2  1  0
  9  5  1  0
  1 10  1  0
  1 11  1  0
  1 12  1  0
  2 13  1  0
  3 14  1  0
  3 15  1  0
  4 16  1  0
  4 17  1  0
  6 18  1  0
  7 19  1  0
  8 20  1  0
  8 21  1  0
  8 22  1  0
  9 23  1  0
M  END
