
     RDKit          3D

 19 19  0  0  0  0  0  0  0  0999 V2000
   -2.3203    0.1259   -0.3348 C   0  0  0  0  0  0  0  0  0  0  0  0
   -0.9460   -0.0468    0.2955 C   0  0  0  0  0  0  0  0  0  0  0  0
   -0.2412   -1.1257   -0.4476 C   0  0  0  0  0  0  0  0  0  0  0  0
    1.0735   -1.4998    0.0626 C   0  0  0  0  0  0  0  0  0  0  0  0
    2.0930   -0.7162    0.3492 C   0  0  0  0  0  0  0  0  0  0  0  0
    2.1111    0.7339    0.2086 C   0  0  0  0  0  0  0  0  0  0  0  0
    1.1154    1.6226    0.1823 C   0  0  0  0  0  0  0  0  0  0  0  0
   -0.2961    1.2591    0.3015 C   0  0  0  0  0  0  0  0  0  0  0  0
   -1.1140    2.2343    0.4339 O   0  0  0  0  0  0  0  0  0  0  0  0
   -2.4428   -0.5089   -1.2400 H   0  0  0  0  0  0  0  0  0  0  0  0
   -2.4966    1.1680   -0.6703 H   0  0  0  0  0  0  0  0  0  0  0  0
   -3.1378   -0.1408    0.3485 H   0  0  0  0  0  0  0  0  0  0  0  0
   -1.1268   -0.3702    1.3419 H   0  0  0  0  0  0  0  0  0  0  0  0
   -0.8940   -2.0235   -0.4435 H   0  0  0  0  0  0  0  0  0  0  0  0
   -0.1272   -0.8530   -1.5297 H   0  0  0  0  0  0  0  0  0  0  0  0
    1.2720   -2.5730    0.2428 H   0  0  0  0  0  0  0  0  0  0  0  0
    3.0166   -1.1648    0.7265 H   0  0  0  0  0  0  0  0  0  0  0  0
    3.1017    1.2102    0.1054 H   0  0  0  0  0  0  0  0  0  0  0  0
    1.3595    2.6686    0.0670 H   0  0  0  0  0  0  0  0  0  0  0  0
  1  2  1  0
  2  3  1  0
  3  4  1  0
  4  5  2  0
  5  6  1  0
  6  7  2  0
  7  8  1  0
  8  9  2  0
  8  2  1  0
  1 10  1  0
  1 11  1  0
  1 12  1  0
  2 13  1  0
  3 14  1  0
  3 15  1  0
  4 16  1  0
  5 17  1  0
  6 18  1  0
  7 19  1  0
M  END
