
     RDKit          3D

 17 17  0  0  0  0  0  0  0  0999 V2000
   -1.2196    1.3508    0.1315 C   0  0  0  0  0  0  0  0  0  0  0  0
   -0.4839    0.5515   -0.8934 C   0  0  0  0  0  0  0  0  0  0  0  0
   -0.5387   -0.9648   -0.6288 C   0  0  0  0  0  0  0  0  0  0  0  0
   -1.1689   -1.4141    0.5044 O   0  0  0  0  0  0  0  0  0  0  0  0
    0.7258   -0.2199   -0.6093 C   0  0  0  0  0  0  0  0  0  0  0  0
    1.4849    0.0522    0.6544 C   0  0  0  0  0  0  0  0  0  0  0  0
    2.6094   -0.7414    0.8087 O   0  0  0  0  0  0  0  0  0  0  0  0
   -1.0691    2.4281    0.0733 H   0  0  0  0  0  0  0  0  0  0  0  0
   -0.9668    0.9240    1.1435 H   0  0  0  0  0  0  0  0  0  0  0  0
   -2.3176    1.1311    0.0063 H   0  0  0  0  0  0  0  0  0  0  0  0
   -0.6865    0.8767   -1.9525 H   0  0  0  0  0  0  0  0  0  0  0  0
   -0.7941   -1.5759   -1.5400 H   0  0  0  0  0  0  0  0  0  0  0  0
   -2.1333   -1.5219    0.4370 H   0  0  0  0  0  0  0  0  0  0  0  0
    1.3997   -0.4069   -1.4918 H   0  0  0  0  0  0  0  0  0  0  0  0
    0.8302    0.0346    1.5529 H   0  0  0  0  0  0  0  0  0  0  0  0
    1.8783    1.1116    0.6104 H   0  0  0  0  0  0  0  0  0  0  0  0
    2.4500   -1.6157    1.1933 H   0  0  0  0  0  0  0  0  0  0  0  0
  1  2  1  0
  2  3  1  0
  3  4  1  0
  3  5  1  0
  5  6  1  0
  6  7  1  0
  5  2  1  0
  1  8  1  0
  1  9  1  0
  1 10  1  0
  2 11  1  0
  3 12  1  0
  4 13  1  0
  5 14  1  0
  6 15  1  0
  6 16  1  0
  7 17  1  0
M  END
