
     RDKit          3D

 23 24  0  0  0  0  0  0  0  0999 V2000
   -2.2610    0.9792    0.0895 C   0  0  0  0  0  0  0  0  0  0  0  0
   -0.9422    0.3282    0.4319 C   0  0  0  0  0  0  0  0  0  0  0  0
   -1.1997   -1.1773    0.4640 C   0  0  0  0  0  0  0  0  0  0  0  0
    0.2135   -1.7131    0.4448 C   0  0  0  0  0  0  0  0  0  0  0  0
    0.8014   -0.9070   -0.7174 C   0  0  0  0  0  0  0  0  0  0  0  0
    2.1130   -0.2528   -0.3702 C   0  0  0  0  0  0  0  0  0  0  0  0
    1.3832    1.0699   -0.3075 C   0  0  0  0  0  0  0  0  0  0  0  0
    1.4287    1.6792    0.9293 O   0  0  0  0  0  0  0  0  0  0  0  0
    0.0671    0.4310   -0.6810 C   0  0  0  0  0  0  0  0  0  0  0  0
   -2.4616    1.8897    0.6869 H   0  0  0  0  0  0  0  0  0  0  0  0
   -3.1204    0.2872    0.3153 H   0  0  0  0  0  0  0  0  0  0  0  0
   -2.3215    1.1570   -1.0066 H   0  0  0  0  0  0  0  0  0  0  0  0
   -0.5289    0.6799    1.3957 H   0  0  0  0  0  0  0  0  0  0  0  0
   -1.6989   -1.4244   -0.4790 H   0  0  0  0  0  0  0  0  0  0  0  0
   -1.7874   -1.4920    1.3200 H   0  0  0  0  0  0  0  0  0  0  0  0
    0.7294   -1.4237    1.3727 H   0  0  0  0  0  0  0  0  0  0  0  0
    0.1803   -2.7820    0.2400 H   0  0  0  0  0  0  0  0  0  0  0  0
    0.7927   -1.4179   -1.6838 H   0  0  0  0  0  0  0  0  0  0  0  0
    2.8401   -0.3721   -1.1771 H   0  0  0  0  0  0  0  0  0  0  0  0
    2.5305   -0.6158    0.5868 H   0  0  0  0  0  0  0  0  0  0  0  0
    1.7850    1.7515   -1.0871 H   0  0  0  0  0  0  0  0  0  0  0  0
    1.7981    2.5982    0.9062 H   0  0  0  0  0  0  0  0  0  0  0  0
   -0.3414    0.7271   -1.6733 H   0  0  0  0  0  0  0  0  0  0  0  0
  1  2  1  0
  2  3  1  0
  3  4  1  0
  4  5  1  0
  5  6  1  0
  6  7  1  0
  7  8  1  0
  7  9  1  0
  9  2  1  0
  9  5  1  0
  1 10  1  0
  1 11  1  0
  1 12  1  0
  2 13  1  0
  3 14  1  0
  3 15  1  0
  4 16  1  0
  4 17  1  0
  5 18  1  0
  6 19  1  0
  6 20  1  0
  7 21  1  0
  8 22  1  0
  9 23  1  0
M  END
