
     RDKit          3D

 21 22  0  0  0  0  0  0  0  0999 V2000
   -2.4178    0.8345    0.1141 C   0  0  0  0  0  0  0  0  0  0  0  0
   -1.1674    0.2441   -0.4266 C   0  0  0  0  0  0  0  0  0  0  0  0
   -0.9825   -1.2142   -0.0096 C   0  0  0  0  0  0  0  0  0  0  0  0
    0.1733   -1.7044   -0.8099 C   0  0  0  0  0  0  0  0  0  0  0  0
    1.2127   -0.9337   -0.9576 C   0  0  0  0  0  0  0  0  0  0  0  0
    1.3475    0.3858   -0.3996 C   0  0  0  0  0  0  0  0  0  0  0  0
    2.5544    0.5581    0.5120 C   0  0  0  0  0  0  0  0  0  0  0  0
    0.8368    1.5174   -1.0199 O   0  0  0  0  0  0  0  0  0  0  0  0
    0.0474    0.9922   -0.0052 C   0  0  0  0  0  0  0  0  0  0  0  0
   -3.2199    0.0736    0.0784 H   0  0  0  0  0  0  0  0  0  0  0  0
   -2.7112    1.6939   -0.5537 H   0  0  0  0  0  0  0  0  0  0  0  0
   -2.3487    1.2093    1.1447 H   0  0  0  0  0  0  0  0  0  0  0  0
   -1.2626    0.2208   -1.5430 H   0  0  0  0  0  0  0  0  0  0  0  0
   -1.8837   -1.7400   -0.3313 H   0  0  0  0  0  0  0  0  0  0  0  0
   -0.8428   -1.3217    1.0726 H   0  0  0  0  0  0  0  0  0  0  0  0
    0.0936   -2.7169   -1.2482 H   0  0  0  0  0  0  0  0  0  0  0  0
    2.0431   -1.3448   -1.5614 H   0  0  0  0  0  0  0  0  0  0  0  0
    3.4372    0.3060   -0.1089 H   0  0  0  0  0  0  0  0  0  0  0  0
    2.4086   -0.1371    1.3640 H   0  0  0  0  0  0  0  0  0  0  0  0
    2.6153    1.6094    0.7828 H   0  0  0  0  0  0  0  0  0  0  0  0
    0.0668    1.4678    0.9954 H   0  0  0  0  0  0  0  0  0  0  0  0
  1  2  1  0
  2  3  1  0
  3  4  1  0
  4  5  2  0
  5  6  1  0
  6  7  1  0
  6  8  1  0
  8  9  1  0
  9  2  1  0
  9  6  1  0
  1 10  1  0
  1 11  1  0
  1 12  1  0
  2 13  1  0
  3 14  1  0
  3 15  1  0
  4 16  1  0
  5 17  1  0
  7 18  1  0
  7 19  1  0
  7 20  1  0
  9 21  1  0
M  END
