
     RDKit          3D

 19 21  0  0  0  0  0  0  0  0999 V2000
    1.9408   -0.7330    0.2951 C   0  0  0  0  0  0  0  0  0  0  0  0
    0.9460    0.1161   -0.4452 C   0  0  0  0  0  0  0  0  0  0  0  0
    0.4148    1.1592    0.4818 C   0  0  0  0  0  0  0  0  0  0  0  0
   -1.0534    1.2823    0.1099 C   0  0  0  0  0  0  0  0  0  0  0  0
   -1.8011   -0.0129    0.3657 C   0  0  0  0  0  0  0  0  0  0  0  0
   -0.9553   -1.2082    0.3489 C   0  0  0  0  0  0  0  0  0  0  0  0
   -0.8500   -2.2040    1.0376 O   0  0  0  0  0  0  0  0  0  0  0  0
   -0.2717   -0.7043   -0.8636 C   0  0  0  0  0  0  0  0  0  0  0  0
   -1.3250    0.3510   -0.9711 C   0  0  0  0  0  0  0  0  0  0  0  0
    1.7121   -1.8074    0.1420 H   0  0  0  0  0  0  0  0  0  0  0  0
    1.8584   -0.5728    1.4054 H   0  0  0  0  0  0  0  0  0  0  0  0
    2.9883   -0.4698    0.0368 H   0  0  0  0  0  0  0  0  0  0  0  0
    1.4408    0.5873   -1.3177 H   0  0  0  0  0  0  0  0  0  0  0  0
    0.4580    0.7616    1.5390 H   0  0  0  0  0  0  0  0  0  0  0  0
    0.9501    2.1042    0.4684 H   0  0  0  0  0  0  0  0  0  0  0  0
   -1.5668    2.2368    0.2046 H   0  0  0  0  0  0  0  0  0  0  0  0
   -2.8296   -0.0119    0.6957 H   0  0  0  0  0  0  0  0  0  0  0  0
   -0.1304   -1.3865   -1.6887 H   0  0  0  0  0  0  0  0  0  0  0  0
   -1.9259    0.5123   -1.8445 H   0  0  0  0  0  0  0  0  0  0  0  0
  1  2  1  0
  2  3  1  0
  3  4  1  0
  4  5  1  0
  5  6  1  0
  6  7  2  0
  6  8  1  0
  8  9  1  0
  8  2  1  0
  9  4  1  0
  9  5  1  0
  1 10  1  0
  1 11  1  0
  1 12  1  0
  2 13  1  0
  3 14  1  0
  3 15  1  0
  4 16  1  0
  5 17  1  0
  8 18  1  0
  9 19  1  0
M  END
