
     RDKit          3D

 19 20  0  0  0  0  0  0  0  0999 V2000
   -1.9742   -0.6823    0.9374 C   0  0  0  0  0  0  0  0  0  0  0  0
   -1.0147   -0.1621   -0.1019 C   0  0  0  0  0  0  0  0  0  0  0  0
   -0.6858    1.2970    0.0809 C   0  0  0  0  0  0  0  0  0  0  0  0
    0.6761    1.3715   -0.5005 C   0  0  0  0  0  0  0  0  0  0  0  0
    1.2627    2.4094   -0.7142 O   0  0  0  0  0  0  0  0  0  0  0  0
    1.2190    0.0404   -0.7820 C   0  0  0  0  0  0  0  0  0  0  0  0
    2.1513   -0.4298    0.2962 C   0  0  0  0  0  0  0  0  0  0  0  0
    1.0424   -0.8527    1.0233 O   0  0  0  0  0  0  0  0  0  0  0  0
    0.2665   -0.9304   -0.1315 C   0  0  0  0  0  0  0  0  0  0  0  0
   -2.2815   -1.7044    0.5929 H   0  0  0  0  0  0  0  0  0  0  0  0
   -1.4572   -0.7199    1.9169 H   0  0  0  0  0  0  0  0  0  0  0  0
   -2.8410    0.0111    0.9509 H   0  0  0  0  0  0  0  0  0  0  0  0
   -1.4912   -0.2633   -1.0981 H   0  0  0  0  0  0  0  0  0  0  0  0
   -0.7479    1.6195    1.1217 H   0  0  0  0  0  0  0  0  0  0  0  0
   -1.3587    1.9467   -0.5463 H   0  0  0  0  0  0  0  0  0  0  0  0
    1.5097   -0.1827   -1.8164 H   0  0  0  0  0  0  0  0  0  0  0  0
    2.8179   -1.2356   -0.0586 H   0  0  0  0  0  0  0  0  0  0  0  0
    2.7199    0.3816    0.7958 H   0  0  0  0  0  0  0  0  0  0  0  0
    0.1867   -1.9140   -0.5884 H   0  0  0  0  0  0  0  0  0  0  0  0
  1  2  1  0
  2  3  1  0
  3  4  1  0
  4  5  2  0
  4  6  1  0
  6  7  1  0
  7  8  1  0
  8  9  1  0
  9  2  1  0
  9  6  1  0
  1 10  1  0
  1 11  1  0
  1 12  1  0
  2 13  1  0
  3 14  1  0
  3 15  1  0
  6 16  1  0
  7 17  1  0
  7 18  1  0
  9 19  1  0
M  END
