
     RDKit          3D

 17 18  0  0  0  0  0  0  0  0999 V2000
    1.7012   -0.8483    0.2518 C   0  0  0  0  0  0  0  0  0  0  0  0
    0.9841    0.4211   -0.1760 C   0  0  0  0  0  0  0  0  0  0  0  0
   -0.1480    0.9375    0.6139 C   0  0  0  0  0  0  0  0  0  0  0  0
   -1.0380    0.0930    1.4041 C   0  0  0  0  0  0  0  0  0  0  0  0
   -1.0183   -0.0582    2.6415 O   0  0  0  0  0  0  0  0  0  0  0  0
   -1.9299   -0.5324    0.5705 O   0  0  0  0  0  0  0  0  0  0  0  0
   -1.2517   -0.8195   -0.6312 C   0  0  0  0  0  0  0  0  0  0  0  0
   -0.3513    0.3510   -0.8061 C   0  0  0  0  0  0  0  0  0  0  0  0
   -0.6631    1.2362   -1.8220 O   0  0  0  0  0  0  0  0  0  0  0  0
    1.3464   -1.7420   -0.2554 H   0  0  0  0  0  0  0  0  0  0  0  0
    1.4821   -0.9546    1.3454 H   0  0  0  0  0  0  0  0  0  0  0  0
    2.8073   -0.7577    0.1523 H   0  0  0  0  0  0  0  0  0  0  0  0
    1.6718    1.1890   -0.5835 H   0  0  0  0  0  0  0  0  0  0  0  0
   -0.3049    2.0504    0.6459 H   0  0  0  0  0  0  0  0  0  0  0  0
   -0.6851   -1.7750   -0.4409 H   0  0  0  0  0  0  0  0  0  0  0  0
   -1.9854   -0.9471   -1.4459 H   0  0  0  0  0  0  0  0  0  0  0  0
   -0.6170    2.1567   -1.4644 H   0  0  0  0  0  0  0  0  0  0  0  0
  1  2  1  0
  2  3  1  0
  3  4  1  0
  4  5  2  0
  4  6  1  0
  6  7  1  0
  7  8  1  0
  8  9  1  0
  8  2  1  0
  8  3  1  0
  1 10  1  0
  1 11  1  0
  1 12  1  0
  2 13  1  0
  3 14  1  0
  7 15  1  0
  7 16  1  0
  9 17  1  0
M  END
