
     RDKit          3D

 21 22  0  0  0  0  0  0  0  0999 V2000
    2.8308   -0.1323   -0.2835 C   0  0  0  0  0  0  0  0  0  0  0  0
    1.3848   -0.5799   -0.2492 C   0  0  0  0  0  0  0  0  0  0  0  0
    0.6590   -0.2595    1.0010 C   0  0  0  0  0  0  0  0  0  0  0  0
   -0.7848   -0.5685    1.1894 C   0  0  0  0  0  0  0  0  0  0  0  0
   -1.0856    0.2171   -0.0673 C   0  0  0  0  0  0  0  0  0  0  0  0
   -1.7904   -0.6585   -1.0719 C   0  0  0  0  0  0  0  0  0  0  0  0
   -1.8076    1.4783    0.1687 C   0  0  0  0  0  0  0  0  0  0  0  0
   -1.5229    2.1481    1.1247 O   0  0  0  0  0  0  0  0  0  0  0  0
    0.3670    0.4685   -0.3331 C   0  0  0  0  0  0  0  0  0  0  0  0
    3.4008   -0.6058   -1.1028 H   0  0  0  0  0  0  0  0  0  0  0  0
    3.2493   -0.3645    0.7264 H   0  0  0  0  0  0  0  0  0  0  0  0
    2.8919    0.9857   -0.3665 H   0  0  0  0  0  0  0  0  0  0  0  0
    1.1897   -1.5102   -0.8106 H   0  0  0  0  0  0  0  0  0  0  0  0
    1.1514    0.3171    1.7891 H   0  0  0  0  0  0  0  0  0  0  0  0
   -1.0780   -1.6312    1.1468 H   0  0  0  0  0  0  0  0  0  0  0  0
   -1.2263   -0.0821    2.0621 H   0  0  0  0  0  0  0  0  0  0  0  0
   -2.8839   -0.5031   -0.9478 H   0  0  0  0  0  0  0  0  0  0  0  0
   -1.5460   -1.7176   -0.9623 H   0  0  0  0  0  0  0  0  0  0  0  0
   -1.5346   -0.3082   -2.0891 H   0  0  0  0  0  0  0  0  0  0  0  0
   -2.5743    1.7950   -0.5000 H   0  0  0  0  0  0  0  0  0  0  0  0
    0.7096    1.5116   -0.4242 H   0  0  0  0  0  0  0  0  0  0  0  0
  1  2  1  0
  2  3  1  0
  3  4  1  0
  4  5  1  0
  5  6  1  0
  5  7  1  0
  7  8  2  0
  5  9  1  0
  9  2  1  0
  9  3  1  0
  1 10  1  0
  1 11  1  0
  1 12  1  0
  2 13  1  0
  3 14  1  0
  4 15  1  0
  4 16  1  0
  6 17  1  0
  6 18  1  0
  6 19  1  0
  7 20  1  0
  9 21  1  0
M  END
