
     RDKit          3D

 21 22  0  0  0  0  0  0  0  0999 V2000
    1.5227    1.4211    0.5894 C   0  0  0  0  0  0  0  0  0  0  0  0
    1.1378    0.1332    0.0550 C   0  0  0  0  0  0  0  0  0  0  0  0
    0.2723   -0.7977    0.8578 C   0  0  0  0  0  0  0  0  0  0  0  0
    0.3375   -2.0044   -0.0261 C   0  0  0  0  0  0  0  0  0  0  0  0
    0.1632   -1.4608   -1.2543 C   0  0  0  0  0  0  0  0  0  0  0  0
    0.0112    0.0091   -0.9220 C   0  0  0  0  0  0  0  0  0  0  0  0
   -0.9237   -0.1158    0.2392 C   0  0  0  0  0  0  0  0  0  0  0  0
   -1.4719    1.0779    0.8681 C   0  0  0  0  0  0  0  0  0  0  0  0
   -1.8927   -1.1060   -0.0530 O   0  0  0  0  0  0  0  0  0  0  0  0
    2.5775    1.3955    0.9358 H   0  0  0  0  0  0  0  0  0  0  0  0
    1.5109    2.1897   -0.2343 H   0  0  0  0  0  0  0  0  0  0  0  0
    0.9397    1.8551    1.4085 H   0  0  0  0  0  0  0  0  0  0  0  0
    2.0254   -0.4305   -0.3251 H   0  0  0  0  0  0  0  0  0  0  0  0
    0.3716   -0.8910    1.8921 H   0  0  0  0  0  0  0  0  0  0  0  0
    0.4825   -3.0494    0.2021 H   0  0  0  0  0  0  0  0  0  0  0  0
    0.1376   -1.9331   -2.2115 H   0  0  0  0  0  0  0  0  0  0  0  0
   -0.1398    0.6913   -1.6973 H   0  0  0  0  0  0  0  0  0  0  0  0
   -2.5984    1.0632    0.7557 H   0  0  0  0  0  0  0  0  0  0  0  0
   -1.3030    1.2055    1.9514 H   0  0  0  0  0  0  0  0  0  0  0  0
   -1.1694    1.9898    0.2765 H   0  0  0  0  0  0  0  0  0  0  0  0
   -1.9910   -1.2427   -1.0146 H   0  0  0  0  0  0  0  0  0  0  0  0
  1  2  1  0
  2  3  1  0
  3  4  1  0
  4  5  2  0
  5  6  1  0
  6  7  1  0
  7  8  1  0
  7  9  1  0
  6  2  1  0
  7  3  1  0
  1 10  1  0
  1 11  1  0
  1 12  1  0
  2 13  1  0
  3 14  1  0
  4 15  1  0
  5 16  1  0
  6 17  1  0
  8 18  1  0
  8 19  1  0
  8 20  1  0
  9 21  1  0
M  END
