
     RDKit          3D

 16 16  0  0  0  0  0  0  0  0999 V2000
    0.5029    1.6881    0.3795 C   0  0  0  0  0  0  0  0  0  0  0  0
   -0.2157    0.3896    0.6365 C   0  0  0  0  0  0  0  0  0  0  0  0
   -0.7642   -0.3449   -0.5381 C   0  0  0  0  0  0  0  0  0  0  0  0
   -2.0794   -0.9766   -0.3293 C   0  0  0  0  0  0  0  0  0  0  0  0
   -2.4214   -1.5037    0.7149 O   0  0  0  0  0  0  0  0  0  0  0  0
    0.4281   -0.9109    0.1415 C   0  0  0  0  0  0  0  0  0  0  0  0
    1.7825   -0.7108   -0.4001 C   0  0  0  0  0  0  0  0  0  0  0  0
    2.1068    0.2672   -1.0598 O   0  0  0  0  0  0  0  0  0  0  0  0
    0.4734    1.8990   -0.6988 H   0  0  0  0  0  0  0  0  0  0  0  0
   -0.0600    2.4811    0.8989 H   0  0  0  0  0  0  0  0  0  0  0  0
    1.5411    1.5885    0.7829 H   0  0  0  0  0  0  0  0  0  0  0  0
   -0.7063    0.3078    1.6257 H   0  0  0  0  0  0  0  0  0  0  0  0
   -0.5656    0.1022   -1.5292 H   0  0  0  0  0  0  0  0  0  0  0  0
   -2.7897   -0.9773   -1.1456 H   0  0  0  0  0  0  0  0  0  0  0  0
    0.2410   -1.8253    0.7210 H   0  0  0  0  0  0  0  0  0  0  0  0
    2.5264   -1.4740   -0.2001 H   0  0  0  0  0  0  0  0  0  0  0  0
  1  2  1  0
  2  3  1  0
  3  4  1  0
  4  5  2  0
  3  6  1  0
  6  7  1  0
  7  8  2  0
  6  2  1  0
  1  9  1  0
  1 10  1  0
  1 11  1  0
  2 12  1  0
  3 13  1  0
  4 14  1  0
  6 15  1  0
  7 16  1  0
M  END
