
     RDKit          3D

 21 23  0  0  0  0  0  0  0  0999 V2000
    2.4310   -0.0886   -0.5567 C   0  0  0  0  0  0  0  0  0  0  0  0
    1.1619    0.6432   -0.1868 C   0  0  0  0  0  0  0  0  0  0  0  0
    0.7913    0.6987    1.3096 C   0  0  0  0  0  0  0  0  0  0  0  0
    0.0008   -0.0245    0.3599 C   0  0  0  0  0  0  0  0  0  0  0  0
   -0.2342   -1.4952    0.3421 C   0  0  0  0  0  0  0  0  0  0  0  0
   -1.5097   -1.2061   -0.4640 C   0  0  0  0  0  0  0  0  0  0  0  0
   -1.4044    0.2071   -0.0297 C   0  0  0  0  0  0  0  0  0  0  0  0
   -2.0097    1.3370   -0.5123 C   0  0  0  0  0  0  0  0  0  0  0  0
   -2.3415    0.7395    0.8091 O   0  0  0  0  0  0  0  0  0  0  0  0
    3.2916    0.5360   -0.3096 H   0  0  0  0  0  0  0  0  0  0  0  0
    2.4131   -0.1963   -1.6658 H   0  0  0  0  0  0  0  0  0  0  0  0
    2.4786   -1.1038   -0.1310 H   0  0  0  0  0  0  0  0  0  0  0  0
    1.0589    1.6166   -0.7236 H   0  0  0  0  0  0  0  0  0  0  0  0
    0.5589    1.6804    1.7350 H   0  0  0  0  0  0  0  0  0  0  0  0
    1.4864    0.1065    1.9705 H   0  0  0  0  0  0  0  0  0  0  0  0
   -0.5292   -1.8451    1.3663 H   0  0  0  0  0  0  0  0  0  0  0  0
    0.5014   -2.1156   -0.1742 H   0  0  0  0  0  0  0  0  0  0  0  0
   -2.3655   -1.7780   -0.0933 H   0  0  0  0  0  0  0  0  0  0  0  0
   -1.2671   -1.4084   -1.5426 H   0  0  0  0  0  0  0  0  0  0  0  0
   -2.8842    1.3414   -1.1947 H   0  0  0  0  0  0  0  0  0  0  0  0
   -1.6282    2.3554   -0.3084 H   0  0  0  0  0  0  0  0  0  0  0  0
  1  2  1  0
  2  3  1  0
  3  4  1  0
  4  5  1  0
  5  6  1  0
  6  7  1  0
  7  8  1  0
  8  9  1  0
  4  2  1  0
  9  7  1  0
  7  4  1  0
  1 10  1  0
  1 11  1  0
  1 12  1  0
  2 13  1  0
  3 14  1  0
  3 15  1  0
  5 16  1  0
  5 17  1  0
  6 18  1  0
  6 19  1  0
  8 20  1  0
  8 21  1  0
M  END
