
     RDKit          3D

 27 27  0  0  0  0  0  0  0  0999 V2000
    0.1189    1.9162   -0.7084 C   0  0  0  0  0  0  0  0  0  0  0  0
    0.0528    0.7872    0.2634 C   0  0  0  0  0  0  0  0  0  0  0  0
   -1.0868   -0.1582    0.1556 C   0  0  0  0  0  0  0  0  0  0  0  0
   -1.9184   -0.3275    1.4261 C   0  0  0  0  0  0  0  0  0  0  0  0
   -1.9646   -0.0516   -1.0471 C   0  0  0  0  0  0  0  0  0  0  0  0
   -0.0968   -1.3047   -0.0107 C   0  0  0  0  0  0  0  0  0  0  0  0
    1.0494   -0.3151    0.0918 C   0  0  0  0  0  0  0  0  0  0  0  0
    1.8890   -0.2040   -1.1558 C   0  0  0  0  0  0  0  0  0  0  0  0
    1.9399   -0.5907    1.2839 C   0  0  0  0  0  0  0  0  0  0  0  0
    0.6462    1.6931   -1.6463 H   0  0  0  0  0  0  0  0  0  0  0  0
   -0.9013    2.2554   -0.9884 H   0  0  0  0  0  0  0  0  0  0  0  0
    0.6738    2.7860   -0.2509 H   0  0  0  0  0  0  0  0  0  0  0  0
    0.1129    1.1971    1.3142 H   0  0  0  0  0  0  0  0  0  0  0  0
   -2.6959   -1.0732    1.2473 H   0  0  0  0  0  0  0  0  0  0  0  0
   -1.2722   -0.5948    2.2750 H   0  0  0  0  0  0  0  0  0  0  0  0
   -2.4307    0.6279    1.6700 H   0  0  0  0  0  0  0  0  0  0  0  0
   -1.4089   -0.1467   -1.9968 H   0  0  0  0  0  0  0  0  0  0  0  0
   -2.5846    0.8572   -1.0523 H   0  0  0  0  0  0  0  0  0  0  0  0
   -2.6784   -0.9133   -1.0174 H   0  0  0  0  0  0  0  0  0  0  0  0
   -0.1088   -1.7644   -1.0320 H   0  0  0  0  0  0  0  0  0  0  0  0
   -0.1668   -2.0376    0.8069 H   0  0  0  0  0  0  0  0  0  0  0  0
    2.5379   -1.1155   -1.2222 H   0  0  0  0  0  0  0  0  0  0  0  0
    2.5570    0.6559   -1.0290 H   0  0  0  0  0  0  0  0  0  0  0  0
    1.2941   -0.1911   -2.0825 H   0  0  0  0  0  0  0  0  0  0  0  0
    2.2089    0.3843    1.7563 H   0  0  0  0  0  0  0  0  0  0  0  0
    1.3795   -1.2454    1.9843 H   0  0  0  0  0  0  0  0  0  0  0  0
    2.8541   -1.1265    0.9650 H   0  0  0  0  0  0  0  0  0  0  0  0
  1  2  1  0
  2  3  1  0
  3  4  1  0
  3  5  1  0
  3  6  1  0
  6  7  1  0
  7  8  1  0
  7  9  1  0
  7  2  1  0
  1 10  1  0
  1 11  1  0
  1 12  1  0
  2 13  1  0
  4 14  1  0
  4 15  1  0
  4 16  1  0
  5 17  1  0
  5 18  1  0
  5 19  1  0
  6 20  1  0
  6 21  1  0
  8 22  1  0
  8 23  1  0
  8 24  1  0
  9 25  1  0
  9 26  1  0
  9 27  1  0
M  END
