
     RDKit          3D

 21 22  0  0  0  0  0  0  0  0999 V2000
   -1.3428   -1.0864   -0.7612 C   0  0  0  0  0  0  0  0  0  0  0  0
   -1.3817   -0.2530    0.4862 C   0  0  0  0  0  0  0  0  0  0  0  0
   -1.6551    1.2015    0.2812 C   0  0  0  0  0  0  0  0  0  0  0  0
   -2.6011    1.7227    1.1828 O   0  0  0  0  0  0  0  0  0  0  0  0
   -0.3569    0.7454    0.7990 C   0  0  0  0  0  0  0  0  0  0  0  0
    0.9082    0.8287   -0.0240 C   0  0  0  0  0  0  0  0  0  0  0  0
    1.6210   -0.4737    0.0722 C   0  0  0  0  0  0  0  0  0  0  0  0
    2.8591   -0.7710   -0.5745 C   0  0  0  0  0  0  0  0  0  0  0  0
    2.8688   -0.3359    0.8679 O   0  0  0  0  0  0  0  0  0  0  0  0
   -2.4036   -1.2333   -1.1222 H   0  0  0  0  0  0  0  0  0  0  0  0
   -0.9559   -2.0942   -0.5719 H   0  0  0  0  0  0  0  0  0  0  0  0
   -0.7945   -0.6109   -1.5899 H   0  0  0  0  0  0  0  0  0  0  0  0
   -1.8352   -0.7827    1.3564 H   0  0  0  0  0  0  0  0  0  0  0  0
   -1.7939    1.5638   -0.7490 H   0  0  0  0  0  0  0  0  0  0  0  0
   -2.8711    1.0750    1.8656 H   0  0  0  0  0  0  0  0  0  0  0  0
   -0.1692    0.9859    1.8825 H   0  0  0  0  0  0  0  0  0  0  0  0
    0.6915    1.0463   -1.0904 H   0  0  0  0  0  0  0  0  0  0  0  0
    1.5335    1.6620    0.3459 H   0  0  0  0  0  0  0  0  0  0  0  0
    1.0471   -1.3390    0.5131 H   0  0  0  0  0  0  0  0  0  0  0  0
    3.4009   -0.0381   -1.1851 H   0  0  0  0  0  0  0  0  0  0  0  0
    3.2308   -1.8129   -0.5685 H   0  0  0  0  0  0  0  0  0  0  0  0
  1  2  1  0
  2  3  1  0
  3  4  1  0
  3  5  1  0
  5  6  1  0
  6  7  1  0
  7  8  1  0
  8  9  1  0
  5  2  1  0
  9  7  1  0
  1 10  1  0
  1 11  1  0
  1 12  1  0
  2 13  1  0
  3 14  1  0
  4 15  1  0
  5 16  1  0
  6 17  1  0
  6 18  1  0
  7 19  1  0
  8 20  1  0
  8 21  1  0
M  END
