
     RDKit          3D

 23 23  0  0  0  0  0  0  0  0999 V2000
   -0.3114    2.0870   -0.4934 C   0  0  0  0  0  0  0  0  0  0  0  0
   -0.3905    0.7487    0.1651 C   0  0  0  0  0  0  0  0  0  0  0  0
   -1.5799   -0.0770   -0.3503 C   0  0  0  0  0  0  0  0  0  0  0  0
   -1.7025   -1.2444    0.6296 C   0  0  0  0  0  0  0  0  0  0  0  0
   -0.5109   -1.8898    0.8253 O   0  0  0  0  0  0  0  0  0  0  0  0
    0.4738   -1.5859   -0.0792 C   0  0  0  0  0  0  0  0  0  0  0  0
    0.8233   -0.1213   -0.1385 C   0  0  0  0  0  0  0  0  0  0  0  0
    1.9381    0.2413    0.8183 C   0  0  0  0  0  0  0  0  0  0  0  0
    1.1715    0.1626   -1.4696 O   0  0  0  0  0  0  0  0  0  0  0  0
   -0.9034    2.1495   -1.4321 H   0  0  0  0  0  0  0  0  0  0  0  0
   -0.6902    2.8481    0.2359 H   0  0  0  0  0  0  0  0  0  0  0  0
    0.7593    2.3688   -0.6638 H   0  0  0  0  0  0  0  0  0  0  0  0
   -0.5635    0.8191    1.2741 H   0  0  0  0  0  0  0  0  0  0  0  0
   -1.2977   -0.5404   -1.3234 H   0  0  0  0  0  0  0  0  0  0  0  0
   -2.5013    0.4964   -0.3724 H   0  0  0  0  0  0  0  0  0  0  0  0
   -2.5489   -1.9065    0.3779 H   0  0  0  0  0  0  0  0  0  0  0  0
   -1.9759   -0.7590    1.6124 H   0  0  0  0  0  0  0  0  0  0  0  0
    1.4087   -2.1067    0.2835 H   0  0  0  0  0  0  0  0  0  0  0  0
    0.2784   -1.9963   -1.1035 H   0  0  0  0  0  0  0  0  0  0  0  0
    1.5064    0.6731    1.7318 H   0  0  0  0  0  0  0  0  0  0  0  0
    2.5576    1.0079    0.3303 H   0  0  0  0  0  0  0  0  0  0  0  0
    2.5006   -0.7110    1.0074 H   0  0  0  0  0  0  0  0  0  0  0  0
    1.5585   -0.6643   -1.8654 H   0  0  0  0  0  0  0  0  0  0  0  0
  1  2  1  0
  2  3  1  0
  3  4  1  0
  4  5  1  0
  5  6  1  0
  6  7  1  0
  7  8  1  0
  7  9  1  0
  7  2  1  0
  1 10  1  0
  1 11  1  0
  1 12  1  0
  2 13  1  0
  3 14  1  0
  3 15  1  0
  4 16  1  0
  4 17  1  0
  6 18  1  0
  6 19  1  0
  8 20  1  0
  8 21  1  0
  8 22  1  0
  9 23  1  0
M  END
