
     RDKit          3D

 18 19  0  0  0  0  0  0  0  0999 V2000
    1.9449   -0.0609   -0.5221 C   0  0  0  0  0  0  0  0  0  0  0  0
    0.7393   -0.2191    0.3439 C   0  0  0  0  0  0  0  0  0  0  0  0
   -0.1685    0.9781    0.2493 C   0  0  0  0  0  0  0  0  0  0  0  0
    0.0664    1.5759   -0.9927 O   0  0  0  0  0  0  0  0  0  0  0  0
   -1.5751    0.4437    0.2859 C   0  0  0  0  0  0  0  0  0  0  0  0
   -1.4495   -1.0613    0.2911 C   0  0  0  0  0  0  0  0  0  0  0  0
   -0.9610   -1.5782   -0.9019 O   0  0  0  0  0  0  0  0  0  0  0  0
   -0.0571   -1.4416    0.1116 C   0  0  0  0  0  0  0  0  0  0  0  0
    1.7894    0.7629   -1.2674 H   0  0  0  0  0  0  0  0  0  0  0  0
    2.0867   -0.9778   -1.1249 H   0  0  0  0  0  0  0  0  0  0  0  0
    2.8822    0.1593    0.0541 H   0  0  0  0  0  0  0  0  0  0  0  0
    1.1064   -0.2466    1.4108 H   0  0  0  0  0  0  0  0  0  0  0  0
   -0.0331    1.7057    1.0559 H   0  0  0  0  0  0  0  0  0  0  0  0
   -0.3250    2.4928   -1.0015 H   0  0  0  0  0  0  0  0  0  0  0  0
   -2.1527    0.8235    1.1560 H   0  0  0  0  0  0  0  0  0  0  0  0
   -2.1075    0.7011   -0.6753 H   0  0  0  0  0  0  0  0  0  0  0  0
   -2.0882   -1.6714    0.9485 H   0  0  0  0  0  0  0  0  0  0  0  0
    0.3024   -2.3863    0.5788 H   0  0  0  0  0  0  0  0  0  0  0  0
  1  2  1  0
  2  3  1  0
  3  4  1  0
  3  5  1  0
  5  6  1  0
  6  7  1  0
  7  8  1  0
  8  2  1  0
  8  6  1  0
  1  9  1  0
  1 10  1  0
  1 11  1  0
  2 12  1  0
  3 13  1  0
  4 14  1  0
  5 15  1  0
  5 16  1  0
  6 17  1  0
  8 18  1  0
M  END
