
     RDKit          3D

 21 22  0  0  0  0  0  0  0  0999 V2000
    1.7909    0.9786    0.1079 C   0  0  0  0  0  0  0  0  0  0  0  0
    0.6196    0.2068    0.6471 C   0  0  0  0  0  0  0  0  0  0  0  0
    0.9385   -1.2820    0.4366 C   0  0  0  0  0  0  0  0  0  0  0  0
   -0.1745   -1.6830   -0.5071 C   0  0  0  0  0  0  0  0  0  0  0  0
   -1.4641   -1.6325    0.2057 C   0  0  0  0  0  0  0  0  0  0  0  0
   -1.7477   -0.3472    0.3615 C   0  0  0  0  0  0  0  0  0  0  0  0
   -0.5674    0.3842   -0.2334 C   0  0  0  0  0  0  0  0  0  0  0  0
   -0.8709    1.7501   -0.6693 C   0  0  0  0  0  0  0  0  0  0  0  0
   -0.2705   -0.5075   -1.2923 O   0  0  0  0  0  0  0  0  0  0  0  0
    1.5215    2.0528    0.1270 H   0  0  0  0  0  0  0  0  0  0  0  0
    1.9795    0.6146   -0.9288 H   0  0  0  0  0  0  0  0  0  0  0  0
    2.6825    0.8410    0.7418 H   0  0  0  0  0  0  0  0  0  0  0  0
    0.4127    0.4183    1.7084 H   0  0  0  0  0  0  0  0  0  0  0  0
    1.9257   -1.4352    0.0017 H   0  0  0  0  0  0  0  0  0  0  0  0
    0.8341   -1.8076    1.4240 H   0  0  0  0  0  0  0  0  0  0  0  0
    0.0148   -2.5703   -1.0850 H   0  0  0  0  0  0  0  0  0  0  0  0
   -2.0491   -2.4696    0.5296 H   0  0  0  0  0  0  0  0  0  0  0  0
   -2.5833    0.1503    0.7917 H   0  0  0  0  0  0  0  0  0  0  0  0
   -0.7240    2.4554    0.1612 H   0  0  0  0  0  0  0  0  0  0  0  0
   -0.3139    2.0697   -1.5726 H   0  0  0  0  0  0  0  0  0  0  0  0
   -1.9545    1.8130   -0.9559 H   0  0  0  0  0  0  0  0  0  0  0  0
  1  2  1  0
  2  3  1  0
  3  4  1  0
  4  5  1  0
  5  6  2  0
  6  7  1  0
  7  8  1  0
  7  9  1  0
  7  2  1  0
  9  4  1  0
  1 10  1  0
  1 11  1  0
  1 12  1  0
  2 13  1  0
  3 14  1  0
  3 15  1  0
  4 16  1  0
  5 17  1  0
  6 18  1  0
  8 19  1  0
  8 20  1  0
  8 21  1  0
M  END
