
     RDKit          3D

 18 18  0  0  0  0  0  0  0  0999 V2000
   -1.5018    1.1214    0.6702 C   0  0  0  0  0  0  0  0  0  0  0  0
   -0.9276   -0.2066    0.3112 C   0  0  0  0  0  0  0  0  0  0  0  0
   -0.8546   -0.4398   -1.2095 C   0  0  0  0  0  0  0  0  0  0  0  0
    0.3623   -0.3994   -0.3348 C   0  0  0  0  0  0  0  0  0  0  0  0
    1.0393   -1.7546   -0.1569 C   0  0  0  0  0  0  0  0  0  0  0  0
    1.2629    0.6387   -0.6080 O   0  0  0  0  0  0  0  0  0  0  0  0
    1.8363    1.4666    0.3152 C   0  0  0  0  0  0  0  0  0  0  0  0
    1.5471    1.3041    1.5243 O   0  0  0  0  0  0  0  0  0  0  0  0
   -2.4719    1.2589    0.1091 H   0  0  0  0  0  0  0  0  0  0  0  0
   -1.8058    1.1455    1.7568 H   0  0  0  0  0  0  0  0  0  0  0  0
   -0.8724    1.9855    0.4091 H   0  0  0  0  0  0  0  0  0  0  0  0
   -1.3322   -1.0693    0.9103 H   0  0  0  0  0  0  0  0  0  0  0  0
   -1.0418    0.3993   -1.8786 H   0  0  0  0  0  0  0  0  0  0  0  0
   -1.2694   -1.4015   -1.5629 H   0  0  0  0  0  0  0  0  0  0  0  0
    0.6279   -2.2002    0.7655 H   0  0  0  0  0  0  0  0  0  0  0  0
    0.7450   -2.4378   -1.0061 H   0  0  0  0  0  0  0  0  0  0  0  0
    2.1316   -1.6630   -0.0669 H   0  0  0  0  0  0  0  0  0  0  0  0
    2.5251    2.2522    0.0520 H   0  0  0  0  0  0  0  0  0  0  0  0
  1  2  1  0
  2  3  1  0
  3  4  1  0
  4  5  1  0
  4  6  1  0
  6  7  1  0
  7  8  2  0
  4  2  1  0
  1  9  1  0
  1 10  1  0
  1 11  1  0
  2 12  1  0
  3 13  1  0
  3 14  1  0
  5 15  1  0
  5 16  1  0
  5 17  1  0
  7 18  1  0
M  END
