
     RDKit          3D

 20 21  0  0  0  0  0  0  0  0999 V2000
    2.7085    0.5648    0.1464 C   0  0  0  0  0  0  0  0  0  0  0  0
    1.2941    0.1676    0.4192 C   0  0  0  0  0  0  0  0  0  0  0  0
    0.4351   -0.4873   -0.5766 C   0  0  0  0  0  0  0  0  0  0  0  0
   -0.6887   -1.3889   -0.1177 C   0  0  0  0  0  0  0  0  0  0  0  0
   -1.9770   -0.6076   -0.3266 C   0  0  0  0  0  0  0  0  0  0  0  0
   -1.8886    0.6329    0.5050 C   0  0  0  0  0  0  0  0  0  0  0  0
   -0.7962    1.3986    0.3205 O   0  0  0  0  0  0  0  0  0  0  0  0
    0.2311    0.9322   -0.4023 C   0  0  0  0  0  0  0  0  0  0  0  0
    2.9919    0.5093   -0.9241 H   0  0  0  0  0  0  0  0  0  0  0  0
    3.3749   -0.0796    0.7683 H   0  0  0  0  0  0  0  0  0  0  0  0
    2.8375    1.6121    0.5157 H   0  0  0  0  0  0  0  0  0  0  0  0
    1.0652   -0.0426    1.4779 H   0  0  0  0  0  0  0  0  0  0  0  0
    0.8918   -0.8413   -1.5393 H   0  0  0  0  0  0  0  0  0  0  0  0
   -0.6133   -1.5708    0.9779 H   0  0  0  0  0  0  0  0  0  0  0  0
   -0.7556   -2.3272   -0.6922 H   0  0  0  0  0  0  0  0  0  0  0  0
   -2.1529   -0.3501   -1.3786 H   0  0  0  0  0  0  0  0  0  0  0  0
   -2.7871   -1.2416    0.1131 H   0  0  0  0  0  0  0  0  0  0  0  0
   -2.8362    1.2093    0.3346 H   0  0  0  0  0  0  0  0  0  0  0  0
   -1.9484    0.3024    1.5830 H   0  0  0  0  0  0  0  0  0  0  0  0
    0.6140    1.6077   -1.2040 H   0  0  0  0  0  0  0  0  0  0  0  0
  1  2  1  0
  2  3  1  0
  3  4  1  0
  4  5  1  0
  5  6  1  0
  6  7  1  0
  7  8  1  0
  8  2  1  0
  8  3  1  0
  1  9  1  0
  1 10  1  0
  1 11  1  0
  2 12  1  0
  3 13  1  0
  4 14  1  0
  4 15  1  0
  5 16  1  0
  5 17  1  0
  6 18  1  0
  6 19  1  0
  8 20  1  0
M  END
