
     RDKit          3D

 23 24  0  0  0  0  0  0  0  0999 V2000
   -1.3920    1.4418    0.0802 C   0  0  0  0  0  0  0  0  0  0  0  0
   -0.5051    0.4111    0.7395 C   0  0  0  0  0  0  0  0  0  0  0  0
   -1.0874   -0.9831    0.4200 C   0  0  0  0  0  0  0  0  0  0  0  0
   -2.3226   -0.8749   -0.1956 O   0  0  0  0  0  0  0  0  0  0  0  0
   -0.0135   -1.5176   -0.4513 C   0  0  0  0  0  0  0  0  0  0  0  0
    1.2478   -1.1964    0.3626 C   0  0  0  0  0  0  0  0  0  0  0  0
    0.8193    0.2486    0.0637 C   0  0  0  0  0  0  0  0  0  0  0  0
    1.8255    1.2834    0.1230 C   0  0  0  0  0  0  0  0  0  0  0  0
    0.4004   -0.3017   -1.2888 C   0  0  0  0  0  0  0  0  0  0  0  0
   -2.1090    0.9858   -0.6400 H   0  0  0  0  0  0  0  0  0  0  0  0
   -1.9914    2.0191    0.8362 H   0  0  0  0  0  0  0  0  0  0  0  0
   -0.7943    2.1753   -0.5306 H   0  0  0  0  0  0  0  0  0  0  0  0
   -0.4538    0.5839    1.8143 H   0  0  0  0  0  0  0  0  0  0  0  0
   -1.1346   -1.5249    1.3875 H   0  0  0  0  0  0  0  0  0  0  0  0
   -2.9487   -1.5516    0.1916 H   0  0  0  0  0  0  0  0  0  0  0  0
   -0.0736   -2.4561   -0.9269 H   0  0  0  0  0  0  0  0  0  0  0  0
    1.1502   -1.4757    1.4218 H   0  0  0  0  0  0  0  0  0  0  0  0
    2.1731   -1.4598   -0.1521 H   0  0  0  0  0  0  0  0  0  0  0  0
    1.7684    1.8189    1.0856 H   0  0  0  0  0  0  0  0  0  0  0  0
    1.8045    1.9529   -0.7529 H   0  0  0  0  0  0  0  0  0  0  0  0
    2.8488    0.8096    0.1086 H   0  0  0  0  0  0  0  0  0  0  0  0
    1.2483   -0.5690   -1.9445 H   0  0  0  0  0  0  0  0  0  0  0  0
   -0.4604    0.1801   -1.7519 H   0  0  0  0  0  0  0  0  0  0  0  0
  1  2  1  0
  2  3  1  0
  3  4  1  0
  3  5  1  0
  5  6  1  0
  6  7  1  0
  7  8  1  0
  7  9  1  0
  7  2  1  0
  9  5  1  0
  1 10  1  0
  1 11  1  0
  1 12  1  0
  2 13  1  0
  3 14  1  0
  4 15  1  0
  5 16  1  0
  6 17  1  0
  6 18  1  0
  8 19  1  0
  8 20  1  0
  8 21  1  0
  9 22  1  0
  9 23  1  0
M  END
