
     RDKit          3D

 21 22  0  0  0  0  0  0  0  0999 V2000
   -2.4179    0.6105    0.0497 C   0  0  0  0  0  0  0  0  0  0  0  0
   -1.3454   -0.3934    0.3858 C   0  0  0  0  0  0  0  0  0  0  0  0
   -0.7886   -1.3099   -0.6269 C   0  0  0  0  0  0  0  0  0  0  0  0
    0.0056   -0.2173   -0.0705 C   0  0  0  0  0  0  0  0  0  0  0  0
    0.5441    0.9084   -0.8656 C   0  0  0  0  0  0  0  0  0  0  0  0
    1.9059    0.6158   -0.2237 C   0  0  0  0  0  0  0  0  0  0  0  0
    2.7803   -0.0373   -1.0758 O   0  0  0  0  0  0  0  0  0  0  0  0
    1.2397   -0.3875    0.7272 C   0  0  0  0  0  0  0  0  0  0  0  0
    1.0968    0.1383    2.0059 O   0  0  0  0  0  0  0  0  0  0  0  0
   -2.1844    1.1933   -0.8636 H   0  0  0  0  0  0  0  0  0  0  0  0
   -3.4347    0.1755    0.0273 H   0  0  0  0  0  0  0  0  0  0  0  0
   -2.4279    1.3593    0.8842 H   0  0  0  0  0  0  0  0  0  0  0  0
   -1.4878   -0.8343    1.4159 H   0  0  0  0  0  0  0  0  0  0  0  0
   -0.5506   -2.3547   -0.3311 H   0  0  0  0  0  0  0  0  0  0  0  0
   -1.0465   -1.2255   -1.7099 H   0  0  0  0  0  0  0  0  0  0  0  0
    0.5588    0.7202   -1.9685 H   0  0  0  0  0  0  0  0  0  0  0  0
    0.1317    1.9017   -0.6161 H   0  0  0  0  0  0  0  0  0  0  0  0
    2.3533    1.4469    0.3154 H   0  0  0  0  0  0  0  0  0  0  0  0
    3.1609   -0.8016   -0.5519 H   0  0  0  0  0  0  0  0  0  0  0  0
    1.7135   -1.3760    0.7526 H   0  0  0  0  0  0  0  0  0  0  0  0
    0.1928   -0.1326    2.3394 H   0  0  0  0  0  0  0  0  0  0  0  0
  1  2  1  0
  2  3  1  0
  3  4  1  0
  4  5  1  0
  5  6  1  0
  6  7  1  0
  6  8  1  0
  8  9  1  0
  4  2  1  0
  8  4  1  0
  1 10  1  0
  1 11  1  0
  1 12  1  0
  2 13  1  0
  3 14  1  0
  3 15  1  0
  5 16  1  0
  5 17  1  0
  6 18  1  0
  7 19  1  0
  8 20  1  0
  9 21  1  0
M  END
