
     RDKit          3D

 21 23  0  0  0  0  0  0  0  0999 V2000
    2.2909    0.6324    0.7787 C   0  0  0  0  0  0  0  0  0  0  0  0
    1.0982   -0.2593    1.0473 C   0  0  0  0  0  0  0  0  0  0  0  0
    0.8879   -1.4370    0.0379 C   0  0  0  0  0  0  0  0  0  0  0  0
   -0.0060   -0.3472    0.1330 C   0  0  0  0  0  0  0  0  0  0  0  0
   -1.4461   -0.3187    0.4541 C   0  0  0  0  0  0  0  0  0  0  0  0
   -2.0837   -0.7492   -0.8290 C   0  0  0  0  0  0  0  0  0  0  0  0
   -1.3229   -0.1060   -1.7483 C   0  0  0  0  0  0  0  0  0  0  0  0
   -0.3675    0.6463   -0.9171 C   0  0  0  0  0  0  0  0  0  0  0  0
   -1.3250    1.1909    0.1615 C   0  0  0  0  0  0  0  0  0  0  0  0
    1.9871    1.7068    0.7072 H   0  0  0  0  0  0  0  0  0  0  0  0
    2.7579    0.3173   -0.1775 H   0  0  0  0  0  0  0  0  0  0  0  0
    3.0131    0.5687    1.6228 H   0  0  0  0  0  0  0  0  0  0  0  0
    0.9300   -0.5047    2.1127 H   0  0  0  0  0  0  0  0  0  0  0  0
    0.7448   -2.4104    0.5259 H   0  0  0  0  0  0  0  0  0  0  0  0
    1.6497   -1.4823   -0.7852 H   0  0  0  0  0  0  0  0  0  0  0  0
   -1.8525   -0.6132    1.3748 H   0  0  0  0  0  0  0  0  0  0  0  0
   -2.9303   -1.4016   -1.0033 H   0  0  0  0  0  0  0  0  0  0  0  0
   -1.3852   -0.1266   -2.8264 H   0  0  0  0  0  0  0  0  0  0  0  0
    0.3326    1.3083   -1.3329 H   0  0  0  0  0  0  0  0  0  0  0  0
   -0.7374    1.7452    0.8952 H   0  0  0  0  0  0  0  0  0  0  0  0
   -2.2358    1.6405   -0.2315 H   0  0  0  0  0  0  0  0  0  0  0  0
  1  2  1  0
  2  3  1  0
  3  4  1  0
  4  5  1  0
  5  6  1  0
  6  7  2  0
  7  8  1  0
  8  9  1  0
  4  2  1  0
  9  5  1  0
  8  4  1  0
  1 10  1  0
  1 11  1  0
  1 12  1  0
  2 13  1  0
  3 14  1  0
  3 15  1  0
  5 16  1  0
  6 17  1  0
  7 18  1  0
  8 19  1  0
  9 20  1  0
  9 21  1  0
M  END
