
     RDKit          3D

 20 21  0  0  0  0  0  0  0  0999 V2000
    1.6418   -1.1744    0.0168 C   0  0  0  0  0  0  0  0  0  0  0  0
    0.8469   -0.0271   -0.5008 C   0  0  0  0  0  0  0  0  0  0  0  0
    0.8995    1.2431    0.3475 C   0  0  0  0  0  0  0  0  0  0  0  0
   -0.1330    0.5479    1.2351 C   0  0  0  0  0  0  0  0  0  0  0  0
   -0.6071    0.0323   -0.1331 C   0  0  0  0  0  0  0  0  0  0  0  0
   -1.4628   -1.1028   -0.2055 C   0  0  0  0  0  0  0  0  0  0  0  0
   -0.9997    1.3635   -0.7439 C   0  0  0  0  0  0  0  0  0  0  0  0
    0.1543    2.1191   -0.4040 O   0  0  0  0  0  0  0  0  0  0  0  0
    1.8692   -1.1397    1.0910 H   0  0  0  0  0  0  0  0  0  0  0  0
    2.6282   -1.1515   -0.5118 H   0  0  0  0  0  0  0  0  0  0  0  0
    1.1863   -2.1438   -0.2296 H   0  0  0  0  0  0  0  0  0  0  0  0
    1.0078    0.1312   -1.5689 H   0  0  0  0  0  0  0  0  0  0  0  0
    1.8231    1.5232    0.7761 H   0  0  0  0  0  0  0  0  0  0  0  0
   -0.8293    1.3000    1.6652 H   0  0  0  0  0  0  0  0  0  0  0  0
    0.2493   -0.2062    1.9076 H   0  0  0  0  0  0  0  0  0  0  0  0
   -2.3062   -0.9753   -0.9448 H   0  0  0  0  0  0  0  0  0  0  0  0
   -1.9946   -1.2779    0.7748 H   0  0  0  0  0  0  0  0  0  0  0  0
   -1.0154   -2.0908   -0.4621 H   0  0  0  0  0  0  0  0  0  0  0  0
   -1.8887    1.8047   -0.2767 H   0  0  0  0  0  0  0  0  0  0  0  0
   -1.0698    1.2245   -1.8329 H   0  0  0  0  0  0  0  0  0  0  0  0
  1  2  1  0
  2  3  1  0
  3  4  1  0
  4  5  1  0
  5  6  1  0
  5  7  1  0
  7  8  1  0
  5  2  1  0
  8  3  1  0
  1  9  1  0
  1 10  1  0
  1 11  1  0
  2 12  1  0
  3 13  1  0
  4 14  1  0
  4 15  1  0
  6 16  1  0
  6 17  1  0
  6 18  1  0
  7 19  1  0
  7 20  1  0
M  END
