
     RDKit          3D

 19 21  0  0  0  0  0  0  0  0999 V2000
   -1.8995    1.4014    0.1465 C   0  0  0  0  0  0  0  0  0  0  0  0
   -1.6626   -0.1083    0.2463 C   0  0  0  0  0  0  0  0  0  0  0  0
   -0.9470   -0.6990   -1.0158 C   0  0  0  0  0  0  0  0  0  0  0  0
   -0.3396   -0.5845    0.2603 C   0  0  0  0  0  0  0  0  0  0  0  0
    0.2298   -1.5832    1.0310 O   0  0  0  0  0  0  0  0  0  0  0  0
    1.3361   -1.3100    0.2068 C   0  0  0  0  0  0  0  0  0  0  0  0
    2.2753   -0.2506    0.2924 C   0  0  0  0  0  0  0  0  0  0  0  0
    2.7854    0.3525   -0.8829 O   0  0  0  0  0  0  0  0  0  0  0  0
    0.9167    0.1587    0.6164 C   0  0  0  0  0  0  0  0  0  0  0  0
   -2.3614    1.7200    1.0811 H   0  0  0  0  0  0  0  0  0  0  0  0
   -2.5155    1.5821   -0.7588 H   0  0  0  0  0  0  0  0  0  0  0  0
   -0.9090    1.9083    0.0296 H   0  0  0  0  0  0  0  0  0  0  0  0
   -2.5124   -0.6578    0.6375 H   0  0  0  0  0  0  0  0  0  0  0  0
   -1.3851   -1.6855   -1.3244 H   0  0  0  0  0  0  0  0  0  0  0  0
   -0.7477   -0.0045   -1.8342 H   0  0  0  0  0  0  0  0  0  0  0  0
    1.0058   -1.5614   -0.8524 H   0  0  0  0  0  0  0  0  0  0  0  0
    3.1098   -0.3528    1.0479 H   0  0  0  0  0  0  0  0  0  0  0  0
    2.7822    1.3361   -0.6641 H   0  0  0  0  0  0  0  0  0  0  0  0
    0.8385    0.3386    1.7368 H   0  0  0  0  0  0  0  0  0  0  0  0
  1  2  1  0
  2  3  1  0
  3  4  1  0
  4  5  1  0
  5  6  1  0
  6  7  1  0
  7  8  1  0
  7  9  1  0
  4  2  1  0
  9  6  1  0
  9  4  1  0
  1 10  1  0
  1 11  1  0
  1 12  1  0
  2 13  1  0
  3 14  1  0
  3 15  1  0
  6 16  1  0
  7 17  1  0
  8 18  1  0
  9 19  1  0
M  END
