
     RDKit          3D

 19 20  0  0  0  0  0  0  0  0999 V2000
   -2.1749   -0.7538    0.4396 C   0  0  0  0  0  0  0  0  0  0  0  0
   -0.7125   -0.5873    0.2047 C   0  0  0  0  0  0  0  0  0  0  0  0
   -0.3046    0.2516   -0.9722 C   0  0  0  0  0  0  0  0  0  0  0  0
   -0.8045    1.4288   -0.2044 C   0  0  0  0  0  0  0  0  0  0  0  0
   -0.0658    0.6252    0.8270 C   0  0  0  0  0  0  0  0  0  0  0  0
    0.9951    0.4432   -0.2165 C   0  0  0  0  0  0  0  0  0  0  0  0
    1.6544   -0.7784   -0.0686 O   0  0  0  0  0  0  0  0  0  0  0  0
    3.0262   -0.8879   -0.2406 C   0  0  0  0  0  0  0  0  0  0  0  0
    3.6514    0.1431   -0.5322 O   0  0  0  0  0  0  0  0  0  0  0  0
   -2.4487   -0.3951    1.4713 H   0  0  0  0  0  0  0  0  0  0  0  0
   -2.8218   -0.3599   -0.3414 H   0  0  0  0  0  0  0  0  0  0  0  0
   -2.3739   -1.8649    0.4844 H   0  0  0  0  0  0  0  0  0  0  0  0
   -0.0875   -1.4785    0.3673 H   0  0  0  0  0  0  0  0  0  0  0  0
   -0.4011    0.0408   -1.9424 H   0  0  0  0  0  0  0  0  0  0  0  0
   -0.3288    2.3980   -0.4443 H   0  0  0  0  0  0  0  0  0  0  0  0
   -1.8909    1.5040   -0.0499 H   0  0  0  0  0  0  0  0  0  0  0  0
    0.0461    0.8208    1.7984 H   0  0  0  0  0  0  0  0  0  0  0  0
    1.5800    1.3222   -0.4724 H   0  0  0  0  0  0  0  0  0  0  0  0
    3.4619   -1.8719   -0.1080 H   0  0  0  0  0  0  0  0  0  0  0  0
  1  2  1  0
  2  3  1  0
  3  4  1  0
  4  5  1  0
  5  6  1  0
  6  7  1  0
  7  8  1  0
  8  9  2  0
  5  2  1  0
  6  3  1  0
  1 10  1  0
  1 11  1  0
  1 12  1  0
  2 13  1  0
  3 14  1  0
  4 15  1  0
  4 16  1  0
  5 17  1  0
  6 18  1  0
  8 19  1  0
M  END
