
     RDKit          3D

 20 22  0  0  0  0  0  0  0  0999 V2000
   -2.2772   -0.0607   -0.3221 C   0  0  0  0  0  0  0  0  0  0  0  0
   -1.0508   -0.4993    0.4165 C   0  0  0  0  0  0  0  0  0  0  0  0
   -0.4943    0.6491    1.2780 C   0  0  0  0  0  0  0  0  0  0  0  0
    0.9084    0.6955    0.7365 C   0  0  0  0  0  0  0  0  0  0  0  0
    0.7730    0.5832   -0.7608 C   0  0  0  0  0  0  0  0  0  0  0  0
    2.0880   -0.1271   -0.7207 C   0  0  0  0  0  0  0  0  0  0  0  0
    1.3280   -0.7087    0.4430 C   0  0  0  0  0  0  0  0  0  0  0  0
    0.1371   -0.7442   -0.4684 C   0  0  0  0  0  0  0  0  0  0  0  0
   -2.6537   -0.9149   -0.8972 H   0  0  0  0  0  0  0  0  0  0  0  0
   -3.0178    0.2768    0.4440 H   0  0  0  0  0  0  0  0  0  0  0  0
   -2.0307    0.7938   -0.9842 H   0  0  0  0  0  0  0  0  0  0  0  0
   -1.2188   -1.3715    1.0432 H   0  0  0  0  0  0  0  0  0  0  0  0
   -0.4774    0.3657    2.3492 H   0  0  0  0  0  0  0  0  0  0  0  0
   -1.0420    1.5782    1.1238 H   0  0  0  0  0  0  0  0  0  0  0  0
    1.6082    1.3917    1.1442 H   0  0  0  0  0  0  0  0  0  0  0  0
    0.4623    1.2893   -1.3937 H   0  0  0  0  0  0  0  0  0  0  0  0
    2.3222   -0.8067   -1.5381 H   0  0  0  0  0  0  0  0  0  0  0  0
    2.9156    0.5077   -0.3366 H   0  0  0  0  0  0  0  0  0  0  0  0
    1.6382   -1.4132    1.0786 H   0  0  0  0  0  0  0  0  0  0  0  0
    0.0818   -1.4847   -1.2377 H   0  0  0  0  0  0  0  0  0  0  0  0
  1  2  1  0
  2  3  1  0
  3  4  1  0
  4  5  1  0
  5  6  1  0
  6  7  1  0
  7  8  1  0
  8  2  1  0
  7  4  1  0
  8  5  1  0
  1  9  1  0
  1 10  1  0
  1 11  1  0
  2 12  1  0
  3 13  1  0
  3 14  1  0
  4 15  1  0
  5 16  1  0
  6 17  1  0
  6 18  1  0
  7 19  1  0
  8 20  1  0
M  END
