
     RDKit          3D

 19 20  0  0  0  0  0  0  0  0999 V2000
   -1.5000   -1.1252    0.7399 C   0  0  0  0  0  0  0  0  0  0  0  0
   -1.1621    0.1118   -0.0178 C   0  0  0  0  0  0  0  0  0  0  0  0
   -0.2412   -0.0644   -1.2082 C   0  0  0  0  0  0  0  0  0  0  0  0
    0.2277    1.3639   -0.8826 C   0  0  0  0  0  0  0  0  0  0  0  0
   -0.0550    0.9639    0.5744 C   0  0  0  0  0  0  0  0  0  0  0  0
    1.1178    0.1398    0.9700 C   0  0  0  0  0  0  0  0  0  0  0  0
    1.5489    0.0590    2.0954 O   0  0  0  0  0  0  0  0  0  0  0  0
    1.7567   -0.6167   -0.1718 C   0  0  0  0  0  0  0  0  0  0  0  0
    0.7391   -0.9941   -1.0104 O   0  0  0  0  0  0  0  0  0  0  0  0
   -2.3487   -0.8934    1.4148 H   0  0  0  0  0  0  0  0  0  0  0  0
   -1.8107   -1.9735    0.1137 H   0  0  0  0  0  0  0  0  0  0  0  0
   -0.6540   -1.4759    1.3821 H   0  0  0  0  0  0  0  0  0  0  0  0
   -2.0088    0.7461   -0.2970 H   0  0  0  0  0  0  0  0  0  0  0  0
   -0.7835   -0.1545   -2.1591 H   0  0  0  0  0  0  0  0  0  0  0  0
   -0.5329    2.0793   -1.2282 H   0  0  0  0  0  0  0  0  0  0  0  0
    1.2672    1.5679   -1.1120 H   0  0  0  0  0  0  0  0  0  0  0  0
   -0.3480    1.7669    1.2308 H   0  0  0  0  0  0  0  0  0  0  0  0
    2.5316    0.0242   -0.6634 H   0  0  0  0  0  0  0  0  0  0  0  0
    2.2558   -1.5251    0.2294 H   0  0  0  0  0  0  0  0  0  0  0  0
  1  2  1  0
  2  3  1  0
  3  4  1  0
  4  5  1  0
  5  6  1  0
  6  7  2  0
  6  8  1  0
  8  9  1  0
  5  2  1  0
  9  3  1  0
  1 10  1  0
  1 11  1  0
  1 12  1  0
  2 13  1  0
  3 14  1  0
  4 15  1  0
  4 16  1  0
  5 17  1  0
  8 18  1  0
  8 19  1  0
M  END
