
     RDKit          3D

 21 22  0  0  0  0  0  0  0  0999 V2000
    2.0013   -0.0373    0.6657 C   0  0  0  0  0  0  0  0  0  0  0  0
    1.0276    0.3078   -0.4378 C   0  0  0  0  0  0  0  0  0  0  0  0
    0.5511   -0.9706   -1.1230 C   0  0  0  0  0  0  0  0  0  0  0  0
   -0.6420   -1.3418   -0.2692 C   0  0  0  0  0  0  0  0  0  0  0  0
   -1.2599    0.0184   -0.0055 C   0  0  0  0  0  0  0  0  0  0  0  0
   -2.5058    0.2639   -0.5344 O   0  0  0  0  0  0  0  0  0  0  0  0
   -0.8637    0.6825    1.3103 C   0  0  0  0  0  0  0  0  0  0  0  0
   -0.1898    1.0180    0.0516 C   0  0  0  0  0  0  0  0  0  0  0  0
   -0.3819    2.3238   -0.4433 O   0  0  0  0  0  0  0  0  0  0  0  0
    2.2117   -1.1326    0.6309 H   0  0  0  0  0  0  0  0  0  0  0  0
    1.6146    0.2638    1.6495 H   0  0  0  0  0  0  0  0  0  0  0  0
    2.9778    0.4655    0.4944 H   0  0  0  0  0  0  0  0  0  0  0  0
    1.5273    0.9034   -1.2377 H   0  0  0  0  0  0  0  0  0  0  0  0
    0.2791   -0.8031   -2.1761 H   0  0  0  0  0  0  0  0  0  0  0  0
    1.3420   -1.7281   -1.0209 H   0  0  0  0  0  0  0  0  0  0  0  0
   -0.2462   -1.7565    0.6977 H   0  0  0  0  0  0  0  0  0  0  0  0
   -1.3370   -2.0297   -0.7638 H   0  0  0  0  0  0  0  0  0  0  0  0
   -3.1707   -0.1641    0.0792 H   0  0  0  0  0  0  0  0  0  0  0  0
   -0.4539   -0.0021    2.0639 H   0  0  0  0  0  0  0  0  0  0  0  0
   -1.6267    1.3878    1.6706 H   0  0  0  0  0  0  0  0  0  0  0  0
   -0.8549    2.3308   -1.3021 H   0  0  0  0  0  0  0  0  0  0  0  0
  1  2  1  0
  2  3  1  0
  3  4  1  0
  4  5  1  0
  5  6  1  0
  5  7  1  0
  7  8  1  0
  8  9  1  0
  8  2  1  0
  8  5  1  0
  1 10  1  0
  1 11  1  0
  1 12  1  0
  2 13  1  0
  3 14  1  0
  3 15  1  0
  4 16  1  0
  4 17  1  0
  6 18  1  0
  7 19  1  0
  7 20  1  0
  9 21  1  0
M  END
