
     RDKit          3D

 23 24  0  0  0  0  0  0  0  0999 V2000
    2.0476    0.5644   -0.6210 C   0  0  0  0  0  0  0  0  0  0  0  0
    1.3757    0.1827    0.6724 C   0  0  0  0  0  0  0  0  0  0  0  0
    1.5240   -1.3179    0.9407 C   0  0  0  0  0  0  0  0  0  0  0  0
    0.2126   -1.2857    1.4706 O   0  0  0  0  0  0  0  0  0  0  0  0
   -0.0272   -0.2315    0.6305 C   0  0  0  0  0  0  0  0  0  0  0  0
   -1.2028    0.5992    0.6466 C   0  0  0  0  0  0  0  0  0  0  0  0
   -1.2584    2.0451    0.3098 C   0  0  0  0  0  0  0  0  0  0  0  0
   -0.8696   -0.3018   -0.5626 C   0  0  0  0  0  0  0  0  0  0  0  0
   -1.7191   -1.5517   -0.7054 C   0  0  0  0  0  0  0  0  0  0  0  0
    3.1416    0.3939   -0.5686 H   0  0  0  0  0  0  0  0  0  0  0  0
    1.6613   -0.1141   -1.4028 H   0  0  0  0  0  0  0  0  0  0  0  0
    1.7949    1.6007   -0.8846 H   0  0  0  0  0  0  0  0  0  0  0  0
    1.7532    0.7275    1.5516 H   0  0  0  0  0  0  0  0  0  0  0  0
    2.2197   -1.5625    1.7605 H   0  0  0  0  0  0  0  0  0  0  0  0
    1.6292   -1.9239    0.0265 H   0  0  0  0  0  0  0  0  0  0  0  0
   -2.0627    0.2545    1.2923 H   0  0  0  0  0  0  0  0  0  0  0  0
   -1.9109    2.1621   -0.6030 H   0  0  0  0  0  0  0  0  0  0  0  0
   -1.7087    2.6284    1.1409 H   0  0  0  0  0  0  0  0  0  0  0  0
   -0.2936    2.4978    0.0389 H   0  0  0  0  0  0  0  0  0  0  0  0
   -0.5529    0.1791   -1.4929 H   0  0  0  0  0  0  0  0  0  0  0  0
   -2.1369   -1.6407   -1.7151 H   0  0  0  0  0  0  0  0  0  0  0  0
   -2.5612   -1.4873    0.0182 H   0  0  0  0  0  0  0  0  0  0  0  0
   -1.0558   -2.4185   -0.5258 H   0  0  0  0  0  0  0  0  0  0  0  0
  1  2  1  0
  2  3  1  0
  3  4  1  0
  4  5  1  0
  5  6  1  0
  6  7  1  0
  6  8  1  0
  8  9  1  0
  5  2  1  0
  8  5  1  0
  1 10  1  0
  1 11  1  0
  1 12  1  0
  2 13  1  0
  3 14  1  0
  3 15  1  0
  6 16  1  0
  7 17  1  0
  7 18  1  0
  7 19  1  0
  8 20  1  0
  9 21  1  0
  9 22  1  0
  9 23  1  0
M  END
