
     RDKit          3D

 19 19  0  0  0  0  0  0  0  0999 V2000
   -1.5072   -1.1666   -0.9544 C   0  0  0  0  0  0  0  0  0  0  0  0
   -0.8671   -0.3485    0.1716 C   0  0  0  0  0  0  0  0  0  0  0  0
   -0.2076    0.9191   -0.1399 C   0  0  0  0  0  0  0  0  0  0  0  0
   -0.1413    2.0744    0.8046 C   0  0  0  0  0  0  0  0  0  0  0  0
    0.5858   -0.3010    0.3381 C   0  0  0  0  0  0  0  0  0  0  0  0
    1.5403   -0.8588   -0.6908 C   0  0  0  0  0  0  0  0  0  0  0  0
    1.1097   -0.2826    1.6216 O   0  0  0  0  0  0  0  0  0  0  0  0
   -1.9319   -2.1054   -0.5359 H   0  0  0  0  0  0  0  0  0  0  0  0
   -0.7225   -1.4472   -1.6951 H   0  0  0  0  0  0  0  0  0  0  0  0
   -2.3097   -0.6209   -1.4602 H   0  0  0  0  0  0  0  0  0  0  0  0
   -1.4693   -0.4477    1.1194 H   0  0  0  0  0  0  0  0  0  0  0  0
   -0.0839    1.2180   -1.2178 H   0  0  0  0  0  0  0  0  0  0  0  0
   -0.0543    1.6867    1.8620 H   0  0  0  0  0  0  0  0  0  0  0  0
    0.8226    2.6194    0.5819 H   0  0  0  0  0  0  0  0  0  0  0  0
   -0.9719    2.7778    0.7390 H   0  0  0  0  0  0  0  0  0  0  0  0
    1.2901   -0.5286   -1.7231 H   0  0  0  0  0  0  0  0  0  0  0  0
    2.5359   -0.3693   -0.4731 H   0  0  0  0  0  0  0  0  0  0  0  0
    1.7010   -1.9416   -0.5996 H   0  0  0  0  0  0  0  0  0  0  0  0
    0.6812   -0.8773    2.2517 H   0  0  0  0  0  0  0  0  0  0  0  0
  1  2  1  0
  2  3  1  0
  3  4  1  0
  3  5  1  0
  5  6  1  0
  5  7  1  0
  5  2  1  0
  1  8  1  0
  1  9  1  0
  1 10  1  0
  2 11  1  0
  3 12  1  0
  4 13  1  0
  4 14  1  0
  4 15  1  0
  6 16  1  0
  6 17  1  0
  6 18  1  0
  7 19  1  0
M  END
