
     RDKit          3D

 23 23  0  0  0  0  0  0  0  0999 V2000
   -0.8332    1.9298   -0.2370 C   0  0  0  0  0  0  0  0  0  0  0  0
   -0.4208    0.6177    0.3511 C   0  0  0  0  0  0  0  0  0  0  0  0
   -1.4824   -0.4183   -0.0462 C   0  0  0  0  0  0  0  0  0  0  0  0
   -2.4861   -0.3981    0.8900 O   0  0  0  0  0  0  0  0  0  0  0  0
   -0.7516   -1.7385   -0.1234 C   0  0  0  0  0  0  0  0  0  0  0  0
    0.6809   -1.4425    0.1838 C   0  0  0  0  0  0  0  0  0  0  0  0
    0.7943    0.0198   -0.2733 C   0  0  0  0  0  0  0  0  0  0  0  0
    2.0880    0.5205    0.2877 C   0  0  0  0  0  0  0  0  0  0  0  0
    0.7279    0.0640   -1.6498 O   0  0  0  0  0  0  0  0  0  0  0  0
   -0.0608    2.6979   -0.0963 H   0  0  0  0  0  0  0  0  0  0  0  0
   -1.1091    1.7537   -1.2958 H   0  0  0  0  0  0  0  0  0  0  0  0
   -1.7766    2.2385    0.2727 H   0  0  0  0  0  0  0  0  0  0  0  0
   -0.3264    0.6621    1.4510 H   0  0  0  0  0  0  0  0  0  0  0  0
   -1.8694   -0.1817   -1.0573 H   0  0  0  0  0  0  0  0  0  0  0  0
   -2.2539    0.2029    1.6570 H   0  0  0  0  0  0  0  0  0  0  0  0
   -0.8016   -2.1659   -1.1437 H   0  0  0  0  0  0  0  0  0  0  0  0
   -1.2237   -2.4488    0.5725 H   0  0  0  0  0  0  0  0  0  0  0  0
    1.4094   -2.0690   -0.3214 H   0  0  0  0  0  0  0  0  0  0  0  0
    0.8113   -1.4005    1.2943 H   0  0  0  0  0  0  0  0  0  0  0  0
    2.8984   -0.0767   -0.2210 H   0  0  0  0  0  0  0  0  0  0  0  0
    2.1363    0.1940    1.3571 H   0  0  0  0  0  0  0  0  0  0  0  0
    2.2395    1.5960    0.2010 H   0  0  0  0  0  0  0  0  0  0  0  0
    1.6096   -0.1569   -2.0533 H   0  0  0  0  0  0  0  0  0  0  0  0
  1  2  1  0
  2  3  1  0
  3  4  1  0
  3  5  1  0
  5  6  1  0
  6  7  1  0
  7  8  1  0
  7  9  1  0
  7  2  1  0
  1 10  1  0
  1 11  1  0
  1 12  1  0
  2 13  1  0
  3 14  1  0
  4 15  1  0
  5 16  1  0
  5 17  1  0
  6 18  1  0
  6 19  1  0
  8 20  1  0
  8 21  1  0
  8 22  1  0
  9 23  1  0
M  END
