
     RDKit          3D

 21 22  0  0  0  0  0  0  0  0999 V2000
    2.0723    0.1933   -0.7992 C   0  0  0  0  0  0  0  0  0  0  0  0
    1.7410   -0.3211    0.5607 C   0  0  0  0  0  0  0  0  0  0  0  0
    0.5395    0.1384    1.3002 C   0  0  0  0  0  0  0  0  0  0  0  0
   -0.2544    1.2736    0.8797 C   0  0  0  0  0  0  0  0  0  0  0  0
   -1.4220    1.3516    0.2972 C   0  0  0  0  0  0  0  0  0  0  0  0
   -2.3322    0.2206   -0.1316 C   0  0  0  0  0  0  0  0  0  0  0  0
   -1.5230   -0.6887   -1.0406 C   0  0  0  0  0  0  0  0  0  0  0  0
   -0.3677   -1.2149   -0.6261 C   0  0  0  0  0  0  0  0  0  0  0  0
    0.4115   -1.1367    0.6179 C   0  0  0  0  0  0  0  0  0  0  0  0
    2.4326    1.2358   -0.8107 H   0  0  0  0  0  0  0  0  0  0  0  0
    1.2171    0.0995   -1.5135 H   0  0  0  0  0  0  0  0  0  0  0  0
    2.8914   -0.4362   -1.2323 H   0  0  0  0  0  0  0  0  0  0  0  0
    2.5923   -0.7444    1.1175 H   0  0  0  0  0  0  0  0  0  0  0  0
    0.7076    0.1219    2.4355 H   0  0  0  0  0  0  0  0  0  0  0  0
    0.1770    2.2767    1.0713 H   0  0  0  0  0  0  0  0  0  0  0  0
   -1.8534    2.3243    0.0620 H   0  0  0  0  0  0  0  0  0  0  0  0
   -2.6121   -0.4034    0.7384 H   0  0  0  0  0  0  0  0  0  0  0  0
   -3.1877    0.5898   -0.7252 H   0  0  0  0  0  0  0  0  0  0  0  0
   -1.8784   -0.9091   -2.0158 H   0  0  0  0  0  0  0  0  0  0  0  0
    0.1274   -1.8580   -1.3781 H   0  0  0  0  0  0  0  0  0  0  0  0
    0.5212   -2.1130    1.1927 H   0  0  0  0  0  0  0  0  0  0  0  0
  1  2  1  0
  2  3  1  0
  3  4  1  0
  4  5  2  0
  5  6  1  0
  6  7  1  0
  7  8  2  0
  8  9  1  0
  9  2  1  0
  9  3  1  0
  1 10  1  0
  1 11  1  0
  1 12  1  0
  2 13  1  0
  3 14  1  0
  4 15  1  0
  5 16  1  0
  6 17  1  0
  6 18  1  0
  7 19  1  0
  8 20  1  0
  9 21  1  0
M  END
