
     RDKit          3D

 25 25  0  0  0  0  0  0  0  0999 V2000
   -0.0859    2.0634   -0.3814 C   0  0  0  0  0  0  0  0  0  0  0  0
   -0.0518    0.9131    0.5942 C   0  0  0  0  0  0  0  0  0  0  0  0
    1.3927    0.7553    1.0050 C   0  0  0  0  0  0  0  0  0  0  0  0
    2.2042   -0.0518    0.3415 C   0  0  0  0  0  0  0  0  0  0  0  0
    1.6630   -0.7932   -0.8088 C   0  0  0  0  0  0  0  0  0  0  0  0
    0.3229   -1.3466   -0.4538 C   0  0  0  0  0  0  0  0  0  0  0  0
   -0.6482   -0.3454    0.0797 C   0  0  0  0  0  0  0  0  0  0  0  0
   -1.3525   -1.0184    1.2726 C   0  0  0  0  0  0  0  0  0  0  0  0
   -1.7210   -0.1364   -0.9620 C   0  0  0  0  0  0  0  0  0  0  0  0
   -1.0620    2.5465   -0.4656 H   0  0  0  0  0  0  0  0  0  0  0  0
    0.3713    1.7960   -1.3566 H   0  0  0  0  0  0  0  0  0  0  0  0
    0.6044    2.8473    0.0480 H   0  0  0  0  0  0  0  0  0  0  0  0
   -0.5761    1.2598    1.5088 H   0  0  0  0  0  0  0  0  0  0  0  0
    1.7945    1.3048    1.8576 H   0  0  0  0  0  0  0  0  0  0  0  0
    3.2294   -0.1228    0.6841 H   0  0  0  0  0  0  0  0  0  0  0  0
    2.3431   -1.6633   -0.9912 H   0  0  0  0  0  0  0  0  0  0  0  0
    1.6649   -0.2143   -1.7531 H   0  0  0  0  0  0  0  0  0  0  0  0
    0.5006   -2.1994    0.2601 H   0  0  0  0  0  0  0  0  0  0  0  0
   -0.0726   -1.8575   -1.3809 H   0  0  0  0  0  0  0  0  0  0  0  0
   -0.5475   -1.5314    1.8282 H   0  0  0  0  0  0  0  0  0  0  0  0
   -2.1516   -1.6914    0.9176 H   0  0  0  0  0  0  0  0  0  0  0  0
   -1.7429   -0.2104    1.9461 H   0  0  0  0  0  0  0  0  0  0  0  0
   -2.7478   -0.2730   -0.5582 H   0  0  0  0  0  0  0  0  0  0  0  0
   -1.6901    0.8505   -1.4288 H   0  0  0  0  0  0  0  0  0  0  0  0
   -1.6412   -0.8813   -1.8031 H   0  0  0  0  0  0  0  0  0  0  0  0
  1  2  1  0
  2  3  1  0
  3  4  2  0
  4  5  1  0
  5  6  1  0
  6  7  1  0
  7  8  1  0
  7  9  1  0
  7  2  1  0
  1 10  1  0
  1 11  1  0
  1 12  1  0
  2 13  1  0
  3 14  1  0
  4 15  1  0
  5 16  1  0
  5 17  1  0
  6 18  1  0
  6 19  1  0
  8 20  1  0
  8 21  1  0
  8 22  1  0
  9 23  1  0
  9 24  1  0
  9 25  1  0
M  END
