
     RDKit          3D

 13 13  0  0  0  0  0  0  0  0999 V2000
   -1.5657   -0.4094   -0.0543 C   0  0  0  0  0  0  0  0  0  0  0  0
   -0.1298   -0.3093    0.3946 C   0  0  0  0  0  0  0  0  0  0  0  0
    0.4735    1.0775    0.4438 C   0  0  0  0  0  0  0  0  0  0  0  0
    0.9379    0.0941   -0.5786 C   0  0  0  0  0  0  0  0  0  0  0  0
    2.1939   -0.4975   -0.3578 O   0  0  0  0  0  0  0  0  0  0  0  0
   -2.2383   -0.2657    0.8286 H   0  0  0  0  0  0  0  0  0  0  0  0
   -1.7611   -1.3911   -0.5507 H   0  0  0  0  0  0  0  0  0  0  0  0
   -1.8315    0.3655   -0.7988 H   0  0  0  0  0  0  0  0  0  0  0  0
    0.1177   -1.0287    1.2140 H   0  0  0  0  0  0  0  0  0  0  0  0
    1.1403    1.2597    1.3195 H   0  0  0  0  0  0  0  0  0  0  0  0
   -0.1517    1.9204    0.0690 H   0  0  0  0  0  0  0  0  0  0  0  0
    0.6134    0.1634   -1.6255 H   0  0  0  0  0  0  0  0  0  0  0  0
    2.2014   -0.9787    0.5186 H   0  0  0  0  0  0  0  0  0  0  0  0
  1  2  1  0
  2  3  1  0
  3  4  1  0
  4  5  1  0
  4  2  1  0
  1  6  1  0
  1  7  1  0
  1  8  1  0
  2  9  1  0
  3 10  1  0
  3 11  1  0
  4 12  1  0
  5 13  1  0
M  END
