
     RDKit          3D

 21 21  0  0  0  0  0  0  0  0999 V2000
   -2.7819    0.8676   -0.0099 C   0  0  0  0  0  0  0  0  0  0  0  0
   -1.7088    0.0832   -0.7070 C   0  0  0  0  0  0  0  0  0  0  0  0
   -1.1780   -1.1068    0.1049 C   0  0  0  0  0  0  0  0  0  0  0  0
    0.2151   -0.6132   -0.3052 C   0  0  0  0  0  0  0  0  0  0  0  0
    1.1269   -0.6311    0.8922 C   0  0  0  0  0  0  0  0  0  0  0  0
    2.5257   -0.1473    0.5259 C   0  0  0  0  0  0  0  0  0  0  0  0
    2.4934    1.2304    0.0105 C   0  0  0  0  0  0  0  0  0  0  0  0
    3.5124    1.7623   -0.3347 O   0  0  0  0  0  0  0  0  0  0  0  0
   -0.4138    0.6256   -0.5602 O   0  0  0  0  0  0  0  0  0  0  0  0
   -2.6055    1.9696   -0.0311 H   0  0  0  0  0  0  0  0  0  0  0  0
   -2.9238    0.5251    1.0415 H   0  0  0  0  0  0  0  0  0  0  0  0
   -3.7528    0.7261   -0.5669 H   0  0  0  0  0  0  0  0  0  0  0  0
   -1.9458   -0.2389   -1.7324 H   0  0  0  0  0  0  0  0  0  0  0  0
   -1.3786   -2.0867   -0.3237 H   0  0  0  0  0  0  0  0  0  0  0  0
   -1.3649   -0.9715    1.1898 H   0  0  0  0  0  0  0  0  0  0  0  0
    0.5959   -1.0680   -1.2148 H   0  0  0  0  0  0  0  0  0  0  0  0
    1.2115   -1.6999    1.2219 H   0  0  0  0  0  0  0  0  0  0  0  0
    0.6878   -0.0060    1.6929 H   0  0  0  0  0  0  0  0  0  0  0  0
    3.0196   -0.8633   -0.1623 H   0  0  0  0  0  0  0  0  0  0  0  0
    3.1005   -0.1039    1.4993 H   0  0  0  0  0  0  0  0  0  0  0  0
    1.5649    1.7467   -0.0526 H   0  0  0  0  0  0  0  0  0  0  0  0
  1  2  1  0
  2  3  1  0
  3  4  1  0
  4  5  1  0
  5  6  1  0
  6  7  1  0
  7  8  2  0
  4  9  1  0
  9  2  1  0
  1 10  1  0
  1 11  1  0
  1 12  1  0
  2 13  1  0
  3 14  1  0
  3 15  1  0
  4 16  1  0
  5 17  1  0
  5 18  1  0
  6 19  1  0
  6 20  1  0
  7 21  1  0
M  END
