
     RDKit          3D

 21 22  0  0  0  0  0  0  0  0999 V2000
   -2.3640   -0.6012    0.1217 C   0  0  0  0  0  0  0  0  0  0  0  0
   -1.0391    0.0355    0.4084 C   0  0  0  0  0  0  0  0  0  0  0  0
   -0.8375    1.3357   -0.3441 C   0  0  0  0  0  0  0  0  0  0  0  0
    0.6837    1.4963   -0.1917 C   0  0  0  0  0  0  0  0  0  0  0  0
    1.1146    1.0934    1.1133 O   0  0  0  0  0  0  0  0  0  0  0  0
    1.2292    0.2433   -0.1156 C   0  0  0  0  0  0  0  0  0  0  0  0
    2.6259   -0.2394   -0.2428 C   0  0  0  0  0  0  0  0  0  0  0  0
    0.1090   -0.7809   -0.1986 C   0  0  0  0  0  0  0  0  0  0  0  0
    0.3667   -1.9268    0.5024 O   0  0  0  0  0  0  0  0  0  0  0  0
   -2.3724   -1.5973    0.5876 H   0  0  0  0  0  0  0  0  0  0  0  0
   -3.1452   -0.0027    0.5963 H   0  0  0  0  0  0  0  0  0  0  0  0
   -2.5343   -0.7368   -0.9592 H   0  0  0  0  0  0  0  0  0  0  0  0
   -0.9073    0.2157    1.4703 H   0  0  0  0  0  0  0  0  0  0  0  0
   -0.9945    1.1950   -1.4411 H   0  0  0  0  0  0  0  0  0  0  0  0
   -1.3850    2.1754    0.0805 H   0  0  0  0  0  0  0  0  0  0  0  0
    1.1222    2.4726   -0.4648 H   0  0  0  0  0  0  0  0  0  0  0  0
    2.7906   -1.0345    0.5429 H   0  0  0  0  0  0  0  0  0  0  0  0
    2.7438   -0.7542   -1.2092 H   0  0  0  0  0  0  0  0  0  0  0  0
    3.3453    0.5573   -0.0604 H   0  0  0  0  0  0  0  0  0  0  0  0
   -0.1670   -0.9373   -1.2604 H   0  0  0  0  0  0  0  0  0  0  0  0
   -0.3846   -2.2092    1.0646 H   0  0  0  0  0  0  0  0  0  0  0  0
  1  2  1  0
  2  3  1  0
  3  4  1  0
  4  5  1  0
  5  6  1  0
  6  7  1  0
  6  8  1  0
  8  9  1  0
  8  2  1  0
  6  4  1  0
  1 10  1  0
  1 11  1  0
  1 12  1  0
  2 13  1  0
  3 14  1  0
  3 15  1  0
  4 16  1  0
  7 17  1  0
  7 18  1  0
  7 19  1  0
  8 20  1  0
  9 21  1  0
M  END
