
     RDKit          3D

 15 15  0  0  0  0  0  0  0  0999 V2000
   -1.9400   -0.3780    0.1490 C   0  0  0  0  0  0  0  0  0  0  0  0
   -0.5742   -0.0935   -0.4164 C   0  0  0  0  0  0  0  0  0  0  0  0
    0.5820   -0.9843   -0.1065 C   0  0  0  0  0  0  0  0  0  0  0  0
    1.5674   -1.1694   -1.0723 O   0  0  0  0  0  0  0  0  0  0  0  0
    0.4788    0.3293    0.5655 C   0  0  0  0  0  0  0  0  0  0  0  0
    1.2619    1.4962    0.1453 C   0  0  0  0  0  0  0  0  0  0  0  0
    1.6239    2.3634    0.9104 O   0  0  0  0  0  0  0  0  0  0  0  0
   -2.4270    0.5806    0.3842 H   0  0  0  0  0  0  0  0  0  0  0  0
   -1.8348   -1.0308    1.0375 H   0  0  0  0  0  0  0  0  0  0  0  0
   -2.5945   -0.8926   -0.5875 H   0  0  0  0  0  0  0  0  0  0  0  0
   -0.5900    0.3597   -1.4167 H   0  0  0  0  0  0  0  0  0  0  0  0
    0.3393   -1.8869    0.4598 H   0  0  0  0  0  0  0  0  0  0  0  0
    2.3285   -0.5965   -0.8060 H   0  0  0  0  0  0  0  0  0  0  0  0
    0.2417    0.3015    1.6454 H   0  0  0  0  0  0  0  0  0  0  0  0
    1.5366    1.6014   -0.8917 H   0  0  0  0  0  0  0  0  0  0  0  0
  1  2  1  0
  2  3  1  0
  3  4  1  0
  3  5  1  0
  5  6  1  0
  6  7  2  0
  5  2  1  0
  1  8  1  0
  1  9  1  0
  1 10  1  0
  2 11  1  0
  3 12  1  0
  4 13  1  0
  5 14  1  0
  6 15  1  0
M  END
