
     RDKit          3D

 25 26  0  0  0  0  0  0  0  0999 V2000
   -2.5038    0.3089    0.0388 C   0  0  0  0  0  0  0  0  0  0  0  0
   -1.1636   -0.0600    0.6052 C   0  0  0  0  0  0  0  0  0  0  0  0
   -0.6592   -1.3877    0.1557 C   0  0  0  0  0  0  0  0  0  0  0  0
    0.7918   -1.3170    0.6581 C   0  0  0  0  0  0  0  0  0  0  0  0
    0.9112   -0.2397   -0.3888 C   0  0  0  0  0  0  0  0  0  0  0  0
    2.2019    0.0922   -0.9444 C   0  0  0  0  0  0  0  0  0  0  0  0
   -0.0192   -1.1447   -1.2177 C   0  0  0  0  0  0  0  0  0  0  0  0
   -0.0572    0.8322    0.0038 C   0  0  0  0  0  0  0  0  0  0  0  0
    0.4506    1.7687    1.0503 C   0  0  0  0  0  0  0  0  0  0  0  0
   -2.3988    0.9964   -0.8269 H   0  0  0  0  0  0  0  0  0  0  0  0
   -3.0797   -0.5689   -0.3203 H   0  0  0  0  0  0  0  0  0  0  0  0
   -3.0595    0.8673    0.8277 H   0  0  0  0  0  0  0  0  0  0  0  0
   -1.1257   -0.0288    1.7128 H   0  0  0  0  0  0  0  0  0  0  0  0
   -1.1950   -2.2798    0.3091 H   0  0  0  0  0  0  0  0  0  0  0  0
    0.8791   -1.0051    1.7016 H   0  0  0  0  0  0  0  0  0  0  0  0
    1.3428   -2.2277    0.3919 H   0  0  0  0  0  0  0  0  0  0  0  0
    3.0428   -0.0395   -0.2266 H   0  0  0  0  0  0  0  0  0  0  0  0
    2.4612   -0.5915   -1.8071 H   0  0  0  0  0  0  0  0  0  0  0  0
    2.1920    1.1168   -1.3739 H   0  0  0  0  0  0  0  0  0  0  0  0
    0.5300   -2.0134   -1.5750 H   0  0  0  0  0  0  0  0  0  0  0  0
   -0.6558   -0.6018   -1.9207 H   0  0  0  0  0  0  0  0  0  0  0  0
   -0.4621    1.4144   -0.8254 H   0  0  0  0  0  0  0  0  0  0  0  0
    1.0767    2.5465    0.5854 H   0  0  0  0  0  0  0  0  0  0  0  0
    0.9363    1.2623    1.9081 H   0  0  0  0  0  0  0  0  0  0  0  0
   -0.4366    2.2999    1.4784 H   0  0  0  0  0  0  0  0  0  0  0  0
  1  2  1  0
  2  3  1  0
  3  4  1  0
  4  5  1  0
  5  6  1  0
  5  7  1  0
  5  8  1  0
  8  9  1  0
  8  2  1  0
  7  3  1  0
  1 10  1  0
  1 11  1  0
  1 12  1  0
  2 13  1  0
  3 14  1  0
  4 15  1  0
  4 16  1  0
  6 17  1  0
  6 18  1  0
  6 19  1  0
  7 20  1  0
  7 21  1  0
  8 22  1  0
  9 23  1  0
  9 24  1  0
  9 25  1  0
M  END
