
     RDKit          3D

 21 23  0  0  0  0  0  0  0  0999 V2000
    2.3042   -0.1138    0.8252 C   0  0  0  0  0  0  0  0  0  0  0  0
    1.8872   -0.3112   -0.6194 C   0  0  0  0  0  0  0  0  0  0  0  0
    0.7109   -1.1545   -0.9029 C   0  0  0  0  0  0  0  0  0  0  0  0
   -0.4389   -0.8848    0.0571 C   0  0  0  0  0  0  0  0  0  0  0  0
   -1.3525   -0.8830    0.9994 C   0  0  0  0  0  0  0  0  0  0  0  0
   -2.2230    0.3191    0.8902 C   0  0  0  0  0  0  0  0  0  0  0  0
   -1.3448    1.2791    0.0502 C   0  0  0  0  0  0  0  0  0  0  0  0
   -0.6773    0.2962   -0.8230 C   0  0  0  0  0  0  0  0  0  0  0  0
    0.7401    0.3906   -1.1992 C   0  0  0  0  0  0  0  0  0  0  0  0
    3.2101    0.5278    0.8423 H   0  0  0  0  0  0  0  0  0  0  0  0
    2.6397   -1.1024    1.2522 H   0  0  0  0  0  0  0  0  0  0  0  0
    1.5185    0.3144    1.4517 H   0  0  0  0  0  0  0  0  0  0  0  0
    2.7586   -0.5065   -1.2789 H   0  0  0  0  0  0  0  0  0  0  0  0
    0.5451   -1.7498   -1.7893 H   0  0  0  0  0  0  0  0  0  0  0  0
   -1.4603   -1.6461    1.7512 H   0  0  0  0  0  0  0  0  0  0  0  0
   -3.1813    0.1306    0.4066 H   0  0  0  0  0  0  0  0  0  0  0  0
   -2.3990    0.7352    1.8823 H   0  0  0  0  0  0  0  0  0  0  0  0
   -2.0679    1.8944   -0.5218 H   0  0  0  0  0  0  0  0  0  0  0  0
   -0.6752    1.8662    0.6836 H   0  0  0  0  0  0  0  0  0  0  0  0
   -1.3525   -0.0603   -1.6602 H   0  0  0  0  0  0  0  0  0  0  0  0
    0.8584    0.6587   -2.2975 H   0  0  0  0  0  0  0  0  0  0  0  0
  1  2  1  0
  2  3  1  0
  3  4  1  0
  4  5  2  0
  5  6  1  0
  6  7  1  0
  7  8  1  0
  8  9  1  0
  9  2  1  0
  9  3  1  0
  8  4  1  0
  1 10  1  0
  1 11  1  0
  1 12  1  0
  2 13  1  0
  3 14  1  0
  5 15  1  0
  6 16  1  0
  6 17  1  0
  7 18  1  0
  7 19  1  0
  8 20  1  0
  9 21  1  0
M  END
