
     RDKit          3D

 23 24  0  0  0  0  0  0  0  0999 V2000
   -2.4870   -0.2598   -0.9038 C   0  0  0  0  0  0  0  0  0  0  0  0
   -1.4882   -0.2245    0.2276 C   0  0  0  0  0  0  0  0  0  0  0  0
   -0.5946   -1.4542    0.3168 C   0  0  0  0  0  0  0  0  0  0  0  0
    0.5666   -0.5119    0.5544 C   0  0  0  0  0  0  0  0  0  0  0  0
    1.8527   -0.9052   -0.1167 C   0  0  0  0  0  0  0  0  0  0  0  0
    3.0015   -0.0697    0.0559 C   0  0  0  0  0  0  0  0  0  0  0  0
    2.1834    0.0355   -1.1830 O   0  0  0  0  0  0  0  0  0  0  0  0
   -0.2331    0.5676   -0.1207 C   0  0  0  0  0  0  0  0  0  0  0  0
   -0.2109    1.9033    0.5439 C   0  0  0  0  0  0  0  0  0  0  0  0
   -3.3150   -0.9330   -0.6304 H   0  0  0  0  0  0  0  0  0  0  0  0
   -2.8435    0.7799   -1.0846 H   0  0  0  0  0  0  0  0  0  0  0  0
   -1.9583   -0.5773   -1.8255 H   0  0  0  0  0  0  0  0  0  0  0  0
   -1.9355    0.0756    1.1995 H   0  0  0  0  0  0  0  0  0  0  0  0
   -0.8272   -2.1469    1.1368 H   0  0  0  0  0  0  0  0  0  0  0  0
   -0.5559   -1.9386   -0.6689 H   0  0  0  0  0  0  0  0  0  0  0  0
    0.7069   -0.2769    1.6336 H   0  0  0  0  0  0  0  0  0  0  0  0
    1.8955   -1.9466   -0.4628 H   0  0  0  0  0  0  0  0  0  0  0  0
    2.8977    0.8502    0.6875 H   0  0  0  0  0  0  0  0  0  0  0  0
    4.0259   -0.2689   -0.2433 H   0  0  0  0  0  0  0  0  0  0  0  0
   -0.1254    0.5727   -1.2276 H   0  0  0  0  0  0  0  0  0  0  0  0
    0.5798    2.5488    0.0781 H   0  0  0  0  0  0  0  0  0  0  0  0
    0.0468    1.7834    1.5998 H   0  0  0  0  0  0  0  0  0  0  0  0
   -1.1819    2.3966    0.3659 H   0  0  0  0  0  0  0  0  0  0  0  0
  1  2  1  0
  2  3  1  0
  3  4  1  0
  4  5  1  0
  5  6  1  0
  6  7  1  0
  4  8  1  0
  8  9  1  0
  8  2  1  0
  7  5  1  0
  1 10  1  0
  1 11  1  0
  1 12  1  0
  2 13  1  0
  3 14  1  0
  3 15  1  0
  4 16  1  0
  5 17  1  0
  6 18  1  0
  6 19  1  0
  8 20  1  0
  9 21  1  0
  9 22  1  0
  9 23  1  0
M  END
