
     RDKit          3D

 17 18  0  0  0  0  0  0  0  0999 V2000
    3.1023    0.1155   -0.1878 C   0  0  0  0  0  0  0  0  0  0  0  0
    1.6141    0.1183    0.0102 C   0  0  0  0  0  0  0  0  0  0  0  0
    0.7481   -0.6001   -0.7826 C   0  0  0  0  0  0  0  0  0  0  0  0
   -0.5142   -0.3376   -0.2866 C   0  0  0  0  0  0  0  0  0  0  0  0
   -0.3589    0.5237    0.7792 C   0  0  0  0  0  0  0  0  0  0  0  0
    0.9417    0.7744    0.9254 O   0  0  0  0  0  0  0  0  0  0  0  0
   -1.6186    0.8068    1.3009 O   0  0  0  0  0  0  0  0  0  0  0  0
   -2.5755    0.5623    0.2873 C   0  0  0  0  0  0  0  0  0  0  0  0
   -1.9753   -0.6285   -0.4628 C   0  0  0  0  0  0  0  0  0  0  0  0
    3.4515   -0.8656    0.2073 H   0  0  0  0  0  0  0  0  0  0  0  0
    3.3584    0.2367   -1.2555 H   0  0  0  0  0  0  0  0  0  0  0  0
    3.5455    0.9604    0.3632 H   0  0  0  0  0  0  0  0  0  0  0  0
    0.9845   -1.2521   -1.6359 H   0  0  0  0  0  0  0  0  0  0  0  0
   -3.5487    0.2987    0.7356 H   0  0  0  0  0  0  0  0  0  0  0  0
   -2.6211    1.4335   -0.3931 H   0  0  0  0  0  0  0  0  0  0  0  0
   -2.2734   -0.5558   -1.5277 H   0  0  0  0  0  0  0  0  0  0  0  0
   -2.2606   -1.5907    0.0059 H   0  0  0  0  0  0  0  0  0  0  0  0
  1  2  1  0
  2  3  2  0
  3  4  1  0
  4  5  2  0
  5  6  1  0
  5  7  1  0
  7  8  1  0
  8  9  1  0
  6  2  1  0
  9  4  1  0
  1 10  1  0
  1 11  1  0
  1 12  1  0
  3 13  1  0
  8 14  1  0
  8 15  1  0
  9 16  1  0
  9 17  1  0
M  END
