
     RDKit          3D

 20 21  0  0  0  0  0  0  0  0999 V2000
    2.3014   -0.5875    0.0960 C   0  0  0  0  0  0  0  0  0  0  0  0
    1.0196   -0.5212   -0.7105 C   0  0  0  0  0  0  0  0  0  0  0  0
   -0.1032   -1.1084   -0.0852 C   0  0  0  0  0  0  0  0  0  0  0  0
   -0.8274   -0.8287    1.0329 O   0  0  0  0  0  0  0  0  0  0  0  0
   -1.9893   -0.2818    0.4150 C   0  0  0  0  0  0  0  0  0  0  0  0
   -1.4371    0.5153   -0.7911 C   0  0  0  0  0  0  0  0  0  0  0  0
   -0.0060    0.4270   -0.4732 C   0  0  0  0  0  0  0  0  0  0  0  0
    0.2973    1.3685    0.7088 C   0  0  0  0  0  0  0  0  0  0  0  0
    2.9945    0.1971   -0.2425 H   0  0  0  0  0  0  0  0  0  0  0  0
    2.7736   -1.5602   -0.1639 H   0  0  0  0  0  0  0  0  0  0  0  0
    2.1313   -0.6142    1.1803 H   0  0  0  0  0  0  0  0  0  0  0  0
    1.2419   -0.7358   -1.7875 H   0  0  0  0  0  0  0  0  0  0  0  0
   -0.7461   -1.7449   -0.7701 H   0  0  0  0  0  0  0  0  0  0  0  0
   -2.5763   -1.1445    0.0841 H   0  0  0  0  0  0  0  0  0  0  0  0
   -2.5330    0.3649    1.1024 H   0  0  0  0  0  0  0  0  0  0  0  0
   -1.6741   -0.0977   -1.7021 H   0  0  0  0  0  0  0  0  0  0  0  0
   -1.8403    1.5222   -0.8306 H   0  0  0  0  0  0  0  0  0  0  0  0
    1.3502    1.4087    0.9487 H   0  0  0  0  0  0  0  0  0  0  0  0
   -0.3283    1.0661    1.5915 H   0  0  0  0  0  0  0  0  0  0  0  0
   -0.0486    2.3551    0.3970 H   0  0  0  0  0  0  0  0  0  0  0  0
  1  2  1  0
  2  3  1  0
  3  4  1  0
  4  5  1  0
  5  6  1  0
  6  7  1  0
  7  8  1  0
  7  2  1  0
  7  3  1  0
  1  9  1  0
  1 10  1  0
  1 11  1  0
  2 12  1  0
  3 13  1  0
  5 14  1  0
  5 15  1  0
  6 16  1  0
  6 17  1  0
  8 18  1  0
  8 19  1  0
  8 20  1  0
M  END
