
     RDKit          3D

 15 15  0  0  0  0  0  0  0  0999 V2000
   -1.8927   -0.1331    0.4386 C   0  0  0  0  0  0  0  0  0  0  0  0
   -0.5463   -0.3788   -0.1937 C   0  0  0  0  0  0  0  0  0  0  0  0
   -0.0449    0.7803   -0.9626 C   0  0  0  0  0  0  0  0  0  0  0  0
    1.2569    0.8911   -0.7584 C   0  0  0  0  0  0  0  0  0  0  0  0
    1.7509   -0.1924    0.1752 C   0  0  0  0  0  0  0  0  0  0  0  0
    0.4883   -0.6050    0.8238 C   0  0  0  0  0  0  0  0  0  0  0  0
    0.3458   -1.0286    1.9318 O   0  0  0  0  0  0  0  0  0  0  0  0
   -1.9627    0.8305    0.9500 H   0  0  0  0  0  0  0  0  0  0  0  0
   -2.6684   -0.2645   -0.3600 H   0  0  0  0  0  0  0  0  0  0  0  0
   -2.0319   -0.9261    1.2095 H   0  0  0  0  0  0  0  0  0  0  0  0
   -0.6366   -1.2205   -0.9153 H   0  0  0  0  0  0  0  0  0  0  0  0
   -0.6319    1.4558   -1.6054 H   0  0  0  0  0  0  0  0  0  0  0  0
    1.9162    1.6453   -1.1860 H   0  0  0  0  0  0  0  0  0  0  0  0
    2.1522   -1.0567   -0.4203 H   0  0  0  0  0  0  0  0  0  0  0  0
    2.5052    0.2028    0.8729 H   0  0  0  0  0  0  0  0  0  0  0  0
  1  2  1  0
  2  3  1  0
  3  4  2  0
  4  5  1  0
  5  6  1  0
  6  7  2  0
  6  2  1  0
  1  8  1  0
  1  9  1  0
  1 10  1  0
  2 11  1  0
  3 12  1  0
  4 13  1  0
  5 14  1  0
  5 15  1  0
M  END
