
     RDKit          3D

 21 24  0  0  0  0  0  0  0  0999 V2000
    2.2088   -0.7176   -0.0266 C   0  0  0  0  0  0  0  0  0  0  0  0
    1.3038    0.4147    0.3185 C   0  0  0  0  0  0  0  0  0  0  0  0
    0.2690    0.7645   -0.7630 C   0  0  0  0  0  0  0  0  0  0  0  0
   -0.5710    1.2297    0.4297 C   0  0  0  0  0  0  0  0  0  0  0  0
   -1.9524    0.8460    0.0876 C   0  0  0  0  0  0  0  0  0  0  0  0
   -1.7416   -0.5443   -0.4878 C   0  0  0  0  0  0  0  0  0  0  0  0
   -0.4450   -0.4928   -1.1449 C   0  0  0  0  0  0  0  0  0  0  0  0
   -0.6407   -1.0957    0.2898 C   0  0  0  0  0  0  0  0  0  0  0  0
    0.0387   -0.0179    1.0764 C   0  0  0  0  0  0  0  0  0  0  0  0
    2.6708   -1.0819    0.9210 H   0  0  0  0  0  0  0  0  0  0  0  0
    3.0222   -0.3347   -0.6595 H   0  0  0  0  0  0  0  0  0  0  0  0
    1.6889   -1.5876   -0.4644 H   0  0  0  0  0  0  0  0  0  0  0  0
    1.8312    1.2615    0.7446 H   0  0  0  0  0  0  0  0  0  0  0  0
    0.5427    1.4856   -1.4901 H   0  0  0  0  0  0  0  0  0  0  0  0
   -0.3300    2.1725    0.8613 H   0  0  0  0  0  0  0  0  0  0  0  0
   -2.5352    0.7139    1.0278 H   0  0  0  0  0  0  0  0  0  0  0  0
   -2.4142    1.5399   -0.6105 H   0  0  0  0  0  0  0  0  0  0  0  0
   -2.5700   -1.1438   -0.8293 H   0  0  0  0  0  0  0  0  0  0  0  0
   -0.0421   -1.2111   -1.8415 H   0  0  0  0  0  0  0  0  0  0  0  0
   -0.4206   -2.1442    0.4278 H   0  0  0  0  0  0  0  0  0  0  0  0
    0.0867   -0.0566    2.1333 H   0  0  0  0  0  0  0  0  0  0  0  0
  1  2  1  0
  2  3  1  0
  3  4  1  0
  4  5  1  0
  5  6  1  0
  6  7  1  0
  7  8  1  0
  8  9  1  0
  9  2  1  0
  7  3  1  0
  9  4  1  0
  8  6  1  0
  1 10  1  0
  1 11  1  0
  1 12  1  0
  2 13  1  0
  3 14  1  0
  4 15  1  0
  5 16  1  0
  5 17  1  0
  6 18  1  0
  7 19  1  0
  8 20  1  0
  9 21  1  0
M  END
