
     RDKit          3D

 27 27  0  0  0  0  0  0  0  0999 V2000
    2.5890   -0.2481    0.5472 C   0  0  0  0  0  0  0  0  0  0  0  0
    1.3782   -0.1486   -0.3512 C   0  0  0  0  0  0  0  0  0  0  0  0
    0.8230   -1.5302   -0.5455 C   0  0  0  0  0  0  0  0  0  0  0  0
   -0.6261   -1.2921   -0.7750 C   0  0  0  0  0  0  0  0  0  0  0  0
   -1.0064   -0.0464    0.0356 C   0  0  0  0  0  0  0  0  0  0  0  0
   -1.6412   -0.5793    1.3238 C   0  0  0  0  0  0  0  0  0  0  0  0
   -2.0419    0.6676   -0.7389 C   0  0  0  0  0  0  0  0  0  0  0  0
    0.2508    0.6424    0.3134 C   0  0  0  0  0  0  0  0  0  0  0  0
    0.3750    2.0548   -0.1056 C   0  0  0  0  0  0  0  0  0  0  0  0
    2.3067   -0.8713    1.4155 H   0  0  0  0  0  0  0  0  0  0  0  0
    2.8146    0.7645    0.9088 H   0  0  0  0  0  0  0  0  0  0  0  0
    3.4087   -0.6709   -0.0454 H   0  0  0  0  0  0  0  0  0  0  0  0
    1.6332    0.3414   -1.3211 H   0  0  0  0  0  0  0  0  0  0  0  0
    1.0464   -2.1934    0.3081 H   0  0  0  0  0  0  0  0  0  0  0  0
    1.2687   -1.9591   -1.4762 H   0  0  0  0  0  0  0  0  0  0  0  0
   -1.2588   -2.1495   -0.5072 H   0  0  0  0  0  0  0  0  0  0  0  0
   -0.7843   -1.0688   -1.8630 H   0  0  0  0  0  0  0  0  0  0  0  0
   -0.8708   -1.0381    1.9893 H   0  0  0  0  0  0  0  0  0  0  0  0
   -2.4839   -1.2396    1.1035 H   0  0  0  0  0  0  0  0  0  0  0  0
   -2.0303    0.3170    1.8549 H   0  0  0  0  0  0  0  0  0  0  0  0
   -1.8601    0.5374   -1.8415 H   0  0  0  0  0  0  0  0  0  0  0  0
   -3.0250    0.1341   -0.5687 H   0  0  0  0  0  0  0  0  0  0  0  0
   -2.2202    1.7083   -0.4813 H   0  0  0  0  0  0  0  0  0  0  0  0
    0.4787    0.5842    1.4181 H   0  0  0  0  0  0  0  0  0  0  0  0
    1.1915    2.5252    0.5191 H   0  0  0  0  0  0  0  0  0  0  0  0
    0.7887    2.0743   -1.1471 H   0  0  0  0  0  0  0  0  0  0  0  0
   -0.5040    2.6843    0.0306 H   0  0  0  0  0  0  0  0  0  0  0  0
  1  2  1  0
  2  3  1  0
  3  4  1  0
  4  5  1  0
  5  6  1  0
  5  7  1  0
  5  8  1  0
  8  9  1  0
  8  2  1  0
  1 10  1  0
  1 11  1  0
  1 12  1  0
  2 13  1  0
  3 14  1  0
  3 15  1  0
  4 16  1  0
  4 17  1  0
  6 18  1  0
  6 19  1  0
  6 20  1  0
  7 21  1  0
  7 22  1  0
  7 23  1  0
  8 24  1  0
  9 25  1  0
  9 26  1  0
  9 27  1  0
M  END
