
     RDKit          3D

 14 14  0  0  0  0  0  0  0  0999 V2000
   -1.5223   -0.6332    0.1734 C   0  0  0  0  0  0  0  0  0  0  0  0
   -0.3469    0.0897   -0.4177 C   0  0  0  0  0  0  0  0  0  0  0  0
    0.0971    1.2767    0.3740 C   0  0  0  0  0  0  0  0  0  0  0  0
    1.5240    1.2729    0.2162 O   0  0  0  0  0  0  0  0  0  0  0  0
    1.9595   -0.0139   -0.0288 C   0  0  0  0  0  0  0  0  0  0  0  0
    3.1439   -0.4020    0.0727 O   0  0  0  0  0  0  0  0  0  0  0  0
    0.8275   -0.8252   -0.4175 C   0  0  0  0  0  0  0  0  0  0  0  0
    0.8246   -2.0597   -0.7014 O   0  0  0  0  0  0  0  0  0  0  0  0
   -1.5897   -1.6292   -0.3492 H   0  0  0  0  0  0  0  0  0  0  0  0
   -1.4258   -0.8122    1.2650 H   0  0  0  0  0  0  0  0  0  0  0  0
   -2.4733   -0.1155   -0.0900 H   0  0  0  0  0  0  0  0  0  0  0  0
   -0.6071    0.4121   -1.4333 H   0  0  0  0  0  0  0  0  0  0  0  0
   -0.2708    2.2070   -0.0975 H   0  0  0  0  0  0  0  0  0  0  0  0
   -0.1406    1.2325    1.4342 H   0  0  0  0  0  0  0  0  0  0  0  0
  1  2  1  0
  2  3  1  0
  3  4  1  0
  4  5  1  0
  5  6  2  0
  5  7  1  0
  7  8  2  0
  7  2  1  0
  1  9  1  0
  1 10  1  0
  1 11  1  0
  2 12  1  0
  3 13  1  0
  3 14  1  0
M  END
