
     RDKit          3D

 22 23  0  0  0  0  0  0  0  0999 V2000
   -3.1357    0.6065   -0.1355 C   0  0  0  0  0  0  0  0  0  0  0  0
   -2.0022   -0.3633   -0.3524 C   0  0  0  0  0  0  0  0  0  0  0  0
   -1.4292   -1.1568    0.7453 C   0  0  0  0  0  0  0  0  0  0  0  0
   -0.7192    0.0650    0.3526 C   0  0  0  0  0  0  0  0  0  0  0  0
    0.4793    0.0538   -0.5590 C   0  0  0  0  0  0  0  0  0  0  0  0
    1.7189    0.4893    0.2050 C   0  0  0  0  0  0  0  0  0  0  0  0
    2.9656    0.5156   -0.5980 C   0  0  0  0  0  0  0  0  0  0  0  0
    2.7794   -0.4722    0.5144 C   0  0  0  0  0  0  0  0  0  0  0  0
   -2.7747    1.6041   -0.4882 H   0  0  0  0  0  0  0  0  0  0  0  0
   -3.2645    0.7152    0.9641 H   0  0  0  0  0  0  0  0  0  0  0  0
   -4.0595    0.3281   -0.6576 H   0  0  0  0  0  0  0  0  0  0  0  0
   -1.9504   -0.7760   -1.3610 H   0  0  0  0  0  0  0  0  0  0  0  0
   -1.9136   -1.2214    1.7415 H   0  0  0  0  0  0  0  0  0  0  0  0
   -0.9304   -2.1199    0.4656 H   0  0  0  0  0  0  0  0  0  0  0  0
   -0.7427    0.9051    1.0530 H   0  0  0  0  0  0  0  0  0  0  0  0
    0.6154   -0.8839   -1.0985 H   0  0  0  0  0  0  0  0  0  0  0  0
    0.3029    0.8501   -1.3242 H   0  0  0  0  0  0  0  0  0  0  0  0
    1.5087    1.2721    0.9522 H   0  0  0  0  0  0  0  0  0  0  0  0
    3.6321    1.3782   -0.4923 H   0  0  0  0  0  0  0  0  0  0  0  0
    2.9437    0.0942   -1.6359 H   0  0  0  0  0  0  0  0  0  0  0  0
    2.6226   -1.5332    0.2432 H   0  0  0  0  0  0  0  0  0  0  0  0
    3.3534   -0.3505    1.4657 H   0  0  0  0  0  0  0  0  0  0  0  0
  1  2  1  0
  2  3  1  0
  3  4  1  0
  4  5  1  0
  5  6  1  0
  6  7  1  0
  7  8  1  0
  4  2  1  0
  8  6  1  0
  1  9  1  0
  1 10  1  0
  1 11  1  0
  2 12  1  0
  3 13  1  0
  3 14  1  0
  4 15  1  0
  5 16  1  0
  5 17  1  0
  6 18  1  0
  7 19  1  0
  7 20  1  0
  8 21  1  0
  8 22  1  0
M  END
