
     RDKit          3D

 20 21  0  0  0  0  0  0  0  0999 V2000
    2.8078    0.1465    0.3637 C   0  0  0  0  0  0  0  0  0  0  0  0
    1.3428    0.2271   -0.0481 C   0  0  0  0  0  0  0  0  0  0  0  0
    0.7365   -1.1490   -0.2175 C   0  0  0  0  0  0  0  0  0  0  0  0
   -0.7289   -0.8708   -0.0093 C   0  0  0  0  0  0  0  0  0  0  0  0
   -1.2752    0.3915   -0.5266 C   0  0  0  0  0  0  0  0  0  0  0  0
   -2.7535    0.6363   -0.5578 C   0  0  0  0  0  0  0  0  0  0  0  0
   -0.6891    0.3605    0.8743 C   0  0  0  0  0  0  0  0  0  0  0  0
    0.6175    0.7569    0.9809 O   0  0  0  0  0  0  0  0  0  0  0  0
    3.3515    1.0683    0.0482 H   0  0  0  0  0  0  0  0  0  0  0  0
    2.8126    0.0300    1.4760 H   0  0  0  0  0  0  0  0  0  0  0  0
    3.2133   -0.7699   -0.0915 H   0  0  0  0  0  0  0  0  0  0  0  0
    1.3226    0.8170   -0.9846 H   0  0  0  0  0  0  0  0  0  0  0  0
    1.0665   -1.7724    0.6528 H   0  0  0  0  0  0  0  0  0  0  0  0
    0.9792   -1.6045   -1.1768 H   0  0  0  0  0  0  0  0  0  0  0  0
   -1.3461   -1.7234    0.3020 H   0  0  0  0  0  0  0  0  0  0  0  0
   -0.6919    0.9264   -1.2866 H   0  0  0  0  0  0  0  0  0  0  0  0
   -2.9060    1.7105   -0.2533 H   0  0  0  0  0  0  0  0  0  0  0  0
   -3.2314    0.4216   -1.5220 H   0  0  0  0  0  0  0  0  0  0  0  0
   -3.2775    0.0505    0.2433 H   0  0  0  0  0  0  0  0  0  0  0  0
   -1.3506    0.3470    1.7329 H   0  0  0  0  0  0  0  0  0  0  0  0
  1  2  1  0
  2  3  1  0
  3  4  1  0
  4  5  1  0
  5  6  1  0
  5  7  1  0
  7  8  1  0
  8  2  1  0
  7  4  1  0
  1  9  1  0
  1 10  1  0
  1 11  1  0
  2 12  1  0
  3 13  1  0
  3 14  1  0
  4 15  1  0
  5 16  1  0
  6 17  1  0
  6 18  1  0
  6 19  1  0
  7 20  1  0
M  END
