
     RDKit          3D

 23 24  0  0  0  0  0  0  0  0999 V2000
    2.0957   -1.0886   -0.7104 C   0  0  0  0  0  0  0  0  0  0  0  0
    1.2734    0.1667   -0.5827 C   0  0  0  0  0  0  0  0  0  0  0  0
   -0.1458   -0.0195   -1.0919 C   0  0  0  0  0  0  0  0  0  0  0  0
   -1.0277   -0.1194    0.1212 C   0  0  0  0  0  0  0  0  0  0  0  0
   -2.4414    0.4784    0.0404 C   0  0  0  0  0  0  0  0  0  0  0  0
   -2.1746   -1.0032    0.1631 C   0  0  0  0  0  0  0  0  0  0  0  0
   -0.2474    0.3531    1.2903 C   0  0  0  0  0  0  0  0  0  0  0  0
    1.1757    0.5629    0.8572 C   0  0  0  0  0  0  0  0  0  0  0  0
    1.5898    1.8946    1.0004 O   0  0  0  0  0  0  0  0  0  0  0  0
    2.9018   -0.9736   -1.4745 H   0  0  0  0  0  0  0  0  0  0  0  0
    1.5038   -1.9748   -0.9935 H   0  0  0  0  0  0  0  0  0  0  0  0
    2.6161   -1.3362    0.2448 H   0  0  0  0  0  0  0  0  0  0  0  0
    1.7628    0.9661   -1.1888 H   0  0  0  0  0  0  0  0  0  0  0  0
   -0.4481    0.9170   -1.6289 H   0  0  0  0  0  0  0  0  0  0  0  0
   -0.2288   -0.8680   -1.7811 H   0  0  0  0  0  0  0  0  0  0  0  0
   -2.7490    0.9172   -0.9117 H   0  0  0  0  0  0  0  0  0  0  0  0
   -2.8543    0.9312    0.9736 H   0  0  0  0  0  0  0  0  0  0  0  0
   -2.5479   -1.5354    1.0484 H   0  0  0  0  0  0  0  0  0  0  0  0
   -2.4021   -1.5699   -0.7873 H   0  0  0  0  0  0  0  0  0  0  0  0
   -0.3294   -0.3170    2.1563 H   0  0  0  0  0  0  0  0  0  0  0  0
   -0.6206    1.3550    1.6467 H   0  0  0  0  0  0  0  0  0  0  0  0
    1.8443   -0.0731    1.4725 H   0  0  0  0  0  0  0  0  0  0  0  0
    1.4537    2.3366    0.1359 H   0  0  0  0  0  0  0  0  0  0  0  0
  1  2  1  0
  2  3  1  0
  3  4  1  0
  4  5  1  0
  5  6  1  0
  4  7  1  0
  7  8  1  0
  8  9  1  0
  8  2  1  0
  6  4  1  0
  1 10  1  0
  1 11  1  0
  1 12  1  0
  2 13  1  0
  3 14  1  0
  3 15  1  0
  5 16  1  0
  5 17  1  0
  6 18  1  0
  6 19  1  0
  7 20  1  0
  7 21  1  0
  8 22  1  0
  9 23  1  0
M  END
