
     RDKit          3D

 25 25  0  0  0  0  0  0  0  0999 V2000
    2.1739   -0.1098   -0.6963 C   0  0  0  0  0  0  0  0  0  0  0  0
    1.4338    0.1604    0.5509 C   0  0  0  0  0  0  0  0  0  0  0  0
    1.0684   -1.0570    1.3187 C   0  0  0  0  0  0  0  0  0  0  0  0
   -0.2103   -1.3483    1.1883 C   0  0  0  0  0  0  0  0  0  0  0  0
   -0.8291   -0.3402    0.3082 C   0  0  0  0  0  0  0  0  0  0  0  0
   -0.9862   -0.9545   -1.0540 C   0  0  0  0  0  0  0  0  0  0  0  0
   -2.1789    0.1210    0.7970 C   0  0  0  0  0  0  0  0  0  0  0  0
    0.0950    0.8180    0.3586 C   0  0  0  0  0  0  0  0  0  0  0  0
    0.0308    1.7222   -0.8297 C   0  0  0  0  0  0  0  0  0  0  0  0
    2.2330   -1.2135   -0.8436 H   0  0  0  0  0  0  0  0  0  0  0  0
    1.7504    0.3408   -1.6109 H   0  0  0  0  0  0  0  0  0  0  0  0
    3.2112    0.2421   -0.6148 H   0  0  0  0  0  0  0  0  0  0  0  0
    2.0681    0.7731    1.2260 H   0  0  0  0  0  0  0  0  0  0  0  0
    1.7522   -1.6600    1.9270 H   0  0  0  0  0  0  0  0  0  0  0  0
   -0.7620   -2.1859    1.6383 H   0  0  0  0  0  0  0  0  0  0  0  0
   -0.0594   -1.2333   -1.5467 H   0  0  0  0  0  0  0  0  0  0  0  0
   -1.5992   -0.3250   -1.7477 H   0  0  0  0  0  0  0  0  0  0  0  0
   -1.5607   -1.9152   -0.8983 H   0  0  0  0  0  0  0  0  0  0  0  0
   -2.7747   -0.6841    1.2280 H   0  0  0  0  0  0  0  0  0  0  0  0
   -2.0214    0.9540    1.5427 H   0  0  0  0  0  0  0  0  0  0  0  0
   -2.6888    0.5997   -0.0668 H   0  0  0  0  0  0  0  0  0  0  0  0
   -0.1276    1.4017    1.2766 H   0  0  0  0  0  0  0  0  0  0  0  0
   -0.1833    1.1429   -1.7643 H   0  0  0  0  0  0  0  0  0  0  0  0
   -0.7922    2.4555   -0.6902 H   0  0  0  0  0  0  0  0  0  0  0  0
    0.9571    2.2953   -0.9972 H   0  0  0  0  0  0  0  0  0  0  0  0
  1  2  1  0
  2  3  1  0
  3  4  2  0
  4  5  1  0
  5  6  1  0
  5  7  1  0
  5  8  1  0
  8  9  1  0
  8  2  1  0
  1 10  1  0
  1 11  1  0
  1 12  1  0
  2 13  1  0
  3 14  1  0
  4 15  1  0
  6 16  1  0
  6 17  1  0
  6 18  1  0
  7 19  1  0
  7 20  1  0
  7 21  1  0
  8 22  1  0
  9 23  1  0
  9 24  1  0
  9 25  1  0
M  END
