
     RDKit          3D

 21 23  0  0  0  0  0  0  0  0999 V2000
   -2.6516    0.8226   -0.5906 C   0  0  0  0  0  0  0  0  0  0  0  0
   -1.1796    0.7073   -0.8102 C   0  0  0  0  0  0  0  0  0  0  0  0
   -0.6709   -0.6083   -1.2393 C   0  0  0  0  0  0  0  0  0  0  0  0
    0.8032   -0.7836   -1.5260 C   0  0  0  0  0  0  0  0  0  0  0  0
    1.1013   -0.1996   -0.2051 C   0  0  0  0  0  0  0  0  0  0  0  0
    2.2087   -0.4912    0.6495 C   0  0  0  0  0  0  0  0  0  0  0  0
    1.9833    0.9229    0.0530 C   0  0  0  0  0  0  0  0  0  0  0  0
   -0.3273   -0.0977    0.1516 C   0  0  0  0  0  0  0  0  0  0  0  0
   -0.8771   -0.6759    1.2575 O   0  0  0  0  0  0  0  0  0  0  0  0
   -3.0723   -0.1336   -0.2174 H   0  0  0  0  0  0  0  0  0  0  0  0
   -2.8902    1.6431    0.0836 H   0  0  0  0  0  0  0  0  0  0  0  0
   -3.1223    0.9710   -1.6067 H   0  0  0  0  0  0  0  0  0  0  0  0
   -0.6880    1.6468   -1.1744 H   0  0  0  0  0  0  0  0  0  0  0  0
   -1.3729   -1.4270   -1.3639 H   0  0  0  0  0  0  0  0  0  0  0  0
    1.1639   -0.2157   -2.4139 H   0  0  0  0  0  0  0  0  0  0  0  0
    1.0089   -1.8815   -1.6459 H   0  0  0  0  0  0  0  0  0  0  0  0
    3.1013   -1.0111    0.1950 H   0  0  0  0  0  0  0  0  0  0  0  0
    2.1990   -0.5439    1.7357 H   0  0  0  0  0  0  0  0  0  0  0  0
    2.7413    1.3012   -0.6461 H   0  0  0  0  0  0  0  0  0  0  0  0
    1.6040    1.6970    0.7802 H   0  0  0  0  0  0  0  0  0  0  0  0
   -1.0628   -1.6425    1.1392 H   0  0  0  0  0  0  0  0  0  0  0  0
  1  2  1  0
  2  3  1  0
  3  4  1  0
  4  5  1  0
  5  6  1  0
  6  7  1  0
  5  8  1  0
  8  9  1  0
  8  2  1  0
  8  3  1  0
  7  5  1  0
  1 10  1  0
  1 11  1  0
  1 12  1  0
  2 13  1  0
  3 14  1  0
  4 15  1  0
  4 16  1  0
  6 17  1  0
  6 18  1  0
  7 19  1  0
  7 20  1  0
  9 21  1  0
M  END
