
     RDKit          3D

 21 22  0  0  0  0  0  0  0  0999 V2000
   -2.6102    0.4856   -0.4725 C   0  0  0  0  0  0  0  0  0  0  0  0
   -1.1082    0.4372   -0.5752 C   0  0  0  0  0  0  0  0  0  0  0  0
   -0.4040   -0.7850   -0.0944 C   0  0  0  0  0  0  0  0  0  0  0  0
    0.9843   -1.1096   -0.5122 C   0  0  0  0  0  0  0  0  0  0  0  0
    1.9233   -0.1721    0.1971 C   0  0  0  0  0  0  0  0  0  0  0  0
    3.0071    0.1027   -0.6149 O   0  0  0  0  0  0  0  0  0  0  0  0
    1.0889    1.0170    0.5320 C   0  0  0  0  0  0  0  0  0  0  0  0
   -0.3100    0.4756    0.6665 C   0  0  0  0  0  0  0  0  0  0  0  0
   -0.8894    0.4820    1.9192 O   0  0  0  0  0  0  0  0  0  0  0  0
   -3.0825    0.5837   -1.4676 H   0  0  0  0  0  0  0  0  0  0  0  0
   -2.9684    1.2918    0.2164 H   0  0  0  0  0  0  0  0  0  0  0  0
   -2.9784   -0.4747   -0.0401 H   0  0  0  0  0  0  0  0  0  0  0  0
   -0.6969    0.8755   -1.4984 H   0  0  0  0  0  0  0  0  0  0  0  0
   -1.0621   -1.6180    0.1935 H   0  0  0  0  0  0  0  0  0  0  0  0
    1.2263   -2.1407   -0.1400 H   0  0  0  0  0  0  0  0  0  0  0  0
    1.1330   -1.1427   -1.6037 H   0  0  0  0  0  0  0  0  0  0  0  0
    2.3188   -0.5898    1.1506 H   0  0  0  0  0  0  0  0  0  0  0  0
    3.0632   -0.5402   -1.3652 H   0  0  0  0  0  0  0  0  0  0  0  0
    1.1304    1.7272   -0.3088 H   0  0  0  0  0  0  0  0  0  0  0  0
    1.4453    1.5196    1.4644 H   0  0  0  0  0  0  0  0  0  0  0  0
   -1.2104   -0.4250    2.1999 H   0  0  0  0  0  0  0  0  0  0  0  0
  1  2  1  0
  2  3  1  0
  3  4  1  0
  4  5  1  0
  5  6  1  0
  5  7  1  0
  7  8  1  0
  8  9  1  0
  8  2  1  0
  8  3  1  0
  1 10  1  0
  1 11  1  0
  1 12  1  0
  2 13  1  0
  3 14  1  0
  4 15  1  0
  4 16  1  0
  5 17  1  0
  6 18  1  0
  7 19  1  0
  7 20  1  0
  9 21  1  0
M  END
