
     RDKit          3D

 21 22  0  0  0  0  0  0  0  0999 V2000
    2.1061   -0.1466    0.6560 C   0  0  0  0  0  0  0  0  0  0  0  0
    1.0395    0.2756   -0.2749 C   0  0  0  0  0  0  0  0  0  0  0  0
    0.1096    1.3326    0.2971 C   0  0  0  0  0  0  0  0  0  0  0  0
   -1.2466    0.9189   -0.1658 C   0  0  0  0  0  0  0  0  0  0  0  0
   -0.9580    0.0428   -1.3972 C   0  0  0  0  0  0  0  0  0  0  0  0
    0.0863   -0.8288   -0.6715 C   0  0  0  0  0  0  0  0  0  0  0  0
   -0.7570   -1.3004    0.4826 C   0  0  0  0  0  0  0  0  0  0  0  0
   -1.7085   -0.1607    0.7711 C   0  0  0  0  0  0  0  0  0  0  0  0
   -2.5997   -0.1751    1.5692 O   0  0  0  0  0  0  0  0  0  0  0  0
    2.0054    0.2532    1.6912 H   0  0  0  0  0  0  0  0  0  0  0  0
    3.0800    0.2874    0.2826 H   0  0  0  0  0  0  0  0  0  0  0  0
    2.2945   -1.2550    0.6645 H   0  0  0  0  0  0  0  0  0  0  0  0
    1.4363    0.7085   -1.2281 H   0  0  0  0  0  0  0  0  0  0  0  0
    0.3537    2.3474   -0.0633 H   0  0  0  0  0  0  0  0  0  0  0  0
    0.1147    1.2802    1.4178 H   0  0  0  0  0  0  0  0  0  0  0  0
   -1.9614    1.6896   -0.3446 H   0  0  0  0  0  0  0  0  0  0  0  0
   -1.8164   -0.5807   -1.6631 H   0  0  0  0  0  0  0  0  0  0  0  0
   -0.5079    0.6107   -2.2076 H   0  0  0  0  0  0  0  0  0  0  0  0
    0.5028   -1.5971   -1.2961 H   0  0  0  0  0  0  0  0  0  0  0  0
   -1.3919   -2.1240    0.1142 H   0  0  0  0  0  0  0  0  0  0  0  0
   -0.1815   -1.5785    1.3661 H   0  0  0  0  0  0  0  0  0  0  0  0
  1  2  1  0
  2  3  1  0
  3  4  1  0
  4  5  1  0
  5  6  1  0
  6  7  1  0
  7  8  1  0
  8  9  2  0
  6  2  1  0
  8  4  1  0
  1 10  1  0
  1 11  1  0
  1 12  1  0
  2 13  1  0
  3 14  1  0
  3 15  1  0
  4 16  1  0
  5 17  1  0
  5 18  1  0
  6 19  1  0
  7 20  1  0
  7 21  1  0
M  END
