
     RDKit          3D

 21 21  0  0  0  0  0  0  0  0999 V2000
   -1.3148    1.7177    0.2285 C   0  0  0  0  0  0  0  0  0  0  0  0
   -0.2673    0.6770    0.4880 C   0  0  0  0  0  0  0  0  0  0  0  0
    1.0842    1.0553   -0.1212 C   0  0  0  0  0  0  0  0  0  0  0  0
    1.8135   -0.2917    0.0096 C   0  0  0  0  0  0  0  0  0  0  0  0
    2.6773   -0.4450   -1.0980 O   0  0  0  0  0  0  0  0  0  0  0  0
    0.7468   -1.3187   -0.0578 C   0  0  0  0  0  0  0  0  0  0  0  0
    0.8904   -2.5050    0.0537 O   0  0  0  0  0  0  0  0  0  0  0  0
   -0.5188   -0.5963   -0.2879 C   0  0  0  0  0  0  0  0  0  0  0  0
   -1.7379   -1.3275    0.1367 C   0  0  0  0  0  0  0  0  0  0  0  0
   -2.3087    1.2405    0.3500 H   0  0  0  0  0  0  0  0  0  0  0  0
   -1.2040    2.5079    1.0022 H   0  0  0  0  0  0  0  0  0  0  0  0
   -1.1853    2.1545   -0.7587 H   0  0  0  0  0  0  0  0  0  0  0  0
   -0.1645    0.4804    1.5730 H   0  0  0  0  0  0  0  0  0  0  0  0
    1.5806    1.8454    0.4341 H   0  0  0  0  0  0  0  0  0  0  0  0
    0.9399    1.2340   -1.1920 H   0  0  0  0  0  0  0  0  0  0  0  0
    2.3608   -0.2778    0.9574 H   0  0  0  0  0  0  0  0  0  0  0  0
    3.3003   -1.1830   -0.9094 H   0  0  0  0  0  0  0  0  0  0  0  0
   -0.5391   -0.3035   -1.3773 H   0  0  0  0  0  0  0  0  0  0  0  0
   -2.3702   -1.4776   -0.7870 H   0  0  0  0  0  0  0  0  0  0  0  0
   -2.3427   -0.8237    0.9097 H   0  0  0  0  0  0  0  0  0  0  0  0
   -1.4405   -2.3626    0.4465 H   0  0  0  0  0  0  0  0  0  0  0  0
  1  2  1  0
  2  3  1  0
  3  4  1  0
  4  5  1  0
  4  6  1  0
  6  7  2  0
  6  8  1  0
  8  9  1  0
  8  2  1  0
  1 10  1  0
  1 11  1  0
  1 12  1  0
  2 13  1  0
  3 14  1  0
  3 15  1  0
  4 16  1  0
  5 17  1  0
  8 18  1  0
  9 19  1  0
  9 20  1  0
  9 21  1  0
M  END
