
     RDKit          3D

 21 23  0  0  0  0  0  0  0  0999 V2000
   -3.2017    0.0507    0.1760 C   0  0  0  0  0  0  0  0  0  0  0  0
   -1.7990   -0.4631    0.2999 C   0  0  0  0  0  0  0  0  0  0  0  0
   -1.0852   -0.7152   -0.9908 C   0  0  0  0  0  0  0  0  0  0  0  0
   -0.6490    0.3703   -0.0696 C   0  0  0  0  0  0  0  0  0  0  0  0
    0.6976    0.1833    0.6485 C   0  0  0  0  0  0  0  0  0  0  0  0
    1.8648    0.9719    0.3300 C   0  0  0  0  0  0  0  0  0  0  0  0
    3.2652    0.4044    0.0437 C   0  0  0  0  0  0  0  0  0  0  0  0
    2.5533   -0.1531   -1.0551 O   0  0  0  0  0  0  0  0  0  0  0  0
    1.6957   -0.5599   -0.0320 C   0  0  0  0  0  0  0  0  0  0  0  0
   -3.5692   -0.0768   -0.8736 H   0  0  0  0  0  0  0  0  0  0  0  0
   -3.3177    1.1071    0.5136 H   0  0  0  0  0  0  0  0  0  0  0  0
   -3.8926   -0.5595    0.8029 H   0  0  0  0  0  0  0  0  0  0  0  0
   -1.6265   -1.1559    1.1689 H   0  0  0  0  0  0  0  0  0  0  0  0
   -0.5307   -1.6824   -1.0274 H   0  0  0  0  0  0  0  0  0  0  0  0
   -1.5936   -0.4637   -1.9377 H   0  0  0  0  0  0  0  0  0  0  0  0
   -0.8854    1.4154   -0.3838 H   0  0  0  0  0  0  0  0  0  0  0  0
    0.5099    0.0270    1.7523 H   0  0  0  0  0  0  0  0  0  0  0  0
    1.6459    1.6742   -0.5376 H   0  0  0  0  0  0  0  0  0  0  0  0
    3.6475   -0.3019    0.7717 H   0  0  0  0  0  0  0  0  0  0  0  0
    3.9776    1.1879   -0.2311 H   0  0  0  0  0  0  0  0  0  0  0  0
    2.2932   -1.2605    0.6314 H   0  0  0  0  0  0  0  0  0  0  0  0
  1  2  1  0
  2  3  1  0
  3  4  1  0
  4  5  1  0
  5  6  1  0
  6  7  1  0
  7  8  1  0
  8  9  1  0
  4  2  1  0
  9  5  1  0
  9  6  1  0
  1 10  1  0
  1 11  1  0
  1 12  1  0
  2 13  1  0
  3 14  1  0
  3 15  1  0
  4 16  1  0
  5 17  1  0
  6 18  1  0
  7 19  1  0
  7 20  1  0
  9 21  1  0
M  END
