
     RDKit          3D

 25 25  0  0  0  0  0  0  0  0999 V2000
    2.8915    0.4440    0.1432 C   0  0  0  0  0  0  0  0  0  0  0  0
    1.3956    0.4111    0.3498 C   0  0  0  0  0  0  0  0  0  0  0  0
    0.8630   -0.9391   -0.1149 C   0  0  0  0  0  0  0  0  0  0  0  0
   -0.6000   -0.5627   -0.3883 C   0  0  0  0  0  0  0  0  0  0  0  0
   -1.3613   -0.7129    0.9002 C   0  0  0  0  0  0  0  0  0  0  0  0
   -1.1656   -1.4780   -1.4163 C   0  0  0  0  0  0  0  0  0  0  0  0
   -0.4543    0.8601   -0.8271 C   0  0  0  0  0  0  0  0  0  0  0  0
   -1.4268    1.8037   -0.2145 C   0  0  0  0  0  0  0  0  0  0  0  0
    0.8237    1.2778   -0.5531 O   0  0  0  0  0  0  0  0  0  0  0  0
    3.3091   -0.5361   -0.1276 H   0  0  0  0  0  0  0  0  0  0  0  0
    3.1803    1.1384   -0.6979 H   0  0  0  0  0  0  0  0  0  0  0  0
    3.4243    0.8301    1.0317 H   0  0  0  0  0  0  0  0  0  0  0  0
    1.0955    0.6383    1.3903 H   0  0  0  0  0  0  0  0  0  0  0  0
    1.3432   -1.1394   -1.0873 H   0  0  0  0  0  0  0  0  0  0  0  0
    0.9615   -1.7231    0.6285 H   0  0  0  0  0  0  0  0  0  0  0  0
   -1.1785   -1.7024    1.3488 H   0  0  0  0  0  0  0  0  0  0  0  0
   -2.4433   -0.6354    0.6769 H   0  0  0  0  0  0  0  0  0  0  0  0
   -0.9971    0.0773    1.5881 H   0  0  0  0  0  0  0  0  0  0  0  0
   -0.4473   -1.7841   -2.2032 H   0  0  0  0  0  0  0  0  0  0  0  0
   -1.4975   -2.4136   -0.8785 H   0  0  0  0  0  0  0  0  0  0  0  0
   -2.0796   -1.0719   -1.8892 H   0  0  0  0  0  0  0  0  0  0  0  0
   -0.5681    0.8706   -1.9460 H   0  0  0  0  0  0  0  0  0  0  0  0
   -2.1362    1.3724    0.4862 H   0  0  0  0  0  0  0  0  0  0  0  0
   -0.9093    2.6544    0.3187 H   0  0  0  0  0  0  0  0  0  0  0  0
   -2.0231    2.3205   -1.0163 H   0  0  0  0  0  0  0  0  0  0  0  0
  1  2  1  0
  2  3  1  0
  3  4  1  0
  4  5  1  0
  4  6  1  0
  4  7  1  0
  7  8  1  0
  7  9  1  0
  9  2  1  0
  1 10  1  0
  1 11  1  0
  1 12  1  0
  2 13  1  0
  3 14  1  0
  3 15  1  0
  5 16  1  0
  5 17  1  0
  5 18  1  0
  6 19  1  0
  6 20  1  0
  6 21  1  0
  7 22  1  0
  8 23  1  0
  8 24  1  0
  8 25  1  0
M  END
