
     RDKit          3D

 23 24  0  0  0  0  0  0  0  0999 V2000
    2.9311   -0.0318   -0.0708 C   0  0  0  0  0  0  0  0  0  0  0  0
    1.5693    0.2580    0.5083 C   0  0  0  0  0  0  0  0  0  0  0  0
    0.9928   -0.9409    1.1772 C   0  0  0  0  0  0  0  0  0  0  0  0
   -0.3035   -0.9534    1.4576 C   0  0  0  0  0  0  0  0  0  0  0  0
   -1.0060    0.2430    1.0594 C   0  0  0  0  0  0  0  0  0  0  0  0
   -1.9169    0.5650    0.0378 C   0  0  0  0  0  0  0  0  0  0  0  0
   -3.0739   -0.3978   -0.2242 C   0  0  0  0  0  0  0  0  0  0  0  0
   -0.6361    0.2606   -0.4729 C   0  0  0  0  0  0  0  0  0  0  0  0
    0.6584    0.9331   -0.4852 C   0  0  0  0  0  0  0  0  0  0  0  0
    3.0868    0.6001   -0.9690 H   0  0  0  0  0  0  0  0  0  0  0  0
    3.7473    0.2159    0.6394 H   0  0  0  0  0  0  0  0  0  0  0  0
    3.0537   -1.0996   -0.3472 H   0  0  0  0  0  0  0  0  0  0  0  0
    1.7519    0.9910    1.3466 H   0  0  0  0  0  0  0  0  0  0  0  0
    1.6405   -1.8076    1.4343 H   0  0  0  0  0  0  0  0  0  0  0  0
   -0.7517   -1.7899    1.9351 H   0  0  0  0  0  0  0  0  0  0  0  0
   -0.6094    1.1235    1.6606 H   0  0  0  0  0  0  0  0  0  0  0  0
   -2.2879    1.6187   -0.0465 H   0  0  0  0  0  0  0  0  0  0  0  0
   -3.9932   -0.0185    0.2380 H   0  0  0  0  0  0  0  0  0  0  0  0
   -2.8415   -1.3723    0.2457 H   0  0  0  0  0  0  0  0  0  0  0  0
   -3.2342   -0.5086   -1.3239 H   0  0  0  0  0  0  0  0  0  0  0  0
   -0.5572   -0.7503   -0.9781 H   0  0  0  0  0  0  0  0  0  0  0  0
    1.1551    0.8275   -1.4937 H   0  0  0  0  0  0  0  0  0  0  0  0
    0.6248    2.0343   -0.2936 H   0  0  0  0  0  0  0  0  0  0  0  0
  1  2  1  0
  2  3  1  0
  3  4  2  0
  4  5  1  0
  5  6  1  0
  6  7  1  0
  6  8  1  0
  8  9  1  0
  9  2  1  0
  8  5  1  0
  1 10  1  0
  1 11  1  0
  1 12  1  0
  2 13  1  0
  3 14  1  0
  4 15  1  0
  5 16  1  0
  6 17  1  0
  7 18  1  0
  7 19  1  0
  7 20  1  0
  8 21  1  0
  9 22  1  0
  9 23  1  0
M  END
