
     RDKit          3D

 21 22  0  0  0  0  0  0  0  0999 V2000
    2.2303   -0.6815   -0.0683 C   0  0  0  0  0  0  0  0  0  0  0  0
    1.4237    0.5064   -0.4146 C   0  0  0  0  0  0  0  0  0  0  0  0
    1.0273    1.4028    0.7845 C   0  0  0  0  0  0  0  0  0  0  0  0
   -0.2767    0.6576    0.8440 C   0  0  0  0  0  0  0  0  0  0  0  0
   -1.4250    0.0897    1.1666 C   0  0  0  0  0  0  0  0  0  0  0  0
   -2.0000   -0.6396   -0.0251 C   0  0  0  0  0  0  0  0  0  0  0  0
   -2.6781    0.2472   -0.8365 O   0  0  0  0  0  0  0  0  0  0  0  0
   -0.6652   -0.9777   -0.7288 C   0  0  0  0  0  0  0  0  0  0  0  0
   -0.0261    0.3666   -0.6299 C   0  0  0  0  0  0  0  0  0  0  0  0
    3.2827   -0.5708   -0.4621 H   0  0  0  0  0  0  0  0  0  0  0  0
    2.3629   -0.8257    1.0362 H   0  0  0  0  0  0  0  0  0  0  0  0
    1.8642   -1.6405   -0.4716 H   0  0  0  0  0  0  0  0  0  0  0  0
    1.9020    1.1182   -1.2053 H   0  0  0  0  0  0  0  0  0  0  0  0
    1.6690    1.2584    1.6563 H   0  0  0  0  0  0  0  0  0  0  0  0
    0.8167    2.4440    0.4818 H   0  0  0  0  0  0  0  0  0  0  0  0
   -1.9263    0.1101    2.1235 H   0  0  0  0  0  0  0  0  0  0  0  0
   -2.5487   -1.5334    0.2548 H   0  0  0  0  0  0  0  0  0  0  0  0
   -3.4655    0.6282   -0.3770 H   0  0  0  0  0  0  0  0  0  0  0  0
   -0.8418   -1.3081   -1.7550 H   0  0  0  0  0  0  0  0  0  0  0  0
   -0.1985   -1.7425   -0.0833 H   0  0  0  0  0  0  0  0  0  0  0  0
   -0.5270    1.0906   -1.2905 H   0  0  0  0  0  0  0  0  0  0  0  0
  1  2  1  0
  2  3  1  0
  3  4  1  0
  4  5  2  0
  5  6  1  0
  6  7  1  0
  6  8  1  0
  8  9  1  0
  9  2  1  0
  9  4  1  0
  1 10  1  0
  1 11  1  0
  1 12  1  0
  2 13  1  0
  3 14  1  0
  3 15  1  0
  5 16  1  0
  6 17  1  0
  7 18  1  0
  8 19  1  0
  8 20  1  0
  9 21  1  0
M  END
