
     RDKit          3D

 25 26  0  0  0  0  0  0  0  0999 V2000
    2.5028    0.8838    0.3130 C   0  0  0  0  0  0  0  0  0  0  0  0
    1.0740    0.8130   -0.0966 C   0  0  0  0  0  0  0  0  0  0  0  0
    0.8729   -0.0932   -1.3271 C   0  0  0  0  0  0  0  0  0  0  0  0
   -0.1862   -0.9954   -0.7620 C   0  0  0  0  0  0  0  0  0  0  0  0
    0.4942   -1.3582    0.5699 C   0  0  0  0  0  0  0  0  0  0  0  0
    0.2073    0.0996    0.8872 C   0  0  0  0  0  0  0  0  0  0  0  0
   -1.0755   -0.1082    0.0730 C   0  0  0  0  0  0  0  0  0  0  0  0
   -2.1471   -0.8617    0.7998 C   0  0  0  0  0  0  0  0  0  0  0  0
   -1.5990    1.1237   -0.5934 C   0  0  0  0  0  0  0  0  0  0  0  0
    2.9617   -0.1090    0.3156 H   0  0  0  0  0  0  0  0  0  0  0  0
    3.0779    1.5381   -0.3435 H   0  0  0  0  0  0  0  0  0  0  0  0
    2.5573    1.2924    1.3324 H   0  0  0  0  0  0  0  0  0  0  0  0
    0.6544    1.7980   -0.3760 H   0  0  0  0  0  0  0  0  0  0  0  0
    0.5880    0.4635   -2.2093 H   0  0  0  0  0  0  0  0  0  0  0  0
    1.8001   -0.7019   -1.4462 H   0  0  0  0  0  0  0  0  0  0  0  0
   -0.5973   -1.7802   -1.3330 H   0  0  0  0  0  0  0  0  0  0  0  0
    1.5633   -1.5970    0.3967 H   0  0  0  0  0  0  0  0  0  0  0  0
   -0.0379   -2.0951    1.1635 H   0  0  0  0  0  0  0  0  0  0  0  0
    0.1214    0.4088    1.8895 H   0  0  0  0  0  0  0  0  0  0  0  0
   -2.9717   -0.1367    1.0642 H   0  0  0  0  0  0  0  0  0  0  0  0
   -2.6424   -1.5896    0.1034 H   0  0  0  0  0  0  0  0  0  0  0  0
   -1.8370   -1.3204    1.7370 H   0  0  0  0  0  0  0  0  0  0  0  0
   -1.6400    1.9643    0.1599 H   0  0  0  0  0  0  0  0  0  0  0  0
   -1.0549    1.4340   -1.4901 H   0  0  0  0  0  0  0  0  0  0  0  0
   -2.6864    0.9275   -0.8281 H   0  0  0  0  0  0  0  0  0  0  0  0
  1  2  1  0
  2  3  1  0
  3  4  1  0
  4  5  1  0
  5  6  1  0
  6  7  1  0
  7  8  1  0
  7  9  1  0
  6  2  1  0
  7  4  1  0
  1 10  1  0
  1 11  1  0
  1 12  1  0
  2 13  1  0
  3 14  1  0
  3 15  1  0
  4 16  1  0
  5 17  1  0
  5 18  1  0
  6 19  1  0
  8 20  1  0
  8 21  1  0
  8 22  1  0
  9 23  1  0
  9 24  1  0
  9 25  1  0
M  END
