
     RDKit          3D

 21 22  0  0  0  0  0  0  0  0999 V2000
   -1.7507    0.1811    1.2878 C   0  0  0  0  0  0  0  0  0  0  0  0
   -1.1575    0.5195   -0.0839 C   0  0  0  0  0  0  0  0  0  0  0  0
   -1.1498   -0.6568   -1.0025 C   0  0  0  0  0  0  0  0  0  0  0  0
    0.2955   -1.0699   -1.1994 C   0  0  0  0  0  0  0  0  0  0  0  0
    1.0313   -0.3218   -0.1540 C   0  0  0  0  0  0  0  0  0  0  0  0
    2.3770   -0.4501    0.2329 C   0  0  0  0  0  0  0  0  0  0  0  0
    1.3362   -1.0798    1.0696 O   0  0  0  0  0  0  0  0  0  0  0  0
    0.2671    0.9355    0.1502 C   0  0  0  0  0  0  0  0  0  0  0  0
    0.6580    2.0182   -0.6235 O   0  0  0  0  0  0  0  0  0  0  0  0
   -2.0757    1.1562    1.7291 H   0  0  0  0  0  0  0  0  0  0  0  0
   -2.5678   -0.5457    1.2045 H   0  0  0  0  0  0  0  0  0  0  0  0
   -0.9560   -0.1945    1.9821 H   0  0  0  0  0  0  0  0  0  0  0  0
   -1.7156    1.3831   -0.5246 H   0  0  0  0  0  0  0  0  0  0  0  0
   -1.5859   -0.4255   -1.9957 H   0  0  0  0  0  0  0  0  0  0  0  0
   -1.7629   -1.4686   -0.5574 H   0  0  0  0  0  0  0  0  0  0  0  0
    0.4220   -2.1783   -1.0563 H   0  0  0  0  0  0  0  0  0  0  0  0
    0.6284   -0.8280   -2.2377 H   0  0  0  0  0  0  0  0  0  0  0  0
    3.0870   -1.2220   -0.0681 H   0  0  0  0  0  0  0  0  0  0  0  0
    2.8704    0.4135    0.7574 H   0  0  0  0  0  0  0  0  0  0  0  0
    0.4212    1.2512    1.2228 H   0  0  0  0  0  0  0  0  0  0  0  0
    1.3278    2.5827   -0.1334 H   0  0  0  0  0  0  0  0  0  0  0  0
  1  2  1  0
  2  3  1  0
  3  4  1  0
  4  5  1  0
  5  6  1  0
  6  7  1  0
  5  8  1  0
  8  9  1  0
  8  2  1  0
  7  5  1  0
  1 10  1  0
  1 11  1  0
  1 12  1  0
  2 13  1  0
  3 14  1  0
  3 15  1  0
  4 16  1  0
  4 17  1  0
  6 18  1  0
  6 19  1  0
  8 20  1  0
  9 21  1  0
M  END
