
     RDKit          3D

 21 22  0  0  0  0  0  0  0  0999 V2000
   -1.7500   -1.0184   -0.6677 C   0  0  0  0  0  0  0  0  0  0  0  0
   -0.8926   -0.4802    0.4065 C   0  0  0  0  0  0  0  0  0  0  0  0
   -1.2870    0.7709    1.0903 C   0  0  0  0  0  0  0  0  0  0  0  0
    0.0809    1.1212    1.1543 O   0  0  0  0  0  0  0  0  0  0  0  0
    0.2622    0.3956    0.0005 C   0  0  0  0  0  0  0  0  0  0  0  0
    0.0467    1.2125   -1.2469 C   0  0  0  0  0  0  0  0  0  0  0  0
    1.5247   -0.4026   -0.1041 C   0  0  0  0  0  0  0  0  0  0  0  0
    2.6076   -0.3654    0.8221 C   0  0  0  0  0  0  0  0  0  0  0  0
    1.6087   -1.4035    0.9954 O   0  0  0  0  0  0  0  0  0  0  0  0
   -1.1249   -1.5450   -1.4435 H   0  0  0  0  0  0  0  0  0  0  0  0
   -2.4293   -0.3259   -1.1530 H   0  0  0  0  0  0  0  0  0  0  0  0
   -2.3786   -1.8388   -0.2264 H   0  0  0  0  0  0  0  0  0  0  0  0
   -0.5439   -1.2578    1.1123 H   0  0  0  0  0  0  0  0  0  0  0  0
   -1.9229    1.4861    0.5749 H   0  0  0  0  0  0  0  0  0  0  0  0
   -1.6442    0.6067    2.1396 H   0  0  0  0  0  0  0  0  0  0  0  0
   -0.8934    1.8257   -1.1847 H   0  0  0  0  0  0  0  0  0  0  0  0
    0.8701    1.9635   -1.2884 H   0  0  0  0  0  0  0  0  0  0  0  0
    0.0732    0.5947   -2.1564 H   0  0  0  0  0  0  0  0  0  0  0  0
    1.6305   -0.9511   -1.0624 H   0  0  0  0  0  0  0  0  0  0  0  0
    3.6038   -0.7083    0.5276 H   0  0  0  0  0  0  0  0  0  0  0  0
    2.5583    0.3200    1.7100 H   0  0  0  0  0  0  0  0  0  0  0  0
  1  2  1  0
  2  3  1  0
  3  4  1  0
  4  5  1  0
  5  6  1  0
  5  7  1  0
  7  8  1  0
  8  9  1  0
  5  2  1  0
  9  7  1  0
  1 10  1  0
  1 11  1  0
  1 12  1  0
  2 13  1  0
  3 14  1  0
  3 15  1  0
  6 16  1  0
  6 17  1  0
  6 18  1  0
  7 19  1  0
  8 20  1  0
  8 21  1  0
M  END
