
     RDKit          3D

 19 20  0  0  0  0  0  0  0  0999 V2000
    1.5634   -0.8216    0.4271 C   0  0  0  0  0  0  0  0  0  0  0  0
    0.8751   -0.0706   -0.6975 C   0  0  0  0  0  0  0  0  0  0  0  0
    0.9792    1.3610   -0.3972 C   0  0  0  0  0  0  0  0  0  0  0  0
   -0.1909    1.8481   -0.0685 C   0  0  0  0  0  0  0  0  0  0  0  0
   -1.2088    0.7941   -0.1142 C   0  0  0  0  0  0  0  0  0  0  0  0
   -1.3414   -0.0864    1.0758 C   0  0  0  0  0  0  0  0  0  0  0  0
   -1.5124    0.1696    2.2421 O   0  0  0  0  0  0  0  0  0  0  0  0
   -1.1762   -1.2821    0.2000 C   0  0  0  0  0  0  0  0  0  0  0  0
   -0.5571   -0.3586   -0.8297 C   0  0  0  0  0  0  0  0  0  0  0  0
    2.4690   -0.2140    0.7247 H   0  0  0  0  0  0  0  0  0  0  0  0
    0.9608   -0.9243    1.3259 H   0  0  0  0  0  0  0  0  0  0  0  0
    1.9068   -1.8057    0.0313 H   0  0  0  0  0  0  0  0  0  0  0  0
    1.4500   -0.2723   -1.6406 H   0  0  0  0  0  0  0  0  0  0  0  0
    1.9420    1.9524   -0.4459 H   0  0  0  0  0  0  0  0  0  0  0  0
   -0.3822    2.8955    0.2025 H   0  0  0  0  0  0  0  0  0  0  0  0
   -2.1781    1.0876   -0.5775 H   0  0  0  0  0  0  0  0  0  0  0  0
   -2.1511   -1.6547   -0.1760 H   0  0  0  0  0  0  0  0  0  0  0  0
   -0.5491   -2.0810    0.5807 H   0  0  0  0  0  0  0  0  0  0  0  0
   -0.8989   -0.5369   -1.8630 H   0  0  0  0  0  0  0  0  0  0  0  0
  1  2  1  0
  2  3  1  0
  3  4  2  0
  4  5  1  0
  5  6  1  0
  6  7  2  0
  6  8  1  0
  8  9  1  0
  9  2  1  0
  9  5  1  0
  1 10  1  0
  1 11  1  0
  1 12  1  0
  2 13  1  0
  3 14  1  0
  4 15  1  0
  5 16  1  0
  8 17  1  0
  8 18  1  0
  9 19  1  0
M  END
