
     RDKit          3D

 23 24  0  0  0  0  0  0  0  0999 V2000
    2.2707    0.3722   -0.6266 C   0  0  0  0  0  0  0  0  0  0  0  0
    1.2246   -0.2825    0.2136 C   0  0  0  0  0  0  0  0  0  0  0  0
    0.3726   -1.2696   -0.5104 C   0  0  0  0  0  0  0  0  0  0  0  0
   -0.9590   -1.2622    0.2283 C   0  0  0  0  0  0  0  0  0  0  0  0
   -1.9284   -0.5057   -0.6424 C   0  0  0  0  0  0  0  0  0  0  0  0
   -1.8378    0.8177   -0.5727 C   0  0  0  0  0  0  0  0  0  0  0  0
   -0.5490    1.4514   -0.1846 C   0  0  0  0  0  0  0  0  0  0  0  0
    0.2334    0.6626    0.8084 C   0  0  0  0  0  0  0  0  0  0  0  0
   -0.7375   -0.3482    1.4409 C   0  0  0  0  0  0  0  0  0  0  0  0
    1.8942    0.9808   -1.4453 H   0  0  0  0  0  0  0  0  0  0  0  0
    2.9120   -0.4384   -1.0494 H   0  0  0  0  0  0  0  0  0  0  0  0
    2.9418    0.9426    0.0696 H   0  0  0  0  0  0  0  0  0  0  0  0
    1.7299   -0.8124    1.0455 H   0  0  0  0  0  0  0  0  0  0  0  0
    0.2462   -0.9629   -1.5715 H   0  0  0  0  0  0  0  0  0  0  0  0
    0.8219   -2.2870   -0.4411 H   0  0  0  0  0  0  0  0  0  0  0  0
   -1.3120   -2.2477    0.5021 H   0  0  0  0  0  0  0  0  0  0  0  0
   -2.6402   -0.9925   -1.2730 H   0  0  0  0  0  0  0  0  0  0  0  0
   -2.7266    1.4178   -0.8062 H   0  0  0  0  0  0  0  0  0  0  0  0
    0.0378    1.7473   -1.0904 H   0  0  0  0  0  0  0  0  0  0  0  0
   -0.8322    2.4225    0.3195 H   0  0  0  0  0  0  0  0  0  0  0  0
    0.6772    1.3128    1.5891 H   0  0  0  0  0  0  0  0  0  0  0  0
   -1.6685    0.1317    1.7660 H   0  0  0  0  0  0  0  0  0  0  0  0
   -0.1713   -0.8503    2.2308 H   0  0  0  0  0  0  0  0  0  0  0  0
  1  2  1  0
  2  3  1  0
  3  4  1  0
  4  5  1  0
  5  6  2  0
  6  7  1  0
  7  8  1  0
  8  9  1  0
  8  2  1  0
  9  4  1  0
  1 10  1  0
  1 11  1  0
  1 12  1  0
  2 13  1  0
  3 14  1  0
  3 15  1  0
  4 16  1  0
  5 17  1  0
  6 18  1  0
  7 19  1  0
  7 20  1  0
  8 21  1  0
  9 22  1  0
  9 23  1  0
M  END
