
     RDKit          3D

 23 24  0  0  0  0  0  0  0  0999 V2000
   -2.3294   -0.5958   -0.1893 C   0  0  0  0  0  0  0  0  0  0  0  0
   -0.9110   -0.3735   -0.7185 C   0  0  0  0  0  0  0  0  0  0  0  0
   -0.6767    1.1008   -0.7506 C   0  0  0  0  0  0  0  0  0  0  0  0
    0.7216    1.5152   -0.4328 C   0  0  0  0  0  0  0  0  0  0  0  0
    1.3118    0.5607    0.5662 C   0  0  0  0  0  0  0  0  0  0  0  0
    0.2175   -0.0715    1.4165 C   0  0  0  0  0  0  0  0  0  0  0  0
    0.0164   -1.0577    0.2707 C   0  0  0  0  0  0  0  0  0  0  0  0
    1.4340   -0.7928   -0.1439 C   0  0  0  0  0  0  0  0  0  0  0  0
    2.3995   -1.6055    0.4462 O   0  0  0  0  0  0  0  0  0  0  0  0
   -2.9814   -0.8140   -1.0407 H   0  0  0  0  0  0  0  0  0  0  0  0
   -2.3579   -1.4394    0.5413 H   0  0  0  0  0  0  0  0  0  0  0  0
   -2.6537    0.3018    0.3963 H   0  0  0  0  0  0  0  0  0  0  0  0
   -0.7927   -0.8701   -1.7089 H   0  0  0  0  0  0  0  0  0  0  0  0
   -1.3529    1.6402   -0.0359 H   0  0  0  0  0  0  0  0  0  0  0  0
   -0.9132    1.4685   -1.7755 H   0  0  0  0  0  0  0  0  0  0  0  0
    0.7425    2.5624   -0.0485 H   0  0  0  0  0  0  0  0  0  0  0  0
    1.4015    1.5076   -1.3244 H   0  0  0  0  0  0  0  0  0  0  0  0
    2.2015    0.8833    1.1038 H   0  0  0  0  0  0  0  0  0  0  0  0
    0.6018   -0.5241    2.3504 H   0  0  0  0  0  0  0  0  0  0  0  0
   -0.6815    0.5545    1.5564 H   0  0  0  0  0  0  0  0  0  0  0  0
   -0.2477   -2.0703    0.5544 H   0  0  0  0  0  0  0  0  0  0  0  0
    1.5717   -0.6933   -1.2521 H   0  0  0  0  0  0  0  0  0  0  0  0
    3.2785   -1.1873    0.2189 H   0  0  0  0  0  0  0  0  0  0  0  0
  1  2  1  0
  2  3  1  0
  3  4  1  0
  4  5  1  0
  5  6  1  0
  6  7  1  0
  7  8  1  0
  8  9  1  0
  7  2  1  0
  8  5  1  0
  1 10  1  0
  1 11  1  0
  1 12  1  0
  2 13  1  0
  3 14  1  0
  3 15  1  0
  4 16  1  0
  4 17  1  0
  5 18  1  0
  6 19  1  0
  6 20  1  0
  7 21  1  0
  8 22  1  0
  9 23  1  0
M  END
