
     RDKit          3D

 25 26  0  0  0  0  0  0  0  0999 V2000
   -1.8692    1.9429   -0.2166 C   0  0  0  0  0  0  0  0  0  0  0  0
   -0.9511    1.0026    0.4754 C   0  0  0  0  0  0  0  0  0  0  0  0
   -1.1235   -0.4549    0.2304 C   0  0  0  0  0  0  0  0  0  0  0  0
   -1.3777   -1.2842    1.4744 C   0  0  0  0  0  0  0  0  0  0  0  0
    0.2986   -0.5674   -0.1964 C   0  0  0  0  0  0  0  0  0  0  0  0
    0.5685   -1.4164   -1.3967 C   0  0  0  0  0  0  0  0  0  0  0  0
    1.4094    0.1291    0.4478 C   0  0  0  0  0  0  0  0  0  0  0  0
    2.7555    0.0568   -0.1858 C   0  0  0  0  0  0  0  0  0  0  0  0
    0.3807    0.9196   -0.2516 C   0  0  0  0  0  0  0  0  0  0  0  0
   -2.5674    2.4497    0.5117 H   0  0  0  0  0  0  0  0  0  0  0  0
   -1.2415    2.7930   -0.6128 H   0  0  0  0  0  0  0  0  0  0  0  0
   -2.3914    1.5243   -1.0767 H   0  0  0  0  0  0  0  0  0  0  0  0
   -0.8556    1.2510    1.5521 H   0  0  0  0  0  0  0  0  0  0  0  0
   -1.8513   -0.7487   -0.5500 H   0  0  0  0  0  0  0  0  0  0  0  0
   -1.8589   -2.2478    1.2519 H   0  0  0  0  0  0  0  0  0  0  0  0
   -0.4301   -1.4808    2.0035 H   0  0  0  0  0  0  0  0  0  0  0  0
   -2.0327   -0.6663    2.1292 H   0  0  0  0  0  0  0  0  0  0  0  0
    1.6072   -1.2914   -1.7772 H   0  0  0  0  0  0  0  0  0  0  0  0
   -0.1968   -1.2192   -2.1623 H   0  0  0  0  0  0  0  0  0  0  0  0
    0.4119   -2.4864   -1.0785 H   0  0  0  0  0  0  0  0  0  0  0  0
    1.4169    0.1309    1.5588 H   0  0  0  0  0  0  0  0  0  0  0  0
    3.4104    0.8370    0.3007 H   0  0  0  0  0  0  0  0  0  0  0  0
    2.7517    0.3211   -1.2618 H   0  0  0  0  0  0  0  0  0  0  0  0
    3.2060   -0.9284    0.0269 H   0  0  0  0  0  0  0  0  0  0  0  0
    0.5305    1.4338   -1.1962 H   0  0  0  0  0  0  0  0  0  0  0  0
  1  2  1  0
  2  3  1  0
  3  4  1  0
  3  5  1  0
  5  6  1  0
  5  7  1  0
  7  8  1  0
  7  9  1  0
  9  2  1  0
  9  5  1  0
  1 10  1  0
  1 11  1  0
  1 12  1  0
  2 13  1  0
  3 14  1  0
  4 15  1  0
  4 16  1  0
  4 17  1  0
  6 18  1  0
  6 19  1  0
  6 20  1  0
  7 21  1  0
  8 22  1  0
  8 23  1  0
  8 24  1  0
  9 25  1  0
M  END
