
     RDKit          3D

 23 23  0  0  0  0  0  0  0  0999 V2000
   -2.2804   -0.8682    0.6810 C   0  0  0  0  0  0  0  0  0  0  0  0
   -1.1628   -0.5985   -0.3353 C   0  0  0  0  0  0  0  0  0  0  0  0
   -1.2386    0.8585   -0.6696 C   0  0  0  0  0  0  0  0  0  0  0  0
   -0.8511    1.6784    0.3689 O   0  0  0  0  0  0  0  0  0  0  0  0
    0.4715    2.0527    0.1448 C   0  0  0  0  0  0  0  0  0  0  0  0
    1.0778    1.0364   -0.6024 O   0  0  0  0  0  0  0  0  0  0  0  0
    1.2396   -0.0713    0.1852 C   0  0  0  0  0  0  0  0  0  0  0  0
    2.5807   -0.7020   -0.2119 C   0  0  0  0  0  0  0  0  0  0  0  0
    0.1584   -1.0794    0.1148 C   0  0  0  0  0  0  0  0  0  0  0  0
   -3.2163   -0.4822    0.1805 H   0  0  0  0  0  0  0  0  0  0  0  0
   -2.4121   -1.9376    0.8744 H   0  0  0  0  0  0  0  0  0  0  0  0
   -2.1513   -0.2439    1.5765 H   0  0  0  0  0  0  0  0  0  0  0  0
   -1.4839   -1.1585   -1.2567 H   0  0  0  0  0  0  0  0  0  0  0  0
   -2.2862    1.0990   -0.9243 H   0  0  0  0  0  0  0  0  0  0  0  0
   -0.5911    1.0397   -1.5748 H   0  0  0  0  0  0  0  0  0  0  0  0
    1.0359    2.2421    1.0658 H   0  0  0  0  0  0  0  0  0  0  0  0
    0.4466    2.9794   -0.4510 H   0  0  0  0  0  0  0  0  0  0  0  0
    1.3679    0.2428    1.2601 H   0  0  0  0  0  0  0  0  0  0  0  0
    3.3619   -0.5130    0.5265 H   0  0  0  0  0  0  0  0  0  0  0  0
    2.4355   -1.7804   -0.3447 H   0  0  0  0  0  0  0  0  0  0  0  0
    2.9414   -0.2996   -1.1819 H   0  0  0  0  0  0  0  0  0  0  0  0
    0.0394   -1.5742    1.1226 H   0  0  0  0  0  0  0  0  0  0  0  0
    0.5172   -1.9203   -0.5484 H   0  0  0  0  0  0  0  0  0  0  0  0
  1  2  1  0
  2  3  1  0
  3  4  1  0
  4  5  1  0
  5  6  1  0
  6  7  1  0
  7  8  1  0
  7  9  1  0
  9  2  1  0
  1 10  1  0
  1 11  1  0
  1 12  1  0
  2 13  1  0
  3 14  1  0
  3 15  1  0
  5 16  1  0
  5 17  1  0
  7 18  1  0
  8 19  1  0
  8 20  1  0
  8 21  1  0
  9 22  1  0
  9 23  1  0
M  END
