
     RDKit          3D

 20 20  0  0  0  0  0  0  0  0999 V2000
   -1.5257   -0.5936    1.2359 C   0  0  0  0  0  0  0  0  0  0  0  0
   -0.3213   -0.6389    0.2902 C   0  0  0  0  0  0  0  0  0  0  0  0
   -0.9061   -0.4362   -1.1115 C   0  0  0  0  0  0  0  0  0  0  0  0
   -0.8927    1.0772   -1.1893 C   0  0  0  0  0  0  0  0  0  0  0  0
    0.3221    1.4023   -0.6385 O   0  0  0  0  0  0  0  0  0  0  0  0
    0.5449    0.5603    0.4378 C   0  0  0  0  0  0  0  0  0  0  0  0
    2.0326    0.2322    0.4155 C   0  0  0  0  0  0  0  0  0  0  0  0
    2.3998   -0.3973   -0.7720 O   0  0  0  0  0  0  0  0  0  0  0  0
   -1.2108   -0.2307    2.2251 H   0  0  0  0  0  0  0  0  0  0  0  0
   -2.3143    0.0522    0.8071 H   0  0  0  0  0  0  0  0  0  0  0  0
   -1.9296   -1.6276    1.2450 H   0  0  0  0  0  0  0  0  0  0  0  0
    0.2216   -1.5911    0.3753 H   0  0  0  0  0  0  0  0  0  0  0  0
   -1.9483   -0.8065   -1.1437 H   0  0  0  0  0  0  0  0  0  0  0  0
   -0.2561   -0.8867   -1.8882 H   0  0  0  0  0  0  0  0  0  0  0  0
   -0.9826    1.3929   -2.2328 H   0  0  0  0  0  0  0  0  0  0  0  0
   -1.6841    1.4679   -0.5224 H   0  0  0  0  0  0  0  0  0  0  0  0
    0.3572    1.1465    1.3575 H   0  0  0  0  0  0  0  0  0  0  0  0
    2.5709    1.2037    0.4455 H   0  0  0  0  0  0  0  0  0  0  0  0
    2.3448   -0.3407    1.3072 H   0  0  0  0  0  0  0  0  0  0  0  0
    3.1778   -0.9861   -0.6437 H   0  0  0  0  0  0  0  0  0  0  0  0
  1  2  1  0
  2  3  1  0
  3  4  1  0
  4  5  1  0
  5  6  1  0
  6  7  1  0
  7  8  1  0
  6  2  1  0
  1  9  1  0
  1 10  1  0
  1 11  1  0
  2 12  1  0
  3 13  1  0
  3 14  1  0
  4 15  1  0
  4 16  1  0
  6 17  1  0
  7 18  1  0
  7 19  1  0
  8 20  1  0
M  END
