
     RDKit          3D

 19 20  0  0  0  0  0  0  0  0999 V2000
   -2.7308    0.4699    0.5359 C   0  0  0  0  0  0  0  0  0  0  0  0
   -1.3797   -0.1920    0.7016 C   0  0  0  0  0  0  0  0  0  0  0  0
   -1.1862   -1.3852   -0.2246 C   0  0  0  0  0  0  0  0  0  0  0  0
   -0.3900   -0.0948   -0.3875 C   0  0  0  0  0  0  0  0  0  0  0  0
    1.0747   -0.2031   -0.1514 C   0  0  0  0  0  0  0  0  0  0  0  0
    1.8124   -0.0713   -1.4168 O   0  0  0  0  0  0  0  0  0  0  0  0
    2.0219    0.8569   -0.2673 C   0  0  0  0  0  0  0  0  0  0  0  0
    3.3889    0.6532    0.2566 C   0  0  0  0  0  0  0  0  0  0  0  0
    3.7991   -0.4221    0.6383 O   0  0  0  0  0  0  0  0  0  0  0  0
   -3.5571   -0.1756    0.8982 H   0  0  0  0  0  0  0  0  0  0  0  0
   -2.9223    0.6450   -0.5448 H   0  0  0  0  0  0  0  0  0  0  0  0
   -2.7199    1.4683    1.0191 H   0  0  0  0  0  0  0  0  0  0  0  0
   -1.0883   -0.4046    1.7509 H   0  0  0  0  0  0  0  0  0  0  0  0
   -1.9522   -1.6240   -0.9693 H   0  0  0  0  0  0  0  0  0  0  0  0
   -0.6480   -2.2814    0.1766 H   0  0  0  0  0  0  0  0  0  0  0  0
   -0.7314    0.5379   -1.2597 H   0  0  0  0  0  0  0  0  0  0  0  0
    1.4092   -1.1441    0.3541 H   0  0  0  0  0  0  0  0  0  0  0  0
    1.7434    1.8698   -0.5893 H   0  0  0  0  0  0  0  0  0  0  0  0
    4.0563    1.4973    0.3036 H   0  0  0  0  0  0  0  0  0  0  0  0
  1  2  1  0
  2  3  1  0
  3  4  1  0
  4  5  1  0
  5  6  1  0
  6  7  1  0
  7  8  1  0
  8  9  2  0
  4  2  1  0
  7  5  1  0
  1 10  1  0
  1 11  1  0
  1 12  1  0
  2 13  1  0
  3 14  1  0
  3 15  1  0
  4 16  1  0
  5 17  1  0
  7 18  1  0
  8 19  1  0
M  END
