
     RDKit          3D

 23 25  0  0  0  0  0  0  0  0999 V2000
    3.4025    0.3894   -0.0733 C   0  0  0  0  0  0  0  0  0  0  0  0
    2.0818   -0.2994    0.0003 C   0  0  0  0  0  0  0  0  0  0  0  0
    0.9309    0.3965    0.6468 C   0  0  0  0  0  0  0  0  0  0  0  0
    0.9040    0.2596   -0.8093 C   0  0  0  0  0  0  0  0  0  0  0  0
   -0.3634   -0.5100   -0.7704 C   0  0  0  0  0  0  0  0  0  0  0  0
   -0.3145   -0.4267    0.7861 C   0  0  0  0  0  0  0  0  0  0  0  0
   -1.5338   -0.1228    0.0347 C   0  0  0  0  0  0  0  0  0  0  0  0
   -2.0713    1.2794    0.0525 C   0  0  0  0  0  0  0  0  0  0  0  0
   -2.6322   -1.1849    0.1132 C   0  0  0  0  0  0  0  0  0  0  0  0
    3.7581    0.5767    0.9491 H   0  0  0  0  0  0  0  0  0  0  0  0
    4.1283   -0.3279   -0.5332 H   0  0  0  0  0  0  0  0  0  0  0  0
    3.4168    1.2923   -0.7007 H   0  0  0  0  0  0  0  0  0  0  0  0
    2.0691   -1.4097    0.0066 H   0  0  0  0  0  0  0  0  0  0  0  0
    1.0107    1.4013    1.0658 H   0  0  0  0  0  0  0  0  0  0  0  0
    1.0897    1.0718   -1.5199 H   0  0  0  0  0  0  0  0  0  0  0  0
   -0.2928   -1.5413   -1.1873 H   0  0  0  0  0  0  0  0  0  0  0  0
   -0.1395   -1.4086    1.2910 H   0  0  0  0  0  0  0  0  0  0  0  0
   -2.9142    1.3732   -0.6772 H   0  0  0  0  0  0  0  0  0  0  0  0
   -2.5309    1.4380    1.0633 H   0  0  0  0  0  0  0  0  0  0  0  0
   -1.3205    2.0585   -0.0900 H   0  0  0  0  0  0  0  0  0  0  0  0
   -3.2265   -1.1150   -0.8272 H   0  0  0  0  0  0  0  0  0  0  0  0
   -3.2704   -1.0012    0.9887 H   0  0  0  0  0  0  0  0  0  0  0  0
   -2.1816   -2.1891    0.1904 H   0  0  0  0  0  0  0  0  0  0  0  0
  1  2  1  0
  2  3  1  0
  3  4  1  0
  4  5  1  0
  5  6  1  0
  6  7  1  0
  7  8  1  0
  7  9  1  0
  4  2  1  0
  7  5  1  0
  6  3  1  0
  1 10  1  0
  1 11  1  0
  1 12  1  0
  2 13  1  0
  3 14  1  0
  4 15  1  0
  5 16  1  0
  6 17  1  0
  8 18  1  0
  8 19  1  0
  8 20  1  0
  9 21  1  0
  9 22  1  0
  9 23  1  0
M  END
