
     RDKit          3D

 19 20  0  0  0  0  0  0  0  0999 V2000
   -1.9891    1.1385    0.0811 C   0  0  0  0  0  0  0  0  0  0  0  0
   -1.3266   -0.1097   -0.4376 C   0  0  0  0  0  0  0  0  0  0  0  0
   -1.4899   -1.2693    0.4349 C   0  0  0  0  0  0  0  0  0  0  0  0
   -2.5216   -1.6111    1.0286 O   0  0  0  0  0  0  0  0  0  0  0  0
   -0.2870   -1.9315    0.4895 O   0  0  0  0  0  0  0  0  0  0  0  0
    0.6916   -1.2795   -0.2902 C   0  0  0  0  0  0  0  0  0  0  0  0
    1.1782    0.0035    0.2866 C   0  0  0  0  0  0  0  0  0  0  0  0
    2.5596    0.4281   -0.1360 C   0  0  0  0  0  0  0  0  0  0  0  0
    0.1241    0.0495   -0.7095 C   0  0  0  0  0  0  0  0  0  0  0  0
   -1.2397    1.9539    0.1821 H   0  0  0  0  0  0  0  0  0  0  0  0
   -2.7612    1.5182   -0.6189 H   0  0  0  0  0  0  0  0  0  0  0  0
   -2.4543    1.0010    1.0823 H   0  0  0  0  0  0  0  0  0  0  0  0
   -1.8227   -0.3675   -1.4200 H   0  0  0  0  0  0  0  0  0  0  0  0
    1.2764   -1.8812   -0.9803 H   0  0  0  0  0  0  0  0  0  0  0  0
    0.9585    0.2225    1.3591 H   0  0  0  0  0  0  0  0  0  0  0  0
    2.5259    1.4963   -0.4439 H   0  0  0  0  0  0  0  0  0  0  0  0
    3.2943    0.3182    0.6892 H   0  0  0  0  0  0  0  0  0  0  0  0
    2.9056   -0.1441   -1.0140 H   0  0  0  0  0  0  0  0  0  0  0  0
    0.3777    0.4642   -1.7174 H   0  0  0  0  0  0  0  0  0  0  0  0
  1  2  1  0
  2  3  1  0
  3  4  2  0
  3  5  1  0
  5  6  1  0
  6  7  1  0
  7  8  1  0
  7  9  1  0
  9  2  1  0
  9  6  1  0
  1 10  1  0
  1 11  1  0
  1 12  1  0
  2 13  1  0
  6 14  1  0
  7 15  1  0
  8 16  1  0
  8 17  1  0
  8 18  1  0
  9 19  1  0
M  END
