
     RDKit          3D

 23 24  0  0  0  0  0  0  0  0999 V2000
   -1.9152    1.3388    0.3831 C   0  0  0  0  0  0  0  0  0  0  0  0
   -1.5451    0.0045   -0.2293 C   0  0  0  0  0  0  0  0  0  0  0  0
   -1.0701   -0.9743    0.8666 C   0  0  0  0  0  0  0  0  0  0  0  0
    0.3641   -1.1395    0.4223 C   0  0  0  0  0  0  0  0  0  0  0  0
    0.1915   -1.3205   -1.0805 C   0  0  0  0  0  0  0  0  0  0  0  0
   -0.2832    0.1187   -1.0189 C   0  0  0  0  0  0  0  0  0  0  0  0
    0.7465    0.2803    0.1073 C   0  0  0  0  0  0  0  0  0  0  0  0
    2.1462    0.5077   -0.3527 C   0  0  0  0  0  0  0  0  0  0  0  0
    3.0014    0.0662    0.6774 O   0  0  0  0  0  0  0  0  0  0  0  0
   -2.8878    1.7058   -0.0192 H   0  0  0  0  0  0  0  0  0  0  0  0
   -1.1710    2.1261    0.1235 H   0  0  0  0  0  0  0  0  0  0  0  0
   -1.9440    1.2480    1.4839 H   0  0  0  0  0  0  0  0  0  0  0  0
   -2.3736   -0.4082   -0.8039 H   0  0  0  0  0  0  0  0  0  0  0  0
   -1.6279   -1.9116    0.8118 H   0  0  0  0  0  0  0  0  0  0  0  0
   -1.1165   -0.4700    1.8547 H   0  0  0  0  0  0  0  0  0  0  0  0
    1.0191   -1.7753    0.9465 H   0  0  0  0  0  0  0  0  0  0  0  0
   -0.6204   -2.0697   -1.2432 H   0  0  0  0  0  0  0  0  0  0  0  0
    1.1066   -1.4644   -1.6487 H   0  0  0  0  0  0  0  0  0  0  0  0
   -0.2024    0.7368   -1.8653 H   0  0  0  0  0  0  0  0  0  0  0  0
    0.4334    0.9612    0.9023 H   0  0  0  0  0  0  0  0  0  0  0  0
    2.4010    0.0781   -1.3187 H   0  0  0  0  0  0  0  0  0  0  0  0
    2.3054    1.6109   -0.4085 H   0  0  0  0  0  0  0  0  0  0  0  0
    3.0419    0.7503    1.4094 H   0  0  0  0  0  0  0  0  0  0  0  0
  1  2  1  0
  2  3  1  0
  3  4  1  0
  4  5  1  0
  5  6  1  0
  6  7  1  0
  7  8  1  0
  8  9  1  0
  6  2  1  0
  7  4  1  0
  1 10  1  0
  1 11  1  0
  1 12  1  0
  2 13  1  0
  3 14  1  0
  3 15  1  0
  4 16  1  0
  5 17  1  0
  5 18  1  0
  6 19  1  0
  7 20  1  0
  8 21  1  0
  8 22  1  0
  9 23  1  0
M  END
