
     RDKit          3D

 21 22  0  0  0  0  0  0  0  0999 V2000
    2.5026    0.2228   -0.2991 C   0  0  0  0  0  0  0  0  0  0  0  0
    1.2046   -0.3056    0.1491 C   0  0  0  0  0  0  0  0  0  0  0  0
    0.1034   -0.1791   -0.9245 C   0  0  0  0  0  0  0  0  0  0  0  0
   -1.1642   -0.2305   -0.0897 C   0  0  0  0  0  0  0  0  0  0  0  0
   -2.0176    0.9711   -0.2216 C   0  0  0  0  0  0  0  0  0  0  0  0
   -1.9081   -1.3262   -0.5919 O   0  0  0  0  0  0  0  0  0  0  0  0
   -0.6750   -0.5566    1.2610 C   0  0  0  0  0  0  0  0  0  0  0  0
   -0.2001    0.1336    2.2634 O   0  0  0  0  0  0  0  0  0  0  0  0
    0.5174    0.4573    1.2249 C   0  0  0  0  0  0  0  0  0  0  0  0
    2.6756    1.2960   -0.1425 H   0  0  0  0  0  0  0  0  0  0  0  0
    3.3158   -0.3007    0.2844 H   0  0  0  0  0  0  0  0  0  0  0  0
    2.6720   -0.0921   -1.3658 H   0  0  0  0  0  0  0  0  0  0  0  0
    1.2783   -1.3912    0.3496 H   0  0  0  0  0  0  0  0  0  0  0  0
    0.2177    0.8327   -1.4076 H   0  0  0  0  0  0  0  0  0  0  0  0
    0.1687   -0.9693   -1.6688 H   0  0  0  0  0  0  0  0  0  0  0  0
   -2.9574    0.7967    0.3263 H   0  0  0  0  0  0  0  0  0  0  0  0
   -1.6058    1.9185    0.0933 H   0  0  0  0  0  0  0  0  0  0  0  0
   -2.3172    1.0490   -1.3067 H   0  0  0  0  0  0  0  0  0  0  0  0
   -1.6798   -2.1632   -0.0908 H   0  0  0  0  0  0  0  0  0  0  0  0
   -0.3732   -1.6496    1.3296 H   0  0  0  0  0  0  0  0  0  0  0  0
    0.2423    1.4865    0.8273 H   0  0  0  0  0  0  0  0  0  0  0  0
  1  2  1  0
  2  3  1  0
  3  4  1  0
  4  5  1  0
  4  6  1  0
  4  7  1  0
  7  8  1  0
  8  9  1  0
  9  2  1  0
  9  7  1  0
  1 10  1  0
  1 11  1  0
  1 12  1  0
  2 13  1  0
  3 14  1  0
  3 15  1  0
  5 16  1  0
  5 17  1  0
  5 18  1  0
  6 19  1  0
  7 20  1  0
  9 21  1  0
M  END
