
     RDKit          3D

 23 23  0  0  0  0  0  0  0  0999 V2000
    1.9596    0.0258   -0.7825 C   0  0  0  0  0  0  0  0  0  0  0  0
    1.2437    0.3453    0.4853 C   0  0  0  0  0  0  0  0  0  0  0  0
    0.4525    1.5985    0.3525 C   0  0  0  0  0  0  0  0  0  0  0  0
   -0.7283    1.7352   -0.2353 C   0  0  0  0  0  0  0  0  0  0  0  0
   -1.6176    0.7685   -0.9183 C   0  0  0  0  0  0  0  0  0  0  0  0
   -1.8422   -0.3852    0.0595 C   0  0  0  0  0  0  0  0  0  0  0  0
   -0.6189   -1.2686    0.0047 C   0  0  0  0  0  0  0  0  0  0  0  0
    0.3791   -0.7764    0.9987 C   0  0  0  0  0  0  0  0  0  0  0  0
    1.1583   -1.8156    1.5175 O   0  0  0  0  0  0  0  0  0  0  0  0
    2.4467   -0.9532   -0.7309 H   0  0  0  0  0  0  0  0  0  0  0  0
    2.7892    0.7836   -0.8939 H   0  0  0  0  0  0  0  0  0  0  0  0
    1.3362    0.1582   -1.6932 H   0  0  0  0  0  0  0  0  0  0  0  0
    2.0257    0.5265    1.2737 H   0  0  0  0  0  0  0  0  0  0  0  0
    0.8864    2.5030    0.7830 H   0  0  0  0  0  0  0  0  0  0  0  0
   -1.0949    2.7538   -0.1985 H   0  0  0  0  0  0  0  0  0  0  0  0
   -1.1730    0.3324   -1.8274 H   0  0  0  0  0  0  0  0  0  0  0  0
   -2.5739    1.2444   -1.1875 H   0  0  0  0  0  0  0  0  0  0  0  0
   -1.9714    0.0258    1.0782 H   0  0  0  0  0  0  0  0  0  0  0  0
   -2.7543   -0.9576   -0.1802 H   0  0  0  0  0  0  0  0  0  0  0  0
   -0.2351   -1.4024   -1.0137 H   0  0  0  0  0  0  0  0  0  0  0  0
   -0.9618   -2.2846    0.3602 H   0  0  0  0  0  0  0  0  0  0  0  0
   -0.1887   -0.3649    1.8700 H   0  0  0  0  0  0  0  0  0  0  0  0
    1.0829   -2.5928    0.8781 H   0  0  0  0  0  0  0  0  0  0  0  0
  1  2  1  0
  2  3  1  0
  3  4  2  0
  4  5  1  0
  5  6  1  0
  6  7  1  0
  7  8  1  0
  8  9  1  0
  8  2  1  0
  1 10  1  0
  1 11  1  0
  1 12  1  0
  2 13  1  0
  3 14  1  0
  4 15  1  0
  5 16  1  0
  5 17  1  0
  6 18  1  0
  6 19  1  0
  7 20  1  0
  7 21  1  0
  8 22  1  0
  9 23  1  0
M  END
