
     RDKit          3D

 23 24  0  0  0  0  0  0  0  0999 V2000
    2.2521    1.1337    0.8747 C   0  0  0  0  0  0  0  0  0  0  0  0
    1.2046    0.2484    0.3346 C   0  0  0  0  0  0  0  0  0  0  0  0
    1.7006   -0.6558   -0.8012 C   0  0  0  0  0  0  0  0  0  0  0  0
    0.3393   -1.2177   -1.2439 C   0  0  0  0  0  0  0  0  0  0  0  0
   -0.5967   -0.1700   -0.7506 C   0  0  0  0  0  0  0  0  0  0  0  0
   -1.9802   -0.0299   -1.1560 C   0  0  0  0  0  0  0  0  0  0  0  0
   -1.6550   -0.4967    0.2712 C   0  0  0  0  0  0  0  0  0  0  0  0
   -1.9576    0.5297    1.3616 C   0  0  0  0  0  0  0  0  0  0  0  0
    0.1913    0.9403   -0.3709 O   0  0  0  0  0  0  0  0  0  0  0  0
    3.2534    0.7547    0.5937 H   0  0  0  0  0  0  0  0  0  0  0  0
    2.1117    2.2111    0.6599 H   0  0  0  0  0  0  0  0  0  0  0  0
    2.2224    1.0592    2.0023 H   0  0  0  0  0  0  0  0  0  0  0  0
    0.6719   -0.3770    1.0720 H   0  0  0  0  0  0  0  0  0  0  0  0
    2.3719   -1.4386   -0.4453 H   0  0  0  0  0  0  0  0  0  0  0  0
    2.0793   -0.0531   -1.6387 H   0  0  0  0  0  0  0  0  0  0  0  0
    0.2977   -1.3963   -2.3177 H   0  0  0  0  0  0  0  0  0  0  0  0
    0.2258   -2.1629   -0.6375 H   0  0  0  0  0  0  0  0  0  0  0  0
   -2.3817    1.0045   -1.2752 H   0  0  0  0  0  0  0  0  0  0  0  0
   -2.4051   -0.7972   -1.8276 H   0  0  0  0  0  0  0  0  0  0  0  0
   -1.8833   -1.5231    0.5431 H   0  0  0  0  0  0  0  0  0  0  0  0
   -1.1222    1.2734    1.3987 H   0  0  0  0  0  0  0  0  0  0  0  0
   -2.0916    0.0639    2.3415 H   0  0  0  0  0  0  0  0  0  0  0  0
   -2.8483    1.0994    1.0114 H   0  0  0  0  0  0  0  0  0  0  0  0
  1  2  1  0
  2  3  1  0
  3  4  1  0
  4  5  1  0
  5  6  1  0
  6  7  1  0
  7  8  1  0
  5  9  1  0
  9  2  1  0
  7  5  1  0
  1 10  1  0
  1 11  1  0
  1 12  1  0
  2 13  1  0
  3 14  1  0
  3 15  1  0
  4 16  1  0
  4 17  1  0
  6 18  1  0
  6 19  1  0
  7 20  1  0
  8 21  1  0
  8 22  1  0
  8 23  1  0
M  END
