
     RDKit          3D

 23 24  0  0  0  0  0  0  0  0999 V2000
    2.6671    0.3945   -0.2022 C   0  0  0  0  0  0  0  0  0  0  0  0
    1.2039    0.2558    0.2656 C   0  0  0  0  0  0  0  0  0  0  0  0
    0.8255   -1.1660    0.1105 C   0  0  0  0  0  0  0  0  0  0  0  0
   -0.5752   -1.4671   -0.2471 C   0  0  0  0  0  0  0  0  0  0  0  0
   -1.6153   -0.4909    0.0628 C   0  0  0  0  0  0  0  0  0  0  0  0
   -1.7344    0.6344   -0.9735 C   0  0  0  0  0  0  0  0  0  0  0  0
   -0.7813    1.4140   -0.0533 C   0  0  0  0  0  0  0  0  0  0  0  0
   -1.2915    0.5595    1.0644 C   0  0  0  0  0  0  0  0  0  0  0  0
    0.4801    1.1553   -0.4720 O   0  0  0  0  0  0  0  0  0  0  0  0
    2.7203    0.3846   -1.3039 H   0  0  0  0  0  0  0  0  0  0  0  0
    3.3038   -0.3618    0.2869 H   0  0  0  0  0  0  0  0  0  0  0  0
    3.0120    1.3950    0.1386 H   0  0  0  0  0  0  0  0  0  0  0  0
    1.2977    0.5712    1.3496 H   0  0  0  0  0  0  0  0  0  0  0  0
    1.4843   -1.6467   -0.6477 H   0  0  0  0  0  0  0  0  0  0  0  0
    1.0966   -1.6895    1.0771 H   0  0  0  0  0  0  0  0  0  0  0  0
   -0.6546   -1.7038   -1.3517 H   0  0  0  0  0  0  0  0  0  0  0  0
   -0.8508   -2.4517    0.2395 H   0  0  0  0  0  0  0  0  0  0  0  0
   -2.6044   -0.9643    0.2617 H   0  0  0  0  0  0  0  0  0  0  0  0
   -1.2950    0.3240   -1.9241 H   0  0  0  0  0  0  0  0  0  0  0  0
   -2.7640    1.0371   -0.9935 H   0  0  0  0  0  0  0  0  0  0  0  0
   -1.0317    2.4718   -0.0466 H   0  0  0  0  0  0  0  0  0  0  0  0
   -2.2462    1.0166    1.4634 H   0  0  0  0  0  0  0  0  0  0  0  0
   -0.6470    0.3280    1.8956 H   0  0  0  0  0  0  0  0  0  0  0  0
  1  2  1  0
  2  3  1  0
  3  4  1  0
  4  5  1  0
  5  6  1  0
  6  7  1  0
  7  8  1  0
  7  9  1  0
  9  2  1  0
  8  5  1  0
  1 10  1  0
  1 11  1  0
  1 12  1  0
  2 13  1  0
  3 14  1  0
  3 15  1  0
  4 16  1  0
  4 17  1  0
  5 18  1  0
  6 19  1  0
  6 20  1  0
  7 21  1  0
  8 22  1  0
  8 23  1  0
M  END
