
     RDKit          3D

 17 19  0  0  0  0  0  0  0  0999 V2000
    1.8116   -0.0830    0.3872 C   0  0  0  0  0  0  0  0  0  0  0  0
    0.6338   -0.2945   -0.5054 C   0  0  0  0  0  0  0  0  0  0  0  0
    0.1371    1.0998   -0.9228 C   0  0  0  0  0  0  0  0  0  0  0  0
   -1.1020    0.7852   -1.4316 O   0  0  0  0  0  0  0  0  0  0  0  0
   -1.6727    0.0918   -0.3635 C   0  0  0  0  0  0  0  0  0  0  0  0
   -1.0450    0.6391    0.8312 C   0  0  0  0  0  0  0  0  0  0  0  0
   -0.1716    1.6293    0.3166 O   0  0  0  0  0  0  0  0  0  0  0  0
   -0.5632   -0.6452    0.3406 C   0  0  0  0  0  0  0  0  0  0  0  0
   -0.7980   -1.8624    0.8399 O   0  0  0  0  0  0  0  0  0  0  0  0
    2.2085    0.9717    0.3220 H   0  0  0  0  0  0  0  0  0  0  0  0
    2.5991   -0.8065    0.1628 H   0  0  0  0  0  0  0  0  0  0  0  0
    1.5491   -0.2002    1.4760 H   0  0  0  0  0  0  0  0  0  0  0  0
    0.7914   -0.9510   -1.3518 H   0  0  0  0  0  0  0  0  0  0  0  0
    0.8107    1.6421   -1.5378 H   0  0  0  0  0  0  0  0  0  0  0  0
   -2.6617   -0.3377   -0.4301 H   0  0  0  0  0  0  0  0  0  0  0  0
   -1.5313    0.8201    1.7869 H   0  0  0  0  0  0  0  0  0  0  0  0
   -0.9959   -2.4988    0.0799 H   0  0  0  0  0  0  0  0  0  0  0  0
  1  2  1  0
  2  3  1  0
  3  4  1  0
  4  5  1  0
  5  6  1  0
  6  7  1  0
  6  8  1  0
  8  9  1  0
  8  2  1  0
  7  3  1  0
  8  5  1  0
  1 10  1  0
  1 11  1  0
  1 12  1  0
  2 13  1  0
  3 14  1  0
  5 15  1  0
  6 16  1  0
  9 17  1  0
M  END
