
     RDKit          3D

 17 18  0  0  0  0  0  0  0  0999 V2000
   -1.8378   -0.8308    0.0387 C   0  0  0  0  0  0  0  0  0  0  0  0
   -0.6527   -0.3792   -0.8257 C   0  0  0  0  0  0  0  0  0  0  0  0
    0.5329   -1.2104   -0.4141 C   0  0  0  0  0  0  0  0  0  0  0  0
    0.8740   -2.3561   -0.6382 O   0  0  0  0  0  0  0  0  0  0  0  0
    1.0159   -0.0210    0.3309 C   0  0  0  0  0  0  0  0  0  0  0  0
    1.1747   -0.0692    1.6901 O   0  0  0  0  0  0  0  0  0  0  0  0
    1.4543    1.1200   -0.4989 C   0  0  0  0  0  0  0  0  0  0  0  0
    0.0110    0.8566   -0.3149 C   0  0  0  0  0  0  0  0  0  0  0  0
   -0.7950    1.7102    0.4020 O   0  0  0  0  0  0  0  0  0  0  0  0
   -2.7929   -0.4784   -0.3497 H   0  0  0  0  0  0  0  0  0  0  0  0
   -1.5976   -0.4921    1.0629 H   0  0  0  0  0  0  0  0  0  0  0  0
   -1.8010   -1.9582    0.0698 H   0  0  0  0  0  0  0  0  0  0  0  0
   -0.8518   -0.3528   -1.8964 H   0  0  0  0  0  0  0  0  0  0  0  0
    1.7449   -0.8414    1.9164 H   0  0  0  0  0  0  0  0  0  0  0  0
    1.9927    0.8538   -1.4323 H   0  0  0  0  0  0  0  0  0  0  0  0
    1.8580    1.9860    0.0463 H   0  0  0  0  0  0  0  0  0  0  0  0
   -0.3297    2.4630    0.8132 H   0  0  0  0  0  0  0  0  0  0  0  0
  1  2  1  0
  2  3  1  0
  3  4  2  0
  3  5  1  0
  5  6  1  0
  5  7  1  0
  7  8  1  0
  8  9  1  0
  8  2  1  0
  8  5  1  0
  1 10  1  0
  1 11  1  0
  1 12  1  0
  2 13  1  0
  6 14  1  0
  7 15  1  0
  7 16  1  0
  9 17  1  0
M  END
