
     RDKit          3D

 18 19  0  0  0  0  0  0  0  0999 V2000
    2.1065    0.4297    0.2609 C   0  0  0  0  0  0  0  0  0  0  0  0
    0.8127    0.2869   -0.4791 C   0  0  0  0  0  0  0  0  0  0  0  0
    0.5709   -1.1119   -0.9425 C   0  0  0  0  0  0  0  0  0  0  0  0
   -0.8328   -1.1319   -1.0783 O   0  0  0  0  0  0  0  0  0  0  0  0
   -1.2660   -0.6101    0.1413 C   0  0  0  0  0  0  0  0  0  0  0  0
   -2.3317    0.4310   -0.0204 C   0  0  0  0  0  0  0  0  0  0  0  0
   -1.3314    1.3526   -0.3685 O   0  0  0  0  0  0  0  0  0  0  0  0
   -0.3988    0.5861    0.3544 C   0  0  0  0  0  0  0  0  0  0  0  0
    2.1797    1.4172    0.7328 H   0  0  0  0  0  0  0  0  0  0  0  0
    2.3111   -0.4113    0.9503 H   0  0  0  0  0  0  0  0  0  0  0  0
    2.9244    0.3948   -0.5100 H   0  0  0  0  0  0  0  0  0  0  0  0
    0.8355    0.9434   -1.3808 H   0  0  0  0  0  0  0  0  0  0  0  0
    0.8308   -1.8930   -0.2203 H   0  0  0  0  0  0  0  0  0  0  0  0
    1.0366   -1.2394   -1.9376 H   0  0  0  0  0  0  0  0  0  0  0  0
   -1.3726   -1.3179    0.9606 H   0  0  0  0  0  0  0  0  0  0  0  0
   -2.8044    0.7368    0.9205 H   0  0  0  0  0  0  0  0  0  0  0  0
   -3.0460    0.2194   -0.8510 H   0  0  0  0  0  0  0  0  0  0  0  0
   -0.2245    0.9176    1.3821 H   0  0  0  0  0  0  0  0  0  0  0  0
  1  2  1  0
  2  3  1  0
  3  4  1  0
  4  5  1  0
  5  6  1  0
  6  7  1  0
  7  8  1  0
  8  2  1  0
  8  5  1  0
  1  9  1  0
  1 10  1  0
  1 11  1  0
  2 12  1  0
  3 13  1  0
  3 14  1  0
  5 15  1  0
  6 16  1  0
  6 17  1  0
  8 18  1  0
M  END
