
     RDKit          3D

 25 25  0  0  0  0  0  0  0  0999 V2000
    2.1287    0.4983    0.6935 C   0  0  0  0  0  0  0  0  0  0  0  0
    1.2476    0.3901   -0.5370 C   0  0  0  0  0  0  0  0  0  0  0  0
    0.3562    1.5495   -0.5702 C   0  0  0  0  0  0  0  0  0  0  0  0
   -0.8739    1.7899   -0.0956 C   0  0  0  0  0  0  0  0  0  0  0  0
   -1.6857    0.8076    0.6548 C   0  0  0  0  0  0  0  0  0  0  0  0
   -1.8798   -0.4731   -0.0769 C   0  0  0  0  0  0  0  0  0  0  0  0
   -0.8554   -0.7329   -1.1243 C   0  0  0  0  0  0  0  0  0  0  0  0
    0.5332   -0.9359   -0.5994 C   0  0  0  0  0  0  0  0  0  0  0  0
    0.5597   -1.6607    0.7364 C   0  0  0  0  0  0  0  0  0  0  0  0
    1.5501    0.6685    1.6192 H   0  0  0  0  0  0  0  0  0  0  0  0
    2.7757    1.3961    0.5512 H   0  0  0  0  0  0  0  0  0  0  0  0
    2.8197   -0.3610    0.7812 H   0  0  0  0  0  0  0  0  0  0  0  0
    1.9299    0.4491   -1.4098 H   0  0  0  0  0  0  0  0  0  0  0  0
    0.7650    2.4125   -1.0875 H   0  0  0  0  0  0  0  0  0  0  0  0
   -1.2755    2.7841   -0.2914 H   0  0  0  0  0  0  0  0  0  0  0  0
   -2.6956    1.2928    0.8023 H   0  0  0  0  0  0  0  0  0  0  0  0
   -1.3060    0.6729    1.7068 H   0  0  0  0  0  0  0  0  0  0  0  0
   -2.8799   -0.4616   -0.6007 H   0  0  0  0  0  0  0  0  0  0  0  0
   -1.9340   -1.3640    0.6148 H   0  0  0  0  0  0  0  0  0  0  0  0
   -0.8653    0.1328   -1.8305 H   0  0  0  0  0  0  0  0  0  0  0  0
   -1.1970   -1.6055   -1.7281 H   0  0  0  0  0  0  0  0  0  0  0  0
    1.0574   -1.6084   -1.3117 H   0  0  0  0  0  0  0  0  0  0  0  0
    0.3950   -1.0130    1.5930 H   0  0  0  0  0  0  0  0  0  0  0  0
   -0.2120   -2.4530    0.6869 H   0  0  0  0  0  0  0  0  0  0  0  0
    1.5419   -2.1751    0.8230 H   0  0  0  0  0  0  0  0  0  0  0  0
  1  2  1  0
  2  3  1  0
  3  4  2  0
  4  5  1  0
  5  6  1  0
  6  7  1  0
  7  8  1  0
  8  9  1  0
  8  2  1  0
  1 10  1  0
  1 11  1  0
  1 12  1  0
  2 13  1  0
  3 14  1  0
  4 15  1  0
  5 16  1  0
  5 17  1  0
  6 18  1  0
  6 19  1  0
  7 20  1  0
  7 21  1  0
  8 22  1  0
  9 23  1  0
  9 24  1  0
  9 25  1  0
M  END
