
     RDKit          3D

 19 19  0  0  0  0  0  0  0  0999 V2000
   -1.9204   -0.6242   -0.0526 C   0  0  0  0  0  0  0  0  0  0  0  0
   -1.2190    0.4909    0.6631 C   0  0  0  0  0  0  0  0  0  0  0  0
   -0.3482    1.4515   -0.0827 C   0  0  0  0  0  0  0  0  0  0  0  0
   -0.4464    1.3819   -1.4603 O   0  0  0  0  0  0  0  0  0  0  0  0
    0.2800    0.3937    0.7133 C   0  0  0  0  0  0  0  0  0  0  0  0
    0.9688   -0.7910    0.1134 C   0  0  0  0  0  0  0  0  0  0  0  0
    0.7420   -0.9595   -1.2302 O   0  0  0  0  0  0  0  0  0  0  0  0
    2.4324   -0.6193    0.3149 C   0  0  0  0  0  0  0  0  0  0  0  0
    2.8635   -0.4543    1.4318 O   0  0  0  0  0  0  0  0  0  0  0  0
   -1.5886   -0.7314   -1.0890 H   0  0  0  0  0  0  0  0  0  0  0  0
   -3.0105   -0.3516   -0.1015 H   0  0  0  0  0  0  0  0  0  0  0  0
   -1.8390   -1.6029    0.5041 H   0  0  0  0  0  0  0  0  0  0  0  0
   -1.7719    0.9145    1.5233 H   0  0  0  0  0  0  0  0  0  0  0  0
   -0.2800    2.5030    0.3242 H   0  0  0  0  0  0  0  0  0  0  0  0
   -0.7796    2.2469   -1.8181 H   0  0  0  0  0  0  0  0  0  0  0  0
    0.7012    0.6883    1.7147 H   0  0  0  0  0  0  0  0  0  0  0  0
    0.6487   -1.7419    0.6277 H   0  0  0  0  0  0  0  0  0  0  0  0
    1.4299   -1.5583   -1.5887 H   0  0  0  0  0  0  0  0  0  0  0  0
    3.1372   -0.6362   -0.5074 H   0  0  0  0  0  0  0  0  0  0  0  0
  1  2  1  0
  2  3  1  0
  3  4  1  0
  3  5  1  0
  5  6  1  0
  6  7  1  0
  6  8  1  0
  8  9  2  0
  5  2  1  0
  1 10  1  0
  1 11  1  0
  1 12  1  0
  2 13  1  0
  3 14  1  0
  4 15  1  0
  5 16  1  0
  6 17  1  0
  7 18  1  0
  8 19  1  0
M  END
