
     RDKit          3D

 21 22  0  0  0  0  0  0  0  0999 V2000
   -2.4244    0.2679    0.0153 C   0  0  0  0  0  0  0  0  0  0  0  0
   -1.2460   -0.3030    0.8019 C   0  0  0  0  0  0  0  0  0  0  0  0
   -0.4271   -1.2345   -0.1022 C   0  0  0  0  0  0  0  0  0  0  0  0
    0.5224   -0.1444   -0.4310 C   0  0  0  0  0  0  0  0  0  0  0  0
    1.9601   -0.5030   -0.5017 C   0  0  0  0  0  0  0  0  0  0  0  0
    2.4928   -1.0126    0.6642 O   0  0  0  0  0  0  0  0  0  0  0  0
    0.1570    1.2699   -0.5526 C   0  0  0  0  0  0  0  0  0  0  0  0
    1.2087    2.1860   -0.5982 O   0  0  0  0  0  0  0  0  0  0  0  0
   -0.0332    0.6194    0.7478 C   0  0  0  0  0  0  0  0  0  0  0  0
   -3.3009   -0.3836    0.2075 H   0  0  0  0  0  0  0  0  0  0  0  0
   -2.6339    1.3060    0.2962 H   0  0  0  0  0  0  0  0  0  0  0  0
   -2.2310    0.1681   -1.0931 H   0  0  0  0  0  0  0  0  0  0  0  0
   -1.4940   -0.7068    1.7792 H   0  0  0  0  0  0  0  0  0  0  0  0
    0.0668   -1.9868    0.5802 H   0  0  0  0  0  0  0  0  0  0  0  0
   -0.9974   -1.6984   -0.9141 H   0  0  0  0  0  0  0  0  0  0  0  0
    2.5534    0.3812   -0.8129 H   0  0  0  0  0  0  0  0  0  0  0  0
    2.0880   -1.2513   -1.3231 H   0  0  0  0  0  0  0  0  0  0  0  0
    2.7437   -1.9648    0.5634 H   0  0  0  0  0  0  0  0  0  0  0  0
   -0.7321    1.5525   -1.1436 H   0  0  0  0  0  0  0  0  0  0  0  0
    1.0810    2.7556    0.2264 H   0  0  0  0  0  0  0  0  0  0  0  0
    0.6462    0.6826    1.5903 H   0  0  0  0  0  0  0  0  0  0  0  0
  1  2  1  0
  2  3  1  0
  3  4  1  0
  4  5  1  0
  5  6  1  0
  4  7  1  0
  7  8  1  0
  7  9  1  0
  9  2  1  0
  9  4  1  0
  1 10  1  0
  1 11  1  0
  1 12  1  0
  2 13  1  0
  3 14  1  0
  3 15  1  0
  5 16  1  0
  5 17  1  0
  6 18  1  0
  7 19  1  0
  8 20  1  0
  9 21  1  0
M  END
