
     RDKit          3D

 19 21  0  0  0  0  0  0  0  0999 V2000
   -2.2205    0.6793   -0.3170 C   0  0  0  0  0  0  0  0  0  0  0  0
   -1.2576   -0.3436    0.1778 C   0  0  0  0  0  0  0  0  0  0  0  0
    0.0112   -0.5133   -0.6197 C   0  0  0  0  0  0  0  0  0  0  0  0
    0.5903   -1.0737    0.6516 C   0  0  0  0  0  0  0  0  0  0  0  0
    2.0460   -0.6565    0.6998 C   0  0  0  0  0  0  0  0  0  0  0  0
    1.8896    0.6983    0.0653 C   0  0  0  0  0  0  0  0  0  0  0  0
    2.7773    1.4490   -0.2250 O   0  0  0  0  0  0  0  0  0  0  0  0
    0.4277    0.8119   -0.0789 C   0  0  0  0  0  0  0  0  0  0  0  0
   -0.1819    0.1196    1.1098 C   0  0  0  0  0  0  0  0  0  0  0  0
   -2.1978    1.6391    0.2334 H   0  0  0  0  0  0  0  0  0  0  0  0
   -2.1311    0.8620   -1.4243 H   0  0  0  0  0  0  0  0  0  0  0  0
   -3.2618    0.2673   -0.1692 H   0  0  0  0  0  0  0  0  0  0  0  0
   -1.6785   -1.3266    0.4663 H   0  0  0  0  0  0  0  0  0  0  0  0
    0.1022   -0.8781   -1.5438 H   0  0  0  0  0  0  0  0  0  0  0  0
    0.3188   -2.0538    0.9701 H   0  0  0  0  0  0  0  0  0  0  0  0
    2.6944   -1.3197    0.1173 H   0  0  0  0  0  0  0  0  0  0  0  0
    2.3599   -0.5528    1.7694 H   0  0  0  0  0  0  0  0  0  0  0  0
   -0.0089    1.7109   -0.4451 H   0  0  0  0  0  0  0  0  0  0  0  0
   -0.2791    0.4807    2.0374 H   0  0  0  0  0  0  0  0  0  0  0  0
  1  2  1  0
  2  3  1  0
  3  4  1  0
  4  5  1  0
  5  6  1  0
  6  7  2  0
  6  8  1  0
  8  9  1  0
  9  2  1  0
  8  3  1  0
  9  4  1  0
  1 10  1  0
  1 11  1  0
  1 12  1  0
  2 13  1  0
  3 14  1  0
  4 15  1  0
  5 16  1  0
  5 17  1  0
  8 18  1  0
  9 19  1  0
M  END
