
     RDKit          3D

 21 21  0  0  0  0  0  0  0  0999 V2000
   -0.6366    2.0164   -0.8064 C   0  0  0  0  0  0  0  0  0  0  0  0
    0.1764    0.7678   -0.7766 C   0  0  0  0  0  0  0  0  0  0  0  0
    1.4949    1.0986   -0.1160 C   0  0  0  0  0  0  0  0  0  0  0  0
    1.9123    0.0671    0.5923 C   0  0  0  0  0  0  0  0  0  0  0  0
    0.9240   -1.0186    0.4631 C   0  0  0  0  0  0  0  0  0  0  0  0
    0.8351   -1.8265    1.5811 O   0  0  0  0  0  0  0  0  0  0  0  0
   -0.3520   -0.2384    0.2603 C   0  0  0  0  0  0  0  0  0  0  0  0
   -1.4680   -1.0605   -0.3072 C   0  0  0  0  0  0  0  0  0  0  0  0
   -1.8861   -1.9400    0.6899 O   0  0  0  0  0  0  0  0  0  0  0  0
   -1.7288    1.8438   -0.8330 H   0  0  0  0  0  0  0  0  0  0  0  0
   -0.3396    2.6661    0.0635 H   0  0  0  0  0  0  0  0  0  0  0  0
   -0.3770    2.5838   -1.7065 H   0  0  0  0  0  0  0  0  0  0  0  0
    0.3316    0.2892   -1.7548 H   0  0  0  0  0  0  0  0  0  0  0  0
    2.0239    2.0387   -0.2056 H   0  0  0  0  0  0  0  0  0  0  0  0
    2.8366   -0.0005    1.1883 H   0  0  0  0  0  0  0  0  0  0  0  0
    1.1778   -1.5813   -0.4555 H   0  0  0  0  0  0  0  0  0  0  0  0
    1.6654   -2.3811    1.5980 H   0  0  0  0  0  0  0  0  0  0  0  0
   -0.5825    0.2887    1.1826 H   0  0  0  0  0  0  0  0  0  0  0  0
   -1.0434   -1.6820   -1.1225 H   0  0  0  0  0  0  0  0  0  0  0  0
   -2.2709   -0.3927   -0.6452 H   0  0  0  0  0  0  0  0  0  0  0  0
   -2.6930   -1.5384    1.1102 H   0  0  0  0  0  0  0  0  0  0  0  0
  1  2  1  0
  2  3  1  0
  3  4  2  0
  4  5  1  0
  5  6  1  0
  5  7  1  0
  7  8  1  0
  8  9  1  0
  7  2  1  0
  1 10  1  0
  1 11  1  0
  1 12  1  0
  2 13  1  0
  3 14  1  0
  4 15  1  0
  5 16  1  0
  6 17  1  0
  7 18  1  0
  8 19  1  0
  8 20  1  0
  9 21  1  0
M  END
