
     RDKit          3D

 21 22  0  0  0  0  0  0  0  0999 V2000
   -2.4091   -0.0939   -0.0074 C   0  0  0  0  0  0  0  0  0  0  0  0
   -1.1239    0.5225    0.5052 C   0  0  0  0  0  0  0  0  0  0  0  0
   -0.7391   -0.2137    1.7232 C   0  0  0  0  0  0  0  0  0  0  0  0
    0.4333   -0.7937    1.5790 C   0  0  0  0  0  0  0  0  0  0  0  0
    0.9439   -0.4916    0.2302 C   0  0  0  0  0  0  0  0  0  0  0  0
    2.3937   -0.7498   -0.0805 C   0  0  0  0  0  0  0  0  0  0  0  0
    0.1206   -1.0877   -0.8472 O   0  0  0  0  0  0  0  0  0  0  0  0
    0.0101    0.2371   -0.4503 C   0  0  0  0  0  0  0  0  0  0  0  0
    0.3932    1.3195   -1.4424 C   0  0  0  0  0  0  0  0  0  0  0  0
   -3.0046    0.6202   -0.6209 H   0  0  0  0  0  0  0  0  0  0  0  0
   -3.0365   -0.5130    0.8019 H   0  0  0  0  0  0  0  0  0  0  0  0
   -2.0981   -0.9805   -0.6293 H   0  0  0  0  0  0  0  0  0  0  0  0
   -1.2422    1.6141    0.6915 H   0  0  0  0  0  0  0  0  0  0  0  0
   -1.3567   -0.2611    2.6171 H   0  0  0  0  0  0  0  0  0  0  0  0
    0.9845   -1.4109    2.3098 H   0  0  0  0  0  0  0  0  0  0  0  0
    2.6629   -0.2809   -1.0274 H   0  0  0  0  0  0  0  0  0  0  0  0
    2.4899   -1.8628   -0.2433 H   0  0  0  0  0  0  0  0  0  0  0  0
    3.0664   -0.4045    0.6981 H   0  0  0  0  0  0  0  0  0  0  0  0
    1.2688    1.8459   -1.0132 H   0  0  0  0  0  0  0  0  0  0  0  0
    0.6702    0.9096   -2.4263 H   0  0  0  0  0  0  0  0  0  0  0  0
   -0.4273    2.0751   -1.5429 H   0  0  0  0  0  0  0  0  0  0  0  0
  1  2  1  0
  2  3  1  0
  3  4  2  0
  4  5  1  0
  5  6  1  0
  5  7  1  0
  7  8  1  0
  8  9  1  0
  8  2  1  0
  8  5  1  0
  1 10  1  0
  1 11  1  0
  1 12  1  0
  2 13  1  0
  3 14  1  0
  4 15  1  0
  6 16  1  0
  6 17  1  0
  6 18  1  0
  9 19  1  0
  9 20  1  0
  9 21  1  0
M  END
