
     RDKit          3D

 21 22  0  0  0  0  0  0  0  0999 V2000
    2.2439    0.4898    0.1295 C   0  0  0  0  0  0  0  0  0  0  0  0
    1.0865    0.1905   -0.7991 C   0  0  0  0  0  0  0  0  0  0  0  0
    0.3308   -1.0495   -0.3217 C   0  0  0  0  0  0  0  0  0  0  0  0
    0.9321   -1.6768    0.7517 O   0  0  0  0  0  0  0  0  0  0  0  0
   -0.8443   -0.2172   -0.0986 C   0  0  0  0  0  0  0  0  0  0  0  0
   -1.7470   -0.2052    1.0243 C   0  0  0  0  0  0  0  0  0  0  0  0
   -2.2249   -0.5327   -0.3720 C   0  0  0  0  0  0  0  0  0  0  0  0
   -0.1371    1.0324   -0.4946 C   0  0  0  0  0  0  0  0  0  0  0  0
    0.0606    1.8409    0.6424 O   0  0  0  0  0  0  0  0  0  0  0  0
    3.0054   -0.3232    0.0223 H   0  0  0  0  0  0  0  0  0  0  0  0
    2.6871    1.4839   -0.1234 H   0  0  0  0  0  0  0  0  0  0  0  0
    1.9334    0.4843    1.1913 H   0  0  0  0  0  0  0  0  0  0  0  0
    1.4114    0.1682   -1.8408 H   0  0  0  0  0  0  0  0  0  0  0  0
    0.2256   -1.7472   -1.1887 H   0  0  0  0  0  0  0  0  0  0  0  0
    1.5850   -2.3326    0.3599 H   0  0  0  0  0  0  0  0  0  0  0  0
   -2.1440    0.7817    1.3946 H   0  0  0  0  0  0  0  0  0  0  0  0
   -1.7064   -0.9851    1.7965 H   0  0  0  0  0  0  0  0  0  0  0  0
   -2.5301   -1.5891   -0.4894 H   0  0  0  0  0  0  0  0  0  0  0  0
   -2.8267    0.2253   -0.9309 H   0  0  0  0  0  0  0  0  0  0  0  0
   -0.6058    1.5295   -1.3474 H   0  0  0  0  0  0  0  0  0  0  0  0
   -0.7355    2.4321    0.6942 H   0  0  0  0  0  0  0  0  0  0  0  0
  1  2  1  0
  2  3  1  0
  3  4  1  0
  3  5  1  0
  5  6  1  0
  6  7  1  0
  5  8  1  0
  8  9  1  0
  8  2  1  0
  7  5  1  0
  1 10  1  0
  1 11  1  0
  1 12  1  0
  2 13  1  0
  3 14  1  0
  4 15  1  0
  6 16  1  0
  6 17  1  0
  7 18  1  0
  7 19  1  0
  8 20  1  0
  9 21  1  0
M  END
