
     RDKit          3D

 19 21  0  0  0  0  0  0  0  0999 V2000
    2.1097   -0.2283    0.0316 C   0  0  0  0  0  0  0  0  0  0  0  0
    0.6459   -0.6171    0.1685 C   0  0  0  0  0  0  0  0  0  0  0  0
   -0.1027   -0.1021   -1.0606 C   0  0  0  0  0  0  0  0  0  0  0  0
   -1.4302   -0.8132   -1.1526 C   0  0  0  0  0  0  0  0  0  0  0  0
   -2.2837   -0.2360   -0.2452 O   0  0  0  0  0  0  0  0  0  0  0  0
   -1.5902    0.6309    0.5618 C   0  0  0  0  0  0  0  0  0  0  0  0
   -0.4609    1.0973   -0.2337 C   0  0  0  0  0  0  0  0  0  0  0  0
   -0.1801    0.3384    0.9863 C   0  0  0  0  0  0  0  0  0  0  0  0
    0.2876    0.8838    2.1474 O   0  0  0  0  0  0  0  0  0  0  0  0
    2.4377   -0.5189   -1.0012 H   0  0  0  0  0  0  0  0  0  0  0  0
    2.2676    0.8527    0.1091 H   0  0  0  0  0  0  0  0  0  0  0  0
    2.7610   -0.8196    0.7148 H   0  0  0  0  0  0  0  0  0  0  0  0
    0.5055   -1.6818    0.3658 H   0  0  0  0  0  0  0  0  0  0  0  0
    0.4728    0.0342   -1.9605 H   0  0  0  0  0  0  0  0  0  0  0  0
   -1.8104   -0.7535   -2.1691 H   0  0  0  0  0  0  0  0  0  0  0  0
   -1.2705   -1.8744   -0.8573 H   0  0  0  0  0  0  0  0  0  0  0  0
   -2.1631    1.3557    1.1274 H   0  0  0  0  0  0  0  0  0  0  0  0
   -0.1729    2.0980   -0.4597 H   0  0  0  0  0  0  0  0  0  0  0  0
   -0.0229    0.3541    2.9271 H   0  0  0  0  0  0  0  0  0  0  0  0
  1  2  1  0
  2  3  1  0
  3  4  1  0
  4  5  1  0
  5  6  1  0
  6  7  1  0
  7  8  1  0
  8  9  1  0
  8  2  1  0
  7  3  1  0
  8  6  1  0
  1 10  1  0
  1 11  1  0
  1 12  1  0
  2 13  1  0
  3 14  1  0
  4 15  1  0
  4 16  1  0
  6 17  1  0
  7 18  1  0
  9 19  1  0
M  END
