
     RDKit          3D

 21 23  0  0  0  0  0  0  0  0999 V2000
    2.8076    0.8402   -0.1719 C   0  0  0  0  0  0  0  0  0  0  0  0
    1.6974    0.0288    0.5043 C   0  0  0  0  0  0  0  0  0  0  0  0
    0.9484   -0.8236   -0.2244 C   0  0  0  0  0  0  0  0  0  0  0  0
    0.1976   -1.9416    0.2273 O   0  0  0  0  0  0  0  0  0  0  0  0
   -0.9993   -1.5562   -0.3816 C   0  0  0  0  0  0  0  0  0  0  0  0
   -1.0121   -0.0993    0.0109 C   0  0  0  0  0  0  0  0  0  0  0  0
   -2.1563    0.2405    0.9381 C   0  0  0  0  0  0  0  0  0  0  0  0
   -2.0648    0.7545   -0.5053 C   0  0  0  0  0  0  0  0  0  0  0  0
    0.3365    0.3987    0.1676 C   0  0  0  0  0  0  0  0  0  0  0  0
    3.7702    0.2771   -0.0984 H   0  0  0  0  0  0  0  0  0  0  0  0
    2.9286    1.8172    0.3471 H   0  0  0  0  0  0  0  0  0  0  0  0
    2.5885    1.0068   -1.2442 H   0  0  0  0  0  0  0  0  0  0  0  0
    2.0428   -0.2585    1.5425 H   0  0  0  0  0  0  0  0  0  0  0  0
    1.1178   -0.9506   -1.3388 H   0  0  0  0  0  0  0  0  0  0  0  0
   -1.8692   -2.1181   -0.0346 H   0  0  0  0  0  0  0  0  0  0  0  0
   -0.8344   -1.6002   -1.4732 H   0  0  0  0  0  0  0  0  0  0  0  0
   -1.9848    0.9606    1.7608 H   0  0  0  0  0  0  0  0  0  0  0  0
   -2.9292   -0.5041    1.1667 H   0  0  0  0  0  0  0  0  0  0  0  0
   -2.0301    1.8423   -0.5624 H   0  0  0  0  0  0  0  0  0  0  0  0
   -2.8596    0.3186   -1.1783 H   0  0  0  0  0  0  0  0  0  0  0  0
    0.3043    1.3669    0.5712 H   0  0  0  0  0  0  0  0  0  0  0  0
  1  2  1  0
  2  3  1  0
  3  4  1  0
  4  5  1  0
  5  6  1  0
  6  7  1  0
  7  8  1  0
  6  9  1  0
  9  2  1  0
  9  3  1  0
  8  6  1  0
  1 10  1  0
  1 11  1  0
  1 12  1  0
  2 13  1  0
  3 14  1  0
  5 15  1  0
  5 16  1  0
  7 17  1  0
  7 18  1  0
  8 19  1  0
  8 20  1  0
  9 21  1  0
M  END
