
     RDKit          3D

 21 22  0  0  0  0  0  0  0  0999 V2000
    2.0691    0.2315    0.8064 C   0  0  0  0  0  0  0  0  0  0  0  0
    1.1618   -0.1680   -0.2918 C   0  0  0  0  0  0  0  0  0  0  0  0
    0.2130   -1.2800    0.0371 C   0  0  0  0  0  0  0  0  0  0  0  0
   -0.9739   -0.9312   -0.8485 C   0  0  0  0  0  0  0  0  0  0  0  0
   -2.0678   -0.3955    0.0226 C   0  0  0  0  0  0  0  0  0  0  0  0
   -1.9479    0.9261    0.3518 O   0  0  0  0  0  0  0  0  0  0  0  0
   -0.6724    1.4407    0.3068 C   0  0  0  0  0  0  0  0  0  0  0  0
    0.2041    0.8829   -0.7474 C   0  0  0  0  0  0  0  0  0  0  0  0
   -0.5596    0.1196   -1.6650 O   0  0  0  0  0  0  0  0  0  0  0  0
    2.5971   -0.6974    1.1612 H   0  0  0  0  0  0  0  0  0  0  0  0
    1.6147    0.6804    1.6823 H   0  0  0  0  0  0  0  0  0  0  0  0
    2.8745    0.8707    0.3851 H   0  0  0  0  0  0  0  0  0  0  0  0
    1.7758   -0.4846   -1.1605 H   0  0  0  0  0  0  0  0  0  0  0  0
    0.6080   -2.2873   -0.1580 H   0  0  0  0  0  0  0  0  0  0  0  0
   -0.0479   -1.1664    1.1271 H   0  0  0  0  0  0  0  0  0  0  0  0
   -1.3109   -1.7908   -1.4574 H   0  0  0  0  0  0  0  0  0  0  0  0
   -3.0300   -0.5049   -0.5586 H   0  0  0  0  0  0  0  0  0  0  0  0
   -2.1965   -1.0747    0.9024 H   0  0  0  0  0  0  0  0  0  0  0  0
   -0.2607    1.4003    1.3360 H   0  0  0  0  0  0  0  0  0  0  0  0
   -0.7947    2.5457    0.0948 H   0  0  0  0  0  0  0  0  0  0  0  0
    0.7442    1.6831   -1.3263 H   0  0  0  0  0  0  0  0  0  0  0  0
  1  2  1  0
  2  3  1  0
  3  4  1  0
  4  5  1  0
  5  6  1  0
  6  7  1  0
  7  8  1  0
  8  9  1  0
  8  2  1  0
  9  4  1  0
  1 10  1  0
  1 11  1  0
  1 12  1  0
  2 13  1  0
  3 14  1  0
  3 15  1  0
  4 16  1  0
  5 17  1  0
  5 18  1  0
  7 19  1  0
  7 20  1  0
  8 21  1  0
M  END
