
     RDKit          3D

 19 20  0  0  0  0  0  0  0  0999 V2000
   -2.0469    0.9081   -0.1266 C   0  0  0  0  0  0  0  0  0  0  0  0
   -1.2144   -0.3371   -0.2013 C   0  0  0  0  0  0  0  0  0  0  0  0
    0.0256   -0.1730   -1.0950 C   0  0  0  0  0  0  0  0  0  0  0  0
    0.5266    1.0884   -1.2863 O   0  0  0  0  0  0  0  0  0  0  0  0
    1.5722    1.1960   -0.3720 C   0  0  0  0  0  0  0  0  0  0  0  0
    0.8961    0.7141    0.8650 C   0  0  0  0  0  0  0  0  0  0  0  0
    1.0053    1.2030    1.9716 O   0  0  0  0  0  0  0  0  0  0  0  0
    0.1035   -0.4442    0.4291 C   0  0  0  0  0  0  0  0  0  0  0  0
    0.6815   -1.7850    0.7614 C   0  0  0  0  0  0  0  0  0  0  0  0
   -2.0569    1.3673   -1.1423 H   0  0  0  0  0  0  0  0  0  0  0  0
   -1.7025    1.6381    0.6212 H   0  0  0  0  0  0  0  0  0  0  0  0
   -3.1268    0.6401    0.0696 H   0  0  0  0  0  0  0  0  0  0  0  0
   -1.7751   -1.2621   -0.3503 H   0  0  0  0  0  0  0  0  0  0  0  0
    0.2517   -0.9952   -1.7733 H   0  0  0  0  0  0  0  0  0  0  0  0
    1.9733    2.2094   -0.2820 H   0  0  0  0  0  0  0  0  0  0  0  0
    2.3623    0.4541   -0.6675 H   0  0  0  0  0  0  0  0  0  0  0  0
    1.1084   -2.3081   -0.1254 H   0  0  0  0  0  0  0  0  0  0  0  0
   -0.1262   -2.4174    1.2235 H   0  0  0  0  0  0  0  0  0  0  0  0
    1.5423   -1.6965    1.4804 H   0  0  0  0  0  0  0  0  0  0  0  0
  1  2  1  0
  2  3  1  0
  3  4  1  0
  4  5  1  0
  5  6  1  0
  6  7  2  0
  6  8  1  0
  8  9  1  0
  8  2  1  0
  8  3  1  0
  1 10  1  0
  1 11  1  0
  1 12  1  0
  2 13  1  0
  3 14  1  0
  5 15  1  0
  5 16  1  0
  9 17  1  0
  9 18  1  0
  9 19  1  0
M  END
