
     RDKit          3D

 21 23  0  0  0  0  0  0  0  0999 V2000
    2.2234   -0.4017    0.5439 C   0  0  0  0  0  0  0  0  0  0  0  0
    1.0191   -0.0798   -0.2783 C   0  0  0  0  0  0  0  0  0  0  0  0
    0.2252    1.0840    0.2066 C   0  0  0  0  0  0  0  0  0  0  0  0
    0.7078    2.3138   -0.2191 O   0  0  0  0  0  0  0  0  0  0  0  0
   -1.1596    0.8027   -0.3102 C   0  0  0  0  0  0  0  0  0  0  0  0
   -1.9285    0.0481    0.7864 C   0  0  0  0  0  0  0  0  0  0  0  0
   -1.2779   -1.1931    0.2691 C   0  0  0  0  0  0  0  0  0  0  0  0
    0.0379   -1.1959   -0.4024 C   0  0  0  0  0  0  0  0  0  0  0  0
   -1.1177   -0.5226   -1.0105 C   0  0  0  0  0  0  0  0  0  0  0  0
    2.0445   -1.1522    1.3287 H   0  0  0  0  0  0  0  0  0  0  0  0
    3.0189   -0.8327   -0.1232 H   0  0  0  0  0  0  0  0  0  0  0  0
    2.6556    0.5433    0.9370 H   0  0  0  0  0  0  0  0  0  0  0  0
    1.3898    0.1875   -1.3089 H   0  0  0  0  0  0  0  0  0  0  0  0
    0.2537    1.1195    1.3344 H   0  0  0  0  0  0  0  0  0  0  0  0
    1.3490    2.1670   -0.9404 H   0  0  0  0  0  0  0  0  0  0  0  0
   -1.6986    1.6135   -0.7787 H   0  0  0  0  0  0  0  0  0  0  0  0
   -3.0211    0.1478    0.5249 H   0  0  0  0  0  0  0  0  0  0  0  0
   -1.6849    0.3777    1.7936 H   0  0  0  0  0  0  0  0  0  0  0  0
   -1.7919   -2.1322    0.4435 H   0  0  0  0  0  0  0  0  0  0  0  0
    0.3341   -2.1606   -0.8555 H   0  0  0  0  0  0  0  0  0  0  0  0
   -1.5789   -0.7341   -1.9409 H   0  0  0  0  0  0  0  0  0  0  0  0
  1  2  1  0
  2  3  1  0
  3  4  1  0
  3  5  1  0
  5  6  1  0
  6  7  1  0
  7  8  1  0
  8  9  1  0
  8  2  1  0
  9  5  1  0
  9  7  1  0
  1 10  1  0
  1 11  1  0
  1 12  1  0
  2 13  1  0
  3 14  1  0
  4 15  1  0
  5 16  1  0
  6 17  1  0
  6 18  1  0
  7 19  1  0
  8 20  1  0
  9 21  1  0
M  END
