
     RDKit          3D

 19 19  0  0  0  0  0  0  0  0999 V2000
   -2.5372    0.3288   -0.0797 C   0  0  0  0  0  0  0  0  0  0  0  0
   -1.0906   -0.0354   -0.4537 C   0  0  0  0  0  0  0  0  0  0  0  0
   -0.2862    1.2011   -0.4076 C   0  0  0  0  0  0  0  0  0  0  0  0
    0.9551    1.0851    0.1763 O   0  0  0  0  0  0  0  0  0  0  0  0
    1.4154   -0.1835   -0.0656 C   0  0  0  0  0  0  0  0  0  0  0  0
    2.8379   -0.3824    0.2789 C   0  0  0  0  0  0  0  0  0  0  0  0
    3.4821    0.5338    0.7302 O   0  0  0  0  0  0  0  0  0  0  0  0
    0.5582   -1.1317    0.7631 C   0  0  0  0  0  0  0  0  0  0  0  0
   -0.7198   -1.0712    0.3279 O   0  0  0  0  0  0  0  0  0  0  0  0
   -2.4989    0.5781    1.0103 H   0  0  0  0  0  0  0  0  0  0  0  0
   -2.9223    1.1519   -0.6853 H   0  0  0  0  0  0  0  0  0  0  0  0
   -3.1381   -0.5937   -0.1733 H   0  0  0  0  0  0  0  0  0  0  0  0
   -1.1871   -0.4151   -1.5143 H   0  0  0  0  0  0  0  0  0  0  0  0
   -0.0957    1.5570   -1.4643 H   0  0  0  0  0  0  0  0  0  0  0  0
   -0.8532    2.0617    0.0565 H   0  0  0  0  0  0  0  0  0  0  0  0
    1.1973   -0.4264   -1.1302 H   0  0  0  0  0  0  0  0  0  0  0  0
    3.2532   -1.3698    0.1067 H   0  0  0  0  0  0  0  0  0  0  0  0
    0.5856   -0.7616    1.8256 H   0  0  0  0  0  0  0  0  0  0  0  0
    1.0442   -2.1266    0.6985 H   0  0  0  0  0  0  0  0  0  0  0  0
  1  2  1  0
  2  3  1  0
  3  4  1  0
  4  5  1  0
  5  6  1  0
  6  7  2  0
  5  8  1  0
  8  9  1  0
  9  2  1  0
  1 10  1  0
  1 11  1  0
  1 12  1  0
  2 13  1  0
  3 14  1  0
  3 15  1  0
  5 16  1  0
  6 17  1  0
  8 18  1  0
  8 19  1  0
M  END
