
     RDKit          3D

 20 21  0  0  0  0  0  0  0  0999 V2000
    2.2829   -0.2978   -0.5152 C   0  0  0  0  0  0  0  0  0  0  0  0
    0.9400   -0.6074    0.0593 C   0  0  0  0  0  0  0  0  0  0  0  0
   -0.2705   -0.4754   -0.7753 C   0  0  0  0  0  0  0  0  0  0  0  0
   -1.5561   -1.1583   -0.4592 C   0  0  0  0  0  0  0  0  0  0  0  0
   -1.9237   -0.7786    0.9454 C   0  0  0  0  0  0  0  0  0  0  0  0
   -1.0564    0.1098    1.4125 C   0  0  0  0  0  0  0  0  0  0  0  0
   -0.0262    0.4312    0.4124 C   0  0  0  0  0  0  0  0  0  0  0  0
    0.1469    1.8772    0.0452 C   0  0  0  0  0  0  0  0  0  0  0  0
    2.4909   -0.8291   -1.4579 H   0  0  0  0  0  0  0  0  0  0  0  0
    3.0849   -0.6417    0.2009 H   0  0  0  0  0  0  0  0  0  0  0  0
    2.4779    0.7673   -0.6880 H   0  0  0  0  0  0  0  0  0  0  0  0
    0.9463   -1.5231    0.7216 H   0  0  0  0  0  0  0  0  0  0  0  0
   -0.1572   -0.0484   -1.8075 H   0  0  0  0  0  0  0  0  0  0  0  0
   -2.3602   -0.7163   -1.1006 H   0  0  0  0  0  0  0  0  0  0  0  0
   -1.5444   -2.2361   -0.6204 H   0  0  0  0  0  0  0  0  0  0  0  0
   -2.7790   -1.1985    1.4514 H   0  0  0  0  0  0  0  0  0  0  0  0
   -1.0958    0.5460    2.4014 H   0  0  0  0  0  0  0  0  0  0  0  0
    0.3646    2.5318    0.8991 H   0  0  0  0  0  0  0  0  0  0  0  0
    0.8801    2.0345   -0.7459 H   0  0  0  0  0  0  0  0  0  0  0  0
   -0.8450    2.2129   -0.3793 H   0  0  0  0  0  0  0  0  0  0  0  0
  1  2  1  0
  2  3  1  0
  3  4  1  0
  4  5  1  0
  5  6  2  0
  6  7  1  0
  7  8  1  0
  7  2  1  0
  7  3  1  0
  1  9  1  0
  1 10  1  0
  1 11  1  0
  2 12  1  0
  3 13  1  0
  4 14  1  0
  4 15  1  0
  5 16  1  0
  6 17  1  0
  8 18  1  0
  8 19  1  0
  8 20  1  0
M  END
