
     RDKit          3D

 21 22  0  0  0  0  0  0  0  0999 V2000
   -1.5154    1.6012    0.2564 C   0  0  0  0  0  0  0  0  0  0  0  0
   -0.9680    0.2385    0.6265 C   0  0  0  0  0  0  0  0  0  0  0  0
   -1.9703   -0.8407    0.2146 C   0  0  0  0  0  0  0  0  0  0  0  0
   -0.9533   -1.4147   -0.7498 C   0  0  0  0  0  0  0  0  0  0  0  0
    0.0096   -0.3611   -0.2983 C   0  0  0  0  0  0  0  0  0  0  0  0
    0.7100    0.3707   -1.2267 O   0  0  0  0  0  0  0  0  0  0  0  0
    1.3579   -0.5457   -0.2490 C   0  0  0  0  0  0  0  0  0  0  0  0
    2.3525    0.2832    0.5568 C   0  0  0  0  0  0  0  0  0  0  0  0
    3.2656    0.7938   -0.3964 O   0  0  0  0  0  0  0  0  0  0  0  0
   -2.4964    1.5334   -0.2692 H   0  0  0  0  0  0  0  0  0  0  0  0
   -0.8427    2.1498   -0.4371 H   0  0  0  0  0  0  0  0  0  0  0  0
   -1.6883    2.2377    1.1465 H   0  0  0  0  0  0  0  0  0  0  0  0
   -0.8003    0.1764    1.6996 H   0  0  0  0  0  0  0  0  0  0  0  0
   -2.8718   -0.4565   -0.2927 H   0  0  0  0  0  0  0  0  0  0  0  0
   -2.2236   -1.5634    0.9913 H   0  0  0  0  0  0  0  0  0  0  0  0
   -1.2504   -1.2268   -1.8100 H   0  0  0  0  0  0  0  0  0  0  0  0
   -0.6671   -2.4571   -0.5430 H   0  0  0  0  0  0  0  0  0  0  0  0
    1.8732   -1.3731   -0.7892 H   0  0  0  0  0  0  0  0  0  0  0  0
    2.9304   -0.3711    1.2317 H   0  0  0  0  0  0  0  0  0  0  0  0
    1.8700    1.1260    1.0592 H   0  0  0  0  0  0  0  0  0  0  0  0
    3.8784    0.0995   -0.7211 H   0  0  0  0  0  0  0  0  0  0  0  0
  1  2  1  0
  2  3  1  0
  3  4  1  0
  4  5  1  0
  5  6  1  0
  6  7  1  0
  7  8  1  0
  8  9  1  0
  5  2  1  0
  7  5  1  0
  1 10  1  0
  1 11  1  0
  1 12  1  0
  2 13  1  0
  3 14  1  0
  3 15  1  0
  4 16  1  0
  4 17  1  0
  7 18  1  0
  8 19  1  0
  8 20  1  0
  9 21  1  0
M  END
