
     RDKit          3D

 23 24  0  0  0  0  0  0  0  0999 V2000
    1.8771   -0.0034    0.7103 C   0  0  0  0  0  0  0  0  0  0  0  0
    0.9636    0.3131   -0.4553 C   0  0  0  0  0  0  0  0  0  0  0  0
    0.5787   -0.9943   -1.0924 C   0  0  0  0  0  0  0  0  0  0  0  0
   -0.4425   -1.6557   -0.2068 C   0  0  0  0  0  0  0  0  0  0  0  0
   -1.6816   -0.8166   -0.2592 C   0  0  0  0  0  0  0  0  0  0  0  0
   -1.4812    0.6099    0.0783 C   0  0  0  0  0  0  0  0  0  0  0  0
   -0.7370    1.0518    1.2864 C   0  0  0  0  0  0  0  0  0  0  0  0
   -0.1690    1.1872   -0.0912 C   0  0  0  0  0  0  0  0  0  0  0  0
   -0.1310    2.5216   -0.5650 O   0  0  0  0  0  0  0  0  0  0  0  0
    2.9320    0.2826    0.5184 H   0  0  0  0  0  0  0  0  0  0  0  0
    1.5764    0.5239    1.6347 H   0  0  0  0  0  0  0  0  0  0  0  0
    1.9051   -1.1002    0.9343 H   0  0  0  0  0  0  0  0  0  0  0  0
    1.6066    0.8439   -1.2158 H   0  0  0  0  0  0  0  0  0  0  0  0
    0.0983   -0.8099   -2.0749 H   0  0  0  0  0  0  0  0  0  0  0  0
    1.5059   -1.5973   -1.2133 H   0  0  0  0  0  0  0  0  0  0  0  0
   -0.0960   -1.7988    0.8280 H   0  0  0  0  0  0  0  0  0  0  0  0
   -0.7073   -2.6497   -0.6682 H   0  0  0  0  0  0  0  0  0  0  0  0
   -2.4979   -1.2524    0.3613 H   0  0  0  0  0  0  0  0  0  0  0  0
   -2.0577   -0.8674   -1.3218 H   0  0  0  0  0  0  0  0  0  0  0  0
   -2.3836    1.2444   -0.1513 H   0  0  0  0  0  0  0  0  0  0  0  0
   -0.4210    0.2288    1.9567 H   0  0  0  0  0  0  0  0  0  0  0  0
   -1.0306    1.9685    1.8346 H   0  0  0  0  0  0  0  0  0  0  0  0
    0.7926    2.7699   -0.8278 H   0  0  0  0  0  0  0  0  0  0  0  0
  1  2  1  0
  2  3  1  0
  3  4  1  0
  4  5  1  0
  5  6  1  0
  6  7  1  0
  7  8  1  0
  8  9  1  0
  8  2  1  0
  8  6  1  0
  1 10  1  0
  1 11  1  0
  1 12  1  0
  2 13  1  0
  3 14  1  0
  3 15  1  0
  4 16  1  0
  4 17  1  0
  5 18  1  0
  5 19  1  0
  6 20  1  0
  7 21  1  0
  7 22  1  0
  9 23  1  0
M  END
