
     RDKit          3D

 21 22  0  0  0  0  0  0  0  0999 V2000
    2.1890    0.4565    1.1012 C   0  0  0  0  0  0  0  0  0  0  0  0
    1.5945    0.4860   -0.2891 C   0  0  0  0  0  0  0  0  0  0  0  0
    1.2438   -0.9123   -0.8016 C   0  0  0  0  0  0  0  0  0  0  0  0
    0.2265    0.0940   -0.5654 C   0  0  0  0  0  0  0  0  0  0  0  0
   -0.5937    0.6354   -1.5047 O   0  0  0  0  0  0  0  0  0  0  0  0
   -1.3686    1.1603   -0.4690 C   0  0  0  0  0  0  0  0  0  0  0  0
   -0.8312    0.0801    0.4541 C   0  0  0  0  0  0  0  0  0  0  0  0
   -1.7247   -1.1416    0.5070 C   0  0  0  0  0  0  0  0  0  0  0  0
   -2.6445   -0.9411    1.5355 O   0  0  0  0  0  0  0  0  0  0  0  0
    1.5205   -0.1094    1.7614 H   0  0  0  0  0  0  0  0  0  0  0  0
    2.3832    1.4473    1.5136 H   0  0  0  0  0  0  0  0  0  0  0  0
    3.1936   -0.0441    1.0008 H   0  0  0  0  0  0  0  0  0  0  0  0
    2.0770    1.1905   -1.0050 H   0  0  0  0  0  0  0  0  0  0  0  0
    1.3197   -1.7672   -0.1355 H   0  0  0  0  0  0  0  0  0  0  0  0
    1.5531   -1.0893   -1.8533 H   0  0  0  0  0  0  0  0  0  0  0  0
   -2.4596    1.1228   -0.6459 H   0  0  0  0  0  0  0  0  0  0  0  0
   -0.9617    2.1689   -0.2227 H   0  0  0  0  0  0  0  0  0  0  0  0
   -0.6267    0.5193    1.4406 H   0  0  0  0  0  0  0  0  0  0  0  0
   -2.2110   -1.3393   -0.4647 H   0  0  0  0  0  0  0  0  0  0  0  0
   -1.1123   -2.0355    0.8127 H   0  0  0  0  0  0  0  0  0  0  0  0
   -2.7667    0.0186    1.6648 H   0  0  0  0  0  0  0  0  0  0  0  0
  1  2  1  0
  2  3  1  0
  3  4  1  0
  4  5  1  0
  5  6  1  0
  6  7  1  0
  7  8  1  0
  8  9  1  0
  4  2  1  0
  7  4  1  0
  1 10  1  0
  1 11  1  0
  1 12  1  0
  2 13  1  0
  3 14  1  0
  3 15  1  0
  6 16  1  0
  6 17  1  0
  7 18  1  0
  8 19  1  0
  8 20  1  0
  9 21  1  0
M  END
