
     RDKit          3D

 19 21  0  0  0  0  0  0  0  0999 V2000
   -2.1004   -0.6824    0.0760 C   0  0  0  0  0  0  0  0  0  0  0  0
   -0.9353   -0.0789   -0.6420 C   0  0  0  0  0  0  0  0  0  0  0  0
   -0.4701    1.1779    0.0845 C   0  0  0  0  0  0  0  0  0  0  0  0
    0.9215    1.3269   -0.4938 C   0  0  0  0  0  0  0  0  0  0  0  0
    1.4418   -0.0800   -0.1495 C   0  0  0  0  0  0  0  0  0  0  0  0
    2.7311   -0.4062   -0.3764 O   0  0  0  0  0  0  0  0  0  0  0  0
    0.6616   -0.4120    1.0408 C   0  0  0  0  0  0  0  0  0  0  0  0
   -0.2068    0.6593    1.3300 O   0  0  0  0  0  0  0  0  0  0  0  0
    0.2842   -0.9492   -0.3004 C   0  0  0  0  0  0  0  0  0  0  0  0
   -2.2793   -1.7176   -0.3237 H   0  0  0  0  0  0  0  0  0  0  0  0
   -2.9977   -0.0666    0.1093 H   0  0  0  0  0  0  0  0  0  0  0  0
   -1.7652   -0.8600    1.1397 H   0  0  0  0  0  0  0  0  0  0  0  0
   -1.0622    0.0606   -1.7093 H   0  0  0  0  0  0  0  0  0  0  0  0
   -1.1100    2.0197    0.0082 H   0  0  0  0  0  0  0  0  0  0  0  0
    1.4456    2.0983    0.0804 H   0  0  0  0  0  0  0  0  0  0  0  0
    0.9338    1.5098   -1.5689 H   0  0  0  0  0  0  0  0  0  0  0  0
    3.2990   -0.4721    0.4354 H   0  0  0  0  0  0  0  0  0  0  0  0
    0.9256   -1.1291    1.8029 H   0  0  0  0  0  0  0  0  0  0  0  0
    0.2829   -1.9984   -0.5433 H   0  0  0  0  0  0  0  0  0  0  0  0
  1  2  1  0
  2  3  1  0
  3  4  1  0
  4  5  1  0
  5  6  1  0
  5  7  1  0
  7  8  1  0
  7  9  1  0
  9  2  1  0
  8  3  1  0
  9  5  1  0
  1 10  1  0
  1 11  1  0
  1 12  1  0
  2 13  1  0
  3 14  1  0
  4 15  1  0
  4 16  1  0
  6 17  1  0
  7 18  1  0
  9 19  1  0
M  END
