
     RDKit          3D

 21 22  0  0  0  0  0  0  0  0999 V2000
    2.3258   -0.1374    0.1424 C   0  0  0  0  0  0  0  0  0  0  0  0
    0.9234    0.2480   -0.2767 C   0  0  0  0  0  0  0  0  0  0  0  0
    0.6198    1.6587   -0.0754 C   0  0  0  0  0  0  0  0  0  0  0  0
   -0.6186    1.7580    0.3742 C   0  0  0  0  0  0  0  0  0  0  0  0
   -1.2499    0.4171    0.5136 C   0  0  0  0  0  0  0  0  0  0  0  0
   -1.8676   -0.1023   -0.7486 C   0  0  0  0  0  0  0  0  0  0  0  0
   -1.0148   -1.0573   -1.2995 O   0  0  0  0  0  0  0  0  0  0  0  0
   -0.5322   -1.6999   -0.1343 C   0  0  0  0  0  0  0  0  0  0  0  0
   -0.0222   -0.4743    0.6133 C   0  0  0  0  0  0  0  0  0  0  0  0
    2.3863   -1.2453    0.0344 H   0  0  0  0  0  0  0  0  0  0  0  0
    2.4429    0.0743    1.2162 H   0  0  0  0  0  0  0  0  0  0  0  0
    3.1039    0.2921   -0.4960 H   0  0  0  0  0  0  0  0  0  0  0  0
    0.7831   -0.0891   -1.3411 H   0  0  0  0  0  0  0  0  0  0  0  0
    1.3178    2.4990   -0.2700 H   0  0  0  0  0  0  0  0  0  0  0  0
   -1.0973    2.7076    0.6067 H   0  0  0  0  0  0  0  0  0  0  0  0
   -1.9004    0.3384    1.4007 H   0  0  0  0  0  0  0  0  0  0  0  0
   -2.1319    0.6980   -1.4677 H   0  0  0  0  0  0  0  0  0  0  0  0
   -2.7911   -0.6746   -0.4385 H   0  0  0  0  0  0  0  0  0  0  0  0
   -1.3374   -2.2171    0.3832 H   0  0  0  0  0  0  0  0  0  0  0  0
    0.3563   -2.3196   -0.3594 H   0  0  0  0  0  0  0  0  0  0  0  0
    0.3044   -0.6742    1.6224 H   0  0  0  0  0  0  0  0  0  0  0  0
  1  2  1  0
  2  3  1  0
  3  4  2  0
  4  5  1  0
  5  6  1  0
  6  7  1  0
  7  8  1  0
  8  9  1  0
  9  2  1  0
  9  5  1  0
  1 10  1  0
  1 11  1  0
  1 12  1  0
  2 13  1  0
  3 14  1  0
  4 15  1  0
  5 16  1  0
  6 17  1  0
  6 18  1  0
  8 19  1  0
  8 20  1  0
  9 21  1  0
M  END
