
     RDKit          3D

 21 21  0  0  0  0  0  0  0  0999 V2000
    2.3506    0.0596    0.1827 C   0  0  0  0  0  0  0  0  0  0  0  0
    0.8879    0.0959    0.5257 C   0  0  0  0  0  0  0  0  0  0  0  0
   -0.0621   -0.8693   -0.0815 C   0  0  0  0  0  0  0  0  0  0  0  0
   -1.2677   -1.3406    0.6631 C   0  0  0  0  0  0  0  0  0  0  0  0
    0.5431   -1.8604   -0.8630 O   0  0  0  0  0  0  0  0  0  0  0  0
   -0.0454    0.5061   -0.6261 C   0  0  0  0  0  0  0  0  0  0  0  0
    0.5177    0.6767   -1.8851 O   0  0  0  0  0  0  0  0  0  0  0  0
   -1.0798    1.5294   -0.2399 C   0  0  0  0  0  0  0  0  0  0  0  0
   -1.5949    1.2913    1.0306 O   0  0  0  0  0  0  0  0  0  0  0  0
    2.9044   -0.6949    0.7962 H   0  0  0  0  0  0  0  0  0  0  0  0
    2.7718    1.0594    0.4890 H   0  0  0  0  0  0  0  0  0  0  0  0
    2.5113   -0.1327   -0.8967 H   0  0  0  0  0  0  0  0  0  0  0  0
    0.6357    0.4598    1.5360 H   0  0  0  0  0  0  0  0  0  0  0  0
   -1.3440   -0.9360    1.6901 H   0  0  0  0  0  0  0  0  0  0  0  0
   -1.2572   -2.4440    0.7679 H   0  0  0  0  0  0  0  0  0  0  0  0
   -2.2247   -1.0976    0.1146 H   0  0  0  0  0  0  0  0  0  0  0  0
   -0.1192   -2.5585   -1.0936 H   0  0  0  0  0  0  0  0  0  0  0  0
    0.0800    0.0487   -2.5040 H   0  0  0  0  0  0  0  0  0  0  0  0
   -1.9398    1.5622   -0.9318 H   0  0  0  0  0  0  0  0  0  0  0  0
   -0.6033    2.5336   -0.2433 H   0  0  0  0  0  0  0  0  0  0  0  0
   -1.6646    2.1113    1.5693 H   0  0  0  0  0  0  0  0  0  0  0  0
  1  2  1  0
  2  3  1  0
  3  4  1  0
  3  5  1  0
  3  6  1  0
  6  7  1  0
  6  8  1  0
  8  9  1  0
  6  2  1  0
  1 10  1  0
  1 11  1  0
  1 12  1  0
  2 13  1  0
  4 14  1  0
  4 15  1  0
  4 16  1  0
  5 17  1  0
  7 18  1  0
  8 19  1  0
  8 20  1  0
  9 21  1  0
M  END
