
     RDKit          3D

 21 23  0  0  0  0  0  0  0  0999 V2000
   -1.2696    1.2352   -0.8372 C   0  0  0  0  0  0  0  0  0  0  0  0
   -0.7439    0.5981    0.3824 C   0  0  0  0  0  0  0  0  0  0  0  0
   -1.5105   -0.5427    0.9286 C   0  0  0  0  0  0  0  0  0  0  0  0
   -2.2286   -1.4988    0.4104 O   0  0  0  0  0  0  0  0  0  0  0  0
   -1.0818   -1.5371   -0.1998 C   0  0  0  0  0  0  0  0  0  0  0  0
    0.3401   -1.5746    0.2554 C   0  0  0  0  0  0  0  0  0  0  0  0
    0.6235   -0.0636    0.1850 C   0  0  0  0  0  0  0  0  0  0  0  0
    1.8338    0.5064    0.7442 C   0  0  0  0  0  0  0  0  0  0  0  0
    1.5958    0.4679   -0.7614 C   0  0  0  0  0  0  0  0  0  0  0  0
   -2.3630    1.2070   -0.8627 H   0  0  0  0  0  0  0  0  0  0  0  0
   -0.7900    0.8329   -1.7658 H   0  0  0  0  0  0  0  0  0  0  0  0
   -0.9691    2.3243   -0.8261 H   0  0  0  0  0  0  0  0  0  0  0  0
   -0.5849    1.3674    1.1787 H   0  0  0  0  0  0  0  0  0  0  0  0
   -1.1321   -0.8042    1.9676 H   0  0  0  0  0  0  0  0  0  0  0  0
   -1.1278   -1.1117   -1.2508 H   0  0  0  0  0  0  0  0  0  0  0  0
    0.9964   -2.0357   -0.4949 H   0  0  0  0  0  0  0  0  0  0  0  0
    0.4931   -1.9678    1.2576 H   0  0  0  0  0  0  0  0  0  0  0  0
    1.7432    1.5462    1.1738 H   0  0  0  0  0  0  0  0  0  0  0  0
    2.6631   -0.0823    1.1479 H   0  0  0  0  0  0  0  0  0  0  0  0
    2.1778   -0.2824   -1.3520 H   0  0  0  0  0  0  0  0  0  0  0  0
    1.3344    1.4154   -1.2809 H   0  0  0  0  0  0  0  0  0  0  0  0
  1  2  1  0
  2  3  1  0
  3  4  1  0
  4  5  1  0
  5  6  1  0
  6  7  1  0
  7  8  1  0
  8  9  1  0
  7  2  1  0
  5  3  1  0
  9  7  1  0
  1 10  1  0
  1 11  1  0
  1 12  1  0
  2 13  1  0
  3 14  1  0
  5 15  1  0
  6 16  1  0
  6 17  1  0
  8 18  1  0
  8 19  1  0
  9 20  1  0
  9 21  1  0
M  END
