
     RDKit          3D

 23 24  0  0  0  0  0  0  0  0999 V2000
    1.8988   -0.7142    0.5342 C   0  0  0  0  0  0  0  0  0  0  0  0
    0.9339    0.3638    0.1825 C   0  0  0  0  0  0  0  0  0  0  0  0
   -0.2299    0.4492    1.1605 C   0  0  0  0  0  0  0  0  0  0  0  0
   -0.8993   -0.8715    0.9730 C   0  0  0  0  0  0  0  0  0  0  0  0
   -0.6880   -1.1780   -0.5095 C   0  0  0  0  0  0  0  0  0  0  0  0
    0.0789   -0.0033   -1.0377 C   0  0  0  0  0  0  0  0  0  0  0  0
    0.7807   -0.1998   -2.1648 O   0  0  0  0  0  0  0  0  0  0  0  0
   -0.8628    1.1843   -1.0528 C   0  0  0  0  0  0  0  0  0  0  0  0
   -1.0809    1.4910    0.4366 C   0  0  0  0  0  0  0  0  0  0  0  0
    2.7163   -0.7086   -0.1897 H   0  0  0  0  0  0  0  0  0  0  0  0
    1.4205   -1.7134    0.4800 H   0  0  0  0  0  0  0  0  0  0  0  0
    2.3231   -0.4936    1.5244 H   0  0  0  0  0  0  0  0  0  0  0  0
    1.4109    1.3227   -0.0082 H   0  0  0  0  0  0  0  0  0  0  0  0
    0.0436    0.7194    2.1586 H   0  0  0  0  0  0  0  0  0  0  0  0
   -1.9857   -0.7305    1.2032 H   0  0  0  0  0  0  0  0  0  0  0  0
   -0.5423   -1.6711    1.6234 H   0  0  0  0  0  0  0  0  0  0  0  0
   -0.2145   -2.1459   -0.6602 H   0  0  0  0  0  0  0  0  0  0  0  0
   -1.6967   -1.1620   -0.9910 H   0  0  0  0  0  0  0  0  0  0  0  0
    1.5942   -0.7306   -1.9674 H   0  0  0  0  0  0  0  0  0  0  0  0
   -0.2911    2.0561   -1.4579 H   0  0  0  0  0  0  0  0  0  0  0  0
   -1.8017    0.9921   -1.5760 H   0  0  0  0  0  0  0  0  0  0  0  0
   -2.1278    1.2394    0.6417 H   0  0  0  0  0  0  0  0  0  0  0  0
   -0.7801    2.5047    0.6972 H   0  0  0  0  0  0  0  0  0  0  0  0
  1  2  1  0
  2  3  1  0
  3  4  1  0
  4  5  1  0
  5  6  1  0
  6  7  1  0
  6  8  1  0
  8  9  1  0
  6  2  1  0
  9  3  1  0
  1 10  1  0
  1 11  1  0
  1 12  1  0
  2 13  1  0
  3 14  1  0
  4 15  1  0
  4 16  1  0
  5 17  1  0
  5 18  1  0
  7 19  1  0
  8 20  1  0
  8 21  1  0
  9 22  1  0
  9 23  1  0
M  END
