
     RDKit          3D

 20 20  0  0  0  0  0  0  0  0999 V2000
    2.5674   -0.1054   -0.0848 C   0  0  0  0  0  0  0  0  0  0  0  0
    1.1643   -0.5649   -0.2983 C   0  0  0  0  0  0  0  0  0  0  0  0
    0.2865   -0.0380    0.8458 C   0  0  0  0  0  0  0  0  0  0  0  0
   -0.6796   -0.0011   -0.3197 C   0  0  0  0  0  0  0  0  0  0  0  0
   -1.4025   -1.3046   -0.4288 C   0  0  0  0  0  0  0  0  0  0  0  0
   -1.6312    1.1740   -0.2598 C   0  0  0  0  0  0  0  0  0  0  0  0
   -0.8804    2.2716    0.1762 O   0  0  0  0  0  0  0  0  0  0  0  0
    0.3961    0.1760   -1.1869 O   0  0  0  0  0  0  0  0  0  0  0  0
    2.6974    0.9854   -0.1622 H   0  0  0  0  0  0  0  0  0  0  0  0
    2.8496   -0.3791    0.9649 H   0  0  0  0  0  0  0  0  0  0  0  0
    3.2985   -0.6561   -0.7270 H   0  0  0  0  0  0  0  0  0  0  0  0
    1.0932   -1.6493   -0.4408 H   0  0  0  0  0  0  0  0  0  0  0  0
    0.6083    0.9448    1.2200 H   0  0  0  0  0  0  0  0  0  0  0  0
    0.1410   -0.8347    1.5728 H   0  0  0  0  0  0  0  0  0  0  0  0
   -0.8631   -2.0682   -1.0168 H   0  0  0  0  0  0  0  0  0  0  0  0
   -2.4169   -1.1375   -0.8505 H   0  0  0  0  0  0  0  0  0  0  0  0
   -1.5555   -1.6837    0.6229 H   0  0  0  0  0  0  0  0  0  0  0  0
   -2.1255    1.3694   -1.2157 H   0  0  0  0  0  0  0  0  0  0  0  0
   -2.4197    0.9843    0.4879 H   0  0  0  0  0  0  0  0  0  0  0  0
   -1.1281    2.5172    1.1006 H   0  0  0  0  0  0  0  0  0  0  0  0
  1  2  1  0
  2  3  1  0
  3  4  1  0
  4  5  1  0
  4  6  1  0
  6  7  1  0
  4  8  1  0
  8  2  1  0
  1  9  1  0
  1 10  1  0
  1 11  1  0
  2 12  1  0
  3 13  1  0
  3 14  1  0
  5 15  1  0
  5 16  1  0
  5 17  1  0
  6 18  1  0
  6 19  1  0
  7 20  1  0
M  END
