
     RDKit          3D

 23 25  0  0  0  0  0  0  0  0999 V2000
    1.6267    0.8257   -1.4218 C   0  0  0  0  0  0  0  0  0  0  0  0
    1.3481   -0.2230   -0.3931 C   0  0  0  0  0  0  0  0  0  0  0  0
    0.0237   -0.8612   -0.2907 C   0  0  0  0  0  0  0  0  0  0  0  0
   -1.1502   -0.2954   -1.0305 C   0  0  0  0  0  0  0  0  0  0  0  0
   -1.5937    0.9347   -0.2888 C   0  0  0  0  0  0  0  0  0  0  0  0
   -0.4950    1.2833    0.6735 C   0  0  0  0  0  0  0  0  0  0  0  0
    0.4571    0.1405    0.7340 C   0  0  0  0  0  0  0  0  0  0  0  0
    0.3654   -0.8864    1.8381 C   0  0  0  0  0  0  0  0  0  0  0  0
   -0.1942   -1.8544    0.8114 C   0  0  0  0  0  0  0  0  0  0  0  0
    0.7785    1.5211   -1.5620 H   0  0  0  0  0  0  0  0  0  0  0  0
    2.4669    1.4624   -1.0277 H   0  0  0  0  0  0  0  0  0  0  0  0
    1.8971    0.4177   -2.4196 H   0  0  0  0  0  0  0  0  0  0  0  0
    2.2300   -0.8405   -0.1091 H   0  0  0  0  0  0  0  0  0  0  0  0
   -1.9337   -1.0921   -1.0581 H   0  0  0  0  0  0  0  0  0  0  0  0
   -0.8757   -0.0529   -2.0902 H   0  0  0  0  0  0  0  0  0  0  0  0
   -1.7331    1.7713   -1.0162 H   0  0  0  0  0  0  0  0  0  0  0  0
   -2.5579    0.7183    0.1799 H   0  0  0  0  0  0  0  0  0  0  0  0
    0.0823    2.1748    0.2928 H   0  0  0  0  0  0  0  0  0  0  0  0
   -0.9017    1.4803    1.6748 H   0  0  0  0  0  0  0  0  0  0  0  0
   -0.3149   -0.5702    2.6271 H   0  0  0  0  0  0  0  0  0  0  0  0
    1.3645   -1.2466    2.1572 H   0  0  0  0  0  0  0  0  0  0  0  0
    0.3839   -2.7819    0.6699 H   0  0  0  0  0  0  0  0  0  0  0  0
   -1.2741   -2.0255    1.0491 H   0  0  0  0  0  0  0  0  0  0  0  0
  1  2  1  0
  2  3  1  0
  3  4  1  0
  4  5  1  0
  5  6  1  0
  6  7  1  0
  7  8  1  0
  8  9  1  0
  7  2  1  0
  7  3  1  0
  9  3  1  0
  1 10  1  0
  1 11  1  0
  1 12  1  0
  2 13  1  0
  4 14  1  0
  4 15  1  0
  5 16  1  0
  5 17  1  0
  6 18  1  0
  6 19  1  0
  8 20  1  0
  8 21  1  0
  9 22  1  0
  9 23  1  0
M  END
