
     RDKit          3D

 21 21  0  0  0  0  0  0  0  0999 V2000
   -2.4983    1.1873   -0.0342 C   0  0  0  0  0  0  0  0  0  0  0  0
   -1.3777    0.4068   -0.6696 C   0  0  0  0  0  0  0  0  0  0  0  0
   -0.0800    0.9616   -0.2245 C   0  0  0  0  0  0  0  0  0  0  0  0
    0.7426    0.0546    0.2320 C   0  0  0  0  0  0  0  0  0  0  0  0
    2.1317    0.2404    0.7668 C   0  0  0  0  0  0  0  0  0  0  0  0
    3.1250   -0.5016   -0.0129 C   0  0  0  0  0  0  0  0  0  0  0  0
    3.8380    0.0019   -0.8905 O   0  0  0  0  0  0  0  0  0  0  0  0
    0.0978   -1.2654    0.1628 C   0  0  0  0  0  0  0  0  0  0  0  0
   -1.3050   -1.0268   -0.2981 C   0  0  0  0  0  0  0  0  0  0  0  0
   -2.9012    0.7193    0.8763 H   0  0  0  0  0  0  0  0  0  0  0  0
   -2.1033    2.1900    0.2497 H   0  0  0  0  0  0  0  0  0  0  0  0
   -3.3533    1.3765   -0.7250 H   0  0  0  0  0  0  0  0  0  0  0  0
   -1.4518    0.5774   -1.7806 H   0  0  0  0  0  0  0  0  0  0  0  0
    0.1335    2.0331   -0.2931 H   0  0  0  0  0  0  0  0  0  0  0  0
    2.1449   -0.0703    1.8508 H   0  0  0  0  0  0  0  0  0  0  0  0
    2.3385    1.3286    0.7173 H   0  0  0  0  0  0  0  0  0  0  0  0
    3.2691   -1.5642    0.1693 H   0  0  0  0  0  0  0  0  0  0  0  0
    0.6970   -1.9104   -0.5142 H   0  0  0  0  0  0  0  0  0  0  0  0
    0.0611   -1.7594    1.1724 H   0  0  0  0  0  0  0  0  0  0  0  0
   -2.0529   -1.3417    0.4541 H   0  0  0  0  0  0  0  0  0  0  0  0
   -1.4561   -1.6376   -1.2088 H   0  0  0  0  0  0  0  0  0  0  0  0
  1  2  1  0
  2  3  1  0
  3  4  2  0
  4  5  1  0
  5  6  1  0
  6  7  2  0
  4  8  1  0
  8  9  1  0
  9  2  1  0
  1 10  1  0
  1 11  1  0
  1 12  1  0
  2 13  1  0
  3 14  1  0
  5 15  1  0
  5 16  1  0
  6 17  1  0
  8 18  1  0
  8 19  1  0
  9 20  1  0
  9 21  1  0
M  END
