
     RDKit          3D

 21 21  0  0  0  0  0  0  0  0999 V2000
    2.6020    0.1236    0.3941 C   0  0  0  0  0  0  0  0  0  0  0  0
    1.3221    0.6042   -0.2017 C   0  0  0  0  0  0  0  0  0  0  0  0
    0.1201    0.3903    0.6800 C   0  0  0  0  0  0  0  0  0  0  0  0
   -0.9532   -0.0299   -0.2652 C   0  0  0  0  0  0  0  0  0  0  0  0
   -1.5571   -1.3879    0.1011 C   0  0  0  0  0  0  0  0  0  0  0  0
   -2.0906    0.9562   -0.3708 C   0  0  0  0  0  0  0  0  0  0  0  0
   -0.3623   -0.1352   -1.5583 O   0  0  0  0  0  0  0  0  0  0  0  0
    1.0226   -0.2585   -1.3895 C   0  0  0  0  0  0  0  0  0  0  0  0
    1.8356   -0.9409   -2.0800 O   0  0  0  0  0  0  0  0  0  0  0  0
    2.4234   -0.8698    0.8648 H   0  0  0  0  0  0  0  0  0  0  0  0
    3.3184   -0.0488   -0.4580 H   0  0  0  0  0  0  0  0  0  0  0  0
    3.0604    0.8579    1.0564 H   0  0  0  0  0  0  0  0  0  0  0  0
    1.3949    1.6784   -0.5153 H   0  0  0  0  0  0  0  0  0  0  0  0
    0.3589   -0.4883    1.3327 H   0  0  0  0  0  0  0  0  0  0  0  0
   -0.1270    1.2471    1.3148 H   0  0  0  0  0  0  0  0  0  0  0  0
   -0.9482   -1.8755    0.8812 H   0  0  0  0  0  0  0  0  0  0  0  0
   -2.6031   -1.2672    0.4738 H   0  0  0  0  0  0  0  0  0  0  0  0
   -1.5906   -2.0313   -0.8190 H   0  0  0  0  0  0  0  0  0  0  0  0
   -2.8145    0.5171   -1.1086 H   0  0  0  0  0  0  0  0  0  0  0  0
   -1.8005    1.9305   -0.7666 H   0  0  0  0  0  0  0  0  0  0  0  0
   -2.6113    1.0280    0.6194 H   0  0  0  0  0  0  0  0  0  0  0  0
  1  2  1  0
  2  3  1  0
  3  4  1  0
  4  5  1  0
  4  6  1  0
  4  7  1  0
  7  8  1  0
  8  9  2  0
  8  2  1  0
  1 10  1  0
  1 11  1  0
  1 12  1  0
  2 13  1  0
  3 14  1  0
  3 15  1  0
  5 16  1  0
  5 17  1  0
  5 18  1  0
  6 19  1  0
  6 20  1  0
  6 21  1  0
M  END
