
     RDKit          3D

 19 19  0  0  0  0  0  0  0  0999 V2000
    1.9396    0.6651   -0.1919 C   0  0  0  0  0  0  0  0  0  0  0  0
    0.7050   -0.0901    0.2413 C   0  0  0  0  0  0  0  0  0  0  0  0
    0.4445   -1.2746   -0.6056 C   0  0  0  0  0  0  0  0  0  0  0  0
   -0.7523   -1.8135   -0.5183 C   0  0  0  0  0  0  0  0  0  0  0  0
   -1.7264   -1.1910    0.4151 C   0  0  0  0  0  0  0  0  0  0  0  0
   -1.5474    0.1046    0.7344 O   0  0  0  0  0  0  0  0  0  0  0  0
   -0.5616    0.7565    0.0150 C   0  0  0  0  0  0  0  0  0  0  0  0
   -0.3720    2.1506    0.4059 C   0  0  0  0  0  0  0  0  0  0  0  0
    0.4754    2.8116   -0.1707 O   0  0  0  0  0  0  0  0  0  0  0  0
    2.1649    1.4001    0.6147 H   0  0  0  0  0  0  0  0  0  0  0  0
    2.7563   -0.1072   -0.2679 H   0  0  0  0  0  0  0  0  0  0  0  0
    1.7756    1.1387   -1.1576 H   0  0  0  0  0  0  0  0  0  0  0  0
    0.7383   -0.3600    1.3191 H   0  0  0  0  0  0  0  0  0  0  0  0
    1.2092   -1.6522   -1.2470 H   0  0  0  0  0  0  0  0  0  0  0  0
   -1.0370   -2.7016   -1.1166 H   0  0  0  0  0  0  0  0  0  0  0  0
   -2.7803   -1.3560    0.0418 H   0  0  0  0  0  0  0  0  0  0  0  0
   -1.6058   -1.7921    1.3695 H   0  0  0  0  0  0  0  0  0  0  0  0
   -0.8706    0.6921   -1.0693 H   0  0  0  0  0  0  0  0  0  0  0  0
   -0.9553    2.6189    1.1880 H   0  0  0  0  0  0  0  0  0  0  0  0
  1  2  1  0
  2  3  1  0
  3  4  2  0
  4  5  1  0
  5  6  1  0
  6  7  1  0
  7  8  1  0
  8  9  2  0
  7  2  1  0
  1 10  1  0
  1 11  1  0
  1 12  1  0
  2 13  1  0
  3 14  1  0
  4 15  1  0
  5 16  1  0
  5 17  1  0
  7 18  1  0
  8 19  1  0
M  END
