
     RDKit          3D

 21 22  0  0  0  0  0  0  0  0999 V2000
    2.5382    0.0111   -0.1845 C   0  0  0  0  0  0  0  0  0  0  0  0
    1.0721   -0.0493   -0.6464 C   0  0  0  0  0  0  0  0  0  0  0  0
    0.5109   -1.2876   -0.0890 C   0  0  0  0  0  0  0  0  0  0  0  0
   -0.7455   -1.6494    0.1431 C   0  0  0  0  0  0  0  0  0  0  0  0
   -1.9145   -0.7857   -0.1465 C   0  0  0  0  0  0  0  0  0  0  0  0
   -1.8489    0.5300    0.5607 C   0  0  0  0  0  0  0  0  0  0  0  0
   -0.7776    1.4569    0.2461 C   0  0  0  0  0  0  0  0  0  0  0  0
    0.3803    1.3338    1.2102 O   0  0  0  0  0  0  0  0  0  0  0  0
    0.4465    1.2188   -0.2726 C   0  0  0  0  0  0  0  0  0  0  0  0
    3.0709   -0.9140   -0.4808 H   0  0  0  0  0  0  0  0  0  0  0  0
    3.0419    0.9066   -0.5474 H   0  0  0  0  0  0  0  0  0  0  0  0
    2.4672    0.0405    0.9428 H   0  0  0  0  0  0  0  0  0  0  0  0
    1.1593   -0.0962   -1.7740 H   0  0  0  0  0  0  0  0  0  0  0  0
    1.2208   -2.0576    0.1889 H   0  0  0  0  0  0  0  0  0  0  0  0
   -0.9854   -2.6107    0.5629 H   0  0  0  0  0  0  0  0  0  0  0  0
   -2.8269   -1.3040    0.2104 H   0  0  0  0  0  0  0  0  0  0  0  0
   -2.0497   -0.6504   -1.2373 H   0  0  0  0  0  0  0  0  0  0  0  0
   -2.8773    0.9822    0.4080 H   0  0  0  0  0  0  0  0  0  0  0  0
   -1.8466    0.2935    1.6675 H   0  0  0  0  0  0  0  0  0  0  0  0
   -1.1011    2.5403    0.3881 H   0  0  0  0  0  0  0  0  0  0  0  0
    1.0653    2.0913   -0.6587 H   0  0  0  0  0  0  0  0  0  0  0  0
  1  2  1  0
  2  3  1  0
  3  4  2  0
  4  5  1  0
  5  6  1  0
  6  7  1  0
  7  8  1  0
  8  9  1  0
  9  2  1  0
  9  7  1  0
  1 10  1  0
  1 11  1  0
  1 12  1  0
  2 13  1  0
  3 14  1  0
  4 15  1  0
  5 16  1  0
  5 17  1  0
  6 18  1  0
  6 19  1  0
  7 20  1  0
  9 21  1  0
M  END
