
     RDKit          3D

 18 20  0  0  0  0  0  0  0  0999 V2000
   -0.8528    1.8292    0.0672 C   0  0  0  0  0  0  0  0  0  0  0  0
   -0.3904    0.5000    0.5544 C   0  0  0  0  0  0  0  0  0  0  0  0
   -1.0416   -0.6539   -0.1800 C   0  0  0  0  0  0  0  0  0  0  0  0
   -0.9065   -2.0578    0.0258 C   0  0  0  0  0  0  0  0  0  0  0  0
    0.2655   -1.3401    0.4122 C   0  0  0  0  0  0  0  0  0  0  0  0
    0.8380   -0.0700   -0.1370 C   0  0  0  0  0  0  0  0  0  0  0  0
    2.0679    0.4103   -0.3003 C   0  0  0  0  0  0  0  0  0  0  0  0
    1.1138    0.1483   -1.4389 O   0  0  0  0  0  0  0  0  0  0  0  0
   -0.6704    2.6196    0.8109 H   0  0  0  0  0  0  0  0  0  0  0  0
   -0.4720    2.0907   -0.9515 H   0  0  0  0  0  0  0  0  0  0  0  0
   -1.9744    1.7902   -0.0613 H   0  0  0  0  0  0  0  0  0  0  0  0
   -0.3012    0.3942    1.6335 H   0  0  0  0  0  0  0  0  0  0  0  0
   -0.9499   -0.3881   -1.2840 H   0  0  0  0  0  0  0  0  0  0  0  0
   -0.7676   -2.8001   -0.8181 H   0  0  0  0  0  0  0  0  0  0  0  0
   -1.6208   -2.5206    0.7716 H   0  0  0  0  0  0  0  0  0  0  0  0
    0.3440   -1.2475    1.5461 H   0  0  0  0  0  0  0  0  0  0  0  0
    2.3303    1.5038   -0.2538 H   0  0  0  0  0  0  0  0  0  0  0  0
    2.9879   -0.2082   -0.3964 H   0  0  0  0  0  0  0  0  0  0  0  0
  1  2  1  0
  2  3  1  0
  3  4  1  0
  4  5  1  0
  5  6  1  0
  6  7  1  0
  7  8  1  0
  6  2  1  0
  5  3  1  0
  8  6  1  0
  1  9  1  0
  1 10  1  0
  1 11  1  0
  2 12  1  0
  3 13  1  0
  4 14  1  0
  4 15  1  0
  5 16  1  0
  7 17  1  0
  7 18  1  0
M  END
