
     RDKit          3D

 21 21  0  0  0  0  0  0  0  0999 V2000
   -2.3342   -0.9665    0.0363 C   0  0  0  0  0  0  0  0  0  0  0  0
   -1.0906   -0.2364   -0.4797 C   0  0  0  0  0  0  0  0  0  0  0  0
   -1.1129    1.2157   -0.1418 C   0  0  0  0  0  0  0  0  0  0  0  0
    0.1554    1.6812    0.5617 C   0  0  0  0  0  0  0  0  0  0  0  0
    1.3611    1.0190   -0.0175 C   0  0  0  0  0  0  0  0  0  0  0  0
    2.4273    1.5860   -0.1738 O   0  0  0  0  0  0  0  0  0  0  0  0
    1.2054   -0.4155   -0.4120 C   0  0  0  0  0  0  0  0  0  0  0  0
    2.2783   -1.2919    0.1420 C   0  0  0  0  0  0  0  0  0  0  0  0
   -0.0082   -0.8381    0.1631 O   0  0  0  0  0  0  0  0  0  0  0  0
   -3.1174   -1.0368   -0.7407 H   0  0  0  0  0  0  0  0  0  0  0  0
   -2.0463   -2.0329    0.2690 H   0  0  0  0  0  0  0  0  0  0  0  0
   -2.6851   -0.5450    0.9891 H   0  0  0  0  0  0  0  0  0  0  0  0
   -1.0274   -0.4393   -1.5794 H   0  0  0  0  0  0  0  0  0  0  0  0
   -1.9563    1.4454    0.5312 H   0  0  0  0  0  0  0  0  0  0  0  0
   -1.1522    1.8155   -1.0955 H   0  0  0  0  0  0  0  0  0  0  0  0
    0.1334    1.4515    1.6388 H   0  0  0  0  0  0  0  0  0  0  0  0
    0.1953    2.7920    0.4504 H   0  0  0  0  0  0  0  0  0  0  0  0
    1.0734   -0.5193   -1.5151 H   0  0  0  0  0  0  0  0  0  0  0  0
    2.9910   -0.7795    0.8010 H   0  0  0  0  0  0  0  0  0  0  0  0
    2.8387   -1.7299   -0.7271 H   0  0  0  0  0  0  0  0  0  0  0  0
    1.8712   -2.1753    0.7141 H   0  0  0  0  0  0  0  0  0  0  0  0
  1  2  1  0
  2  3  1  0
  3  4  1  0
  4  5  1  0
  5  6  2  0
  5  7  1  0
  7  8  1  0
  7  9  1  0
  9  2  1  0
  1 10  1  0
  1 11  1  0
  1 12  1  0
  2 13  1  0
  3 14  1  0
  3 15  1  0
  4 16  1  0
  4 17  1  0
  7 18  1  0
  8 19  1  0
  8 20  1  0
  8 21  1  0
M  END
