
     RDKit          3D

 20 20  0  0  0  0  0  0  0  0999 V2000
    2.3628   -0.0904    0.8858 C   0  0  0  0  0  0  0  0  0  0  0  0
    1.4886    0.8263    0.0687 C   0  0  0  0  0  0  0  0  0  0  0  0
    1.1557    0.2628   -1.3082 C   0  0  0  0  0  0  0  0  0  0  0  0
    0.0867    0.5182   -0.2457 C   0  0  0  0  0  0  0  0  0  0  0  0
   -0.6092   -0.7065    0.2389 C   0  0  0  0  0  0  0  0  0  0  0  0
   -2.0221   -0.7544   -0.2357 C   0  0  0  0  0  0  0  0  0  0  0  0
   -2.8018    0.3759    0.2919 C   0  0  0  0  0  0  0  0  0  0  0  0
   -2.7776    1.4776   -0.1860 O   0  0  0  0  0  0  0  0  0  0  0  0
    1.8166   -0.9791    1.2534 H   0  0  0  0  0  0  0  0  0  0  0  0
    3.2080   -0.4046    0.2146 H   0  0  0  0  0  0  0  0  0  0  0  0
    2.8307    0.5032    1.6973 H   0  0  0  0  0  0  0  0  0  0  0  0
    1.8007    1.8843    0.0597 H   0  0  0  0  0  0  0  0  0  0  0  0
    1.4153   -0.7999   -1.5258 H   0  0  0  0  0  0  0  0  0  0  0  0
    1.2165    0.9127   -2.1904 H   0  0  0  0  0  0  0  0  0  0  0  0
   -0.5469    1.3807   -0.5099 H   0  0  0  0  0  0  0  0  0  0  0  0
   -0.5841   -0.6354    1.3701 H   0  0  0  0  0  0  0  0  0  0  0  0
   -0.0600   -1.6553   -0.0262 H   0  0  0  0  0  0  0  0  0  0  0  0
   -1.9991   -0.6298   -1.3661 H   0  0  0  0  0  0  0  0  0  0  0  0
   -2.5217   -1.7227   -0.0235 H   0  0  0  0  0  0  0  0  0  0  0  0
   -3.4589    0.2363    1.1724 H   0  0  0  0  0  0  0  0  0  0  0  0
  1  2  1  0
  2  3  1  0
  3  4  1  0
  4  5  1  0
  5  6  1  0
  6  7  1  0
  7  8  2  0
  4  2  1  0
  1  9  1  0
  1 10  1  0
  1 11  1  0
  2 12  1  0
  3 13  1  0
  3 14  1  0
  4 15  1  0
  5 16  1  0
  5 17  1  0
  6 18  1  0
  6 19  1  0
  7 20  1  0
M  END
