
     RDKit          3D

 19 19  0  0  0  0  0  0  0  0999 V2000
   -1.7427    0.2700    0.8860 C   0  0  0  0  0  0  0  0  0  0  0  0
   -1.0800    0.0633   -0.4843 C   0  0  0  0  0  0  0  0  0  0  0  0
   -0.2624    1.2108   -0.8350 C   0  0  0  0  0  0  0  0  0  0  0  0
    0.9858    1.5457   -0.5472 C   0  0  0  0  0  0  0  0  0  0  0  0
    1.9103    0.7677    0.2620 C   0  0  0  0  0  0  0  0  0  0  0  0
    1.8775   -0.5355    0.5836 C   0  0  0  0  0  0  0  0  0  0  0  0
    0.8310   -1.4397    0.1376 C   0  0  0  0  0  0  0  0  0  0  0  0
    1.0953   -2.6342    0.4326 O   0  0  0  0  0  0  0  0  0  0  0  0
   -0.4408   -1.2798   -0.5658 C   0  0  0  0  0  0  0  0  0  0  0  0
   -2.2344   -0.7158    1.1117 H   0  0  0  0  0  0  0  0  0  0  0  0
   -2.5775    1.0005    0.7948 H   0  0  0  0  0  0  0  0  0  0  0  0
   -1.0216    0.5125    1.6616 H   0  0  0  0  0  0  0  0  0  0  0  0
   -1.9514    0.0298   -1.1853 H   0  0  0  0  0  0  0  0  0  0  0  0
   -0.7335    1.9680   -1.4561 H   0  0  0  0  0  0  0  0  0  0  0  0
    1.3689    2.4915   -0.9481 H   0  0  0  0  0  0  0  0  0  0  0  0
    2.7721    1.3045    0.6839 H   0  0  0  0  0  0  0  0  0  0  0  0
    2.6658   -0.9376    1.2047 H   0  0  0  0  0  0  0  0  0  0  0  0
   -0.3062   -1.6109   -1.6173 H   0  0  0  0  0  0  0  0  0  0  0  0
   -1.1561   -2.0108   -0.1194 H   0  0  0  0  0  0  0  0  0  0  0  0
  1  2  1  0
  2  3  1  0
  3  4  2  0
  4  5  1  0
  5  6  2  0
  6  7  1  0
  7  8  2  0
  7  9  1  0
  9  2  1  0
  1 10  1  0
  1 11  1  0
  1 12  1  0
  2 13  1  0
  3 14  1  0
  4 15  1  0
  5 16  1  0
  6 17  1  0
  9 18  1  0
  9 19  1  0
M  END
