
     RDKit          3D

 23 24  0  0  0  0  0  0  0  0999 V2000
    2.7237    0.4126   -0.7260 C   0  0  0  0  0  0  0  0  0  0  0  0
    1.3148   -0.1438   -0.7699 C   0  0  0  0  0  0  0  0  0  0  0  0
    0.3490    0.5780    0.0842 C   0  0  0  0  0  0  0  0  0  0  0  0
   -1.0653    0.0848    0.0278 C   0  0  0  0  0  0  0  0  0  0  0  0
   -1.9905    0.9813    0.7842 C   0  0  0  0  0  0  0  0  0  0  0  0
   -1.6014   -0.2311   -1.3448 C   0  0  0  0  0  0  0  0  0  0  0  0
   -0.5905   -1.1477    0.7150 C   0  0  0  0  0  0  0  0  0  0  0  0
    0.8335   -0.8605    0.4153 C   0  0  0  0  0  0  0  0  0  0  0  0
    1.7222   -1.0178    1.4501 O   0  0  0  0  0  0  0  0  0  0  0  0
    3.4534   -0.3818   -0.9561 H   0  0  0  0  0  0  0  0  0  0  0  0
    2.8208    1.2994   -1.3979 H   0  0  0  0  0  0  0  0  0  0  0  0
    2.9652    0.7843    0.3116 H   0  0  0  0  0  0  0  0  0  0  0  0
    0.9909   -0.3961   -1.8022 H   0  0  0  0  0  0  0  0  0  0  0  0
    0.6402    1.2964    0.8495 H   0  0  0  0  0  0  0  0  0  0  0  0
   -2.9725    0.4915    0.9743 H   0  0  0  0  0  0  0  0  0  0  0  0
   -2.2271    1.8459    0.1072 H   0  0  0  0  0  0  0  0  0  0  0  0
   -1.5431    1.3765    1.7211 H   0  0  0  0  0  0  0  0  0  0  0  0
   -0.9611   -0.9965   -1.7958 H   0  0  0  0  0  0  0  0  0  0  0  0
   -2.6010   -0.7247   -1.1829 H   0  0  0  0  0  0  0  0  0  0  0  0
   -1.7852    0.6544   -1.9418 H   0  0  0  0  0  0  0  0  0  0  0  0
   -0.9989   -2.1152    0.3646 H   0  0  0  0  0  0  0  0  0  0  0  0
   -0.8066   -1.0707    1.8207 H   0  0  0  0  0  0  0  0  0  0  0  0
    1.3295   -0.7190    2.2918 H   0  0  0  0  0  0  0  0  0  0  0  0
  1  2  1  0
  2  3  1  0
  3  4  1  0
  4  5  1  0
  4  6  1  0
  4  7  1  0
  7  8  1  0
  8  9  1  0
  8  2  1  0
  8  3  1  0
  1 10  1  0
  1 11  1  0
  1 12  1  0
  2 13  1  0
  3 14  1  0
  5 15  1  0
  5 16  1  0
  5 17  1  0
  6 18  1  0
  6 19  1  0
  6 20  1  0
  7 21  1  0
  7 22  1  0
  9 23  1  0
M  END
