
     RDKit          3D

 21 22  0  0  0  0  0  0  0  0999 V2000
   -2.2254    0.6910    0.2788 C   0  0  0  0  0  0  0  0  0  0  0  0
   -1.1606    0.1653   -0.6969 C   0  0  0  0  0  0  0  0  0  0  0  0
   -0.8050   -1.2041   -0.2389 C   0  0  0  0  0  0  0  0  0  0  0  0
    0.0015   -1.2749    0.8591 O   0  0  0  0  0  0  0  0  0  0  0  0
    1.2516   -0.7629    0.7416 C   0  0  0  0  0  0  0  0  0  0  0  0
    1.2786    0.7492    1.0151 C   0  0  0  0  0  0  0  0  0  0  0  0
    1.0413    0.9186   -0.4653 C   0  0  0  0  0  0  0  0  0  0  0  0
    1.6769   -0.4214   -0.6598 C   0  0  0  0  0  0  0  0  0  0  0  0
   -0.2142    1.0735   -0.8574 O   0  0  0  0  0  0  0  0  0  0  0  0
   -2.9798    1.2795   -0.2440 H   0  0  0  0  0  0  0  0  0  0  0  0
   -1.7980    1.2925    1.0763 H   0  0  0  0  0  0  0  0  0  0  0  0
   -2.7490   -0.1723    0.7711 H   0  0  0  0  0  0  0  0  0  0  0  0
   -1.7286    0.0408   -1.6684 H   0  0  0  0  0  0  0  0  0  0  0  0
   -1.7842   -1.6852    0.0771 H   0  0  0  0  0  0  0  0  0  0  0  0
   -0.4792   -1.8805   -1.0838 H   0  0  0  0  0  0  0  0  0  0  0  0
    1.9821   -1.3000    1.3617 H   0  0  0  0  0  0  0  0  0  0  0  0
    2.3143    1.0776    1.2830 H   0  0  0  0  0  0  0  0  0  0  0  0
    0.5148    1.1124    1.6900 H   0  0  0  0  0  0  0  0  0  0  0  0
    1.7175    1.7093   -0.9072 H   0  0  0  0  0  0  0  0  0  0  0  0
    2.8051   -0.3597   -0.6837 H   0  0  0  0  0  0  0  0  0  0  0  0
    1.3403   -1.0488   -1.4690 H   0  0  0  0  0  0  0  0  0  0  0  0
  1  2  1  0
  2  3  1  0
  3  4  1  0
  4  5  1  0
  5  6  1  0
  6  7  1  0
  7  8  1  0
  7  9  1  0
  9  2  1  0
  8  5  1  0
  1 10  1  0
  1 11  1  0
  1 12  1  0
  2 13  1  0
  3 14  1  0
  3 15  1  0
  5 16  1  0
  6 17  1  0
  6 18  1  0
  7 19  1  0
  8 20  1  0
  8 21  1  0
M  END
