
     RDKit          3D

 15 17  0  0  0  0  0  0  0  0999 V2000
    2.1021   -0.0474   -0.7229 C   0  0  0  0  0  0  0  0  0  0  0  0
    0.8364   -0.1384    0.1009 C   0  0  0  0  0  0  0  0  0  0  0  0
   -0.3702   -0.7355   -0.5927 C   0  0  0  0  0  0  0  0  0  0  0  0
   -1.7094   -0.6320    0.0575 C   0  0  0  0  0  0  0  0  0  0  0  0
   -2.6198    0.3519   -0.6257 O   0  0  0  0  0  0  0  0  0  0  0  0
   -1.6160    0.6899    0.3189 C   0  0  0  0  0  0  0  0  0  0  0  0
   -0.2367    0.7960   -0.2913 C   0  0  0  0  0  0  0  0  0  0  0  0
    2.0465   -0.8536   -1.4830 H   0  0  0  0  0  0  0  0  0  0  0  0
    2.1536    0.9045   -1.2885 H   0  0  0  0  0  0  0  0  0  0  0  0
    3.0169   -0.1610   -0.1145 H   0  0  0  0  0  0  0  0  0  0  0  0
    0.9631   -0.4717    1.1312 H   0  0  0  0  0  0  0  0  0  0  0  0
   -0.2544   -1.0336   -1.6434 H   0  0  0  0  0  0  0  0  0  0  0  0
   -2.2751   -1.4865    0.3995 H   0  0  0  0  0  0  0  0  0  0  0  0
   -1.8806    1.3748    1.1154 H   0  0  0  0  0  0  0  0  0  0  0  0
   -0.1566    1.4426   -1.1586 H   0  0  0  0  0  0  0  0  0  0  0  0
  1  2  1  0
  2  3  1  0
  3  4  1  0
  4  5  1  0
  5  6  1  0
  6  7  1  0
  7  2  1  0
  7  3  1  0
  6  4  1  0
  1  8  1  0
  1  9  1  0
  1 10  1  0
  2 11  1  0
  3 12  1  0
  4 13  1  0
  6 14  1  0
  7 15  1  0
M  END
