
     RDKit          3D

 19 20  0  0  0  0  0  0  0  0999 V2000
    2.1807    0.2236   -0.5397 C   0  0  0  0  0  0  0  0  0  0  0  0
    0.9869   -0.1310    0.3169 C   0  0  0  0  0  0  0  0  0  0  0  0
    0.2394    1.1082    0.6694 C   0  0  0  0  0  0  0  0  0  0  0  0
    0.8053    2.1269    1.0289 O   0  0  0  0  0  0  0  0  0  0  0  0
   -1.2471    1.1137    0.5835 C   0  0  0  0  0  0  0  0  0  0  0  0
   -1.6346    0.0340   -0.4041 C   0  0  0  0  0  0  0  0  0  0  0  0
   -1.2285   -1.2864    0.1723 C   0  0  0  0  0  0  0  0  0  0  0  0
    0.0584   -0.9775   -0.5282 C   0  0  0  0  0  0  0  0  0  0  0  0
   -0.6396   -0.1200   -1.3680 O   0  0  0  0  0  0  0  0  0  0  0  0
    2.4052   -0.5815   -1.2815 H   0  0  0  0  0  0  0  0  0  0  0  0
    3.1063    0.3579    0.0878 H   0  0  0  0  0  0  0  0  0  0  0  0
    2.0074    1.1508   -1.1204 H   0  0  0  0  0  0  0  0  0  0  0  0
    1.3070   -0.6874    1.2437 H   0  0  0  0  0  0  0  0  0  0  0  0
   -1.6700    2.0924    0.3414 H   0  0  0  0  0  0  0  0  0  0  0  0
   -1.6274    0.8179    1.5953 H   0  0  0  0  0  0  0  0  0  0  0  0
   -2.6282    0.1154   -0.8421 H   0  0  0  0  0  0  0  0  0  0  0  0
   -1.1780   -1.3182    1.2782 H   0  0  0  0  0  0  0  0  0  0  0  0
   -1.7442   -2.1760   -0.2433 H   0  0  0  0  0  0  0  0  0  0  0  0
    0.5011   -1.8629   -0.9900 H   0  0  0  0  0  0  0  0  0  0  0  0
  1  2  1  0
  2  3  1  0
  3  4  2  0
  3  5  1  0
  5  6  1  0
  6  7  1  0
  7  8  1  0
  8  9  1  0
  8  2  1  0
  9  6  1  0
  1 10  1  0
  1 11  1  0
  1 12  1  0
  2 13  1  0
  5 14  1  0
  5 15  1  0
  6 16  1  0
  7 17  1  0
  7 18  1  0
  8 19  1  0
M  END
