
     RDKit          3D

 20 21  0  0  0  0  0  0  0  0999 V2000
   -1.7515    1.4060   -0.2957 C   0  0  0  0  0  0  0  0  0  0  0  0
   -1.1305    0.0792    0.0193 C   0  0  0  0  0  0  0  0  0  0  0  0
    0.0202    0.2816    1.0091 C   0  0  0  0  0  0  0  0  0  0  0  0
    0.9570    0.1640   -0.1218 C   0  0  0  0  0  0  0  0  0  0  0  0
    2.2093    0.6477   -0.3433 C   0  0  0  0  0  0  0  0  0  0  0  0
    2.0934   -0.6906    0.2044 O   0  0  0  0  0  0  0  0  0  0  0  0
   -0.0944   -0.3904   -0.9894 C   0  0  0  0  0  0  0  0  0  0  0  0
   -0.0231   -1.9226   -1.0090 C   0  0  0  0  0  0  0  0  0  0  0  0
   -0.9830    2.2307   -0.2687 H   0  0  0  0  0  0  0  0  0  0  0  0
   -2.3071    1.3969   -1.2385 H   0  0  0  0  0  0  0  0  0  0  0  0
   -2.4820    1.6269    0.5096 H   0  0  0  0  0  0  0  0  0  0  0  0
   -1.8420   -0.6951    0.2751 H   0  0  0  0  0  0  0  0  0  0  0  0
   -0.0173    1.2226    1.5702 H   0  0  0  0  0  0  0  0  0  0  0  0
   -0.0084   -0.5788    1.7323 H   0  0  0  0  0  0  0  0  0  0  0  0
    2.6953    0.5937   -1.3391 H   0  0  0  0  0  0  0  0  0  0  0  0
    2.6926    1.3905    0.3436 H   0  0  0  0  0  0  0  0  0  0  0  0
   -0.1866    0.0597   -1.9840 H   0  0  0  0  0  0  0  0  0  0  0  0
   -0.4218   -2.3467   -1.9301 H   0  0  0  0  0  0  0  0  0  0  0  0
   -0.4818   -2.3097   -0.0796 H   0  0  0  0  0  0  0  0  0  0  0  0
    1.0616   -2.1656   -0.9777 H   0  0  0  0  0  0  0  0  0  0  0  0
  1  2  1  0
  2  3  1  0
  3  4  1  0
  4  5  1  0
  5  6  1  0
  4  7  1  0
  7  8  1  0
  7  2  1  0
  6  4  1  0
  1  9  1  0
  1 10  1  0
  1 11  1  0
  2 12  1  0
  3 13  1  0
  3 14  1  0
  5 15  1  0
  5 16  1  0
  7 17  1  0
  8 18  1  0
  8 19  1  0
  8 20  1  0
M  END
