
     RDKit          3D

 23 24  0  0  0  0  0  0  0  0999 V2000
    2.9626   -0.3544    0.0336 C   0  0  0  0  0  0  0  0  0  0  0  0
    1.5352   -0.7739    0.1062 C   0  0  0  0  0  0  0  0  0  0  0  0
    0.7299   -0.2230   -1.0744 C   0  0  0  0  0  0  0  0  0  0  0  0
   -0.2012    0.3479   -0.0762 C   0  0  0  0  0  0  0  0  0  0  0  0
    0.6668    0.0512    1.0675 C   0  0  0  0  0  0  0  0  0  0  0  0
   -1.0444    1.5054   -0.2544 C   0  0  0  0  0  0  0  0  0  0  0  0
   -1.6204    0.0860   -0.1941 C   0  0  0  0  0  0  0  0  0  0  0  0
   -2.4233   -0.3036    1.0202 C   0  0  0  0  0  0  0  0  0  0  0  0
   -2.0413   -0.4416   -1.4338 O   0  0  0  0  0  0  0  0  0  0  0  0
    3.5507   -1.2055   -0.3866 H   0  0  0  0  0  0  0  0  0  0  0  0
    3.0698    0.5572   -0.6048 H   0  0  0  0  0  0  0  0  0  0  0  0
    3.3355   -0.2067    1.0611 H   0  0  0  0  0  0  0  0  0  0  0  0
    1.3673   -1.8360    0.3217 H   0  0  0  0  0  0  0  0  0  0  0  0
    0.2508   -1.0896   -1.6051 H   0  0  0  0  0  0  0  0  0  0  0  0
    1.2823    0.4598   -1.7301 H   0  0  0  0  0  0  0  0  0  0  0  0
    1.2583    0.9464    1.3797 H   0  0  0  0  0  0  0  0  0  0  0  0
    0.2729   -0.5124    1.9208 H   0  0  0  0  0  0  0  0  0  0  0  0
   -1.1518    2.0733   -1.1968 H   0  0  0  0  0  0  0  0  0  0  0  0
   -1.2455    2.1270    0.6670 H   0  0  0  0  0  0  0  0  0  0  0  0
   -1.7672   -0.5492    1.8738 H   0  0  0  0  0  0  0  0  0  0  0  0
   -2.9462   -1.2592    0.7576 H   0  0  0  0  0  0  0  0  0  0  0  0
   -3.1875    0.4312    1.3035 H   0  0  0  0  0  0  0  0  0  0  0  0
   -2.6534    0.1698   -1.9055 H   0  0  0  0  0  0  0  0  0  0  0  0
  1  2  1  0
  2  3  1  0
  3  4  1  0
  4  5  1  0
  4  6  1  0
  6  7  1  0
  7  8  1  0
  7  9  1  0
  5  2  1  0
  7  4  1  0
  1 10  1  0
  1 11  1  0
  1 12  1  0
  2 13  1  0
  3 14  1  0
  3 15  1  0
  5 16  1  0
  5 17  1  0
  6 18  1  0
  6 19  1  0
  8 20  1  0
  8 21  1  0
  8 22  1  0
  9 23  1  0
M  END
