
     RDKit          3D

 19 20  0  0  0  0  0  0  0  0999 V2000
    2.5305   -0.0646    0.0357 C   0  0  0  0  0  0  0  0  0  0  0  0
    1.1480    0.1810   -0.5647 C   0  0  0  0  0  0  0  0  0  0  0  0
    0.2197   -0.8725   -0.5844 C   0  0  0  0  0  0  0  0  0  0  0  0
   -0.4470   -1.6011    0.3597 O   0  0  0  0  0  0  0  0  0  0  0  0
   -1.7243   -0.9792    0.3026 C   0  0  0  0  0  0  0  0  0  0  0  0
   -1.4059    0.5158    0.0795 C   0  0  0  0  0  0  0  0  0  0  0  0
   -1.6637    0.8770   -1.2422 O   0  0  0  0  0  0  0  0  0  0  0  0
    0.0630    0.4511    0.2761 C   0  0  0  0  0  0  0  0  0  0  0  0
    0.3299    0.2818    1.6642 O   0  0  0  0  0  0  0  0  0  0  0  0
    3.0320   -0.8077   -0.6134 H   0  0  0  0  0  0  0  0  0  0  0  0
    3.1572    0.8656   -0.0272 H   0  0  0  0  0  0  0  0  0  0  0  0
    2.4740   -0.3614    1.0945 H   0  0  0  0  0  0  0  0  0  0  0  0
    1.2696    0.8450   -1.4728 H   0  0  0  0  0  0  0  0  0  0  0  0
   -0.4176   -0.9197   -1.5255 H   0  0  0  0  0  0  0  0  0  0  0  0
   -2.2733   -1.0979    1.2300 H   0  0  0  0  0  0  0  0  0  0  0  0
   -2.2771   -1.3153   -0.5977 H   0  0  0  0  0  0  0  0  0  0  0  0
   -1.9357    1.1364    0.7959 H   0  0  0  0  0  0  0  0  0  0  0  0
   -1.9611    1.8196   -1.3038 H   0  0  0  0  0  0  0  0  0  0  0  0
   -0.1181    1.0460    2.0936 H   0  0  0  0  0  0  0  0  0  0  0  0
  1  2  1  0
  2  3  1  0
  3  4  1  0
  4  5  1  0
  5  6  1  0
  6  7  1  0
  6  8  1  0
  8  9  1  0
  8  2  1  0
  8  3  1  0
  1 10  1  0
  1 11  1  0
  1 12  1  0
  2 13  1  0
  3 14  1  0
  5 15  1  0
  5 16  1  0
  6 17  1  0
  7 18  1  0
  9 19  1  0
M  END
