
     RDKit          3D

 23 24  0  0  0  0  0  0  0  0999 V2000
   -1.9132   -0.8338   -0.7243 C   0  0  0  0  0  0  0  0  0  0  0  0
   -1.0197   -0.5021    0.4255 C   0  0  0  0  0  0  0  0  0  0  0  0
    0.1004   -1.5211    0.6704 C   0  0  0  0  0  0  0  0  0  0  0  0
    1.0796   -0.4331    0.3889 C   0  0  0  0  0  0  0  0  0  0  0  0
    2.2743   -0.6587   -0.2829 C   0  0  0  0  0  0  0  0  0  0  0  0
    2.2043   -0.2251    1.1087 O   0  0  0  0  0  0  0  0  0  0  0  0
    0.0193    0.5690    0.1708 C   0  0  0  0  0  0  0  0  0  0  0  0
    0.0517    1.1258   -1.2196 C   0  0  0  0  0  0  0  0  0  0  0  0
   -0.1223    1.6710    1.1837 C   0  0  0  0  0  0  0  0  0  0  0  0
   -1.4668   -0.6302   -1.7055 H   0  0  0  0  0  0  0  0  0  0  0  0
   -2.8581   -0.2372   -0.5866 H   0  0  0  0  0  0  0  0  0  0  0  0
   -2.1623   -1.9251   -0.6438 H   0  0  0  0  0  0  0  0  0  0  0  0
   -1.6109   -0.3724    1.3598 H   0  0  0  0  0  0  0  0  0  0  0  0
    0.1335   -1.9204    1.6964 H   0  0  0  0  0  0  0  0  0  0  0  0
    0.1498   -2.3192   -0.1095 H   0  0  0  0  0  0  0  0  0  0  0  0
    2.7974    0.0827   -0.9005 H   0  0  0  0  0  0  0  0  0  0  0  0
    2.6610   -1.7140   -0.3994 H   0  0  0  0  0  0  0  0  0  0  0  0
   -0.9262    1.3363   -1.6554 H   0  0  0  0  0  0  0  0  0  0  0  0
    0.6063    2.0961   -1.1789 H   0  0  0  0  0  0  0  0  0  0  0  0
    0.6473    0.4690   -1.9087 H   0  0  0  0  0  0  0  0  0  0  0  0
    0.8160    2.1398    1.4807 H   0  0  0  0  0  0  0  0  0  0  0  0
   -0.6800    1.3432    2.1016 H   0  0  0  0  0  0  0  0  0  0  0  0
   -0.7818    2.4594    0.7286 H   0  0  0  0  0  0  0  0  0  0  0  0
  1  2  1  0
  2  3  1  0
  3  4  1  0
  4  5  1  0
  5  6  1  0
  4  7  1  0
  7  8  1  0
  7  9  1  0
  7  2  1  0
  6  4  1  0
  1 10  1  0
  1 11  1  0
  1 12  1  0
  2 13  1  0
  3 14  1  0
  3 15  1  0
  5 16  1  0
  5 17  1  0
  8 18  1  0
  8 19  1  0
  8 20  1  0
  9 21  1  0
  9 22  1  0
  9 23  1  0
M  END
