
     RDKit          3D

 23 23  0  0  0  0  0  0  0  0999 V2000
    2.7241    0.1728   -0.0088 C   0  0  0  0  0  0  0  0  0  0  0  0
    1.2664    0.0025   -0.3146 C   0  0  0  0  0  0  0  0  0  0  0  0
    0.7707   -1.3773    0.0166 C   0  0  0  0  0  0  0  0  0  0  0  0
   -0.7052   -1.4377   -0.3608 C   0  0  0  0  0  0  0  0  0  0  0  0
   -1.1880   -2.6483    0.1078 O   0  0  0  0  0  0  0  0  0  0  0  0
   -1.4739   -0.2528    0.1297 C   0  0  0  0  0  0  0  0  0  0  0  0
   -0.7202    1.0129   -0.1353 C   0  0  0  0  0  0  0  0  0  0  0  0
   -1.3874    2.2252    0.4364 C   0  0  0  0  0  0  0  0  0  0  0  0
    0.5342    0.8970    0.4911 O   0  0  0  0  0  0  0  0  0  0  0  0
    3.2145   -0.8272    0.0427 H   0  0  0  0  0  0  0  0  0  0  0  0
    3.1711    0.7684   -0.8248 H   0  0  0  0  0  0  0  0  0  0  0  0
    2.8513    0.7371    0.9465 H   0  0  0  0  0  0  0  0  0  0  0  0
    1.0166    0.2537   -1.3657 H   0  0  0  0  0  0  0  0  0  0  0  0
    0.8113   -1.5355    1.1111 H   0  0  0  0  0  0  0  0  0  0  0  0
    1.2678   -2.1753   -0.5559 H   0  0  0  0  0  0  0  0  0  0  0  0
   -0.7288   -1.4651   -1.4745 H   0  0  0  0  0  0  0  0  0  0  0  0
   -2.1021   -2.6079    0.4629 H   0  0  0  0  0  0  0  0  0  0  0  0
   -1.6669   -0.3531    1.2108 H   0  0  0  0  0  0  0  0  0  0  0  0
   -2.4394   -0.2255   -0.4266 H   0  0  0  0  0  0  0  0  0  0  0  0
   -0.5716    1.1166   -1.2403 H   0  0  0  0  0  0  0  0  0  0  0  0
   -0.6697    2.8693    1.0079 H   0  0  0  0  0  0  0  0  0  0  0  0
   -1.7712    2.8756   -0.3814 H   0  0  0  0  0  0  0  0  0  0  0  0
   -2.2035    1.9748    1.1252 H   0  0  0  0  0  0  0  0  0  0  0  0
  1  2  1  0
  2  3  1  0
  3  4  1  0
  4  5  1  0
  4  6  1  0
  6  7  1  0
  7  8  1  0
  7  9  1  0
  9  2  1  0
  1 10  1  0
  1 11  1  0
  1 12  1  0
  2 13  1  0
  3 14  1  0
  3 15  1  0
  4 16  1  0
  5 17  1  0
  6 18  1  0
  6 19  1  0
  7 20  1  0
  8 21  1  0
  8 22  1  0
  8 23  1  0
M  END
