
     RDKit          3D

 21 22  0  0  0  0  0  0  0  0999 V2000
   -1.8577    0.9751   -0.0663 C   0  0  0  0  0  0  0  0  0  0  0  0
   -1.1029   -0.0107    0.7535 C   0  0  0  0  0  0  0  0  0  0  0  0
   -1.3139   -1.4291    0.2058 C   0  0  0  0  0  0  0  0  0  0  0  0
   -0.2250   -1.5459   -0.8064 C   0  0  0  0  0  0  0  0  0  0  0  0
    0.7199   -0.6745   -0.5848 C   0  0  0  0  0  0  0  0  0  0  0  0
    1.9586    0.2054   -0.5927 C   0  0  0  0  0  0  0  0  0  0  0  0
    2.8481   -0.2205    0.3579 O   0  0  0  0  0  0  0  0  0  0  0  0
    1.0239    1.2676    0.0430 C   0  0  0  0  0  0  0  0  0  0  0  0
    0.3699    0.0935    0.6729 C   0  0  0  0  0  0  0  0  0  0  0  0
   -1.4431    1.9979    0.0018 H   0  0  0  0  0  0  0  0  0  0  0  0
   -1.9920    0.6368   -1.1254 H   0  0  0  0  0  0  0  0  0  0  0  0
   -2.9013    1.0480    0.3597 H   0  0  0  0  0  0  0  0  0  0  0  0
   -1.4671   -0.0194    1.7944 H   0  0  0  0  0  0  0  0  0  0  0  0
   -2.2788   -1.4873   -0.2980 H   0  0  0  0  0  0  0  0  0  0  0  0
   -1.1847   -2.1758    1.0052 H   0  0  0  0  0  0  0  0  0  0  0  0
   -0.2143   -2.2635   -1.6265 H   0  0  0  0  0  0  0  0  0  0  0  0
    2.3220    0.4701   -1.5825 H   0  0  0  0  0  0  0  0  0  0  0  0
    3.7756   -0.2434    0.0183 H   0  0  0  0  0  0  0  0  0  0  0  0
    1.5428    1.9445    0.7230 H   0  0  0  0  0  0  0  0  0  0  0  0
    0.4706    1.7302   -0.7871 H   0  0  0  0  0  0  0  0  0  0  0  0
    0.9494   -0.2989    1.5343 H   0  0  0  0  0  0  0  0  0  0  0  0
  1  2  1  0
  2  3  1  0
  3  4  1  0
  4  5  2  0
  5  6  1  0
  6  7  1  0
  6  8  1  0
  8  9  1  0
  9  2  1  0
  9  5  1  0
  1 10  1  0
  1 11  1  0
  1 12  1  0
  2 13  1  0
  3 14  1  0
  3 15  1  0
  4 16  1  0
  6 17  1  0
  7 18  1  0
  8 19  1  0
  8 20  1  0
  9 21  1  0
M  END
