
     RDKit          3D

 16 17  0  0  0  0  0  0  0  0999 V2000
    1.7314    0.4202   -0.5783 C   0  0  0  0  0  0  0  0  0  0  0  0
    0.7937    0.3850    0.5966 C   0  0  0  0  0  0  0  0  0  0  0  0
    0.3944   -0.9453    1.1914 C   0  0  0  0  0  0  0  0  0  0  0  0
   -0.5654   -0.1363    0.5045 C   0  0  0  0  0  0  0  0  0  0  0  0
   -1.2834   -0.4524   -0.7420 C   0  0  0  0  0  0  0  0  0  0  0  0
   -2.0946    0.7182   -0.3187 C   0  0  0  0  0  0  0  0  0  0  0  0
   -2.8047    1.5246   -0.9698 O   0  0  0  0  0  0  0  0  0  0  0  0
   -1.6972    0.4686    0.9900 O   0  0  0  0  0  0  0  0  0  0  0  0
    1.7251   -0.4948   -1.1826 H   0  0  0  0  0  0  0  0  0  0  0  0
    2.7490    0.5633   -0.1925 H   0  0  0  0  0  0  0  0  0  0  0  0
    1.4674    1.3359   -1.1702 H   0  0  0  0  0  0  0  0  0  0  0  0
    0.9651    1.2128    1.3247 H   0  0  0  0  0  0  0  0  0  0  0  0
    0.4856   -1.0402    2.2880 H   0  0  0  0  0  0  0  0  0  0  0  0
    0.7582   -1.8793    0.6715 H   0  0  0  0  0  0  0  0  0  0  0  0
   -0.6937   -0.3183   -1.6642 H   0  0  0  0  0  0  0  0  0  0  0  0
   -1.9309   -1.3622   -0.7484 H   0  0  0  0  0  0  0  0  0  0  0  0
  1  2  1  0
  2  3  1  0
  3  4  1  0
  4  5  1  0
  5  6  1  0
  6  7  2  0
  6  8  1  0
  4  2  1  0
  8  4  1  0
  1  9  1  0
  1 10  1  0
  1 11  1  0
  2 12  1  0
  3 13  1  0
  3 14  1  0
  5 15  1  0
  5 16  1  0
M  END
