
     RDKit          3D

 17 17  0  0  0  0  0  0  0  0999 V2000
    2.1090   -0.4333   -0.0427 C   0  0  0  0  0  0  0  0  0  0  0  0
    0.6971   -0.2532   -0.4728 C   0  0  0  0  0  0  0  0  0  0  0  0
   -0.2451   -1.2863    0.1042 C   0  0  0  0  0  0  0  0  0  0  0  0
   -1.5494   -0.6276   -0.0909 C   0  0  0  0  0  0  0  0  0  0  0  0
   -2.5669   -1.1226   -0.4843 O   0  0  0  0  0  0  0  0  0  0  0  0
   -1.3464    0.7771    0.2999 C   0  0  0  0  0  0  0  0  0  0  0  0
   -2.1760    1.6691   -0.3509 O   0  0  0  0  0  0  0  0  0  0  0  0
    0.1070    1.0321   -0.0072 C   0  0  0  0  0  0  0  0  0  0  0  0
    0.6134    2.1200    0.1310 O   0  0  0  0  0  0  0  0  0  0  0  0
    2.6247   -1.1597   -0.6995 H   0  0  0  0  0  0  0  0  0  0  0  0
    2.6479    0.5367   -0.1367 H   0  0  0  0  0  0  0  0  0  0  0  0
    2.1881   -0.7505    0.9964 H   0  0  0  0  0  0  0  0  0  0  0  0
    0.5957   -0.2745   -1.5820 H   0  0  0  0  0  0  0  0  0  0  0  0
   -0.1555   -2.2658   -0.3641 H   0  0  0  0  0  0  0  0  0  0  0  0
   -0.0719   -1.3476    1.2059 H   0  0  0  0  0  0  0  0  0  0  0  0
   -1.4265    0.8327    1.4051 H   0  0  0  0  0  0  0  0  0  0  0  0
   -2.0451    2.5533    0.0885 H   0  0  0  0  0  0  0  0  0  0  0  0
  1  2  1  0
  2  3  1  0
  3  4  1  0
  4  5  2  0
  4  6  1  0
  6  7  1  0
  6  8  1  0
  8  9  2  0
  8  2  1  0
  1 10  1  0
  1 11  1  0
  1 12  1  0
  2 13  1  0
  3 14  1  0
  3 15  1  0
  6 16  1  0
  7 17  1  0
M  END
