
     RDKit          3D

 19 20  0  0  0  0  0  0  0  0999 V2000
   -2.1992   -1.0045    0.1480 C   0  0  0  0  0  0  0  0  0  0  0  0
   -1.1552   -0.2684   -0.6246 C   0  0  0  0  0  0  0  0  0  0  0  0
   -1.4548    1.1163   -1.0068 C   0  0  0  0  0  0  0  0  0  0  0  0
   -2.4161    1.7792   -1.4024 O   0  0  0  0  0  0  0  0  0  0  0  0
   -0.1438    1.4290   -0.7349 O   0  0  0  0  0  0  0  0  0  0  0  0
   -0.2098    0.4732    0.3308 C   0  0  0  0  0  0  0  0  0  0  0  0
    1.1123   -0.1856    0.5390 C   0  0  0  0  0  0  0  0  0  0  0  0
    1.9844   -0.3941   -0.6507 C   0  0  0  0  0  0  0  0  0  0  0  0
    2.3513    0.6620    0.3201 C   0  0  0  0  0  0  0  0  0  0  0  0
   -3.0077   -0.3103    0.4120 H   0  0  0  0  0  0  0  0  0  0  0  0
   -1.7977   -1.4128    1.1219 H   0  0  0  0  0  0  0  0  0  0  0  0
   -2.6138   -1.8683   -0.4013 H   0  0  0  0  0  0  0  0  0  0  0  0
   -0.5671   -0.8549   -1.3585 H   0  0  0  0  0  0  0  0  0  0  0  0
   -0.7251    0.8460    1.2327 H   0  0  0  0  0  0  0  0  0  0  0  0
    1.1910   -0.9041    1.3896 H   0  0  0  0  0  0  0  0  0  0  0  0
    2.6811   -1.2682   -0.6826 H   0  0  0  0  0  0  0  0  0  0  0  0
    1.5916   -0.0745   -1.6361 H   0  0  0  0  0  0  0  0  0  0  0  0
    3.2123    0.5053    1.0090 H   0  0  0  0  0  0  0  0  0  0  0  0
    2.1664    1.7349    0.1059 H   0  0  0  0  0  0  0  0  0  0  0  0
  1  2  1  0
  2  3  1  0
  3  4  2  0
  3  5  1  0
  5  6  1  0
  6  7  1  0
  7  8  1  0
  8  9  1  0
  6  2  1  0
  9  7  1  0
  1 10  1  0
  1 11  1  0
  1 12  1  0
  2 13  1  0
  6 14  1  0
  7 15  1  0
  8 16  1  0
  8 17  1  0
  9 18  1  0
  9 19  1  0
M  END
