
     RDKit          3D

 21 21  0  0  0  0  0  0  0  0999 V2000
   -2.6026    0.7005   -0.5836 C   0  0  0  0  0  0  0  0  0  0  0  0
   -1.5841   -0.1639    0.1119 C   0  0  0  0  0  0  0  0  0  0  0  0
   -0.7975   -0.9091   -0.9030 C   0  0  0  0  0  0  0  0  0  0  0  0
    0.5157   -1.0283   -0.9306 C   0  0  0  0  0  0  0  0  0  0  0  0
    1.4704   -0.4430    0.0446 C   0  0  0  0  0  0  0  0  0  0  0  0
    2.8649   -0.6595   -0.5617 C   0  0  0  0  0  0  0  0  0  0  0  0
    1.3326    0.9167    0.1936 O   0  0  0  0  0  0  0  0  0  0  0  0
    0.0970    1.3722    0.5396 C   0  0  0  0  0  0  0  0  0  0  0  0
   -0.8040    0.4945    1.0154 O   0  0  0  0  0  0  0  0  0  0  0  0
   -3.1092    0.0444   -1.3452 H   0  0  0  0  0  0  0  0  0  0  0  0
   -3.4108    0.9886    0.1449 H   0  0  0  0  0  0  0  0  0  0  0  0
   -2.1887    1.5591   -1.1060 H   0  0  0  0  0  0  0  0  0  0  0  0
   -2.1739   -0.9421    0.6788 H   0  0  0  0  0  0  0  0  0  0  0  0
   -1.4053   -1.3776   -1.6659 H   0  0  0  0  0  0  0  0  0  0  0  0
    0.8773   -1.6138   -1.7570 H   0  0  0  0  0  0  0  0  0  0  0  0
    1.4849   -0.9757    1.0142 H   0  0  0  0  0  0  0  0  0  0  0  0
    3.6419   -0.1479    0.0056 H   0  0  0  0  0  0  0  0  0  0  0  0
    3.0805   -1.7245   -0.7137 H   0  0  0  0  0  0  0  0  0  0  0  0
    2.7950   -0.1888   -1.5844 H   0  0  0  0  0  0  0  0  0  0  0  0
   -0.3289    1.9118   -0.3455 H   0  0  0  0  0  0  0  0  0  0  0  0
    0.2446    2.1866    1.3097 H   0  0  0  0  0  0  0  0  0  0  0  0
  1  2  1  0
  2  3  1  0
  3  4  2  0
  4  5  1  0
  5  6  1  0
  5  7  1  0
  7  8  1  0
  8  9  1  0
  9  2  1  0
  1 10  1  0
  1 11  1  0
  1 12  1  0
  2 13  1  0
  3 14  1  0
  4 15  1  0
  5 16  1  0
  6 17  1  0
  6 18  1  0
  6 19  1  0
  8 20  1  0
  8 21  1  0
M  END
