
     RDKit          3D

 23 24  0  0  0  0  0  0  0  0999 V2000
   -2.3280    0.0091   -0.7458 C   0  0  0  0  0  0  0  0  0  0  0  0
   -1.4587    0.3518    0.4604 C   0  0  0  0  0  0  0  0  0  0  0  0
   -0.7918   -0.8714    0.9921 C   0  0  0  0  0  0  0  0  0  0  0  0
    0.5107   -1.2218    0.4007 C   0  0  0  0  0  0  0  0  0  0  0  0
    1.2833   -0.1219   -0.2262 C   0  0  0  0  0  0  0  0  0  0  0  0
    2.7921   -0.3908   -0.2971 C   0  0  0  0  0  0  0  0  0  0  0  0
    0.8253    0.4121   -1.4512 O   0  0  0  0  0  0  0  0  0  0  0  0
    0.8377    1.1609   -0.1639 C   0  0  0  0  0  0  0  0  0  0  0  0
   -0.5637    1.5044    0.1958 C   0  0  0  0  0  0  0  0  0  0  0  0
   -3.3955    0.0372   -0.5291 H   0  0  0  0  0  0  0  0  0  0  0  0
   -2.1293    0.7975   -1.5074 H   0  0  0  0  0  0  0  0  0  0  0  0
   -2.0458   -0.9980   -1.1335 H   0  0  0  0  0  0  0  0  0  0  0  0
   -2.1882    0.6929    1.2561 H   0  0  0  0  0  0  0  0  0  0  0  0
   -1.5004   -1.7337    0.8077 H   0  0  0  0  0  0  0  0  0  0  0  0
   -0.7365   -0.8138    2.1124 H   0  0  0  0  0  0  0  0  0  0  0  0
    0.4352   -2.0616   -0.3505 H   0  0  0  0  0  0  0  0  0  0  0  0
    1.1562   -1.6611    1.2174 H   0  0  0  0  0  0  0  0  0  0  0  0
    3.2020   -0.6805    0.6670 H   0  0  0  0  0  0  0  0  0  0  0  0
    3.2893    0.4542   -0.7839 H   0  0  0  0  0  0  0  0  0  0  0  0
    2.8903   -1.2602   -1.0069 H   0  0  0  0  0  0  0  0  0  0  0  0
    1.5119    2.0591   -0.2226 H   0  0  0  0  0  0  0  0  0  0  0  0
   -0.9892    2.0514   -0.7009 H   0  0  0  0  0  0  0  0  0  0  0  0
   -0.6070    2.2845    1.0094 H   0  0  0  0  0  0  0  0  0  0  0  0
  1  2  1  0
  2  3  1  0
  3  4  1  0
  4  5  1  0
  5  6  1  0
  5  7  1  0
  7  8  1  0
  8  9  1  0
  9  2  1  0
  8  5  1  0
  1 10  1  0
  1 11  1  0
  1 12  1  0
  2 13  1  0
  3 14  1  0
  3 15  1  0
  4 16  1  0
  4 17  1  0
  6 18  1  0
  6 19  1  0
  6 20  1  0
  8 21  1  0
  9 22  1  0
  9 23  1  0
M  END
