
     RDKit          3D

 19 20  0  0  0  0  0  0  0  0999 V2000
   -1.7577    0.7464   -0.6407 C   0  0  0  0  0  0  0  0  0  0  0  0
   -1.1776   -0.4533    0.0426 C   0  0  0  0  0  0  0  0  0  0  0  0
   -0.7242   -0.0194    1.4291 C   0  0  0  0  0  0  0  0  0  0  0  0
    0.3865    0.7345    1.1721 O   0  0  0  0  0  0  0  0  0  0  0  0
    1.0538    0.1995    0.0947 C   0  0  0  0  0  0  0  0  0  0  0  0
    2.0705    0.9775   -0.6060 C   0  0  0  0  0  0  0  0  0  0  0  0
    2.3285    2.1075   -0.2328 O   0  0  0  0  0  0  0  0  0  0  0  0
    1.2841   -1.2793    0.1536 C   0  0  0  0  0  0  0  0  0  0  0  0
    0.1528   -0.7494   -0.6145 C   0  0  0  0  0  0  0  0  0  0  0  0
   -1.0205    1.5703   -0.5660 H   0  0  0  0  0  0  0  0  0  0  0  0
   -2.6521    1.0921   -0.0636 H   0  0  0  0  0  0  0  0  0  0  0  0
   -1.9880    0.5699   -1.7089 H   0  0  0  0  0  0  0  0  0  0  0  0
   -1.8472   -1.3215    0.0740 H   0  0  0  0  0  0  0  0  0  0  0  0
   -0.5200   -0.9264    2.0393 H   0  0  0  0  0  0  0  0  0  0  0  0
   -1.5706    0.5304    1.8740 H   0  0  0  0  0  0  0  0  0  0  0  0
    2.5862    0.5334   -1.4567 H   0  0  0  0  0  0  0  0  0  0  0  0
    1.1270   -1.7839    1.1503 H   0  0  0  0  0  0  0  0  0  0  0  0
    2.1209   -1.7018   -0.4261 H   0  0  0  0  0  0  0  0  0  0  0  0
    0.1476   -0.8266   -1.7144 H   0  0  0  0  0  0  0  0  0  0  0  0
  1  2  1  0
  2  3  1  0
  3  4  1  0
  4  5  1  0
  5  6  1  0
  6  7  2  0
  5  8  1  0
  8  9  1  0
  9  2  1  0
  9  5  1  0
  1 10  1  0
  1 11  1  0
  1 12  1  0
  2 13  1  0
  3 14  1  0
  3 15  1  0
  6 16  1  0
  8 17  1  0
  8 18  1  0
  9 19  1  0
M  END
