
     RDKit          3D

 23 23  0  0  0  0  0  0  0  0999 V2000
   -1.6924   -1.4471   -0.1497 C   0  0  0  0  0  0  0  0  0  0  0  0
   -0.4446   -0.6545   -0.5600 C   0  0  0  0  0  0  0  0  0  0  0  0
   -0.9445    0.6744   -1.0762 C   0  0  0  0  0  0  0  0  0  0  0  0
   -0.1825    1.7443   -0.3697 C   0  0  0  0  0  0  0  0  0  0  0  0
    0.5509    1.0998    0.7745 C   0  0  0  0  0  0  0  0  0  0  0  0
    0.0659    1.4932    2.0191 O   0  0  0  0  0  0  0  0  0  0  0  0
    0.4609   -0.3785    0.5805 C   0  0  0  0  0  0  0  0  0  0  0  0
    1.8446   -0.9429    0.4323 C   0  0  0  0  0  0  0  0  0  0  0  0
    2.5291   -0.4724   -0.6602 O   0  0  0  0  0  0  0  0  0  0  0  0
   -2.5569   -0.7647    0.0134 H   0  0  0  0  0  0  0  0  0  0  0  0
   -2.0030   -2.1252   -0.9789 H   0  0  0  0  0  0  0  0  0  0  0  0
   -1.5449   -2.0098    0.7689 H   0  0  0  0  0  0  0  0  0  0  0  0
    0.0697   -1.2536   -1.3315 H   0  0  0  0  0  0  0  0  0  0  0  0
   -2.0224    0.8358   -0.8837 H   0  0  0  0  0  0  0  0  0  0  0  0
   -0.8225    0.7281   -2.1834 H   0  0  0  0  0  0  0  0  0  0  0  0
    0.4946    2.2568   -1.0726 H   0  0  0  0  0  0  0  0  0  0  0  0
   -0.8491    2.5496    0.0457 H   0  0  0  0  0  0  0  0  0  0  0  0
    1.6076    1.4709    0.7244 H   0  0  0  0  0  0  0  0  0  0  0  0
   -0.8560    1.1781    2.1533 H   0  0  0  0  0  0  0  0  0  0  0  0
    0.0344   -0.8286    1.5184 H   0  0  0  0  0  0  0  0  0  0  0  0
    1.8347   -2.0555    0.3822 H   0  0  0  0  0  0  0  0  0  0  0  0
    2.4294   -0.6808    1.3376 H   0  0  0  0  0  0  0  0  0  0  0  0
    1.9971   -0.4174   -1.4844 H   0  0  0  0  0  0  0  0  0  0  0  0
  1  2  1  0
  2  3  1  0
  3  4  1  0
  4  5  1  0
  5  6  1  0
  5  7  1  0
  7  8  1  0
  8  9  1  0
  7  2  1  0
  1 10  1  0
  1 11  1  0
  1 12  1  0
  2 13  1  0
  3 14  1  0
  3 15  1  0
  4 16  1  0
  4 17  1  0
  5 18  1  0
  6 19  1  0
  7 20  1  0
  8 21  1  0
  8 22  1  0
  9 23  1  0
M  END
