
     RDKit          3D

 23 24  0  0  0  0  0  0  0  0999 V2000
   -2.9897    0.0984   -0.4419 C   0  0  0  0  0  0  0  0  0  0  0  0
   -1.7746   -0.6518   -0.0195 C   0  0  0  0  0  0  0  0  0  0  0  0
   -1.2158   -0.1886    1.2866 C   0  0  0  0  0  0  0  0  0  0  0  0
    0.0885   -0.0788    1.2718 C   0  0  0  0  0  0  0  0  0  0  0  0
    1.5278    0.1213    1.5029 C   0  0  0  0  0  0  0  0  0  0  0  0
    1.5118    0.6334    0.0440 C   0  0  0  0  0  0  0  0  0  0  0  0
    2.8208    0.4959   -0.6584 C   0  0  0  0  0  0  0  0  0  0  0  0
    0.5443   -0.5131   -0.1134 C   0  0  0  0  0  0  0  0  0  0  0  0
   -0.6519   -0.3220   -0.9869 C   0  0  0  0  0  0  0  0  0  0  0  0
   -3.1526   -0.1000   -1.5265 H   0  0  0  0  0  0  0  0  0  0  0  0
   -2.8870    1.2006   -0.3519 H   0  0  0  0  0  0  0  0  0  0  0  0
   -3.9162   -0.2178    0.0762 H   0  0  0  0  0  0  0  0  0  0  0  0
   -1.9965   -1.7154    0.0500 H   0  0  0  0  0  0  0  0  0  0  0  0
   -1.9024    0.0187    2.1305 H   0  0  0  0  0  0  0  0  0  0  0  0
    2.0777   -0.8290    1.5403 H   0  0  0  0  0  0  0  0  0  0  0  0
    1.8184    0.8951    2.2307 H   0  0  0  0  0  0  0  0  0  0  0  0
    1.0114    1.6102   -0.0195 H   0  0  0  0  0  0  0  0  0  0  0  0
    2.8026    1.1771   -1.5353 H   0  0  0  0  0  0  0  0  0  0  0  0
    2.9857   -0.5329   -1.0374 H   0  0  0  0  0  0  0  0  0  0  0  0
    3.6453    0.8261    0.0211 H   0  0  0  0  0  0  0  0  0  0  0  0
    1.0680   -1.4634   -0.1406 H   0  0  0  0  0  0  0  0  0  0  0  0
   -0.6554   -1.1311   -1.7475 H   0  0  0  0  0  0  0  0  0  0  0  0
   -0.7604    0.6672   -1.4203 H   0  0  0  0  0  0  0  0  0  0  0  0
  1  2  1  0
  2  3  1  0
  3  4  2  0
  4  5  1  0
  5  6  1  0
  6  7  1  0
  6  8  1  0
  8  9  1  0
  9  2  1  0
  8  4  1  0
  1 10  1  0
  1 11  1  0
  1 12  1  0
  2 13  1  0
  3 14  1  0
  5 15  1  0
  5 16  1  0
  6 17  1  0
  7 18  1  0
  7 19  1  0
  7 20  1  0
  8 21  1  0
  9 22  1  0
  9 23  1  0
M  END
