
     RDKit          3D

 23 23  0  0  0  0  0  0  0  0999 V2000
    2.9854    0.7394   -0.2417 C   0  0  0  0  0  0  0  0  0  0  0  0
    2.0153   -0.2376    0.3512 C   0  0  0  0  0  0  0  0  0  0  0  0
    1.4467   -1.0487   -0.7557 C   0  0  0  0  0  0  0  0  0  0  0  0
    0.1484   -1.1272   -0.5435 C   0  0  0  0  0  0  0  0  0  0  0  0
   -0.1588   -0.3817    0.6895 C   0  0  0  0  0  0  0  0  0  0  0  0
   -1.4960    0.2995    0.6640 C   0  0  0  0  0  0  0  0  0  0  0  0
   -2.5736   -0.7316    0.4798 C   0  0  0  0  0  0  0  0  0  0  0  0
   -1.5984    1.3747   -0.3603 C   0  0  0  0  0  0  0  0  0  0  0  0
    0.8984    0.5033    0.8158 O   0  0  0  0  0  0  0  0  0  0  0  0
    3.9896    0.2448   -0.3689 H   0  0  0  0  0  0  0  0  0  0  0  0
    3.0587    1.6593    0.3530 H   0  0  0  0  0  0  0  0  0  0  0  0
    2.6415    1.0453   -1.2560 H   0  0  0  0  0  0  0  0  0  0  0  0
    2.4258   -0.8366    1.1672 H   0  0  0  0  0  0  0  0  0  0  0  0
    2.0599   -1.4593   -1.5474 H   0  0  0  0  0  0  0  0  0  0  0  0
   -0.5308   -1.6723   -1.2128 H   0  0  0  0  0  0  0  0  0  0  0  0
   -0.1263   -1.1290    1.5238 H   0  0  0  0  0  0  0  0  0  0  0  0
   -1.6382    0.7707    1.6665 H   0  0  0  0  0  0  0  0  0  0  0  0
   -2.3180   -1.6821    1.0300 H   0  0  0  0  0  0  0  0  0  0  0  0
   -3.4990   -0.3568    0.9489 H   0  0  0  0  0  0  0  0  0  0  0  0
   -2.7611   -0.9720   -0.5835 H   0  0  0  0  0  0  0  0  0  0  0  0
   -2.5820    1.8835   -0.2206 H   0  0  0  0  0  0  0  0  0  0  0  0
   -0.8100    2.1278   -0.2562 H   0  0  0  0  0  0  0  0  0  0  0  0
   -1.5772    0.9867   -1.3955 H   0  0  0  0  0  0  0  0  0  0  0  0
  1  2  1  0
  2  3  1  0
  3  4  2  0
  4  5  1  0
  5  6  1  0
  6  7  1  0
  6  8  1  0
  5  9  1  0
  9  2  1  0
  1 10  1  0
  1 11  1  0
  1 12  1  0
  2 13  1  0
  3 14  1  0
  4 15  1  0
  5 16  1  0
  6 17  1  0
  7 18  1  0
  7 19  1  0
  7 20  1  0
  8 21  1  0
  8 22  1  0
  8 23  1  0
M  END
