
     RDKit          3D

 21 22  0  0  0  0  0  0  0  0999 V2000
   -2.7394    0.2086   -0.7558 C   0  0  0  0  0  0  0  0  0  0  0  0
   -1.4591    0.3475   -0.0067 C   0  0  0  0  0  0  0  0  0  0  0  0
   -0.7425   -0.9951    0.1612 C   0  0  0  0  0  0  0  0  0  0  0  0
    0.6218   -0.4905    0.6527 C   0  0  0  0  0  0  0  0  0  0  0  0
    1.7368   -1.1995    0.0148 C   0  0  0  0  0  0  0  0  0  0  0  0
    2.4543   -0.3610   -0.7192 C   0  0  0  0  0  0  0  0  0  0  0  0
    1.9154    1.0113   -0.6682 C   0  0  0  0  0  0  0  0  0  0  0  0
    0.6332    0.9067    0.1271 C   0  0  0  0  0  0  0  0  0  0  0  0
   -0.4829    1.0674   -0.6881 O   0  0  0  0  0  0  0  0  0  0  0  0
   -2.5984   -0.0224   -1.8175 H   0  0  0  0  0  0  0  0  0  0  0  0
   -3.3257    1.1371   -0.6106 H   0  0  0  0  0  0  0  0  0  0  0  0
   -3.3263   -0.6100   -0.2715 H   0  0  0  0  0  0  0  0  0  0  0  0
   -1.6193    0.7882    0.9813 H   0  0  0  0  0  0  0  0  0  0  0  0
   -0.6384   -1.4868   -0.8172 H   0  0  0  0  0  0  0  0  0  0  0  0
   -1.2291   -1.6289    0.9212 H   0  0  0  0  0  0  0  0  0  0  0  0
    0.6296   -0.5510    1.7601 H   0  0  0  0  0  0  0  0  0  0  0  0
    1.9251   -2.2643    0.1432 H   0  0  0  0  0  0  0  0  0  0  0  0
    3.3301   -0.6490   -1.2874 H   0  0  0  0  0  0  0  0  0  0  0  0
    2.6363    1.7195   -0.2100 H   0  0  0  0  0  0  0  0  0  0  0  0
    1.6925    1.3994   -1.7028 H   0  0  0  0  0  0  0  0  0  0  0  0
    0.5861    1.6728    0.9428 H   0  0  0  0  0  0  0  0  0  0  0  0
  1  2  1  0
  2  3  1  0
  3  4  1  0
  4  5  1  0
  5  6  2  0
  6  7  1  0
  7  8  1  0
  8  9  1  0
  9  2  1  0
  8  4  1  0
  1 10  1  0
  1 11  1  0
  1 12  1  0
  2 13  1  0
  3 14  1  0
  3 15  1  0
  4 16  1  0
  5 17  1  0
  6 18  1  0
  7 19  1  0
  7 20  1  0
  8 21  1  0
M  END
