
     RDKit          3D

 20 20  0  0  0  0  0  0  0  0999 V2000
    2.6217   -0.1390   -0.3776 C   0  0  0  0  0  0  0  0  0  0  0  0
    1.2330    0.4763   -0.2043 C   0  0  0  0  0  0  0  0  0  0  0  0
    0.9307    0.4530    1.2516 C   0  0  0  0  0  0  0  0  0  0  0  0
   -0.3123    0.0251    1.3923 C   0  0  0  0  0  0  0  0  0  0  0  0
   -0.8425   -0.2363    0.0383 C   0  0  0  0  0  0  0  0  0  0  0  0
   -1.5851    1.0445   -0.3731 C   0  0  0  0  0  0  0  0  0  0  0  0
   -1.7886   -1.4071   -0.0018 C   0  0  0  0  0  0  0  0  0  0  0  0
    0.2696   -0.4076   -0.7418 O   0  0  0  0  0  0  0  0  0  0  0  0
    2.7052   -0.6324   -1.3672 H   0  0  0  0  0  0  0  0  0  0  0  0
    3.3492    0.6572   -0.2047 H   0  0  0  0  0  0  0  0  0  0  0  0
    2.7713   -0.8882    0.4417 H   0  0  0  0  0  0  0  0  0  0  0  0
    1.1764    1.4733   -0.6415 H   0  0  0  0  0  0  0  0  0  0  0  0
    1.6347    0.7434    2.0182 H   0  0  0  0  0  0  0  0  0  0  0  0
   -0.8544   -0.1110    2.3574 H   0  0  0  0  0  0  0  0  0  0  0  0
   -2.4568    1.1049    0.3405 H   0  0  0  0  0  0  0  0  0  0  0  0
   -0.8567    1.8643   -0.1980 H   0  0  0  0  0  0  0  0  0  0  0  0
   -1.9208    0.9588   -1.4129 H   0  0  0  0  0  0  0  0  0  0  0  0
   -2.7453   -1.0642    0.4468 H   0  0  0  0  0  0  0  0  0  0  0  0
   -1.9487   -1.6605   -1.0749 H   0  0  0  0  0  0  0  0  0  0  0  0
   -1.3806   -2.2545    0.5769 H   0  0  0  0  0  0  0  0  0  0  0  0
  1  2  1  0
  2  3  1  0
  3  4  2  0
  4  5  1  0
  5  6  1  0
  5  7  1  0
  5  8  1  0
  8  2  1  0
  1  9  1  0
  1 10  1  0
  1 11  1  0
  2 12  1  0
  3 13  1  0
  4 14  1  0
  6 15  1  0
  6 16  1  0
  6 17  1  0
  7 18  1  0
  7 19  1  0
  7 20  1  0
M  END
