
     RDKit          3D

 18 18  0  0  0  0  0  0  0  0999 V2000
    1.6795   -0.6929   -0.6168 C   0  0  0  0  0  0  0  0  0  0  0  0
    0.4216    0.1179   -0.6339 C   0  0  0  0  0  0  0  0  0  0  0  0
    0.5163    1.5094   -0.0678 C   0  0  0  0  0  0  0  0  0  0  0  0
   -0.7837    1.2080    0.6929 C   0  0  0  0  0  0  0  0  0  0  0  0
   -0.4281   -0.2476    0.5921 C   0  0  0  0  0  0  0  0  0  0  0  0
   -1.5200   -1.1813    0.1900 C   0  0  0  0  0  0  0  0  0  0  0  0
    1.7133   -1.3117   -1.5525 H   0  0  0  0  0  0  0  0  0  0  0  0
    2.5577   -0.0276   -0.5777 H   0  0  0  0  0  0  0  0  0  0  0  0
    1.7087   -1.4437    0.2147 H   0  0  0  0  0  0  0  0  0  0  0  0
   -0.1400    0.0960   -1.5802 H   0  0  0  0  0  0  0  0  0  0  0  0
    0.3858    2.3402   -0.7686 H   0  0  0  0  0  0  0  0  0  0  0  0
    1.3847    1.5814    0.6115 H   0  0  0  0  0  0  0  0  0  0  0  0
   -0.6981    1.5945    1.7353 H   0  0  0  0  0  0  0  0  0  0  0  0
   -1.6759    1.5370    0.1398 H   0  0  0  0  0  0  0  0  0  0  0  0
    0.1514   -0.6320    1.4392 H   0  0  0  0  0  0  0  0  0  0  0  0
   -1.0498   -1.9682   -0.4694 H   0  0  0  0  0  0  0  0  0  0  0  0
   -1.9073   -1.7503    1.0684 H   0  0  0  0  0  0  0  0  0  0  0  0
   -2.3161   -0.7292   -0.4171 H   0  0  0  0  0  0  0  0  0  0  0  0
  1  2  1  0
  2  3  1  0
  3  4  1  0
  4  5  1  0
  5  6  1  0
  5  2  1  0
  1  7  1  0
  1  8  1  0
  1  9  1  0
  2 10  1  0
  3 11  1  0
  3 12  1  0
  4 13  1  0
  4 14  1  0
  5 15  1  0
  6 16  1  0
  6 17  1  0
  6 18  1  0
M  END
