
     RDKit          3D

 21 23  0  0  0  0  0  0  0  0999 V2000
   -2.3856   -0.4371    0.5317 C   0  0  0  0  0  0  0  0  0  0  0  0
   -1.1504    0.1794   -0.0301 C   0  0  0  0  0  0  0  0  0  0  0  0
    0.0354    0.2861    0.8786 C   0  0  0  0  0  0  0  0  0  0  0  0
    0.1755   -1.1994    0.7477 C   0  0  0  0  0  0  0  0  0  0  0  0
    1.5169   -1.5127    0.7447 O   0  0  0  0  0  0  0  0  0  0  0  0
    2.0786   -0.4455   -0.0015 C   0  0  0  0  0  0  0  0  0  0  0  0
    0.8629    0.3110   -0.3807 C   0  0  0  0  0  0  0  0  0  0  0  0
    0.9265    1.5132   -1.1798 C   0  0  0  0  0  0  0  0  0  0  0  0
   -0.1498   -0.7465   -0.6557 C   0  0  0  0  0  0  0  0  0  0  0  0
   -2.7603   -1.2992   -0.0376 H   0  0  0  0  0  0  0  0  0  0  0  0
   -3.1730    0.3646    0.5601 H   0  0  0  0  0  0  0  0  0  0  0  0
   -2.1794   -0.7034    1.5967 H   0  0  0  0  0  0  0  0  0  0  0  0
   -1.3352    1.0547   -0.6982 H   0  0  0  0  0  0  0  0  0  0  0  0
    0.1507    0.8527    1.6909 H   0  0  0  0  0  0  0  0  0  0  0  0
   -0.5211   -1.8407    1.2507 H   0  0  0  0  0  0  0  0  0  0  0  0
    2.6966   -0.7975   -0.8267 H   0  0  0  0  0  0  0  0  0  0  0  0
    2.7360    0.0864    0.7165 H   0  0  0  0  0  0  0  0  0  0  0  0
    0.3468    1.4269   -2.1342 H   0  0  0  0  0  0  0  0  0  0  0  0
    1.9597    1.8640   -1.3766 H   0  0  0  0  0  0  0  0  0  0  0  0
    0.4290    2.3662   -0.6295 H   0  0  0  0  0  0  0  0  0  0  0  0
   -0.2598   -1.3232   -1.4625 H   0  0  0  0  0  0  0  0  0  0  0  0
  1  2  1  0
  2  3  1  0
  3  4  1  0
  4  5  1  0
  5  6  1  0
  6  7  1  0
  7  8  1  0
  7  9  1  0
  9  2  1  0
  7  3  1  0
  9  4  1  0
  1 10  1  0
  1 11  1  0
  1 12  1  0
  2 13  1  0
  3 14  1  0
  4 15  1  0
  6 16  1  0
  6 17  1  0
  8 18  1  0
  8 19  1  0
  8 20  1  0
  9 21  1  0
M  END
