
     RDKit          3D

 21 23  0  0  0  0  0  0  0  0999 V2000
    1.9182   -0.1620    1.1285 C   0  0  0  0  0  0  0  0  0  0  0  0
    1.2015    0.1064   -0.1792 C   0  0  0  0  0  0  0  0  0  0  0  0
    0.4457    1.3824   -0.1983 C   0  0  0  0  0  0  0  0  0  0  0  0
   -0.9102    1.0321   -0.7863 C   0  0  0  0  0  0  0  0  0  0  0  0
   -1.8109    0.9734    0.2435 O   0  0  0  0  0  0  0  0  0  0  0  0
   -1.7538   -0.2762    0.8210 C   0  0  0  0  0  0  0  0  0  0  0  0
   -1.0554   -1.2038   -0.1188 C   0  0  0  0  0  0  0  0  0  0  0  0
    0.3100   -1.0081   -0.5903 C   0  0  0  0  0  0  0  0  0  0  0  0
   -0.7954   -0.3739   -1.3173 C   0  0  0  0  0  0  0  0  0  0  0  0
    2.3965    0.7544    1.4989 H   0  0  0  0  0  0  0  0  0  0  0  0
    2.6997   -0.9416    0.8839 H   0  0  0  0  0  0  0  0  0  0  0  0
    1.2195   -0.5169    1.8953 H   0  0  0  0  0  0  0  0  0  0  0  0
    2.0182    0.1860   -0.9555 H   0  0  0  0  0  0  0  0  0  0  0  0
    0.8823    2.1722   -0.8309 H   0  0  0  0  0  0  0  0  0  0  0  0
    0.3448    1.8236    0.8311 H   0  0  0  0  0  0  0  0  0  0  0  0
   -1.1926    1.6892   -1.6118 H   0  0  0  0  0  0  0  0  0  0  0  0
   -1.3225   -0.2676    1.8477 H   0  0  0  0  0  0  0  0  0  0  0  0
   -2.8152   -0.6183    0.9500 H   0  0  0  0  0  0  0  0  0  0  0  0
   -1.4877   -2.2211   -0.1843 H   0  0  0  0  0  0  0  0  0  0  0  0
    0.8335   -1.8910   -1.0118 H   0  0  0  0  0  0  0  0  0  0  0  0
   -1.1262   -0.6392   -2.3155 H   0  0  0  0  0  0  0  0  0  0  0  0
  1  2  1  0
  2  3  1  0
  3  4  1  0
  4  5  1  0
  5  6  1  0
  6  7  1  0
  7  8  1  0
  8  9  1  0
  8  2  1  0
  9  4  1  0
  9  7  1  0
  1 10  1  0
  1 11  1  0
  1 12  1  0
  2 13  1  0
  3 14  1  0
  3 15  1  0
  4 16  1  0
  6 17  1  0
  6 18  1  0
  7 19  1  0
  8 20  1  0
  9 21  1  0
M  END
