
     RDKit          3D

 19 20  0  0  0  0  0  0  0  0999 V2000
   -0.8142   -1.5735   -0.7441 C   0  0  0  0  0  0  0  0  0  0  0  0
   -0.7034   -0.0949   -0.7245 C   0  0  0  0  0  0  0  0  0  0  0  0
   -1.5281    0.4738    0.4400 C   0  0  0  0  0  0  0  0  0  0  0  0
   -0.4293    1.5451    0.5233 C   0  0  0  0  0  0  0  0  0  0  0  0
    0.4749    0.5392   -0.1239 C   0  0  0  0  0  0  0  0  0  0  0  0
    1.3756   -0.2278    0.7557 C   0  0  0  0  0  0  0  0  0  0  0  0
    2.3756    0.1715   -0.2723 C   0  0  0  0  0  0  0  0  0  0  0  0
    3.5790   -0.1259   -0.4884 O   0  0  0  0  0  0  0  0  0  0  0  0
    1.4906    1.0182   -0.9378 O   0  0  0  0  0  0  0  0  0  0  0  0
   -0.2700   -2.0577   -1.5657 H   0  0  0  0  0  0  0  0  0  0  0  0
   -0.5586   -1.9878    0.2515 H   0  0  0  0  0  0  0  0  0  0  0  0
   -1.9053   -1.8275   -0.8890 H   0  0  0  0  0  0  0  0  0  0  0  0
   -0.9732    0.3747   -1.7080 H   0  0  0  0  0  0  0  0  0  0  0  0
   -1.4852   -0.2319    1.2866 H   0  0  0  0  0  0  0  0  0  0  0  0
   -2.5134    0.8468    0.1673 H   0  0  0  0  0  0  0  0  0  0  0  0
   -0.7468    2.3867   -0.1427 H   0  0  0  0  0  0  0  0  0  0  0  0
   -0.1871    1.8348    1.5593 H   0  0  0  0  0  0  0  0  0  0  0  0
    1.2648   -1.2985    0.8526 H   0  0  0  0  0  0  0  0  0  0  0  0
    1.5541    0.2347    1.7602 H   0  0  0  0  0  0  0  0  0  0  0  0
  1  2  1  0
  2  3  1  0
  3  4  1  0
  4  5  1  0
  5  6  1  0
  6  7  1  0
  7  8  2  0
  7  9  1  0
  5  2  1  0
  9  5  1  0
  1 10  1  0
  1 11  1  0
  1 12  1  0
  2 13  1  0
  3 14  1  0
  3 15  1  0
  4 16  1  0
  4 17  1  0
  6 18  1  0
  6 19  1  0
M  END
