
     RDKit          3D

 19 20  0  0  0  0  0  0  0  0999 V2000
   -1.8616   -0.9443   -0.2412 C   0  0  0  0  0  0  0  0  0  0  0  0
   -0.8919    0.0418    0.4026 C   0  0  0  0  0  0  0  0  0  0  0  0
   -1.0333    1.4309   -0.1422 C   0  0  0  0  0  0  0  0  0  0  0  0
    0.4099    1.6388    0.1816 C   0  0  0  0  0  0  0  0  0  0  0  0
    0.2885    0.3016   -0.4458 C   0  0  0  0  0  0  0  0  0  0  0  0
    1.3001   -0.5665   -0.8033 C   0  0  0  0  0  0  0  0  0  0  0  0
    2.0525   -1.1134    0.3602 C   0  0  0  0  0  0  0  0  0  0  0  0
    1.8119   -0.8338    1.5011 O   0  0  0  0  0  0  0  0  0  0  0  0
   -0.6057    0.9074   -1.3547 O   0  0  0  0  0  0  0  0  0  0  0  0
   -2.7323   -1.1392    0.4240 H   0  0  0  0  0  0  0  0  0  0  0  0
   -1.3247   -1.8761   -0.5079 H   0  0  0  0  0  0  0  0  0  0  0  0
   -2.2831   -0.5269   -1.1771 H   0  0  0  0  0  0  0  0  0  0  0  0
   -0.7586   -0.0647    1.4770 H   0  0  0  0  0  0  0  0  0  0  0  0
   -1.7994    2.0703    0.0071 H   0  0  0  0  0  0  0  0  0  0  0  0
    0.8656    2.4353   -0.4281 H   0  0  0  0  0  0  0  0  0  0  0  0
    0.6910    1.6255    1.2507 H   0  0  0  0  0  0  0  0  0  0  0  0
    0.9311   -1.4610   -1.3695 H   0  0  0  0  0  0  0  0  0  0  0  0
    2.0772   -0.1219   -1.4775 H   0  0  0  0  0  0  0  0  0  0  0  0
    2.8628   -1.8038    0.1492 H   0  0  0  0  0  0  0  0  0  0  0  0
  1  2  1  0
  2  3  1  0
  3  4  1  0
  4  5  1  0
  5  6  1  0
  6  7  1  0
  7  8  2  0
  5  9  1  0
  5  2  1  0
  9  3  1  0
  1 10  1  0
  1 11  1  0
  1 12  1  0
  2 13  1  0
  3 14  1  0
  4 15  1  0
  4 16  1  0
  6 17  1  0
  6 18  1  0
  7 19  1  0
M  END
