
     RDKit          3D

 19 20  0  0  0  0  0  0  0  0999 V2000
   -2.2075    0.6455    0.5050 C   0  0  0  0  0  0  0  0  0  0  0  0
   -1.0715    0.3090   -0.4047 C   0  0  0  0  0  0  0  0  0  0  0  0
    0.1003    1.2169   -0.3491 C   0  0  0  0  0  0  0  0  0  0  0  0
    0.2040    2.4208   -0.4323 O   0  0  0  0  0  0  0  0  0  0  0  0
    1.0667    0.1310   -0.1594 C   0  0  0  0  0  0  0  0  0  0  0  0
    2.1130    0.2351    0.9076 C   0  0  0  0  0  0  0  0  0  0  0  0
    0.9154   -1.1858   -0.8104 C   0  0  0  0  0  0  0  0  0  0  0  0
   -0.1525   -0.7908    0.1159 C   0  0  0  0  0  0  0  0  0  0  0  0
   -0.2320   -1.1879    1.4150 O   0  0  0  0  0  0  0  0  0  0  0  0
   -1.9204    1.1865    1.4068 H   0  0  0  0  0  0  0  0  0  0  0  0
   -2.9019    1.3116   -0.0633 H   0  0  0  0  0  0  0  0  0  0  0  0
   -2.7962   -0.2676    0.7334 H   0  0  0  0  0  0  0  0  0  0  0  0
   -1.3841    0.1714   -1.4668 H   0  0  0  0  0  0  0  0  0  0  0  0
    1.6998   -0.1578    1.8679 H   0  0  0  0  0  0  0  0  0  0  0  0
    2.9414   -0.4573    0.6321 H   0  0  0  0  0  0  0  0  0  0  0  0
    2.5173    1.2584    1.0414 H   0  0  0  0  0  0  0  0  0  0  0  0
    0.5979   -1.2696   -1.8892 H   0  0  0  0  0  0  0  0  0  0  0  0
    1.5785   -1.9902   -0.5036 H   0  0  0  0  0  0  0  0  0  0  0  0
   -1.0680   -1.5791    1.7044 H   0  0  0  0  0  0  0  0  0  0  0  0
  1  2  1  0
  2  3  1  0
  3  4  2  0
  3  5  1  0
  5  6  1  0
  5  7  1  0
  7  8  1  0
  8  9  1  0
  8  2  1  0
  8  5  1  0
  1 10  1  0
  1 11  1  0
  1 12  1  0
  2 13  1  0
  6 14  1  0
  6 15  1  0
  6 16  1  0
  7 17  1  0
  7 18  1  0
  9 19  1  0
M  END
