
     RDKit          3D

 21 21  0  0  0  0  0  0  0  0999 V2000
   -2.0574   -0.3777    0.3620 C   0  0  0  0  0  0  0  0  0  0  0  0
   -0.8310   -0.2402   -0.5130 C   0  0  0  0  0  0  0  0  0  0  0  0
   -0.4919    1.1710   -0.8253 C   0  0  0  0  0  0  0  0  0  0  0  0
    0.8172    1.6190   -0.3026 C   0  0  0  0  0  0  0  0  0  0  0  0
    1.4942    1.0274    0.6724 C   0  0  0  0  0  0  0  0  0  0  0  0
    0.8879   -0.1821    1.2878 C   0  0  0  0  0  0  0  0  0  0  0  0
    0.2868   -0.9996    0.1710 C   0  0  0  0  0  0  0  0  0  0  0  0
    1.2694   -1.3782   -0.8532 C   0  0  0  0  0  0  0  0  0  0  0  0
    0.9674   -1.4455   -2.0292 O   0  0  0  0  0  0  0  0  0  0  0  0
   -1.8578   -0.1185    1.4217 H   0  0  0  0  0  0  0  0  0  0  0  0
   -2.9016    0.2483    0.0264 H   0  0  0  0  0  0  0  0  0  0  0  0
   -2.3518   -1.4460    0.3515 H   0  0  0  0  0  0  0  0  0  0  0  0
   -1.0563   -0.8062   -1.4518 H   0  0  0  0  0  0  0  0  0  0  0  0
   -1.2834    1.8977   -0.4832 H   0  0  0  0  0  0  0  0  0  0  0  0
   -0.4554    1.3196   -1.9420 H   0  0  0  0  0  0  0  0  0  0  0  0
    1.2644    2.4999   -0.7468 H   0  0  0  0  0  0  0  0  0  0  0  0
    2.4664    1.4070    1.0204 H   0  0  0  0  0  0  0  0  0  0  0  0
    1.6234   -0.8095    1.8142 H   0  0  0  0  0  0  0  0  0  0  0  0
    0.0958    0.1142    1.9716 H   0  0  0  0  0  0  0  0  0  0  0  0
   -0.1764   -1.8936    0.6312 H   0  0  0  0  0  0  0  0  0  0  0  0
    2.2900   -1.6070   -0.5831 H   0  0  0  0  0  0  0  0  0  0  0  0
  1  2  1  0
  2  3  1  0
  3  4  1  0
  4  5  2  0
  5  6  1  0
  6  7  1  0
  7  8  1  0
  8  9  2  0
  7  2  1  0
  1 10  1  0
  1 11  1  0
  1 12  1  0
  2 13  1  0
  3 14  1  0
  3 15  1  0
  4 16  1  0
  5 17  1  0
  6 18  1  0
  6 19  1  0
  7 20  1  0
  8 21  1  0
M  END
