
     RDKit          3D

 21 23  0  0  0  0  0  0  0  0999 V2000
    2.2817   -0.5655    0.2760 C   0  0  0  0  0  0  0  0  0  0  0  0
    0.9423   -0.1050   -0.2093 C   0  0  0  0  0  0  0  0  0  0  0  0
    0.4972    1.1865    0.4818 C   0  0  0  0  0  0  0  0  0  0  0  0
   -0.9951    1.0282    0.4155 C   0  0  0  0  0  0  0  0  0  0  0  0
   -1.3879    0.6785   -1.0315 C   0  0  0  0  0  0  0  0  0  0  0  0
   -1.3336   -0.8200   -0.8759 C   0  0  0  0  0  0  0  0  0  0  0  0
   -2.1568   -0.9918    0.2608 O   0  0  0  0  0  0  0  0  0  0  0  0
   -1.1582   -0.3776    0.9728 C   0  0  0  0  0  0  0  0  0  0  0  0
   -0.1680   -1.0765    0.0389 C   0  0  0  0  0  0  0  0  0  0  0  0
    3.0545    0.0845   -0.2241 H   0  0  0  0  0  0  0  0  0  0  0  0
    2.4506   -1.5826   -0.1168 H   0  0  0  0  0  0  0  0  0  0  0  0
    2.4289   -0.4896    1.3568 H   0  0  0  0  0  0  0  0  0  0  0  0
    1.0300    0.0595   -1.3103 H   0  0  0  0  0  0  0  0  0  0  0  0
    0.8863    2.0783   -0.0036 H   0  0  0  0  0  0  0  0  0  0  0  0
    0.7890    1.0762    1.5502 H   0  0  0  0  0  0  0  0  0  0  0  0
   -1.5915    1.7799    0.8665 H   0  0  0  0  0  0  0  0  0  0  0  0
   -0.6832    1.0777   -1.7558 H   0  0  0  0  0  0  0  0  0  0  0  0
   -2.4063    1.0354   -1.2661 H   0  0  0  0  0  0  0  0  0  0  0  0
   -1.5052   -1.4497   -1.7145 H   0  0  0  0  0  0  0  0  0  0  0  0
   -1.0456   -0.5289    2.0161 H   0  0  0  0  0  0  0  0  0  0  0  0
    0.0710   -2.0977    0.2725 H   0  0  0  0  0  0  0  0  0  0  0  0
  1  2  1  0
  2  3  1  0
  3  4  1  0
  4  5  1  0
  5  6  1  0
  6  7  1  0
  7  8  1  0
  8  9  1  0
  9  2  1  0
  8  4  1  0
  9  6  1  0
  1 10  1  0
  1 11  1  0
  1 12  1  0
  2 13  1  0
  3 14  1  0
  3 15  1  0
  4 16  1  0
  5 17  1  0
  5 18  1  0
  6 19  1  0
  8 20  1  0
  9 21  1  0
M  END
