
     RDKit          3D

 23 23  0  0  0  0  0  0  0  0999 V2000
    2.0381    0.9429   -0.9080 C   0  0  0  0  0  0  0  0  0  0  0  0
    1.0536    0.6825    0.1892 C   0  0  0  0  0  0  0  0  0  0  0  0
    1.7661   -0.0012    1.3585 C   0  0  0  0  0  0  0  0  0  0  0  0
    0.6369   -0.8037    1.5103 O   0  0  0  0  0  0  0  0  0  0  0  0
    0.3451   -0.6423    0.1514 C   0  0  0  0  0  0  0  0  0  0  0  0
   -1.1439   -0.5830   -0.0393 C   0  0  0  0  0  0  0  0  0  0  0  0
   -1.8041    0.5236    0.7024 C   0  0  0  0  0  0  0  0  0  0  0  0
   -1.5366   -0.4991   -1.4968 C   0  0  0  0  0  0  0  0  0  0  0  0
   -1.6718   -1.7967    0.4398 O   0  0  0  0  0  0  0  0  0  0  0  0
    1.7393    0.3988   -1.8269 H   0  0  0  0  0  0  0  0  0  0  0  0
    2.0393    2.0446   -1.1540 H   0  0  0  0  0  0  0  0  0  0  0  0
    3.0808    0.6406   -0.6431 H   0  0  0  0  0  0  0  0  0  0  0  0
    0.4728    1.5368    0.5580 H   0  0  0  0  0  0  0  0  0  0  0  0
    2.6429   -0.6137    1.0557 H   0  0  0  0  0  0  0  0  0  0  0  0
    1.9391    0.6779    2.2181 H   0  0  0  0  0  0  0  0  0  0  0  0
    0.8217   -1.3613   -0.5242 H   0  0  0  0  0  0  0  0  0  0  0  0
   -1.7939    1.4958    0.1546 H   0  0  0  0  0  0  0  0  0  0  0  0
   -2.8953    0.2634    0.7974 H   0  0  0  0  0  0  0  0  0  0  0  0
   -1.4359    0.6704    1.7351 H   0  0  0  0  0  0  0  0  0  0  0  0
   -1.7826    0.5277   -1.7961 H   0  0  0  0  0  0  0  0  0  0  0  0
   -0.7619   -0.9733   -2.1245 H   0  0  0  0  0  0  0  0  0  0  0  0
   -2.4730   -1.1002   -1.6794 H   0  0  0  0  0  0  0  0  0  0  0  0
   -1.2768   -2.0307    1.3218 H   0  0  0  0  0  0  0  0  0  0  0  0
  1  2  1  0
  2  3  1  0
  3  4  1  0
  4  5  1  0
  5  6  1  0
  6  7  1  0
  6  8  1  0
  6  9  1  0
  5  2  1  0
  1 10  1  0
  1 11  1  0
  1 12  1  0
  2 13  1  0
  3 14  1  0
  3 15  1  0
  5 16  1  0
  7 17  1  0
  7 18  1  0
  7 19  1  0
  8 20  1  0
  8 21  1  0
  8 22  1  0
  9 23  1  0
M  END
