
     RDKit          3D

 15 15  0  0  0  0  0  0  0  0999 V2000
    1.9391   -0.3481   -0.0948 C   0  0  0  0  0  0  0  0  0  0  0  0
    0.5459    0.0926   -0.4600 C   0  0  0  0  0  0  0  0  0  0  0  0
   -0.1491    0.6832    0.7733 C   0  0  0  0  0  0  0  0  0  0  0  0
   -1.5310    0.6046    0.2956 C   0  0  0  0  0  0  0  0  0  0  0  0
   -2.4252    1.3601    0.4772 O   0  0  0  0  0  0  0  0  0  0  0  0
   -1.5673   -0.6424   -0.4746 C   0  0  0  0  0  0  0  0  0  0  0  0
   -0.2671   -0.9580   -0.8455 O   0  0  0  0  0  0  0  0  0  0  0  0
    2.5136    0.5915    0.1329 H   0  0  0  0  0  0  0  0  0  0  0  0
    1.8775   -0.8918    0.8699 H   0  0  0  0  0  0  0  0  0  0  0  0
    2.3837   -0.9227   -0.9076 H   0  0  0  0  0  0  0  0  0  0  0  0
    0.5846    0.8463   -1.2652 H   0  0  0  0  0  0  0  0  0  0  0  0
    0.0437   -0.0397    1.5899 H   0  0  0  0  0  0  0  0  0  0  0  0
    0.2066    1.6979    0.9934 H   0  0  0  0  0  0  0  0  0  0  0  0
   -1.8852   -1.4567    0.2405 H   0  0  0  0  0  0  0  0  0  0  0  0
   -2.2698   -0.6168   -1.3250 H   0  0  0  0  0  0  0  0  0  0  0  0
  1  2  1  0
  2  3  1  0
  3  4  1  0
  4  5  2  0
  4  6  1  0
  6  7  1  0
  7  2  1  0
  1  8  1  0
  1  9  1  0
  1 10  1  0
  2 11  1  0
  3 12  1  0
  3 13  1  0
  6 14  1  0
  6 15  1  0
M  END
