
     RDKit          3D

 19 20  0  0  0  0  0  0  0  0999 V2000
    2.3381   -0.5811    0.8159 C   0  0  0  0  0  0  0  0  0  0  0  0
    0.8692   -0.2134    0.7941 C   0  0  0  0  0  0  0  0  0  0  0  0
    0.4418    1.1107    0.3094 C   0  0  0  0  0  0  0  0  0  0  0  0
   -0.9476    1.4111   -0.1183 C   0  0  0  0  0  0  0  0  0  0  0  0
   -1.1688    0.0118   -0.6550 C   0  0  0  0  0  0  0  0  0  0  0  0
   -1.5675   -0.0339   -1.9898 O   0  0  0  0  0  0  0  0  0  0  0  0
   -1.9007   -0.9082    0.2352 C   0  0  0  0  0  0  0  0  0  0  0  0
   -2.7646   -1.6293   -0.2745 O   0  0  0  0  0  0  0  0  0  0  0  0
    0.3064   -0.1693   -0.5637 C   0  0  0  0  0  0  0  0  0  0  0  0
    2.6384   -1.0974    1.7331 H   0  0  0  0  0  0  0  0  0  0  0  0
    2.9075    0.3736    0.7085 H   0  0  0  0  0  0  0  0  0  0  0  0
    2.6173   -1.1931   -0.0741 H   0  0  0  0  0  0  0  0  0  0  0  0
    0.3034   -0.7061    1.6003 H   0  0  0  0  0  0  0  0  0  0  0  0
    1.2150    1.8263    0.0473 H   0  0  0  0  0  0  0  0  0  0  0  0
   -1.6164    1.6631    0.7290 H   0  0  0  0  0  0  0  0  0  0  0  0
   -1.0398    2.1387   -0.9503 H   0  0  0  0  0  0  0  0  0  0  0  0
   -1.8982   -0.9488   -2.1588 H   0  0  0  0  0  0  0  0  0  0  0  0
   -1.6735   -0.9318    1.2823 H   0  0  0  0  0  0  0  0  0  0  0  0
    0.9400   -0.1231   -1.4708 H   0  0  0  0  0  0  0  0  0  0  0  0
  1  2  1  0
  2  3  1  0
  3  4  1  0
  4  5  1  0
  5  6  1  0
  5  7  1  0
  7  8  2  0
  5  9  1  0
  9  2  1  0
  9  3  1  0
  1 10  1  0
  1 11  1  0
  1 12  1  0
  2 13  1  0
  3 14  1  0
  4 15  1  0
  4 16  1  0
  6 17  1  0
  7 18  1  0
  9 19  1  0
M  END
