
     RDKit          3D

 21 22  0  0  0  0  0  0  0  0999 V2000
   -1.8684   -1.1325   -0.7089 C   0  0  0  0  0  0  0  0  0  0  0  0
   -0.9229    0.0281   -0.5766 C   0  0  0  0  0  0  0  0  0  0  0  0
   -1.6648    1.0940    0.2409 C   0  0  0  0  0  0  0  0  0  0  0  0
   -0.6040    1.9109    0.5915 O   0  0  0  0  0  0  0  0  0  0  0  0
    0.3263    1.0319    1.1405 C   0  0  0  0  0  0  0  0  0  0  0  0
    0.2546   -0.2377    0.2906 C   0  0  0  0  0  0  0  0  0  0  0  0
    1.4868   -0.3084   -0.5680 C   0  0  0  0  0  0  0  0  0  0  0  0
    2.8171   -0.5620    0.0133 C   0  0  0  0  0  0  0  0  0  0  0  0
    2.4185    0.7232   -0.4449 O   0  0  0  0  0  0  0  0  0  0  0  0
   -2.7182   -0.7744   -1.3533 H   0  0  0  0  0  0  0  0  0  0  0  0
   -2.3092   -1.3185    0.2890 H   0  0  0  0  0  0  0  0  0  0  0  0
   -1.4295   -2.0151   -1.1797 H   0  0  0  0  0  0  0  0  0  0  0  0
   -0.6600    0.4955   -1.5326 H   0  0  0  0  0  0  0  0  0  0  0  0
   -2.4133    1.5538   -0.3936 H   0  0  0  0  0  0  0  0  0  0  0  0
   -2.0682    0.6194    1.1553 H   0  0  0  0  0  0  0  0  0  0  0  0
    1.3232    1.5121    1.0476 H   0  0  0  0  0  0  0  0  0  0  0  0
    0.0938    0.7956    2.1798 H   0  0  0  0  0  0  0  0  0  0  0  0
    0.1259   -1.1260    0.9407 H   0  0  0  0  0  0  0  0  0  0  0  0
    1.3183   -0.5949   -1.6345 H   0  0  0  0  0  0  0  0  0  0  0  0
    3.5687   -1.0971   -0.6144 H   0  0  0  0  0  0  0  0  0  0  0  0
    2.9252   -0.5977    1.1175 H   0  0  0  0  0  0  0  0  0  0  0  0
  1  2  1  0
  2  3  1  0
  3  4  1  0
  4  5  1  0
  5  6  1  0
  6  7  1  0
  7  8  1  0
  8  9  1  0
  6  2  1  0
  9  7  1  0
  1 10  1  0
  1 11  1  0
  1 12  1  0
  2 13  1  0
  3 14  1  0
  3 15  1  0
  5 16  1  0
  5 17  1  0
  6 18  1  0
  7 19  1  0
  8 20  1  0
  8 21  1  0
M  END
