
     RDKit          3D

 25 25  0  0  0  0  0  0  0  0999 V2000
    2.6854   -0.0905    0.8537 C   0  0  0  0  0  0  0  0  0  0  0  0
    1.4722   -0.2931   -0.0640 C   0  0  0  0  0  0  0  0  0  0  0  0
    0.2588   -0.2158    0.7941 C   0  0  0  0  0  0  0  0  0  0  0  0
   -0.9533   -0.1914   -0.1014 C   0  0  0  0  0  0  0  0  0  0  0  0
   -2.1696   -0.0679    0.7895 C   0  0  0  0  0  0  0  0  0  0  0  0
   -1.0648   -1.4123   -0.9656 C   0  0  0  0  0  0  0  0  0  0  0  0
   -0.8377    1.0151   -0.9944 C   0  0  0  0  0  0  0  0  0  0  0  0
    0.5249    1.3408   -1.4361 C   0  0  0  0  0  0  0  0  0  0  0  0
    1.5396    0.5229   -1.1183 O   0  0  0  0  0  0  0  0  0  0  0  0
    2.7242   -0.9219    1.5934 H   0  0  0  0  0  0  0  0  0  0  0  0
    2.5885    0.8857    1.3350 H   0  0  0  0  0  0  0  0  0  0  0  0
    3.5900   -0.0862    0.2216 H   0  0  0  0  0  0  0  0  0  0  0  0
    1.5667   -1.3601   -0.4205 H   0  0  0  0  0  0  0  0  0  0  0  0
    0.2289   -1.1043    1.4447 H   0  0  0  0  0  0  0  0  0  0  0  0
    0.2791    0.7052    1.3753 H   0  0  0  0  0  0  0  0  0  0  0  0
   -2.6888   -1.0456    0.9173 H   0  0  0  0  0  0  0  0  0  0  0  0
   -1.8832    0.2723    1.8182 H   0  0  0  0  0  0  0  0  0  0  0  0
   -2.9069    0.6665    0.4138 H   0  0  0  0  0  0  0  0  0  0  0  0
   -1.0085   -1.1521   -2.0580 H   0  0  0  0  0  0  0  0  0  0  0  0
   -2.0996   -1.8509   -0.8493 H   0  0  0  0  0  0  0  0  0  0  0  0
   -0.2785   -2.1621   -0.7940 H   0  0  0  0  0  0  0  0  0  0  0  0
   -1.5335    0.8375   -1.8579 H   0  0  0  0  0  0  0  0  0  0  0  0
   -1.3240    1.8639   -0.4278 H   0  0  0  0  0  0  0  0  0  0  0  0
    0.5155    1.4625   -2.5612 H   0  0  0  0  0  0  0  0  0  0  0  0
    0.7746    2.3819   -1.0715 H   0  0  0  0  0  0  0  0  0  0  0  0
  1  2  1  0
  2  3  1  0
  3  4  1  0
  4  5  1  0
  4  6  1  0
  4  7  1  0
  7  8  1  0
  8  9  1  0
  9  2  1  0
  1 10  1  0
  1 11  1  0
  1 12  1  0
  2 13  1  0
  3 14  1  0
  3 15  1  0
  5 16  1  0
  5 17  1  0
  5 18  1  0
  6 19  1  0
  6 20  1  0
  6 21  1  0
  7 22  1  0
  7 23  1  0
  8 24  1  0
  8 25  1  0
M  END
