
     RDKit          3D

 21 22  0  0  0  0  0  0  0  0999 V2000
   -2.1347   -0.9802   -0.5847 C   0  0  0  0  0  0  0  0  0  0  0  0
   -0.8050   -0.6804    0.0161 C   0  0  0  0  0  0  0  0  0  0  0  0
   -0.7539    0.5355    0.9323 C   0  0  0  0  0  0  0  0  0  0  0  0
    0.4986    0.4197    1.7666 C   0  0  0  0  0  0  0  0  0  0  0  0
    1.5746    0.0264    1.0959 C   0  0  0  0  0  0  0  0  0  0  0  0
    1.5556   -0.1955   -0.3664 C   0  0  0  0  0  0  0  0  0  0  0  0
    2.5241    0.5046   -1.0486 O   0  0  0  0  0  0  0  0  0  0  0  0
    0.1634    0.0801   -0.8876 C   0  0  0  0  0  0  0  0  0  0  0  0
   -0.3974    1.3615   -0.2619 C   0  0  0  0  0  0  0  0  0  0  0  0
   -2.5516   -1.9400   -0.1785 H   0  0  0  0  0  0  0  0  0  0  0  0
   -2.8735   -0.1839   -0.4031 H   0  0  0  0  0  0  0  0  0  0  0  0
   -1.9899   -1.1233   -1.6846 H   0  0  0  0  0  0  0  0  0  0  0  0
   -0.3674   -1.5761    0.4868 H   0  0  0  0  0  0  0  0  0  0  0  0
   -1.6592    0.7696    1.4754 H   0  0  0  0  0  0  0  0  0  0  0  0
    0.4751    0.6460    2.8087 H   0  0  0  0  0  0  0  0  0  0  0  0
    2.4992   -0.1391    1.6305 H   0  0  0  0  0  0  0  0  0  0  0  0
    1.7515   -1.2839   -0.5489 H   0  0  0  0  0  0  0  0  0  0  0  0
    3.2781   -0.0700   -1.3583 H   0  0  0  0  0  0  0  0  0  0  0  0
    0.0037   -0.0294   -1.9541 H   0  0  0  0  0  0  0  0  0  0  0  0
    0.4546    2.0829   -0.1097 H   0  0  0  0  0  0  0  0  0  0  0  0
   -1.2459    1.7756   -0.8262 H   0  0  0  0  0  0  0  0  0  0  0  0
  1  2  1  0
  2  3  1  0
  3  4  1  0
  4  5  2  0
  5  6  1  0
  6  7  1  0
  6  8  1  0
  8  9  1  0
  8  2  1  0
  9  3  1  0
  1 10  1  0
  1 11  1  0
  1 12  1  0
  2 13  1  0
  3 14  1  0
  4 15  1  0
  5 16  1  0
  6 17  1  0
  7 18  1  0
  8 19  1  0
  9 20  1  0
  9 21  1  0
M  END
