
     RDKit          3D

 19 19  0  0  0  0  0  0  0  0999 V2000
    2.3989    0.1461    1.2865 C   0  0  0  0  0  0  0  0  0  0  0  0
    1.3818   -0.6918    0.5810 C   0  0  0  0  0  0  0  0  0  0  0  0
    0.9217   -0.1149   -0.7400 C   0  0  0  0  0  0  0  0  0  0  0  0
   -0.0303    0.5715    0.2309 C   0  0  0  0  0  0  0  0  0  0  0  0
   -1.3245    0.8144   -0.4086 C   0  0  0  0  0  0  0  0  0  0  0  0
   -1.4353    1.7903   -1.1309 O   0  0  0  0  0  0  0  0  0  0  0  0
   -2.5130   -0.0581   -0.2300 C   0  0  0  0  0  0  0  0  0  0  0  0
   -2.2608   -1.1280    0.6094 O   0  0  0  0  0  0  0  0  0  0  0  0
    0.0762   -0.5333    1.0417 O   0  0  0  0  0  0  0  0  0  0  0  0
    2.3541    1.2097    1.0527 H   0  0  0  0  0  0  0  0  0  0  0  0
    3.4161   -0.2102    1.0198 H   0  0  0  0  0  0  0  0  0  0  0  0
    2.3262    0.0172    2.4043 H   0  0  0  0  0  0  0  0  0  0  0  0
    1.6882   -1.7476    0.4281 H   0  0  0  0  0  0  0  0  0  0  0  0
    0.3627   -0.7935   -1.3803 H   0  0  0  0  0  0  0  0  0  0  0  0
    1.6340    0.5559   -1.2407 H   0  0  0  0  0  0  0  0  0  0  0  0
    0.3769    1.5129    0.6541 H   0  0  0  0  0  0  0  0  0  0  0  0
   -3.3660    0.5105    0.1977 H   0  0  0  0  0  0  0  0  0  0  0  0
   -2.8817   -0.4313   -1.2282 H   0  0  0  0  0  0  0  0  0  0  0  0
   -3.1253   -1.4195    0.9834 H   0  0  0  0  0  0  0  0  0  0  0  0
  1  2  1  0
  2  3  1  0
  3  4  1  0
  4  5  1  0
  5  6  2  0
  5  7  1  0
  7  8  1  0
  4  9  1  0
  9  2  1  0
  1 10  1  0
  1 11  1  0
  1 12  1  0
  2 13  1  0
  3 14  1  0
  3 15  1  0
  4 16  1  0
  7 17  1  0
  7 18  1  0
  8 19  1  0
M  END
