
     RDKit          3D

 23 24  0  0  0  0  0  0  0  0999 V2000
    2.2463    0.1560    0.0232 C   0  0  0  0  0  0  0  0  0  0  0  0
    1.1288   -0.5890    0.6724 C   0  0  0  0  0  0  0  0  0  0  0  0
    0.4360   -1.5455   -0.2738 C   0  0  0  0  0  0  0  0  0  0  0  0
   -0.3768   -0.6912   -1.1966 C   0  0  0  0  0  0  0  0  0  0  0  0
   -1.0773   -0.4395    0.1071 C   0  0  0  0  0  0  0  0  0  0  0  0
   -2.4792   -0.0628    0.1160 C   0  0  0  0  0  0  0  0  0  0  0  0
   -0.7635   -1.7824    0.4350 O   0  0  0  0  0  0  0  0  0  0  0  0
   -0.0868    0.3136    0.9428 C   0  0  0  0  0  0  0  0  0  0  0  0
    0.1576    1.7155    0.4964 C   0  0  0  0  0  0  0  0  0  0  0  0
    3.0498   -0.5811   -0.1883 H   0  0  0  0  0  0  0  0  0  0  0  0
    2.6129    0.9252    0.7332 H   0  0  0  0  0  0  0  0  0  0  0  0
    1.9567    0.5953   -0.9335 H   0  0  0  0  0  0  0  0  0  0  0  0
    1.4334   -1.0904    1.5858 H   0  0  0  0  0  0  0  0  0  0  0  0
    0.9672   -2.3879   -0.6439 H   0  0  0  0  0  0  0  0  0  0  0  0
   -0.9368   -1.2886   -1.9331 H   0  0  0  0  0  0  0  0  0  0  0  0
    0.1089    0.1584   -1.6728 H   0  0  0  0  0  0  0  0  0  0  0  0
   -2.6642    0.9817    0.3579 H   0  0  0  0  0  0  0  0  0  0  0  0
   -3.0231   -0.6660    0.9020 H   0  0  0  0  0  0  0  0  0  0  0  0
   -2.9682   -0.3202   -0.8456 H   0  0  0  0  0  0  0  0  0  0  0  0
   -0.3538    0.3233    2.0081 H   0  0  0  0  0  0  0  0  0  0  0  0
    0.3868    1.8433   -0.5610 H   0  0  0  0  0  0  0  0  0  0  0  0
   -0.7316    2.3109    0.7297 H   0  0  0  0  0  0  0  0  0  0  0  0
    0.9770    2.1216    1.1550 H   0  0  0  0  0  0  0  0  0  0  0  0
  1  2  1  0
  2  3  1  0
  3  4  1  0
  4  5  1  0
  5  6  1  0
  5  7  1  0
  5  8  1  0
  8  9  1  0
  8  2  1  0
  7  3  1  0
  1 10  1  0
  1 11  1  0
  1 12  1  0
  2 13  1  0
  3 14  1  0
  4 15  1  0
  4 16  1  0
  6 17  1  0
  6 18  1  0
  6 19  1  0
  8 20  1  0
  9 21  1  0
  9 22  1  0
  9 23  1  0
M  END
