
     RDKit          3D

 17 18  0  0  0  0  0  0  0  0999 V2000
    2.2800   -0.0666    0.0540 C   0  0  0  0  0  0  0  0  0  0  0  0
    0.8147    0.1052   -0.1893 C   0  0  0  0  0  0  0  0  0  0  0  0
   -0.0147   -1.0600    0.2989 C   0  0  0  0  0  0  0  0  0  0  0  0
   -1.4445   -0.8375   -0.0508 C   0  0  0  0  0  0  0  0  0  0  0  0
   -1.5349   -0.1888   -1.3855 O   0  0  0  0  0  0  0  0  0  0  0  0
   -1.8880    0.4954   -0.2245 C   0  0  0  0  0  0  0  0  0  0  0  0
   -1.0094    1.5717    0.2850 C   0  0  0  0  0  0  0  0  0  0  0  0
   -1.4264    2.7385    0.5095 O   0  0  0  0  0  0  0  0  0  0  0  0
    0.3317    1.2570    0.5186 O   0  0  0  0  0  0  0  0  0  0  0  0
    2.5989   -1.0908   -0.1635 H   0  0  0  0  0  0  0  0  0  0  0  0
    2.4762    0.2348    1.1219 H   0  0  0  0  0  0  0  0  0  0  0  0
    2.8040    0.6780   -0.6145 H   0  0  0  0  0  0  0  0  0  0  0  0
    0.6079    0.2284   -1.2704 H   0  0  0  0  0  0  0  0  0  0  0  0
    0.1734   -1.1576    1.3814 H   0  0  0  0  0  0  0  0  0  0  0  0
    0.3622   -1.9725   -0.2317 H   0  0  0  0  0  0  0  0  0  0  0  0
   -2.1628   -1.6751   -0.0507 H   0  0  0  0  0  0  0  0  0  0  0  0
   -2.9681    0.7401   -0.1408 H   0  0  0  0  0  0  0  0  0  0  0  0
  1  2  1  0
  2  3  1  0
  3  4  1  0
  4  5  1  0
  5  6  1  0
  6  7  1  0
  7  8  2  0
  7  9  1  0
  9  2  1  0
  6  4  1  0
  1 10  1  0
  1 11  1  0
  1 12  1  0
  2 13  1  0
  3 14  1  0
  3 15  1  0
  4 16  1  0
  6 17  1  0
M  END
