
     RDKit          3D

 23 24  0  0  0  0  0  0  0  0999 V2000
    2.3266    0.1239   -0.6318 C   0  0  0  0  0  0  0  0  0  0  0  0
    1.1800    0.3590    0.2567 C   0  0  0  0  0  0  0  0  0  0  0  0
    0.1778    1.4310   -0.1816 C   0  0  0  0  0  0  0  0  0  0  0  0
   -0.8586    0.5479    0.5427 C   0  0  0  0  0  0  0  0  0  0  0  0
   -2.1948    0.6740   -0.0848 C   0  0  0  0  0  0  0  0  0  0  0  0
   -0.7978    0.8897    1.9114 O   0  0  0  0  0  0  0  0  0  0  0  0
    0.0115   -0.5788    0.1744 C   0  0  0  0  0  0  0  0  0  0  0  0
    0.0042   -1.9315    0.6267 C   0  0  0  0  0  0  0  0  0  0  0  0
   -0.2222   -1.5401   -0.8673 C   0  0  0  0  0  0  0  0  0  0  0  0
    2.1671   -0.8203   -1.2103 H   0  0  0  0  0  0  0  0  0  0  0  0
    3.2381   -0.0924   -0.0006 H   0  0  0  0  0  0  0  0  0  0  0  0
    2.6163    0.9445   -1.2963 H   0  0  0  0  0  0  0  0  0  0  0  0
    1.4587    0.5672    1.3132 H   0  0  0  0  0  0  0  0  0  0  0  0
    0.3214    2.4126    0.2611 H   0  0  0  0  0  0  0  0  0  0  0  0
   -0.0579    1.3856   -1.2662 H   0  0  0  0  0  0  0  0  0  0  0  0
   -2.5953   -0.2658   -0.4677 H   0  0  0  0  0  0  0  0  0  0  0  0
   -2.1844    1.3921   -0.9455 H   0  0  0  0  0  0  0  0  0  0  0  0
   -2.9112    1.0355    0.7030 H   0  0  0  0  0  0  0  0  0  0  0  0
   -1.0324    1.8425    1.9791 H   0  0  0  0  0  0  0  0  0  0  0  0
   -0.8621   -2.3304    1.1678 H   0  0  0  0  0  0  0  0  0  0  0  0
    1.0087   -2.4182    0.8104 H   0  0  0  0  0  0  0  0  0  0  0  0
    0.4957   -1.9250   -1.5943 H   0  0  0  0  0  0  0  0  0  0  0  0
   -1.2896   -1.7030   -1.2002 H   0  0  0  0  0  0  0  0  0  0  0  0
  1  2  1  0
  2  3  1  0
  3  4  1  0
  4  5  1  0
  4  6  1  0
  4  7  1  0
  7  8  1  0
  8  9  1  0
  7  2  1  0
  9  7  1  0
  1 10  1  0
  1 11  1  0
  1 12  1  0
  2 13  1  0
  3 14  1  0
  3 15  1  0
  5 16  1  0
  5 17  1  0
  5 18  1  0
  6 19  1  0
  8 20  1  0
  8 21  1  0
  9 22  1  0
  9 23  1  0
M  END
