
     RDKit          3D

 20 21  0  0  0  0  0  0  0  0999 V2000
   -2.5074    0.2989   -0.1312 C   0  0  0  0  0  0  0  0  0  0  0  0
   -1.3286   -0.1120    0.7648 C   0  0  0  0  0  0  0  0  0  0  0  0
   -0.1458    0.6491    0.6841 C   0  0  0  0  0  0  0  0  0  0  0  0
    0.5825    1.3014   -0.4262 C   0  0  0  0  0  0  0  0  0  0  0  0
    1.8839    0.5710   -0.4833 C   0  0  0  0  0  0  0  0  0  0  0  0
    2.0874   -0.6471    0.0006 C   0  0  0  0  0  0  0  0  0  0  0  0
    0.9817   -1.4366    0.6784 C   0  0  0  0  0  0  0  0  0  0  0  0
   -0.2657   -0.8260    0.1656 C   0  0  0  0  0  0  0  0  0  0  0  0
   -3.0488   -0.5975   -0.5095 H   0  0  0  0  0  0  0  0  0  0  0  0
   -3.2018    0.9179    0.4612 H   0  0  0  0  0  0  0  0  0  0  0  0
   -2.1621    0.8904   -0.9965 H   0  0  0  0  0  0  0  0  0  0  0  0
   -1.7178   -0.4029    1.7711 H   0  0  0  0  0  0  0  0  0  0  0  0
    0.4282    0.7920    1.6499 H   0  0  0  0  0  0  0  0  0  0  0  0
    0.7153    2.3880   -0.3131 H   0  0  0  0  0  0  0  0  0  0  0  0
    0.0453    1.0865   -1.3788 H   0  0  0  0  0  0  0  0  0  0  0  0
    2.7272    1.0548   -0.9477 H   0  0  0  0  0  0  0  0  0  0  0  0
    3.0524   -1.1306   -0.0675 H   0  0  0  0  0  0  0  0  0  0  0  0
    1.0872   -2.4852    0.3532 H   0  0  0  0  0  0  0  0  0  0  0  0
    1.1038   -1.3512    1.7772 H   0  0  0  0  0  0  0  0  0  0  0  0
   -0.3171   -0.9609   -0.9566 H   0  0  0  0  0  0  0  0  0  0  0  0
  1  2  1  0
  2  3  1  0
  3  4  1  0
  4  5  1  0
  5  6  2  0
  6  7  1  0
  7  8  1  0
  8  2  1  0
  8  3  1  0
  1  9  1  0
  1 10  1  0
  1 11  1  0
  2 12  1  0
  3 13  1  0
  4 14  1  0
  4 15  1  0
  5 16  1  0
  6 17  1  0
  7 18  1  0
  7 19  1  0
  8 20  1  0
M  END
