
     RDKit          3D

 21 22  0  0  0  0  0  0  0  0999 V2000
   -2.4637   -0.2342   -0.6551 C   0  0  0  0  0  0  0  0  0  0  0  0
   -1.3955   -0.5384    0.3565 C   0  0  0  0  0  0  0  0  0  0  0  0
   -1.3203    0.6446    1.2836 C   0  0  0  0  0  0  0  0  0  0  0  0
   -0.0662    0.9757    1.5456 C   0  0  0  0  0  0  0  0  0  0  0  0
    0.8111    0.0605    0.8303 C   0  0  0  0  0  0  0  0  0  0  0  0
    1.8891    0.7130   -0.0030 C   0  0  0  0  0  0  0  0  0  0  0  0
    2.1653   -0.4551   -0.9676 C   0  0  0  0  0  0  0  0  0  0  0  0
    0.7650   -0.8459   -1.2776 C   0  0  0  0  0  0  0  0  0  0  0  0
   -0.0334   -0.5550   -0.2615 C   0  0  0  0  0  0  0  0  0  0  0  0
   -2.9474   -1.1480   -0.9948 H   0  0  0  0  0  0  0  0  0  0  0  0
   -2.0458    0.3950   -1.4707 H   0  0  0  0  0  0  0  0  0  0  0  0
   -3.2594    0.4013   -0.1782 H   0  0  0  0  0  0  0  0  0  0  0  0
   -1.5473   -1.4497    0.9281 H   0  0  0  0  0  0  0  0  0  0  0  0
   -2.1651    1.1719    1.6950 H   0  0  0  0  0  0  0  0  0  0  0  0
    0.2797    1.7822    2.1781 H   0  0  0  0  0  0  0  0  0  0  0  0
    1.2415   -0.7563    1.4355 H   0  0  0  0  0  0  0  0  0  0  0  0
    2.7739    1.0035    0.5558 H   0  0  0  0  0  0  0  0  0  0  0  0
    1.4475    1.5146   -0.6294 H   0  0  0  0  0  0  0  0  0  0  0  0
    2.6644   -1.2322   -0.3342 H   0  0  0  0  0  0  0  0  0  0  0  0
    2.7464   -0.1462   -1.8320 H   0  0  0  0  0  0  0  0  0  0  0  0
    0.4599   -1.3012   -2.2044 H   0  0  0  0  0  0  0  0  0  0  0  0
  1  2  1  0
  2  3  1  0
  3  4  2  0
  4  5  1  0
  5  6  1  0
  6  7  1  0
  7  8  1  0
  8  9  2  0
  9  2  1  0
  9  5  1  0
  1 10  1  0
  1 11  1  0
  1 12  1  0
  2 13  1  0
  3 14  1  0
  4 15  1  0
  5 16  1  0
  6 17  1  0
  6 18  1  0
  7 19  1  0
  7 20  1  0
  8 21  1  0
M  END
