
     RDKit          3D

 19 19  0  0  0  0  0  0  0  0999 V2000
   -1.4725   -1.0595    0.4871 C   0  0  0  0  0  0  0  0  0  0  0  0
   -0.8690   -0.3204   -0.6897 C   0  0  0  0  0  0  0  0  0  0  0  0
    0.4746   -0.8554   -1.0250 C   0  0  0  0  0  0  0  0  0  0  0  0
    1.6348   -0.7101   -0.3608 C   0  0  0  0  0  0  0  0  0  0  0  0
    1.8065    0.0479    0.8944 C   0  0  0  0  0  0  0  0  0  0  0  0
    1.3264    1.3441    0.7455 O   0  0  0  0  0  0  0  0  0  0  0  0
    0.0813    1.7661    0.3366 C   0  0  0  0  0  0  0  0  0  0  0  0
   -0.2536    2.8819    0.8132 O   0  0  0  0  0  0  0  0  0  0  0  0
   -0.8985    1.1560   -0.5370 C   0  0  0  0  0  0  0  0  0  0  0  0
   -2.2521   -1.7831    0.1876 H   0  0  0  0  0  0  0  0  0  0  0  0
   -0.6854   -1.5961    1.0487 H   0  0  0  0  0  0  0  0  0  0  0  0
   -1.9651   -0.3362    1.1765 H   0  0  0  0  0  0  0  0  0  0  0  0
   -1.5259   -0.5723   -1.5694 H   0  0  0  0  0  0  0  0  0  0  0  0
    0.6030   -1.4548   -1.9182 H   0  0  0  0  0  0  0  0  0  0  0  0
    2.5080   -1.1869   -0.7815 H   0  0  0  0  0  0  0  0  0  0  0  0
    1.3171   -0.4515    1.7537 H   0  0  0  0  0  0  0  0  0  0  0  0
    2.9097    0.1079    1.1291 H   0  0  0  0  0  0  0  0  0  0  0  0
   -1.9209    1.4189   -0.1341 H   0  0  0  0  0  0  0  0  0  0  0  0
   -0.8185    1.6036   -1.5567 H   0  0  0  0  0  0  0  0  0  0  0  0
  1  2  1  0
  2  3  1  0
  3  4  2  0
  4  5  1  0
  5  6  1  0
  6  7  1  0
  7  8  2  0
  7  9  1  0
  9  2  1  0
  1 10  1  0
  1 11  1  0
  1 12  1  0
  2 13  1  0
  3 14  1  0
  4 15  1  0
  5 16  1  0
  5 17  1  0
  9 18  1  0
  9 19  1  0
M  END
