
     RDKit          3D

 21 22  0  0  0  0  0  0  0  0999 V2000
   -0.6910    2.1410   -0.1585 C   0  0  0  0  0  0  0  0  0  0  0  0
   -0.6311    0.7305   -0.6266 C   0  0  0  0  0  0  0  0  0  0  0  0
    0.5418   -0.0940   -0.2912 C   0  0  0  0  0  0  0  0  0  0  0  0
    1.7060    0.5399    0.4322 C   0  0  0  0  0  0  0  0  0  0  0  0
    0.8311   -1.3996   -0.9479 C   0  0  0  0  0  0  0  0  0  0  0  0
   -0.3971   -2.0007   -1.1789 O   0  0  0  0  0  0  0  0  0  0  0  0
   -1.1715   -1.6910   -0.0683 C   0  0  0  0  0  0  0  0  0  0  0  0
   -0.7522   -0.3281    0.4069 C   0  0  0  0  0  0  0  0  0  0  0  0
   -0.8978    0.0529    1.7111 O   0  0  0  0  0  0  0  0  0  0  0  0
   -1.3547    2.2294    0.7337 H   0  0  0  0  0  0  0  0  0  0  0  0
    0.2786    2.5938    0.0934 H   0  0  0  0  0  0  0  0  0  0  0  0
   -1.1634    2.8098   -0.9304 H   0  0  0  0  0  0  0  0  0  0  0  0
   -1.1616    0.5309   -1.5863 H   0  0  0  0  0  0  0  0  0  0  0  0
    2.3281    1.0427   -0.3610 H   0  0  0  0  0  0  0  0  0  0  0  0
    2.3531   -0.2237    0.9386 H   0  0  0  0  0  0  0  0  0  0  0  0
    1.3886    1.2555    1.2019 H   0  0  0  0  0  0  0  0  0  0  0  0
    1.3582   -2.0575   -0.1986 H   0  0  0  0  0  0  0  0  0  0  0  0
    1.4682   -1.3594   -1.8263 H   0  0  0  0  0  0  0  0  0  0  0  0
   -2.2351   -1.6535   -0.4406 H   0  0  0  0  0  0  0  0  0  0  0  0
   -1.0725   -2.4742    0.7187 H   0  0  0  0  0  0  0  0  0  0  0  0
   -0.7257   -0.6446    2.3779 H   0  0  0  0  0  0  0  0  0  0  0  0
  1  2  1  0
  2  3  1  0
  3  4  1  0
  3  5  1  0
  5  6  1  0
  6  7  1  0
  7  8  1  0
  8  9  1  0
  8  2  1  0
  8  3  1  0
  1 10  1  0
  1 11  1  0
  1 12  1  0
  2 13  1  0
  4 14  1  0
  4 15  1  0
  4 16  1  0
  5 17  1  0
  5 18  1  0
  7 19  1  0
  7 20  1  0
  9 21  1  0
M  END
