
     RDKit          3D

 19 20  0  0  0  0  0  0  0  0999 V2000
   -1.9003    0.0097   -0.8171 C   0  0  0  0  0  0  0  0  0  0  0  0
   -0.9643    0.3570    0.3000 C   0  0  0  0  0  0  0  0  0  0  0  0
   -0.6778   -0.9176    1.1058 C   0  0  0  0  0  0  0  0  0  0  0  0
    0.5518   -0.7162    1.6896 O   0  0  0  0  0  0  0  0  0  0  0  0
    1.3003    0.0692    0.8414 C   0  0  0  0  0  0  0  0  0  0  0  0
    1.2777   -0.4036   -0.6050 C   0  0  0  0  0  0  0  0  0  0  0  0
    2.4773   -0.2110   -1.2623 O   0  0  0  0  0  0  0  0  0  0  0  0
    0.4228    0.7034   -0.1567 C   0  0  0  0  0  0  0  0  0  0  0  0
    0.6355    1.9496   -0.6772 O   0  0  0  0  0  0  0  0  0  0  0  0
   -1.6077    0.6162   -1.7046 H   0  0  0  0  0  0  0  0  0  0  0  0
   -2.9477    0.3340   -0.5793 H   0  0  0  0  0  0  0  0  0  0  0  0
   -1.8667   -1.0766   -1.0000 H   0  0  0  0  0  0  0  0  0  0  0  0
   -1.3850    1.1001    1.0140 H   0  0  0  0  0  0  0  0  0  0  0  0
   -1.4231   -1.0193    1.9174 H   0  0  0  0  0  0  0  0  0  0  0  0
   -0.7381   -1.8031    0.4565 H   0  0  0  0  0  0  0  0  0  0  0  0
    2.1414    0.6560    1.2135 H   0  0  0  0  0  0  0  0  0  0  0  0
    0.8074   -1.3892   -0.8337 H   0  0  0  0  0  0  0  0  0  0  0  0
    3.1037   -0.9186   -0.9065 H   0  0  0  0  0  0  0  0  0  0  0  0
    0.7927    2.6600    0.0042 H   0  0  0  0  0  0  0  0  0  0  0  0
  1  2  1  0
  2  3  1  0
  3  4  1  0
  4  5  1  0
  5  6  1  0
  6  7  1  0
  6  8  1  0
  8  9  1  0
  8  2  1  0
  8  5  1  0
  1 10  1  0
  1 11  1  0
  1 12  1  0
  2 13  1  0
  3 14  1  0
  3 15  1  0
  5 16  1  0
  6 17  1  0
  7 18  1  0
  9 19  1  0
M  END
