
     RDKit          3D

 18 19  0  0  0  0  0  0  0  0999 V2000
    2.3049   -0.0384    0.5124 C   0  0  0  0  0  0  0  0  0  0  0  0
    1.1629    0.4312   -0.4026 C   0  0  0  0  0  0  0  0  0  0  0  0
    0.1383   -0.4880   -0.6641 C   0  0  0  0  0  0  0  0  0  0  0  0
   -0.8402   -1.2394    0.1714 C   0  0  0  0  0  0  0  0  0  0  0  0
   -1.9900   -0.2918    0.0695 C   0  0  0  0  0  0  0  0  0  0  0  0
   -3.1314   -0.5882    0.2801 O   0  0  0  0  0  0  0  0  0  0  0  0
   -1.4467    1.0381   -0.3302 C   0  0  0  0  0  0  0  0  0  0  0  0
   -0.0445    0.8563    0.1552 C   0  0  0  0  0  0  0  0  0  0  0  0
    2.7085   -0.9974    0.1805 H   0  0  0  0  0  0  0  0  0  0  0  0
    1.9090   -0.1137    1.5446 H   0  0  0  0  0  0  0  0  0  0  0  0
    3.1249    0.7082    0.5448 H   0  0  0  0  0  0  0  0  0  0  0  0
    1.6061    1.0287   -1.2468 H   0  0  0  0  0  0  0  0  0  0  0  0
   -0.2700   -0.4647   -1.7237 H   0  0  0  0  0  0  0  0  0  0  0  0
   -0.5225   -1.4040    1.2143 H   0  0  0  0  0  0  0  0  0  0  0  0
   -1.1559   -2.1869   -0.3188 H   0  0  0  0  0  0  0  0  0  0  0  0
   -1.4787    1.1537   -1.4329 H   0  0  0  0  0  0  0  0  0  0  0  0
   -1.9599    1.8756    0.1637 H   0  0  0  0  0  0  0  0  0  0  0  0
   -0.1146    0.7208    1.2825 H   0  0  0  0  0  0  0  0  0  0  0  0
  1  2  1  0
  2  3  1  0
  3  4  1  0
  4  5  1  0
  5  6  2  0
  5  7  1  0
  7  8  1  0
  8  2  1  0
  8  3  1  0
  1  9  1  0
  1 10  1  0
  1 11  1  0
  2 12  1  0
  3 13  1  0
  4 14  1  0
  4 15  1  0
  7 16  1  0
  7 17  1  0
  8 18  1  0
M  END
