
     RDKit          3D

 21 22  0  0  0  0  0  0  0  0999 V2000
    2.1784    0.3095   -0.7722 C   0  0  0  0  0  0  0  0  0  0  0  0
    1.2571    0.3956    0.3906 C   0  0  0  0  0  0  0  0  0  0  0  0
    0.9831   -0.9289    1.1071 C   0  0  0  0  0  0  0  0  0  0  0  0
   -0.0754   -0.1349    0.4816 C   0  0  0  0  0  0  0  0  0  0  0  0
   -1.0665    0.5850    1.4059 C   0  0  0  0  0  0  0  0  0  0  0  0
   -2.2539    0.6609    0.7301 O   0  0  0  0  0  0  0  0  0  0  0  0
   -2.0308    0.4917   -0.6110 C   0  0  0  0  0  0  0  0  0  0  0  0
   -0.9460   -0.5943   -0.6081 C   0  0  0  0  0  0  0  0  0  0  0  0
   -0.3763   -0.7801   -1.8289 O   0  0  0  0  0  0  0  0  0  0  0  0
    2.9107    1.1698   -0.8123 H   0  0  0  0  0  0  0  0  0  0  0  0
    1.7024    0.2843   -1.7566 H   0  0  0  0  0  0  0  0  0  0  0  0
    2.8278   -0.5920   -0.6453 H   0  0  0  0  0  0  0  0  0  0  0  0
    1.5286    1.2222    1.1121 H   0  0  0  0  0  0  0  0  0  0  0  0
    1.3335   -1.8610    0.5875 H   0  0  0  0  0  0  0  0  0  0  0  0
    1.0131   -0.9473    2.2115 H   0  0  0  0  0  0  0  0  0  0  0  0
   -1.1359   -0.0806    2.3134 H   0  0  0  0  0  0  0  0  0  0  0  0
   -0.7007    1.5702    1.6987 H   0  0  0  0  0  0  0  0  0  0  0  0
   -1.6254    1.4173   -1.0908 H   0  0  0  0  0  0  0  0  0  0  0  0
   -2.9452    0.1314   -1.1210 H   0  0  0  0  0  0  0  0  0  0  0  0
   -1.4853   -1.5271   -0.2756 H   0  0  0  0  0  0  0  0  0  0  0  0
   -1.0932   -0.7917   -2.5167 H   0  0  0  0  0  0  0  0  0  0  0  0
  1  2  1  0
  2  3  1  0
  3  4  1  0
  4  5  1  0
  5  6  1  0
  6  7  1  0
  7  8  1  0
  8  9  1  0
  4  2  1  0
  8  4  1  0
  1 10  1  0
  1 11  1  0
  1 12  1  0
  2 13  1  0
  3 14  1  0
  3 15  1  0
  5 16  1  0
  5 17  1  0
  7 18  1  0
  7 19  1  0
  8 20  1  0
  9 21  1  0
M  END
