
     RDKit          3D

 21 23  0  0  0  0  0  0  0  0999 V2000
   -2.0434   -0.6718    0.0565 C   0  0  0  0  0  0  0  0  0  0  0  0
   -0.6681   -0.6545   -0.4891 C   0  0  0  0  0  0  0  0  0  0  0  0
   -0.1018    0.7027   -0.7543 C   0  0  0  0  0  0  0  0  0  0  0  0
   -0.4683    1.6926    0.3319 C   0  0  0  0  0  0  0  0  0  0  0  0
    1.4159    0.4613   -0.6717 C   0  0  0  0  0  0  0  0  0  0  0  0
    1.8009    0.0882    0.7478 C   0  0  0  0  0  0  0  0  0  0  0  0
    0.7687   -0.4559    1.4824 O   0  0  0  0  0  0  0  0  0  0  0  0
    0.3582   -1.2956    0.4434 C   0  0  0  0  0  0  0  0  0  0  0  0
    1.6193   -0.9226   -0.2842 C   0  0  0  0  0  0  0  0  0  0  0  0
   -2.6643    0.0425   -0.5076 H   0  0  0  0  0  0  0  0  0  0  0  0
   -2.4883   -1.6868   -0.1631 H   0  0  0  0  0  0  0  0  0  0  0  0
   -2.1418   -0.5105    1.1305 H   0  0  0  0  0  0  0  0  0  0  0  0
   -0.6498   -1.2503   -1.4358 H   0  0  0  0  0  0  0  0  0  0  0  0
   -0.3750    1.1363   -1.7137 H   0  0  0  0  0  0  0  0  0  0  0  0
   -1.1257    2.5078   -0.0507 H   0  0  0  0  0  0  0  0  0  0  0  0
   -1.0284    1.1989    1.1425 H   0  0  0  0  0  0  0  0  0  0  0  0
    0.4509    2.1154    0.8078 H   0  0  0  0  0  0  0  0  0  0  0  0
    2.0803    1.0637   -1.2871 H   0  0  0  0  0  0  0  0  0  0  0  0
    2.7354    0.4062    1.1804 H   0  0  0  0  0  0  0  0  0  0  0  0
    0.1985   -2.3386    0.6845 H   0  0  0  0  0  0  0  0  0  0  0  0
    2.3269   -1.6291   -0.6501 H   0  0  0  0  0  0  0  0  0  0  0  0
  1  2  1  0
  2  3  1  0
  3  4  1  0
  3  5  1  0
  5  6  1  0
  6  7  1  0
  7  8  1  0
  8  9  1  0
  8  2  1  0
  9  5  1  0
  9  6  1  0
  1 10  1  0
  1 11  1  0
  1 12  1  0
  2 13  1  0
  3 14  1  0
  4 15  1  0
  4 16  1  0
  4 17  1  0
  5 18  1  0
  6 19  1  0
  8 20  1  0
  9 21  1  0
M  END
