
     RDKit          3D

 17 18  0  0  0  0  0  0  0  0999 V2000
   -1.9776   -0.6665   -0.3312 C   0  0  0  0  0  0  0  0  0  0  0  0
   -0.5694   -0.5815    0.1797 C   0  0  0  0  0  0  0  0  0  0  0  0
   -0.2695    0.5036    1.1573 C   0  0  0  0  0  0  0  0  0  0  0  0
    0.6382    1.1504    0.1426 C   0  0  0  0  0  0  0  0  0  0  0  0
    2.0096    0.9984    0.3676 O   0  0  0  0  0  0  0  0  0  0  0  0
    2.5019   -0.1521   -0.1870 C   0  0  0  0  0  0  0  0  0  0  0  0
    3.6336   -0.6736   -0.0156 O   0  0  0  0  0  0  0  0  0  0  0  0
    1.5232   -0.6939   -1.0115 O   0  0  0  0  0  0  0  0  0  0  0  0
    0.3469    0.0470   -0.8566 C   0  0  0  0  0  0  0  0  0  0  0  0
   -2.6333   -1.2027    0.3750 H   0  0  0  0  0  0  0  0  0  0  0  0
   -2.4000    0.2851   -0.6573 H   0  0  0  0  0  0  0  0  0  0  0  0
   -1.9393   -1.3191   -1.2531 H   0  0  0  0  0  0  0  0  0  0  0  0
   -0.2388   -1.5974    0.5163 H   0  0  0  0  0  0  0  0  0  0  0  0
   -1.1028    1.1659    1.4522 H   0  0  0  0  0  0  0  0  0  0  0  0
    0.3417    0.1877    2.0531 H   0  0  0  0  0  0  0  0  0  0  0  0
    0.2893    2.1540   -0.1585 H   0  0  0  0  0  0  0  0  0  0  0  0
   -0.1537    0.3949   -1.7730 H   0  0  0  0  0  0  0  0  0  0  0  0
  1  2  1  0
  2  3  1  0
  3  4  1  0
  4  5  1  0
  5  6  1  0
  6  7  2  0
  6  8  1  0
  8  9  1  0
  9  2  1  0
  9  4  1  0
  1 10  1  0
  1 11  1  0
  1 12  1  0
  2 13  1  0
  3 14  1  0
  3 15  1  0
  4 16  1  0
  9 17  1  0
M  END
