
     RDKit          3D

 17 17  0  0  0  0  0  0  0  0999 V2000
    1.8091    0.1262   -0.2249 C   0  0  0  0  0  0  0  0  0  0  0  0
    0.3471    0.2595   -0.6328 C   0  0  0  0  0  0  0  0  0  0  0  0
   -0.4076   -1.0382   -0.4135 C   0  0  0  0  0  0  0  0  0  0  0  0
    0.3156   -2.0627    0.1470 O   0  0  0  0  0  0  0  0  0  0  0  0
   -1.3390   -0.2944    0.5215 C   0  0  0  0  0  0  0  0  0  0  0  0
   -0.4917    0.9263    0.4322 C   0  0  0  0  0  0  0  0  0  0  0  0
   -1.1100    2.1000    0.0591 O   0  0  0  0  0  0  0  0  0  0  0  0
    1.7858   -0.0955    0.8741 H   0  0  0  0  0  0  0  0  0  0  0  0
    2.2719    1.1085   -0.4068 H   0  0  0  0  0  0  0  0  0  0  0  0
    2.3498   -0.6204   -0.8081 H   0  0  0  0  0  0  0  0  0  0  0  0
    0.2003    0.6168   -1.6609 H   0  0  0  0  0  0  0  0  0  0  0  0
   -0.9543   -1.4012   -1.3124 H   0  0  0  0  0  0  0  0  0  0  0  0
    0.5996   -1.8641    1.0842 H   0  0  0  0  0  0  0  0  0  0  0  0
   -1.3555   -0.7599    1.5414 H   0  0  0  0  0  0  0  0  0  0  0  0
   -2.3470   -0.1224    0.0782 H   0  0  0  0  0  0  0  0  0  0  0  0
    0.0919    1.1037    1.3771 H   0  0  0  0  0  0  0  0  0  0  0  0
   -1.7659    2.0177   -0.6555 H   0  0  0  0  0  0  0  0  0  0  0  0
  1  2  1  0
  2  3  1  0
  3  4  1  0
  3  5  1  0
  5  6  1  0
  6  7  1  0
  6  2  1  0
  1  8  1  0
  1  9  1  0
  1 10  1  0
  2 11  1  0
  3 12  1  0
  4 13  1  0
  5 14  1  0
  5 15  1  0
  6 16  1  0
  7 17  1  0
M  END
