
     RDKit          3D

 19 20  0  0  0  0  0  0  0  0999 V2000
   -2.4219    0.1433   -0.3707 C   0  0  0  0  0  0  0  0  0  0  0  0
   -1.1667    0.5142    0.3978 C   0  0  0  0  0  0  0  0  0  0  0  0
   -0.1371    1.0288   -0.5195 C   0  0  0  0  0  0  0  0  0  0  0  0
   -0.0137    2.0113   -1.2377 O   0  0  0  0  0  0  0  0  0  0  0  0
    0.7502   -0.1200   -0.2586 C   0  0  0  0  0  0  0  0  0  0  0  0
    2.1334    0.2290    0.2004 C   0  0  0  0  0  0  0  0  0  0  0  0
    2.7844    1.0036   -0.7581 O   0  0  0  0  0  0  0  0  0  0  0  0
    0.2664   -1.5083   -0.3477 C   0  0  0  0  0  0  0  0  0  0  0  0
   -0.2571   -0.6380    0.7241 C   0  0  0  0  0  0  0  0  0  0  0  0
   -3.3238    0.5993    0.0698 H   0  0  0  0  0  0  0  0  0  0  0  0
   -2.5460   -0.9454   -0.3618 H   0  0  0  0  0  0  0  0  0  0  0  0
   -2.3814    0.5287   -1.4300 H   0  0  0  0  0  0  0  0  0  0  0  0
   -1.3628    1.1250    1.2993 H   0  0  0  0  0  0  0  0  0  0  0  0
    2.0591    0.7881    1.1683 H   0  0  0  0  0  0  0  0  0  0  0  0
    2.6957   -0.7299    0.3744 H   0  0  0  0  0  0  0  0  0  0  0  0
    2.2801    0.9185   -1.5989 H   0  0  0  0  0  0  0  0  0  0  0  0
    0.9727   -2.2935   -0.0458 H   0  0  0  0  0  0  0  0  0  0  0  0
   -0.3899   -1.8395   -1.1992 H   0  0  0  0  0  0  0  0  0  0  0  0
    0.0585   -0.8151    1.7649 H   0  0  0  0  0  0  0  0  0  0  0  0
  1  2  1  0
  2  3  1  0
  3  4  2  0
  3  5  1  0
  5  6  1  0
  6  7  1  0
  5  8  1  0
  8  9  1  0
  9  2  1  0
  9  5  1  0
  1 10  1  0
  1 11  1  0
  1 12  1  0
  2 13  1  0
  6 14  1  0
  6 15  1  0
  7 16  1  0
  8 17  1  0
  8 18  1  0
  9 19  1  0
M  END
