
     RDKit          3D

 21 23  0  0  0  0  0  0  0  0999 V2000
    2.2053   -0.3403   -0.5855 C   0  0  0  0  0  0  0  0  0  0  0  0
    1.1553   -0.7776    0.4211 C   0  0  0  0  0  0  0  0  0  0  0  0
    0.8188    0.4698    1.2617 C   0  0  0  0  0  0  0  0  0  0  0  0
   -0.5087    0.8065    0.6768 C   0  0  0  0  0  0  0  0  0  0  0  0
   -0.5071    0.3934   -0.7748 C   0  0  0  0  0  0  0  0  0  0  0  0
   -1.9564    0.0299   -0.5452 C   0  0  0  0  0  0  0  0  0  0  0  0
   -2.7127    1.1726   -0.3721 O   0  0  0  0  0  0  0  0  0  0  0  0
   -1.2450   -0.4914    0.6682 C   0  0  0  0  0  0  0  0  0  0  0  0
   -0.1637   -0.9552   -0.2750 C   0  0  0  0  0  0  0  0  0  0  0  0
    2.1322    0.7475   -0.8017 H   0  0  0  0  0  0  0  0  0  0  0  0
    2.0580   -0.8450   -1.5753 H   0  0  0  0  0  0  0  0  0  0  0  0
    3.2028   -0.5919   -0.1788 H   0  0  0  0  0  0  0  0  0  0  0  0
    1.4651   -1.6168    1.0404 H   0  0  0  0  0  0  0  0  0  0  0  0
    0.6693    0.0773    2.2979 H   0  0  0  0  0  0  0  0  0  0  0  0
    1.5843    1.2367    1.1806 H   0  0  0  0  0  0  0  0  0  0  0  0
   -1.0122    1.7072    0.9546 H   0  0  0  0  0  0  0  0  0  0  0  0
   -0.1387    0.9152   -1.5437 H   0  0  0  0  0  0  0  0  0  0  0  0
   -2.3731   -0.7576   -1.1641 H   0  0  0  0  0  0  0  0  0  0  0  0
   -2.7078    1.6464   -1.2554 H   0  0  0  0  0  0  0  0  0  0  0  0
   -1.6318   -0.9980    1.4382 H   0  0  0  0  0  0  0  0  0  0  0  0
   -0.3339   -1.8287   -0.8678 H   0  0  0  0  0  0  0  0  0  0  0  0
  1  2  1  0
  2  3  1  0
  3  4  1  0
  4  5  1  0
  5  6  1  0
  6  7  1  0
  6  8  1  0
  8  9  1  0
  9  2  1  0
  8  4  1  0
  9  5  1  0
  1 10  1  0
  1 11  1  0
  1 12  1  0
  2 13  1  0
  3 14  1  0
  3 15  1  0
  4 16  1  0
  5 17  1  0
  6 18  1  0
  7 19  1  0
  8 20  1  0
  9 21  1  0
M  END
