
     RDKit          3D

 17 17  0  0  0  0  0  0  0  0999 V2000
   -2.2159   -0.2323    0.6665 C   0  0  0  0  0  0  0  0  0  0  0  0
   -0.8230    0.3038    0.5121 C   0  0  0  0  0  0  0  0  0  0  0  0
    0.1967   -0.7914    0.2879 C   0  0  0  0  0  0  0  0  0  0  0  0
    1.3023   -0.0444   -0.3545 C   0  0  0  0  0  0  0  0  0  0  0  0
    2.7042   -0.4602   -0.3513 C   0  0  0  0  0  0  0  0  0  0  0  0
    3.0900   -1.5160    0.2144 O   0  0  0  0  0  0  0  0  0  0  0  0
    0.8183    1.0447   -0.9228 C   0  0  0  0  0  0  0  0  0  0  0  0
   -0.6351    1.1097   -0.7056 C   0  0  0  0  0  0  0  0  0  0  0  0
   -1.4184    1.7356   -1.4518 O   0  0  0  0  0  0  0  0  0  0  0  0
   -2.1330   -1.2837    1.0100 H   0  0  0  0  0  0  0  0  0  0  0  0
   -2.7145    0.3515    1.4663 H   0  0  0  0  0  0  0  0  0  0  0  0
   -2.7907   -0.2559   -0.2785 H   0  0  0  0  0  0  0  0  0  0  0  0
   -0.5404    0.9367    1.3750 H   0  0  0  0  0  0  0  0  0  0  0  0
   -0.2727   -1.5214   -0.4093 H   0  0  0  0  0  0  0  0  0  0  0  0
    0.5015   -1.2596    1.2431 H   0  0  0  0  0  0  0  0  0  0  0  0
    3.4786    0.1236   -0.8375 H   0  0  0  0  0  0  0  0  0  0  0  0
    1.4521    1.7592   -1.4642 H   0  0  0  0  0  0  0  0  0  0  0  0
  1  2  1  0
  2  3  1  0
  3  4  1  0
  4  5  1  0
  5  6  2  0
  4  7  2  0
  7  8  1  0
  8  9  2  0
  8  2  1  0
  1 10  1  0
  1 11  1  0
  1 12  1  0
  2 13  1  0
  3 14  1  0
  3 15  1  0
  5 16  1  0
  7 17  1  0
M  END
