
     RDKit          3D

 19 20  0  0  0  0  0  0  0  0999 V2000
    2.4468    0.3585   -0.8485 C   0  0  0  0  0  0  0  0  0  0  0  0
    1.3737   -0.4528   -0.2055 C   0  0  0  0  0  0  0  0  0  0  0  0
    0.7558    0.1220    1.0209 C   0  0  0  0  0  0  0  0  0  0  0  0
   -0.0479   -0.1043   -0.2457 C   0  0  0  0  0  0  0  0  0  0  0  0
   -1.1168   -1.1577   -0.2664 C   0  0  0  0  0  0  0  0  0  0  0  0
   -2.3309   -0.3320   -0.6089 C   0  0  0  0  0  0  0  0  0  0  0  0
   -3.3985   -0.7255   -0.9899 O   0  0  0  0  0  0  0  0  0  0  0  0
   -1.8748    1.0792   -0.3576 C   0  0  0  0  0  0  0  0  0  0  0  0
   -0.5547    1.0311   -0.8093 O   0  0  0  0  0  0  0  0  0  0  0  0
    3.3514    0.2963   -0.1757 H   0  0  0  0  0  0  0  0  0  0  0  0
    2.8005   -0.1007   -1.8164 H   0  0  0  0  0  0  0  0  0  0  0  0
    2.1351    1.3978   -1.0308 H   0  0  0  0  0  0  0  0  0  0  0  0
    1.5988   -1.5594   -0.1981 H   0  0  0  0  0  0  0  0  0  0  0  0
    0.4170   -0.5288    1.8570 H   0  0  0  0  0  0  0  0  0  0  0  0
    1.0230    1.1723    1.2997 H   0  0  0  0  0  0  0  0  0  0  0  0
   -1.2301   -1.5642    0.7618 H   0  0  0  0  0  0  0  0  0  0  0  0
   -0.9437   -1.9459   -1.0275 H   0  0  0  0  0  0  0  0  0  0  0  0
   -1.9216    1.1992    0.7588 H   0  0  0  0  0  0  0  0  0  0  0  0
   -2.4832    1.8150   -0.8775 H   0  0  0  0  0  0  0  0  0  0  0  0
  1  2  1  0
  2  3  1  0
  3  4  1  0
  4  5  1  0
  5  6  1  0
  6  7  2  0
  6  8  1  0
  8  9  1  0
  4  2  1  0
  9  4  1  0
  1 10  1  0
  1 11  1  0
  1 12  1  0
  2 13  1  0
  3 14  1  0
  3 15  1  0
  5 16  1  0
  5 17  1  0
  8 18  1  0
  8 19  1  0
M  END
