
     RDKit          3D

 21 21  0  0  0  0  0  0  0  0999 V2000
   -2.5097   -0.1394    0.0083 C   0  0  0  0  0  0  0  0  0  0  0  0
   -1.0757    0.2467    0.2105 C   0  0  0  0  0  0  0  0  0  0  0  0
   -0.4848    0.9863   -0.9633 C   0  0  0  0  0  0  0  0  0  0  0  0
    1.0050    0.8060   -0.7612 C   0  0  0  0  0  0  0  0  0  0  0  0
    1.1849   -0.4355    0.0766 C   0  0  0  0  0  0  0  0  0  0  0  0
    1.8903   -1.4178   -0.5947 O   0  0  0  0  0  0  0  0  0  0  0  0
    1.8973   -0.0524    1.3191 C   0  0  0  0  0  0  0  0  0  0  0  0
    2.9426   -0.5951    1.5990 O   0  0  0  0  0  0  0  0  0  0  0  0
   -0.1957   -0.9742    0.3704 C   0  0  0  0  0  0  0  0  0  0  0  0
   -3.1418    0.7225    0.3149 H   0  0  0  0  0  0  0  0  0  0  0  0
   -2.7388   -0.5254   -0.9879 H   0  0  0  0  0  0  0  0  0  0  0  0
   -2.7386   -0.9523    0.7382 H   0  0  0  0  0  0  0  0  0  0  0  0
   -1.0091    0.8832    1.1140 H   0  0  0  0  0  0  0  0  0  0  0  0
   -0.8382    0.6243   -1.9304 H   0  0  0  0  0  0  0  0  0  0  0  0
   -0.7427    2.0682   -0.8861 H   0  0  0  0  0  0  0  0  0  0  0  0
    1.5286    0.7230   -1.7476 H   0  0  0  0  0  0  0  0  0  0  0  0
    1.4411    1.7051   -0.2646 H   0  0  0  0  0  0  0  0  0  0  0  0
    2.8727   -1.2500   -0.5924 H   0  0  0  0  0  0  0  0  0  0  0  0
    1.5123    0.6980    1.9848 H   0  0  0  0  0  0  0  0  0  0  0  0
   -0.3058   -1.3749    1.3858 H   0  0  0  0  0  0  0  0  0  0  0  0
   -0.4938   -1.7462   -0.3934 H   0  0  0  0  0  0  0  0  0  0  0  0
  1  2  1  0
  2  3  1  0
  3  4  1  0
  4  5  1  0
  5  6  1  0
  5  7  1  0
  7  8  2  0
  5  9  1  0
  9  2  1  0
  1 10  1  0
  1 11  1  0
  1 12  1  0
  2 13  1  0
  3 14  1  0
  3 15  1  0
  4 16  1  0
  4 17  1  0
  6 18  1  0
  7 19  1  0
  9 20  1  0
  9 21  1  0
M  END
