
     RDKit          3D

 19 19  0  0  0  0  0  0  0  0999 V2000
   -2.0943   -1.0367    0.4814 C   0  0  0  0  0  0  0  0  0  0  0  0
   -1.3509   -0.0295   -0.3574 C   0  0  0  0  0  0  0  0  0  0  0  0
   -1.6972    1.3722   -0.1642 C   0  0  0  0  0  0  0  0  0  0  0  0
   -2.6466    2.1285   -0.4287 O   0  0  0  0  0  0  0  0  0  0  0  0
   -0.4885    1.5667    0.4702 O   0  0  0  0  0  0  0  0  0  0  0  0
    0.0062    0.2444    0.2994 C   0  0  0  0  0  0  0  0  0  0  0  0
    1.0825    0.1270   -0.7351 C   0  0  0  0  0  0  0  0  0  0  0  0
    2.4086    0.4042   -0.0489 C   0  0  0  0  0  0  0  0  0  0  0  0
    2.6361   -0.5105    0.9737 O   0  0  0  0  0  0  0  0  0  0  0  0
   -2.6162   -0.5863    1.3433 H   0  0  0  0  0  0  0  0  0  0  0  0
   -2.7888   -1.6310   -0.1664 H   0  0  0  0  0  0  0  0  0  0  0  0
   -1.3388   -1.7609    0.8564 H   0  0  0  0  0  0  0  0  0  0  0  0
   -1.3006   -0.3712   -1.3977 H   0  0  0  0  0  0  0  0  0  0  0  0
    0.1744   -0.2491    1.2542 H   0  0  0  0  0  0  0  0  0  0  0  0
    1.1339   -0.9262   -1.1098 H   0  0  0  0  0  0  0  0  0  0  0  0
    0.8826    0.8551   -1.5257 H   0  0  0  0  0  0  0  0  0  0  0  0
    2.3480    1.4281    0.4232 H   0  0  0  0  0  0  0  0  0  0  0  0
    3.2197    0.4022   -0.7867 H   0  0  0  0  0  0  0  0  0  0  0  0
    2.4299   -1.4270    0.6189 H   0  0  0  0  0  0  0  0  0  0  0  0
  1  2  1  0
  2  3  1  0
  3  4  2  0
  3  5  1  0
  5  6  1  0
  6  7  1  0
  7  8  1  0
  8  9  1  0
  6  2  1  0
  1 10  1  0
  1 11  1  0
  1 12  1  0
  2 13  1  0
  6 14  1  0
  7 15  1  0
  7 16  1  0
  8 17  1  0
  8 18  1  0
  9 19  1  0
M  END
