
     RDKit          3D

 21 22  0  0  0  0  0  0  0  0999 V2000
    2.8371    0.0454    0.1633 C   0  0  0  0  0  0  0  0  0  0  0  0
    1.3587    0.1186   -0.1495 C   0  0  0  0  0  0  0  0  0  0  0  0
    0.7402   -1.2086   -0.2787 C   0  0  0  0  0  0  0  0  0  0  0  0
   -0.5250   -1.5361   -0.0963 C   0  0  0  0  0  0  0  0  0  0  0  0
   -1.7284   -0.7991    0.2733 C   0  0  0  0  0  0  0  0  0  0  0  0
   -2.2730    0.1540   -0.7336 C   0  0  0  0  0  0  0  0  0  0  0  0
   -1.6417    0.5918    0.5969 C   0  0  0  0  0  0  0  0  0  0  0  0
   -0.4078    1.3540    0.4676 C   0  0  0  0  0  0  0  0  0  0  0  0
    0.7520    0.7596    0.9319 O   0  0  0  0  0  0  0  0  0  0  0  0
    2.9760   -0.3614    1.1807 H   0  0  0  0  0  0  0  0  0  0  0  0
    3.4099   -0.4802   -0.6134 H   0  0  0  0  0  0  0  0  0  0  0  0
    3.2061    1.1029    0.1574 H   0  0  0  0  0  0  0  0  0  0  0  0
    1.2650    0.7166   -1.0796 H   0  0  0  0  0  0  0  0  0  0  0  0
    1.4052   -2.0078   -0.5563 H   0  0  0  0  0  0  0  0  0  0  0  0
   -0.6918   -2.6141   -0.2666 H   0  0  0  0  0  0  0  0  0  0  0  0
   -2.5256   -1.4069    0.7808 H   0  0  0  0  0  0  0  0  0  0  0  0
   -1.6905    0.2978   -1.6521 H   0  0  0  0  0  0  0  0  0  0  0  0
   -3.3556    0.2666   -0.8689 H   0  0  0  0  0  0  0  0  0  0  0  0
   -2.4160    1.0103    1.3069 H   0  0  0  0  0  0  0  0  0  0  0  0
   -0.2098    1.6620   -0.5867 H   0  0  0  0  0  0  0  0  0  0  0  0
   -0.4847    2.3347    1.0229 H   0  0  0  0  0  0  0  0  0  0  0  0
  1  2  1  0
  2  3  1  0
  3  4  2  0
  4  5  1  0
  5  6  1  0
  6  7  1  0
  7  8  1  0
  8  9  1  0
  9  2  1  0
  7  5  1  0
  1 10  1  0
  1 11  1  0
  1 12  1  0
  2 13  1  0
  3 14  1  0
  4 15  1  0
  5 16  1  0
  6 17  1  0
  6 18  1  0
  7 19  1  0
  8 20  1  0
  8 21  1  0
M  END
