
     RDKit          3D

 21 22  0  0  0  0  0  0  0  0999 V2000
   -1.0497    1.8579   -0.6004 C   0  0  0  0  0  0  0  0  0  0  0  0
    0.2418    1.1255   -0.4456 C   0  0  0  0  0  0  0  0  0  0  0  0
    0.4078    0.4362    0.8903 C   0  0  0  0  0  0  0  0  0  0  0  0
   -0.7965   -0.2913    1.4090 C   0  0  0  0  0  0  0  0  0  0  0  0
   -0.7728   -1.1777    0.1844 C   0  0  0  0  0  0  0  0  0  0  0  0
   -1.9233   -1.2117   -0.5587 O   0  0  0  0  0  0  0  0  0  0  0  0
    0.3305   -0.3438   -0.3777 C   0  0  0  0  0  0  0  0  0  0  0  0
    1.6137   -1.0143   -0.7826 C   0  0  0  0  0  0  0  0  0  0  0  0
    2.6819   -0.5939    0.0046 O   0  0  0  0  0  0  0  0  0  0  0  0
   -1.3042    2.2969    0.4060 H   0  0  0  0  0  0  0  0  0  0  0  0
   -0.9470    2.7542   -1.2722 H   0  0  0  0  0  0  0  0  0  0  0  0
   -1.9000    1.2483   -0.8925 H   0  0  0  0  0  0  0  0  0  0  0  0
    1.1184    1.6414   -0.8814 H   0  0  0  0  0  0  0  0  0  0  0  0
    1.3212    0.5384    1.4690 H   0  0  0  0  0  0  0  0  0  0  0  0
   -0.5856   -0.8395    2.3489 H   0  0  0  0  0  0  0  0  0  0  0  0
   -1.7378    0.2732    1.4375 H   0  0  0  0  0  0  0  0  0  0  0  0
   -0.4092   -2.1974    0.4412 H   0  0  0  0  0  0  0  0  0  0  0  0
   -2.5803   -1.7799   -0.1242 H   0  0  0  0  0  0  0  0  0  0  0  0
    1.4968   -2.1176   -0.5771 H   0  0  0  0  0  0  0  0  0  0  0  0
    1.8262   -0.9331   -1.8723 H   0  0  0  0  0  0  0  0  0  0  0  0
    2.9679    0.3282   -0.2063 H   0  0  0  0  0  0  0  0  0  0  0  0
  1  2  1  0
  2  3  1  0
  3  4  1  0
  4  5  1  0
  5  6  1  0
  5  7  1  0
  7  8  1  0
  8  9  1  0
  7  2  1  0
  7  3  1  0
  1 10  1  0
  1 11  1  0
  1 12  1  0
  2 13  1  0
  3 14  1  0
  4 15  1  0
  4 16  1  0
  5 17  1  0
  6 18  1  0
  8 19  1  0
  8 20  1  0
  9 21  1  0
M  END
