
     RDKit          3D

 25 26  0  0  0  0  0  0  0  0999 V2000
    2.5044   -0.4554   -0.4391 C   0  0  0  0  0  0  0  0  0  0  0  0
    0.9936   -0.2575   -0.5139 C   0  0  0  0  0  0  0  0  0  0  0  0
    0.3388   -1.5532   -0.1452 C   0  0  0  0  0  0  0  0  0  0  0  0
   -1.0304   -1.4810    0.3808 C   0  0  0  0  0  0  0  0  0  0  0  0
   -1.9588   -0.4828   -0.1572 C   0  0  0  0  0  0  0  0  0  0  0  0
   -1.7748    0.9255    0.4047 C   0  0  0  0  0  0  0  0  0  0  0  0
   -0.5883    1.4979   -0.2535 C   0  0  0  0  0  0  0  0  0  0  0  0
    0.5338    2.2108    0.2932 C   0  0  0  0  0  0  0  0  0  0  0  0
    0.5884    0.7806    0.4510 C   0  0  0  0  0  0  0  0  0  0  0  0
    2.8223   -0.5317    0.6196 H   0  0  0  0  0  0  0  0  0  0  0  0
    3.0214    0.3621   -0.9712 H   0  0  0  0  0  0  0  0  0  0  0  0
    2.7104   -1.4165   -0.9452 H   0  0  0  0  0  0  0  0  0  0  0  0
    0.7442   -0.0312   -1.5735 H   0  0  0  0  0  0  0  0  0  0  0  0
    0.9970   -2.0176    0.6496 H   0  0  0  0  0  0  0  0  0  0  0  0
    0.4440   -2.2578   -1.0178 H   0  0  0  0  0  0  0  0  0  0  0  0
   -1.5095   -2.4936    0.2201 H   0  0  0  0  0  0  0  0  0  0  0  0
   -1.0179   -1.3853    1.5081 H   0  0  0  0  0  0  0  0  0  0  0  0
   -1.8378   -0.3631   -1.2733 H   0  0  0  0  0  0  0  0  0  0  0  0
   -2.9966   -0.7724    0.0667 H   0  0  0  0  0  0  0  0  0  0  0  0
   -1.6705    0.7805    1.5150 H   0  0  0  0  0  0  0  0  0  0  0  0
   -2.6973    1.5286    0.2733 H   0  0  0  0  0  0  0  0  0  0  0  0
   -0.6437    1.4534   -1.3611 H   0  0  0  0  0  0  0  0  0  0  0  0
    0.3577    2.8404    1.1911 H   0  0  0  0  0  0  0  0  0  0  0  0
    1.2328    2.7179   -0.4029 H   0  0  0  0  0  0  0  0  0  0  0  0
    0.4367    0.4015    1.4808 H   0  0  0  0  0  0  0  0  0  0  0  0
  1  2  1  0
  2  3  1  0
  3  4  1  0
  4  5  1  0
  5  6  1  0
  6  7  1  0
  7  8  1  0
  8  9  1  0
  9  2  1  0
  9  7  1  0
  1 10  1  0
  1 11  1  0
  1 12  1  0
  2 13  1  0
  3 14  1  0
  3 15  1  0
  4 16  1  0
  4 17  1  0
  5 18  1  0
  5 19  1  0
  6 20  1  0
  6 21  1  0
  7 22  1  0
  8 23  1  0
  8 24  1  0
  9 25  1  0
M  END
