
     RDKit          3D

 23 24  0  0  0  0  0  0  0  0999 V2000
    2.8002    0.1532    0.6077 C   0  0  0  0  0  0  0  0  0  0  0  0
    1.4994   -0.6101    0.6575 C   0  0  0  0  0  0  0  0  0  0  0  0
    0.8704   -0.9419   -0.7103 C   0  0  0  0  0  0  0  0  0  0  0  0
    0.2780   -0.0157    0.2502 C   0  0  0  0  0  0  0  0  0  0  0  0
    0.0005    1.4176   -0.0369 C   0  0  0  0  0  0  0  0  0  0  0  0
   -1.4842    1.0164   -0.0628 C   0  0  0  0  0  0  0  0  0  0  0  0
   -2.2536    1.9724    0.5449 O   0  0  0  0  0  0  0  0  0  0  0  0
   -1.0671   -0.1509    0.8446 C   0  0  0  0  0  0  0  0  0  0  0  0
   -1.7817   -1.4057    0.4731 C   0  0  0  0  0  0  0  0  0  0  0  0
    3.6830   -0.4914    0.5079 H   0  0  0  0  0  0  0  0  0  0  0  0
    2.7025    0.8940   -0.2243 H   0  0  0  0  0  0  0  0  0  0  0  0
    2.8979    0.7752    1.5364 H   0  0  0  0  0  0  0  0  0  0  0  0
    1.5067   -1.4790    1.3564 H   0  0  0  0  0  0  0  0  0  0  0  0
    1.3487   -0.4702   -1.6075 H   0  0  0  0  0  0  0  0  0  0  0  0
    0.4300   -1.9480   -0.8377 H   0  0  0  0  0  0  0  0  0  0  0  0
    0.2650    2.0841    0.8069 H   0  0  0  0  0  0  0  0  0  0  0  0
    0.3813    1.8090   -0.9817 H   0  0  0  0  0  0  0  0  0  0  0  0
   -1.7377    0.7238   -1.0900 H   0  0  0  0  0  0  0  0  0  0  0  0
   -3.2025    1.7717    0.5317 H   0  0  0  0  0  0  0  0  0  0  0  0
   -1.1915    0.1034    1.9116 H   0  0  0  0  0  0  0  0  0  0  0  0
   -1.3950   -2.2853    0.9863 H   0  0  0  0  0  0  0  0  0  0  0  0
   -2.8862   -1.3171    0.6280 H   0  0  0  0  0  0  0  0  0  0  0  0
   -1.6641   -1.6056   -0.6278 H   0  0  0  0  0  0  0  0  0  0  0  0
  1  2  1  0
  2  3  1  0
  3  4  1  0
  4  5  1  0
  5  6  1  0
  6  7  1  0
  6  8  1  0
  8  9  1  0
  4  2  1  0
  8  4  1  0
  1 10  1  0
  1 11  1  0
  1 12  1  0
  2 13  1  0
  3 14  1  0
  3 15  1  0
  5 16  1  0
  5 17  1  0
  6 18  1  0
  7 19  1  0
  8 20  1  0
  9 21  1  0
  9 22  1  0
  9 23  1  0
M  END
