
     RDKit          3D

 19 21  0  0  0  0  0  0  0  0999 V2000
    1.9995   -0.1040    0.1947 C   0  0  0  0  0  0  0  0  0  0  0  0
    0.7225   -0.2230   -0.5646 C   0  0  0  0  0  0  0  0  0  0  0  0
   -0.2938   -1.0803    0.2213 C   0  0  0  0  0  0  0  0  0  0  0  0
   -0.3789   -0.2356    1.4395 C   0  0  0  0  0  0  0  0  0  0  0  0
   -0.2798    1.0334    1.0640 C   0  0  0  0  0  0  0  0  0  0  0  0
   -0.1383    1.0515   -0.4393 C   0  0  0  0  0  0  0  0  0  0  0  0
   -1.4106    0.5760   -1.0244 C   0  0  0  0  0  0  0  0  0  0  0  0
   -2.4441    0.0869   -0.1372 O   0  0  0  0  0  0  0  0  0  0  0  0
   -1.5162   -0.8516   -0.6324 C   0  0  0  0  0  0  0  0  0  0  0  0
    1.9794    0.6674    0.9711 H   0  0  0  0  0  0  0  0  0  0  0  0
    2.3038   -1.0778    0.6666 H   0  0  0  0  0  0  0  0  0  0  0  0
    2.8200    0.1567   -0.5204 H   0  0  0  0  0  0  0  0  0  0  0  0
    0.8200   -0.5503   -1.5937 H   0  0  0  0  0  0  0  0  0  0  0  0
    0.0119   -2.0901    0.3597 H   0  0  0  0  0  0  0  0  0  0  0  0
   -0.4991   -0.5923    2.4429 H   0  0  0  0  0  0  0  0  0  0  0  0
   -0.2882    1.9387    1.6399 H   0  0  0  0  0  0  0  0  0  0  0  0
    0.3215    1.9249   -0.8334 H   0  0  0  0  0  0  0  0  0  0  0  0
   -1.8493    0.9820   -1.9338 H   0  0  0  0  0  0  0  0  0  0  0  0
   -1.8804   -1.6126   -1.3204 H   0  0  0  0  0  0  0  0  0  0  0  0
  1  2  1  0
  2  3  1  0
  3  4  1  0
  4  5  2  0
  5  6  1  0
  6  7  1  0
  7  8  1  0
  8  9  1  0
  6  2  1  0
  9  7  1  0
  9  3  1  0
  1 10  1  0
  1 11  1  0
  1 12  1  0
  2 13  1  0
  3 14  1  0
  4 15  1  0
  5 16  1  0
  6 17  1  0
  7 18  1  0
  9 19  1  0
M  END
