
     RDKit          3D

 17 19  0  0  0  0  0  0  0  0999 V2000
    2.0359   -0.4488    0.3989 C   0  0  0  0  0  0  0  0  0  0  0  0
    0.9340    0.3929   -0.1798 C   0  0  0  0  0  0  0  0  0  0  0  0
   -0.2410    0.6286    0.7325 C   0  0  0  0  0  0  0  0  0  0  0  0
   -0.5611   -0.8158    0.5401 C   0  0  0  0  0  0  0  0  0  0  0  0
   -1.9836   -0.9389    0.5008 O   0  0  0  0  0  0  0  0  0  0  0  0
   -2.3437    0.2380   -0.1981 C   0  0  0  0  0  0  0  0  0  0  0  0
   -3.4885    0.6670   -0.4791 O   0  0  0  0  0  0  0  0  0  0  0  0
   -1.0485    0.8328   -0.5130 C   0  0  0  0  0  0  0  0  0  0  0  0
   -0.1905   -0.3466   -0.8405 C   0  0  0  0  0  0  0  0  0  0  0  0
    1.9565   -1.4954    0.0292 H   0  0  0  0  0  0  0  0  0  0  0  0
    2.0495   -0.4283    1.5178 H   0  0  0  0  0  0  0  0  0  0  0  0
    3.0112   -0.0171    0.0766 H   0  0  0  0  0  0  0  0  0  0  0  0
    1.2552    1.2931   -0.7427 H   0  0  0  0  0  0  0  0  0  0  0  0
   -0.2573    1.1677    1.5727 H   0  0  0  0  0  0  0  0  0  0  0  0
    0.0064   -1.5750    1.0153 H   0  0  0  0  0  0  0  0  0  0  0  0
   -0.9680    1.7329   -1.0653 H   0  0  0  0  0  0  0  0  0  0  0  0
   -0.1665   -0.8873   -1.6804 H   0  0  0  0  0  0  0  0  0  0  0  0
  1  2  1  0
  2  3  1  0
  3  4  1  0
  4  5  1  0
  5  6  1  0
  6  7  2  0
  6  8  1  0
  8  9  1  0
  9  2  1  0
  8  3  1  0
  9  4  1  0
  1 10  1  0
  1 11  1  0
  1 12  1  0
  2 13  1  0
  3 14  1  0
  4 15  1  0
  8 16  1  0
  9 17  1  0
M  END
