
     RDKit          3D

 21 21  0  0  0  0  0  0  0  0999 V2000
   -1.4708    1.5602   -0.7667 C   0  0  0  0  0  0  0  0  0  0  0  0
   -1.1951    0.1170   -0.4239 C   0  0  0  0  0  0  0  0  0  0  0  0
   -0.9051   -0.0610    1.0804 C   0  0  0  0  0  0  0  0  0  0  0  0
   -1.5549   -1.1467    1.6506 O   0  0  0  0  0  0  0  0  0  0  0  0
    0.1542   -0.3100    0.0341 C   0  0  0  0  0  0  0  0  0  0  0  0
    0.5067   -1.7643   -0.1713 C   0  0  0  0  0  0  0  0  0  0  0  0
    1.2435    0.6987   -0.2130 C   0  0  0  0  0  0  0  0  0  0  0  0
    2.5654    0.2594    0.2586 C   0  0  0  0  0  0  0  0  0  0  0  0
    2.8761    0.3169    1.4252 O   0  0  0  0  0  0  0  0  0  0  0  0
   -1.2152    1.8154   -1.7940 H   0  0  0  0  0  0  0  0  0  0  0  0
   -2.5682    1.7288   -0.5975 H   0  0  0  0  0  0  0  0  0  0  0  0
   -0.9803    2.2497   -0.0172 H   0  0  0  0  0  0  0  0  0  0  0  0
   -1.8807   -0.6177   -0.8973 H   0  0  0  0  0  0  0  0  0  0  0  0
   -0.7544    0.8244    1.7037 H   0  0  0  0  0  0  0  0  0  0  0  0
   -2.0773   -1.6829    0.9826 H   0  0  0  0  0  0  0  0  0  0  0  0
    1.2610   -1.9109   -0.9806 H   0  0  0  0  0  0  0  0  0  0  0  0
    0.8568   -2.1557    0.8053 H   0  0  0  0  0  0  0  0  0  0  0  0
   -0.4024   -2.3109   -0.5415 H   0  0  0  0  0  0  0  0  0  0  0  0
    0.9885    1.6867    0.2442 H   0  0  0  0  0  0  0  0  0  0  0  0
    1.2660    0.8311   -1.3361 H   0  0  0  0  0  0  0  0  0  0  0  0
    3.2860   -0.1284   -0.4457 H   0  0  0  0  0  0  0  0  0  0  0  0
  1  2  1  0
  2  3  1  0
  3  4  1  0
  3  5  1  0
  5  6  1  0
  5  7  1  0
  7  8  1  0
  8  9  2  0
  5  2  1  0
  1 10  1  0
  1 11  1  0
  1 12  1  0
  2 13  1  0
  3 14  1  0
  4 15  1  0
  6 16  1  0
  6 17  1  0
  6 18  1  0
  7 19  1  0
  7 20  1  0
  8 21  1  0
M  END
