
     RDKit          3D

 21 22  0  0  0  0  0  0  0  0999 V2000
   -2.1685   -0.0676    0.0478 C   0  0  0  0  0  0  0  0  0  0  0  0
   -0.8317   -0.4224   -0.5036 C   0  0  0  0  0  0  0  0  0  0  0  0
    0.0573   -1.1618    0.4515 C   0  0  0  0  0  0  0  0  0  0  0  0
    1.3306   -1.4493   -0.2699 C   0  0  0  0  0  0  0  0  0  0  0  0
    2.0511   -0.3339   -0.3838 C   0  0  0  0  0  0  0  0  0  0  0  0
    1.1595    0.7654    0.1479 C   0  0  0  0  0  0  0  0  0  0  0  0
    0.5368    0.0103    1.3299 C   0  0  0  0  0  0  0  0  0  0  0  0
   -0.0011    0.8423   -0.7851 C   0  0  0  0  0  0  0  0  0  0  0  0
   -0.7702    1.9876   -0.6382 O   0  0  0  0  0  0  0  0  0  0  0  0
   -2.4637    0.9189   -0.3941 H   0  0  0  0  0  0  0  0  0  0  0  0
   -2.9259   -0.8352   -0.2524 H   0  0  0  0  0  0  0  0  0  0  0  0
   -2.2136    0.0401    1.1315 H   0  0  0  0  0  0  0  0  0  0  0  0
   -0.9412   -1.0138   -1.4249 H   0  0  0  0  0  0  0  0  0  0  0  0
   -0.3689   -1.9702    0.9973 H   0  0  0  0  0  0  0  0  0  0  0  0
    1.5986   -2.4335   -0.6345 H   0  0  0  0  0  0  0  0  0  0  0  0
    3.0536   -0.2539   -0.7743 H   0  0  0  0  0  0  0  0  0  0  0  0
    1.6625    1.6629    0.4056 H   0  0  0  0  0  0  0  0  0  0  0  0
   -0.2817    0.5453    1.7890 H   0  0  0  0  0  0  0  0  0  0  0  0
    1.3265   -0.3511    1.9889 H   0  0  0  0  0  0  0  0  0  0  0  0
    0.4087    0.7555   -1.8325 H   0  0  0  0  0  0  0  0  0  0  0  0
   -0.2186    2.7645   -0.3962 H   0  0  0  0  0  0  0  0  0  0  0  0
  1  2  1  0
  2  3  1  0
  3  4  1  0
  4  5  2  0
  5  6  1  0
  6  7  1  0
  6  8  1  0
  8  9  1  0
  8  2  1  0
  7  3  1  0
  1 10  1  0
  1 11  1  0
  1 12  1  0
  2 13  1  0
  3 14  1  0
  4 15  1  0
  5 16  1  0
  6 17  1  0
  7 18  1  0
  7 19  1  0
  8 20  1  0
  9 21  1  0
M  END
