
     RDKit          3D

 21 22  0  0  0  0  0  0  0  0999 V2000
    2.1414   -0.3625   -0.8783 C   0  0  0  0  0  0  0  0  0  0  0  0
    1.3107   -0.2935    0.3999 C   0  0  0  0  0  0  0  0  0  0  0  0
    0.0461   -1.1529    0.2249 C   0  0  0  0  0  0  0  0  0  0  0  0
   -0.9375   -0.0168    0.0162 C   0  0  0  0  0  0  0  0  0  0  0  0
   -2.3214   -0.2973   -0.2514 C   0  0  0  0  0  0  0  0  0  0  0  0
   -0.5854    0.8459    1.2404 C   0  0  0  0  0  0  0  0  0  0  0  0
    0.6766    1.0713    0.4314 C   0  0  0  0  0  0  0  0  0  0  0  0
   -0.2079    1.0178   -0.7571 C   0  0  0  0  0  0  0  0  0  0  0  0
   -0.2848    1.5505   -1.8120 O   0  0  0  0  0  0  0  0  0  0  0  0
    2.5276   -1.3710   -1.0744 H   0  0  0  0  0  0  0  0  0  0  0  0
    1.4772    0.0098   -1.6865 H   0  0  0  0  0  0  0  0  0  0  0  0
    2.9489    0.4000   -0.7539 H   0  0  0  0  0  0  0  0  0  0  0  0
    1.8667   -0.5479    1.2921 H   0  0  0  0  0  0  0  0  0  0  0  0
    0.1239   -1.8265   -0.6296 H   0  0  0  0  0  0  0  0  0  0  0  0
   -0.2048   -1.6359    1.1832 H   0  0  0  0  0  0  0  0  0  0  0  0
   -3.0870    0.3220    0.2620 H   0  0  0  0  0  0  0  0  0  0  0  0
   -2.5527   -0.2140   -1.3510 H   0  0  0  0  0  0  0  0  0  0  0  0
   -2.5633   -1.3676    0.0089 H   0  0  0  0  0  0  0  0  0  0  0  0
   -0.4162    0.2263    2.1302 H   0  0  0  0  0  0  0  0  0  0  0  0
   -1.2229    1.7115    1.3881 H   0  0  0  0  0  0  0  0  0  0  0  0
    1.2648    1.9306    0.6171 H   0  0  0  0  0  0  0  0  0  0  0  0
  1  2  1  0
  2  3  1  0
  3  4  1  0
  4  5  1  0
  4  6  1  0
  6  7  1  0
  7  8  1  0
  8  9  2  0
  7  2  1  0
  8  4  1  0
  1 10  1  0
  1 11  1  0
  1 12  1  0
  2 13  1  0
  3 14  1  0
  3 15  1  0
  5 16  1  0
  5 17  1  0
  5 18  1  0
  6 19  1  0
  6 20  1  0
  7 21  1  0
M  END
