
     RDKit          3D

 21 23  0  0  0  0  0  0  0  0999 V2000
    1.6132   -1.2925   -0.1869 C   0  0  0  0  0  0  0  0  0  0  0  0
    1.0586    0.0653    0.0124 C   0  0  0  0  0  0  0  0  0  0  0  0
    0.0472    0.1260    1.1718 C   0  0  0  0  0  0  0  0  0  0  0  0
   -0.9458   -0.9091    0.6623 C   0  0  0  0  0  0  0  0  0  0  0  0
   -1.1294   -0.4741   -0.7926 C   0  0  0  0  0  0  0  0  0  0  0  0
    0.0258    0.4478   -1.0619 C   0  0  0  0  0  0  0  0  0  0  0  0
   -0.3839    1.8074   -0.5295 C   0  0  0  0  0  0  0  0  0  0  0  0
    0.3582    2.4350    0.4313 O   0  0  0  0  0  0  0  0  0  0  0  0
   -0.5121    1.4948    0.9645 C   0  0  0  0  0  0  0  0  0  0  0  0
    2.7184   -1.1905   -0.3982 H   0  0  0  0  0  0  0  0  0  0  0  0
    1.2033   -1.8432   -1.0493 H   0  0  0  0  0  0  0  0  0  0  0  0
    1.5836   -1.9097    0.7587 H   0  0  0  0  0  0  0  0  0  0  0  0
    1.7943    0.8781    0.0853 H   0  0  0  0  0  0  0  0  0  0  0  0
    0.4765   -0.0893    2.1275 H   0  0  0  0  0  0  0  0  0  0  0  0
   -1.8783   -0.9245    1.2199 H   0  0  0  0  0  0  0  0  0  0  0  0
   -0.4529   -1.9209    0.5948 H   0  0  0  0  0  0  0  0  0  0  0  0
   -1.2133   -1.3132   -1.4775 H   0  0  0  0  0  0  0  0  0  0  0  0
   -2.0952    0.0966   -0.8003 H   0  0  0  0  0  0  0  0  0  0  0  0
    0.4183    0.4441   -2.0559 H   0  0  0  0  0  0  0  0  0  0  0  0
   -1.2058    2.2988   -1.0475 H   0  0  0  0  0  0  0  0  0  0  0  0
   -1.4809    1.7733    1.3710 H   0  0  0  0  0  0  0  0  0  0  0  0
  1  2  1  0
  2  3  1  0
  3  4  1  0
  4  5  1  0
  5  6  1  0
  6  7  1  0
  7  8  1  0
  8  9  1  0
  6  2  1  0
  9  7  1  0
  9  3  1  0
  1 10  1  0
  1 11  1  0
  1 12  1  0
  2 13  1  0
  3 14  1  0
  4 15  1  0
  4 16  1  0
  5 17  1  0
  5 18  1  0
  6 19  1  0
  7 20  1  0
  9 21  1  0
M  END
