
     RDKit          3D

 23 23  0  0  0  0  0  0  0  0999 V2000
    0.0120    2.0447   -0.0050 C   0  0  0  0  0  0  0  0  0  0  0  0
   -0.0594    0.6370    0.6042 C   0  0  0  0  0  0  0  0  0  0  0  0
   -1.5383    0.3151    0.6772 C   0  0  0  0  0  0  0  0  0  0  0  0
   -1.7954   -0.6806   -0.4426 C   0  0  0  0  0  0  0  0  0  0  0  0
   -0.9394   -1.8878   -0.0893 C   0  0  0  0  0  0  0  0  0  0  0  0
    0.3659   -1.5784   -0.2686 O   0  0  0  0  0  0  0  0  0  0  0  0
    0.7160   -0.2702   -0.2675 C   0  0  0  0  0  0  0  0  0  0  0  0
    2.1923   -0.1969    0.1490 C   0  0  0  0  0  0  0  0  0  0  0  0
    3.0104   -0.8822   -0.7085 O   0  0  0  0  0  0  0  0  0  0  0  0
    0.9856    2.5136    0.1752 H   0  0  0  0  0  0  0  0  0  0  0  0
   -0.1988    1.8901   -1.0942 H   0  0  0  0  0  0  0  0  0  0  0  0
   -0.8390    2.6313    0.4396 H   0  0  0  0  0  0  0  0  0  0  0  0
    0.3067    0.6802    1.6502 H   0  0  0  0  0  0  0  0  0  0  0  0
   -2.1780    1.1998    0.6157 H   0  0  0  0  0  0  0  0  0  0  0  0
   -1.7657   -0.2266    1.6287 H   0  0  0  0  0  0  0  0  0  0  0  0
   -1.4403   -0.2212   -1.3903 H   0  0  0  0  0  0  0  0  0  0  0  0
   -2.8619   -0.9410   -0.5398 H   0  0  0  0  0  0  0  0  0  0  0  0
   -1.3122   -2.7548   -0.6418 H   0  0  0  0  0  0  0  0  0  0  0  0
   -1.1041   -2.0690    1.0128 H   0  0  0  0  0  0  0  0  0  0  0  0
    0.6935    0.1084   -1.3261 H   0  0  0  0  0  0  0  0  0  0  0  0
    2.5230    0.8445    0.2650 H   0  0  0  0  0  0  0  0  0  0  0  0
    2.3142   -0.6651    1.1695 H   0  0  0  0  0  0  0  0  0  0  0  0
    2.9130   -0.4910   -1.6136 H   0  0  0  0  0  0  0  0  0  0  0  0
  1  2  1  0
  2  3  1  0
  3  4  1  0
  4  5  1  0
  5  6  1  0
  6  7  1  0
  7  8  1  0
  8  9  1  0
  7  2  1  0
  1 10  1  0
  1 11  1  0
  1 12  1  0
  2 13  1  0
  3 14  1  0
  3 15  1  0
  4 16  1  0
  4 17  1  0
  5 18  1  0
  5 19  1  0
  7 20  1  0
  8 21  1  0
  8 22  1  0
  9 23  1  0
M  END
