
     RDKit          3D

 21 21  0  0  0  0  0  0  0  0999 V2000
    2.4508    0.8154    0.3653 C   0  0  0  0  0  0  0  0  0  0  0  0
    1.5144   -0.3595    0.1220 C   0  0  0  0  0  0  0  0  0  0  0  0
    1.0556   -0.4539   -1.2919 C   0  0  0  0  0  0  0  0  0  0  0  0
   -0.3198   -0.5249   -1.2173 O   0  0  0  0  0  0  0  0  0  0  0  0
   -0.7186   -0.2802    0.0595 C   0  0  0  0  0  0  0  0  0  0  0  0
   -1.5621   -1.4103    0.6131 C   0  0  0  0  0  0  0  0  0  0  0  0
   -1.5245    1.0101    0.1478 C   0  0  0  0  0  0  0  0  0  0  0  0
   -2.6555    0.8556   -0.6839 O   0  0  0  0  0  0  0  0  0  0  0  0
    0.3800   -0.1391    0.8719 O   0  0  0  0  0  0  0  0  0  0  0  0
    3.4658    0.6366   -0.0132 H   0  0  0  0  0  0  0  0  0  0  0  0
    2.4800    0.9378    1.4850 H   0  0  0  0  0  0  0  0  0  0  0  0
    1.9759    1.7234   -0.0425 H   0  0  0  0  0  0  0  0  0  0  0  0
    1.9876   -1.3167    0.4070 H   0  0  0  0  0  0  0  0  0  0  0  0
    1.4998   -1.3465   -1.8235 H   0  0  0  0  0  0  0  0  0  0  0  0
    1.3607    0.4381   -1.8856 H   0  0  0  0  0  0  0  0  0  0  0  0
   -1.1246   -2.3612    0.2014 H   0  0  0  0  0  0  0  0  0  0  0  0
   -2.6253   -1.3178    0.3161 H   0  0  0  0  0  0  0  0  0  0  0  0
   -1.4838   -1.4304    1.7225 H   0  0  0  0  0  0  0  0  0  0  0  0
   -0.9644    1.8651   -0.2794 H   0  0  0  0  0  0  0  0  0  0  0  0
   -1.8215    1.2315    1.1838 H   0  0  0  0  0  0  0  0  0  0  0  0
   -3.3704    1.4267   -0.2581 H   0  0  0  0  0  0  0  0  0  0  0  0
  1  2  1  0
  2  3  1  0
  3  4  1  0
  4  5  1  0
  5  6  1  0
  5  7  1  0
  7  8  1  0
  5  9  1  0
  9  2  1  0
  1 10  1  0
  1 11  1  0
  1 12  1  0
  2 13  1  0
  3 14  1  0
  3 15  1  0
  6 16  1  0
  6 17  1  0
  6 18  1  0
  7 19  1  0
  7 20  1  0
  8 21  1  0
M  END
