
     RDKit          3D

 23 24  0  0  0  0  0  0  0  0999 V2000
   -1.9250    1.1517    0.6632 C   0  0  0  0  0  0  0  0  0  0  0  0
   -1.0667   -0.1072    0.5383 C   0  0  0  0  0  0  0  0  0  0  0  0
   -1.7355   -1.0648   -0.4489 C   0  0  0  0  0  0  0  0  0  0  0  0
   -0.5175   -0.9749   -1.3553 C   0  0  0  0  0  0  0  0  0  0  0  0
    0.0644    0.0180   -0.3928 C   0  0  0  0  0  0  0  0  0  0  0  0
    0.4084    1.2440   -0.8792 O   0  0  0  0  0  0  0  0  0  0  0  0
    1.7449    0.7980   -0.9400 C   0  0  0  0  0  0  0  0  0  0  0  0
    1.4278   -0.3423    0.0298 C   0  0  0  0  0  0  0  0  0  0  0  0
    1.8551   -0.0043    1.4226 C   0  0  0  0  0  0  0  0  0  0  0  0
   -1.3220    2.0715    0.6111 H   0  0  0  0  0  0  0  0  0  0  0  0
   -2.4613    1.0850    1.6418 H   0  0  0  0  0  0  0  0  0  0  0  0
   -2.6931    1.1996   -0.1449 H   0  0  0  0  0  0  0  0  0  0  0  0
   -0.9135   -0.6271    1.4977 H   0  0  0  0  0  0  0  0  0  0  0  0
   -1.9387   -2.0726   -0.0387 H   0  0  0  0  0  0  0  0  0  0  0  0
   -2.6486   -0.6744   -0.9227 H   0  0  0  0  0  0  0  0  0  0  0  0
   -0.7007   -0.5971   -2.3642 H   0  0  0  0  0  0  0  0  0  0  0  0
    0.0597   -1.9281   -1.3950 H   0  0  0  0  0  0  0  0  0  0  0  0
    1.9450    0.4603   -1.9810 H   0  0  0  0  0  0  0  0  0  0  0  0
    2.4816    1.5273   -0.5605 H   0  0  0  0  0  0  0  0  0  0  0  0
    1.8484   -1.2939   -0.3560 H   0  0  0  0  0  0  0  0  0  0  0  0
    2.0631    1.0748    1.5755 H   0  0  0  0  0  0  0  0  0  0  0  0
    1.1819   -0.4267    2.2058 H   0  0  0  0  0  0  0  0  0  0  0  0
    2.8422   -0.5167    1.5934 H   0  0  0  0  0  0  0  0  0  0  0  0
  1  2  1  0
  2  3  1  0
  3  4  1  0
  4  5  1  0
  5  6  1  0
  6  7  1  0
  7  8  1  0
  8  9  1  0
  5  2  1  0
  8  5  1  0
  1 10  1  0
  1 11  1  0
  1 12  1  0
  2 13  1  0
  3 14  1  0
  3 15  1  0
  4 16  1  0
  4 17  1  0
  7 18  1  0
  7 19  1  0
  8 20  1  0
  9 21  1  0
  9 22  1  0
  9 23  1  0
M  END
