
     RDKit          3D

 19 20  0  0  0  0  0  0  0  0999 V2000
    2.0474    0.3266   -0.1275 C   0  0  0  0  0  0  0  0  0  0  0  0
    0.7163   -0.0731   -0.6896 C   0  0  0  0  0  0  0  0  0  0  0  0
    0.2969   -1.4155   -0.1866 C   0  0  0  0  0  0  0  0  0  0  0  0
    0.2345   -0.8274    1.0715 O   0  0  0  0  0  0  0  0  0  0  0  0
   -0.4010    0.1361    0.2952 C   0  0  0  0  0  0  0  0  0  0  0  0
   -0.8798    1.3536    0.7389 C   0  0  0  0  0  0  0  0  0  0  0  0
   -1.4861    2.1650   -0.2218 O   0  0  0  0  0  0  0  0  0  0  0  0
   -1.1200   -0.9671   -0.3651 C   0  0  0  0  0  0  0  0  0  0  0  0
   -1.9746   -1.6591    0.5132 O   0  0  0  0  0  0  0  0  0  0  0  0
    1.9579    0.5320    0.9711 H   0  0  0  0  0  0  0  0  0  0  0  0
    2.7926   -0.5082   -0.2566 H   0  0  0  0  0  0  0  0  0  0  0  0
    2.4383    1.2519   -0.5796 H   0  0  0  0  0  0  0  0  0  0  0  0
    0.5009    0.1832   -1.7233 H   0  0  0  0  0  0  0  0  0  0  0  0
    0.6915   -2.3153   -0.4159 H   0  0  0  0  0  0  0  0  0  0  0  0
   -0.0706    2.0066    1.1868 H   0  0  0  0  0  0  0  0  0  0  0  0
   -1.6244    1.2601    1.5643 H   0  0  0  0  0  0  0  0  0  0  0  0
   -1.0113    1.9544   -1.0859 H   0  0  0  0  0  0  0  0  0  0  0  0
   -1.4941   -0.8400   -1.3776 H   0  0  0  0  0  0  0  0  0  0  0  0
   -1.6144   -2.5638    0.6887 H   0  0  0  0  0  0  0  0  0  0  0  0
  1  2  1  0
  2  3  1  0
  3  4  1  0
  4  5  1  0
  5  6  1  0
  6  7  1  0
  5  8  1  0
  8  9  1  0
  5  2  1  0
  8  3  1  0
  1 10  1  0
  1 11  1  0
  1 12  1  0
  2 13  1  0
  3 14  1  0
  6 15  1  0
  6 16  1  0
  7 17  1  0
  8 18  1  0
  9 19  1  0
M  END
