
     RDKit          3D

 19 20  0  0  0  0  0  0  0  0999 V2000
    2.2311    0.5763   -0.1818 C   0  0  0  0  0  0  0  0  0  0  0  0
    1.0251   -0.3117   -0.3182 C   0  0  0  0  0  0  0  0  0  0  0  0
   -0.2055    0.2854   -0.8485 C   0  0  0  0  0  0  0  0  0  0  0  0
   -1.4295   -0.4332   -1.2350 C   0  0  0  0  0  0  0  0  0  0  0  0
   -1.7924   -1.3687   -0.1642 C   0  0  0  0  0  0  0  0  0  0  0  0
   -1.0308   -1.1326    0.8844 C   0  0  0  0  0  0  0  0  0  0  0  0
   -0.0828   -0.0263    0.6366 C   0  0  0  0  0  0  0  0  0  0  0  0
   -0.0561    1.1465    1.5181 C   0  0  0  0  0  0  0  0  0  0  0  0
   -0.1991    2.2960    1.1255 O   0  0  0  0  0  0  0  0  0  0  0  0
    2.0002    1.6525   -0.2217 H   0  0  0  0  0  0  0  0  0  0  0  0
    2.8981    0.3596   -1.0533 H   0  0  0  0  0  0  0  0  0  0  0  0
    2.7602    0.4028    0.7849 H   0  0  0  0  0  0  0  0  0  0  0  0
    1.2735   -1.3783   -0.4411 H   0  0  0  0  0  0  0  0  0  0  0  0
   -0.1466    1.3651   -1.1468 H   0  0  0  0  0  0  0  0  0  0  0  0
   -1.3849   -0.9250   -2.2331 H   0  0  0  0  0  0  0  0  0  0  0  0
   -2.2858    0.3045   -1.2936 H   0  0  0  0  0  0  0  0  0  0  0  0
   -2.5813   -2.1587   -0.2103 H   0  0  0  0  0  0  0  0  0  0  0  0
   -1.0906   -1.6794    1.8115 H   0  0  0  0  0  0  0  0  0  0  0  0
    0.0971    1.0252    2.5867 H   0  0  0  0  0  0  0  0  0  0  0  0
  1  2  1  0
  2  3  1  0
  3  4  1  0
  4  5  1  0
  5  6  2  0
  6  7  1  0
  7  8  1  0
  8  9  2  0
  7  2  1  0
  7  3  1  0
  1 10  1  0
  1 11  1  0
  1 12  1  0
  2 13  1  0
  3 14  1  0
  4 15  1  0
  4 16  1  0
  5 17  1  0
  6 18  1  0
  8 19  1  0
M  END
