
     RDKit          3D

 21 23  0  0  0  0  0  0  0  0999 V2000
   -2.5414    0.3428    0.4374 C   0  0  0  0  0  0  0  0  0  0  0  0
   -1.1143    0.4491    0.0994 C   0  0  0  0  0  0  0  0  0  0  0  0
   -0.6609   -0.1206   -1.2221 C   0  0  0  0  0  0  0  0  0  0  0  0
   -0.8726   -1.4744   -0.5998 C   0  0  0  0  0  0  0  0  0  0  0  0
   -0.1993   -0.6709    0.4838 C   0  0  0  0  0  0  0  0  0  0  0  0
    0.6849   -0.1697   -0.5976 C   0  0  0  0  0  0  0  0  0  0  0  0
    1.7385   -0.8546   -1.1085 O   0  0  0  0  0  0  0  0  0  0  0  0
    1.7906    0.5752   -0.6287 C   0  0  0  0  0  0  0  0  0  0  0  0
    2.7469    0.7030    0.5664 C   0  0  0  0  0  0  0  0  0  0  0  0
   -2.8753   -0.5917    0.8892 H   0  0  0  0  0  0  0  0  0  0  0  0
   -3.1783    0.5994   -0.4593 H   0  0  0  0  0  0  0  0  0  0  0  0
   -2.7975    1.1530    1.1830 H   0  0  0  0  0  0  0  0  0  0  0  0
   -0.6975    1.4584    0.2962 H   0  0  0  0  0  0  0  0  0  0  0  0
   -0.9344    0.1808   -2.1345 H   0  0  0  0  0  0  0  0  0  0  0  0
   -0.1895   -2.2784   -0.9412 H   0  0  0  0  0  0  0  0  0  0  0  0
   -1.8890   -1.7982   -0.4283 H   0  0  0  0  0  0  0  0  0  0  0  0
    0.0374   -0.9856    1.4031 H   0  0  0  0  0  0  0  0  0  0  0  0
    2.1433    1.1766   -1.4874 H   0  0  0  0  0  0  0  0  0  0  0  0
    3.6530    0.1161    0.4319 H   0  0  0  0  0  0  0  0  0  0  0  0
    2.1422    0.4319    1.4536 H   0  0  0  0  0  0  0  0  0  0  0  0
    3.0131    1.7581    0.6404 H   0  0  0  0  0  0  0  0  0  0  0  0
  1  2  1  0
  2  3  1  0
  3  4  1  0
  4  5  1  0
  5  6  1  0
  6  7  1  0
  7  8  1  0
  8  9  1  0
  5  2  1  0
  8  6  1  0
  6  3  1  0
  1 10  1  0
  1 11  1  0
  1 12  1  0
  2 13  1  0
  3 14  1  0
  4 15  1  0
  4 16  1  0
  5 17  1  0
  8 18  1  0
  9 19  1  0
  9 20  1  0
  9 21  1  0
M  END
