
     RDKit          3D

 19 20  0  0  0  0  0  0  0  0999 V2000
    1.8480   -0.5558   -0.7626 C   0  0  0  0  0  0  0  0  0  0  0  0
    1.2072    0.5370    0.0167 C   0  0  0  0  0  0  0  0  0  0  0  0
    0.9564    0.0831    1.4627 C   0  0  0  0  0  0  0  0  0  0  0  0
   -0.1959    0.9049    1.4195 O   0  0  0  0  0  0  0  0  0  0  0  0
   -0.2497    0.6186    0.0866 C   0  0  0  0  0  0  0  0  0  0  0  0
   -1.1902    1.1234   -0.8656 C   0  0  0  0  0  0  0  0  0  0  0  0
   -1.1844   -0.3531   -0.5010 C   0  0  0  0  0  0  0  0  0  0  0  0
   -2.2413   -0.8704    0.4039 C   0  0  0  0  0  0  0  0  0  0  0  0
   -2.6762   -0.2133    1.3417 O   0  0  0  0  0  0  0  0  0  0  0  0
    2.5174   -1.1291   -0.0578 H   0  0  0  0  0  0  0  0  0  0  0  0
    2.5662   -0.1396   -1.5289 H   0  0  0  0  0  0  0  0  0  0  0  0
    1.1611   -1.2036   -1.3137 H   0  0  0  0  0  0  0  0  0  0  0  0
    1.7902    1.4746   -0.0261 H   0  0  0  0  0  0  0  0  0  0  0  0
    0.6478   -0.9666    1.5221 H   0  0  0  0  0  0  0  0  0  0  0  0
    1.6522    0.4720    2.1974 H   0  0  0  0  0  0  0  0  0  0  0  0
   -0.9702    1.4300   -1.8981 H   0  0  0  0  0  0  0  0  0  0  0  0
   -2.0986    1.6616   -0.4614 H   0  0  0  0  0  0  0  0  0  0  0  0
   -0.8744   -1.0261   -1.3024 H   0  0  0  0  0  0  0  0  0  0  0  0
   -2.6655   -1.8477    0.2669 H   0  0  0  0  0  0  0  0  0  0  0  0
  1  2  1  0
  2  3  1  0
  3  4  1  0
  4  5  1  0
  5  6  1  0
  6  7  1  0
  7  8  1  0
  8  9  2  0
  5  2  1  0
  7  5  1  0
  1 10  1  0
  1 11  1  0
  1 12  1  0
  2 13  1  0
  3 14  1  0
  3 15  1  0
  6 16  1  0
  6 17  1  0
  7 18  1  0
  8 19  1  0
M  END
