
     RDKit          3D

 23 24  0  0  0  0  0  0  0  0999 V2000
    1.9266   -0.5116    0.8031 C   0  0  0  0  0  0  0  0  0  0  0  0
    0.9379    0.0373   -0.1360 C   0  0  0  0  0  0  0  0  0  0  0  0
    0.7618    1.5541   -0.0273 C   0  0  0  0  0  0  0  0  0  0  0  0
   -0.3748    1.7269   -1.0088 C   0  0  0  0  0  0  0  0  0  0  0  0
   -1.3075    0.6171   -0.5468 C   0  0  0  0  0  0  0  0  0  0  0  0
   -1.6928    0.8915    0.7777 O   0  0  0  0  0  0  0  0  0  0  0  0
   -1.1775   -0.3111    1.2316 C   0  0  0  0  0  0  0  0  0  0  0  0
   -0.4409   -0.4988   -0.0451 C   0  0  0  0  0  0  0  0  0  0  0  0
   -0.7022   -1.8499   -0.6426 C   0  0  0  0  0  0  0  0  0  0  0  0
    2.4679   -1.3768    0.3220 H   0  0  0  0  0  0  0  0  0  0  0  0
    2.7146    0.2405    1.0665 H   0  0  0  0  0  0  0  0  0  0  0  0
    1.4600   -0.9172    1.7057 H   0  0  0  0  0  0  0  0  0  0  0  0
    1.3028   -0.1326   -1.1829 H   0  0  0  0  0  0  0  0  0  0  0  0
    1.6427    2.0991   -0.4007 H   0  0  0  0  0  0  0  0  0  0  0  0
    0.5353    1.8828    0.9822 H   0  0  0  0  0  0  0  0  0  0  0  0
   -0.8987    2.6705   -0.9292 H   0  0  0  0  0  0  0  0  0  0  0  0
    0.0100    1.4693   -2.0048 H   0  0  0  0  0  0  0  0  0  0  0  0
   -2.1112    0.3656   -1.2344 H   0  0  0  0  0  0  0  0  0  0  0  0
   -2.0253   -1.0399    1.3487 H   0  0  0  0  0  0  0  0  0  0  0  0
   -0.5958   -0.2691    2.1646 H   0  0  0  0  0  0  0  0  0  0  0  0
   -1.7729   -1.8938   -0.9833 H   0  0  0  0  0  0  0  0  0  0  0  0
   -0.6447   -2.6142    0.1780 H   0  0  0  0  0  0  0  0  0  0  0  0
   -0.0154   -2.1396   -1.4382 H   0  0  0  0  0  0  0  0  0  0  0  0
  1  2  1  0
  2  3  1  0
  3  4  1  0
  4  5  1  0
  5  6  1  0
  6  7  1  0
  7  8  1  0
  8  9  1  0
  8  2  1  0
  8  5  1  0
  1 10  1  0
  1 11  1  0
  1 12  1  0
  2 13  1  0
  3 14  1  0
  3 15  1  0
  4 16  1  0
  4 17  1  0
  5 18  1  0
  7 19  1  0
  7 20  1  0
  9 21  1  0
  9 22  1  0
  9 23  1  0
M  END
