
     RDKit          3D

 19 20  0  0  0  0  0  0  0  0999 V2000
    1.9647   -0.6579    0.2392 C   0  0  0  0  0  0  0  0  0  0  0  0
    0.6903    0.0048    0.6535 C   0  0  0  0  0  0  0  0  0  0  0  0
    0.7709    1.5044    0.5457 C   0  0  0  0  0  0  0  0  0  0  0  0
    1.1751    2.4521    1.1535 O   0  0  0  0  0  0  0  0  0  0  0  0
    0.0649    1.3549   -0.7795 C   0  0  0  0  0  0  0  0  0  0  0  0
   -0.4210    0.0517   -0.3021 C   0  0  0  0  0  0  0  0  0  0  0  0
   -0.9934   -1.0168   -1.0641 C   0  0  0  0  0  0  0  0  0  0  0  0
   -1.8209   -0.2596    0.0192 C   0  0  0  0  0  0  0  0  0  0  0  0
   -2.1883   -0.9972    1.1321 O   0  0  0  0  0  0  0  0  0  0  0  0
    2.6549    0.0909   -0.2175 H   0  0  0  0  0  0  0  0  0  0  0  0
    2.4840   -0.9933    1.1757 H   0  0  0  0  0  0  0  0  0  0  0  0
    1.7984   -1.5281   -0.4363 H   0  0  0  0  0  0  0  0  0  0  0  0
    0.3290   -0.3010    1.6781 H   0  0  0  0  0  0  0  0  0  0  0  0
    0.8718    1.2956   -1.5682 H   0  0  0  0  0  0  0  0  0  0  0  0
   -0.6897    2.1211   -0.9658 H   0  0  0  0  0  0  0  0  0  0  0  0
   -0.7711   -2.0896   -0.8139 H   0  0  0  0  0  0  0  0  0  0  0  0
   -1.3664   -0.9085   -2.0957 H   0  0  0  0  0  0  0  0  0  0  0  0
   -2.5859    0.4357   -0.3366 H   0  0  0  0  0  0  0  0  0  0  0  0
   -1.9673   -0.5592    1.9827 H   0  0  0  0  0  0  0  0  0  0  0  0
  1  2  1  0
  2  3  1  0
  3  4  2  0
  3  5  1  0
  5  6  1  0
  6  7  1  0
  7  8  1  0
  8  9  1  0
  6  2  1  0
  8  6  1  0
  1 10  1  0
  1 11  1  0
  1 12  1  0
  2 13  1  0
  5 14  1  0
  5 15  1  0
  7 16  1  0
  7 17  1  0
  8 18  1  0
  9 19  1  0
M  END
