
     RDKit          3D

 21 23  0  0  0  0  0  0  0  0999 V2000
    1.8391   -0.8655   -0.4032 C   0  0  0  0  0  0  0  0  0  0  0  0
    1.2823    0.3562    0.1926 C   0  0  0  0  0  0  0  0  0  0  0  0
    0.3876    1.2195   -0.6520 C   0  0  0  0  0  0  0  0  0  0  0  0
   -0.3056    1.5767    0.6718 C   0  0  0  0  0  0  0  0  0  0  0  0
    0.0561    0.1715    1.0967 C   0  0  0  0  0  0  0  0  0  0  0  0
   -0.8043   -0.8688    0.4393 C   0  0  0  0  0  0  0  0  0  0  0  0
   -2.1522   -0.6011   -0.0592 C   0  0  0  0  0  0  0  0  0  0  0  0
   -1.0197   -0.5895   -0.9936 C   0  0  0  0  0  0  0  0  0  0  0  0
   -0.4448    0.5473   -1.4856 O   0  0  0  0  0  0  0  0  0  0  0  0
    1.3537   -1.2608   -1.2892 H   0  0  0  0  0  0  0  0  0  0  0  0
    2.9331   -0.7083   -0.5837 H   0  0  0  0  0  0  0  0  0  0  0  0
    1.8035   -1.6862    0.3711 H   0  0  0  0  0  0  0  0  0  0  0  0
    2.0269    0.9629    0.7108 H   0  0  0  0  0  0  0  0  0  0  0  0
    0.8190    2.1059   -1.1028 H   0  0  0  0  0  0  0  0  0  0  0  0
    0.3573    2.2974    1.2050 H   0  0  0  0  0  0  0  0  0  0  0  0
   -1.3540    1.8223    0.5982 H   0  0  0  0  0  0  0  0  0  0  0  0
    0.2762    0.0315    2.1523 H   0  0  0  0  0  0  0  0  0  0  0  0
   -0.5155   -1.9060    0.6887 H   0  0  0  0  0  0  0  0  0  0  0  0
   -2.6915    0.3228    0.2501 H   0  0  0  0  0  0  0  0  0  0  0  0
   -2.8493   -1.4821   -0.0751 H   0  0  0  0  0  0  0  0  0  0  0  0
   -0.9978   -1.4458   -1.7325 H   0  0  0  0  0  0  0  0  0  0  0  0
  1  2  1  0
  2  3  1  0
  3  4  1  0
  4  5  1  0
  5  6  1  0
  6  7  1  0
  7  8  1  0
  8  9  1  0
  5  2  1  0
  8  6  1  0
  9  3  1  0
  1 10  1  0
  1 11  1  0
  1 12  1  0
  2 13  1  0
  3 14  1  0
  4 15  1  0
  4 16  1  0
  5 17  1  0
  6 18  1  0
  7 19  1  0
  7 20  1  0
  8 21  1  0
M  END
