
     RDKit          3D

 19 21  0  0  0  0  0  0  0  0999 V2000
    2.7325    0.7293   -0.0533 C   0  0  0  0  0  0  0  0  0  0  0  0
    1.6650   -0.3384   -0.1464 C   0  0  0  0  0  0  0  0  0  0  0  0
    0.6064    0.1295   -1.1479 C   0  0  0  0  0  0  0  0  0  0  0  0
   -0.2551   -0.1651    0.0042 C   0  0  0  0  0  0  0  0  0  0  0  0
    0.7483   -0.3611    0.8862 O   0  0  0  0  0  0  0  0  0  0  0  0
   -1.5401    0.4622    0.2832 C   0  0  0  0  0  0  0  0  0  0  0  0
   -2.6143   -0.1656    1.0938 C   0  0  0  0  0  0  0  0  0  0  0  0
   -2.0723   -1.4445    0.9782 O   0  0  0  0  0  0  0  0  0  0  0  0
   -1.4289   -1.0101   -0.1749 C   0  0  0  0  0  0  0  0  0  0  0  0
    2.2591    1.7289    0.1027 H   0  0  0  0  0  0  0  0  0  0  0  0
    3.4246    0.4678    0.7498 H   0  0  0  0  0  0  0  0  0  0  0  0
    3.2233    0.7621   -1.0673 H   0  0  0  0  0  0  0  0  0  0  0  0
    2.1022   -1.3258   -0.3719 H   0  0  0  0  0  0  0  0  0  0  0  0
    0.6444    1.1973   -1.3941 H   0  0  0  0  0  0  0  0  0  0  0  0
    0.5910   -0.5769   -2.0073 H   0  0  0  0  0  0  0  0  0  0  0  0
   -1.9102    1.1929   -0.4797 H   0  0  0  0  0  0  0  0  0  0  0  0
   -3.6384   -0.1826    0.6213 H   0  0  0  0  0  0  0  0  0  0  0  0
   -2.7040    0.1640    2.1360 H   0  0  0  0  0  0  0  0  0  0  0  0
   -1.8335   -1.2639   -1.1686 H   0  0  0  0  0  0  0  0  0  0  0  0
  1  2  1  0
  2  3  1  0
  3  4  1  0
  4  5  1  0
  4  6  1  0
  6  7  1  0
  7  8  1  0
  8  9  1  0
  5  2  1  0
  9  6  1  0
  9  4  1  0
  1 10  1  0
  1 11  1  0
  1 12  1  0
  2 13  1  0
  3 14  1  0
  3 15  1  0
  6 16  1  0
  7 17  1  0
  7 18  1  0
  9 19  1  0
M  END
