
     RDKit          3D

 20 20  0  0  0  0  0  0  0  0999 V2000
    2.1228   -0.7465    0.3129 C   0  0  0  0  0  0  0  0  0  0  0  0
    0.8007   -0.4921   -0.3642 C   0  0  0  0  0  0  0  0  0  0  0  0
    0.8125    0.9164   -0.9730 C   0  0  0  0  0  0  0  0  0  0  0  0
   -0.4993    1.2254   -0.2815 C   0  0  0  0  0  0  0  0  0  0  0  0
   -0.4383    2.3381    0.5495 O   0  0  0  0  0  0  0  0  0  0  0  0
   -0.3176   -0.0436    0.5152 C   0  0  0  0  0  0  0  0  0  0  0  0
   -1.5590   -0.8776    0.5071 C   0  0  0  0  0  0  0  0  0  0  0  0
   -2.1549   -0.9711   -0.7400 O   0  0  0  0  0  0  0  0  0  0  0  0
    2.3179   -1.8247    0.4882 H   0  0  0  0  0  0  0  0  0  0  0  0
    2.1807   -0.1932    1.2697 H   0  0  0  0  0  0  0  0  0  0  0  0
    2.9403   -0.3857   -0.3413 H   0  0  0  0  0  0  0  0  0  0  0  0
    0.5735   -1.2756   -1.0968 H   0  0  0  0  0  0  0  0  0  0  0  0
    0.7485    0.8830   -2.0745 H   0  0  0  0  0  0  0  0  0  0  0  0
    1.6126    1.5697   -0.5832 H   0  0  0  0  0  0  0  0  0  0  0  0
   -1.3555    1.2344   -0.9819 H   0  0  0  0  0  0  0  0  0  0  0  0
   -1.3534    2.5460    0.8629 H   0  0  0  0  0  0  0  0  0  0  0  0
    0.0221    0.1260    1.5565 H   0  0  0  0  0  0  0  0  0  0  0  0
   -2.3066   -0.3457    1.1651 H   0  0  0  0  0  0  0  0  0  0  0  0
   -1.4016   -1.8929    0.9123 H   0  0  0  0  0  0  0  0  0  0  0  0
   -2.7453   -1.7900   -0.7030 H   0  0  0  0  0  0  0  0  0  0  0  0
  1  2  1  0
  2  3  1  0
  3  4  1  0
  4  5  1  0
  4  6  1  0
  6  7  1  0
  7  8  1  0
  6  2  1  0
  1  9  1  0
  1 10  1  0
  1 11  1  0
  2 12  1  0
  3 13  1  0
  3 14  1  0
  4 15  1  0
  5 16  1  0
  6 17  1  0
  7 18  1  0
  7 19  1  0
  8 20  1  0
M  END
