
     RDKit          3D

 18 19  0  0  0  0  0  0  0  0999 V2000
    1.7536   -0.5599   -0.9468 C   0  0  0  0  0  0  0  0  0  0  0  0
    1.1608    0.1266    0.2578 C   0  0  0  0  0  0  0  0  0  0  0  0
    0.5367    1.5068    0.0699 C   0  0  0  0  0  0  0  0  0  0  0  0
   -0.2763    0.3601    0.2397 C   0  0  0  0  0  0  0  0  0  0  0  0
   -1.2229   -0.2613   -0.7183 C   0  0  0  0  0  0  0  0  0  0  0  0
   -1.8185   -0.9962    0.4341 C   0  0  0  0  0  0  0  0  0  0  0  0
   -2.5352   -1.9713    0.5708 O   0  0  0  0  0  0  0  0  0  0  0  0
   -1.1593   -0.0237    1.3512 C   0  0  0  0  0  0  0  0  0  0  0  0
    1.5889   -1.6572   -0.8058 H   0  0  0  0  0  0  0  0  0  0  0  0
    1.2246   -0.1815   -1.8497 H   0  0  0  0  0  0  0  0  0  0  0  0
    2.8148   -0.3154   -1.0483 H   0  0  0  0  0  0  0  0  0  0  0  0
    1.6978   -0.0704    1.2239 H   0  0  0  0  0  0  0  0  0  0  0  0
    0.7522    2.2335    0.8728 H   0  0  0  0  0  0  0  0  0  0  0  0
    0.7084    1.9174   -0.9678 H   0  0  0  0  0  0  0  0  0  0  0  0
   -1.9556    0.5095   -1.0951 H   0  0  0  0  0  0  0  0  0  0  0  0
   -0.7647   -0.8874   -1.4978 H   0  0  0  0  0  0  0  0  0  0  0  0
   -0.6105   -0.4713    2.1937 H   0  0  0  0  0  0  0  0  0  0  0  0
   -1.8949    0.7417    1.7157 H   0  0  0  0  0  0  0  0  0  0  0  0
  1  2  1  0
  2  3  1  0
  3  4  1  0
  4  5  1  0
  5  6  1  0
  6  7  2  0
  6  8  1  0
  4  2  1  0
  8  4  1  0
  1  9  1  0
  1 10  1  0
  1 11  1  0
  2 12  1  0
  3 13  1  0
  3 14  1  0
  5 15  1  0
  5 16  1  0
  8 17  1  0
  8 18  1  0
M  END
