
     RDKit          3D

 21 22  0  0  0  0  0  0  0  0999 V2000
    1.8917   -1.1786    0.0260 C   0  0  0  0  0  0  0  0  0  0  0  0
    1.6196    0.2852    0.2554 C   0  0  0  0  0  0  0  0  0  0  0  0
    1.0969    1.1675   -0.7908 C   0  0  0  0  0  0  0  0  0  0  0  0
    0.8924    0.7057   -2.0981 O   0  0  0  0  0  0  0  0  0  0  0  0
    0.1665    0.6471    0.2783 C   0  0  0  0  0  0  0  0  0  0  0  0
   -0.1924    1.4859    1.3358 O   0  0  0  0  0  0  0  0  0  0  0  0
   -0.8713   -0.3260   -0.1970 C   0  0  0  0  0  0  0  0  0  0  0  0
   -2.2982    0.2197   -0.0984 C   0  0  0  0  0  0  0  0  0  0  0  0
   -1.8494   -0.9535    0.6927 C   0  0  0  0  0  0  0  0  0  0  0  0
    2.9194   -1.4709    0.3292 H   0  0  0  0  0  0  0  0  0  0  0  0
    1.6541   -1.4964   -1.0073 H   0  0  0  0  0  0  0  0  0  0  0  0
    1.2161   -1.7337    0.7407 H   0  0  0  0  0  0  0  0  0  0  0  0
    2.3027    0.7466    1.0010 H   0  0  0  0  0  0  0  0  0  0  0  0
    1.3054    2.2453   -0.7262 H   0  0  0  0  0  0  0  0  0  0  0  0
    0.0063    1.0556   -2.3686 H   0  0  0  0  0  0  0  0  0  0  0  0
    0.1193    1.0182    2.1620 H   0  0  0  0  0  0  0  0  0  0  0  0
   -0.5998   -0.8906   -1.1279 H   0  0  0  0  0  0  0  0  0  0  0  0
   -2.8701    0.1178   -1.0227 H   0  0  0  0  0  0  0  0  0  0  0  0
   -2.4699    1.1523    0.4484 H   0  0  0  0  0  0  0  0  0  0  0  0
   -2.2897   -1.9247    0.3756 H   0  0  0  0  0  0  0  0  0  0  0  0
   -1.7493   -0.8725    1.7917 H   0  0  0  0  0  0  0  0  0  0  0  0
  1  2  1  0
  2  3  1  0
  3  4  1  0
  3  5  1  0
  5  6  1  0
  5  7  1  0
  7  8  1  0
  8  9  1  0
  5  2  1  0
  9  7  1  0
  1 10  1  0
  1 11  1  0
  1 12  1  0
  2 13  1  0
  3 14  1  0
  4 15  1  0
  6 16  1  0
  7 17  1  0
  8 18  1  0
  8 19  1  0
  9 20  1  0
  9 21  1  0
M  END
