
     RDKit          3D

 20 21  0  0  0  0  0  0  0  0999 V2000
    2.1079   -0.3361    0.4491 C   0  0  0  0  0  0  0  0  0  0  0  0
    0.8429   -0.0031   -0.2879 C   0  0  0  0  0  0  0  0  0  0  0  0
    0.0642   -1.2489   -0.5857 C   0  0  0  0  0  0  0  0  0  0  0  0
   -1.3025   -1.0921    0.0102 C   0  0  0  0  0  0  0  0  0  0  0  0
   -1.3597    0.2415    0.6874 C   0  0  0  0  0  0  0  0  0  0  0  0
   -2.0731    1.1654   -0.0704 O   0  0  0  0  0  0  0  0  0  0  0  0
   -0.8856    1.7514   -0.5235 C   0  0  0  0  0  0  0  0  0  0  0  0
   -0.0572    0.9369    0.4491 C   0  0  0  0  0  0  0  0  0  0  0  0
    2.8763    0.4720    0.3882 H   0  0  0  0  0  0  0  0  0  0  0  0
    2.5752   -1.2126   -0.0748 H   0  0  0  0  0  0  0  0  0  0  0  0
    1.9311   -0.6765    1.4882 H   0  0  0  0  0  0  0  0  0  0  0  0
    1.1443    0.5049   -1.2401 H   0  0  0  0  0  0  0  0  0  0  0  0
    0.5638   -2.1227   -0.1096 H   0  0  0  0  0  0  0  0  0  0  0  0
    0.0067   -1.3919   -1.6844 H   0  0  0  0  0  0  0  0  0  0  0  0
   -1.5678   -1.9079    0.7197 H   0  0  0  0  0  0  0  0  0  0  0  0
   -2.0577   -1.1381   -0.8112 H   0  0  0  0  0  0  0  0  0  0  0  0
   -1.6611    0.2363    1.7531 H   0  0  0  0  0  0  0  0  0  0  0  0
   -0.7298    1.5090   -1.5878 H   0  0  0  0  0  0  0  0  0  0  0  0
   -0.7817    2.8315   -0.2662 H   0  0  0  0  0  0  0  0  0  0  0  0
    0.3638    1.4809    1.2966 H   0  0  0  0  0  0  0  0  0  0  0  0
  1  2  1  0
  2  3  1  0
  3  4  1  0
  4  5  1  0
  5  6  1  0
  6  7  1  0
  7  8  1  0
  8  2  1  0
  8  5  1  0
  1  9  1  0
  1 10  1  0
  1 11  1  0
  2 12  1  0
  3 13  1  0
  3 14  1  0
  4 15  1  0
  4 16  1  0
  5 17  1  0
  7 18  1  0
  7 19  1  0
  8 20  1  0
M  END
