
     RDKit          3D

 21 23  0  0  0  0  0  0  0  0999 V2000
    2.3783    0.4535    0.4796 C   0  0  0  0  0  0  0  0  0  0  0  0
    1.3226   -0.6456    0.5966 C   0  0  0  0  0  0  0  0  0  0  0  0
    0.9059   -1.3201   -0.7392 C   0  0  0  0  0  0  0  0  0  0  0  0
    0.0295   -0.4287   -0.0230 C   0  0  0  0  0  0  0  0  0  0  0  0
   -0.4655    0.8870   -0.5170 C   0  0  0  0  0  0  0  0  0  0  0  0
    0.2651    1.9902   -0.0649 O   0  0  0  0  0  0  0  0  0  0  0  0
   -1.7135    0.6588    0.3385 C   0  0  0  0  0  0  0  0  0  0  0  0
   -2.5492   -0.4762   -0.0826 C   0  0  0  0  0  0  0  0  0  0  0  0
   -1.2713   -0.7952    0.5996 C   0  0  0  0  0  0  0  0  0  0  0  0
    2.1597    1.3056    1.1512 H   0  0  0  0  0  0  0  0  0  0  0  0
    3.3413   -0.0397    0.7806 H   0  0  0  0  0  0  0  0  0  0  0  0
    2.4585    0.7525   -0.5891 H   0  0  0  0  0  0  0  0  0  0  0  0
    1.4212   -1.3406    1.4695 H   0  0  0  0  0  0  0  0  0  0  0  0
    1.4645   -0.9906   -1.6477 H   0  0  0  0  0  0  0  0  0  0  0  0
    0.7181   -2.4255   -0.6550 H   0  0  0  0  0  0  0  0  0  0  0  0
   -0.7614    0.9460   -1.5857 H   0  0  0  0  0  0  0  0  0  0  0  0
   -0.3558    2.6724    0.2707 H   0  0  0  0  0  0  0  0  0  0  0  0
   -1.9163    1.3043    1.1833 H   0  0  0  0  0  0  0  0  0  0  0  0
   -3.4630   -0.7472    0.4847 H   0  0  0  0  0  0  0  0  0  0  0  0
   -2.6706   -0.5978   -1.1833 H   0  0  0  0  0  0  0  0  0  0  0  0
   -1.2980   -1.1631    1.6363 H   0  0  0  0  0  0  0  0  0  0  0  0
  1  2  1  0
  2  3  1  0
  3  4  1  0
  4  5  1  0
  5  6  1  0
  5  7  1  0
  7  8  1  0
  8  9  1  0
  4  2  1  0
  9  7  1  0
  9  4  1  0
  1 10  1  0
  1 11  1  0
  1 12  1  0
  2 13  1  0
  3 14  1  0
  3 15  1  0
  5 16  1  0
  6 17  1  0
  7 18  1  0
  8 19  1  0
  8 20  1  0
  9 21  1  0
M  END
