
     RDKit          3D

 23 23  0  0  0  0  0  0  0  0999 V2000
    2.2212   -0.3618    0.7634 C   0  0  0  0  0  0  0  0  0  0  0  0
    1.4303   -0.2394   -0.5135 C   0  0  0  0  0  0  0  0  0  0  0  0
    1.0339    1.1515   -0.7355 C   0  0  0  0  0  0  0  0  0  0  0  0
   -0.0319    1.9296   -0.6381 C   0  0  0  0  0  0  0  0  0  0  0  0
   -1.4079    1.7304   -0.2301 C   0  0  0  0  0  0  0  0  0  0  0  0
   -2.0920    0.6701    0.1685 C   0  0  0  0  0  0  0  0  0  0  0  0
   -1.9464   -0.7489    0.4186 C   0  0  0  0  0  0  0  0  0  0  0  0
   -0.5656   -1.2518    0.6212 C   0  0  0  0  0  0  0  0  0  0  0  0
    0.2893   -1.1961   -0.6176 C   0  0  0  0  0  0  0  0  0  0  0  0
    2.5080   -1.4200    0.9145 H   0  0  0  0  0  0  0  0  0  0  0  0
    1.7590    0.1166    1.6276 H   0  0  0  0  0  0  0  0  0  0  0  0
    3.1864    0.1855    0.5842 H   0  0  0  0  0  0  0  0  0  0  0  0
    2.1484   -0.5082   -1.3450 H   0  0  0  0  0  0  0  0  0  0  0  0
    1.8696    1.7712   -1.1002 H   0  0  0  0  0  0  0  0  0  0  0  0
    0.1606    2.9724   -0.9331 H   0  0  0  0  0  0  0  0  0  0  0  0
   -2.0100    2.6528   -0.2572 H   0  0  0  0  0  0  0  0  0  0  0  0
   -3.1243    0.9931    0.3784 H   0  0  0  0  0  0  0  0  0  0  0  0
   -2.5508   -1.0183    1.3130 H   0  0  0  0  0  0  0  0  0  0  0  0
   -2.4062   -1.3105   -0.4397 H   0  0  0  0  0  0  0  0  0  0  0  0
   -0.6408   -2.3274    0.9149 H   0  0  0  0  0  0  0  0  0  0  0  0
   -0.0808   -0.7546    1.4945 H   0  0  0  0  0  0  0  0  0  0  0  0
    0.6258   -2.2059   -0.9471 H   0  0  0  0  0  0  0  0  0  0  0  0
   -0.3760   -0.8304   -1.4416 H   0  0  0  0  0  0  0  0  0  0  0  0
  1  2  1  0
  2  3  1  0
  3  4  2  3
  4  5  1  0
  5  6  2  3
  6  7  1  0
  7  8  1  0
  8  9  1  0
  9  2  1  0
  1 10  1  0
  1 11  1  0
  1 12  1  0
  2 13  1  0
  3 14  1  0
  4 15  1  0
  5 16  1  0
  6 17  1  0
  7 18  1  0
  7 19  1  0
  8 20  1  0
  8 21  1  0
  9 22  1  0
  9 23  1  0
M  END
