
     RDKit          3D

 23 24  0  0  0  0  0  0  0  0999 V2000
    2.3860    0.8392    0.2773 C   0  0  0  0  0  0  0  0  0  0  0  0
    1.1725    0.0551    0.7877 C   0  0  0  0  0  0  0  0  0  0  0  0
    1.0297   -1.2008    0.0324 C   0  0  0  0  0  0  0  0  0  0  0  0
   -0.3244   -1.6599   -0.3210 C   0  0  0  0  0  0  0  0  0  0  0  0
   -1.4331   -0.7059   -0.2130 C   0  0  0  0  0  0  0  0  0  0  0  0
   -1.5457    0.3009   -1.1547 O   0  0  0  0  0  0  0  0  0  0  0  0
   -2.2912    0.9864   -0.1691 C   0  0  0  0  0  0  0  0  0  0  0  0
   -1.3195    0.3456    0.8209 C   0  0  0  0  0  0  0  0  0  0  0  0
    0.0197    0.9943    0.7565 C   0  0  0  0  0  0  0  0  0  0  0  0
    2.0495    1.5723   -0.5138 H   0  0  0  0  0  0  0  0  0  0  0  0
    2.9045    1.3632    1.0856 H   0  0  0  0  0  0  0  0  0  0  0  0
    3.0551    0.1429   -0.2225 H   0  0  0  0  0  0  0  0  0  0  0  0
    1.4167   -0.1433    1.8744 H   0  0  0  0  0  0  0  0  0  0  0  0
    1.5934   -2.0046    0.5981 H   0  0  0  0  0  0  0  0  0  0  0  0
    1.6298   -1.1205   -0.9241 H   0  0  0  0  0  0  0  0  0  0  0  0
   -0.5814   -2.5448    0.3386 H   0  0  0  0  0  0  0  0  0  0  0  0
   -0.3505   -2.1055   -1.3614 H   0  0  0  0  0  0  0  0  0  0  0  0
   -2.4237   -1.2463   -0.1537 H   0  0  0  0  0  0  0  0  0  0  0  0
   -2.2199    2.0851   -0.2336 H   0  0  0  0  0  0  0  0  0  0  0  0
   -3.2966    0.5479   -0.1316 H   0  0  0  0  0  0  0  0  0  0  0  0
   -1.7439    0.1573    1.8164 H   0  0  0  0  0  0  0  0  0  0  0  0
    0.1056    1.6138   -0.1652 H   0  0  0  0  0  0  0  0  0  0  0  0
    0.1675    1.7277    1.6025 H   0  0  0  0  0  0  0  0  0  0  0  0
  1  2  1  0
  2  3  1  0
  3  4  1  0
  4  5  1  0
  5  6  1  0
  6  7  1  0
  7  8  1  0
  8  9  1  0
  9  2  1  0
  8  5  1  0
  1 10  1  0
  1 11  1  0
  1 12  1  0
  2 13  1  0
  3 14  1  0
  3 15  1  0
  4 16  1  0
  4 17  1  0
  5 18  1  0
  7 19  1  0
  7 20  1  0
  8 21  1  0
  9 22  1  0
  9 23  1  0
M  END
