
     RDKit          3D

 19 19  0  0  0  0  0  0  0  0999 V2000
   -1.9565   -0.6954   -0.5104 C   0  0  0  0  0  0  0  0  0  0  0  0
   -0.9699   -0.0707    0.4333 C   0  0  0  0  0  0  0  0  0  0  0  0
    0.3533   -0.8296    0.5288 C   0  0  0  0  0  0  0  0  0  0  0  0
    0.9899   -0.5136    1.7272 O   0  0  0  0  0  0  0  0  0  0  0  0
    0.8174   -0.0307   -0.6702 C   0  0  0  0  0  0  0  0  0  0  0  0
    2.2324    0.3636   -0.6725 C   0  0  0  0  0  0  0  0  0  0  0  0
    3.0071   -0.1554   -1.4591 O   0  0  0  0  0  0  0  0  0  0  0  0
   -0.1677    1.0423   -0.2511 C   0  0  0  0  0  0  0  0  0  0  0  0
    0.2958    1.9179    0.7232 O   0  0  0  0  0  0  0  0  0  0  0  0
   -2.6851    0.0847   -0.8183 H   0  0  0  0  0  0  0  0  0  0  0  0
   -2.4714   -1.5318    0.0265 H   0  0  0  0  0  0  0  0  0  0  0  0
   -1.4514   -1.1336   -1.3690 H   0  0  0  0  0  0  0  0  0  0  0  0
   -1.3702    0.2333    1.4088 H   0  0  0  0  0  0  0  0  0  0  0  0
    0.1706   -1.9015    0.3478 H   0  0  0  0  0  0  0  0  0  0  0  0
    1.3403   -1.3087    2.1966 H   0  0  0  0  0  0  0  0  0  0  0  0
    0.4777   -0.5069   -1.6042 H   0  0  0  0  0  0  0  0  0  0  0  0
    2.6392    1.1064   -0.0005 H   0  0  0  0  0  0  0  0  0  0  0  0
   -0.7777    1.4750   -1.0520 H   0  0  0  0  0  0  0  0  0  0  0  0
   -0.4738    2.4546    1.0151 H   0  0  0  0  0  0  0  0  0  0  0  0
  1  2  1  0
  2  3  1  0
  3  4  1  0
  3  5  1  0
  5  6  1  0
  6  7  2  0
  5  8  1  0
  8  9  1  0
  8  2  1  0
  1 10  1  0
  1 11  1  0
  1 12  1  0
  2 13  1  0
  3 14  1  0
  4 15  1  0
  5 16  1  0
  6 17  1  0
  8 18  1  0
  9 19  1  0
M  END
