
     RDKit          3D

 19 19  0  0  0  0  0  0  0  0999 V2000
   -1.3850    1.2015   -0.3966 C   0  0  0  0  0  0  0  0  0  0  0  0
   -0.9583   -0.0327    0.2897 C   0  0  0  0  0  0  0  0  0  0  0  0
   -0.7635   -1.1732   -0.7235 C   0  0  0  0  0  0  0  0  0  0  0  0
    0.3345   -1.6586    0.1696 C   0  0  0  0  0  0  0  0  0  0  0  0
    0.3676   -0.2670    0.7974 C   0  0  0  0  0  0  0  0  0  0  0  0
    1.5687    0.4705    0.3672 C   0  0  0  0  0  0  0  0  0  0  0  0
    1.5821    1.8205    0.5572 O   0  0  0  0  0  0  0  0  0  0  0  0
   -2.2389    1.7045    0.1417 H   0  0  0  0  0  0  0  0  0  0  0  0
   -1.7853    0.9768   -1.4090 H   0  0  0  0  0  0  0  0  0  0  0  0
   -0.6284    1.9880   -0.5097 H   0  0  0  0  0  0  0  0  0  0  0  0
   -1.7619   -0.3781    0.9923 H   0  0  0  0  0  0  0  0  0  0  0  0
   -1.6307   -1.8141   -0.8583 H   0  0  0  0  0  0  0  0  0  0  0  0
   -0.4133   -0.7430   -1.6835 H   0  0  0  0  0  0  0  0  0  0  0  0
    1.2623   -1.9240   -0.3861 H   0  0  0  0  0  0  0  0  0  0  0  0
    0.0055   -2.4644    0.8402 H   0  0  0  0  0  0  0  0  0  0  0  0
    0.3903   -0.4194    1.9197 H   0  0  0  0  0  0  0  0  0  0  0  0
    1.7725    0.2941   -0.7299 H   0  0  0  0  0  0  0  0  0  0  0  0
    2.4765    0.0641    0.8671 H   0  0  0  0  0  0  0  0  0  0  0  0
    1.8054    2.3545   -0.2455 H   0  0  0  0  0  0  0  0  0  0  0  0
  1  2  1  0
  2  3  1  0
  3  4  1  0
  4  5  1  0
  5  6  1  0
  6  7  1  0
  5  2  1  0
  1  8  1  0
  1  9  1  0
  1 10  1  0
  2 11  1  0
  3 12  1  0
  3 13  1  0
  4 14  1  0
  4 15  1  0
  5 16  1  0
  6 17  1  0
  6 18  1  0
  7 19  1  0
M  END
