
     RDKit          3D

 17 18  0  0  0  0  0  0  0  0999 V2000
   -2.1102    0.0640    0.3953 C   0  0  0  0  0  0  0  0  0  0  0  0
   -1.1164   -0.7937   -0.3360 C   0  0  0  0  0  0  0  0  0  0  0  0
   -0.3890   -0.1393   -1.4586 C   0  0  0  0  0  0  0  0  0  0  0  0
    0.3407   -0.6113   -0.1841 C   0  0  0  0  0  0  0  0  0  0  0  0
    0.9392    0.4585    0.6628 C   0  0  0  0  0  0  0  0  0  0  0  0
    2.4524    0.4754    0.6794 C   0  0  0  0  0  0  0  0  0  0  0  0
    1.6565    1.4975    0.1037 O   0  0  0  0  0  0  0  0  0  0  0  0
   -1.9209    1.1489    0.2717 H   0  0  0  0  0  0  0  0  0  0  0  0
   -3.1256   -0.1814    0.0450 H   0  0  0  0  0  0  0  0  0  0  0  0
   -2.0832   -0.1326    1.4856 H   0  0  0  0  0  0  0  0  0  0  0  0
   -1.4643   -1.8315   -0.5132 H   0  0  0  0  0  0  0  0  0  0  0  0
   -0.4450    0.9679   -1.6089 H   0  0  0  0  0  0  0  0  0  0  0  0
   -0.1818   -0.6830   -2.3958 H   0  0  0  0  0  0  0  0  0  0  0  0
    0.9810   -1.5276   -0.2908 H   0  0  0  0  0  0  0  0  0  0  0  0
    0.4837    0.6908    1.6623 H   0  0  0  0  0  0  0  0  0  0  0  0
    2.9879    0.6834    1.6070 H   0  0  0  0  0  0  0  0  0  0  0  0
    2.9949   -0.0859   -0.1253 H   0  0  0  0  0  0  0  0  0  0  0  0
  1  2  1  0
  2  3  1  0
  3  4  1  0
  4  5  1  0
  5  6  1  0
  6  7  1  0
  4  2  1  0
  7  5  1  0
  1  8  1  0
  1  9  1  0
  1 10  1  0
  2 11  1  0
  3 12  1  0
  3 13  1  0
  4 14  1  0
  5 15  1  0
  6 16  1  0
  6 17  1  0
M  END
