
     RDKit          3D

 19 20  0  0  0  0  0  0  0  0999 V2000
   -2.3518   -0.6416    0.6496 C   0  0  0  0  0  0  0  0  0  0  0  0
   -1.2714   -0.3445   -0.4088 C   0  0  0  0  0  0  0  0  0  0  0  0
    0.1013   -0.7116   -0.2312 C   0  0  0  0  0  0  0  0  0  0  0  0
    1.3662    0.0687   -0.5062 C   0  0  0  0  0  0  0  0  0  0  0  0
    2.5818   -0.6864   -0.2000 C   0  0  0  0  0  0  0  0  0  0  0  0
    2.8396   -0.9713    0.9506 O   0  0  0  0  0  0  0  0  0  0  0  0
    0.8099    0.8692    0.6924 C   0  0  0  0  0  0  0  0  0  0  0  0
   -0.4436    0.7773   -0.1493 C   0  0  0  0  0  0  0  0  0  0  0  0
   -0.2157    1.5477   -1.3224 O   0  0  0  0  0  0  0  0  0  0  0  0
   -2.5569   -1.7254    0.5806 H   0  0  0  0  0  0  0  0  0  0  0  0
   -3.2424   -0.0745    0.3297 H   0  0  0  0  0  0  0  0  0  0  0  0
   -1.9591   -0.3367    1.6249 H   0  0  0  0  0  0  0  0  0  0  0  0
   -1.7001   -0.5857   -1.4287 H   0  0  0  0  0  0  0  0  0  0  0  0
    0.2592   -1.1911    0.7905 H   0  0  0  0  0  0  0  0  0  0  0  0
    1.4327    0.6111   -1.4431 H   0  0  0  0  0  0  0  0  0  0  0  0
    3.2421   -0.9861   -0.9963 H   0  0  0  0  0  0  0  0  0  0  0  0
    0.8266    0.2503    1.5958 H   0  0  0  0  0  0  0  0  0  0  0  0
    1.1935    1.8826    0.7751 H   0  0  0  0  0  0  0  0  0  0  0  0
   -0.9121    2.2481   -1.3033 H   0  0  0  0  0  0  0  0  0  0  0  0
  1  2  1  0
  2  3  1  0
  3  4  1  0
  4  5  1  0
  5  6  2  0
  4  7  1  0
  7  8  1  0
  8  9  1  0
  8  2  1  0
  8  3  1  0
  1 10  1  0
  1 11  1  0
  1 12  1  0
  2 13  1  0
  3 14  1  0
  4 15  1  0
  5 16  1  0
  7 17  1  0
  7 18  1  0
  9 19  1  0
M  END
