
     RDKit          3D

 23 24  0  0  0  0  0  0  0  0999 V2000
   -0.0981    2.0658   -0.1782 C   0  0  0  0  0  0  0  0  0  0  0  0
   -0.1292    0.6610   -0.6554 C   0  0  0  0  0  0  0  0  0  0  0  0
   -1.0412   -0.2831    0.0888 C   0  0  0  0  0  0  0  0  0  0  0  0
   -2.3968   -0.3095    0.1339 C   0  0  0  0  0  0  0  0  0  0  0  0
   -0.1033   -1.3704   -0.4211 C   0  0  0  0  0  0  0  0  0  0  0  0
    0.8161   -0.3066    0.0293 C   0  0  0  0  0  0  0  0  0  0  0  0
    2.1880   -0.2395   -0.0305 C   0  0  0  0  0  0  0  0  0  0  0  0
    2.8175   -1.2468    0.6849 O   0  0  0  0  0  0  0  0  0  0  0  0
   -0.0566   -0.1594    1.2323 C   0  0  0  0  0  0  0  0  0  0  0  0
    0.9143    2.3169    0.1791 H   0  0  0  0  0  0  0  0  0  0  0  0
   -0.3765    2.7340   -1.0446 H   0  0  0  0  0  0  0  0  0  0  0  0
   -0.8928    2.2228    0.5734 H   0  0  0  0  0  0  0  0  0  0  0  0
   -0.2227    0.4901   -1.7385 H   0  0  0  0  0  0  0  0  0  0  0  0
   -2.9161    0.6382   -0.2029 H   0  0  0  0  0  0  0  0  0  0  0  0
   -2.8929   -1.1041   -0.5004 H   0  0  0  0  0  0  0  0  0  0  0  0
   -2.8491   -0.4897    1.1566 H   0  0  0  0  0  0  0  0  0  0  0  0
   -0.0680   -2.2830    0.1937 H   0  0  0  0  0  0  0  0  0  0  0  0
   -0.1161   -1.5149   -1.5141 H   0  0  0  0  0  0  0  0  0  0  0  0
    2.5785    0.7252    0.4120 H   0  0  0  0  0  0  0  0  0  0  0  0
    2.5674   -0.2080   -1.0875 H   0  0  0  0  0  0  0  0  0  0  0  0
    2.4059   -2.1219    0.5108 H   0  0  0  0  0  0  0  0  0  0  0  0
   -0.0197    0.7996    1.7451 H   0  0  0  0  0  0  0  0  0  0  0  0
   -0.1084   -1.0167    1.9220 H   0  0  0  0  0  0  0  0  0  0  0  0
  1  2  1  0
  2  3  1  0
  3  4  1  0
  3  5  1  0
  5  6  1  0
  6  7  1  0
  7  8  1  0
  6  9  1  0
  6  2  1  0
  9  3  1  0
  1 10  1  0
  1 11  1  0
  1 12  1  0
  2 13  1  0
  4 14  1  0
  4 15  1  0
  4 16  1  0
  5 17  1  0
  5 18  1  0
  7 19  1  0
  7 20  1  0
  8 21  1  0
  9 22  1  0
  9 23  1  0
M  END
