
     RDKit          3D

 21 23  0  0  0  0  0  0  0  0999 V2000
   -1.3447    1.7839    0.3210 C   0  0  0  0  0  0  0  0  0  0  0  0
   -0.0178    1.0920    0.1192 C   0  0  0  0  0  0  0  0  0  0  0  0
    0.1695   -0.1692    0.9102 C   0  0  0  0  0  0  0  0  0  0  0  0
    1.1259   -0.6054   -0.1668 C   0  0  0  0  0  0  0  0  0  0  0  0
    2.4516    0.0055   -0.2309 C   0  0  0  0  0  0  0  0  0  0  0  0
   -0.0057    0.0085   -0.9248 C   0  0  0  0  0  0  0  0  0  0  0  0
   -0.8532   -0.7619    0.0342 C   0  0  0  0  0  0  0  0  0  0  0  0
   -1.4487   -1.9575   -0.0896 C   0  0  0  0  0  0  0  0  0  0  0  0
   -2.1777   -0.6608    0.1559 O   0  0  0  0  0  0  0  0  0  0  0  0
   -2.0144    1.6445   -0.5695 H   0  0  0  0  0  0  0  0  0  0  0  0
   -1.7861    1.3695    1.2464 H   0  0  0  0  0  0  0  0  0  0  0  0
   -1.2335    2.8824    0.4389 H   0  0  0  0  0  0  0  0  0  0  0  0
    0.7920    1.8101    0.1091 H   0  0  0  0  0  0  0  0  0  0  0  0
    0.3035   -0.2496    1.9003 H   0  0  0  0  0  0  0  0  0  0  0  0
    1.1408   -1.6943   -0.2634 H   0  0  0  0  0  0  0  0  0  0  0  0
    3.2101   -0.7324    0.1335 H   0  0  0  0  0  0  0  0  0  0  0  0
    2.6115    0.9213    0.3592 H   0  0  0  0  0  0  0  0  0  0  0  0
    2.7065    0.2284   -1.3002 H   0  0  0  0  0  0  0  0  0  0  0  0
   -0.1153    0.1109   -1.9132 H   0  0  0  0  0  0  0  0  0  0  0  0
   -1.6439   -2.6668    0.7655 H   0  0  0  0  0  0  0  0  0  0  0  0
   -1.8702   -2.3589   -1.0349 H   0  0  0  0  0  0  0  0  0  0  0  0
  1  2  1  0
  2  3  1  0
  3  4  1  0
  4  5  1  0
  4  6  1  0
  6  7  1  0
  7  8  1  0
  8  9  1  0
  6  2  1  0
  9  7  1  0
  7  3  1  0
  1 10  1  0
  1 11  1  0
  1 12  1  0
  2 13  1  0
  3 14  1  0
  4 15  1  0
  5 16  1  0
  5 17  1  0
  5 18  1  0
  6 19  1  0
  8 20  1  0
  8 21  1  0
M  END
