
     RDKit          3D

 21 22  0  0  0  0  0  0  0  0999 V2000
   -2.2511   -1.0310    0.6677 C   0  0  0  0  0  0  0  0  0  0  0  0
   -1.3389   -0.2191   -0.1859 C   0  0  0  0  0  0  0  0  0  0  0  0
   -1.1466    1.2215   -0.0542 C   0  0  0  0  0  0  0  0  0  0  0  0
   -0.7490    1.9405   -1.1789 O   0  0  0  0  0  0  0  0  0  0  0  0
   -0.1371    0.3634    0.5626 C   0  0  0  0  0  0  0  0  0  0  0  0
    1.1818    0.0413   -0.0475 C   0  0  0  0  0  0  0  0  0  0  0  0
    1.4893   -1.4410   -0.1393 C   0  0  0  0  0  0  0  0  0  0  0  0
    2.2654    0.9612   -0.2355 C   0  0  0  0  0  0  0  0  0  0  0  0
    1.4376    0.6634   -1.3619 O   0  0  0  0  0  0  0  0  0  0  0  0
   -2.0666   -0.8511    1.7484 H   0  0  0  0  0  0  0  0  0  0  0  0
   -1.9919   -2.1158    0.4841 H   0  0  0  0  0  0  0  0  0  0  0  0
   -3.3106   -0.8867    0.3900 H   0  0  0  0  0  0  0  0  0  0  0  0
   -1.1459   -0.6645   -1.1922 H   0  0  0  0  0  0  0  0  0  0  0  0
   -1.8382    1.7903    0.6005 H   0  0  0  0  0  0  0  0  0  0  0  0
   -0.3242    2.8146   -0.9409 H   0  0  0  0  0  0  0  0  0  0  0  0
   -0.1509    0.3105    1.6755 H   0  0  0  0  0  0  0  0  0  0  0  0
    1.7138   -1.8473    0.8678 H   0  0  0  0  0  0  0  0  0  0  0  0
    2.2692   -1.6746   -0.8670 H   0  0  0  0  0  0  0  0  0  0  0  0
    0.5321   -1.9470   -0.4496 H   0  0  0  0  0  0  0  0  0  0  0  0
    2.2619    2.0280   -0.0054 H   0  0  0  0  0  0  0  0  0  0  0  0
    3.2999    0.5434   -0.3385 H   0  0  0  0  0  0  0  0  0  0  0  0
  1  2  1  0
  2  3  1  0
  3  4  1  0
  3  5  1  0
  5  6  1  0
  6  7  1  0
  6  8  1  0
  8  9  1  0
  5  2  1  0
  9  6  1  0
  1 10  1  0
  1 11  1  0
  1 12  1  0
  2 13  1  0
  3 14  1  0
  4 15  1  0
  5 16  1  0
  7 17  1  0
  7 18  1  0
  7 19  1  0
  8 20  1  0
  8 21  1  0
M  END
