
     RDKit          3D

 18 18  0  0  0  0  0  0  0  0999 V2000
    2.2472   -0.1079   -0.3882 C   0  0  0  0  0  0  0  0  0  0  0  0
    1.0523    0.0415    0.5202 C   0  0  0  0  0  0  0  0  0  0  0  0
   -0.0309   -1.0039    0.2259 C   0  0  0  0  0  0  0  0  0  0  0  0
   -1.0394    0.1086    0.5414 C   0  0  0  0  0  0  0  0  0  0  0  0
   -2.2432    0.0544   -0.3441 C   0  0  0  0  0  0  0  0  0  0  0  0
    0.0455    1.0887    0.0741 C   0  0  0  0  0  0  0  0  0  0  0  0
    1.8941   -0.4025   -1.4020 H   0  0  0  0  0  0  0  0  0  0  0  0
    2.8254   -0.9808   -0.0089 H   0  0  0  0  0  0  0  0  0  0  0  0
    2.8454    0.8010   -0.4669 H   0  0  0  0  0  0  0  0  0  0  0  0
    1.2565    0.0713    1.5885 H   0  0  0  0  0  0  0  0  0  0  0  0
   -0.0233   -1.8313    0.9442 H   0  0  0  0  0  0  0  0  0  0  0  0
   -0.0605   -1.3020   -0.8589 H   0  0  0  0  0  0  0  0  0  0  0  0
   -1.2662    0.1511    1.6061 H   0  0  0  0  0  0  0  0  0  0  0  0
   -1.9124   -0.1238   -1.3995 H   0  0  0  0  0  0  0  0  0  0  0  0
   -2.8259    0.9781   -0.2854 H   0  0  0  0  0  0  0  0  0  0  0  0
   -2.8257   -0.8479   -0.0647 H   0  0  0  0  0  0  0  0  0  0  0  0
    0.0165    1.3064   -0.9909 H   0  0  0  0  0  0  0  0  0  0  0  0
    0.0445    1.9994    0.7090 H   0  0  0  0  0  0  0  0  0  0  0  0
  1  2  1  0
  2  3  1  0
  3  4  1  0
  4  5  1  0
  4  6  1  0
  6  2  1  0
  1  7  1  0
  1  8  1  0
  1  9  1  0
  2 10  1  0
  3 11  1  0
  3 12  1  0
  4 13  1  0
  5 14  1  0
  5 15  1  0
  5 16  1  0
  6 17  1  0
  6 18  1  0
M  END
