
     RDKit          3D

 17 18  0  0  0  0  0  0  0  0999 V2000
   -1.2395   -1.3496    0.3954 C   0  0  0  0  0  0  0  0  0  0  0  0
   -1.0070   -0.1817   -0.5099 C   0  0  0  0  0  0  0  0  0  0  0  0
   -1.2120    1.1038    0.2814 C   0  0  0  0  0  0  0  0  0  0  0  0
   -2.2278    1.8074    0.3514 O   0  0  0  0  0  0  0  0  0  0  0  0
    0.0696    1.3137    0.9391 C   0  0  0  0  0  0  0  0  0  0  0  0
    0.9966    0.6540    0.3276 C   0  0  0  0  0  0  0  0  0  0  0  0
    2.2183   -0.0374   -0.2385 C   0  0  0  0  0  0  0  0  0  0  0  0
    1.3182   -1.0277   -0.7374 O   0  0  0  0  0  0  0  0  0  0  0  0
    0.4219   -0.0124   -0.8967 C   0  0  0  0  0  0  0  0  0  0  0  0
   -0.6721   -2.2510    0.0969 H   0  0  0  0  0  0  0  0  0  0  0  0
   -2.3311   -1.6240    0.3151 H   0  0  0  0  0  0  0  0  0  0  0  0
   -1.0081   -1.0279    1.4373 H   0  0  0  0  0  0  0  0  0  0  0  0
   -1.7217   -0.1134   -1.3401 H   0  0  0  0  0  0  0  0  0  0  0  0
    0.2664    1.9355    1.8297 H   0  0  0  0  0  0  0  0  0  0  0  0
    2.8985   -0.4094    0.5477 H   0  0  0  0  0  0  0  0  0  0  0  0
    2.6755    0.5912   -0.9994 H   0  0  0  0  0  0  0  0  0  0  0  0
    0.5540    0.6288   -1.7995 H   0  0  0  0  0  0  0  0  0  0  0  0
  1  2  1  0
  2  3  1  0
  3  4  2  0
  3  5  1  0
  5  6  2  0
  6  7  1  0
  7  8  1  0
  8  9  1  0
  9  2  1  0
  9  6  1  0
  1 10  1  0
  1 11  1  0
  1 12  1  0
  2 13  1  0
  5 14  1  0
  7 15  1  0
  7 16  1  0
  9 17  1  0
M  END
