
     RDKit          3D

 23 24  0  0  0  0  0  0  0  0999 V2000
    1.9419   -1.3400   -0.6167 C   0  0  0  0  0  0  0  0  0  0  0  0
    1.5062   -0.2181    0.2932 C   0  0  0  0  0  0  0  0  0  0  0  0
    0.1877   -0.1635    0.9155 C   0  0  0  0  0  0  0  0  0  0  0  0
   -1.0284   -0.6452    0.1950 C   0  0  0  0  0  0  0  0  0  0  0  0
   -2.3385   -0.4230    0.8960 C   0  0  0  0  0  0  0  0  0  0  0  0
   -0.9720   -1.9770   -0.2572 O   0  0  0  0  0  0  0  0  0  0  0  0
   -0.7159    0.3475   -0.9115 C   0  0  0  0  0  0  0  0  0  0  0  0
    0.5088    0.7685   -0.1839 C   0  0  0  0  0  0  0  0  0  0  0  0
    0.7891    2.2185    0.0405 C   0  0  0  0  0  0  0  0  0  0  0  0
    2.7332   -0.8971   -1.2901 H   0  0  0  0  0  0  0  0  0  0  0  0
    2.4874   -2.0690    0.0202 H   0  0  0  0  0  0  0  0  0  0  0  0
    1.1475   -1.7664   -1.2211 H   0  0  0  0  0  0  0  0  0  0  0  0
    2.3511    0.2027    0.8890 H   0  0  0  0  0  0  0  0  0  0  0  0
    0.0498    0.2638    1.9264 H   0  0  0  0  0  0  0  0  0  0  0  0
   -2.6126    0.6387    0.9064 H   0  0  0  0  0  0  0  0  0  0  0  0
   -3.1243   -0.9364    0.2684 H   0  0  0  0  0  0  0  0  0  0  0  0
   -2.3007   -0.8860    1.9099 H   0  0  0  0  0  0  0  0  0  0  0  0
   -1.2567   -1.9198   -1.2239 H   0  0  0  0  0  0  0  0  0  0  0  0
   -1.4739    1.1793   -0.9600 H   0  0  0  0  0  0  0  0  0  0  0  0
   -0.6135   -0.1330   -1.8801 H   0  0  0  0  0  0  0  0  0  0  0  0
    1.0197    2.6800   -0.9448 H   0  0  0  0  0  0  0  0  0  0  0  0
   -0.0012    2.7620    0.5571 H   0  0  0  0  0  0  0  0  0  0  0  0
    1.7154    2.3137    0.6717 H   0  0  0  0  0  0  0  0  0  0  0  0
  1  2  1  0
  2  3  1  0
  3  4  1  0
  4  5  1  0
  4  6  1  0
  4  7  1  0
  7  8  1  0
  8  9  1  0
  8  2  1  0
  8  3  1  0
  1 10  1  0
  1 11  1  0
  1 12  1  0
  2 13  1  0
  3 14  1  0
  5 15  1  0
  5 16  1  0
  5 17  1  0
  6 18  1  0
  7 19  1  0
  7 20  1  0
  9 21  1  0
  9 22  1  0
  9 23  1  0
M  END
