
     RDKit          3D

 16 16  0  0  0  0  0  0  0  0999 V2000
   -1.4826    1.1663    0.2842 C   0  0  0  0  0  0  0  0  0  0  0  0
   -1.5189   -0.1384   -0.4603 C   0  0  0  0  0  0  0  0  0  0  0  0
   -1.2170   -1.4059    0.2486 C   0  0  0  0  0  0  0  0  0  0  0  0
   -0.2960   -0.8224   -0.8668 C   0  0  0  0  0  0  0  0  0  0  0  0
    0.9890   -0.3002   -0.3874 C   0  0  0  0  0  0  0  0  0  0  0  0
    2.0564    0.1235   -0.0016 C   0  0  0  0  0  0  0  0  0  0  0  0
    3.3242    0.6138    0.4503 C   0  0  0  0  0  0  0  0  0  0  0  0
    4.3986   -0.0274    0.3909 O   0  0  0  0  0  0  0  0  0  0  0  0
   -0.5151    1.2254    0.8205 H   0  0  0  0  0  0  0  0  0  0  0  0
   -2.3523    1.2767    0.9701 H   0  0  0  0  0  0  0  0  0  0  0  0
   -1.5143    1.9837   -0.4636 H   0  0  0  0  0  0  0  0  0  0  0  0
   -2.4137   -0.2100   -1.1465 H   0  0  0  0  0  0  0  0  0  0  0  0
   -1.7210   -2.3482    0.0152 H   0  0  0  0  0  0  0  0  0  0  0  0
   -0.8312   -1.2897    1.2948 H   0  0  0  0  0  0  0  0  0  0  0  0
   -0.2591   -1.4514   -1.7955 H   0  0  0  0  0  0  0  0  0  0  0  0
    3.3531    1.6041    0.8704 H   0  0  0  0  0  0  0  0  0  0  0  0
  1  2  1  0
  2  3  1  0
  3  4  1  0
  4  5  1  0
  5  6  3  0
  6  7  1  0
  7  8  2  0
  4  2  1  0
  1  9  1  0
  1 10  1  0
  1 11  1  0
  2 12  1  0
  3 13  1  0
  3 14  1  0
  4 15  1  0
  7 16  1  0
M  END
