
     RDKit          3D

 21 22  0  0  0  0  0  0  0  0999 V2000
    2.0620    0.1531    0.3800 C   0  0  0  0  0  0  0  0  0  0  0  0
    1.0965    0.1963   -0.7725 C   0  0  0  0  0  0  0  0  0  0  0  0
    0.5143   -1.1917   -0.9106 C   0  0  0  0  0  0  0  0  0  0  0  0
   -0.5663   -1.6701   -0.3189 C   0  0  0  0  0  0  0  0  0  0  0  0
   -1.5222   -0.9879    0.5995 C   0  0  0  0  0  0  0  0  0  0  0  0
   -1.7153    0.4250    0.1121 C   0  0  0  0  0  0  0  0  0  0  0  0
   -0.6308    1.3057    0.6907 C   0  0  0  0  0  0  0  0  0  0  0  0
    0.0237    1.2164   -0.6336 C   0  0  0  0  0  0  0  0  0  0  0  0
   -1.1533    0.6471   -1.1404 O   0  0  0  0  0  0  0  0  0  0  0  0
    1.5652   -0.2048    1.3030 H   0  0  0  0  0  0  0  0  0  0  0  0
    2.8267   -0.6251    0.1261 H   0  0  0  0  0  0  0  0  0  0  0  0
    2.5975    1.0885    0.5437 H   0  0  0  0  0  0  0  0  0  0  0  0
    1.6752    0.4212   -1.6930 H   0  0  0  0  0  0  0  0  0  0  0  0
    1.0648   -1.8551   -1.5788 H   0  0  0  0  0  0  0  0  0  0  0  0
   -0.7663   -2.6988   -0.5455 H   0  0  0  0  0  0  0  0  0  0  0  0
   -2.4576   -1.5276    0.7131 H   0  0  0  0  0  0  0  0  0  0  0  0
   -1.0162   -0.9544    1.6038 H   0  0  0  0  0  0  0  0  0  0  0  0
   -2.7342    0.8139    0.1847 H   0  0  0  0  0  0  0  0  0  0  0  0
   -0.1189    0.9248    1.5696 H   0  0  0  0  0  0  0  0  0  0  0  0
   -1.0488    2.3416    0.8521 H   0  0  0  0  0  0  0  0  0  0  0  0
    0.3040    2.1819   -1.0852 H   0  0  0  0  0  0  0  0  0  0  0  0
  1  2  1  0
  2  3  1  0
  3  4  2  0
  4  5  1  0
  5  6  1  0
  6  7  1  0
  7  8  1  0
  8  9  1  0
  8  2  1  0
  9  6  1  0
  1 10  1  0
  1 11  1  0
  1 12  1  0
  2 13  1  0
  3 14  1  0
  4 15  1  0
  5 16  1  0
  5 17  1  0
  6 18  1  0
  7 19  1  0
  7 20  1  0
  8 21  1  0
M  END
