
     RDKit          3D

 23 23  0  0  0  0  0  0  0  0999 V2000
   -1.9135   -1.6868    0.1230 C   0  0  0  0  0  0  0  0  0  0  0  0
   -0.5729   -1.1061    0.4282 C   0  0  0  0  0  0  0  0  0  0  0  0
    0.4033   -1.1044   -0.7499 C   0  0  0  0  0  0  0  0  0  0  0  0
   -0.1122    0.1571   -0.2057 C   0  0  0  0  0  0  0  0  0  0  0  0
   -1.1728    0.9039   -1.0247 C   0  0  0  0  0  0  0  0  0  0  0  0
   -0.6628    2.0558   -1.5734 O   0  0  0  0  0  0  0  0  0  0  0  0
    0.7022    1.0943    0.6386 C   0  0  0  0  0  0  0  0  0  0  0  0
    1.9852    0.5073    1.1559 C   0  0  0  0  0  0  0  0  0  0  0  0
    2.8220    0.1178    0.1407 O   0  0  0  0  0  0  0  0  0  0  0  0
   -2.0107   -2.6441    0.6889 H   0  0  0  0  0  0  0  0  0  0  0  0
   -2.0230   -1.9837   -0.9570 H   0  0  0  0  0  0  0  0  0  0  0  0
   -2.7556   -0.9988    0.3301 H   0  0  0  0  0  0  0  0  0  0  0  0
   -0.1914   -1.3120    1.4359 H   0  0  0  0  0  0  0  0  0  0  0  0
    0.0160   -1.4759   -1.7365 H   0  0  0  0  0  0  0  0  0  0  0  0
    1.3562   -1.5680   -0.4933 H   0  0  0  0  0  0  0  0  0  0  0  0
   -1.4999    0.2074   -1.8114 H   0  0  0  0  0  0  0  0  0  0  0  0
   -2.0624    1.0814   -0.3789 H   0  0  0  0  0  0  0  0  0  0  0  0
   -1.1760    2.8607   -1.3689 H   0  0  0  0  0  0  0  0  0  0  0  0
    0.0981    1.4260    1.5329 H   0  0  0  0  0  0  0  0  0  0  0  0
    0.9491    2.0315    0.0986 H   0  0  0  0  0  0  0  0  0  0  0  0
    2.4377    1.2512    1.8319 H   0  0  0  0  0  0  0  0  0  0  0  0
    1.6904   -0.3943    1.7692 H   0  0  0  0  0  0  0  0  0  0  0  0
    3.6927    0.5799    0.1255 H   0  0  0  0  0  0  0  0  0  0  0  0
  1  2  1  0
  2  3  1  0
  3  4  1  0
  4  5  1  0
  5  6  1  0
  4  7  1  0
  7  8  1  0
  8  9  1  0
  4  2  1  0
  1 10  1  0
  1 11  1  0
  1 12  1  0
  2 13  1  0
  3 14  1  0
  3 15  1  0
  5 16  1  0
  5 17  1  0
  6 18  1  0
  7 19  1  0
  7 20  1  0
  8 21  1  0
  8 22  1  0
  9 23  1  0
M  END
