
     RDKit          3D

 23 23  0  0  0  0  0  0  0  0999 V2000
    2.2478   -0.7497   -0.7363 C   0  0  0  0  0  0  0  0  0  0  0  0
    1.2724   -0.3737    0.3088 C   0  0  0  0  0  0  0  0  0  0  0  0
    1.1794    1.0723    0.7041 C   0  0  0  0  0  0  0  0  0  0  0  0
   -0.3278    0.8159    0.8188 C   0  0  0  0  0  0  0  0  0  0  0  0
   -1.1761    2.0157    0.4901 C   0  0  0  0  0  0  0  0  0  0  0  0
   -0.1298   -0.1768   -0.2835 C   0  0  0  0  0  0  0  0  0  0  0  0
   -0.8920   -1.4660   -0.1870 C   0  0  0  0  0  0  0  0  0  0  0  0
   -2.2492   -1.3495   -0.7381 C   0  0  0  0  0  0  0  0  0  0  0  0
   -2.6710   -0.3138   -1.2090 O   0  0  0  0  0  0  0  0  0  0  0  0
    2.4314    0.0102   -1.5036 H   0  0  0  0  0  0  0  0  0  0  0  0
    3.1799   -1.1045   -0.2404 H   0  0  0  0  0  0  0  0  0  0  0  0
    1.8510   -1.6607   -1.2748 H   0  0  0  0  0  0  0  0  0  0  0  0
    1.2822   -1.0806    1.1574 H   0  0  0  0  0  0  0  0  0  0  0  0
    1.6573    1.3413    1.6760 H   0  0  0  0  0  0  0  0  0  0  0  0
    1.3740    1.7584   -0.1254 H   0  0  0  0  0  0  0  0  0  0  0  0
   -0.6280    0.3751    1.7716 H   0  0  0  0  0  0  0  0  0  0  0  0
   -0.9521    2.8036    1.2449 H   0  0  0  0  0  0  0  0  0  0  0  0
   -2.2292    1.7061    0.6572 H   0  0  0  0  0  0  0  0  0  0  0  0
   -1.0380    2.3746   -0.5468 H   0  0  0  0  0  0  0  0  0  0  0  0
   -0.0823    0.3004   -1.2575 H   0  0  0  0  0  0  0  0  0  0  0  0
   -0.8624   -1.8909    0.8370 H   0  0  0  0  0  0  0  0  0  0  0  0
   -0.3336   -2.2010   -0.8332 H   0  0  0  0  0  0  0  0  0  0  0  0
   -2.9039   -2.2065   -0.7302 H   0  0  0  0  0  0  0  0  0  0  0  0
  1  2  1  0
  2  3  1  0
  3  4  1  0
  4  5  1  0
  4  6  1  0
  6  7  1  0
  7  8  1  0
  8  9  2  0
  6  2  1  0
  1 10  1  0
  1 11  1  0
  1 12  1  0
  2 13  1  0
  3 14  1  0
  3 15  1  0
  4 16  1  0
  5 17  1  0
  5 18  1  0
  5 19  1  0
  6 20  1  0
  7 21  1  0
  7 22  1  0
  8 23  1  0
M  END
