
     RDKit          3D

 21 22  0  0  0  0  0  0  0  0999 V2000
   -2.2586   -0.2006    0.5414 C   0  0  0  0  0  0  0  0  0  0  0  0
   -0.9366    0.1816   -0.0349 C   0  0  0  0  0  0  0  0  0  0  0  0
   -0.0547   -1.0612   -0.2490 C   0  0  0  0  0  0  0  0  0  0  0  0
    0.3022   -1.6099    0.9896 O   0  0  0  0  0  0  0  0  0  0  0  0
    1.2268   -0.6654   -0.9361 C   0  0  0  0  0  0  0  0  0  0  0  0
    1.9168    0.5208   -0.2418 C   0  0  0  0  0  0  0  0  0  0  0  0
    0.9149    1.6012   -0.2612 C   0  0  0  0  0  0  0  0  0  0  0  0
    0.3134    2.3131    0.6529 O   0  0  0  0  0  0  0  0  0  0  0  0
   -0.1126    1.0836    0.7824 C   0  0  0  0  0  0  0  0  0  0  0  0
   -2.2061   -0.6915    1.5176 H   0  0  0  0  0  0  0  0  0  0  0  0
   -2.7712   -0.8525   -0.2246 H   0  0  0  0  0  0  0  0  0  0  0  0
   -2.8814    0.7158    0.5926 H   0  0  0  0  0  0  0  0  0  0  0  0
   -1.1300    0.5665   -1.0743 H   0  0  0  0  0  0  0  0  0  0  0  0
   -0.5636   -1.7808   -0.8942 H   0  0  0  0  0  0  0  0  0  0  0  0
   -0.4334   -1.6978    1.6097 H   0  0  0  0  0  0  0  0  0  0  0  0
    1.8919   -1.5065   -1.0708 H   0  0  0  0  0  0  0  0  0  0  0  0
    0.9223   -0.2524   -1.9416 H   0  0  0  0  0  0  0  0  0  0  0  0
    2.7731    0.7818   -0.8975 H   0  0  0  0  0  0  0  0  0  0  0  0
    2.2563    0.2168    0.7577 H   0  0  0  0  0  0  0  0  0  0  0  0
    0.5172    1.7808   -1.3057 H   0  0  0  0  0  0  0  0  0  0  0  0
    0.3134    0.5562    1.6878 H   0  0  0  0  0  0  0  0  0  0  0  0
  1  2  1  0
  2  3  1  0
  3  4  1  0
  3  5  1  0
  5  6  1  0
  6  7  1  0
  7  8  1  0
  8  9  1  0
  9  2  1  0
  9  7  1  0
  1 10  1  0
  1 11  1  0
  1 12  1  0
  2 13  1  0
  3 14  1  0
  4 15  1  0
  5 16  1  0
  5 17  1  0
  6 18  1  0
  6 19  1  0
  7 20  1  0
  9 21  1  0
M  END
