
     RDKit          3D

 21 22  0  0  0  0  0  0  0  0999 V2000
   -2.4612    0.7104   -0.0661 C   0  0  0  0  0  0  0  0  0  0  0  0
   -1.0995    0.3622    0.4467 C   0  0  0  0  0  0  0  0  0  0  0  0
   -1.0348   -1.1189    0.7410 C   0  0  0  0  0  0  0  0  0  0  0  0
    0.4647   -1.3465    0.6923 C   0  0  0  0  0  0  0  0  0  0  0  0
    0.9077   -1.8237   -0.5207 O   0  0  0  0  0  0  0  0  0  0  0  0
    1.0150   -0.4507   -0.3408 C   0  0  0  0  0  0  0  0  0  0  0  0
    2.4321    0.0509   -0.2971 C   0  0  0  0  0  0  0  0  0  0  0  0
    2.4098    1.4294   -0.1144 O   0  0  0  0  0  0  0  0  0  0  0  0
   -0.1065    0.4595   -0.7219 C   0  0  0  0  0  0  0  0  0  0  0  0
   -3.2439    0.1530    0.4977 H   0  0  0  0  0  0  0  0  0  0  0  0
   -2.5229    0.3544   -1.1178 H   0  0  0  0  0  0  0  0  0  0  0  0
   -2.6792    1.7971   -0.0285 H   0  0  0  0  0  0  0  0  0  0  0  0
   -0.7593    0.9760    1.2882 H   0  0  0  0  0  0  0  0  0  0  0  0
   -1.4916   -1.4073    1.6831 H   0  0  0  0  0  0  0  0  0  0  0  0
   -1.5601   -1.6471   -0.0791 H   0  0  0  0  0  0  0  0  0  0  0  0
    1.0334   -1.4629    1.6127 H   0  0  0  0  0  0  0  0  0  0  0  0
    2.9072   -0.1982   -1.2698 H   0  0  0  0  0  0  0  0  0  0  0  0
    3.0244   -0.4383    0.5209 H   0  0  0  0  0  0  0  0  0  0  0  0
    3.0882    1.8925   -0.6948 H   0  0  0  0  0  0  0  0  0  0  0  0
   -0.6076    0.2088   -1.6538 H   0  0  0  0  0  0  0  0  0  0  0  0
    0.2841    1.4995   -0.7097 H   0  0  0  0  0  0  0  0  0  0  0  0
  1  2  1  0
  2  3  1  0
  3  4  1  0
  4  5  1  0
  5  6  1  0
  6  7  1  0
  7  8  1  0
  6  9  1  0
  9  2  1  0
  6  4  1  0
  1 10  1  0
  1 11  1  0
  1 12  1  0
  2 13  1  0
  3 14  1  0
  3 15  1  0
  4 16  1  0
  7 17  1  0
  7 18  1  0
  8 19  1  0
  9 20  1  0
  9 21  1  0
M  END
