
     RDKit          3D

 19 20  0  0  0  0  0  0  0  0999 V2000
   -2.6013    0.6345    0.0627 C   0  0  0  0  0  0  0  0  0  0  0  0
   -1.3631   -0.1518    0.3962 C   0  0  0  0  0  0  0  0  0  0  0  0
   -0.4890   -0.4253   -0.8278 C   0  0  0  0  0  0  0  0  0  0  0  0
    0.2355   -1.5824   -0.7370 O   0  0  0  0  0  0  0  0  0  0  0  0
    1.3305   -1.3851    0.0576 C   0  0  0  0  0  0  0  0  0  0  0  0
    1.2207   -0.0456    0.7187 C   0  0  0  0  0  0  0  0  0  0  0  0
    2.3136    0.8170    0.1967 C   0  0  0  0  0  0  0  0  0  0  0  0
    3.1410    0.4709   -0.6254 O   0  0  0  0  0  0  0  0  0  0  0  0
   -0.0765    0.5042    0.2521 C   0  0  0  0  0  0  0  0  0  0  0  0
   -3.3070    0.0068   -0.5558 H   0  0  0  0  0  0  0  0  0  0  0  0
   -3.1142    1.0091    0.9459 H   0  0  0  0  0  0  0  0  0  0  0  0
   -2.2985    1.4839   -0.5923 H   0  0  0  0  0  0  0  0  0  0  0  0
   -1.5592   -0.9987    1.0894 H   0  0  0  0  0  0  0  0  0  0  0  0
   -0.7422    0.0328   -1.7845 H   0  0  0  0  0  0  0  0  0  0  0  0
    1.4657   -2.1914    0.8348 H   0  0  0  0  0  0  0  0  0  0  0  0
    2.2379   -1.4506   -0.6100 H   0  0  0  0  0  0  0  0  0  0  0  0
    1.3073   -0.1682    1.8170 H   0  0  0  0  0  0  0  0  0  0  0  0
    2.3935    1.8311    0.5649 H   0  0  0  0  0  0  0  0  0  0  0  0
   -0.0948    1.6089    0.0494 H   0  0  0  0  0  0  0  0  0  0  0  0
  1  2  1  0
  2  3  1  0
  3  4  1  0
  4  5  1  0
  5  6  1  0
  6  7  1  0
  7  8  2  0
  6  9  1  0
  9  2  1  0
  9  3  1  0
  1 10  1  0
  1 11  1  0
  1 12  1  0
  2 13  1  0
  3 14  1  0
  5 15  1  0
  5 16  1  0
  6 17  1  0
  7 18  1  0
  9 19  1  0
M  END
