
     RDKit          3D

 18 19  0  0  0  0  0  0  0  0999 V2000
    2.1048   -0.1894    0.0009 C   0  0  0  0  0  0  0  0  0  0  0  0
    0.6983   -0.6331    0.1943 C   0  0  0  0  0  0  0  0  0  0  0  0
   -0.0589   -0.7582   -1.0908 C   0  0  0  0  0  0  0  0  0  0  0  0
    0.1903   -1.2754   -2.1318 O   0  0  0  0  0  0  0  0  0  0  0  0
   -1.3037   -0.0289   -0.7526 C   0  0  0  0  0  0  0  0  0  0  0  0
   -1.5455   -0.2973    0.7189 C   0  0  0  0  0  0  0  0  0  0  0  0
   -0.1828    0.3854    0.8657 C   0  0  0  0  0  0  0  0  0  0  0  0
   -0.7025    1.2970   -0.2496 C   0  0  0  0  0  0  0  0  0  0  0  0
    2.6420   -0.3440    0.9592 H   0  0  0  0  0  0  0  0  0  0  0  0
    2.5840   -0.8944   -0.7269 H   0  0  0  0  0  0  0  0  0  0  0  0
    2.2289    0.8572   -0.2891 H   0  0  0  0  0  0  0  0  0  0  0  0
    0.6526   -1.5766    0.7338 H   0  0  0  0  0  0  0  0  0  0  0  0
   -2.1109    0.0175   -1.4241 H   0  0  0  0  0  0  0  0  0  0  0  0
   -1.4549   -1.3366    1.0420 H   0  0  0  0  0  0  0  0  0  0  0  0
   -2.3941    0.2820    1.0739 H   0  0  0  0  0  0  0  0  0  0  0  0
    0.0747    0.8105    1.7938 H   0  0  0  0  0  0  0  0  0  0  0  0
   -1.4763    1.9539    0.1748 H   0  0  0  0  0  0  0  0  0  0  0  0
    0.0542    1.7304   -0.8924 H   0  0  0  0  0  0  0  0  0  0  0  0
  1  2  1  0
  2  3  1  0
  3  4  2  0
  3  5  1  0
  5  6  1  0
  6  7  1  0
  7  8  1  0
  7  2  1  0
  8  5  1  0
  1  9  1  0
  1 10  1  0
  1 11  1  0
  2 12  1  0
  5 13  1  0
  6 14  1  0
  6 15  1  0
  7 16  1  0
  8 17  1  0
  8 18  1  0
M  END
