
     RDKit          3D

 19 19  0  0  0  0  0  0  0  0999 V2000
   -2.4365   -0.3663    0.1454 C   0  0  0  0  0  0  0  0  0  0  0  0
   -1.1417    0.1831   -0.3654 C   0  0  0  0  0  0  0  0  0  0  0  0
   -0.5667    1.0831    0.6673 C   0  0  0  0  0  0  0  0  0  0  0  0
    0.7382    1.2122    0.8111 C   0  0  0  0  0  0  0  0  0  0  0  0
    1.6290    0.4363   -0.0846 C   0  0  0  0  0  0  0  0  0  0  0  0
    2.9284    0.4836    0.4130 O   0  0  0  0  0  0  0  0  0  0  0  0
    1.1797   -1.0003   -0.2290 C   0  0  0  0  0  0  0  0  0  0  0  0
   -0.2356   -0.9532   -0.6765 C   0  0  0  0  0  0  0  0  0  0  0  0
   -0.6625   -1.8741   -1.3166 O   0  0  0  0  0  0  0  0  0  0  0  0
   -3.2471    0.3594   -0.0352 H   0  0  0  0  0  0  0  0  0  0  0  0
   -2.3040   -0.5719    1.2470 H   0  0  0  0  0  0  0  0  0  0  0  0
   -2.6879   -1.3488   -0.3471 H   0  0  0  0  0  0  0  0  0  0  0  0
   -1.2538    0.7768   -1.2933 H   0  0  0  0  0  0  0  0  0  0  0  0
   -1.2865    1.6267    1.2939 H   0  0  0  0  0  0  0  0  0  0  0  0
    1.1157    1.8761    1.5732 H   0  0  0  0  0  0  0  0  0  0  0  0
    1.6081    0.8650   -1.1299 H   0  0  0  0  0  0  0  0  0  0  0  0
    3.5272    0.2405   -0.3280 H   0  0  0  0  0  0  0  0  0  0  0  0
    1.7867   -1.4428   -1.0460 H   0  0  0  0  0  0  0  0  0  0  0  0
    1.3095   -1.5856    0.7008 H   0  0  0  0  0  0  0  0  0  0  0  0
  1  2  1  0
  2  3  1  0
  3  4  2  0
  4  5  1  0
  5  6  1  0
  5  7  1  0
  7  8  1  0
  8  9  2  0
  8  2  1  0
  1 10  1  0
  1 11  1  0
  1 12  1  0
  2 13  1  0
  3 14  1  0
  4 15  1  0
  5 16  1  0
  6 17  1  0
  7 18  1  0
  7 19  1  0
M  END
