
     RDKit          3D

 18 19  0  0  0  0  0  0  0  0999 V2000
    2.3345    0.5134    0.3747 C   0  0  0  0  0  0  0  0  0  0  0  0
    0.8428    0.2328    0.4070 C   0  0  0  0  0  0  0  0  0  0  0  0
    0.4221   -1.1616    0.2296 C   0  0  0  0  0  0  0  0  0  0  0  0
    1.0234   -1.0787   -1.0461 O   0  0  0  0  0  0  0  0  0  0  0  0
    0.3151    0.1184   -0.9677 C   0  0  0  0  0  0  0  0  0  0  0  0
   -0.8086   -0.7072   -0.4327 C   0  0  0  0  0  0  0  0  0  0  0  0
   -1.8226    0.1159    0.2796 C   0  0  0  0  0  0  0  0  0  0  0  0
   -2.8697    0.3509   -0.6607 O   0  0  0  0  0  0  0  0  0  0  0  0
    2.5598    1.0813   -0.5519 H   0  0  0  0  0  0  0  0  0  0  0  0
    2.9400   -0.4126    0.4745 H   0  0  0  0  0  0  0  0  0  0  0  0
    2.5424    1.2034    1.2188 H   0  0  0  0  0  0  0  0  0  0  0  0
    0.2946    0.7421    1.1897 H   0  0  0  0  0  0  0  0  0  0  0  0
    0.5610   -1.9572    0.8414 H   0  0  0  0  0  0  0  0  0  0  0  0
    0.2663    0.8211   -1.6892 H   0  0  0  0  0  0  0  0  0  0  0  0
   -1.2273   -1.4583   -1.1447 H   0  0  0  0  0  0  0  0  0  0  0  0
   -1.4805    1.1739    0.4929 H   0  0  0  0  0  0  0  0  0  0  0  0
   -2.2944   -0.3592    1.1374 H   0  0  0  0  0  0  0  0  0  0  0  0
   -3.5991    0.7815   -0.1527 H   0  0  0  0  0  0  0  0  0  0  0  0
  1  2  1  0
  2  3  1  0
  3  4  1  0
  4  5  1  0
  5  6  1  0
  6  7  1  0
  7  8  1  0
  5  2  1  0
  6  3  1  0
  1  9  1  0
  1 10  1  0
  1 11  1  0
  2 12  1  0
  3 13  1  0
  5 14  1  0
  6 15  1  0
  7 16  1  0
  7 17  1  0
  8 18  1  0
M  END
