
     RDKit          3D

 23 24  0  0  0  0  0  0  0  0999 V2000
   -1.6941    1.3252   -0.1723 C   0  0  0  0  0  0  0  0  0  0  0  0
   -0.6460    0.4064   -0.7653 C   0  0  0  0  0  0  0  0  0  0  0  0
   -1.2230   -1.0111   -0.6502 C   0  0  0  0  0  0  0  0  0  0  0  0
   -0.8886   -1.3143    0.8105 C   0  0  0  0  0  0  0  0  0  0  0  0
    0.5890   -0.9230    0.8363 C   0  0  0  0  0  0  0  0  0  0  0  0
    1.2434   -1.9009    0.0585 O   0  0  0  0  0  0  0  0  0  0  0  0
    0.6100    0.3450    0.0405 C   0  0  0  0  0  0  0  0  0  0  0  0
    1.9548    0.5767   -0.6722 C   0  0  0  0  0  0  0  0  0  0  0  0
    1.4194    1.5057    0.3870 C   0  0  0  0  0  0  0  0  0  0  0  0
   -1.8106    1.2032    0.9081 H   0  0  0  0  0  0  0  0  0  0  0  0
   -2.6619    1.0374   -0.6634 H   0  0  0  0  0  0  0  0  0  0  0  0
   -1.5269    2.3813   -0.3880 H   0  0  0  0  0  0  0  0  0  0  0  0
   -0.5015    0.6532   -1.8200 H   0  0  0  0  0  0  0  0  0  0  0  0
   -2.3012   -0.9931   -0.8388 H   0  0  0  0  0  0  0  0  0  0  0  0
   -0.6587   -1.7303   -1.2623 H   0  0  0  0  0  0  0  0  0  0  0  0
   -1.4904   -0.7197    1.5090 H   0  0  0  0  0  0  0  0  0  0  0  0
   -1.0373   -2.3936    0.9408 H   0  0  0  0  0  0  0  0  0  0  0  0
    0.9846   -0.8467    1.8458 H   0  0  0  0  0  0  0  0  0  0  0  0
    1.8612   -2.4301    0.5934 H   0  0  0  0  0  0  0  0  0  0  0  0
    1.8895    0.8345   -1.7352 H   0  0  0  0  0  0  0  0  0  0  0  0
    2.8201   -0.0183   -0.3602 H   0  0  0  0  0  0  0  0  0  0  0  0
    1.1436    2.4953    0.0197 H   0  0  0  0  0  0  0  0  0  0  0  0
    1.9246    1.5174    1.3783 H   0  0  0  0  0  0  0  0  0  0  0  0
  1  2  1  0
  2  3  1  0
  3  4  1  0
  4  5  1  0
  5  6  1  0
  5  7  1  0
  7  8  1  0
  8  9  1  0
  7  2  1  0
  9  7  1  0
  1 10  1  0
  1 11  1  0
  1 12  1  0
  2 13  1  0
  3 14  1  0
  3 15  1  0
  4 16  1  0
  4 17  1  0
  5 18  1  0
  6 19  1  0
  8 20  1  0
  8 21  1  0
  9 22  1  0
  9 23  1  0
M  END
