
     RDKit          3D

 21 22  0  0  0  0  0  0  0  0999 V2000
    1.5610   -1.2246   -1.0175 C   0  0  0  0  0  0  0  0  0  0  0  0
    1.4723    0.1066   -0.3188 C   0  0  0  0  0  0  0  0  0  0  0  0
    1.4326    0.0335    1.1698 C   0  0  0  0  0  0  0  0  0  0  0  0
    0.2497    0.5669    0.3610 C   0  0  0  0  0  0  0  0  0  0  0  0
    0.0118    2.0344    0.4006 C   0  0  0  0  0  0  0  0  0  0  0  0
    0.9322    2.8274    0.2827 O   0  0  0  0  0  0  0  0  0  0  0  0
   -0.9715   -0.2806    0.5111 C   0  0  0  0  0  0  0  0  0  0  0  0
   -1.7035   -0.8291   -0.6688 C   0  0  0  0  0  0  0  0  0  0  0  0
   -2.3350    0.3014    0.0888 C   0  0  0  0  0  0  0  0  0  0  0  0
    0.6655   -1.8340   -0.9521 H   0  0  0  0  0  0  0  0  0  0  0  0
    2.3749   -1.7991   -0.4837 H   0  0  0  0  0  0  0  0  0  0  0  0
    1.9193   -1.1318   -2.0753 H   0  0  0  0  0  0  0  0  0  0  0  0
    2.1098    0.8863   -0.7890 H   0  0  0  0  0  0  0  0  0  0  0  0
    1.9162    0.8009    1.7935 H   0  0  0  0  0  0  0  0  0  0  0  0
    1.3494   -0.9607    1.6555 H   0  0  0  0  0  0  0  0  0  0  0  0
   -0.9732    2.4127    0.5336 H   0  0  0  0  0  0  0  0  0  0  0  0
   -1.0609   -0.9187    1.4398 H   0  0  0  0  0  0  0  0  0  0  0  0
   -2.1411   -1.8355   -0.6037 H   0  0  0  0  0  0  0  0  0  0  0  0
   -1.2457   -0.5611   -1.6498 H   0  0  0  0  0  0  0  0  0  0  0  0
   -2.3597    1.2857   -0.4126 H   0  0  0  0  0  0  0  0  0  0  0  0
   -3.2040    0.1193    0.7350 H   0  0  0  0  0  0  0  0  0  0  0  0
  1  2  1  0
  2  3  1  0
  3  4  1  0
  4  5  1  0
  5  6  2  0
  4  7  1  0
  7  8  1  0
  8  9  1  0
  4  2  1  0
  9  7  1  0
  1 10  1  0
  1 11  1  0
  1 12  1  0
  2 13  1  0
  3 14  1  0
  3 15  1  0
  5 16  1  0
  7 17  1  0
  8 18  1  0
  8 19  1  0
  9 20  1  0
  9 21  1  0
M  END
