
     RDKit          3D

 19 19  0  0  0  0  0  0  0  0999 V2000
   -2.2520    0.7015   -0.2846 C   0  0  0  0  0  0  0  0  0  0  0  0
   -0.7572    0.3825   -0.4104 C   0  0  0  0  0  0  0  0  0  0  0  0
   -0.0184    1.2656    0.4882 C   0  0  0  0  0  0  0  0  0  0  0  0
    1.2502    1.1984    0.8484 C   0  0  0  0  0  0  0  0  0  0  0  0
    2.2042    0.1893    0.4033 C   0  0  0  0  0  0  0  0  0  0  0  0
    3.4415    0.4863    0.5350 O   0  0  0  0  0  0  0  0  0  0  0  0
    1.9644   -1.1379   -0.1825 C   0  0  0  0  0  0  0  0  0  0  0  0
    0.7256   -1.6199   -0.3901 C   0  0  0  0  0  0  0  0  0  0  0  0
   -0.6048   -1.0836   -0.1471 C   0  0  0  0  0  0  0  0  0  0  0  0
   -2.3820    1.7633   -0.5239 H   0  0  0  0  0  0  0  0  0  0  0  0
   -2.5122    0.4531    0.7758 H   0  0  0  0  0  0  0  0  0  0  0  0
   -2.8607    0.0710   -0.9292 H   0  0  0  0  0  0  0  0  0  0  0  0
   -0.5205    0.5485   -1.4898 H   0  0  0  0  0  0  0  0  0  0  0  0
   -0.5768    2.1042    0.9339 H   0  0  0  0  0  0  0  0  0  0  0  0
    1.6351    1.9603    1.5418 H   0  0  0  0  0  0  0  0  0  0  0  0
    2.7977   -1.7513   -0.4575 H   0  0  0  0  0  0  0  0  0  0  0  0
    0.7418   -2.6085   -0.8265 H   0  0  0  0  0  0  0  0  0  0  0  0
   -0.9356   -1.3135    0.9079 H   0  0  0  0  0  0  0  0  0  0  0  0
   -1.3402   -1.6093   -0.7924 H   0  0  0  0  0  0  0  0  0  0  0  0
  1  2  1  0
  2  3  1  0
  3  4  2  0
  4  5  1  0
  5  6  2  0
  5  7  1  0
  7  8  2  0
  8  9  1  0
  9  2  1  0
  1 10  1  0
  1 11  1  0
  1 12  1  0
  2 13  1  0
  3 14  1  0
  4 15  1  0
  7 16  1  0
  8 17  1  0
  9 18  1  0
  9 19  1  0
M  END
