
     RDKit          3D

 19 20  0  0  0  0  0  0  0  0999 V2000
    1.2183   -0.6028   -1.1936 C   0  0  0  0  0  0  0  0  0  0  0  0
    0.8914   -0.4821    0.2452 C   0  0  0  0  0  0  0  0  0  0  0  0
   -0.3217   -1.1969    0.7498 C   0  0  0  0  0  0  0  0  0  0  0  0
   -1.4379   -0.8571   -0.2175 C   0  0  0  0  0  0  0  0  0  0  0  0
   -1.1493    0.6556   -0.3078 C   0  0  0  0  0  0  0  0  0  0  0  0
    0.0138    0.6771    0.6517 C   0  0  0  0  0  0  0  0  0  0  0  0
    0.6215    1.9270    0.9920 C   0  0  0  0  0  0  0  0  0  0  0  0
    1.0565    2.6932    0.1560 O   0  0  0  0  0  0  0  0  0  0  0  0
   -0.4573   -0.1381    1.6798 O   0  0  0  0  0  0  0  0  0  0  0  0
    1.7060   -1.5750   -1.3712 H   0  0  0  0  0  0  0  0  0  0  0  0
    1.9744    0.1986   -1.4393 H   0  0  0  0  0  0  0  0  0  0  0  0
    0.3755   -0.5203   -1.8757 H   0  0  0  0  0  0  0  0  0  0  0  0
    1.7529   -0.5678    0.8987 H   0  0  0  0  0  0  0  0  0  0  0  0
   -0.2510   -2.1853    1.1347 H   0  0  0  0  0  0  0  0  0  0  0  0
   -1.3547   -1.3479   -1.1813 H   0  0  0  0  0  0  0  0  0  0  0  0
   -2.3987   -1.0388    0.3090 H   0  0  0  0  0  0  0  0  0  0  0  0
   -0.9063    0.9656   -1.3208 H   0  0  0  0  0  0  0  0  0  0  0  0
   -2.0410    1.1737    0.0614 H   0  0  0  0  0  0  0  0  0  0  0  0
    0.7073    2.2213    2.0290 H   0  0  0  0  0  0  0  0  0  0  0  0
  1  2  1  0
  2  3  1  0
  3  4  1  0
  4  5  1  0
  5  6  1  0
  6  7  1  0
  7  8  2  0
  6  9  1  0
  6  2  1  0
  9  3  1  0
  1 10  1  0
  1 11  1  0
  1 12  1  0
  2 13  1  0
  3 14  1  0
  4 15  1  0
  4 16  1  0
  5 17  1  0
  5 18  1  0
  7 19  1  0
M  END
