
     RDKit          2D

 21 23  0  0  0  0  0  0  0  0999 V2000
    3.0824   -2.2289    0.0000 C   0  0  0  0  0  0  0  0  0  0  0  0
    1.5915   -2.3938    0.0000 C   0  0  0  0  0  0  0  0  0  0  0  0
    0.1006   -2.5587    0.0000 C   0  0  0  0  0  0  0  0  0  0  0  0
   -0.0000   -1.0607    0.0000 C   0  0  0  0  0  0  0  0  0  0  0  0
    1.0607    0.0000    0.0000 C   0  0  0  0  0  0  0  0  0  0  0  0
    0.0000    1.0607    0.0000 C   0  0  0  0  0  0  0  0  0  0  0  0
    1.4266    0.5971    0.0000 C   0  0  0  0  0  0  0  0  0  0  0  0
    1.4266   -0.9029    0.0000 C   0  0  0  0  0  0  0  0  0  0  0  0
   -1.0607    0.0000    0.0000 O   0  0  0  0  0  0  0  0  0  0  0  0
    4.5733   -2.0640    0.0000 H   0  0  0  0  0  0  0  0  0  0  0  0
    3.2473   -3.7198    0.0000 H   0  0  0  0  0  0  0  0  0  0  0  0
    3.2009   -1.3511    0.0000 H   0  0  0  0  0  0  0  0  0  0  0  0
    1.7564   -3.8847    0.0000 H   0  0  0  0  0  0  0  0  0  0  0  0
    0.2655   -4.0496    0.0000 H   0  0  0  0  0  0  0  0  0  0  0  0
   -1.3903   -2.7236    0.0000 H   0  0  0  0  0  0  0  0  0  0  0  0
    2.1213    1.0607    0.0000 H   0  0  0  0  0  0  0  0  0  0  0  0
    2.1064   -0.3196    0.0000 H   0  0  0  0  0  0  0  0  0  0  0  0
    0.0000    2.5607    0.0000 H   0  0  0  0  0  0  0  0  0  0  0  0
    1.7385    2.0644    0.0000 H   0  0  0  0  0  0  0  0  0  0  0  0
    2.9184    0.4403    0.0000 H   0  0  0  0  0  0  0  0  0  0  0  0
    2.2139   -0.7782    0.0000 H   0  0  0  0  0  0  0  0  0  0  0  0
  1  2  1  0
  2  3  1  0
  3  4  1  0
  4  5  1  0
  5  6  1  0
  6  7  1  0
  7  8  1  0
  6  9  1  0
  8  2  1  0
  8  4  1  0
  9  4  1  0
  1 10  1  0
  1 11  1  0
  1 12  1  0
  2 13  1  0
  3 14  1  0
  3 15  1  0
  5 16  1  0
  5 17  1  0
  6 18  1  0
  7 19  1  0
  7 20  1  0
  8 21  1  0
M  END
