
     RDKit          3D

 18 19  0  0  0  0  0  0  0  0999 V2000
   -1.8586   -0.5557   -0.0087 C   0  0  0  0  0  0  0  0  0  0  0  0
   -1.0093    0.0750    1.0668 C   0  0  0  0  0  0  0  0  0  0  0  0
    0.3413   -0.4164    1.3275 C   0  0  0  0  0  0  0  0  0  0  0  0
    1.1383   -1.1693    0.3150 C   0  0  0  0  0  0  0  0  0  0  0  0
    1.4185   -0.2037   -0.7584 C   0  0  0  0  0  0  0  0  0  0  0  0
    0.8533    0.9614   -0.4979 C   0  0  0  0  0  0  0  0  0  0  0  0
    0.1241    0.9491    0.7658 C   0  0  0  0  0  0  0  0  0  0  0  0
    0.3931    2.0691    1.5865 O   0  0  0  0  0  0  0  0  0  0  0  0
   -1.2728   -1.0311   -0.8008 H   0  0  0  0  0  0  0  0  0  0  0  0
   -2.6203    0.1497   -0.4105 H   0  0  0  0  0  0  0  0  0  0  0  0
   -2.4542   -1.3660    0.5022 H   0  0  0  0  0  0  0  0  0  0  0  0
   -1.6138    0.3644    1.9651 H   0  0  0  0  0  0  0  0  0  0  0  0
    0.7485   -0.4448    2.3721 H   0  0  0  0  0  0  0  0  0  0  0  0
    2.0652   -1.6051    0.7509 H   0  0  0  0  0  0  0  0  0  0  0  0
    0.5887   -2.0205   -0.1388 H   0  0  0  0  0  0  0  0  0  0  0  0
    2.0170   -0.4419   -1.6436 H   0  0  0  0  0  0  0  0  0  0  0  0
    0.9430    1.8161   -1.1754 H   0  0  0  0  0  0  0  0  0  0  0  0
    0.1980    2.8696    1.0090 H   0  0  0  0  0  0  0  0  0  0  0  0
  1  2  1  0
  2  3  1  0
  3  4  1  0
  4  5  1  0
  5  6  2  0
  6  7  1  0
  7  8  1  0
  7  2  1  0
  7  3  1  0
  1  9  1  0
  1 10  1  0
  1 11  1  0
  2 12  1  0
  3 13  1  0
  4 14  1  0
  4 15  1  0
  5 16  1  0
  6 17  1  0
  8 18  1  0
M  END
