
     RDKit          3D

 19 21  0  0  0  0  0  0  0  0999 V2000
    2.3252    0.1463    0.3187 C   0  0  0  0  0  0  0  0  0  0  0  0
    0.9931    0.3825   -0.3542 C   0  0  0  0  0  0  0  0  0  0  0  0
   -0.0797    0.5433    0.7324 C   0  0  0  0  0  0  0  0  0  0  0  0
   -1.2383    1.2645    0.1364 C   0  0  0  0  0  0  0  0  0  0  0  0
   -1.4020    2.4697    0.2232 O   0  0  0  0  0  0  0  0  0  0  0  0
   -2.0820    0.2658   -0.5338 C   0  0  0  0  0  0  0  0  0  0  0  0
   -1.2087   -0.9752   -0.6478 C   0  0  0  0  0  0  0  0  0  0  0  0
    0.2625   -0.8458   -0.7997 C   0  0  0  0  0  0  0  0  0  0  0  0
   -0.3758   -0.9095    0.5371 C   0  0  0  0  0  0  0  0  0  0  0  0
    2.8931    1.1101    0.2723 H   0  0  0  0  0  0  0  0  0  0  0  0
    2.2130   -0.1207    1.3999 H   0  0  0  0  0  0  0  0  0  0  0  0
    2.8961   -0.6645   -0.1865 H   0  0  0  0  0  0  0  0  0  0  0  0
    0.9909    1.1634   -1.1189 H   0  0  0  0  0  0  0  0  0  0  0  0
    0.2745    0.8791    1.6954 H   0  0  0  0  0  0  0  0  0  0  0  0
   -2.8967   -0.0131    0.1971 H   0  0  0  0  0  0  0  0  0  0  0  0
   -2.5021    0.5812   -1.4915 H   0  0  0  0  0  0  0  0  0  0  0  0
   -1.6608   -1.9193   -0.9283 H   0  0  0  0  0  0  0  0  0  0  0  0
    0.7962   -1.6919   -1.2465 H   0  0  0  0  0  0  0  0  0  0  0  0
   -0.1987   -1.6658    1.2724 H   0  0  0  0  0  0  0  0  0  0  0  0
  1  2  1  0
  2  3  1  0
  3  4  1  0
  4  5  2  0
  4  6  1  0
  6  7  1  0
  7  8  1  0
  8  9  1  0
  8  2  1  0
  9  3  1  0
  9  7  1  0
  1 10  1  0
  1 11  1  0
  1 12  1  0
  2 13  1  0
  3 14  1  0
  6 15  1  0
  6 16  1  0
  7 17  1  0
  8 18  1  0
  9 19  1  0
M  END
