
     RDKit          3D

 17 18  0  0  0  0  0  0  0  0999 V2000
   -2.3051    0.3385   -0.1864 C   0  0  0  0  0  0  0  0  0  0  0  0
   -1.1517   -0.4309    0.4805 C   0  0  0  0  0  0  0  0  0  0  0  0
   -0.0473   -0.8445   -0.2825 C   0  0  0  0  0  0  0  0  0  0  0  0
    1.3383   -1.1878   -0.0441 C   0  0  0  0  0  0  0  0  0  0  0  0
    1.9192   -2.1979    0.2621 O   0  0  0  0  0  0  0  0  0  0  0  0
    2.0337    0.1415   -0.2820 C   0  0  0  0  0  0  0  0  0  0  0  0
    0.9479    1.1070    0.0589 C   0  0  0  0  0  0  0  0  0  0  0  0
    0.9231    2.2667   -0.2354 O   0  0  0  0  0  0  0  0  0  0  0  0
   -0.0125    0.3213    0.7957 C   0  0  0  0  0  0  0  0  0  0  0  0
   -2.6794    1.0839    0.5090 H   0  0  0  0  0  0  0  0  0  0  0  0
   -3.0367   -0.3489   -0.6078 H   0  0  0  0  0  0  0  0  0  0  0  0
   -1.8213    0.8853   -1.0401 H   0  0  0  0  0  0  0  0  0  0  0  0
   -1.5867   -1.1456    1.2161 H   0  0  0  0  0  0  0  0  0  0  0  0
   -0.0967   -0.4828   -1.3644 H   0  0  0  0  0  0  0  0  0  0  0  0
    2.9284    0.2500    0.3131 H   0  0  0  0  0  0  0  0  0  0  0  0
    2.1805    0.2164   -1.3810 H   0  0  0  0  0  0  0  0  0  0  0  0
    0.4664    0.0280    1.7882 H   0  0  0  0  0  0  0  0  0  0  0  0
  1  2  1  0
  2  3  1  0
  3  4  1  0
  4  5  2  0
  4  6  1  0
  6  7  1  0
  7  8  2  0
  7  9  1  0
  9  2  1  0
  9  3  1  0
  1 10  1  0
  1 11  1  0
  1 12  1  0
  2 13  1  0
  3 14  1  0
  6 15  1  0
  6 16  1  0
  9 17  1  0
M  END
