
     RDKit          3D

 23 25  0  0  0  0  0  0  0  0999 V2000
   -2.1625   -0.7089    0.0431 C   0  0  0  0  0  0  0  0  0  0  0  0
   -0.7705   -0.6417   -0.4402 C   0  0  0  0  0  0  0  0  0  0  0  0
    0.2326   -1.2342    0.5633 C   0  0  0  0  0  0  0  0  0  0  0  0
    0.0415    0.0973    1.2981 C   0  0  0  0  0  0  0  0  0  0  0  0
   -0.0108    0.6530   -0.1077 C   0  0  0  0  0  0  0  0  0  0  0  0
   -0.6851    1.9121   -0.3560 C   0  0  0  0  0  0  0  0  0  0  0  0
    1.3138    0.3582   -0.7330 C   0  0  0  0  0  0  0  0  0  0  0  0
    2.4919   -0.0678    0.0234 C   0  0  0  0  0  0  0  0  0  0  0  0
    1.4901   -1.1176   -0.2260 C   0  0  0  0  0  0  0  0  0  0  0  0
   -2.7687   -1.2749   -0.7239 H   0  0  0  0  0  0  0  0  0  0  0  0
   -2.6790    0.2425    0.1876 H   0  0  0  0  0  0  0  0  0  0  0  0
   -2.2827   -1.2752    1.0133 H   0  0  0  0  0  0  0  0  0  0  0  0
   -0.5560   -0.9078   -1.4857 H   0  0  0  0  0  0  0  0  0  0  0  0
   -0.0383   -2.1241    1.0617 H   0  0  0  0  0  0  0  0  0  0  0  0
   -0.9352    0.0847    1.7925 H   0  0  0  0  0  0  0  0  0  0  0  0
    0.8697    0.4116    1.9265 H   0  0  0  0  0  0  0  0  0  0  0  0
   -1.7190    1.7684   -0.7674 H   0  0  0  0  0  0  0  0  0  0  0  0
   -0.1451    2.4718   -1.1769 H   0  0  0  0  0  0  0  0  0  0  0  0
   -0.7740    2.6154    0.4962 H   0  0  0  0  0  0  0  0  0  0  0  0
    1.3774    0.5273   -1.8039 H   0  0  0  0  0  0  0  0  0  0  0  0
    3.4304   -0.1642   -0.5834 H   0  0  0  0  0  0  0  0  0  0  0  0
    2.7037    0.2081    1.0638 H   0  0  0  0  0  0  0  0  0  0  0  0
    1.5759   -1.8340   -1.0655 H   0  0  0  0  0  0  0  0  0  0  0  0
  1  2  1  0
  2  3  1  0
  3  4  1  0
  4  5  1  0
  5  6  1  0
  5  7  1  0
  7  8  1  0
  8  9  1  0
  5  2  1  0
  9  7  1  0
  9  3  1  0
  1 10  1  0
  1 11  1  0
  1 12  1  0
  2 13  1  0
  3 14  1  0
  4 15  1  0
  4 16  1  0
  6 17  1  0
  6 18  1  0
  6 19  1  0
  7 20  1  0
  8 21  1  0
  8 22  1  0
  9 23  1  0
M  END
