
     RDKit          3D

 21 23  0  0  0  0  0  0  0  0999 V2000
    2.0113   -0.6007    0.6038 C   0  0  0  0  0  0  0  0  0  0  0  0
    0.8907   -0.1551   -0.2873 C   0  0  0  0  0  0  0  0  0  0  0  0
    0.6999    1.3371   -0.3119 C   0  0  0  0  0  0  0  0  0  0  0  0
   -0.7649    1.6128   -0.1880 C   0  0  0  0  0  0  0  0  0  0  0  0
   -1.4454    0.2804    0.0059 C   0  0  0  0  0  0  0  0  0  0  0  0
   -1.1298   -0.4255    1.2656 C   0  0  0  0  0  0  0  0  0  0  0  0
   -0.4240   -0.7801    0.0255 C   0  0  0  0  0  0  0  0  0  0  0  0
   -1.2005   -1.4159   -1.1040 C   0  0  0  0  0  0  0  0  0  0  0  0
   -2.0874   -0.3404   -1.0283 O   0  0  0  0  0  0  0  0  0  0  0  0
    1.6193   -1.4439    1.2277 H   0  0  0  0  0  0  0  0  0  0  0  0
    2.3407    0.2227    1.2642 H   0  0  0  0  0  0  0  0  0  0  0  0
    2.8697   -1.0414    0.0319 H   0  0  0  0  0  0  0  0  0  0  0  0
    1.1774   -0.4518   -1.3369 H   0  0  0  0  0  0  0  0  0  0  0  0
    1.0499    1.8022   -1.2674 H   0  0  0  0  0  0  0  0  0  0  0  0
    1.2924    1.7694    0.5220 H   0  0  0  0  0  0  0  0  0  0  0  0
   -1.1920    2.2297   -0.9704 H   0  0  0  0  0  0  0  0  0  0  0  0
   -0.9257    2.1683    0.7835 H   0  0  0  0  0  0  0  0  0  0  0  0
   -0.5591    0.1055    2.0293 H   0  0  0  0  0  0  0  0  0  0  0  0
   -1.9374   -1.0622    1.6712 H   0  0  0  0  0  0  0  0  0  0  0  0
   -0.6268   -1.4170   -2.0540 H   0  0  0  0  0  0  0  0  0  0  0  0
   -1.6583   -2.3943   -0.8826 H   0  0  0  0  0  0  0  0  0  0  0  0
  1  2  1  0
  2  3  1  0
  3  4  1  0
  4  5  1  0
  5  6  1  0
  6  7  1  0
  7  8  1  0
  8  9  1  0
  7  2  1  0
  7  5  1  0
  9  5  1  0
  1 10  1  0
  1 11  1  0
  1 12  1  0
  2 13  1  0
  3 14  1  0
  3 15  1  0
  4 16  1  0
  4 17  1  0
  6 18  1  0
  6 19  1  0
  8 20  1  0
  8 21  1  0
M  END
