
     RDKit          3D

 21 23  0  0  0  0  0  0  0  0999 V2000
    2.3478   -0.0229    0.3193 C   0  0  0  0  0  0  0  0  0  0  0  0
    1.0124    0.4264   -0.1576 C   0  0  0  0  0  0  0  0  0  0  0  0
    0.4237   -0.5414   -1.2026 C   0  0  0  0  0  0  0  0  0  0  0  0
   -0.8805   -0.8666   -0.5176 C   0  0  0  0  0  0  0  0  0  0  0  0
   -0.3584   -1.1764    0.9009 C   0  0  0  0  0  0  0  0  0  0  0  0
   -0.0735    0.3380    0.8797 C   0  0  0  0  0  0  0  0  0  0  0  0
   -1.2901    0.4269    0.0445 C   0  0  0  0  0  0  0  0  0  0  0  0
   -2.3705    1.2109    0.0021 C   0  0  0  0  0  0  0  0  0  0  0  0
   -1.2476    1.5300   -0.9374 O   0  0  0  0  0  0  0  0  0  0  0  0
    2.6000    0.5250    1.2369 H   0  0  0  0  0  0  0  0  0  0  0  0
    3.1010    0.2586   -0.4419 H   0  0  0  0  0  0  0  0  0  0  0  0
    2.3930   -1.1194    0.4355 H   0  0  0  0  0  0  0  0  0  0  0  0
    1.0253    1.4188   -0.6189 H   0  0  0  0  0  0  0  0  0  0  0  0
    1.0570   -1.4533   -1.2823 H   0  0  0  0  0  0  0  0  0  0  0  0
    0.2401   -0.0386   -2.1528 H   0  0  0  0  0  0  0  0  0  0  0  0
   -1.5515   -1.5600   -0.9482 H   0  0  0  0  0  0  0  0  0  0  0  0
   -1.1828   -1.4639    1.5589 H   0  0  0  0  0  0  0  0  0  0  0  0
    0.5316   -1.8046    0.9119 H   0  0  0  0  0  0  0  0  0  0  0  0
    0.0234    0.8297    1.8101 H   0  0  0  0  0  0  0  0  0  0  0  0
   -3.3070    0.9814   -0.5242 H   0  0  0  0  0  0  0  0  0  0  0  0
   -2.4935    2.1015    0.6838 H   0  0  0  0  0  0  0  0  0  0  0  0
  1  2  1  0
  2  3  1  0
  3  4  1  0
  4  5  1  0
  5  6  1  0
  6  7  1  0
  7  8  1  0
  8  9  1  0
  6  2  1  0
  9  7  1  0
  7  4  1  0
  1 10  1  0
  1 11  1  0
  1 12  1  0
  2 13  1  0
  3 14  1  0
  3 15  1  0
  4 16  1  0
  5 17  1  0
  5 18  1  0
  6 19  1  0
  8 20  1  0
  8 21  1  0
M  END
