
     RDKit          3D

 21 22  0  0  0  0  0  0  0  0999 V2000
   -2.1387   -0.6785   -0.3590 C   0  0  0  0  0  0  0  0  0  0  0  0
   -1.0473   -0.5426    0.6475 C   0  0  0  0  0  0  0  0  0  0  0  0
   -0.6106    0.9121    0.8271 C   0  0  0  0  0  0  0  0  0  0  0  0
    0.3492    1.1207   -0.3133 C   0  0  0  0  0  0  0  0  0  0  0  0
    1.3027    2.0543    0.0476 O   0  0  0  0  0  0  0  0  0  0  0  0
    0.9694   -0.1855   -0.6495 C   0  0  0  0  0  0  0  0  0  0  0  0
    2.1066   -0.6269    0.2281 C   0  0  0  0  0  0  0  0  0  0  0  0
    1.2100   -0.9883    1.2244 O   0  0  0  0  0  0  0  0  0  0  0  0
    0.2558   -1.1787    0.2059 C   0  0  0  0  0  0  0  0  0  0  0  0
   -3.0708   -0.9989    0.1731 H   0  0  0  0  0  0  0  0  0  0  0  0
   -2.3455    0.3350   -0.7816 H   0  0  0  0  0  0  0  0  0  0  0  0
   -1.8704   -1.3988   -1.1510 H   0  0  0  0  0  0  0  0  0  0  0  0
   -1.3225   -0.9211    1.6494 H   0  0  0  0  0  0  0  0  0  0  0  0
   -1.4788    1.5969    0.7932 H   0  0  0  0  0  0  0  0  0  0  0  0
   -0.0366    1.0203    1.7657 H   0  0  0  0  0  0  0  0  0  0  0  0
   -0.1924    1.4957   -1.2203 H   0  0  0  0  0  0  0  0  0  0  0  0
    1.2372    2.8981   -0.4860 H   0  0  0  0  0  0  0  0  0  0  0  0
    1.1221   -0.4340   -1.7051 H   0  0  0  0  0  0  0  0  0  0  0  0
    2.6102   -1.5260   -0.1632 H   0  0  0  0  0  0  0  0  0  0  0  0
    2.7619    0.2353    0.4551 H   0  0  0  0  0  0  0  0  0  0  0  0
    0.1883   -2.1889   -0.1949 H   0  0  0  0  0  0  0  0  0  0  0  0
  1  2  1  0
  2  3  1  0
  3  4  1  0
  4  5  1  0
  4  6  1  0
  6  7  1  0
  7  8  1  0
  8  9  1  0
  9  2  1  0
  9  6  1  0
  1 10  1  0
  1 11  1  0
  1 12  1  0
  2 13  1  0
  3 14  1  0
  3 15  1  0
  4 16  1  0
  5 17  1  0
  6 18  1  0
  7 19  1  0
  7 20  1  0
  9 21  1  0
M  END
