
     RDKit          3D

 21 22  0  0  0  0  0  0  0  0999 V2000
    2.0073    0.9642    0.4059 C   0  0  0  0  0  0  0  0  0  0  0  0
    1.2247    0.0221   -0.4809 C   0  0  0  0  0  0  0  0  0  0  0  0
    1.0412   -1.3948   -0.1053 C   0  0  0  0  0  0  0  0  0  0  0  0
    1.0125   -2.3985   -1.0914 O   0  0  0  0  0  0  0  0  0  0  0  0
   -0.1012   -0.4700   -0.1377 C   0  0  0  0  0  0  0  0  0  0  0  0
   -0.8673   -0.0630    1.0717 C   0  0  0  0  0  0  0  0  0  0  0  0
   -1.9387    0.8539    0.4747 C   0  0  0  0  0  0  0  0  0  0  0  0
   -1.8911    0.5126   -1.0015 C   0  0  0  0  0  0  0  0  0  0  0  0
   -1.0706   -0.5954   -1.1243 O   0  0  0  0  0  0  0  0  0  0  0  0
    1.6656    0.9708    1.4485 H   0  0  0  0  0  0  0  0  0  0  0  0
    1.9727    1.9827   -0.0451 H   0  0  0  0  0  0  0  0  0  0  0  0
    3.0770    0.6417    0.3478 H   0  0  0  0  0  0  0  0  0  0  0  0
    1.4311    0.1921   -1.5730 H   0  0  0  0  0  0  0  0  0  0  0  0
    1.3509   -1.7604    0.8857 H   0  0  0  0  0  0  0  0  0  0  0  0
    1.5903   -3.1591   -0.8729 H   0  0  0  0  0  0  0  0  0  0  0  0
   -0.2974    0.5009    1.8211 H   0  0  0  0  0  0  0  0  0  0  0  0
   -1.3396   -0.9746    1.5244 H   0  0  0  0  0  0  0  0  0  0  0  0
   -2.9219    0.6459    0.8998 H   0  0  0  0  0  0  0  0  0  0  0  0
   -1.5813    1.8845    0.5875 H   0  0  0  0  0  0  0  0  0  0  0  0
   -2.9012    0.3122   -1.4216 H   0  0  0  0  0  0  0  0  0  0  0  0
   -1.4628    1.3323   -1.6134 H   0  0  0  0  0  0  0  0  0  0  0  0
  1  2  1  0
  2  3  1  0
  3  4  1  0
  3  5  1  0
  5  6  1  0
  6  7  1  0
  7  8  1  0
  8  9  1  0
  5  2  1  0
  9  5  1  0
  1 10  1  0
  1 11  1  0
  1 12  1  0
  2 13  1  0
  3 14  1  0
  4 15  1  0
  6 16  1  0
  6 17  1  0
  7 18  1  0
  7 19  1  0
  8 20  1  0
  8 21  1  0
M  END
