
     RDKit          3D

 21 22  0  0  0  0  0  0  0  0999 V2000
   -1.3986   -1.4726    0.4451 C   0  0  0  0  0  0  0  0  0  0  0  0
   -0.7801   -0.3310   -0.2963 C   0  0  0  0  0  0  0  0  0  0  0  0
   -1.4334    0.9967   -0.0171 C   0  0  0  0  0  0  0  0  0  0  0  0
   -0.4041    1.9507   -0.5530 C   0  0  0  0  0  0  0  0  0  0  0  0
   -0.6231    3.0301   -1.0244 O   0  0  0  0  0  0  0  0  0  0  0  0
    0.9306    1.2726   -0.3736 C   0  0  0  0  0  0  0  0  0  0  0  0
    1.1875    0.7829    0.9957 C   0  0  0  0  0  0  0  0  0  0  0  0
    0.6704   -0.1265   -0.0250 C   0  0  0  0  0  0  0  0  0  0  0  0
    1.5641   -1.2555   -0.4765 C   0  0  0  0  0  0  0  0  0  0  0  0
   -0.7290   -1.8974    1.2220 H   0  0  0  0  0  0  0  0  0  0  0  0
   -2.2951   -1.0867    0.9744 H   0  0  0  0  0  0  0  0  0  0  0  0
   -1.7569   -2.2409   -0.2727 H   0  0  0  0  0  0  0  0  0  0  0  0
   -0.8856   -0.4989   -1.4084 H   0  0  0  0  0  0  0  0  0  0  0  0
   -2.3519    1.0499   -0.6340 H   0  0  0  0  0  0  0  0  0  0  0  0
   -1.5959    1.1021    1.0541 H   0  0  0  0  0  0  0  0  0  0  0  0
    1.7212    1.4835   -1.0957 H   0  0  0  0  0  0  0  0  0  0  0  0
    2.2544    0.6686    1.2698 H   0  0  0  0  0  0  0  0  0  0  0  0
    0.5796    1.2026    1.8193 H   0  0  0  0  0  0  0  0  0  0  0  0
    1.8634   -1.8029    0.4642 H   0  0  0  0  0  0  0  0  0  0  0  0
    1.0147   -1.9813   -1.1193 H   0  0  0  0  0  0  0  0  0  0  0  0
    2.4675   -0.8458   -0.9485 H   0  0  0  0  0  0  0  0  0  0  0  0
  1  2  1  0
  2  3  1  0
  3  4  1  0
  4  5  2  0
  4  6  1  0
  6  7  1  0
  7  8  1  0
  8  9  1  0
  8  2  1  0
  8  6  1  0
  1 10  1  0
  1 11  1  0
  1 12  1  0
  2 13  1  0
  3 14  1  0
  3 15  1  0
  6 16  1  0
  7 17  1  0
  7 18  1  0
  9 19  1  0
  9 20  1  0
  9 21  1  0
M  END
