
     RDKit          3D

 21 23  0  0  0  0  0  0  0  0999 V2000
    2.2817   -0.5369   -0.6968 C   0  0  0  0  0  0  0  0  0  0  0  0
    1.5182   -0.2086    0.5393 C   0  0  0  0  0  0  0  0  0  0  0  0
    1.3436    1.2938    0.8081 C   0  0  0  0  0  0  0  0  0  0  0  0
    0.1101    0.9346    1.4075 O   0  0  0  0  0  0  0  0  0  0  0  0
    0.0701   -0.0698    0.4794 C   0  0  0  0  0  0  0  0  0  0  0  0
   -0.9567   -1.0258    0.2597 C   0  0  0  0  0  0  0  0  0  0  0  0
   -2.3954   -0.5934    0.3931 C   0  0  0  0  0  0  0  0  0  0  0  0
   -2.1517    0.6222   -0.5064 C   0  0  0  0  0  0  0  0  0  0  0  0
   -0.7341    0.1432   -0.7275 C   0  0  0  0  0  0  0  0  0  0  0  0
    1.6085   -0.9860   -1.4603 H   0  0  0  0  0  0  0  0  0  0  0  0
    2.8800    0.3043   -1.0742 H   0  0  0  0  0  0  0  0  0  0  0  0
    3.0193   -1.3486   -0.4424 H   0  0  0  0  0  0  0  0  0  0  0  0
    1.8900   -0.6721    1.4795 H   0  0  0  0  0  0  0  0  0  0  0  0
    1.1494    1.8220   -0.1556 H   0  0  0  0  0  0  0  0  0  0  0  0
    2.0745    1.7323    1.4781 H   0  0  0  0  0  0  0  0  0  0  0  0
   -0.7210   -2.0146   -0.1677 H   0  0  0  0  0  0  0  0  0  0  0  0
   -2.5717   -0.2843    1.4636 H   0  0  0  0  0  0  0  0  0  0  0  0
   -3.1487   -1.2808   -0.0048 H   0  0  0  0  0  0  0  0  0  0  0  0
   -2.7674    0.6691   -1.4028 H   0  0  0  0  0  0  0  0  0  0  0  0
   -2.1223    1.5911    0.0613 H   0  0  0  0  0  0  0  0  0  0  0  0
   -0.3763   -0.0918   -1.7312 H   0  0  0  0  0  0  0  0  0  0  0  0
  1  2  1  0
  2  3  1  0
  3  4  1  0
  4  5  1  0
  5  6  1  0
  6  7  1  0
  7  8  1  0
  8  9  1  0
  5  2  1  0
  9  6  1  0
  9  5  1  0
  1 10  1  0
  1 11  1  0
  1 12  1  0
  2 13  1  0
  3 14  1  0
  3 15  1  0
  6 16  1  0
  7 17  1  0
  7 18  1  0
  8 19  1  0
  8 20  1  0
  9 21  1  0
M  END
