
     RDKit          3D

 23 25  0  0  0  0  0  0  0  0999 V2000
    2.0014    0.6163    1.3952 C   0  0  0  0  0  0  0  0  0  0  0  0
    1.6395    0.4063   -0.0321 C   0  0  0  0  0  0  0  0  0  0  0  0
    0.6127    1.0878   -0.7732 C   0  0  0  0  0  0  0  0  0  0  0  0
   -0.8576    1.1311   -0.4937 C   0  0  0  0  0  0  0  0  0  0  0  0
   -1.2496    1.2273    0.9213 C   0  0  0  0  0  0  0  0  0  0  0  0
   -0.8004   -0.0464    0.4438 C   0  0  0  0  0  0  0  0  0  0  0  0
   -1.8633   -1.1468    0.3119 C   0  0  0  0  0  0  0  0  0  0  0  0
    0.4350   -0.3808   -0.3129 C   0  0  0  0  0  0  0  0  0  0  0  0
    0.3542   -1.3654   -1.4400 C   0  0  0  0  0  0  0  0  0  0  0  0
    1.1699    0.5990    2.1076 H   0  0  0  0  0  0  0  0  0  0  0  0
    2.5840    1.5475    1.5749 H   0  0  0  0  0  0  0  0  0  0  0  0
    2.6593   -0.2473    1.7090 H   0  0  0  0  0  0  0  0  0  0  0  0
    2.5468    0.0569   -0.6174 H   0  0  0  0  0  0  0  0  0  0  0  0
    0.8024    1.2480   -1.8767 H   0  0  0  0  0  0  0  0  0  0  0  0
   -1.6037    1.0387   -1.2899 H   0  0  0  0  0  0  0  0  0  0  0  0
   -0.6939    1.9723    1.5174 H   0  0  0  0  0  0  0  0  0  0  0  0
   -2.3623    1.3691    1.0731 H   0  0  0  0  0  0  0  0  0  0  0  0
   -2.5644   -0.9800    1.1539 H   0  0  0  0  0  0  0  0  0  0  0  0
   -1.3497   -2.1073    0.5226 H   0  0  0  0  0  0  0  0  0  0  0  0
   -2.3671   -1.1114   -0.6591 H   0  0  0  0  0  0  0  0  0  0  0  0
    0.3823   -0.8812   -2.4386 H   0  0  0  0  0  0  0  0  0  0  0  0
   -0.6223   -1.8995   -1.3863 H   0  0  0  0  0  0  0  0  0  0  0  0
    1.1471   -2.1341   -1.4108 H   0  0  0  0  0  0  0  0  0  0  0  0
  1  2  1  0
  2  3  1  0
  3  4  1  0
  4  5  1  0
  5  6  1  0
  6  7  1  0
  6  8  1  0
  8  9  1  0
  8  2  1  0
  8  3  1  0
  6  4  1  0
  1 10  1  0
  1 11  1  0
  1 12  1  0
  2 13  1  0
  3 14  1  0
  4 15  1  0
  5 16  1  0
  5 17  1  0
  7 18  1  0
  7 19  1  0
  7 20  1  0
  9 21  1  0
  9 22  1  0
  9 23  1  0
M  END
