
     RDKit          3D

 20 20  0  0  0  0  0  0  0  0999 V2000
    2.2886   -0.1260    0.4309 C   0  0  0  0  0  0  0  0  0  0  0  0
    1.0878    0.2362   -0.4317 C   0  0  0  0  0  0  0  0  0  0  0  0
    0.4541   -1.0318   -0.9099 C   0  0  0  0  0  0  0  0  0  0  0  0
    0.9458   -2.0298   -1.4126 O   0  0  0  0  0  0  0  0  0  0  0  0
   -0.8620   -0.5185   -0.5157 C   0  0  0  0  0  0  0  0  0  0  0  0
   -1.6932   -1.3711    0.3833 C   0  0  0  0  0  0  0  0  0  0  0  0
   -0.1619    0.5669    0.2959 C   0  0  0  0  0  0  0  0  0  0  0  0
   -0.8017    1.8920    0.0070 C   0  0  0  0  0  0  0  0  0  0  0  0
    2.0313   -0.9357    1.1485 H   0  0  0  0  0  0  0  0  0  0  0  0
    3.0426   -0.5571   -0.2567 H   0  0  0  0  0  0  0  0  0  0  0  0
    2.7368    0.7511    0.9215 H   0  0  0  0  0  0  0  0  0  0  0  0
    1.3792    0.9070   -1.2535 H   0  0  0  0  0  0  0  0  0  0  0  0
   -1.3935   -0.1102   -1.4198 H   0  0  0  0  0  0  0  0  0  0  0  0
   -1.1807   -2.2753    0.7477 H   0  0  0  0  0  0  0  0  0  0  0  0
   -2.0311   -0.7454    1.2614 H   0  0  0  0  0  0  0  0  0  0  0  0
   -2.6406   -1.6126   -0.1787 H   0  0  0  0  0  0  0  0  0  0  0  0
   -0.1569    0.3680    1.3907 H   0  0  0  0  0  0  0  0  0  0  0  0
   -0.8429    2.0723   -1.1011 H   0  0  0  0  0  0  0  0  0  0  0  0
   -0.3254    2.7156    0.5459 H   0  0  0  0  0  0  0  0  0  0  0  0
   -1.8763    1.8046    0.3471 H   0  0  0  0  0  0  0  0  0  0  0  0
  1  2  1  0
  2  3  1  0
  3  4  2  0
  3  5  1  0
  5  6  1  0
  5  7  1  0
  7  8  1  0
  7  2  1  0
  1  9  1  0
  1 10  1  0
  1 11  1  0
  2 12  1  0
  5 13  1  0
  6 14  1  0
  6 15  1  0
  6 16  1  0
  7 17  1  0
  8 18  1  0
  8 19  1  0
  8 20  1  0
M  END
