
     RDKit          3D

 21 22  0  0  0  0  0  0  0  0999 V2000
    2.3733    0.8338   -0.2849 C   0  0  0  0  0  0  0  0  0  0  0  0
    1.5072   -0.2790    0.2499 C   0  0  0  0  0  0  0  0  0  0  0  0
    0.4179   -0.6696   -0.7623 C   0  0  0  0  0  0  0  0  0  0  0  0
   -0.5788   -0.2354    0.2280 C   0  0  0  0  0  0  0  0  0  0  0  0
    0.4276    0.1856    1.2303 C   0  0  0  0  0  0  0  0  0  0  0  0
   -1.7549    0.5897   -0.0600 C   0  0  0  0  0  0  0  0  0  0  0  0
   -2.0256    0.8015   -1.4223 O   0  0  0  0  0  0  0  0  0  0  0  0
   -1.8683   -0.8098    0.4914 C   0  0  0  0  0  0  0  0  0  0  0  0
   -2.3440   -1.8129   -0.3698 O   0  0  0  0  0  0  0  0  0  0  0  0
    2.1727    1.0041   -1.3745 H   0  0  0  0  0  0  0  0  0  0  0  0
    2.1929    1.8050    0.2063 H   0  0  0  0  0  0  0  0  0  0  0  0
    3.4354    0.4963   -0.2025 H   0  0  0  0  0  0  0  0  0  0  0  0
    2.0322   -1.1361    0.6917 H   0  0  0  0  0  0  0  0  0  0  0  0
    0.5017   -1.7376   -1.0105 H   0  0  0  0  0  0  0  0  0  0  0  0
    0.4178   -0.0031   -1.6650 H   0  0  0  0  0  0  0  0  0  0  0  0
    0.4321   -0.3197    2.1993 H   0  0  0  0  0  0  0  0  0  0  0  0
    0.4333    1.2946    1.4023 H   0  0  0  0  0  0  0  0  0  0  0  0
   -1.9176    1.4546    0.6409 H   0  0  0  0  0  0  0  0  0  0  0  0
   -1.9988    1.7951   -1.5449 H   0  0  0  0  0  0  0  0  0  0  0  0
   -2.3135   -0.8797    1.4992 H   0  0  0  0  0  0  0  0  0  0  0  0
   -1.5426   -2.3776   -0.5703 H   0  0  0  0  0  0  0  0  0  0  0  0
  1  2  1  0
  2  3  1  0
  3  4  1  0
  4  5  1  0
  4  6  1  0
  6  7  1  0
  6  8  1  0
  8  9  1  0
  5  2  1  0
  8  4  1  0
  1 10  1  0
  1 11  1  0
  1 12  1  0
  2 13  1  0
  3 14  1  0
  3 15  1  0
  5 16  1  0
  5 17  1  0
  6 18  1  0
  7 19  1  0
  8 20  1  0
  9 21  1  0
M  END
