
     RDKit          3D

 19 20  0  0  0  0  0  0  0  0999 V2000
    2.0109   -0.6707   -0.3347 C   0  0  0  0  0  0  0  0  0  0  0  0
    1.3463    0.5081    0.3280 C   0  0  0  0  0  0  0  0  0  0  0  0
    0.7056    1.4504   -0.6530 C   0  0  0  0  0  0  0  0  0  0  0  0
   -0.6094    0.7673   -0.8754 C   0  0  0  0  0  0  0  0  0  0  0  0
   -1.2873    0.9106   -1.8470 O   0  0  0  0  0  0  0  0  0  0  0  0
   -0.8176   -0.0586    0.3306 C   0  0  0  0  0  0  0  0  0  0  0  0
   -1.5721   -1.3049    0.2115 C   0  0  0  0  0  0  0  0  0  0  0  0
   -2.1151   -0.1396    1.0178 C   0  0  0  0  0  0  0  0  0  0  0  0
    0.3024    0.0887    1.1042 O   0  0  0  0  0  0  0  0  0  0  0  0
    2.1054   -1.4958    0.4286 H   0  0  0  0  0  0  0  0  0  0  0  0
    1.4773   -1.0352   -1.2233 H   0  0  0  0  0  0  0  0  0  0  0  0
    3.0615   -0.4360   -0.6500 H   0  0  0  0  0  0  0  0  0  0  0  0
    2.0835    1.0156    0.9675 H   0  0  0  0  0  0  0  0  0  0  0  0
    1.2704    1.6155   -1.5610 H   0  0  0  0  0  0  0  0  0  0  0  0
    0.4670    2.3919   -0.0855 H   0  0  0  0  0  0  0  0  0  0  0  0
   -1.1569   -2.1832    0.7645 H   0  0  0  0  0  0  0  0  0  0  0  0
   -2.1530   -1.5313   -0.6922 H   0  0  0  0  0  0  0  0  0  0  0  0
   -2.1108   -0.2943    2.1147 H   0  0  0  0  0  0  0  0  0  0  0  0
   -3.0082    0.4015    0.6548 H   0  0  0  0  0  0  0  0  0  0  0  0
  1  2  1  0
  2  3  1  0
  3  4  1  0
  4  5  2  0
  4  6  1  0
  6  7  1  0
  7  8  1  0
  6  9  1  0
  9  2  1  0
  8  6  1  0
  1 10  1  0
  1 11  1  0
  1 12  1  0
  2 13  1  0
  3 14  1  0
  3 15  1  0
  7 16  1  0
  7 17  1  0
  8 18  1  0
  8 19  1  0
M  END
