
     RDKit          3D

 18 18  0  0  0  0  0  0  0  0999 V2000
    1.7640    0.4367   -0.5818 C   0  0  0  0  0  0  0  0  0  0  0  0
    0.5185    0.5357    0.2756 C   0  0  0  0  0  0  0  0  0  0  0  0
    0.5667   -0.6559    1.2410 C   0  0  0  0  0  0  0  0  0  0  0  0
   -0.7191   -1.2033    1.2149 O   0  0  0  0  0  0  0  0  0  0  0  0
   -0.9666   -1.2248   -0.1712 C   0  0  0  0  0  0  0  0  0  0  0  0
   -0.7044    0.2422   -0.5145 C   0  0  0  0  0  0  0  0  0  0  0  0
   -1.8642    1.0881   -0.1627 C   0  0  0  0  0  0  0  0  0  0  0  0
   -1.8937    1.9148    0.7071 O   0  0  0  0  0  0  0  0  0  0  0  0
    2.3122   -0.5154   -0.4292 H   0  0  0  0  0  0  0  0  0  0  0  0
    2.4269    1.2912   -0.3806 H   0  0  0  0  0  0  0  0  0  0  0  0
    1.4245    0.4087   -1.6531 H   0  0  0  0  0  0  0  0  0  0  0  0
    0.4321    1.4801    0.8103 H   0  0  0  0  0  0  0  0  0  0  0  0
    1.2582   -1.4458    0.8580 H   0  0  0  0  0  0  0  0  0  0  0  0
    0.8781   -0.3428    2.2448 H   0  0  0  0  0  0  0  0  0  0  0  0
   -0.1722   -1.7965   -0.7002 H   0  0  0  0  0  0  0  0  0  0  0  0
   -1.9837   -1.5381   -0.4157 H   0  0  0  0  0  0  0  0  0  0  0  0
   -0.5070    0.3828   -1.5928 H   0  0  0  0  0  0  0  0  0  0  0  0
   -2.7703    0.9423   -0.7502 H   0  0  0  0  0  0  0  0  0  0  0  0
  1  2  1  0
  2  3  1  0
  3  4  1  0
  4  5  1  0
  5  6  1  0
  6  7  1  0
  7  8  2  0
  6  2  1  0
  1  9  1  0
  1 10  1  0
  1 11  1  0
  2 12  1  0
  3 13  1  0
  3 14  1  0
  5 15  1  0
  5 16  1  0
  6 17  1  0
  7 18  1  0
M  END
