
     RDKit          3D

 18 19  0  0  0  0  0  0  0  0999 V2000
    1.8208   -0.3730   -0.4940 C   0  0  0  0  0  0  0  0  0  0  0  0
    0.7744    0.0990    0.4424 C   0  0  0  0  0  0  0  0  0  0  0  0
   -0.2825    0.9824   -0.2630 C   0  0  0  0  0  0  0  0  0  0  0  0
   -0.8451    0.0079   -1.1873 C   0  0  0  0  0  0  0  0  0  0  0  0
   -0.8947   -1.1556   -0.5535 C   0  0  0  0  0  0  0  0  0  0  0  0
   -0.2586   -0.9486    0.8036 C   0  0  0  0  0  0  0  0  0  0  0  0
   -1.1770   -0.1923    1.5348 O   0  0  0  0  0  0  0  0  0  0  0  0
   -1.2561    1.0662    0.9065 C   0  0  0  0  0  0  0  0  0  0  0  0
    2.0663    0.4547   -1.2239 H   0  0  0  0  0  0  0  0  0  0  0  0
    2.7764   -0.4954    0.0970 H   0  0  0  0  0  0  0  0  0  0  0  0
    1.5858   -1.2560   -1.0816 H   0  0  0  0  0  0  0  0  0  0  0  0
    1.1411    0.5615    1.3540 H   0  0  0  0  0  0  0  0  0  0  0  0
    0.0908    1.8998   -0.6267 H   0  0  0  0  0  0  0  0  0  0  0  0
   -1.1671    0.1684   -2.1927 H   0  0  0  0  0  0  0  0  0  0  0  0
   -1.2864   -2.1208   -0.8493 H   0  0  0  0  0  0  0  0  0  0  0  0
    0.0933   -1.8220    1.2791 H   0  0  0  0  0  0  0  0  0  0  0  0
   -2.2544    1.2465    0.4694 H   0  0  0  0  0  0  0  0  0  0  0  0
   -0.9271    1.8773    1.5852 H   0  0  0  0  0  0  0  0  0  0  0  0
  1  2  1  0
  2  3  1  0
  3  4  1  0
  4  5  2  0
  5  6  1  0
  6  7  1  0
  7  8  1  0
  6  2  1  0
  8  3  1  0
  1  9  1  0
  1 10  1  0
  1 11  1  0
  2 12  1  0
  3 13  1  0
  4 14  1  0
  5 15  1  0
  6 16  1  0
  8 17  1  0
  8 18  1  0
M  END
