
     RDKit          3D

 23 25  0  0  0  0  0  0  0  0999 V2000
    1.6208    1.7074   -0.3530 C   0  0  0  0  0  0  0  0  0  0  0  0
    1.3672    0.4665    0.4339 C   0  0  0  0  0  0  0  0  0  0  0  0
    1.6830   -0.8303   -0.2790 C   0  0  0  0  0  0  0  0  0  0  0  0
    0.7684   -1.4699    0.7235 C   0  0  0  0  0  0  0  0  0  0  0  0
    0.0482   -0.1855    0.3116 C   0  0  0  0  0  0  0  0  0  0  0  0
   -1.1857    0.2257    0.7251 C   0  0  0  0  0  0  0  0  0  0  0  0
   -2.3940   -0.6769    0.4580 C   0  0  0  0  0  0  0  0  0  0  0  0
   -2.2702    0.5308   -0.3615 C   0  0  0  0  0  0  0  0  0  0  0  0
    0.4518   -0.5542   -1.0920 C   0  0  0  0  0  0  0  0  0  0  0  0
    1.9513    2.5006    0.3629 H   0  0  0  0  0  0  0  0  0  0  0  0
    2.5027    1.5284   -1.0127 H   0  0  0  0  0  0  0  0  0  0  0  0
    0.7561    2.1091   -0.8878 H   0  0  0  0  0  0  0  0  0  0  0  0
    1.7783    0.4543    1.4676 H   0  0  0  0  0  0  0  0  0  0  0  0
    2.5781   -1.1412   -0.5923 H   0  0  0  0  0  0  0  0  0  0  0  0
    0.2698   -2.3917    0.4343 H   0  0  0  0  0  0  0  0  0  0  0  0
    1.1597   -1.3760    1.7379 H   0  0  0  0  0  0  0  0  0  0  0  0
   -1.3206    0.8561    1.6249 H   0  0  0  0  0  0  0  0  0  0  0  0
   -2.1693   -1.6739   -0.0105 H   0  0  0  0  0  0  0  0  0  0  0  0
   -3.1872   -0.7359    1.2164 H   0  0  0  0  0  0  0  0  0  0  0  0
   -2.8924    1.4128   -0.2085 H   0  0  0  0  0  0  0  0  0  0  0  0
   -1.9276    0.3717   -1.4224 H   0  0  0  0  0  0  0  0  0  0  0  0
    0.5138    0.2910   -1.8033 H   0  0  0  0  0  0  0  0  0  0  0  0
   -0.1020   -1.4190   -1.4730 H   0  0  0  0  0  0  0  0  0  0  0  0
  1  2  1  0
  2  3  1  0
  3  4  1  0
  4  5  1  0
  5  6  1  0
  6  7  1  0
  7  8  1  0
  5  9  1  0
  5  2  1  0
  8  6  1  0
  9  3  1  0
  1 10  1  0
  1 11  1  0
  1 12  1  0
  2 13  1  0
  3 14  1  0
  4 15  1  0
  4 16  1  0
  6 17  1  0
  7 18  1  0
  7 19  1  0
  8 20  1  0
  8 21  1  0
  9 22  1  0
  9 23  1  0
M  END
