
     RDKit          3D

 23 24  0  0  0  0  0  0  0  0999 V2000
    2.6464   -0.3840    1.1679 C   0  0  0  0  0  0  0  0  0  0  0  0
    1.4401   -0.5540    0.2605 C   0  0  0  0  0  0  0  0  0  0  0  0
    1.5193    0.3077   -0.9926 C   0  0  0  0  0  0  0  0  0  0  0  0
    0.4946    0.5585    0.1057 C   0  0  0  0  0  0  0  0  0  0  0  0
   -0.9146    0.3634   -0.3025 C   0  0  0  0  0  0  0  0  0  0  0  0
   -1.6425    1.6978   -0.3778 C   0  0  0  0  0  0  0  0  0  0  0  0
   -1.7304   -0.6172    0.4887 C   0  0  0  0  0  0  0  0  0  0  0  0
   -1.7215   -1.3809   -0.8107 C   0  0  0  0  0  0  0  0  0  0  0  0
   -1.0364   -0.3793   -1.4740 O   0  0  0  0  0  0  0  0  0  0  0  0
    3.3310   -1.2537    1.0840 H   0  0  0  0  0  0  0  0  0  0  0  0
    2.3423   -0.3488    2.2451 H   0  0  0  0  0  0  0  0  0  0  0  0
    3.2425    0.5216    0.9032 H   0  0  0  0  0  0  0  0  0  0  0  0
    1.0520   -1.5706    0.1790 H   0  0  0  0  0  0  0  0  0  0  0  0
    2.3230    1.0377   -1.0979 H   0  0  0  0  0  0  0  0  0  0  0  0
    1.1962   -0.2127   -1.9090 H   0  0  0  0  0  0  0  0  0  0  0  0
    0.6858    1.4466    0.7534 H   0  0  0  0  0  0  0  0  0  0  0  0
   -1.8203    2.1278    0.6153 H   0  0  0  0  0  0  0  0  0  0  0  0
   -2.5970    1.4836   -0.9205 H   0  0  0  0  0  0  0  0  0  0  0  0
   -0.9914    2.3937   -0.9370 H   0  0  0  0  0  0  0  0  0  0  0  0
   -1.2046   -1.1426    1.3067 H   0  0  0  0  0  0  0  0  0  0  0  0
   -2.7454   -0.2635    0.7629 H   0  0  0  0  0  0  0  0  0  0  0  0
   -2.7522   -1.5230   -1.2457 H   0  0  0  0  0  0  0  0  0  0  0  0
   -1.1169   -2.3083   -0.7876 H   0  0  0  0  0  0  0  0  0  0  0  0
  1  2  1  0
  2  3  1  0
  3  4  1  0
  4  5  1  0
  5  6  1  0
  5  7  1  0
  7  8  1  0
  8  9  1  0
  4  2  1  0
  9  5  1  0
  1 10  1  0
  1 11  1  0
  1 12  1  0
  2 13  1  0
  3 14  1  0
  3 15  1  0
  4 16  1  0
  6 17  1  0
  6 18  1  0
  6 19  1  0
  7 20  1  0
  7 21  1  0
  8 22  1  0
  8 23  1  0
M  END
