
     RDKit          3D

 23 24  0  0  0  0  0  0  0  0999 V2000
   -2.4026   -0.1914    0.3381 C   0  0  0  0  0  0  0  0  0  0  0  0
   -1.1465   -0.1825   -0.4754 C   0  0  0  0  0  0  0  0  0  0  0  0
   -0.2800   -1.4192   -0.2104 C   0  0  0  0  0  0  0  0  0  0  0  0
    1.0305   -0.8892    0.3191 C   0  0  0  0  0  0  0  0  0  0  0  0
    1.8316   -0.1802   -0.7382 C   0  0  0  0  0  0  0  0  0  0  0  0
    0.8929    0.9615   -1.1328 C   0  0  0  0  0  0  0  0  0  0  0  0
   -0.2208    0.9503   -0.1192 C   0  0  0  0  0  0  0  0  0  0  0  0
    0.5079    0.3398    1.0888 C   0  0  0  0  0  0  0  0  0  0  0  0
    1.6061    1.0687    1.4568 O   0  0  0  0  0  0  0  0  0  0  0  0
   -3.2721    0.0745   -0.3076 H   0  0  0  0  0  0  0  0  0  0  0  0
   -2.3380    0.4997    1.2123 H   0  0  0  0  0  0  0  0  0  0  0  0
   -2.5936   -1.2145    0.7033 H   0  0  0  0  0  0  0  0  0  0  0  0
   -1.3939   -0.1833   -1.5621 H   0  0  0  0  0  0  0  0  0  0  0  0
   -0.1883   -2.0624   -1.0801 H   0  0  0  0  0  0  0  0  0  0  0  0
   -0.7698   -1.9507    0.6487 H   0  0  0  0  0  0  0  0  0  0  0  0
    1.5824   -1.5706    0.9458 H   0  0  0  0  0  0  0  0  0  0  0  0
    2.1365   -0.7928   -1.5751 H   0  0  0  0  0  0  0  0  0  0  0  0
    2.6821    0.3246   -0.2026 H   0  0  0  0  0  0  0  0  0  0  0  0
    1.4078    1.9168   -1.2298 H   0  0  0  0  0  0  0  0  0  0  0  0
    0.4353    0.7282   -2.1209 H   0  0  0  0  0  0  0  0  0  0  0  0
   -0.6833    1.8939    0.0870 H   0  0  0  0  0  0  0  0  0  0  0  0
   -0.1745    0.0609    1.8871 H   0  0  0  0  0  0  0  0  0  0  0  0
    1.3502    1.8180    2.0670 H   0  0  0  0  0  0  0  0  0  0  0  0
  1  2  1  0
  2  3  1  0
  3  4  1  0
  4  5  1  0
  5  6  1  0
  6  7  1  0
  7  8  1  0
  8  9  1  0
  7  2  1  0
  8  4  1  0
  1 10  1  0
  1 11  1  0
  1 12  1  0
  2 13  1  0
  3 14  1  0
  3 15  1  0
  4 16  1  0
  5 17  1  0
  5 18  1  0
  6 19  1  0
  6 20  1  0
  7 21  1  0
  8 22  1  0
  9 23  1  0
M  END
