
     RDKit          3D

 21 22  0  0  0  0  0  0  0  0999 V2000
   -2.5096   -0.5375    0.5380 C   0  0  0  0  0  0  0  0  0  0  0  0
   -1.2695   -0.6173   -0.3157 C   0  0  0  0  0  0  0  0  0  0  0  0
   -0.2024   -1.5180    0.2023 C   0  0  0  0  0  0  0  0  0  0  0  0
    0.0622   -2.7059    0.1923 O   0  0  0  0  0  0  0  0  0  0  0  0
    0.4881   -0.3446    0.7895 C   0  0  0  0  0  0  0  0  0  0  0  0
    1.9069   -0.1453    0.3314 C   0  0  0  0  0  0  0  0  0  0  0  0
    1.8473    1.1453   -0.4662 C   0  0  0  0  0  0  0  0  0  0  0  0
    0.5295    0.9441   -1.2245 C   0  0  0  0  0  0  0  0  0  0  0  0
   -0.3796    0.5611   -0.0653 C   0  0  0  0  0  0  0  0  0  0  0  0
   -2.8809   -1.5176    0.8699 H   0  0  0  0  0  0  0  0  0  0  0  0
   -2.3564    0.1066    1.4486 H   0  0  0  0  0  0  0  0  0  0  0  0
   -3.2709    0.0193   -0.0670 H   0  0  0  0  0  0  0  0  0  0  0  0
   -1.5163   -0.8123   -1.3794 H   0  0  0  0  0  0  0  0  0  0  0  0
    0.3368   -0.2044    1.8848 H   0  0  0  0  0  0  0  0  0  0  0  0
    2.2697   -0.9534   -0.3380 H   0  0  0  0  0  0  0  0  0  0  0  0
    2.6235    0.0155    1.1456 H   0  0  0  0  0  0  0  0  0  0  0  0
    2.6959    1.2869   -1.1331 H   0  0  0  0  0  0  0  0  0  0  0  0
    1.6593    1.9720    0.2398 H   0  0  0  0  0  0  0  0  0  0  0  0
    0.5831    0.0431   -1.8804 H   0  0  0  0  0  0  0  0  0  0  0  0
    0.2078    1.8489   -1.7425 H   0  0  0  0  0  0  0  0  0  0  0  0
   -0.8246    1.4135    0.4710 H   0  0  0  0  0  0  0  0  0  0  0  0
  1  2  1  0
  2  3  1  0
  3  4  2  0
  3  5  1  0
  5  6  1  0
  6  7  1  0
  7  8  1  0
  8  9  1  0
  9  2  1  0
  9  5  1  0
  1 10  1  0
  1 11  1  0
  1 12  1  0
  2 13  1  0
  5 14  1  0
  6 15  1  0
  6 16  1  0
  7 17  1  0
  7 18  1  0
  8 19  1  0
  8 20  1  0
  9 21  1  0
M  END
