
     RDKit          3D

 19 20  0  0  0  0  0  0  0  0999 V2000
    1.7982   -0.6005    0.5490 C   0  0  0  0  0  0  0  0  0  0  0  0
    0.8879   -0.0166   -0.4942 C   0  0  0  0  0  0  0  0  0  0  0  0
   -0.4713   -0.6480   -0.6141 C   0  0  0  0  0  0  0  0  0  0  0  0
   -1.0098   -1.3292    0.5928 C   0  0  0  0  0  0  0  0  0  0  0  0
   -0.9880    0.7643   -0.8589 C   0  0  0  0  0  0  0  0  0  0  0  0
   -0.9566    1.6431    0.3286 C   0  0  0  0  0  0  0  0  0  0  0  0
    0.3506    1.3326   -0.2824 C   0  0  0  0  0  0  0  0  0  0  0  0
    2.7878   -0.1015    0.4307 H   0  0  0  0  0  0  0  0  0  0  0  0
    1.4550   -0.4949    1.5720 H   0  0  0  0  0  0  0  0  0  0  0  0
    1.9814   -1.6707    0.2411 H   0  0  0  0  0  0  0  0  0  0  0  0
    1.4072   -0.1075   -1.4916 H   0  0  0  0  0  0  0  0  0  0  0  0
   -0.6307   -1.2674   -1.5219 H   0  0  0  0  0  0  0  0  0  0  0  0
   -1.8140   -0.7467    1.1128 H   0  0  0  0  0  0  0  0  0  0  0  0
   -1.5084   -2.3076    0.3318 H   0  0  0  0  0  0  0  0  0  0  0  0
   -0.2613   -1.5775    1.3629 H   0  0  0  0  0  0  0  0  0  0  0  0
   -1.2129    1.1012   -1.8662 H   0  0  0  0  0  0  0  0  0  0  0  0
   -1.2546    1.2191    1.3077 H   0  0  0  0  0  0  0  0  0  0  0  0
   -1.3779    2.6575    0.1710 H   0  0  0  0  0  0  0  0  0  0  0  0
    0.8174    2.1504   -0.8711 H   0  0  0  0  0  0  0  0  0  0  0  0
  1  2  1  0
  2  3  1  0
  3  4  1  0
  3  5  1  0
  5  6  1  0
  6  7  1  0
  7  2  1  0
  7  5  1  0
  1  8  1  0
  1  9  1  0
  1 10  1  0
  2 11  1  0
  3 12  1  0
  4 13  1  0
  4 14  1  0
  4 15  1  0
  5 16  1  0
  6 17  1  0
  6 18  1  0
  7 19  1  0
M  END
