
     RDKit          3D

 20 21  0  0  0  0  0  0  0  0999 V2000
   -2.3763    0.4973   -0.3585 C   0  0  0  0  0  0  0  0  0  0  0  0
   -1.1359   -0.3460   -0.6326 C   0  0  0  0  0  0  0  0  0  0  0  0
   -0.7359   -0.9691    0.6781 C   0  0  0  0  0  0  0  0  0  0  0  0
    0.7765   -0.8438    0.7752 C   0  0  0  0  0  0  0  0  0  0  0  0
    1.4301   -1.4828   -0.2882 O   0  0  0  0  0  0  0  0  0  0  0  0
    1.2538   -0.1300   -0.3504 C   0  0  0  0  0  0  0  0  0  0  0  0
    2.5101    0.6861   -0.4208 C   0  0  0  0  0  0  0  0  0  0  0  0
    0.0501    0.4811   -1.0104 C   0  0  0  0  0  0  0  0  0  0  0  0
   -2.6456    1.1445   -1.1954 H   0  0  0  0  0  0  0  0  0  0  0  0
   -3.1979   -0.2472   -0.1473 H   0  0  0  0  0  0  0  0  0  0  0  0
   -2.2240    1.0516    0.5915 H   0  0  0  0  0  0  0  0  0  0  0  0
   -1.3878   -1.1128   -1.4089 H   0  0  0  0  0  0  0  0  0  0  0  0
   -0.9344   -2.0749    0.6004 H   0  0  0  0  0  0  0  0  0  0  0  0
   -1.2616   -0.5727    1.5433 H   0  0  0  0  0  0  0  0  0  0  0  0
    1.2531   -0.7663    1.7505 H   0  0  0  0  0  0  0  0  0  0  0  0
    3.0543    0.4235   -1.3716 H   0  0  0  0  0  0  0  0  0  0  0  0
    3.1657    0.3652    0.4100 H   0  0  0  0  0  0  0  0  0  0  0  0
    2.3246    1.7692   -0.4193 H   0  0  0  0  0  0  0  0  0  0  0  0
    0.1767    0.6345   -2.0934 H   0  0  0  0  0  0  0  0  0  0  0  0
   -0.0956    1.4925   -0.5279 H   0  0  0  0  0  0  0  0  0  0  0  0
  1  2  1  0
  2  3  1  0
  3  4  1  0
  4  5  1  0
  5  6  1  0
  6  7  1  0
  6  8  1  0
  8  2  1  0
  6  4  1  0
  1  9  1  0
  1 10  1  0
  1 11  1  0
  2 12  1  0
  3 13  1  0
  3 14  1  0
  4 15  1  0
  7 16  1  0
  7 17  1  0
  7 18  1  0
  8 19  1  0
  8 20  1  0
M  END
