
     RDKit          3D

 25 25  0  0  0  0  0  0  0  0999 V2000
   -2.9179   -0.0244   -0.2199 C   0  0  0  0  0  0  0  0  0  0  0  0
   -1.5559   -0.4609    0.1958 C   0  0  0  0  0  0  0  0  0  0  0  0
   -1.1252    0.3934    1.3762 C   0  0  0  0  0  0  0  0  0  0  0  0
   -0.0774    1.2029    0.9245 O   0  0  0  0  0  0  0  0  0  0  0  0
    1.0947    0.4354    0.7175 C   0  0  0  0  0  0  0  0  0  0  0  0
    2.1836    1.3749    0.3530 C   0  0  0  0  0  0  0  0  0  0  0  0
    0.8178   -0.6552   -0.2386 C   0  0  0  0  0  0  0  0  0  0  0  0
    1.8517   -0.9651   -1.2419 C   0  0  0  0  0  0  0  0  0  0  0  0
   -0.5354   -0.3992   -0.9216 C   0  0  0  0  0  0  0  0  0  0  0  0
   -3.1195   -0.1051   -1.2939 H   0  0  0  0  0  0  0  0  0  0  0  0
   -3.6575   -0.6113    0.3993 H   0  0  0  0  0  0  0  0  0  0  0  0
   -3.1135    1.0446    0.0658 H   0  0  0  0  0  0  0  0  0  0  0  0
   -1.5824   -1.5119    0.5575 H   0  0  0  0  0  0  0  0  0  0  0  0
   -1.9317    1.0862    1.6945 H   0  0  0  0  0  0  0  0  0  0  0  0
   -0.8407   -0.2134    2.2564 H   0  0  0  0  0  0  0  0  0  0  0  0
    1.3335    0.0358    1.7487 H   0  0  0  0  0  0  0  0  0  0  0  0
    2.2838    1.6171   -0.6995 H   0  0  0  0  0  0  0  0  0  0  0  0
    3.1452    1.0130    0.8159 H   0  0  0  0  0  0  0  0  0  0  0  0
    1.9884    2.3533    0.8849 H   0  0  0  0  0  0  0  0  0  0  0  0
    0.6336   -1.5972    0.3607 H   0  0  0  0  0  0  0  0  0  0  0  0
    1.3780   -1.0186   -2.2672 H   0  0  0  0  0  0  0  0  0  0  0  0
    2.6869   -0.2812   -1.3276 H   0  0  0  0  0  0  0  0  0  0  0  0
    2.2963   -1.9955   -1.1088 H   0  0  0  0  0  0  0  0  0  0  0  0
   -0.5448    0.5613   -1.4493 H   0  0  0  0  0  0  0  0  0  0  0  0
   -0.6917   -1.2789   -1.5823 H   0  0  0  0  0  0  0  0  0  0  0  0
  1  2  1  0
  2  3  1  0
  3  4  1  0
  4  5  1  0
  5  6  1  0
  5  7  1  0
  7  8  1  0
  7  9  1  0
  9  2  1  0
  1 10  1  0
  1 11  1  0
  1 12  1  0
  2 13  1  0
  3 14  1  0
  3 15  1  0
  5 16  1  0
  6 17  1  0
  6 18  1  0
  6 19  1  0
  7 20  1  0
  8 21  1  0
  8 22  1  0
  8 23  1  0
  9 24  1  0
  9 25  1  0
M  END
