
     RDKit          3D

 19 20  0  0  0  0  0  0  0  0999 V2000
    2.0542   -0.6910   -0.0807 C   0  0  0  0  0  0  0  0  0  0  0  0
    1.3186    0.6259    0.0099 C   0  0  0  0  0  0  0  0  0  0  0  0
    0.5456    0.8011    1.2673 C   0  0  0  0  0  0  0  0  0  0  0  0
    0.8850    0.8913    2.4280 O   0  0  0  0  0  0  0  0  0  0  0  0
   -0.7226    0.8168    0.5471 C   0  0  0  0  0  0  0  0  0  0  0  0
   -1.5311   -0.4629    0.5863 C   0  0  0  0  0  0  0  0  0  0  0  0
   -1.6825   -0.6825   -0.9268 C   0  0  0  0  0  0  0  0  0  0  0  0
   -0.3600   -0.5325   -1.3215 O   0  0  0  0  0  0  0  0  0  0  0  0
    0.0195    0.6810   -0.7672 C   0  0  0  0  0  0  0  0  0  0  0  0
    1.3667   -1.5263   -0.3325 H   0  0  0  0  0  0  0  0  0  0  0  0
    2.5757   -0.9447    0.8867 H   0  0  0  0  0  0  0  0  0  0  0  0
    2.8479   -0.5951   -0.8545 H   0  0  0  0  0  0  0  0  0  0  0  0
    1.9825    1.4558   -0.2713 H   0  0  0  0  0  0  0  0  0  0  0  0
   -1.3563    1.7102    0.6485 H   0  0  0  0  0  0  0  0  0  0  0  0
   -2.5056   -0.3561    1.0607 H   0  0  0  0  0  0  0  0  0  0  0  0
   -0.9416   -1.3189    0.9527 H   0  0  0  0  0  0  0  0  0  0  0  0
   -2.1193   -1.6416   -1.1660 H   0  0  0  0  0  0  0  0  0  0  0  0
   -2.2528    0.1951   -1.2897 H   0  0  0  0  0  0  0  0  0  0  0  0
   -0.1239    1.5744   -1.3771 H   0  0  0  0  0  0  0  0  0  0  0  0
  1  2  1  0
  2  3  1  0
  3  4  2  0
  3  5  1  0
  5  6  1  0
  6  7  1  0
  7  8  1  0
  8  9  1  0
  9  2  1  0
  9  5  1  0
  1 10  1  0
  1 11  1  0
  1 12  1  0
  2 13  1  0
  5 14  1  0
  6 15  1  0
  6 16  1  0
  7 17  1  0
  7 18  1  0
  9 19  1  0
M  END
