
     RDKit          3D

 23 23  0  0  0  0  0  0  0  0999 V2000
   -2.4874   -0.8769   -0.3891 C   0  0  0  0  0  0  0  0  0  0  0  0
   -1.7170    0.0088    0.5820 C   0  0  0  0  0  0  0  0  0  0  0  0
   -1.3993    1.2406   -0.1183 C   0  0  0  0  0  0  0  0  0  0  0  0
   -0.2383    1.6960   -0.5224 C   0  0  0  0  0  0  0  0  0  0  0  0
    1.0905    1.1412   -0.4118 C   0  0  0  0  0  0  0  0  0  0  0  0
    1.2345   -0.3396   -0.3137 C   0  0  0  0  0  0  0  0  0  0  0  0
    2.7409   -0.6117   -0.2400 C   0  0  0  0  0  0  0  0  0  0  0  0
    0.6312   -0.8803    0.9416 C   0  0  0  0  0  0  0  0  0  0  0  0
   -0.6477   -0.6946    1.2692 C   0  0  0  0  0  0  0  0  0  0  0  0
   -3.4687   -0.3629   -0.5627 H   0  0  0  0  0  0  0  0  0  0  0  0
   -1.9473   -0.8303   -1.3561 H   0  0  0  0  0  0  0  0  0  0  0  0
   -2.5937   -1.9009   -0.0337 H   0  0  0  0  0  0  0  0  0  0  0  0
   -2.4887    0.2748    1.3689 H   0  0  0  0  0  0  0  0  0  0  0  0
   -2.2983    1.8558   -0.3212 H   0  0  0  0  0  0  0  0  0  0  0  0
   -0.2941    2.6568   -1.0262 H   0  0  0  0  0  0  0  0  0  0  0  0
    1.6750    1.4530   -1.3290 H   0  0  0  0  0  0  0  0  0  0  0  0
    1.7008    1.5827    0.4322 H   0  0  0  0  0  0  0  0  0  0  0  0
    0.8281   -0.8754   -1.1960 H   0  0  0  0  0  0  0  0  0  0  0  0
    3.1505    0.1620    0.4727 H   0  0  0  0  0  0  0  0  0  0  0  0
    3.1810   -0.4863   -1.2449 H   0  0  0  0  0  0  0  0  0  0  0  0
    2.9717   -1.5937    0.1591 H   0  0  0  0  0  0  0  0  0  0  0  0
    1.2687   -1.4481    1.6110 H   0  0  0  0  0  0  0  0  0  0  0  0
   -0.8923   -1.1711    2.2284 H   0  0  0  0  0  0  0  0  0  0  0  0
  1  2  1  0
  2  3  1  0
  3  4  2  0
  4  5  1  0
  5  6  1  0
  6  7  1  0
  6  8  1  0
  8  9  2  0
  9  2  1  0
  1 10  1  0
  1 11  1  0
  1 12  1  0
  2 13  1  0
  3 14  1  0
  4 15  1  0
  5 16  1  0
  5 17  1  0
  6 18  1  0
  7 19  1  0
  7 20  1  0
  7 21  1  0
  8 22  1  0
  9 23  1  0
M  END
