
     RDKit          3D

 20 20  0  0  0  0  0  0  0  0999 V2000
    2.4581    0.4122    0.5328 C   0  0  0  0  0  0  0  0  0  0  0  0
    1.1555   -0.3581    0.5128 C   0  0  0  0  0  0  0  0  0  0  0  0
    0.8476   -0.6482   -0.9559 C   0  0  0  0  0  0  0  0  0  0  0  0
   -0.1113    0.3332   -1.2177 O   0  0  0  0  0  0  0  0  0  0  0  0
   -0.8757    0.2787   -0.0379 C   0  0  0  0  0  0  0  0  0  0  0  0
   -1.8778    1.4109    0.0130 C   0  0  0  0  0  0  0  0  0  0  0  0
   -1.6027   -1.0279   -0.0411 C   0  0  0  0  0  0  0  0  0  0  0  0
    0.0824    0.3791    0.9664 O   0  0  0  0  0  0  0  0  0  0  0  0
    3.2144   -0.2559    0.0359 H   0  0  0  0  0  0  0  0  0  0  0  0
    2.3416    1.2865   -0.1526 H   0  0  0  0  0  0  0  0  0  0  0  0
    2.7686    0.7023    1.5514 H   0  0  0  0  0  0  0  0  0  0  0  0
    1.2485   -1.2926    1.1021 H   0  0  0  0  0  0  0  0  0  0  0  0
    1.7477   -0.5419   -1.5929 H   0  0  0  0  0  0  0  0  0  0  0  0
    0.4639   -1.6681   -1.1008 H   0  0  0  0  0  0  0  0  0  0  0  0
   -2.9182    1.0021    0.0330 H   0  0  0  0  0  0  0  0  0  0  0  0
   -1.7566    2.0555    0.9003 H   0  0  0  0  0  0  0  0  0  0  0  0
   -1.7597    2.0857   -0.8724 H   0  0  0  0  0  0  0  0  0  0  0  0
   -1.0052   -1.8843    0.2982 H   0  0  0  0  0  0  0  0  0  0  0  0
   -1.8810   -1.2498   -1.1059 H   0  0  0  0  0  0  0  0  0  0  0  0
   -2.5400   -1.0194    0.5542 H   0  0  0  0  0  0  0  0  0  0  0  0
  1  2  1  0
  2  3  1  0
  3  4  1  0
  4  5  1  0
  5  6  1  0
  5  7  1  0
  5  8  1  0
  8  2  1  0
  1  9  1  0
  1 10  1  0
  1 11  1  0
  2 12  1  0
  3 13  1  0
  3 14  1  0
  6 15  1  0
  6 16  1  0
  6 17  1  0
  7 18  1  0
  7 19  1  0
  7 20  1  0
M  END
