
     RDKit          3D

 19 21  0  0  0  0  0  0  0  0999 V2000
    2.3683   -0.8405    0.0310 C   0  0  0  0  0  0  0  0  0  0  0  0
    1.2847    0.0025   -0.5389 C   0  0  0  0  0  0  0  0  0  0  0  0
    0.7482    1.0659    0.4785 C   0  0  0  0  0  0  0  0  0  0  0  0
   -0.5055    0.9428   -0.3065 C   0  0  0  0  0  0  0  0  0  0  0  0
   -0.1173   -0.5506   -0.4217 C   0  0  0  0  0  0  0  0  0  0  0  0
   -1.2393   -1.2134   -0.3813 C   0  0  0  0  0  0  0  0  0  0  0  0
   -2.3838   -0.3172    0.0589 C   0  0  0  0  0  0  0  0  0  0  0  0
   -2.0374    0.1719    1.4622 O   0  0  0  0  0  0  0  0  0  0  0  0
   -1.8459    0.9272    0.3075 C   0  0  0  0  0  0  0  0  0  0  0  0
    2.0086   -1.9081    0.0228 H   0  0  0  0  0  0  0  0  0  0  0  0
    3.3026   -0.8570   -0.5790 H   0  0  0  0  0  0  0  0  0  0  0  0
    2.6010   -0.5904    1.1051 H   0  0  0  0  0  0  0  0  0  0  0  0
    1.5129    0.4176   -1.5092 H   0  0  0  0  0  0  0  0  0  0  0  0
    1.3134    1.9961    0.4331 H   0  0  0  0  0  0  0  0  0  0  0  0
    0.6425    0.5736    1.4665 H   0  0  0  0  0  0  0  0  0  0  0  0
   -0.4602    1.4069   -1.3357 H   0  0  0  0  0  0  0  0  0  0  0  0
   -1.3416   -2.2743   -0.6315 H   0  0  0  0  0  0  0  0  0  0  0  0
   -3.3455   -0.7960    0.1424 H   0  0  0  0  0  0  0  0  0  0  0  0
   -2.5057    1.8432    0.1960 H   0  0  0  0  0  0  0  0  0  0  0  0
  1  2  1  0
  2  3  1  0
  3  4  1  0
  4  5  1  0
  5  6  2  0
  6  7  1  0
  7  8  1  0
  8  9  1  0
  5  2  1  0
  9  7  1  0
  9  4  1  0
  1 10  1  0
  1 11  1  0
  1 12  1  0
  2 13  1  0
  3 14  1  0
  3 15  1  0
  4 16  1  0
  6 17  1  0
  7 18  1  0
  9 19  1  0
M  END
