
     RDKit          3D

 22 23  0  0  0  0  0  0  0  0999 V2000
    2.1584   -0.0045    0.1543 C   0  0  0  0  0  0  0  0  0  0  0  0
    0.8092    0.0375   -0.5154 C   0  0  0  0  0  0  0  0  0  0  0  0
    0.0886   -1.2614   -0.5121 C   0  0  0  0  0  0  0  0  0  0  0  0
   -1.3732   -0.8114   -0.6290 C   0  0  0  0  0  0  0  0  0  0  0  0
   -1.0921   -0.2349    0.7672 C   0  0  0  0  0  0  0  0  0  0  0  0
   -0.2430   -1.4645    0.9692 C   0  0  0  0  0  0  0  0  0  0  0  0
   -0.1134    0.8535    0.4144 C   0  0  0  0  0  0  0  0  0  0  0  0
   -0.7652    1.9266   -0.4501 C   0  0  0  0  0  0  0  0  0  0  0  0
    2.7318   -0.8896   -0.1603 H   0  0  0  0  0  0  0  0  0  0  0  0
    2.0230    0.0521    1.2673 H   0  0  0  0  0  0  0  0  0  0  0  0
    2.6786    0.9531   -0.1163 H   0  0  0  0  0  0  0  0  0  0  0  0
    0.8680    0.4916   -1.5137 H   0  0  0  0  0  0  0  0  0  0  0  0
    0.4036   -2.0920   -1.0773 H   0  0  0  0  0  0  0  0  0  0  0  0
   -1.5530   -0.0450   -1.3889 H   0  0  0  0  0  0  0  0  0  0  0  0
   -2.1097   -1.6156   -0.5239 H   0  0  0  0  0  0  0  0  0  0  0  0
   -1.9140   -0.0412    1.3978 H   0  0  0  0  0  0  0  0  0  0  0  0
   -0.8980   -2.3539    1.0505 H   0  0  0  0  0  0  0  0  0  0  0  0
    0.5956   -1.3866    1.6522 H   0  0  0  0  0  0  0  0  0  0  0  0
    0.4252    1.2732    1.2581 H   0  0  0  0  0  0  0  0  0  0  0  0
   -0.4426    1.8545   -1.5106 H   0  0  0  0  0  0  0  0  0  0  0  0
   -1.8679    1.8339   -0.4362 H   0  0  0  0  0  0  0  0  0  0  0  0
   -0.4100    2.9245   -0.0972 H   0  0  0  0  0  0  0  0  0  0  0  0
  1  2  1  0
  2  3  1  0
  3  4  1  0
  4  5  1  0
  5  6  1  0
  5  7  1  0
  7  8  1  0
  7  2  1  0
  6  3  1  0
  1  9  1  0
  1 10  1  0
  1 11  1  0
  2 12  1  0
  3 13  1  0
  4 14  1  0
  4 15  1  0
  5 16  1  0
  6 17  1  0
  6 18  1  0
  7 19  1  0
  8 20  1  0
  8 21  1  0
  8 22  1  0
M  END
