
     RDKit          3D

 22 23  0  0  0  0  0  0  0  0999 V2000
    3.0409    0.0695    0.1099 C   0  0  0  0  0  0  0  0  0  0  0  0
    1.7144    0.1205    0.7709 C   0  0  0  0  0  0  0  0  0  0  0  0
    0.7822   -1.0561    0.4749 C   0  0  0  0  0  0  0  0  0  0  0  0
   -0.3374   -0.0333    0.5015 C   0  0  0  0  0  0  0  0  0  0  0  0
   -1.4815   -0.3008   -0.4080 C   0  0  0  0  0  0  0  0  0  0  0  0
   -2.5866    0.7014   -0.3870 C   0  0  0  0  0  0  0  0  0  0  0  0
   -2.8428   -0.6265    0.2440 C   0  0  0  0  0  0  0  0  0  0  0  0
    0.6906    0.9704    0.0047 C   0  0  0  0  0  0  0  0  0  0  0  0
    3.4485   -0.9330   -0.0514 H   0  0  0  0  0  0  0  0  0  0  0  0
    3.0252    0.6932   -0.8292 H   0  0  0  0  0  0  0  0  0  0  0  0
    3.7772    0.5958    0.7850 H   0  0  0  0  0  0  0  0  0  0  0  0
    1.6657    0.3475    1.8384 H   0  0  0  0  0  0  0  0  0  0  0  0
    0.6926   -1.7918    1.2711 H   0  0  0  0  0  0  0  0  0  0  0  0
    0.8870   -1.4552   -0.5533 H   0  0  0  0  0  0  0  0  0  0  0  0
   -0.6417    0.1271    1.5624 H   0  0  0  0  0  0  0  0  0  0  0  0
   -1.2582   -0.7889   -1.3662 H   0  0  0  0  0  0  0  0  0  0  0  0
   -2.5231    1.5760    0.2881 H   0  0  0  0  0  0  0  0  0  0  0  0
   -3.1312    0.9445   -1.3396 H   0  0  0  0  0  0  0  0  0  0  0  0
   -2.8411   -0.6798    1.3637 H   0  0  0  0  0  0  0  0  0  0  0  0
   -3.5269   -1.2844   -0.2952 H   0  0  0  0  0  0  0  0  0  0  0  0
    0.5841    1.9859    0.3701 H   0  0  0  0  0  0  0  0  0  0  0  0
    0.8621    0.8180   -1.0747 H   0  0  0  0  0  0  0  0  0  0  0  0
  1  2  1  0
  2  3  1  0
  3  4  1  0
  4  5  1  0
  5  6  1  0
  6  7  1  0
  4  8  1  0
  8  2  1  0
  7  5  1  0
  1  9  1  0
  1 10  1  0
  1 11  1  0
  2 12  1  0
  3 13  1  0
  3 14  1  0
  4 15  1  0
  5 16  1  0
  6 17  1  0
  6 18  1  0
  7 19  1  0
  7 20  1  0
  8 21  1  0
  8 22  1  0
M  END
