
     RDKit          3D

 17 18  0  0  0  0  0  0  0  0999 V2000
   -2.2615    0.0227   -0.2311 C   0  0  0  0  0  0  0  0  0  0  0  0
   -0.8066   -0.3721   -0.1558 C   0  0  0  0  0  0  0  0  0  0  0  0
   -0.0630   -0.1390   -1.3877 C   0  0  0  0  0  0  0  0  0  0  0  0
   -0.4974   -0.1331   -2.5109 O   0  0  0  0  0  0  0  0  0  0  0  0
    1.3486    0.0947   -1.0191 C   0  0  0  0  0  0  0  0  0  0  0  0
    1.9533   -0.6383    0.1215 C   0  0  0  0  0  0  0  0  0  0  0  0
    1.2527    0.6803    0.3437 C   0  0  0  0  0  0  0  0  0  0  0  0
   -0.1449    0.5511    0.8084 C   0  0  0  0  0  0  0  0  0  0  0  0
   -0.5953    1.1096    1.7826 O   0  0  0  0  0  0  0  0  0  0  0  0
   -2.3226    1.0483   -0.6380 H   0  0  0  0  0  0  0  0  0  0  0  0
   -2.6568   -0.0465    0.8140 H   0  0  0  0  0  0  0  0  0  0  0  0
   -2.8635   -0.6733   -0.8484 H   0  0  0  0  0  0  0  0  0  0  0  0
   -0.7770   -1.4235    0.1870 H   0  0  0  0  0  0  0  0  0  0  0  0
    2.0516    0.5170   -1.7679 H   0  0  0  0  0  0  0  0  0  0  0  0
    1.4993   -1.5690    0.5191 H   0  0  0  0  0  0  0  0  0  0  0  0
    3.0386   -0.5968    0.2245 H   0  0  0  0  0  0  0  0  0  0  0  0
    1.8445    1.5677    0.6397 H   0  0  0  0  0  0  0  0  0  0  0  0
  1  2  1  0
  2  3  1  0
  3  4  2  0
  3  5  1  0
  5  6  1  0
  6  7  1  0
  7  8  1  0
  8  9  2  0
  8  2  1  0
  7  5  1  0
  1 10  1  0
  1 11  1  0
  1 12  1  0
  2 13  1  0
  5 14  1  0
  6 15  1  0
  6 16  1  0
  7 17  1  0
M  END
