
     RDKit          3D

 21 21  0  0  0  0  0  0  0  0999 V2000
    2.3078    0.4539   -0.6777 C   0  0  0  0  0  0  0  0  0  0  0  0
    1.4128   -0.4830    0.1252 C   0  0  0  0  0  0  0  0  0  0  0  0
    0.6298   -1.3707   -0.7571 C   0  0  0  0  0  0  0  0  0  0  0  0
   -0.5912   -0.8864   -0.9560 C   0  0  0  0  0  0  0  0  0  0  0  0
   -0.7440    0.3958   -0.2117 C   0  0  0  0  0  0  0  0  0  0  0  0
   -2.0827    0.4519    0.5107 C   0  0  0  0  0  0  0  0  0  0  0  0
   -3.1485    0.3500   -0.4002 O   0  0  0  0  0  0  0  0  0  0  0  0
    0.3203    0.2814    0.8404 C   0  0  0  0  0  0  0  0  0  0  0  0
   -0.2004   -0.5575    1.8387 O   0  0  0  0  0  0  0  0  0  0  0  0
    2.3767    0.1248   -1.7461 H   0  0  0  0  0  0  0  0  0  0  0  0
    1.9162    1.4637   -0.5620 H   0  0  0  0  0  0  0  0  0  0  0  0
    3.3330    0.3992   -0.2533 H   0  0  0  0  0  0  0  0  0  0  0  0
    1.9883   -1.0255    0.8960 H   0  0  0  0  0  0  0  0  0  0  0  0
    0.9887   -2.2956   -1.1914 H   0  0  0  0  0  0  0  0  0  0  0  0
   -1.3438   -1.3675   -1.5695 H   0  0  0  0  0  0  0  0  0  0  0  0
   -0.6138    1.2290   -0.8986 H   0  0  0  0  0  0  0  0  0  0  0  0
   -2.2025    1.4418    0.9965 H   0  0  0  0  0  0  0  0  0  0  0  0
   -2.1417   -0.3021    1.3143 H   0  0  0  0  0  0  0  0  0  0  0  0
   -2.8993    0.7081   -1.2760 H   0  0  0  0  0  0  0  0  0  0  0  0
    0.6733    1.2346    1.2355 H   0  0  0  0  0  0  0  0  0  0  0  0
    0.0210   -0.2457    2.7422 H   0  0  0  0  0  0  0  0  0  0  0  0
  1  2  1  0
  2  3  1  0
  3  4  2  0
  4  5  1  0
  5  6  1  0
  6  7  1  0
  5  8  1  0
  8  9  1  0
  8  2  1  0
  1 10  1  0
  1 11  1  0
  1 12  1  0
  2 13  1  0
  3 14  1  0
  4 15  1  0
  5 16  1  0
  6 17  1  0
  6 18  1  0
  7 19  1  0
  8 20  1  0
  9 21  1  0
M  END
