
     RDKit          3D

 23 24  0  0  0  0  0  0  0  0999 V2000
   -2.6236   -0.1189    0.8993 C   0  0  0  0  0  0  0  0  0  0  0  0
   -1.7034    0.3046   -0.2123 C   0  0  0  0  0  0  0  0  0  0  0  0
   -1.1578   -0.8787   -0.9934 C   0  0  0  0  0  0  0  0  0  0  0  0
   -0.1126   -0.2907   -1.6935 O   0  0  0  0  0  0  0  0  0  0  0  0
    0.4629    0.6649   -0.9055 C   0  0  0  0  0  0  0  0  0  0  0  0
    1.8875    0.2903   -0.6053 C   0  0  0  0  0  0  0  0  0  0  0  0
    2.2021   -0.9666    0.0989 C   0  0  0  0  0  0  0  0  0  0  0  0
    2.4585    0.3604    0.7452 C   0  0  0  0  0  0  0  0  0  0  0  0
   -0.3708    0.8270    0.3400 C   0  0  0  0  0  0  0  0  0  0  0  0
   -2.9681    0.7883    1.4090 H   0  0  0  0  0  0  0  0  0  0  0  0
   -3.4715   -0.6595    0.4322 H   0  0  0  0  0  0  0  0  0  0  0  0
   -2.1042   -0.8370    1.5452 H   0  0  0  0  0  0  0  0  0  0  0  0
   -2.1474    1.0670   -0.8686 H   0  0  0  0  0  0  0  0  0  0  0  0
   -1.9221   -1.2944   -1.6765 H   0  0  0  0  0  0  0  0  0  0  0  0
   -0.8177   -1.6373   -0.2671 H   0  0  0  0  0  0  0  0  0  0  0  0
    0.4883    1.6827   -1.3921 H   0  0  0  0  0  0  0  0  0  0  0  0
    2.5854    0.5793   -1.4406 H   0  0  0  0  0  0  0  0  0  0  0  0
    3.0508   -1.5699   -0.2799 H   0  0  0  0  0  0  0  0  0  0  0  0
    1.4336   -1.5773    0.6012 H   0  0  0  0  0  0  0  0  0  0  0  0
    3.5453    0.6075    0.8648 H   0  0  0  0  0  0  0  0  0  0  0  0
    1.8487    0.6969    1.5858 H   0  0  0  0  0  0  0  0  0  0  0  0
   -0.4814    1.8545    0.6767 H   0  0  0  0  0  0  0  0  0  0  0  0
   -0.0824    0.1070    1.1363 H   0  0  0  0  0  0  0  0  0  0  0  0
  1  2  1  0
  2  3  1  0
  3  4  1  0
  4  5  1  0
  5  6  1  0
  6  7  1  0
  7  8  1  0
  5  9  1  0
  9  2  1  0
  8  6  1  0
  1 10  1  0
  1 11  1  0
  1 12  1  0
  2 13  1  0
  3 14  1  0
  3 15  1  0
  5 16  1  0
  6 17  1  0
  7 18  1  0
  7 19  1  0
  8 20  1  0
  8 21  1  0
  9 22  1  0
  9 23  1  0
M  END
