
     RDKit          3D

 17 17  0  0  0  0  0  0  0  0999 V2000
   -2.2997   -0.1353    0.0030 C   0  0  0  0  0  0  0  0  0  0  0  0
   -0.8286   -0.0675   -0.3476 C   0  0  0  0  0  0  0  0  0  0  0  0
    0.0031   -0.9751    0.4881 C   0  0  0  0  0  0  0  0  0  0  0  0
    1.0643   -0.3990    1.1289 O   0  0  0  0  0  0  0  0  0  0  0  0
    2.1824   -0.1954    0.3355 C   0  0  0  0  0  0  0  0  0  0  0  0
    2.0480    1.0114   -0.4357 O   0  0  0  0  0  0  0  0  0  0  0  0
    0.8676    1.7518   -0.5722 C   0  0  0  0  0  0  0  0  0  0  0  0
    0.9961    2.9596   -0.9585 O   0  0  0  0  0  0  0  0  0  0  0  0
   -0.4219    1.2868   -0.3247 O   0  0  0  0  0  0  0  0  0  0  0  0
   -2.8063    0.6466   -0.5767 H   0  0  0  0  0  0  0  0  0  0  0  0
   -2.7377   -1.1226   -0.2923 H   0  0  0  0  0  0  0  0  0  0  0  0
   -2.4436    0.0458    1.0888 H   0  0  0  0  0  0  0  0  0  0  0  0
   -0.7204   -0.4038   -1.4157 H   0  0  0  0  0  0  0  0  0  0  0  0
   -0.6799   -1.3609    1.3033 H   0  0  0  0  0  0  0  0  0  0  0  0
    0.2914   -1.9026   -0.0731 H   0  0  0  0  0  0  0  0  0  0  0  0
    3.0795   -0.0755    0.9793 H   0  0  0  0  0  0  0  0  0  0  0  0
    2.4056   -1.0645   -0.3304 H   0  0  0  0  0  0  0  0  0  0  0  0
  1  2  1  0
  2  3  1  0
  3  4  1  0
  4  5  1  0
  5  6  1  0
  6  7  1  0
  7  8  2  0
  7  9  1  0
  9  2  1  0
  1 10  1  0
  1 11  1  0
  1 12  1  0
  2 13  1  0
  3 14  1  0
  3 15  1  0
  5 16  1  0
  5 17  1  0
M  END
