
     RDKit          3D

 25 26  0  0  0  0  0  0  0  0999 V2000
   -2.8154    0.0061    0.3163 C   0  0  0  0  0  0  0  0  0  0  0  0
   -1.4260   -0.1307   -0.1922 C   0  0  0  0  0  0  0  0  0  0  0  0
   -0.6723    1.1901   -0.1610 C   0  0  0  0  0  0  0  0  0  0  0  0
    0.5394    0.9661   -1.0440 C   0  0  0  0  0  0  0  0  0  0  0  0
    1.4055   -0.1501   -0.6081 C   0  0  0  0  0  0  0  0  0  0  0  0
    2.5501    0.4479    0.2233 C   0  0  0  0  0  0  0  0  0  0  0  0
    0.7820   -1.2405    0.1507 C   0  0  0  0  0  0  0  0  0  0  0  0
    0.3361   -0.9168    1.5597 C   0  0  0  0  0  0  0  0  0  0  0  0
   -0.6182   -1.1941    0.4788 C   0  0  0  0  0  0  0  0  0  0  0  0
   -3.1218   -0.9218    0.8155 H   0  0  0  0  0  0  0  0  0  0  0  0
   -3.5428    0.1472   -0.5348 H   0  0  0  0  0  0  0  0  0  0  0  0
   -2.8986    0.9098    0.9610 H   0  0  0  0  0  0  0  0  0  0  0  0
   -1.4803   -0.4084   -1.2857 H   0  0  0  0  0  0  0  0  0  0  0  0
   -0.4049    1.5133    0.8433 H   0  0  0  0  0  0  0  0  0  0  0  0
   -1.3326    1.9285   -0.6804 H   0  0  0  0  0  0  0  0  0  0  0  0
    1.1058    1.8990   -1.1889 H   0  0  0  0  0  0  0  0  0  0  0  0
    0.1215    0.7019   -2.0595 H   0  0  0  0  0  0  0  0  0  0  0  0
    1.9210   -0.5608   -1.5259 H   0  0  0  0  0  0  0  0  0  0  0  0
    3.2919   -0.3362    0.4076 H   0  0  0  0  0  0  0  0  0  0  0  0
    2.1689    0.9292    1.1390 H   0  0  0  0  0  0  0  0  0  0  0  0
    2.9648    1.2908   -0.4022 H   0  0  0  0  0  0  0  0  0  0  0  0
    1.2499   -2.2561   -0.0101 H   0  0  0  0  0  0  0  0  0  0  0  0
    0.5112    0.0867    1.9779 H   0  0  0  0  0  0  0  0  0  0  0  0
    0.5345   -1.7238    2.3109 H   0  0  0  0  0  0  0  0  0  0  0  0
   -1.1697   -2.1774    0.5579 H   0  0  0  0  0  0  0  0  0  0  0  0
  1  2  1  0
  2  3  1  0
  3  4  1  0
  4  5  1  0
  5  6  1  0
  5  7  1  0
  7  8  1  0
  8  9  1  0
  9  2  1  0
  9  7  1  0
  1 10  1  0
  1 11  1  0
  1 12  1  0
  2 13  1  0
  3 14  1  0
  3 15  1  0
  4 16  1  0
  4 17  1  0
  5 18  1  0
  6 19  1  0
  6 20  1  0
  6 21  1  0
  7 22  1  0
  8 23  1  0
  8 24  1  0
  9 25  1  0
M  END
