
     RDKit          3D

 23 24  0  0  0  0  0  0  0  0999 V2000
   -1.6226    1.2326    1.2075 C   0  0  0  0  0  0  0  0  0  0  0  0
   -1.3348    0.0703    0.3161 C   0  0  0  0  0  0  0  0  0  0  0  0
   -1.5608    0.3863   -1.1692 C   0  0  0  0  0  0  0  0  0  0  0  0
   -0.2840   -0.4205   -1.4454 C   0  0  0  0  0  0  0  0  0  0  0  0
    0.0331   -0.2798   -0.0079 C   0  0  0  0  0  0  0  0  0  0  0  0
    0.7417   -1.3743    0.6872 C   0  0  0  0  0  0  0  0  0  0  0  0
    2.0393   -0.6228    0.3413 C   0  0  0  0  0  0  0  0  0  0  0  0
    2.4414   -1.0339   -0.9308 O   0  0  0  0  0  0  0  0  0  0  0  0
    1.1583    0.6386    0.3124 C   0  0  0  0  0  0  0  0  0  0  0  0
   -2.7405    1.3922    1.1817 H   0  0  0  0  0  0  0  0  0  0  0  0
   -1.4030    0.9157    2.2529 H   0  0  0  0  0  0  0  0  0  0  0  0
   -1.1091    2.1582    0.9290 H   0  0  0  0  0  0  0  0  0  0  0  0
   -1.9864   -0.7949    0.6050 H   0  0  0  0  0  0  0  0  0  0  0  0
   -1.4081    1.4585   -1.3608 H   0  0  0  0  0  0  0  0  0  0  0  0
   -2.4664   -0.0656   -1.5718 H   0  0  0  0  0  0  0  0  0  0  0  0
   -0.4492   -1.4588   -1.7353 H   0  0  0  0  0  0  0  0  0  0  0  0
    0.4585    0.1374   -2.0703 H   0  0  0  0  0  0  0  0  0  0  0  0
    0.5709   -1.4217    1.7775 H   0  0  0  0  0  0  0  0  0  0  0  0
    0.6987   -2.3646    0.2203 H   0  0  0  0  0  0  0  0  0  0  0  0
    2.7963   -0.6340    1.1223 H   0  0  0  0  0  0  0  0  0  0  0  0
    2.8503   -0.3379   -1.4659 H   0  0  0  0  0  0  0  0  0  0  0  0
    1.1835    1.0937    1.3136 H   0  0  0  0  0  0  0  0  0  0  0  0
    1.3929    1.3251   -0.5095 H   0  0  0  0  0  0  0  0  0  0  0  0
  1  2  1  0
  2  3  1  0
  3  4  1  0
  4  5  1  0
  5  6  1  0
  6  7  1  0
  7  8  1  0
  7  9  1  0
  5  2  1  0
  9  5  1  0
  1 10  1  0
  1 11  1  0
  1 12  1  0
  2 13  1  0
  3 14  1  0
  3 15  1  0
  4 16  1  0
  4 17  1  0
  6 18  1  0
  6 19  1  0
  7 20  1  0
  8 21  1  0
  9 22  1  0
  9 23  1  0
M  END
