
     RDKit          3D

 16 16  0  0  0  0  0  0  0  0999 V2000
   -1.5247   -0.9373   -0.1246 C   0  0  0  0  0  0  0  0  0  0  0  0
   -0.8001    0.1263    0.6377 C   0  0  0  0  0  0  0  0  0  0  0  0
   -1.0854    1.4552   -0.0212 C   0  0  0  0  0  0  0  0  0  0  0  0
   -1.8972    2.3627    0.2223 O   0  0  0  0  0  0  0  0  0  0  0  0
   -0.0715    1.1161   -0.9110 O   0  0  0  0  0  0  0  0  0  0  0  0
    0.5661    0.4884    0.1775 C   0  0  0  0  0  0  0  0  0  0  0  0
    1.5102   -0.6139   -0.1499 C   0  0  0  0  0  0  0  0  0  0  0  0
    2.5243   -0.0700   -0.9670 O   0  0  0  0  0  0  0  0  0  0  0  0
   -2.4824   -0.5492   -0.5824 H   0  0  0  0  0  0  0  0  0  0  0  0
   -0.9331   -1.3157   -0.9768 H   0  0  0  0  0  0  0  0  0  0  0  0
   -1.8454   -1.7918    0.5100 H   0  0  0  0  0  0  0  0  0  0  0  0
   -0.9723    0.1431    1.7311 H   0  0  0  0  0  0  0  0  0  0  0  0
    1.0219    1.2438    0.8307 H   0  0  0  0  0  0  0  0  0  0  0  0
    2.0167   -0.9277    0.7794 H   0  0  0  0  0  0  0  0  0  0  0  0
    1.0822   -1.4503   -0.6911 H   0  0  0  0  0  0  0  0  0  0  0  0
    2.8906    0.7203   -0.4647 H   0  0  0  0  0  0  0  0  0  0  0  0
  1  2  1  0
  2  3  1  0
  3  4  2  0
  3  5  1  0
  5  6  1  0
  6  7  1  0
  7  8  1  0
  6  2  1  0
  1  9  1  0
  1 10  1  0
  1 11  1  0
  2 12  1  0
  6 13  1  0
  7 14  1  0
  7 15  1  0
  8 16  1  0
M  END
