
     RDKit          3D

 20 21  0  0  0  0  0  0  0  0999 V2000
    2.0728    0.5258   -0.0372 C   0  0  0  0  0  0  0  0  0  0  0  0
    0.9576   -0.4715   -0.1582 C   0  0  0  0  0  0  0  0  0  0  0  0
    0.1430   -0.5544    1.1408 C   0  0  0  0  0  0  0  0  0  0  0  0
   -1.2491   -0.2282    0.6784 C   0  0  0  0  0  0  0  0  0  0  0  0
   -1.2259    1.2062    0.1832 C   0  0  0  0  0  0  0  0  0  0  0  0
   -0.5451    1.1936   -1.0188 O   0  0  0  0  0  0  0  0  0  0  0  0
   -0.0557   -0.0967   -1.2180 C   0  0  0  0  0  0  0  0  0  0  0  0
   -1.2494   -0.9208   -0.6967 C   0  0  0  0  0  0  0  0  0  0  0  0
    2.8749    0.0807    0.5670 H   0  0  0  0  0  0  0  0  0  0  0  0
    1.7164    1.5016    0.3456 H   0  0  0  0  0  0  0  0  0  0  0  0
    2.4706    0.7024   -1.0569 H   0  0  0  0  0  0  0  0  0  0  0  0
    1.3497   -1.4653   -0.3711 H   0  0  0  0  0  0  0  0  0  0  0  0
    0.4559    0.2414    1.8475 H   0  0  0  0  0  0  0  0  0  0  0  0
    0.1520   -1.5630    1.5622 H   0  0  0  0  0  0  0  0  0  0  0  0
   -2.0566   -0.4985    1.3108 H   0  0  0  0  0  0  0  0  0  0  0  0
   -0.6681    1.7886    0.9455 H   0  0  0  0  0  0  0  0  0  0  0  0
   -2.2773    1.5631    0.0765 H   0  0  0  0  0  0  0  0  0  0  0  0
    0.2143   -0.3272   -2.2250 H   0  0  0  0  0  0  0  0  0  0  0  0
   -0.9230   -1.9519   -0.6201 H   0  0  0  0  0  0  0  0  0  0  0  0
   -2.1571   -0.7259   -1.2556 H   0  0  0  0  0  0  0  0  0  0  0  0
  1  2  1  0
  2  3  1  0
  3  4  1  0
  4  5  1  0
  5  6  1  0
  6  7  1  0
  7  8  1  0
  7  2  1  0
  8  4  1  0
  1  9  1  0
  1 10  1  0
  1 11  1  0
  2 12  1  0
  3 13  1  0
  3 14  1  0
  4 15  1  0
  5 16  1  0
  5 17  1  0
  7 18  1  0
  8 19  1  0
  8 20  1  0
M  END
