
     RDKit          3D

 23 24  0  0  0  0  0  0  0  0999 V2000
    2.0515   -0.9263    0.5912 C   0  0  0  0  0  0  0  0  0  0  0  0
    1.2319    0.0263   -0.1768 C   0  0  0  0  0  0  0  0  0  0  0  0
    0.5345    1.0761    0.6378 C   0  0  0  0  0  0  0  0  0  0  0  0
   -0.6881    1.3735   -0.1568 C   0  0  0  0  0  0  0  0  0  0  0  0
   -1.7563    0.3885    0.3365 C   0  0  0  0  0  0  0  0  0  0  0  0
   -1.0764   -0.9367   -0.0251 C   0  0  0  0  0  0  0  0  0  0  0  0
   -0.6998   -1.5828    1.1356 O   0  0  0  0  0  0  0  0  0  0  0  0
    0.0705   -0.5948   -0.9295 C   0  0  0  0  0  0  0  0  0  0  0  0
   -0.4594    0.7239   -1.5326 C   0  0  0  0  0  0  0  0  0  0  0  0
    2.1168   -1.9114    0.0598 H   0  0  0  0  0  0  0  0  0  0  0  0
    3.1135   -0.5384    0.5711 H   0  0  0  0  0  0  0  0  0  0  0  0
    1.8032   -1.0396    1.6541 H   0  0  0  0  0  0  0  0  0  0  0  0
    1.8321    0.5752   -0.9553 H   0  0  0  0  0  0  0  0  0  0  0  0
    0.2865    0.5873    1.6264 H   0  0  0  0  0  0  0  0  0  0  0  0
    1.1541    1.9443    0.8852 H   0  0  0  0  0  0  0  0  0  0  0  0
   -1.0168    2.3860   -0.2065 H   0  0  0  0  0  0  0  0  0  0  0  0
   -1.8914    0.5095    1.4091 H   0  0  0  0  0  0  0  0  0  0  0  0
   -2.6438    0.5676   -0.2733 H   0  0  0  0  0  0  0  0  0  0  0  0
   -1.7992   -1.5391   -0.5929 H   0  0  0  0  0  0  0  0  0  0  0  0
   -1.4932   -1.5180    1.7583 H   0  0  0  0  0  0  0  0  0  0  0  0
    0.3368   -1.3223   -1.6690 H   0  0  0  0  0  0  0  0  0  0  0  0
   -1.3816    0.5820   -2.0808 H   0  0  0  0  0  0  0  0  0  0  0  0
    0.3748    1.1688   -2.0663 H   0  0  0  0  0  0  0  0  0  0  0  0
  1  2  1  0
  2  3  1  0
  3  4  1  0
  4  5  1  0
  5  6  1  0
  6  7  1  0
  6  8  1  0
  8  9  1  0
  8  2  1  0
  9  4  1  0
  1 10  1  0
  1 11  1  0
  1 12  1  0
  2 13  1  0
  3 14  1  0
  3 15  1  0
  4 16  1  0
  5 17  1  0
  5 18  1  0
  6 19  1  0
  7 20  1  0
  8 21  1  0
  9 22  1  0
  9 23  1  0
M  END
