
     RDKit          3D

 21 23  0  0  0  0  0  0  0  0999 V2000
    1.7438   -0.7113   -0.3700 C   0  0  0  0  0  0  0  0  0  0  0  0
    0.6209   -0.6114    0.6332 C   0  0  0  0  0  0  0  0  0  0  0  0
    0.7789    0.7069    1.3618 C   0  0  0  0  0  0  0  0  0  0  0  0
    0.0907    1.7393    0.4910 C   0  0  0  0  0  0  0  0  0  0  0  0
   -1.2374    1.8522    0.8935 O   0  0  0  0  0  0  0  0  0  0  0  0
   -1.5949    0.6935    0.2674 C   0  0  0  0  0  0  0  0  0  0  0  0
   -0.4001    0.9580   -0.6925 C   0  0  0  0  0  0  0  0  0  0  0  0
   -0.6644   -0.3624   -0.1487 C   0  0  0  0  0  0  0  0  0  0  0  0
   -1.2224   -1.5034   -0.9364 C   0  0  0  0  0  0  0  0  0  0  0  0
    1.3653   -0.7827   -1.4107 H   0  0  0  0  0  0  0  0  0  0  0  0
    2.4011   -1.5815   -0.1517 H   0  0  0  0  0  0  0  0  0  0  0  0
    2.4197    0.1865   -0.3394 H   0  0  0  0  0  0  0  0  0  0  0  0
    0.5469   -1.4725    1.2964 H   0  0  0  0  0  0  0  0  0  0  0  0
    1.8436    0.9583    1.5473 H   0  0  0  0  0  0  0  0  0  0  0  0
    0.2310    0.5755    2.3410 H   0  0  0  0  0  0  0  0  0  0  0  0
    0.6332    2.6606    0.3035 H   0  0  0  0  0  0  0  0  0  0  0  0
   -2.5962    0.6776   -0.1710 H   0  0  0  0  0  0  0  0  0  0  0  0
   -0.7038    1.3859   -1.6183 H   0  0  0  0  0  0  0  0  0  0  0  0
   -0.4851   -2.1192   -1.4492 H   0  0  0  0  0  0  0  0  0  0  0  0
   -1.9927   -1.0838   -1.6367 H   0  0  0  0  0  0  0  0  0  0  0  0
   -1.7780   -2.1659   -0.2103 H   0  0  0  0  0  0  0  0  0  0  0  0
  1  2  1  0
  2  3  1  0
  3  4  1  0
  4  5  1  0
  5  6  1  0
  6  7  1  0
  7  8  1  0
  8  9  1  0
  8  2  1  0
  7  4  1  0
  8  6  1  0
  1 10  1  0
  1 11  1  0
  1 12  1  0
  2 13  1  0
  3 14  1  0
  3 15  1  0
  4 16  1  0
  6 17  1  0
  7 18  1  0
  9 19  1  0
  9 20  1  0
  9 21  1  0
M  END
