
     RDKit          3D

 23 24  0  0  0  0  0  0  0  0999 V2000
    2.6390   -0.1199    0.0639 C   0  0  0  0  0  0  0  0  0  0  0  0
    1.1757   -0.1231   -0.3598 C   0  0  0  0  0  0  0  0  0  0  0  0
    0.5862   -1.4739   -0.2080 C   0  0  0  0  0  0  0  0  0  0  0  0
   -0.6784   -1.8428   -0.1550 C   0  0  0  0  0  0  0  0  0  0  0  0
   -1.9009   -1.0881   -0.2238 C   0  0  0  0  0  0  0  0  0  0  0  0
   -1.8986    0.3375    0.2234 C   0  0  0  0  0  0  0  0  0  0  0  0
   -0.8320    1.1704   -0.3638 C   0  0  0  0  0  0  0  0  0  0  0  0
    0.0039    2.1710    0.2470 C   0  0  0  0  0  0  0  0  0  0  0  0
    0.4400    0.8353    0.4897 C   0  0  0  0  0  0  0  0  0  0  0  0
    3.3209   -0.3456   -0.7677 H   0  0  0  0  0  0  0  0  0  0  0  0
    2.8615    0.8616    0.5308 H   0  0  0  0  0  0  0  0  0  0  0  0
    2.7052   -0.8814    0.8850 H   0  0  0  0  0  0  0  0  0  0  0  0
    1.1106    0.1976   -1.4304 H   0  0  0  0  0  0  0  0  0  0  0  0
    1.3439   -2.2570   -0.1315 H   0  0  0  0  0  0  0  0  0  0  0  0
   -0.8189   -2.9304   -0.0360 H   0  0  0  0  0  0  0  0  0  0  0  0
   -2.3532   -1.1096   -1.2475 H   0  0  0  0  0  0  0  0  0  0  0  0
   -2.6762   -1.6024    0.4212 H   0  0  0  0  0  0  0  0  0  0  0  0
   -2.8858    0.7696   -0.0407 H   0  0  0  0  0  0  0  0  0  0  0  0
   -1.8523    0.3889    1.3474 H   0  0  0  0  0  0  0  0  0  0  0  0
   -0.7433    1.0562   -1.4665 H   0  0  0  0  0  0  0  0  0  0  0  0
    0.6086    2.8253   -0.4098 H   0  0  0  0  0  0  0  0  0  0  0  0
   -0.3962    2.7550    1.1138 H   0  0  0  0  0  0  0  0  0  0  0  0
    0.2403    0.4059    1.5181 H   0  0  0  0  0  0  0  0  0  0  0  0
  1  2  1  0
  2  3  1  0
  3  4  2  0
  4  5  1  0
  5  6  1  0
  6  7  1  0
  7  8  1  0
  8  9  1  0
  9  2  1  0
  9  7  1  0
  1 10  1  0
  1 11  1  0
  1 12  1  0
  2 13  1  0
  3 14  1  0
  4 15  1  0
  5 16  1  0
  5 17  1  0
  6 18  1  0
  6 19  1  0
  7 20  1  0
  8 21  1  0
  8 22  1  0
  9 23  1  0
M  END
