
     RDKit          3D

 18 19  0  0  0  0  0  0  0  0999 V2000
    1.9897   -0.0719   -0.2802 C   0  0  0  0  0  0  0  0  0  0  0  0
    0.8065   -0.2974    0.5951 C   0  0  0  0  0  0  0  0  0  0  0  0
   -0.1891    0.8539    0.6669 C   0  0  0  0  0  0  0  0  0  0  0  0
   -0.4494    1.1132   -0.7536 C   0  0  0  0  0  0  0  0  0  0  0  0
   -0.5687   -0.1357   -1.2733 C   0  0  0  0  0  0  0  0  0  0  0  0
   -0.3801   -0.9920   -0.0894 C   0  0  0  0  0  0  0  0  0  0  0  0
   -1.2146   -0.2508    0.9593 C   0  0  0  0  0  0  0  0  0  0  0  0
   -2.4972    0.0397    0.5609 O   0  0  0  0  0  0  0  0  0  0  0  0
    1.9727    0.8509   -0.8673 H   0  0  0  0  0  0  0  0  0  0  0  0
    2.1705   -0.9503   -0.9623 H   0  0  0  0  0  0  0  0  0  0  0  0
    2.8982   -0.0566    0.3836 H   0  0  0  0  0  0  0  0  0  0  0  0
    0.9814   -0.7345    1.5827 H   0  0  0  0  0  0  0  0  0  0  0  0
   -0.0538    1.6166    1.3711 H   0  0  0  0  0  0  0  0  0  0  0  0
   -0.5275    2.0641   -1.2636 H   0  0  0  0  0  0  0  0  0  0  0  0
   -0.7565   -0.3816   -2.3115 H   0  0  0  0  0  0  0  0  0  0  0  0
   -0.4078   -2.0335   -0.1292 H   0  0  0  0  0  0  0  0  0  0  0  0
   -1.1532   -0.6671    1.9731 H   0  0  0  0  0  0  0  0  0  0  0  0
   -2.6212    0.0329   -0.4224 H   0  0  0  0  0  0  0  0  0  0  0  0
  1  2  1  0
  2  3  1  0
  3  4  1  0
  4  5  2  0
  5  6  1  0
  6  7  1  0
  7  8  1  0
  6  2  1  0
  7  3  1  0
  1  9  1  0
  1 10  1  0
  1 11  1  0
  2 12  1  0
  3 13  1  0
  4 14  1  0
  5 15  1  0
  6 16  1  0
  7 17  1  0
  8 18  1  0
M  END
