
     RDKit          3D

 19 19  0  0  0  0  0  0  0  0999 V2000
    2.4726   -0.0361    0.2518 C   0  0  0  0  0  0  0  0  0  0  0  0
    1.1077   -0.1811   -0.4352 C   0  0  0  0  0  0  0  0  0  0  0  0
    0.4038    1.0770   -0.2930 C   0  0  0  0  0  0  0  0  0  0  0  0
   -0.8868    1.3696   -0.2766 C   0  0  0  0  0  0  0  0  0  0  0  0
   -1.9774    0.3766   -0.4133 C   0  0  0  0  0  0  0  0  0  0  0  0
   -1.8916   -0.6682    0.6418 C   0  0  0  0  0  0  0  0  0  0  0  0
   -0.7960   -1.5180    0.5736 O   0  0  0  0  0  0  0  0  0  0  0  0
    0.4453   -1.3737    0.0370 C   0  0  0  0  0  0  0  0  0  0  0  0
    1.1096   -2.4327   -0.0609 O   0  0  0  0  0  0  0  0  0  0  0  0
    2.6067    0.9574    0.6935 H   0  0  0  0  0  0  0  0  0  0  0  0
    2.5533   -0.7743    1.0900 H   0  0  0  0  0  0  0  0  0  0  0  0
    3.3061   -0.2083   -0.4592 H   0  0  0  0  0  0  0  0  0  0  0  0
    1.3306   -0.3245   -1.5343 H   0  0  0  0  0  0  0  0  0  0  0  0
    1.0353    1.9506   -0.1788 H   0  0  0  0  0  0  0  0  0  0  0  0
   -1.1653    2.4239   -0.1527 H   0  0  0  0  0  0  0  0  0  0  0  0
   -2.0020   -0.0940   -1.4144 H   0  0  0  0  0  0  0  0  0  0  0  0
   -2.9369    0.9114   -0.2946 H   0  0  0  0  0  0  0  0  0  0  0  0
   -1.9028   -0.1680    1.6357 H   0  0  0  0  0  0  0  0  0  0  0  0
   -2.8123   -1.2874    0.5894 H   0  0  0  0  0  0  0  0  0  0  0  0
  1  2  1  0
  2  3  1  0
  3  4  2  0
  4  5  1  0
  5  6  1  0
  6  7  1  0
  7  8  1  0
  8  9  2  0
  8  2  1  0
  1 10  1  0
  1 11  1  0
  1 12  1  0
  2 13  1  0
  3 14  1  0
  4 15  1  0
  5 16  1  0
  5 17  1  0
  6 18  1  0
  6 19  1  0
M  END
