
     RDKit          3D

 23 23  0  0  0  0  0  0  0  0999 V2000
   -2.3116   -0.5943   -0.2780 C   0  0  0  0  0  0  0  0  0  0  0  0
   -0.9267   -0.2371    0.2833 C   0  0  0  0  0  0  0  0  0  0  0  0
    0.0215   -1.2435   -0.2490 C   0  0  0  0  0  0  0  0  0  0  0  0
    1.2940   -1.2562    0.5797 C   0  0  0  0  0  0  0  0  0  0  0  0
    2.2288   -0.2993   -0.1197 C   0  0  0  0  0  0  0  0  0  0  0  0
    1.9030    1.1094    0.0740 C   0  0  0  0  0  0  0  0  0  0  0  0
    0.7026    1.6541    0.1003 C   0  0  0  0  0  0  0  0  0  0  0  0
   -0.6601    1.1678   -0.0333 C   0  0  0  0  0  0  0  0  0  0  0  0
   -1.5131    1.9655    0.7669 O   0  0  0  0  0  0  0  0  0  0  0  0
   -2.3640   -0.0781   -1.2682 H   0  0  0  0  0  0  0  0  0  0  0  0
   -3.1203   -0.2077    0.3382 H   0  0  0  0  0  0  0  0  0  0  0  0
   -2.3636   -1.6837   -0.4783 H   0  0  0  0  0  0  0  0  0  0  0  0
   -1.0047   -0.3676    1.3789 H   0  0  0  0  0  0  0  0  0  0  0  0
   -0.4397   -2.2613   -0.0993 H   0  0  0  0  0  0  0  0  0  0  0  0
    0.2738   -1.1460   -1.3039 H   0  0  0  0  0  0  0  0  0  0  0  0
    1.0461   -0.8196    1.5773 H   0  0  0  0  0  0  0  0  0  0  0  0
    1.7399   -2.2522    0.6312 H   0  0  0  0  0  0  0  0  0  0  0  0
    2.2279   -0.5694   -1.2028 H   0  0  0  0  0  0  0  0  0  0  0  0
    3.2460   -0.4953    0.2830 H   0  0  0  0  0  0  0  0  0  0  0  0
    2.7425    1.7757    0.2104 H   0  0  0  0  0  0  0  0  0  0  0  0
    0.7437    2.7485    0.2635 H   0  0  0  0  0  0  0  0  0  0  0  0
   -1.0001    1.3800   -1.0871 H   0  0  0  0  0  0  0  0  0  0  0  0
   -2.4658    1.7106    0.6356 H   0  0  0  0  0  0  0  0  0  0  0  0
  1  2  1  0
  2  3  1  0
  3  4  1  0
  4  5  1  0
  5  6  1  0
  6  7  2  0
  7  8  1  0
  8  9  1  0
  8  2  1  0
  1 10  1  0
  1 11  1  0
  1 12  1  0
  2 13  1  0
  3 14  1  0
  3 15  1  0
  4 16  1  0
  4 17  1  0
  5 18  1  0
  5 19  1  0
  6 20  1  0
  7 21  1  0
  8 22  1  0
  9 23  1  0
M  END
