
     RDKit          3D

 23 24  0  0  0  0  0  0  0  0999 V2000
    2.4877   -0.0954   -0.2343 C   0  0  0  0  0  0  0  0  0  0  0  0
    1.1123   -0.1158   -0.8016 C   0  0  0  0  0  0  0  0  0  0  0  0
    0.2880   -1.3348   -0.4640 C   0  0  0  0  0  0  0  0  0  0  0  0
    0.2100   -0.7698    0.9262 C   0  0  0  0  0  0  0  0  0  0  0  0
    0.0106    0.4256    0.0744 C   0  0  0  0  0  0  0  0  0  0  0  0
   -0.2208    1.7238    0.4197 C   0  0  0  0  0  0  0  0  0  0  0  0
   -1.3327    1.8948    1.2538 O   0  0  0  0  0  0  0  0  0  0  0  0
   -0.8933   -0.4556   -0.7779 C   0  0  0  0  0  0  0  0  0  0  0  0
   -2.1306   -0.9442   -0.1142 C   0  0  0  0  0  0  0  0  0  0  0  0
    2.5912    0.3569    0.7502 H   0  0  0  0  0  0  0  0  0  0  0  0
    2.9019   -1.1341   -0.2914 H   0  0  0  0  0  0  0  0  0  0  0  0
    3.1312    0.4982   -0.9439 H   0  0  0  0  0  0  0  0  0  0  0  0
    0.9808    0.2436   -1.8354 H   0  0  0  0  0  0  0  0  0  0  0  0
    0.4484   -2.2769   -0.7460 H   0  0  0  0  0  0  0  0  0  0  0  0
    1.1214   -0.8253    1.5359 H   0  0  0  0  0  0  0  0  0  0  0  0
   -0.6448   -1.1674    1.4708 H   0  0  0  0  0  0  0  0  0  0  0  0
   -0.4288    2.3903   -0.4698 H   0  0  0  0  0  0  0  0  0  0  0  0
    0.6254    2.2209    0.9370 H   0  0  0  0  0  0  0  0  0  0  0  0
   -1.8362    2.7078    1.0678 H   0  0  0  0  0  0  0  0  0  0  0  0
   -0.9577   -0.0939   -1.8023 H   0  0  0  0  0  0  0  0  0  0  0  0
   -2.9584   -0.9142   -0.8769 H   0  0  0  0  0  0  0  0  0  0  0  0
   -2.4589   -0.3181    0.7514 H   0  0  0  0  0  0  0  0  0  0  0  0
   -2.0468   -2.0163    0.1706 H   0  0  0  0  0  0  0  0  0  0  0  0
  1  2  1  0
  2  3  1  0
  3  4  1  0
  4  5  1  0
  5  6  1  0
  6  7  1  0
  5  8  1  0
  8  9  1  0
  5  2  1  0
  8  3  1  0
  1 10  1  0
  1 11  1  0
  1 12  1  0
  2 13  1  0
  3 14  1  0
  4 15  1  0
  4 16  1  0
  6 17  1  0
  6 18  1  0
  7 19  1  0
  8 20  1  0
  9 21  1  0
  9 22  1  0
  9 23  1  0
M  END
