
     RDKit          3D

 20 20  0  0  0  0  0  0  0  0999 V2000
   -1.4893   -0.0744   -0.8932 C   0  0  0  0  0  0  0  0  0  0  0  0
   -1.0310   -0.1921    0.5254 C   0  0  0  0  0  0  0  0  0  0  0  0
   -0.4272    1.0974    1.0396 C   0  0  0  0  0  0  0  0  0  0  0  0
    0.6789    1.5796    0.2159 C   0  0  0  0  0  0  0  0  0  0  0  0
    1.5687    0.9684   -0.5498 C   0  0  0  0  0  0  0  0  0  0  0  0
    1.7041   -0.4599   -0.8039 C   0  0  0  0  0  0  0  0  0  0  0  0
    0.9882   -1.4195   -0.2571 C   0  0  0  0  0  0  0  0  0  0  0  0
   -0.0965   -1.3627    0.7129 C   0  0  0  0  0  0  0  0  0  0  0  0
   -1.9577    0.9428   -1.0255 H   0  0  0  0  0  0  0  0  0  0  0  0
   -2.3268   -0.7959   -1.0750 H   0  0  0  0  0  0  0  0  0  0  0  0
   -0.6869   -0.1584   -1.6389 H   0  0  0  0  0  0  0  0  0  0  0  0
   -1.9234   -0.3877    1.1569 H   0  0  0  0  0  0  0  0  0  0  0  0
   -0.1607    0.9203    2.1024 H   0  0  0  0  0  0  0  0  0  0  0  0
   -1.2413    1.8511    1.0333 H   0  0  0  0  0  0  0  0  0  0  0  0
    0.7857    2.6759    0.2445 H   0  0  0  0  0  0  0  0  0  0  0  0
    2.2920    1.5914   -1.0567 H   0  0  0  0  0  0  0  0  0  0  0  0
    2.4811   -0.7672   -1.5236 H   0  0  0  0  0  0  0  0  0  0  0  0
    1.2613   -2.4041   -0.5920 H   0  0  0  0  0  0  0  0  0  0  0  0
    0.2919   -1.3254    1.7512 H   0  0  0  0  0  0  0  0  0  0  0  0
   -0.7111   -2.2796    0.6336 H   0  0  0  0  0  0  0  0  0  0  0  0
  1  2  1  0
  2  3  1  0
  3  4  1  0
  4  5  2  0
  5  6  1  0
  6  7  2  0
  7  8  1  0
  8  2  1  0
  1  9  1  0
  1 10  1  0
  1 11  1  0
  2 12  1  0
  3 13  1  0
  3 14  1  0
  4 15  1  0
  5 16  1  0
  6 17  1  0
  7 18  1  0
  8 19  1  0
  8 20  1  0
M  END
