
     RDKit          3D

 20 21  0  0  0  0  0  0  0  0999 V2000
   -1.9542    0.2334   -0.8053 C   0  0  0  0  0  0  0  0  0  0  0  0
   -0.9155    0.5106    0.2734 C   0  0  0  0  0  0  0  0  0  0  0  0
   -1.3338   -0.1759    1.5614 C   0  0  0  0  0  0  0  0  0  0  0  0
   -0.4922   -1.2688    1.3009 O   0  0  0  0  0  0  0  0  0  0  0  0
    0.1114   -0.5368    0.3278 C   0  0  0  0  0  0  0  0  0  0  0  0
    0.7003   -1.0841   -0.8960 C   0  0  0  0  0  0  0  0  0  0  0  0
    1.5375   -0.3716    0.1358 C   0  0  0  0  0  0  0  0  0  0  0  0
    2.2051    0.9274   -0.1954 C   0  0  0  0  0  0  0  0  0  0  0  0
   -1.4862    0.2174   -1.8129 H   0  0  0  0  0  0  0  0  0  0  0  0
   -2.7956    0.9451   -0.7241 H   0  0  0  0  0  0  0  0  0  0  0  0
   -2.3328   -0.8036   -0.6183 H   0  0  0  0  0  0  0  0  0  0  0  0
   -0.6061    1.5579    0.3688 H   0  0  0  0  0  0  0  0  0  0  0  0
   -2.3904   -0.5360    1.5665 H   0  0  0  0  0  0  0  0  0  0  0  0
   -1.0591    0.4342    2.4315 H   0  0  0  0  0  0  0  0  0  0  0  0
    0.4473   -0.5136   -1.8351 H   0  0  0  0  0  0  0  0  0  0  0  0
    0.8170   -2.1701   -1.0465 H   0  0  0  0  0  0  0  0  0  0  0  0
    2.1988   -1.0476    0.7547 H   0  0  0  0  0  0  0  0  0  0  0  0
    3.2680    0.6751   -0.4833 H   0  0  0  0  0  0  0  0  0  0  0  0
    1.7828    1.4662   -1.0390 H   0  0  0  0  0  0  0  0  0  0  0  0
    2.2978    1.5406    0.7351 H   0  0  0  0  0  0  0  0  0  0  0  0
  1  2  1  0
  2  3  1  0
  3  4  1  0
  4  5  1  0
  5  6  1  0
  6  7  1  0
  7  8  1  0
  5  2  1  0
  7  5  1  0
  1  9  1  0
  1 10  1  0
  1 11  1  0
  2 12  1  0
  3 13  1  0
  3 14  1  0
  6 15  1  0
  6 16  1  0
  7 17  1  0
  8 18  1  0
  8 19  1  0
  8 20  1  0
M  END
