
     RDKit          3D

 21 22  0  0  0  0  0  0  0  0999 V2000
    2.4420    0.6949   -1.0491 C   0  0  0  0  0  0  0  0  0  0  0  0
    2.2365   -0.2271    0.1040 C   0  0  0  0  0  0  0  0  0  0  0  0
    1.8478    0.3353    1.4504 C   0  0  0  0  0  0  0  0  0  0  0  0
    0.8762   -0.5218    0.6266 C   0  0  0  0  0  0  0  0  0  0  0  0
   -0.2184    0.1988    0.1727 O   0  0  0  0  0  0  0  0  0  0  0  0
   -1.3625   -0.5583    0.3877 C   0  0  0  0  0  0  0  0  0  0  0  0
   -2.6253    0.1336    0.7821 C   0  0  0  0  0  0  0  0  0  0  0  0
   -2.5001   -0.5015   -0.5575 C   0  0  0  0  0  0  0  0  0  0  0  0
   -2.3203    0.3442   -1.6733 O   0  0  0  0  0  0  0  0  0  0  0  0
    1.4708    1.0164   -1.5221 H   0  0  0  0  0  0  0  0  0  0  0  0
    3.0147    0.1694   -1.8365 H   0  0  0  0  0  0  0  0  0  0  0  0
    3.0432    1.5984   -0.7364 H   0  0  0  0  0  0  0  0  0  0  0  0
    2.9613   -1.0701    0.1820 H   0  0  0  0  0  0  0  0  0  0  0  0
    2.2271   -0.1218    2.3678 H   0  0  0  0  0  0  0  0  0  0  0  0
    1.6500    1.4183    1.5443 H   0  0  0  0  0  0  0  0  0  0  0  0
    0.6527   -1.5209    1.0573 H   0  0  0  0  0  0  0  0  0  0  0  0
   -1.1737   -1.5415    0.8580 H   0  0  0  0  0  0  0  0  0  0  0  0
   -3.1932   -0.3145    1.5963 H   0  0  0  0  0  0  0  0  0  0  0  0
   -2.6807    1.2445    0.7642 H   0  0  0  0  0  0  0  0  0  0  0  0
   -3.1049   -1.4163   -0.6983 H   0  0  0  0  0  0  0  0  0  0  0  0
   -3.2434    0.6401   -1.9338 H   0  0  0  0  0  0  0  0  0  0  0  0
  1  2  1  0
  2  3  1  0
  3  4  1  0
  4  5  1  0
  5  6  1  0
  6  7  1  0
  7  8  1  0
  8  9  1  0
  4  2  1  0
  8  6  1  0
  1 10  1  0
  1 11  1  0
  1 12  1  0
  2 13  1  0
  3 14  1  0
  3 15  1  0
  4 16  1  0
  6 17  1  0
  7 18  1  0
  7 19  1  0
  8 20  1  0
  9 21  1  0
M  END
