
     RDKit          3D

 20 21  0  0  0  0  0  0  0  0999 V2000
    2.5759   -0.5552    0.3372 C   0  0  0  0  0  0  0  0  0  0  0  0
    1.1072   -0.3048    0.5603 C   0  0  0  0  0  0  0  0  0  0  0  0
    0.8009    1.1068    0.8578 C   0  0  0  0  0  0  0  0  0  0  0  0
   -0.3869    1.3805    0.3528 C   0  0  0  0  0  0  0  0  0  0  0  0
   -0.9776    0.1931   -0.3218 C   0  0  0  0  0  0  0  0  0  0  0  0
   -2.0898    0.2907   -1.2649 C   0  0  0  0  0  0  0  0  0  0  0  0
   -2.2324   -0.4258    0.0746 C   0  0  0  0  0  0  0  0  0  0  0  0
    0.2773   -0.6050   -0.6511 C   0  0  0  0  0  0  0  0  0  0  0  0
    2.6898   -1.5698   -0.0750 H   0  0  0  0  0  0  0  0  0  0  0  0
    3.0831   -0.4741    1.3205 H   0  0  0  0  0  0  0  0  0  0  0  0
    2.9626    0.1853   -0.3914 H   0  0  0  0  0  0  0  0  0  0  0  0
    0.7404   -0.9495    1.3844 H   0  0  0  0  0  0  0  0  0  0  0  0
    1.4829    1.7753    1.4112 H   0  0  0  0  0  0  0  0  0  0  0  0
   -0.8751    2.3458    0.4181 H   0  0  0  0  0  0  0  0  0  0  0  0
   -2.5832    1.3015   -1.3637 H   0  0  0  0  0  0  0  0  0  0  0  0
   -2.0218   -0.3043   -2.1873 H   0  0  0  0  0  0  0  0  0  0  0  0
   -2.3215   -1.5281   -0.0435 H   0  0  0  0  0  0  0  0  0  0  0  0
   -2.8966   -0.0052    0.8358 H   0  0  0  0  0  0  0  0  0  0  0  0
    0.6993   -0.1992   -1.5878 H   0  0  0  0  0  0  0  0  0  0  0  0
   -0.0344   -1.6578   -0.7293 H   0  0  0  0  0  0  0  0  0  0  0  0
  1  2  1  0
  2  3  1  0
  3  4  2  0
  4  5  1  0
  5  6  1  0
  6  7  1  0
  5  8  1  0
  8  2  1  0
  7  5  1  0
  1  9  1  0
  1 10  1  0
  1 11  1  0
  2 12  1  0
  3 13  1  0
  4 14  1  0
  6 15  1  0
  6 16  1  0
  7 17  1  0
  7 18  1  0
  8 19  1  0
  8 20  1  0
M  END
