
     RDKit          3D

 21 23  0  0  0  0  0  0  0  0999 V2000
    2.4058   -0.6496   -0.9497 C   0  0  0  0  0  0  0  0  0  0  0  0
    1.0438   -0.0526   -0.5931 C   0  0  0  0  0  0  0  0  0  0  0  0
    0.8934    0.4298    0.8052 C   0  0  0  0  0  0  0  0  0  0  0  0
   -0.1824    1.4762    1.0124 C   0  0  0  0  0  0  0  0  0  0  0  0
   -1.4735    0.8755    0.5623 C   0  0  0  0  0  0  0  0  0  0  0  0
   -1.6353    0.7463   -0.8229 O   0  0  0  0  0  0  0  0  0  0  0  0
   -2.1308   -0.5487   -0.5642 C   0  0  0  0  0  0  0  0  0  0  0  0
   -1.2030   -0.6091    0.6089 C   0  0  0  0  0  0  0  0  0  0  0  0
    0.2367   -0.8184    0.3455 C   0  0  0  0  0  0  0  0  0  0  0  0
    2.5119   -1.6752   -0.5057 H   0  0  0  0  0  0  0  0  0  0  0  0
    3.1897    0.0033   -0.5163 H   0  0  0  0  0  0  0  0  0  0  0  0
    2.5356   -0.7293   -2.0489 H   0  0  0  0  0  0  0  0  0  0  0  0
    0.6446    0.5878   -1.3935 H   0  0  0  0  0  0  0  0  0  0  0  0
    1.7019    0.3211    1.5499 H   0  0  0  0  0  0  0  0  0  0  0  0
   -0.2910    1.7708    2.0739 H   0  0  0  0  0  0  0  0  0  0  0  0
    0.1203    2.3716    0.3977 H   0  0  0  0  0  0  0  0  0  0  0  0
   -2.3594    1.1895    1.1208 H   0  0  0  0  0  0  0  0  0  0  0  0
   -1.9108   -1.2974   -1.3192 H   0  0  0  0  0  0  0  0  0  0  0  0
   -3.1783   -0.4516   -0.2275 H   0  0  0  0  0  0  0  0  0  0  0  0
   -1.5587   -1.1435    1.4947 H   0  0  0  0  0  0  0  0  0  0  0  0
    0.6394   -1.7966    0.7218 H   0  0  0  0  0  0  0  0  0  0  0  0
  1  2  1  0
  2  3  1  0
  3  4  1  0
  4  5  1  0
  5  6  1  0
  6  7  1  0
  7  8  1  0
  8  9  1  0
  9  2  1  0
  9  3  1  0
  8  5  1  0
  1 10  1  0
  1 11  1  0
  1 12  1  0
  2 13  1  0
  3 14  1  0
  4 15  1  0
  4 16  1  0
  5 17  1  0
  7 18  1  0
  7 19  1  0
  8 20  1  0
  9 21  1  0
M  END
