
     RDKit          3D

 23 23  0  0  0  0  0  0  0  0999 V2000
    1.8478   -0.9306    0.2530 C   0  0  0  0  0  0  0  0  0  0  0  0
    0.7565   -0.2591   -0.5245 C   0  0  0  0  0  0  0  0  0  0  0  0
    1.2664    1.0669   -0.9888 C   0  0  0  0  0  0  0  0  0  0  0  0
    0.5052    2.0521   -0.5235 C   0  0  0  0  0  0  0  0  0  0  0  0
   -0.6071    1.5157    0.3084 C   0  0  0  0  0  0  0  0  0  0  0  0
   -0.4774    0.0187    0.2341 C   0  0  0  0  0  0  0  0  0  0  0  0
   -0.6023   -0.5938    1.5701 C   0  0  0  0  0  0  0  0  0  0  0  0
   -1.6525   -0.4744   -0.6213 C   0  0  0  0  0  0  0  0  0  0  0  0
   -1.4392   -1.8403   -0.8056 O   0  0  0  0  0  0  0  0  0  0  0  0
    1.5297   -1.7825    0.8515 H   0  0  0  0  0  0  0  0  0  0  0  0
    2.5922   -1.3163   -0.5006 H   0  0  0  0  0  0  0  0  0  0  0  0
    2.4254   -0.1651    0.8361 H   0  0  0  0  0  0  0  0  0  0  0  0
    0.5987   -0.8671   -1.4603 H   0  0  0  0  0  0  0  0  0  0  0  0
    2.1355    1.2411   -1.6201 H   0  0  0  0  0  0  0  0  0  0  0  0
    0.6354    3.1143   -0.6977 H   0  0  0  0  0  0  0  0  0  0  0  0
   -0.5200    1.8595    1.3502 H   0  0  0  0  0  0  0  0  0  0  0  0
   -1.5686    1.8941   -0.0780 H   0  0  0  0  0  0  0  0  0  0  0  0
   -1.1244   -1.5685    1.4928 H   0  0  0  0  0  0  0  0  0  0  0  0
    0.3324   -0.7358    2.1293 H   0  0  0  0  0  0  0  0  0  0  0  0
   -1.2529    0.0521    2.2026 H   0  0  0  0  0  0  0  0  0  0  0  0
   -1.5557    0.0617   -1.5938 H   0  0  0  0  0  0  0  0  0  0  0  0
   -2.5668   -0.2557   -0.0758 H   0  0  0  0  0  0  0  0  0  0  0  0
   -1.2583   -2.0870   -1.7382 H   0  0  0  0  0  0  0  0  0  0  0  0
  1  2  1  0
  2  3  1  0
  3  4  2  0
  4  5  1  0
  5  6  1  0
  6  7  1  0
  6  8  1  0
  8  9  1  0
  6  2  1  0
  1 10  1  0
  1 11  1  0
  1 12  1  0
  2 13  1  0
  3 14  1  0
  4 15  1  0
  5 16  1  0
  5 17  1  0
  7 18  1  0
  7 19  1  0
  7 20  1  0
  8 21  1  0
  8 22  1  0
  9 23  1  0
M  END
