
     RDKit          3D

 21 23  0  0  0  0  0  0  0  0999 V2000
   -2.9684   -0.1527    0.2728 C   0  0  0  0  0  0  0  0  0  0  0  0
   -1.5542   -0.3588    0.7020 C   0  0  0  0  0  0  0  0  0  0  0  0
   -0.6287    0.8027    0.9188 C   0  0  0  0  0  0  0  0  0  0  0  0
    0.4946    0.6349    1.6820 O   0  0  0  0  0  0  0  0  0  0  0  0
    1.4157   -0.1026    1.0011 C   0  0  0  0  0  0  0  0  0  0  0  0
    2.3465    0.6325    0.0748 C   0  0  0  0  0  0  0  0  0  0  0  0
    1.8337   -0.2028   -1.1025 C   0  0  0  0  0  0  0  0  0  0  0  0
    0.7738   -0.7348   -0.1866 C   0  0  0  0  0  0  0  0  0  0  0  0
   -0.5182    0.0168   -0.3241 C   0  0  0  0  0  0  0  0  0  0  0  0
   -3.2626   -1.0560   -0.3315 H   0  0  0  0  0  0  0  0  0  0  0  0
   -3.6164   -0.0124    1.1543 H   0  0  0  0  0  0  0  0  0  0  0  0
   -3.0078    0.7151   -0.3966 H   0  0  0  0  0  0  0  0  0  0  0  0
   -1.3974   -1.2937    1.2963 H   0  0  0  0  0  0  0  0  0  0  0  0
   -1.1695    1.7914    0.9190 H   0  0  0  0  0  0  0  0  0  0  0  0
    1.8904   -0.8546    1.6681 H   0  0  0  0  0  0  0  0  0  0  0  0
    2.1413    1.7008   -0.0720 H   0  0  0  0  0  0  0  0  0  0  0  0
    3.4080    0.3965    0.2276 H   0  0  0  0  0  0  0  0  0  0  0  0
    1.4151    0.3822   -1.9324 H   0  0  0  0  0  0  0  0  0  0  0  0
    2.5081   -1.0023   -1.4286 H   0  0  0  0  0  0  0  0  0  0  0  0
    0.6863   -1.8239   -0.0955 H   0  0  0  0  0  0  0  0  0  0  0  0
   -0.7901    0.5218   -1.2521 H   0  0  0  0  0  0  0  0  0  0  0  0
  1  2  1  0
  2  3  1  0
  3  4  1  0
  4  5  1  0
  5  6  1  0
  6  7  1  0
  7  8  1  0
  8  9  1  0
  9  2  1  0
  9  3  1  0
  8  5  1  0
  1 10  1  0
  1 11  1  0
  1 12  1  0
  2 13  1  0
  3 14  1  0
  5 15  1  0
  6 16  1  0
  6 17  1  0
  7 18  1  0
  7 19  1  0
  8 20  1  0
  9 21  1  0
M  END
