
     RDKit          3D

 25 26  0  0  0  0  0  0  0  0999 V2000
   -2.0514   -1.1144   -1.4326 C   0  0  0  0  0  0  0  0  0  0  0  0
   -0.9271   -0.2237   -0.9480 C   0  0  0  0  0  0  0  0  0  0  0  0
   -1.1384    0.7414    0.1579 C   0  0  0  0  0  0  0  0  0  0  0  0
   -2.4759    0.8162    0.8651 C   0  0  0  0  0  0  0  0  0  0  0  0
   -0.3099   -0.5312    0.3529 C   0  0  0  0  0  0  0  0  0  0  0  0
    1.1034   -0.3442    0.6837 C   0  0  0  0  0  0  0  0  0  0  0  0
    1.7107    1.0386    0.5891 C   0  0  0  0  0  0  0  0  0  0  0  0
    3.0303    0.3054    0.2793 C   0  0  0  0  0  0  0  0  0  0  0  0
    2.1338   -0.7572   -0.3774 C   0  0  0  0  0  0  0  0  0  0  0  0
   -1.6471   -1.7806   -2.2223 H   0  0  0  0  0  0  0  0  0  0  0  0
   -2.9112   -0.5047   -1.8021 H   0  0  0  0  0  0  0  0  0  0  0  0
   -2.4138   -1.7616   -0.5970 H   0  0  0  0  0  0  0  0  0  0  0  0
   -0.2524    0.0921   -1.7870 H   0  0  0  0  0  0  0  0  0  0  0  0
   -0.6471    1.7142    0.0768 H   0  0  0  0  0  0  0  0  0  0  0  0
   -3.0116   -0.1346    0.8703 H   0  0  0  0  0  0  0  0  0  0  0  0
   -2.2397    1.1298    1.9224 H   0  0  0  0  0  0  0  0  0  0  0  0
   -3.0503    1.6293    0.4126 H   0  0  0  0  0  0  0  0  0  0  0  0
   -0.8506   -1.3194    0.9536 H   0  0  0  0  0  0  0  0  0  0  0  0
    1.3760   -0.7742    1.6709 H   0  0  0  0  0  0  0  0  0  0  0  0
    1.3310    1.5657   -0.3333 H   0  0  0  0  0  0  0  0  0  0  0  0
    1.7261    1.6304    1.5030 H   0  0  0  0  0  0  0  0  0  0  0  0
    3.4651   -0.0535    1.2197 H   0  0  0  0  0  0  0  0  0  0  0  0
    3.6732    0.8466   -0.4144 H   0  0  0  0  0  0  0  0  0  0  0  0
    2.5038   -1.7874   -0.2576 H   0  0  0  0  0  0  0  0  0  0  0  0
    1.8732   -0.4231   -1.3855 H   0  0  0  0  0  0  0  0  0  0  0  0
  1  2  1  0
  2  3  1  0
  3  4  1  0
  3  5  1  0
  5  6  1  0
  6  7  1  0
  7  8  1  0
  8  9  1  0
  5  2  1  0
  9  6  1  0
  1 10  1  0
  1 11  1  0
  1 12  1  0
  2 13  1  0
  3 14  1  0
  4 15  1  0
  4 16  1  0
  4 17  1  0
  5 18  1  0
  6 19  1  0
  7 20  1  0
  7 21  1  0
  8 22  1  0
  8 23  1  0
  9 24  1  0
  9 25  1  0
M  END
