
     RDKit          3D

 21 23  0  0  0  0  0  0  0  0999 V2000
   -2.3738   -0.2618   -0.2863 C   0  0  0  0  0  0  0  0  0  0  0  0
   -0.9449    0.1944   -0.5970 C   0  0  0  0  0  0  0  0  0  0  0  0
   -0.1382   -1.0121   -0.8941 C   0  0  0  0  0  0  0  0  0  0  0  0
    1.2728   -0.9736   -0.4126 C   0  0  0  0  0  0  0  0  0  0  0  0
    1.3498   -1.2392    0.9486 O   0  0  0  0  0  0  0  0  0  0  0  0
    1.7409    0.0476    1.2715 C   0  0  0  0  0  0  0  0  0  0  0  0
    0.9648    1.2157    0.6783 C   0  0  0  0  0  0  0  0  0  0  0  0
   -0.4910    1.0020    0.5668 C   0  0  0  0  0  0  0  0  0  0  0  0
    1.8194    0.3896   -0.1749 C   0  0  0  0  0  0  0  0  0  0  0  0
   -2.3428   -1.3086    0.0906 H   0  0  0  0  0  0  0  0  0  0  0  0
   -3.0390   -0.1779   -1.1409 H   0  0  0  0  0  0  0  0  0  0  0  0
   -2.8177    0.3384    0.5395 H   0  0  0  0  0  0  0  0  0  0  0  0
   -1.0451    0.8483   -1.5010 H   0  0  0  0  0  0  0  0  0  0  0  0
   -0.1967   -1.2122   -1.9987 H   0  0  0  0  0  0  0  0  0  0  0  0
   -0.6177   -1.9208   -0.4259 H   0  0  0  0  0  0  0  0  0  0  0  0
    1.9849   -1.5774   -1.0400 H   0  0  0  0  0  0  0  0  0  0  0  0
    2.5635    0.2428    1.9644 H   0  0  0  0  0  0  0  0  0  0  0  0
    1.3459    2.2059    0.9723 H   0  0  0  0  0  0  0  0  0  0  0  0
   -0.9895    2.0041    0.4986 H   0  0  0  0  0  0  0  0  0  0  0  0
   -0.8404    0.4842    1.5028 H   0  0  0  0  0  0  0  0  0  0  0  0
    2.7948    0.7104   -0.5619 H   0  0  0  0  0  0  0  0  0  0  0  0
  1  2  1  0
  2  3  1  0
  3  4  1  0
  4  5  1  0
  5  6  1  0
  6  7  1  0
  7  8  1  0
  7  9  1  0
  8  2  1  0
  9  4  1  0
  9  6  1  0
  1 10  1  0
  1 11  1  0
  1 12  1  0
  2 13  1  0
  3 14  1  0
  3 15  1  0
  4 16  1  0
  6 17  1  0
  7 18  1  0
  8 19  1  0
  8 20  1  0
  9 21  1  0
M  END
