
     RDKit          3D

 18 18  0  0  0  0  0  0  0  0999 V2000
   -1.9828   -0.2006    0.7667 C   0  0  0  0  0  0  0  0  0  0  0  0
   -1.0913    0.0961   -0.4403 C   0  0  0  0  0  0  0  0  0  0  0  0
   -0.3246    1.2974   -0.1367 C   0  0  0  0  0  0  0  0  0  0  0  0
    0.9228    1.5516    0.2109 C   0  0  0  0  0  0  0  0  0  0  0  0
    1.9734    0.5627    0.4002 C   0  0  0  0  0  0  0  0  0  0  0  0
    1.9705   -0.7018    0.0071 C   0  0  0  0  0  0  0  0  0  0  0  0
    0.9359   -1.4263   -0.7053 C   0  0  0  0  0  0  0  0  0  0  0  0
   -0.3205   -1.0610   -0.8674 C   0  0  0  0  0  0  0  0  0  0  0  0
   -3.0152    0.1451    0.6167 H   0  0  0  0  0  0  0  0  0  0  0  0
   -1.6008    0.3477    1.6776 H   0  0  0  0  0  0  0  0  0  0  0  0
   -2.0136   -1.2965    0.9830 H   0  0  0  0  0  0  0  0  0  0  0  0
   -1.8083    0.3517   -1.2760 H   0  0  0  0  0  0  0  0  0  0  0  0
   -0.9156    2.2169   -0.2119 H   0  0  0  0  0  0  0  0  0  0  0  0
    1.1758    2.5887    0.3662 H   0  0  0  0  0  0  0  0  0  0  0  0
    2.8653    0.9199    0.9314 H   0  0  0  0  0  0  0  0  0  0  0  0
    2.8808   -1.2342    0.2716 H   0  0  0  0  0  0  0  0  0  0  0  0
    1.2598   -2.3710   -1.1436 H   0  0  0  0  0  0  0  0  0  0  0  0
   -0.9115   -1.7865   -1.4502 H   0  0  0  0  0  0  0  0  0  0  0  0
  1  2  1  0
  2  3  1  0
  3  4  2  0
  4  5  1  0
  5  6  2  0
  6  7  1  0
  7  8  2  0
  8  2  1  0
  1  9  1  0
  1 10  1  0
  1 11  1  0
  2 12  1  0
  3 13  1  0
  4 14  1  0
  5 15  1  0
  6 16  1  0
  7 17  1  0
  8 18  1  0
M  END
