
     RDKit          3D

 19 20  0  0  0  0  0  0  0  0999 V2000
    1.6228    0.4835   -0.7938 C   0  0  0  0  0  0  0  0  0  0  0  0
    0.9589   -0.3683    0.2104 C   0  0  0  0  0  0  0  0  0  0  0  0
   -0.1484   -1.2777   -0.2969 C   0  0  0  0  0  0  0  0  0  0  0  0
   -1.0826   -0.3515   -1.0342 C   0  0  0  0  0  0  0  0  0  0  0  0
   -1.0928    0.8100   -0.0231 C   0  0  0  0  0  0  0  0  0  0  0  0
   -0.1751    0.2247    1.0158 C   0  0  0  0  0  0  0  0  0  0  0  0
    0.0887    0.8924    2.1348 O   0  0  0  0  0  0  0  0  0  0  0  0
   -0.6790   -1.1695    1.0843 C   0  0  0  0  0  0  0  0  0  0  0  0
   -1.2422   -1.9032    1.8456 O   0  0  0  0  0  0  0  0  0  0  0  0
    2.0177   -0.1493   -1.6415 H   0  0  0  0  0  0  0  0  0  0  0  0
    2.5428    0.9162   -0.3286 H   0  0  0  0  0  0  0  0  0  0  0  0
    1.0492    1.2922   -1.2313 H   0  0  0  0  0  0  0  0  0  0  0  0
    1.6505   -0.9256    0.8403 H   0  0  0  0  0  0  0  0  0  0  0  0
    0.1012   -2.2220   -0.7003 H   0  0  0  0  0  0  0  0  0  0  0  0
   -2.1120   -0.7648   -1.0401 H   0  0  0  0  0  0  0  0  0  0  0  0
   -0.7232   -0.0384   -2.0117 H   0  0  0  0  0  0  0  0  0  0  0  0
   -2.0846    0.9455    0.4275 H   0  0  0  0  0  0  0  0  0  0  0  0
   -0.7753    1.7501   -0.4542 H   0  0  0  0  0  0  0  0  0  0  0  0
    0.0835    1.8555    1.9969 H   0  0  0  0  0  0  0  0  0  0  0  0
  1  2  1  0
  2  3  1  0
  3  4  1  0
  4  5  1  0
  5  6  1  0
  6  7  1  0
  6  8  1  0
  8  9  2  0
  6  2  1  0
  8  3  1  0
  1 10  1  0
  1 11  1  0
  1 12  1  0
  2 13  1  0
  3 14  1  0
  4 15  1  0
  4 16  1  0
  5 17  1  0
  5 18  1  0
  7 19  1  0
M  END
