
     RDKit          3D

 21 23  0  0  0  0  0  0  0  0999 V2000
   -2.0459    0.0012    0.4269 C   0  0  0  0  0  0  0  0  0  0  0  0
   -0.9047    0.0006   -0.5309 C   0  0  0  0  0  0  0  0  0  0  0  0
   -0.2539   -1.3966   -0.6457 C   0  0  0  0  0  0  0  0  0  0  0  0
    0.9320   -1.1841    0.2135 C   0  0  0  0  0  0  0  0  0  0  0  0
    2.2671   -0.8256   -0.0124 C   0  0  0  0  0  0  0  0  0  0  0  0
    1.3800    0.1326   -0.5487 C   0  0  0  0  0  0  0  0  0  0  0  0
    0.2479    0.9060   -0.0520 C   0  0  0  0  0  0  0  0  0  0  0  0
    0.0411    2.1368    0.4485 C   0  0  0  0  0  0  0  0  0  0  0  0
    0.1614    1.0416    1.4258 O   0  0  0  0  0  0  0  0  0  0  0  0
   -1.7379    0.1819    1.4622 H   0  0  0  0  0  0  0  0  0  0  0  0
   -2.7434    0.8131    0.1265 H   0  0  0  0  0  0  0  0  0  0  0  0
   -2.6156   -0.9581    0.2960 H   0  0  0  0  0  0  0  0  0  0  0  0
   -1.1917    0.2933   -1.5622 H   0  0  0  0  0  0  0  0  0  0  0  0
   -0.9928   -2.0944   -0.1701 H   0  0  0  0  0  0  0  0  0  0  0  0
   -0.0549   -1.6631   -1.6838 H   0  0  0  0  0  0  0  0  0  0  0  0
    0.5660   -1.0203    1.2764 H   0  0  0  0  0  0  0  0  0  0  0  0
    2.9182   -0.5036    0.8504 H   0  0  0  0  0  0  0  0  0  0  0  0
    2.8905   -1.4709   -0.6879 H   0  0  0  0  0  0  0  0  0  0  0  0
    1.2874    0.0766   -1.6837 H   0  0  0  0  0  0  0  0  0  0  0  0
   -0.9810    2.6192    0.4689 H   0  0  0  0  0  0  0  0  0  0  0  0
    0.8302    2.9139    0.5824 H   0  0  0  0  0  0  0  0  0  0  0  0
  1  2  1  0
  2  3  1  0
  3  4  1  0
  4  5  1  0
  5  6  1  0
  6  7  1  0
  7  8  1  0
  8  9  1  0
  7  2  1  0
  6  4  1  0
  9  7  1  0
  1 10  1  0
  1 11  1  0
  1 12  1  0
  2 13  1  0
  3 14  1  0
  3 15  1  0
  4 16  1  0
  5 17  1  0
  5 18  1  0
  6 19  1  0
  8 20  1  0
  8 21  1  0
M  END
