
     RDKit          3D

 25 25  0  0  0  0  0  0  0  0999 V2000
   -2.9430    0.1710   -0.0645 C   0  0  0  0  0  0  0  0  0  0  0  0
   -1.4632   -0.1283    0.0240 C   0  0  0  0  0  0  0  0  0  0  0  0
   -0.7364    0.2196   -1.2617 C   0  0  0  0  0  0  0  0  0  0  0  0
    0.5230   -0.6294   -1.2887 C   0  0  0  0  0  0  0  0  0  0  0  0
    1.2824   -0.4663   -0.0168 C   0  0  0  0  0  0  0  0  0  0  0  0
    2.7318   -0.8844   -0.2995 C   0  0  0  0  0  0  0  0  0  0  0  0
    1.3309    0.9376    0.4997 C   0  0  0  0  0  0  0  0  0  0  0  0
    0.1170    1.5360    0.6682 O   0  0  0  0  0  0  0  0  0  0  0  0
   -0.8796    0.6991    1.1491 C   0  0  0  0  0  0  0  0  0  0  0  0
   -3.4040   -0.2745    0.8514 H   0  0  0  0  0  0  0  0  0  0  0  0
   -3.0965    1.2812   -0.0497 H   0  0  0  0  0  0  0  0  0  0  0  0
   -3.4274   -0.2915   -0.9367 H   0  0  0  0  0  0  0  0  0  0  0  0
   -1.3464   -1.2213    0.2466 H   0  0  0  0  0  0  0  0  0  0  0  0
   -1.3103    0.0126   -2.1611 H   0  0  0  0  0  0  0  0  0  0  0  0
   -0.3871    1.2877   -1.2480 H   0  0  0  0  0  0  0  0  0  0  0  0
    1.1777   -0.4033   -2.1361 H   0  0  0  0  0  0  0  0  0  0  0  0
    0.1592   -1.6947   -1.3431 H   0  0  0  0  0  0  0  0  0  0  0  0
    0.8982   -1.1330    0.7634 H   0  0  0  0  0  0  0  0  0  0  0  0
    3.3968   -0.6424    0.5417 H   0  0  0  0  0  0  0  0  0  0  0  0
    2.7026   -1.9710   -0.5346 H   0  0  0  0  0  0  0  0  0  0  0  0
    3.0073   -0.3113   -1.2322 H   0  0  0  0  0  0  0  0  0  0  0  0
    1.9534    1.6073   -0.1484 H   0  0  0  0  0  0  0  0  0  0  0  0
    1.8604    0.9070    1.4834 H   0  0  0  0  0  0  0  0  0  0  0  0
   -1.6594    1.3770    1.5968 H   0  0  0  0  0  0  0  0  0  0  0  0
   -0.4872    0.0155    1.9453 H   0  0  0  0  0  0  0  0  0  0  0  0
  1  2  1  0
  2  3  1  0
  3  4  1  0
  4  5  1  0
  5  6  1  0
  5  7  1  0
  7  8  1  0
  8  9  1  0
  9  2  1  0
  1 10  1  0
  1 11  1  0
  1 12  1  0
  2 13  1  0
  3 14  1  0
  3 15  1  0
  4 16  1  0
  4 17  1  0
  5 18  1  0
  6 19  1  0
  6 20  1  0
  6 21  1  0
  7 22  1  0
  7 23  1  0
  9 24  1  0
  9 25  1  0
M  END
