
     RDKit          3D

 21 21  0  0  0  0  0  0  0  0999 V2000
   -2.6149    0.0701   -0.3464 C   0  0  0  0  0  0  0  0  0  0  0  0
   -1.3793    0.3381    0.5223 C   0  0  0  0  0  0  0  0  0  0  0  0
   -0.5292   -0.8954    0.4514 C   0  0  0  0  0  0  0  0  0  0  0  0
    0.1904   -1.0027   -0.7316 O   0  0  0  0  0  0  0  0  0  0  0  0
    1.5360   -1.1687   -0.4401 C   0  0  0  0  0  0  0  0  0  0  0  0
    2.2050    0.1782   -0.6202 C   0  0  0  0  0  0  0  0  0  0  0  0
    1.2835    1.1836   -0.8247 O   0  0  0  0  0  0  0  0  0  0  0  0
    0.5916    1.5356    0.3342 C   0  0  0  0  0  0  0  0  0  0  0  0
   -0.7642    1.4807    0.0935 O   0  0  0  0  0  0  0  0  0  0  0  0
   -2.7526   -1.0310   -0.4957 H   0  0  0  0  0  0  0  0  0  0  0  0
   -3.4917    0.5510    0.0936 H   0  0  0  0  0  0  0  0  0  0  0  0
   -2.4273    0.4892   -1.3569 H   0  0  0  0  0  0  0  0  0  0  0  0
   -1.7141    0.4583    1.5648 H   0  0  0  0  0  0  0  0  0  0  0  0
    0.0974   -1.0453    1.3545 H   0  0  0  0  0  0  0  0  0  0  0  0
   -1.2428   -1.7711    0.4505 H   0  0  0  0  0  0  0  0  0  0  0  0
    1.9327   -1.9356   -1.1290 H   0  0  0  0  0  0  0  0  0  0  0  0
    1.6286   -1.5076    0.6079 H   0  0  0  0  0  0  0  0  0  0  0  0
    2.8414    0.1172   -1.5187 H   0  0  0  0  0  0  0  0  0  0  0  0
    2.8483    0.3616    0.2543 H   0  0  0  0  0  0  0  0  0  0  0  0
    0.9111    0.9737    1.2215 H   0  0  0  0  0  0  0  0  0  0  0  0
    0.8500    2.6202    0.5150 H   0  0  0  0  0  0  0  0  0  0  0  0
  1  2  1  0
  2  3  1  0
  3  4  1  0
  4  5  1  0
  5  6  1  0
  6  7  1  0
  7  8  1  0
  8  9  1  0
  9  2  1  0
  1 10  1  0
  1 11  1  0
  1 12  1  0
  2 13  1  0
  3 14  1  0
  3 15  1  0
  5 16  1  0
  5 17  1  0
  6 18  1  0
  6 19  1  0
  8 20  1  0
  8 21  1  0
M  END
