
     RDKit          3D

 21 23  0  0  0  0  0  0  0  0999 V2000
   -1.9851   -0.9162    0.5910 C   0  0  0  0  0  0  0  0  0  0  0  0
   -0.5663   -0.7497    0.2321 C   0  0  0  0  0  0  0  0  0  0  0  0
   -0.2484    0.1369   -0.9478 C   0  0  0  0  0  0  0  0  0  0  0  0
   -0.3126    1.3037    0.0061 C   0  0  0  0  0  0  0  0  0  0  0  0
   -1.4861    1.7804    0.4198 O   0  0  0  0  0  0  0  0  0  0  0  0
    0.2551    0.2571    0.9831 C   0  0  0  0  0  0  0  0  0  0  0  0
    1.6282    0.1498    0.4071 C   0  0  0  0  0  0  0  0  0  0  0  0
    2.0992   -0.9317   -0.4436 C   0  0  0  0  0  0  0  0  0  0  0  0
    1.2268    0.0044   -1.1125 C   0  0  0  0  0  0  0  0  0  0  0  0
   -2.0826   -1.0094    1.7041 H   0  0  0  0  0  0  0  0  0  0  0  0
   -2.6939   -0.1933    0.1580 H   0  0  0  0  0  0  0  0  0  0  0  0
   -2.3262   -1.9152    0.1985 H   0  0  0  0  0  0  0  0  0  0  0  0
   -0.0548   -1.7343    0.2518 H   0  0  0  0  0  0  0  0  0  0  0  0
   -0.8949    0.1231   -1.7945 H   0  0  0  0  0  0  0  0  0  0  0  0
    0.4136    2.0827   -0.2787 H   0  0  0  0  0  0  0  0  0  0  0  0
   -2.0807    2.1974   -0.2324 H   0  0  0  0  0  0  0  0  0  0  0  0
    0.0985    0.4220    2.0164 H   0  0  0  0  0  0  0  0  0  0  0  0
    2.2777    1.0271    0.6278 H   0  0  0  0  0  0  0  0  0  0  0  0
    3.1929   -0.8379   -0.7331 H   0  0  0  0  0  0  0  0  0  0  0  0
    1.8769   -2.0070   -0.2815 H   0  0  0  0  0  0  0  0  0  0  0  0
    1.6627    0.8101   -1.7716 H   0  0  0  0  0  0  0  0  0  0  0  0
  1  2  1  0
  2  3  1  0
  3  4  1  0
  4  5  1  0
  4  6  1  0
  6  7  1  0
  7  8  1  0
  8  9  1  0
  6  2  1  0
  9  7  1  0
  9  3  1  0
  1 10  1  0
  1 11  1  0
  1 12  1  0
  2 13  1  0
  3 14  1  0
  4 15  1  0
  5 16  1  0
  6 17  1  0
  7 18  1  0
  8 19  1  0
  8 20  1  0
  9 21  1  0
M  END
