
     RDKit          3D

 19 20  0  0  0  0  0  0  0  0999 V2000
   -0.9778   -1.2452    0.9403 C   0  0  0  0  0  0  0  0  0  0  0  0
   -0.4928    0.1211    0.5964 C   0  0  0  0  0  0  0  0  0  0  0  0
   -1.2992    0.6799   -0.5867 C   0  0  0  0  0  0  0  0  0  0  0  0
   -1.6261    2.0157   -0.4141 O   0  0  0  0  0  0  0  0  0  0  0  0
    0.0002    0.5428   -1.3973 C   0  0  0  0  0  0  0  0  0  0  0  0
    1.0007    1.3849   -0.9276 O   0  0  0  0  0  0  0  0  0  0  0  0
    0.6697    0.0629   -0.3514 C   0  0  0  0  0  0  0  0  0  0  0  0
    1.8952   -0.6933   -0.0690 C   0  0  0  0  0  0  0  0  0  0  0  0
    2.6523    0.0666    0.8559 O   0  0  0  0  0  0  0  0  0  0  0  0
   -0.2127   -1.8973    1.3954 H   0  0  0  0  0  0  0  0  0  0  0  0
   -1.8113   -1.1299    1.6905 H   0  0  0  0  0  0  0  0  0  0  0  0
   -1.4544   -1.7216    0.0549 H   0  0  0  0  0  0  0  0  0  0  0  0
   -0.3803    0.8373    1.4287 H   0  0  0  0  0  0  0  0  0  0  0  0
   -2.1106    0.0202   -0.9293 H   0  0  0  0  0  0  0  0  0  0  0  0
   -2.4193    2.0385    0.1799 H   0  0  0  0  0  0  0  0  0  0  0  0
   -0.1402    0.3560   -2.4574 H   0  0  0  0  0  0  0  0  0  0  0  0
    2.5160   -0.7543   -0.9770 H   0  0  0  0  0  0  0  0  0  0  0  0
    1.7187   -1.7086    0.2963 H   0  0  0  0  0  0  0  0  0  0  0  0
    2.4719    1.0244    0.6714 H   0  0  0  0  0  0  0  0  0  0  0  0
  1  2  1  0
  2  3  1  0
  3  4  1  0
  3  5  1  0
  5  6  1  0
  6  7  1  0
  7  8  1  0
  8  9  1  0
  7  2  1  0
  7  5  1  0
  1 10  1  0
  1 11  1  0
  1 12  1  0
  2 13  1  0
  3 14  1  0
  4 15  1  0
  5 16  1  0
  8 17  1  0
  8 18  1  0
  9 19  1  0
M  END
