
     RDKit          3D

 19 20  0  0  0  0  0  0  0  0999 V2000
   -2.5086   -0.1186   -0.0595 C   0  0  0  0  0  0  0  0  0  0  0  0
   -1.0300   -0.3354   -0.3840 C   0  0  0  0  0  0  0  0  0  0  0  0
   -0.3508    0.9912   -0.5342 C   0  0  0  0  0  0  0  0  0  0  0  0
    0.9397    0.8102    0.1726 C   0  0  0  0  0  0  0  0  0  0  0  0
    2.0396    0.1692   -0.5523 C   0  0  0  0  0  0  0  0  0  0  0  0
    2.7558    0.3742   -1.5103 O   0  0  0  0  0  0  0  0  0  0  0  0
    1.9763   -0.9644    0.4034 C   0  0  0  0  0  0  0  0  0  0  0  0
    0.7133   -0.4102    1.0169 C   0  0  0  0  0  0  0  0  0  0  0  0
   -0.4093   -1.0463    0.5947 O   0  0  0  0  0  0  0  0  0  0  0  0
   -2.6514    0.2680    0.9485 H   0  0  0  0  0  0  0  0  0  0  0  0
   -2.8898    0.6207   -0.8050 H   0  0  0  0  0  0  0  0  0  0  0  0
   -3.0358   -1.0673   -0.1739 H   0  0  0  0  0  0  0  0  0  0  0  0
   -1.0333   -0.8717   -1.3746 H   0  0  0  0  0  0  0  0  0  0  0  0
   -0.2708    1.3192   -1.5865 H   0  0  0  0  0  0  0  0  0  0  0  0
   -0.9576    1.7380    0.0534 H   0  0  0  0  0  0  0  0  0  0  0  0
    1.2958    1.7151    0.7141 H   0  0  0  0  0  0  0  0  0  0  0  0
    1.8230   -1.9196   -0.1607 H   0  0  0  0  0  0  0  0  0  0  0  0
    2.8158   -1.0402    1.1170 H   0  0  0  0  0  0  0  0  0  0  0  0
    0.7782   -0.2320    2.1205 H   0  0  0  0  0  0  0  0  0  0  0  0
  1  2  1  0
  2  3  1  0
  3  4  1  0
  4  5  1  0
  5  6  2  0
  5  7  1  0
  7  8  1  0
  8  9  1  0
  9  2  1  0
  8  4  1  0
  1 10  1  0
  1 11  1  0
  1 12  1  0
  2 13  1  0
  3 14  1  0
  3 15  1  0
  4 16  1  0
  7 17  1  0
  7 18  1  0
  8 19  1  0
M  END
