
     RDKit          3D

 20 21  0  0  0  0  0  0  0  0999 V2000
    2.0967    0.3127    0.2896 C   0  0  0  0  0  0  0  0  0  0  0  0
    1.0595    0.0251   -0.7957 C   0  0  0  0  0  0  0  0  0  0  0  0
   -0.2798    0.5681   -0.3551 C   0  0  0  0  0  0  0  0  0  0  0  0
   -0.2593    1.7725    0.5138 C   0  0  0  0  0  0  0  0  0  0  0  0
   -0.6745   -0.7294    0.2408 C   0  0  0  0  0  0  0  0  0  0  0  0
   -2.0498   -1.2817    0.0749 C   0  0  0  0  0  0  0  0  0  0  0  0
    0.2473   -1.6095    0.7782 O   0  0  0  0  0  0  0  0  0  0  0  0
    0.4826   -1.3519   -0.5477 C   0  0  0  0  0  0  0  0  0  0  0  0
    3.0497   -0.2262    0.0841 H   0  0  0  0  0  0  0  0  0  0  0  0
    1.6471   -0.0960    1.2423 H   0  0  0  0  0  0  0  0  0  0  0  0
    2.2529    1.3857    0.4460 H   0  0  0  0  0  0  0  0  0  0  0  0
    1.3565    0.2611   -1.8098 H   0  0  0  0  0  0  0  0  0  0  0  0
   -0.8980    0.7739   -1.2763 H   0  0  0  0  0  0  0  0  0  0  0  0
   -0.2466    1.4747    1.5639 H   0  0  0  0  0  0  0  0  0  0  0  0
    0.5560    2.5009    0.2486 H   0  0  0  0  0  0  0  0  0  0  0  0
   -1.2078    2.3660    0.3541 H   0  0  0  0  0  0  0  0  0  0  0  0
   -2.2983   -1.6501   -0.9144 H   0  0  0  0  0  0  0  0  0  0  0  0
   -2.2244   -2.0525    0.8791 H   0  0  0  0  0  0  0  0  0  0  0  0
   -2.7693   -0.4552    0.3388 H   0  0  0  0  0  0  0  0  0  0  0  0
    0.1598   -1.9883   -1.3553 H   0  0  0  0  0  0  0  0  0  0  0  0
  1  2  1  0
  2  3  1  0
  3  4  1  0
  3  5  1  0
  5  6  1  0
  5  7  1  0
  7  8  1  0
  8  2  1  0
  8  5  1  0
  1  9  1  0
  1 10  1  0
  1 11  1  0
  2 12  1  0
  3 13  1  0
  4 14  1  0
  4 15  1  0
  4 16  1  0
  6 17  1  0
  6 18  1  0
  6 19  1  0
  8 20  1  0
M  END
