
     RDKit          3D

 21 22  0  0  0  0  0  0  0  0999 V2000
   -0.6109    2.0907   -0.1054 C   0  0  0  0  0  0  0  0  0  0  0  0
   -0.0140    0.8169   -0.5565 C   0  0  0  0  0  0  0  0  0  0  0  0
    1.1073    0.3843    0.3735 C   0  0  0  0  0  0  0  0  0  0  0  0
    2.0359   -0.4822   -0.4109 C   0  0  0  0  0  0  0  0  0  0  0  0
    1.2988   -1.7192   -0.7984 C   0  0  0  0  0  0  0  0  0  0  0  0
   -0.0238   -1.6169   -0.7827 C   0  0  0  0  0  0  0  0  0  0  0  0
   -0.5910   -0.4587   -0.0440 C   0  0  0  0  0  0  0  0  0  0  0  0
   -2.0531   -0.5685    0.1036 C   0  0  0  0  0  0  0  0  0  0  0  0
    0.1612   -0.3077    1.1111 O   0  0  0  0  0  0  0  0  0  0  0  0
   -1.6372    2.0604    0.2438 H   0  0  0  0  0  0  0  0  0  0  0  0
   -0.5866    2.8368   -0.9534 H   0  0  0  0  0  0  0  0  0  0  0  0
   -0.0107    2.5893    0.7081 H   0  0  0  0  0  0  0  0  0  0  0  0
    0.2635    0.7525   -1.6307 H   0  0  0  0  0  0  0  0  0  0  0  0
    1.5848    1.2142    0.9309 H   0  0  0  0  0  0  0  0  0  0  0  0
    2.2411    0.0567   -1.3821 H   0  0  0  0  0  0  0  0  0  0  0  0
    2.9789   -0.7001    0.1268 H   0  0  0  0  0  0  0  0  0  0  0  0
    1.8295   -2.6224   -1.0687 H   0  0  0  0  0  0  0  0  0  0  0  0
   -0.6183   -2.3603   -1.2940 H   0  0  0  0  0  0  0  0  0  0  0  0
   -2.5068   -0.7796   -0.8735 H   0  0  0  0  0  0  0  0  0  0  0  0
   -2.5735    0.2745    0.5489 H   0  0  0  0  0  0  0  0  0  0  0  0
   -2.2752   -1.4607    0.7500 H   0  0  0  0  0  0  0  0  0  0  0  0
  1  2  1  0
  2  3  1  0
  3  4  1  0
  4  5  1  0
  5  6  2  0
  6  7  1  0
  7  8  1  0
  7  9  1  0
  7  2  1  0
  9  3  1  0
  1 10  1  0
  1 11  1  0
  1 12  1  0
  2 13  1  0
  3 14  1  0
  4 15  1  0
  4 16  1  0
  5 17  1  0
  6 18  1  0
  8 19  1  0
  8 20  1  0
  8 21  1  0
M  END
