
     RDKit          3D

 17 18  0  0  0  0  0  0  0  0999 V2000
    2.0987   -0.2094    0.2145 C   0  0  0  0  0  0  0  0  0  0  0  0
    0.7245   -0.0633   -0.3167 C   0  0  0  0  0  0  0  0  0  0  0  0
    0.2358    1.3542   -0.3318 C   0  0  0  0  0  0  0  0  0  0  0  0
   -1.0877    1.3003   -0.4015 C   0  0  0  0  0  0  0  0  0  0  0  0
   -1.4593   -0.1031   -0.4368 C   0  0  0  0  0  0  0  0  0  0  0  0
   -1.6130   -1.1590    0.4635 C   0  0  0  0  0  0  0  0  0  0  0  0
   -0.3599   -0.5626    0.5952 C   0  0  0  0  0  0  0  0  0  0  0  0
    2.6473   -0.9584   -0.4227 H   0  0  0  0  0  0  0  0  0  0  0  0
    2.6563    0.7548    0.0758 H   0  0  0  0  0  0  0  0  0  0  0  0
    2.1479   -0.5816    1.2410 H   0  0  0  0  0  0  0  0  0  0  0  0
    0.6124   -0.4538   -1.3515 H   0  0  0  0  0  0  0  0  0  0  0  0
    0.8354    2.2180   -0.2941 H   0  0  0  0  0  0  0  0  0  0  0  0
   -1.8096    2.1152   -0.4299 H   0  0  0  0  0  0  0  0  0  0  0  0
   -1.2892   -0.4559   -1.5125 H   0  0  0  0  0  0  0  0  0  0  0  0
   -1.6645   -2.2231    0.1068 H   0  0  0  0  0  0  0  0  0  0  0  0
   -2.4028   -1.0424    1.2629 H   0  0  0  0  0  0  0  0  0  0  0  0
   -0.2723    0.0700    1.5378 H   0  0  0  0  0  0  0  0  0  0  0  0
  1  2  1  0
  2  3  1  0
  3  4  2  0
  4  5  1  0
  5  6  1  0
  6  7  1  0
  7  2  1  0
  7  5  1  0
  1  8  1  0
  1  9  1  0
  1 10  1  0
  2 11  1  0
  3 12  1  0
  4 13  1  0
  5 14  1  0
  6 15  1  0
  6 16  1  0
  7 17  1  0
M  END
