
     RDKit          3D

 23 23  0  0  0  0  0  0  0  0999 V2000
    2.6790   -0.1975   -0.2297 C   0  0  0  0  0  0  0  0  0  0  0  0
    1.4460   -0.6634    0.5579 C   0  0  0  0  0  0  0  0  0  0  0  0
    0.6942   -1.7157   -0.1480 C   0  0  0  0  0  0  0  0  0  0  0  0
   -0.4689   -1.3505   -0.7509 O   0  0  0  0  0  0  0  0  0  0  0  0
   -1.1827   -0.3642   -0.0453 C   0  0  0  0  0  0  0  0  0  0  0  0
   -2.4978   -0.1206   -0.6768 C   0  0  0  0  0  0  0  0  0  0  0  0
   -0.2793    0.8053    0.0696 C   0  0  0  0  0  0  0  0  0  0  0  0
   -0.9253    2.0451    0.6221 C   0  0  0  0  0  0  0  0  0  0  0  0
    0.7520    0.4459    0.9374 O   0  0  0  0  0  0  0  0  0  0  0  0
    3.4996    0.0857    0.4903 H   0  0  0  0  0  0  0  0  0  0  0  0
    3.0821   -1.0092   -0.8602 H   0  0  0  0  0  0  0  0  0  0  0  0
    2.4340    0.7224   -0.7744 H   0  0  0  0  0  0  0  0  0  0  0  0
    1.8807   -1.1202    1.4971 H   0  0  0  0  0  0  0  0  0  0  0  0
    1.3668   -2.1467   -0.9480 H   0  0  0  0  0  0  0  0  0  0  0  0
    0.4728   -2.5960    0.5243 H   0  0  0  0  0  0  0  0  0  0  0  0
   -1.3682   -0.8178    0.9717 H   0  0  0  0  0  0  0  0  0  0  0  0
   -2.6215   -0.7475   -1.6074 H   0  0  0  0  0  0  0  0  0  0  0  0
   -2.7067    0.9079   -0.9807 H   0  0  0  0  0  0  0  0  0  0  0  0
   -3.3582   -0.4462   -0.0211 H   0  0  0  0  0  0  0  0  0  0  0  0
    0.1923    1.0466   -0.9004 H   0  0  0  0  0  0  0  0  0  0  0  0
   -0.1401    2.8548    0.5683 H   0  0  0  0  0  0  0  0  0  0  0  0
   -1.1862    1.9644    1.6874 H   0  0  0  0  0  0  0  0  0  0  0  0
   -1.7645    2.4175    0.0169 H   0  0  0  0  0  0  0  0  0  0  0  0
  1  2  1  0
  2  3  1  0
  3  4  1  0
  4  5  1  0
  5  6  1  0
  5  7  1  0
  7  8  1  0
  7  9  1  0
  9  2  1  0
  1 10  1  0
  1 11  1  0
  1 12  1  0
  2 13  1  0
  3 14  1  0
  3 15  1  0
  5 16  1  0
  6 17  1  0
  6 18  1  0
  6 19  1  0
  7 20  1  0
  8 21  1  0
  8 22  1  0
  8 23  1  0
M  END
