
     RDKit          2D

 19 21  0  0  0  0  0  0  0  0999 V2000
   -2.9426    2.9753    0.0000 C   0  0  0  0  0  0  0  0  0  0  0  0
   -0.7937    1.3747    0.0000 C   0  0  0  0  0  0  0  0  0  0  0  0
   -0.0448    2.1989    0.0000 C   0  0  0  0  0  0  0  0  0  0  0  0
   -1.4937    2.5871    0.0000 C   0  0  0  0  0  0  0  0  0  0  0  0
   -1.9684    3.7055    0.0000 O   0  0  0  0  0  0  0  0  0  0  0  0
   -1.8819    1.1382    0.0000 C   0  0  0  0  0  0  0  0  0  0  0  0
   -0.4330    0.7500    0.0000 C   0  0  0  0  0  0  0  0  0  0  0  0
    0.8660    0.0000    0.0000 C   0  0  0  0  0  0  0  0  0  0  0  0
   -0.4330   -0.7500    0.0000 C   0  0  0  0  0  0  0  0  0  0  0  0
   -4.3915    3.3636    0.0000 H   0  0  0  0  0  0  0  0  0  0  0  0
   -2.7735    4.1785    0.0000 H   0  0  0  0  0  0  0  0  0  0  0  0
   -3.3308    1.5265    0.0000 H   0  0  0  0  0  0  0  0  0  0  0  0
   -1.1054    4.0360    0.0000 H   0  0  0  0  0  0  0  0  0  0  0  0
    1.2543    2.9489    0.0000 H   0  0  0  0  0  0  0  0  0  0  0  0
   -3.1809    0.3882    0.0000 H   0  0  0  0  0  0  0  0  0  0  0  0
    1.8302    1.1491    0.0000 H   0  0  0  0  0  0  0  0  0  0  0  0
    1.8302   -1.1491    0.0000 H   0  0  0  0  0  0  0  0  0  0  0  0
    0.0800   -2.1595    0.0000 H   0  0  0  0  0  0  0  0  0  0  0  0
   -1.9102   -1.0105    0.0000 H   0  0  0  0  0  0  0  0  0  0  0  0
  1  2  1  0
  2  3  1  0
  3  4  1  0
  4  5  2  0
  4  6  1  0
  6  7  1  0
  7  8  1  0
  8  9  1  0
  6  2  1  0
  9  7  1  0
  7  3  1  0
  1 10  1  0
  1 11  1  0
  1 12  1  0
  2 13  1  0
  3 14  1  0
  6 15  1  0
  8 16  1  0
  8 17  1  0
  9 18  1  0
  9 19  1  0
M  END
