
     RDKit          3D

 23 24  0  0  0  0  0  0  0  0999 V2000
   -2.1195   -0.3897   -0.6424 C   0  0  0  0  0  0  0  0  0  0  0  0
   -1.2355    0.2330    0.4236 C   0  0  0  0  0  0  0  0  0  0  0  0
   -0.7007   -0.9143    1.2742 C   0  0  0  0  0  0  0  0  0  0  0  0
    0.3104   -1.5267    0.2958 C   0  0  0  0  0  0  0  0  0  0  0  0
    0.9395   -0.2677   -0.3043 C   0  0  0  0  0  0  0  0  0  0  0  0
    2.4204   -0.3367   -0.4463 C   0  0  0  0  0  0  0  0  0  0  0  0
    0.2991    0.2632   -1.4600 O   0  0  0  0  0  0  0  0  0  0  0  0
    0.0676    0.7577   -0.1772 C   0  0  0  0  0  0  0  0  0  0  0  0
    0.2859    2.2293    0.0530 C   0  0  0  0  0  0  0  0  0  0  0  0
   -1.5569   -0.3841   -1.6090 H   0  0  0  0  0  0  0  0  0  0  0  0
   -2.4544   -1.4025   -0.3875 H   0  0  0  0  0  0  0  0  0  0  0  0
   -3.0013    0.2778   -0.7450 H   0  0  0  0  0  0  0  0  0  0  0  0
   -1.7530    0.9925    1.0098 H   0  0  0  0  0  0  0  0  0  0  0  0
   -0.1673   -0.4593    2.1451 H   0  0  0  0  0  0  0  0  0  0  0  0
   -1.4749   -1.6243    1.5676 H   0  0  0  0  0  0  0  0  0  0  0  0
   -0.2699   -2.0626   -0.4532 H   0  0  0  0  0  0  0  0  0  0  0  0
    1.0617   -2.1223    0.8253 H   0  0  0  0  0  0  0  0  0  0  0  0
    2.8018    0.1966   -1.3664 H   0  0  0  0  0  0  0  0  0  0  0  0
    2.9853    0.0746    0.3981 H   0  0  0  0  0  0  0  0  0  0  0  0
    2.7001   -1.4140   -0.6356 H   0  0  0  0  0  0  0  0  0  0  0  0
    0.6144    2.4892    1.0563 H   0  0  0  0  0  0  0  0  0  0  0  0
    0.9630    2.6668   -0.7180 H   0  0  0  0  0  0  0  0  0  0  0  0
   -0.7157    2.7235   -0.1039 H   0  0  0  0  0  0  0  0  0  0  0  0
  1  2  1  0
  2  3  1  0
  3  4  1  0
  4  5  1  0
  5  6  1  0
  5  7  1  0
  7  8  1  0
  8  9  1  0
  8  2  1  0
  8  5  1  0
  1 10  1  0
  1 11  1  0
  1 12  1  0
  2 13  1  0
  3 14  1  0
  3 15  1  0
  4 16  1  0
  4 17  1  0
  6 18  1  0
  6 19  1  0
  6 20  1  0
  9 21  1  0
  9 22  1  0
  9 23  1  0
M  END
