
     RDKit          3D

 19 20  0  0  0  0  0  0  0  0999 V2000
    2.3415   -0.0602    0.2869 C   0  0  0  0  0  0  0  0  0  0  0  0
    0.8475    0.0905    0.4565 C   0  0  0  0  0  0  0  0  0  0  0  0
    0.1221   -0.9701   -0.3113 C   0  0  0  0  0  0  0  0  0  0  0  0
    0.4898   -0.2299   -1.4622 O   0  0  0  0  0  0  0  0  0  0  0  0
    0.2693    0.9030   -0.6452 C   0  0  0  0  0  0  0  0  0  0  0  0
   -1.2464    0.8718   -0.4232 C   0  0  0  0  0  0  0  0  0  0  0  0
   -1.5997    1.5353    0.7304 O   0  0  0  0  0  0  0  0  0  0  0  0
   -1.3468   -0.6565   -0.2410 C   0  0  0  0  0  0  0  0  0  0  0  0
   -1.9472   -1.0002    0.9310 O   0  0  0  0  0  0  0  0  0  0  0  0
    2.8548   -0.2118    1.2582 H   0  0  0  0  0  0  0  0  0  0  0  0
    2.7806    0.8304   -0.2475 H   0  0  0  0  0  0  0  0  0  0  0  0
    2.6051   -0.9371   -0.3408 H   0  0  0  0  0  0  0  0  0  0  0  0
    0.5093    0.2948    1.4760 H   0  0  0  0  0  0  0  0  0  0  0  0
    0.4487   -1.9857   -0.2631 H   0  0  0  0  0  0  0  0  0  0  0  0
    0.7063    1.8220   -0.9464 H   0  0  0  0  0  0  0  0  0  0  0  0
   -1.7675    1.2043   -1.3270 H   0  0  0  0  0  0  0  0  0  0  0  0
   -1.4190    0.9804    1.5192 H   0  0  0  0  0  0  0  0  0  0  0  0
   -1.8174   -1.0510   -1.1552 H   0  0  0  0  0  0  0  0  0  0  0  0
   -2.8310   -1.4301    0.7048 H   0  0  0  0  0  0  0  0  0  0  0  0
  1  2  1  0
  2  3  1  0
  3  4  1  0
  4  5  1  0
  5  6  1  0
  6  7  1  0
  6  8  1  0
  8  9  1  0
  5  2  1  0
  8  3  1  0
  1 10  1  0
  1 11  1  0
  1 12  1  0
  2 13  1  0
  3 14  1  0
  5 15  1  0
  6 16  1  0
  7 17  1  0
  8 18  1  0
  9 19  1  0
M  END
