
     RDKit          3D

 21 23  0  0  0  0  0  0  0  0999 V2000
    1.3938    1.3405   -0.5345 C   0  0  0  0  0  0  0  0  0  0  0  0
    0.3154    0.3229   -0.8467 C   0  0  0  0  0  0  0  0  0  0  0  0
    0.9422   -1.0467   -0.6639 C   0  0  0  0  0  0  0  0  0  0  0  0
   -0.0012   -1.9199    0.0211 C   0  0  0  0  0  0  0  0  0  0  0  0
   -1.2843   -1.0753    0.1151 C   0  0  0  0  0  0  0  0  0  0  0  0
   -0.6246    0.2654    0.3367 C   0  0  0  0  0  0  0  0  0  0  0  0
   -1.4992    1.4023    0.5314 C   0  0  0  0  0  0  0  0  0  0  0  0
    0.2766   -0.0355    1.3439 O   0  0  0  0  0  0  0  0  0  0  0  0
    0.9241   -1.1691    0.8649 C   0  0  0  0  0  0  0  0  0  0  0  0
    2.4089    0.8930   -0.5600 H   0  0  0  0  0  0  0  0  0  0  0  0
    1.4073    2.1713   -1.2692 H   0  0  0  0  0  0  0  0  0  0  0  0
    1.2839    1.7518    0.5061 H   0  0  0  0  0  0  0  0  0  0  0  0
   -0.1706    0.4653   -1.8019 H   0  0  0  0  0  0  0  0  0  0  0  0
    1.8174   -1.3453   -1.2202 H   0  0  0  0  0  0  0  0  0  0  0  0
   -0.0695   -2.9896   -0.0751 H   0  0  0  0  0  0  0  0  0  0  0  0
   -1.8979   -1.3734    0.9814 H   0  0  0  0  0  0  0  0  0  0  0  0
   -1.7762   -1.1735   -0.8546 H   0  0  0  0  0  0  0  0  0  0  0  0
   -2.4138    1.0810    1.1040 H   0  0  0  0  0  0  0  0  0  0  0  0
   -1.0169    2.1760    1.1606 H   0  0  0  0  0  0  0  0  0  0  0  0
   -1.8563    1.7946   -0.4397 H   0  0  0  0  0  0  0  0  0  0  0  0
    1.8411   -1.5361    1.3005 H   0  0  0  0  0  0  0  0  0  0  0  0
  1  2  1  0
  2  3  1  0
  3  4  1  0
  4  5  1  0
  5  6  1  0
  6  7  1  0
  6  8  1  0
  8  9  1  0
  6  2  1  0
  9  3  1  0
  9  4  1  0
  1 10  1  0
  1 11  1  0
  1 12  1  0
  2 13  1  0
  3 14  1  0
  4 15  1  0
  5 16  1  0
  5 17  1  0
  7 18  1  0
  7 19  1  0
  7 20  1  0
  9 21  1  0
M  END
