
     RDKit          3D

 20 20  0  0  0  0  0  0  0  0999 V2000
   -2.4669   -0.1539   -0.1294 C   0  0  0  0  0  0  0  0  0  0  0  0
   -0.9857   -0.1415   -0.2684 C   0  0  0  0  0  0  0  0  0  0  0  0
   -0.3937    1.0664    0.3895 C   0  0  0  0  0  0  0  0  0  0  0  0
    0.8619    1.4979    0.3703 C   0  0  0  0  0  0  0  0  0  0  0  0
    1.9908    0.8370   -0.3432 C   0  0  0  0  0  0  0  0  0  0  0  0
    1.7969   -0.6574   -0.1918 C   0  0  0  0  0  0  0  0  0  0  0  0
    0.9618   -1.0022    0.8434 O   0  0  0  0  0  0  0  0  0  0  0  0
   -0.3214   -1.3415    0.4206 C   0  0  0  0  0  0  0  0  0  0  0  0
   -2.9515   -0.3016   -1.1300 H   0  0  0  0  0  0  0  0  0  0  0  0
   -2.8167   -0.9197    0.5926 H   0  0  0  0  0  0  0  0  0  0  0  0
   -2.8049    0.8355    0.2842 H   0  0  0  0  0  0  0  0  0  0  0  0
   -0.6550   -0.1173   -1.3449 H   0  0  0  0  0  0  0  0  0  0  0  0
   -1.1106    1.6530    0.9534 H   0  0  0  0  0  0  0  0  0  0  0  0
    1.0590    2.4074    0.9262 H   0  0  0  0  0  0  0  0  0  0  0  0
    2.9776    1.1726    0.0157 H   0  0  0  0  0  0  0  0  0  0  0  0
    1.8603    1.1161   -1.4287 H   0  0  0  0  0  0  0  0  0  0  0  0
    1.4798   -1.1168   -1.1697 H   0  0  0  0  0  0  0  0  0  0  0  0
    2.8105   -1.0804    0.0523 H   0  0  0  0  0  0  0  0  0  0  0  0
   -0.9252   -1.5089    1.3451 H   0  0  0  0  0  0  0  0  0  0  0  0
   -0.3671   -2.2449   -0.1872 H   0  0  0  0  0  0  0  0  0  0  0  0
  1  2  1  0
  2  3  1  0
  3  4  2  0
  4  5  1  0
  5  6  1  0
  6  7  1  0
  7  8  1  0
  8  2  1  0
  1  9  1  0
  1 10  1  0
  1 11  1  0
  2 12  1  0
  3 13  1  0
  4 14  1  0
  5 15  1  0
  5 16  1  0
  6 17  1  0
  6 18  1  0
  8 19  1  0
  8 20  1  0
M  END
