
     RDKit          3D

 21 21  0  0  0  0  0  0  0  0999 V2000
   -2.6948    0.8603   -0.0722 C   0  0  0  0  0  0  0  0  0  0  0  0
   -1.7252   -0.0446    0.6709 C   0  0  0  0  0  0  0  0  0  0  0  0
   -0.3711    0.5977    0.9227 C   0  0  0  0  0  0  0  0  0  0  0  0
    0.2703   -0.2252   -0.1796 C   0  0  0  0  0  0  0  0  0  0  0  0
    1.3319   -0.9497    0.3041 O   0  0  0  0  0  0  0  0  0  0  0  0
    2.4630   -0.8883   -0.4676 C   0  0  0  0  0  0  0  0  0  0  0  0
    3.0064    0.4648   -0.6421 C   0  0  0  0  0  0  0  0  0  0  0  0
    4.0129    0.5966   -1.3173 O   0  0  0  0  0  0  0  0  0  0  0  0
   -1.0418   -0.9899   -0.2817 C   0  0  0  0  0  0  0  0  0  0  0  0
   -2.6034    0.7522   -1.1755 H   0  0  0  0  0  0  0  0  0  0  0  0
   -2.4768    1.8936    0.2586 H   0  0  0  0  0  0  0  0  0  0  0  0
   -3.7367    0.5724    0.2016 H   0  0  0  0  0  0  0  0  0  0  0  0
   -2.1729   -0.5089    1.5683 H   0  0  0  0  0  0  0  0  0  0  0  0
   -0.4113    1.6768    0.7122 H   0  0  0  0  0  0  0  0  0  0  0  0
    0.0056    0.3796    1.9331 H   0  0  0  0  0  0  0  0  0  0  0  0
    0.4351    0.3257   -1.1290 H   0  0  0  0  0  0  0  0  0  0  0  0
    3.2413   -1.5164    0.0255 H   0  0  0  0  0  0  0  0  0  0  0  0
    2.3275   -1.3257   -1.4915 H   0  0  0  0  0  0  0  0  0  0  0  0
    2.5782    1.3615   -0.2136 H   0  0  0  0  0  0  0  0  0  0  0  0
   -1.4867   -1.0217   -1.2903 H   0  0  0  0  0  0  0  0  0  0  0  0
   -0.9515   -2.0108    0.1687 H   0  0  0  0  0  0  0  0  0  0  0  0
  1  2  1  0
  2  3  1  0
  3  4  1  0
  4  5  1  0
  5  6  1  0
  6  7  1  0
  7  8  2  0
  4  9  1  0
  9  2  1  0
  1 10  1  0
  1 11  1  0
  1 12  1  0
  2 13  1  0
  3 14  1  0
  3 15  1  0
  4 16  1  0
  6 17  1  0
  6 18  1  0
  7 19  1  0
  9 20  1  0
  9 21  1  0
M  END
