
     RDKit          3D

 21 23  0  0  0  0  0  0  0  0999 V2000
    2.4243    0.4777   -0.5231 C   0  0  0  0  0  0  0  0  0  0  0  0
    1.3730    0.3064    0.5257 C   0  0  0  0  0  0  0  0  0  0  0  0
    0.9074   -1.1689    0.6757 C   0  0  0  0  0  0  0  0  0  0  0  0
    0.0310   -0.0881    0.3174 C   0  0  0  0  0  0  0  0  0  0  0  0
   -0.8364    0.0311   -0.8588 C   0  0  0  0  0  0  0  0  0  0  0  0
   -1.9138   -0.9862   -0.5088 C   0  0  0  0  0  0  0  0  0  0  0  0
   -2.0777   -0.6575    0.8631 O   0  0  0  0  0  0  0  0  0  0  0  0
   -1.1775    0.3621    1.0755 C   0  0  0  0  0  0  0  0  0  0  0  0
   -1.4520    1.2529   -0.1501 C   0  0  0  0  0  0  0  0  0  0  0  0
    3.0783    1.3655   -0.3180 H   0  0  0  0  0  0  0  0  0  0  0  0
    3.1242   -0.4040   -0.4311 H   0  0  0  0  0  0  0  0  0  0  0  0
    2.0510    0.4875   -1.5528 H   0  0  0  0  0  0  0  0  0  0  0  0
    1.6405    0.8238    1.4956 H   0  0  0  0  0  0  0  0  0  0  0  0
    0.9015   -1.5362    1.7437 H   0  0  0  0  0  0  0  0  0  0  0  0
    1.2286   -1.8863   -0.0690 H   0  0  0  0  0  0  0  0  0  0  0  0
   -0.5092    0.1382   -1.8471 H   0  0  0  0  0  0  0  0  0  0  0  0
   -2.8327   -0.8534   -1.0769 H   0  0  0  0  0  0  0  0  0  0  0  0
   -1.4742   -1.9900   -0.5366 H   0  0  0  0  0  0  0  0  0  0  0  0
   -1.0932    0.8347    2.0141 H   0  0  0  0  0  0  0  0  0  0  0  0
   -2.5403    1.3337   -0.2744 H   0  0  0  0  0  0  0  0  0  0  0  0
   -0.8529    2.1568   -0.2007 H   0  0  0  0  0  0  0  0  0  0  0  0
  1  2  1  0
  2  3  1  0
  3  4  1  0
  4  5  1  0
  5  6  1  0
  6  7  1  0
  7  8  1  0
  8  9  1  0
  4  2  1  0
  9  5  1  0
  8  4  1  0
  1 10  1  0
  1 11  1  0
  1 12  1  0
  2 13  1  0
  3 14  1  0
  3 15  1  0
  5 16  1  0
  6 17  1  0
  6 18  1  0
  8 19  1  0
  9 20  1  0
  9 21  1  0
M  END
