
     RDKit          3D

 23 24  0  0  0  0  0  0  0  0999 V2000
    1.8680   -1.2496   -0.1564 C   0  0  0  0  0  0  0  0  0  0  0  0
    1.1844    0.0440   -0.1032 C   0  0  0  0  0  0  0  0  0  0  0  0
   -0.0259    0.2550   -0.9744 C   0  0  0  0  0  0  0  0  0  0  0  0
   -0.2225    1.7569   -0.7588 C   0  0  0  0  0  0  0  0  0  0  0  0
   -0.0751    1.7866    0.7782 C   0  0  0  0  0  0  0  0  0  0  0  0
    0.2017    0.3025    1.0055 C   0  0  0  0  0  0  0  0  0  0  0  0
   -0.8669   -0.2901    0.1332 C   0  0  0  0  0  0  0  0  0  0  0  0
   -1.1283   -1.7254    0.2139 C   0  0  0  0  0  0  0  0  0  0  0  0
   -2.0629    0.4533    0.2216 O   0  0  0  0  0  0  0  0  0  0  0  0
    2.9528   -1.1179   -0.4506 H   0  0  0  0  0  0  0  0  0  0  0  0
    1.4695   -1.9844   -0.8765 H   0  0  0  0  0  0  0  0  0  0  0  0
    1.9407   -1.6675    0.8864 H   0  0  0  0  0  0  0  0  0  0  0  0
    1.8901    0.9091   -0.2175 H   0  0  0  0  0  0  0  0  0  0  0  0
   -0.0655   -0.1311   -1.9491 H   0  0  0  0  0  0  0  0  0  0  0  0
    0.6027    2.3179   -1.2239 H   0  0  0  0  0  0  0  0  0  0  0  0
   -1.2256    2.0713   -1.0658 H   0  0  0  0  0  0  0  0  0  0  0  0
   -1.0458    2.0427    1.2032 H   0  0  0  0  0  0  0  0  0  0  0  0
    0.7629    2.4230    1.0857 H   0  0  0  0  0  0  0  0  0  0  0  0
    0.3729   -0.0480    1.9792 H   0  0  0  0  0  0  0  0  0  0  0  0
   -0.3451   -2.3591    0.6488 H   0  0  0  0  0  0  0  0  0  0  0  0
   -2.0321   -1.8768    0.8764 H   0  0  0  0  0  0  0  0  0  0  0  0
   -1.4608   -2.1022   -0.7856 H   0  0  0  0  0  0  0  0  0  0  0  0
   -2.6891    0.1897   -0.4703 H   0  0  0  0  0  0  0  0  0  0  0  0
  1  2  1  0
  2  3  1  0
  3  4  1  0
  4  5  1  0
  5  6  1  0
  6  7  1  0
  7  8  1  0
  7  9  1  0
  6  2  1  0
  7  3  1  0
  1 10  1  0
  1 11  1  0
  1 12  1  0
  2 13  1  0
  3 14  1  0
  4 15  1  0
  4 16  1  0
  5 17  1  0
  5 18  1  0
  6 19  1  0
  8 20  1  0
  8 21  1  0
  8 22  1  0
  9 23  1  0
M  END
