
     RDKit          3D

 21 22  0  0  0  0  0  0  0  0999 V2000
    2.0373   -0.3183   -0.5120 C   0  0  0  0  0  0  0  0  0  0  0  0
    0.5568   -0.2938   -0.7104 C   0  0  0  0  0  0  0  0  0  0  0  0
   -0.1316   -1.2622    0.2614 C   0  0  0  0  0  0  0  0  0  0  0  0
   -1.5673   -1.1270   -0.0990 C   0  0  0  0  0  0  0  0  0  0  0  0
   -1.6348    0.4003   -0.3010 C   0  0  0  0  0  0  0  0  0  0  0  0
   -0.2092    0.7434    0.0430 C   0  0  0  0  0  0  0  0  0  0  0  0
    0.2148    2.0942    0.0849 C   0  0  0  0  0  0  0  0  0  0  0  0
    1.1741    2.4454    0.7550 O   0  0  0  0  0  0  0  0  0  0  0  0
    0.0230   -0.1309    1.2850 C   0  0  0  0  0  0  0  0  0  0  0  0
    2.3297   -0.9701    0.3601 H   0  0  0  0  0  0  0  0  0  0  0  0
    2.4879   -0.8338   -1.3999 H   0  0  0  0  0  0  0  0  0  0  0  0
    2.4938    0.6900   -0.4374 H   0  0  0  0  0  0  0  0  0  0  0  0
    0.1849   -0.4086   -1.7378 H   0  0  0  0  0  0  0  0  0  0  0  0
    0.3264   -2.1871    0.4587 H   0  0  0  0  0  0  0  0  0  0  0  0
   -2.2250   -1.3430    0.7590 H   0  0  0  0  0  0  0  0  0  0  0  0
   -1.8795   -1.6624   -0.9956 H   0  0  0  0  0  0  0  0  0  0  0  0
   -1.7546    0.5631   -1.3802 H   0  0  0  0  0  0  0  0  0  0  0  0
   -2.3816    0.8655    0.3338 H   0  0  0  0  0  0  0  0  0  0  0  0
   -0.2852    2.8828   -0.4711 H   0  0  0  0  0  0  0  0  0  0  0  0
   -0.8017   -0.0968    2.0027 H   0  0  0  0  0  0  0  0  0  0  0  0
    1.0418   -0.0510    1.7009 H   0  0  0  0  0  0  0  0  0  0  0  0
  1  2  1  0
  2  3  1  0
  3  4  1  0
  4  5  1  0
  5  6  1  0
  6  7  1  0
  7  8  2  0
  6  9  1  0
  6  2  1  0
  9  3  1  0
  1 10  1  0
  1 11  1  0
  1 12  1  0
  2 13  1  0
  3 14  1  0
  4 15  1  0
  4 16  1  0
  5 17  1  0
  5 18  1  0
  7 19  1  0
  9 20  1  0
  9 21  1  0
M  END
