
     RDKit          3D

 20 21  0  0  0  0  0  0  0  0999 V2000
    2.5004    0.7807   -0.0471 C   0  0  0  0  0  0  0  0  0  0  0  0
    1.0977    0.3531    0.2608 C   0  0  0  0  0  0  0  0  0  0  0  0
    0.8864   -1.1302   -0.0727 C   0  0  0  0  0  0  0  0  0  0  0  0
   -0.6280   -1.1679    0.1242 C   0  0  0  0  0  0  0  0  0  0  0  0
   -1.4965   -0.9243   -1.0287 C   0  0  0  0  0  0  0  0  0  0  0  0
   -1.0083    0.2473   -0.2656 C   0  0  0  0  0  0  0  0  0  0  0  0
   -1.9754    1.0126    0.6046 C   0  0  0  0  0  0  0  0  0  0  0  0
    0.1531    0.9055   -0.6066 O   0  0  0  0  0  0  0  0  0  0  0  0
    2.6118    1.8290    0.2441 H   0  0  0  0  0  0  0  0  0  0  0  0
    2.6870    0.5835   -1.1163 H   0  0  0  0  0  0  0  0  0  0  0  0
    3.1862    0.1686    0.5484 H   0  0  0  0  0  0  0  0  0  0  0  0
    0.7970    0.4749    1.3037 H   0  0  0  0  0  0  0  0  0  0  0  0
    1.4220   -1.7907    0.5992 H   0  0  0  0  0  0  0  0  0  0  0  0
    1.0583   -1.3009   -1.1493 H   0  0  0  0  0  0  0  0  0  0  0  0
   -0.9921   -1.4618    1.1234 H   0  0  0  0  0  0  0  0  0  0  0  0
   -1.0603   -1.1756   -2.0301 H   0  0  0  0  0  0  0  0  0  0  0  0
   -2.5722   -1.1760   -0.9087 H   0  0  0  0  0  0  0  0  0  0  0  0
   -1.5611    2.0398    0.8252 H   0  0  0  0  0  0  0  0  0  0  0  0
   -2.9103    1.2071    0.0328 H   0  0  0  0  0  0  0  0  0  0  0  0
   -2.1958    0.5254    1.5589 H   0  0  0  0  0  0  0  0  0  0  0  0
  1  2  1  0
  2  3  1  0
  3  4  1  0
  4  5  1  0
  5  6  1  0
  6  7  1  0
  6  8  1  0
  8  2  1  0
  6  4  1  0
  1  9  1  0
  1 10  1  0
  1 11  1  0
  2 12  1  0
  3 13  1  0
  3 14  1  0
  4 15  1  0
  5 16  1  0
  5 17  1  0
  7 18  1  0
  7 19  1  0
  7 20  1  0
M  END
