
     RDKit          3D

 23 24  0  0  0  0  0  0  0  0999 V2000
    1.8945   -0.2017   -0.7245 C   0  0  0  0  0  0  0  0  0  0  0  0
    0.9270    0.0228    0.4474 C   0  0  0  0  0  0  0  0  0  0  0  0
    0.7026   -1.3235    1.0419 C   0  0  0  0  0  0  0  0  0  0  0  0
   -0.4040   -2.0226    0.9625 C   0  0  0  0  0  0  0  0  0  0  0  0
   -1.5165   -1.3898    0.2055 C   0  0  0  0  0  0  0  0  0  0  0  0
   -0.8045   -0.3438   -0.6769 C   0  0  0  0  0  0  0  0  0  0  0  0
   -1.3810    0.8240   -0.8963 C   0  0  0  0  0  0  0  0  0  0  0  0
   -0.2713    0.7845    0.0499 C   0  0  0  0  0  0  0  0  0  0  0  0
   -0.0928    2.1881    0.3253 C   0  0  0  0  0  0  0  0  0  0  0  0
    1.8386    0.6044   -1.4622 H   0  0  0  0  0  0  0  0  0  0  0  0
    1.7139   -1.2129   -1.1843 H   0  0  0  0  0  0  0  0  0  0  0  0
    2.9390   -0.2407   -0.3476 H   0  0  0  0  0  0  0  0  0  0  0  0
    1.5187    0.5628    1.2079 H   0  0  0  0  0  0  0  0  0  0  0  0
    1.5248   -1.7862    1.5980 H   0  0  0  0  0  0  0  0  0  0  0  0
   -0.5692   -2.9918    1.3890 H   0  0  0  0  0  0  0  0  0  0  0  0
   -2.1212   -0.8228    0.9519 H   0  0  0  0  0  0  0  0  0  0  0  0
   -2.0973   -2.0930   -0.3954 H   0  0  0  0  0  0  0  0  0  0  0  0
   -0.2816   -0.8864   -1.5260 H   0  0  0  0  0  0  0  0  0  0  0  0
   -2.3904    1.0880   -0.4436 H   0  0  0  0  0  0  0  0  0  0  0  0
   -1.3238    1.3572   -1.8984 H   0  0  0  0  0  0  0  0  0  0  0  0
    0.3306    2.2943    1.3762 H   0  0  0  0  0  0  0  0  0  0  0  0
    0.7320    2.6449   -0.3067 H   0  0  0  0  0  0  0  0  0  0  0  0
   -0.8684    2.9444    0.3062 H   0  0  0  0  0  0  0  0  0  0  0  0
  1  2  1  0
  2  3  1  0
  3  4  2  0
  4  5  1  0
  5  6  1  0
  6  7  1  0
  7  8  1  0
  8  9  1  0
  8  2  1  0
  8  6  1  0
  1 10  1  0
  1 11  1  0
  1 12  1  0
  2 13  1  0
  3 14  1  0
  4 15  1  0
  5 16  1  0
  5 17  1  0
  6 18  1  0
  7 19  1  0
  7 20  1  0
  9 21  1  0
  9 22  1  0
  9 23  1  0
M  END
