
     RDKit          3D

 23 24  0  0  0  0  0  0  0  0999 V2000
   -0.0371    1.8242   -0.1865 C   0  0  0  0  0  0  0  0  0  0  0  0
   -0.1414    0.7000    0.8529 C   0  0  0  0  0  0  0  0  0  0  0  0
    1.0998   -0.1337    0.8121 C   0  0  0  0  0  0  0  0  0  0  0  0
    2.2535    0.3849    0.0346 C   0  0  0  0  0  0  0  0  0  0  0  0
    0.2997   -1.1304   -0.0362 C   0  0  0  0  0  0  0  0  0  0  0  0
    0.6786   -1.4106   -1.3036 O   0  0  0  0  0  0  0  0  0  0  0  0
   -0.7190   -1.8401    0.7327 C   0  0  0  0  0  0  0  0  0  0  0  0
   -0.9400   -0.4421    0.3279 C   0  0  0  0  0  0  0  0  0  0  0  0
   -2.0497   -0.1722   -0.6391 C   0  0  0  0  0  0  0  0  0  0  0  0
   -0.8478    2.5646   -0.0554 H   0  0  0  0  0  0  0  0  0  0  0  0
   -0.1264    1.4295   -1.2127 H   0  0  0  0  0  0  0  0  0  0  0  0
    0.9190    2.3806   -0.0574 H   0  0  0  0  0  0  0  0  0  0  0  0
   -0.4325    1.1247    1.8240 H   0  0  0  0  0  0  0  0  0  0  0  0
    1.3480   -0.6046    1.7909 H   0  0  0  0  0  0  0  0  0  0  0  0
    2.8133    1.1493    0.6303 H   0  0  0  0  0  0  0  0  0  0  0  0
    1.8877    0.7760   -0.9284 H   0  0  0  0  0  0  0  0  0  0  0  0
    2.9342   -0.4857   -0.1877 H   0  0  0  0  0  0  0  0  0  0  0  0
    0.0323   -1.1528   -2.0128 H   0  0  0  0  0  0  0  0  0  0  0  0
   -1.3148   -2.6031    0.2443 H   0  0  0  0  0  0  0  0  0  0  0  0
   -0.5134   -2.0661    1.8165 H   0  0  0  0  0  0  0  0  0  0  0  0
   -2.4260    0.8692   -0.4342 H   0  0  0  0  0  0  0  0  0  0  0  0
   -1.8058   -0.3302   -1.6860 H   0  0  0  0  0  0  0  0  0  0  0  0
   -2.9123   -0.8316   -0.3261 H   0  0  0  0  0  0  0  0  0  0  0  0
  1  2  1  0
  2  3  1  0
  3  4  1  0
  3  5  1  0
  5  6  1  0
  5  7  1  0
  7  8  1  0
  8  9  1  0
  8  2  1  0
  8  5  1  0
  1 10  1  0
  1 11  1  0
  1 12  1  0
  2 13  1  0
  3 14  1  0
  4 15  1  0
  4 16  1  0
  4 17  1  0
  6 18  1  0
  7 19  1  0
  7 20  1  0
  9 21  1  0
  9 22  1  0
  9 23  1  0
M  END
