
     RDKit          3D

 19 20  0  0  0  0  0  0  0  0999 V2000
    2.3968   -0.3709   -0.2030 C   0  0  0  0  0  0  0  0  0  0  0  0
    1.1110    0.0449    0.5268 C   0  0  0  0  0  0  0  0  0  0  0  0
    0.2601    1.0433    0.0462 C   0  0  0  0  0  0  0  0  0  0  0  0
   -1.0903    1.4960    0.0206 C   0  0  0  0  0  0  0  0  0  0  0  0
   -1.8133    0.7192   -0.7653 C   0  0  0  0  0  0  0  0  0  0  0  0
   -0.8367   -0.3008   -1.2486 C   0  0  0  0  0  0  0  0  0  0  0  0
   -0.7786   -0.7811   -2.3769 O   0  0  0  0  0  0  0  0  0  0  0  0
   -0.0770   -0.4737    0.0062 C   0  0  0  0  0  0  0  0  0  0  0  0
   -1.0253   -1.0298    1.0716 C   0  0  0  0  0  0  0  0  0  0  0  0
    2.4158   -1.4645   -0.3709 H   0  0  0  0  0  0  0  0  0  0  0  0
    3.2933   -0.0793    0.3342 H   0  0  0  0  0  0  0  0  0  0  0  0
    2.3161    0.0990   -1.2214 H   0  0  0  0  0  0  0  0  0  0  0  0
    1.3092    0.0162    1.6312 H   0  0  0  0  0  0  0  0  0  0  0  0
    0.7324    1.4821   -0.9276 H   0  0  0  0  0  0  0  0  0  0  0  0
   -1.5419    2.3534    0.5483 H   0  0  0  0  0  0  0  0  0  0  0  0
   -2.8846    0.7932   -1.0504 H   0  0  0  0  0  0  0  0  0  0  0  0
   -1.0421   -2.1086    0.9115 H   0  0  0  0  0  0  0  0  0  0  0  0
   -0.6988   -0.8362    2.0938 H   0  0  0  0  0  0  0  0  0  0  0  0
   -2.0461   -0.6024    0.9739 H   0  0  0  0  0  0  0  0  0  0  0  0
  1  2  1  0
  2  3  1  0
  3  4  1  0
  4  5  2  0
  5  6  1  0
  6  7  2  0
  6  8  1  0
  8  9  1  0
  8  2  1  0
  8  3  1  0
  1 10  1  0
  1 11  1  0
  1 12  1  0
  2 13  1  0
  3 14  1  0
  4 15  1  0
  5 16  1  0
  9 17  1  0
  9 18  1  0
  9 19  1  0
M  END
