
     RDKit          3D

 17 19  0  0  0  0  0  0  0  0999 V2000
    1.9117   -0.4201    0.0810 C   0  0  0  0  0  0  0  0  0  0  0  0
    0.6593    0.1052    0.7543 C   0  0  0  0  0  0  0  0  0  0  0  0
   -0.2300    0.8870   -0.1124 C   0  0  0  0  0  0  0  0  0  0  0  0
   -0.8522    2.0190    0.3314 O   0  0  0  0  0  0  0  0  0  0  0  0
   -0.6417    0.2770   -1.4503 C   0  0  0  0  0  0  0  0  0  0  0  0
   -1.9987    0.0636   -1.5431 O   0  0  0  0  0  0  0  0  0  0  0  0
   -1.0997   -0.8593   -0.8705 C   0  0  0  0  0  0  0  0  0  0  0  0
   -0.6599   -0.4747    0.5064 C   0  0  0  0  0  0  0  0  0  0  0  0
   -1.5884   -0.3958    1.5376 O   0  0  0  0  0  0  0  0  0  0  0  0
    1.8006   -0.4939   -1.0166 H   0  0  0  0  0  0  0  0  0  0  0  0
    2.2584   -1.3682    0.4826 H   0  0  0  0  0  0  0  0  0  0  0  0
    2.7095    0.3334    0.2798 H   0  0  0  0  0  0  0  0  0  0  0  0
    0.8578    0.5266    1.7575 H   0  0  0  0  0  0  0  0  0  0  0  0
   -0.1686    2.5766    0.8075 H   0  0  0  0  0  0  0  0  0  0  0  0
   -0.0035    0.3983   -2.3224 H   0  0  0  0  0  0  0  0  0  0  0  0
   -1.3144   -1.8775   -1.1619 H   0  0  0  0  0  0  0  0  0  0  0  0
   -1.6399   -1.2974    1.9391 H   0  0  0  0  0  0  0  0  0  0  0  0
  1  2  1  0
  2  3  1  0
  3  4  1  0
  3  5  1  0
  5  6  1  0
  6  7  1  0
  7  8  1  0
  8  9  1  0
  8  2  1  0
  8  3  1  0
  7  5  1  0
  1 10  1  0
  1 11  1  0
  1 12  1  0
  2 13  1  0
  4 14  1  0
  5 15  1  0
  7 16  1  0
  9 17  1  0
M  END
