
     RDKit          3D

 23 24  0  0  0  0  0  0  0  0999 V2000
    2.8331   -0.7975   -0.1269 C   0  0  0  0  0  0  0  0  0  0  0  0
    1.8549    0.2824   -0.4790 C   0  0  0  0  0  0  0  0  0  0  0  0
    1.3540    1.2121    0.6306 C   0  0  0  0  0  0  0  0  0  0  0  0
    0.4911    0.2948   -0.0835 C   0  0  0  0  0  0  0  0  0  0  0  0
   -0.3124   -0.7283    0.5965 C   0  0  0  0  0  0  0  0  0  0  0  0
   -1.5525    0.0968    0.2198 C   0  0  0  0  0  0  0  0  0  0  0  0
   -2.6815   -0.6856   -0.3474 C   0  0  0  0  0  0  0  0  0  0  0  0
   -1.8537    1.0947    1.1208 O   0  0  0  0  0  0  0  0  0  0  0  0
   -0.6887    0.6919   -0.9048 C   0  0  0  0  0  0  0  0  0  0  0  0
    3.0638   -0.8826    0.9349 H   0  0  0  0  0  0  0  0  0  0  0  0
    2.4254   -1.7652   -0.5389 H   0  0  0  0  0  0  0  0  0  0  0  0
    3.8130   -0.6647   -0.6567 H   0  0  0  0  0  0  0  0  0  0  0  0
    2.1570    0.8604   -1.4018 H   0  0  0  0  0  0  0  0  0  0  0  0
    1.7377    0.9303    1.6533 H   0  0  0  0  0  0  0  0  0  0  0  0
    1.2679    2.2810    0.4361 H   0  0  0  0  0  0  0  0  0  0  0  0
   -0.3204   -1.7572    0.1990 H   0  0  0  0  0  0  0  0  0  0  0  0
   -0.2037   -0.7549    1.7028 H   0  0  0  0  0  0  0  0  0  0  0  0
   -3.5830   -0.6548    0.3312 H   0  0  0  0  0  0  0  0  0  0  0  0
   -2.4247   -1.7027   -0.6344 H   0  0  0  0  0  0  0  0  0  0  0  0
   -3.0294   -0.1507   -1.2753 H   0  0  0  0  0  0  0  0  0  0  0  0
   -2.7409    1.0223    1.5342 H   0  0  0  0  0  0  0  0  0  0  0  0
   -0.7524    0.0265   -1.8137 H   0  0  0  0  0  0  0  0  0  0  0  0
   -0.8545    1.7511   -1.0967 H   0  0  0  0  0  0  0  0  0  0  0  0
  1  2  1  0
  2  3  1  0
  3  4  1  0
  4  5  1  0
  5  6  1  0
  6  7  1  0
  6  8  1  0
  6  9  1  0
  4  2  1  0
  9  4  1  0
  1 10  1  0
  1 11  1  0
  1 12  1  0
  2 13  1  0
  3 14  1  0
  3 15  1  0
  5 16  1  0
  5 17  1  0
  7 18  1  0
  7 19  1  0
  7 20  1  0
  8 21  1  0
  9 22  1  0
  9 23  1  0
M  END
