
     RDKit          3D

 21 22  0  0  0  0  0  0  0  0999 V2000
   -0.9327    1.8271   -0.1888 C   0  0  0  0  0  0  0  0  0  0  0  0
   -0.5377    0.6543    0.6848 C   0  0  0  0  0  0  0  0  0  0  0  0
   -0.9785   -0.7156    0.3900 C   0  0  0  0  0  0  0  0  0  0  0  0
   -2.0168   -1.0179   -0.6610 C   0  0  0  0  0  0  0  0  0  0  0  0
    0.3642   -0.3013    0.0171 C   0  0  0  0  0  0  0  0  0  0  0  0
    0.8340   -0.1609   -1.2482 O   0  0  0  0  0  0  0  0  0  0  0  0
    2.1285   -0.3582   -0.7684 C   0  0  0  0  0  0  0  0  0  0  0  0
    1.6241   -0.7859    0.5921 C   0  0  0  0  0  0  0  0  0  0  0  0
    2.2273   -0.0262    1.5859 O   0  0  0  0  0  0  0  0  0  0  0  0
    0.0157    2.1791   -0.6926 H   0  0  0  0  0  0  0  0  0  0  0  0
   -1.6134    1.5548   -1.0029 H   0  0  0  0  0  0  0  0  0  0  0  0
   -1.2666    2.6893    0.4188 H   0  0  0  0  0  0  0  0  0  0  0  0
   -0.3844    0.9379    1.7592 H   0  0  0  0  0  0  0  0  0  0  0  0
   -1.0494   -1.4094    1.2786 H   0  0  0  0  0  0  0  0  0  0  0  0
   -2.6791   -1.8709   -0.3804 H   0  0  0  0  0  0  0  0  0  0  0  0
   -2.7079   -0.1583   -0.8351 H   0  0  0  0  0  0  0  0  0  0  0  0
   -1.5754   -1.2872   -1.6379 H   0  0  0  0  0  0  0  0  0  0  0  0
    2.6470   -1.1657   -1.2880 H   0  0  0  0  0  0  0  0  0  0  0  0
    2.6600    0.6203   -0.7778 H   0  0  0  0  0  0  0  0  0  0  0  0
    1.6144   -1.8694    0.7837 H   0  0  0  0  0  0  0  0  0  0  0  0
    1.6268    0.6641    1.9708 H   0  0  0  0  0  0  0  0  0  0  0  0
  1  2  1  0
  2  3  1  0
  3  4  1  0
  3  5  1  0
  5  6  1  0
  6  7  1  0
  7  8  1  0
  8  9  1  0
  5  2  1  0
  8  5  1  0
  1 10  1  0
  1 11  1  0
  1 12  1  0
  2 13  1  0
  3 14  1  0
  4 15  1  0
  4 16  1  0
  4 17  1  0
  7 18  1  0
  7 19  1  0
  8 20  1  0
  9 21  1  0
M  END
