
     RDKit          3D

 19 19  0  0  0  0  0  0  0  0999 V2000
   -0.7907    1.4291   -0.1297 C   0  0  0  0  0  0  0  0  0  0  0  0
   -1.1488    0.0001   -0.4090 C   0  0  0  0  0  0  0  0  0  0  0  0
   -1.6910   -0.6074    0.9007 C   0  0  0  0  0  0  0  0  0  0  0  0
   -0.3457   -0.7868    1.2397 O   0  0  0  0  0  0  0  0  0  0  0  0
   -0.1449   -1.0405   -0.0960 C   0  0  0  0  0  0  0  0  0  0  0  0
    1.2077   -0.9714   -0.6557 C   0  0  0  0  0  0  0  0  0  0  0  0
    1.9152    0.1981   -0.5916 O   0  0  0  0  0  0  0  0  0  0  0  0
    2.2917    0.8824    0.5518 C   0  0  0  0  0  0  0  0  0  0  0  0
    1.9605    0.3967    1.6522 O   0  0  0  0  0  0  0  0  0  0  0  0
   -0.0678    1.8704   -0.8081 H   0  0  0  0  0  0  0  0  0  0  0  0
   -0.4907    1.6104    0.9173 H   0  0  0  0  0  0  0  0  0  0  0  0
   -1.7443    2.0219   -0.2623 H   0  0  0  0  0  0  0  0  0  0  0  0
   -1.7926   -0.1848   -1.2703 H   0  0  0  0  0  0  0  0  0  0  0  0
   -2.1516   -1.6075    0.7575 H   0  0  0  0  0  0  0  0  0  0  0  0
   -2.2473    0.1099    1.5139 H   0  0  0  0  0  0  0  0  0  0  0  0
   -0.5917   -2.0549   -0.3292 H   0  0  0  0  0  0  0  0  0  0  0  0
    1.8244   -1.7810   -0.1693 H   0  0  0  0  0  0  0  0  0  0  0  0
    1.1537   -1.2929   -1.7323 H   0  0  0  0  0  0  0  0  0  0  0  0
    2.8539    1.8082    0.5209 H   0  0  0  0  0  0  0  0  0  0  0  0
  1  2  1  0
  2  3  1  0
  3  4  1  0
  4  5  1  0
  5  6  1  0
  6  7  1  0
  7  8  1  0
  8  9  2  0
  5  2  1  0
  1 10  1  0
  1 11  1  0
  1 12  1  0
  2 13  1  0
  3 14  1  0
  3 15  1  0
  5 16  1  0
  6 17  1  0
  6 18  1  0
  8 19  1  0
M  END
