
     RDKit          3D

 23 24  0  0  0  0  0  0  0  0999 V2000
   -1.6350   -1.5144    0.8227 C   0  0  0  0  0  0  0  0  0  0  0  0
   -0.9212   -0.6879   -0.2232 C   0  0  0  0  0  0  0  0  0  0  0  0
   -1.6325    0.6077   -0.4964 C   0  0  0  0  0  0  0  0  0  0  0  0
   -1.0408    1.5349    0.5598 C   0  0  0  0  0  0  0  0  0  0  0  0
    0.4271    1.2123    0.4525 C   0  0  0  0  0  0  0  0  0  0  0  0
    1.0110    1.3886   -0.7738 O   0  0  0  0  0  0  0  0  0  0  0  0
    1.3306    0.0557   -0.9149 C   0  0  0  0  0  0  0  0  0  0  0  0
    2.7406   -0.3387   -0.6197 C   0  0  0  0  0  0  0  0  0  0  0  0
    0.4314   -0.2664    0.2542 C   0  0  0  0  0  0  0  0  0  0  0  0
   -1.1124   -1.3354    1.7813 H   0  0  0  0  0  0  0  0  0  0  0  0
   -2.6956   -1.1583    0.8443 H   0  0  0  0  0  0  0  0  0  0  0  0
   -1.5834   -2.5794    0.5534 H   0  0  0  0  0  0  0  0  0  0  0  0
   -0.7620   -1.2886   -1.1650 H   0  0  0  0  0  0  0  0  0  0  0  0
   -2.7046    0.4451   -0.3591 H   0  0  0  0  0  0  0  0  0  0  0  0
   -1.3434    1.0070   -1.4791 H   0  0  0  0  0  0  0  0  0  0  0  0
   -1.3646    1.2500    1.5807 H   0  0  0  0  0  0  0  0  0  0  0  0
   -1.2256    2.5862    0.3274 H   0  0  0  0  0  0  0  0  0  0  0  0
    1.0209    1.6141    1.2839 H   0  0  0  0  0  0  0  0  0  0  0  0
    0.9456   -0.3076   -1.9077 H   0  0  0  0  0  0  0  0  0  0  0  0
    2.8631   -0.7066    0.4335 H   0  0  0  0  0  0  0  0  0  0  0  0
    2.9756   -1.2311   -1.2588 H   0  0  0  0  0  0  0  0  0  0  0  0
    3.4016    0.5080   -0.7860 H   0  0  0  0  0  0  0  0  0  0  0  0
    0.8738   -0.7951    1.0900 H   0  0  0  0  0  0  0  0  0  0  0  0
  1  2  1  0
  2  3  1  0
  3  4  1  0
  4  5  1  0
  5  6  1  0
  6  7  1  0
  7  8  1  0
  7  9  1  0
  9  2  1  0
  9  5  1  0
  1 10  1  0
  1 11  1  0
  1 12  1  0
  2 13  1  0
  3 14  1  0
  3 15  1  0
  4 16  1  0
  4 17  1  0
  5 18  1  0
  7 19  1  0
  8 20  1  0
  8 21  1  0
  8 22  1  0
  9 23  1  0
M  END
