
     RDKit          3D

 19 20  0  0  0  0  0  0  0  0999 V2000
   -2.5025    0.3543    0.6999 C   0  0  0  0  0  0  0  0  0  0  0  0
   -1.0410    0.6844    0.7716 C   0  0  0  0  0  0  0  0  0  0  0  0
   -0.2226    0.3151   -0.4377 C   0  0  0  0  0  0  0  0  0  0  0  0
   -0.4242   -1.0784   -0.0503 C   0  0  0  0  0  0  0  0  0  0  0  0
   -0.6815   -2.1731   -0.4967 O   0  0  0  0  0  0  0  0  0  0  0  0
   -0.1330   -0.4118    1.2420 C   0  0  0  0  0  0  0  0  0  0  0  0
    0.9565    0.3061    0.4994 C   0  0  0  0  0  0  0  0  0  0  0  0
    2.1298   -0.5205    0.0681 C   0  0  0  0  0  0  0  0  0  0  0  0
    2.6353   -0.0846   -1.1392 O   0  0  0  0  0  0  0  0  0  0  0  0
   -2.9669    0.2220    1.6768 H   0  0  0  0  0  0  0  0  0  0  0  0
   -2.9984    1.2254    0.1823 H   0  0  0  0  0  0  0  0  0  0  0  0
   -2.6610   -0.5579    0.1088 H   0  0  0  0  0  0  0  0  0  0  0  0
   -0.7811    1.6807    1.1350 H   0  0  0  0  0  0  0  0  0  0  0  0
   -0.2661    0.7365   -1.3442 H   0  0  0  0  0  0  0  0  0  0  0  0
   -0.0872   -0.8328    2.1460 H   0  0  0  0  0  0  0  0  0  0  0  0
    1.1627    1.2973    0.8917 H   0  0  0  0  0  0  0  0  0  0  0  0
    2.9296   -0.3764    0.8278 H   0  0  0  0  0  0  0  0  0  0  0  0
    1.8808   -1.5955    0.0088 H   0  0  0  0  0  0  0  0  0  0  0  0
    3.0710    0.8091   -1.0265 H   0  0  0  0  0  0  0  0  0  0  0  0
  1  2  1  0
  2  3  1  0
  3  4  1  0
  4  5  2  0
  4  6  1  0
  6  7  1  0
  7  8  1  0
  8  9  1  0
  6  2  1  0
  7  3  1  0
  1 10  1  0
  1 11  1  0
  1 12  1  0
  2 13  1  0
  3 14  1  0
  6 15  1  0
  7 16  1  0
  8 17  1  0
  8 18  1  0
  9 19  1  0
M  END
