
     RDKit          3D

 23 23  0  0  0  0  0  0  0  0999 V2000
   -2.3548   -1.1604   -0.0409 C   0  0  0  0  0  0  0  0  0  0  0  0
   -1.0995   -0.4490    0.4747 C   0  0  0  0  0  0  0  0  0  0  0  0
   -1.3184    1.0242    0.2787 C   0  0  0  0  0  0  0  0  0  0  0  0
   -0.1377    1.7534   -0.2592 C   0  0  0  0  0  0  0  0  0  0  0  0
    1.1843    1.1181    0.1378 C   0  0  0  0  0  0  0  0  0  0  0  0
    1.2527   -0.2001   -0.6402 C   0  0  0  0  0  0  0  0  0  0  0  0
    2.5496   -0.9101   -0.4353 C   0  0  0  0  0  0  0  0  0  0  0  0
    0.0671   -0.9845   -0.2299 C   0  0  0  0  0  0  0  0  0  0  0  0
    0.0718   -2.1804   -0.5075 O   0  0  0  0  0  0  0  0  0  0  0  0
   -2.7497   -0.6718   -0.9465 H   0  0  0  0  0  0  0  0  0  0  0  0
   -2.0394   -2.1731   -0.3284 H   0  0  0  0  0  0  0  0  0  0  0  0
   -3.1302   -1.2355    0.7347 H   0  0  0  0  0  0  0  0  0  0  0  0
   -1.0247   -0.6685    1.5684 H   0  0  0  0  0  0  0  0  0  0  0  0
   -2.1847    1.2360   -0.4145 H   0  0  0  0  0  0  0  0  0  0  0  0
   -1.6071    1.5091    1.2452 H   0  0  0  0  0  0  0  0  0  0  0  0
   -0.1869    2.8188   -0.0173 H   0  0  0  0  0  0  0  0  0  0  0  0
   -0.1802    1.6805   -1.3804 H   0  0  0  0  0  0  0  0  0  0  0  0
    1.9937    1.7846   -0.2067 H   0  0  0  0  0  0  0  0  0  0  0  0
    1.2063    0.9252    1.2186 H   0  0  0  0  0  0  0  0  0  0  0  0
    1.1067    0.0850   -1.7149 H   0  0  0  0  0  0  0  0  0  0  0  0
    2.4092   -1.9758   -0.7271 H   0  0  0  0  0  0  0  0  0  0  0  0
    2.8660   -0.8521    0.6218 H   0  0  0  0  0  0  0  0  0  0  0  0
    3.3059   -0.4737   -1.1210 H   0  0  0  0  0  0  0  0  0  0  0  0
  1  2  1  0
  2  3  1  0
  3  4  1  0
  4  5  1  0
  5  6  1  0
  6  7  1  0
  6  8  1  0
  8  9  2  0
  8  2  1  0
  1 10  1  0
  1 11  1  0
  1 12  1  0
  2 13  1  0
  3 14  1  0
  3 15  1  0
  4 16  1  0
  4 17  1  0
  5 18  1  0
  5 19  1  0
  6 20  1  0
  7 21  1  0
  7 22  1  0
  7 23  1  0
M  END
