
     RDKit          3D

 20 20  0  0  0  0  0  0  0  0999 V2000
   -1.9570   -0.0063    0.6008 C   0  0  0  0  0  0  0  0  0  0  0  0
   -1.0370   -0.0178   -0.5774 C   0  0  0  0  0  0  0  0  0  0  0  0
   -0.3211   -1.3095   -0.6817 C   0  0  0  0  0  0  0  0  0  0  0  0
    0.9269   -1.5550   -0.3518 C   0  0  0  0  0  0  0  0  0  0  0  0
    1.9324   -0.5940    0.2095 C   0  0  0  0  0  0  0  0  0  0  0  0
    1.3475    0.2044    1.1489 O   0  0  0  0  0  0  0  0  0  0  0  0
    0.6810    1.2947    0.6993 C   0  0  0  0  0  0  0  0  0  0  0  0
   -0.0606    1.1160   -0.5910 C   0  0  0  0  0  0  0  0  0  0  0  0
   -1.4990   -0.4119    1.5281 H   0  0  0  0  0  0  0  0  0  0  0  0
   -2.3316    1.0145    0.8099 H   0  0  0  0  0  0  0  0  0  0  0  0
   -2.8513   -0.6389    0.3737 H   0  0  0  0  0  0  0  0  0  0  0  0
   -1.6774    0.0935   -1.4958 H   0  0  0  0  0  0  0  0  0  0  0  0
   -0.8962   -2.1630   -1.0803 H   0  0  0  0  0  0  0  0  0  0  0  0
    1.2874   -2.5627   -0.4955 H   0  0  0  0  0  0  0  0  0  0  0  0
    2.7334   -1.1980    0.7211 H   0  0  0  0  0  0  0  0  0  0  0  0
    2.4294   -0.0752   -0.6157 H   0  0  0  0  0  0  0  0  0  0  0  0
    1.3610    2.1611    0.5753 H   0  0  0  0  0  0  0  0  0  0  0  0
   -0.0638    1.6012    1.4677 H   0  0  0  0  0  0  0  0  0  0  0  0
   -0.6160    2.0738   -0.7798 H   0  0  0  0  0  0  0  0  0  0  0  0
    0.6119    0.9732   -1.4652 H   0  0  0  0  0  0  0  0  0  0  0  0
  1  2  1  0
  2  3  1  0
  3  4  2  0
  4  5  1  0
  5  6  1  0
  6  7  1  0
  7  8  1  0
  8  2  1  0
  1  9  1  0
  1 10  1  0
  1 11  1  0
  2 12  1  0
  3 13  1  0
  4 14  1  0
  5 15  1  0
  5 16  1  0
  7 17  1  0
  7 18  1  0
  8 19  1  0
  8 20  1  0
M  END
