
     RDKit          3D

 18 19  0  0  0  0  0  0  0  0999 V2000
    2.0938    0.0419    0.3574 C   0  0  0  0  0  0  0  0  0  0  0  0
    0.7248   -0.4168    0.7238 C   0  0  0  0  0  0  0  0  0  0  0  0
   -0.0583   -1.0621   -0.3527 C   0  0  0  0  0  0  0  0  0  0  0  0
   -1.3634   -1.6141    0.0568 C   0  0  0  0  0  0  0  0  0  0  0  0
   -1.7989   -2.7254    0.1544 O   0  0  0  0  0  0  0  0  0  0  0  0
   -1.8375   -0.2479    0.2713 C   0  0  0  0  0  0  0  0  0  0  0  0
   -0.4516    0.3272    0.2527 C   0  0  0  0  0  0  0  0  0  0  0  0
   -0.2465    1.5349   -0.5897 C   0  0  0  0  0  0  0  0  0  0  0  0
    2.3628   -0.2706   -0.6933 H   0  0  0  0  0  0  0  0  0  0  0  0
    2.2295    1.1399    0.4091 H   0  0  0  0  0  0  0  0  0  0  0  0
    2.8941   -0.3954    0.9969 H   0  0  0  0  0  0  0  0  0  0  0  0
    0.6235   -0.9035    1.7339 H   0  0  0  0  0  0  0  0  0  0  0  0
    0.2121   -0.9779   -1.4152 H   0  0  0  0  0  0  0  0  0  0  0  0
   -2.4290    0.0968   -0.6142 H   0  0  0  0  0  0  0  0  0  0  0  0
   -2.4322   -0.0552    1.1828 H   0  0  0  0  0  0  0  0  0  0  0  0
    0.1787    1.2652   -1.5803 H   0  0  0  0  0  0  0  0  0  0  0  0
   -1.2031    2.0759   -0.7941 H   0  0  0  0  0  0  0  0  0  0  0  0
    0.5011    2.1871   -0.0997 H   0  0  0  0  0  0  0  0  0  0  0  0
  1  2  1  0
  2  3  1  0
  3  4  1  0
  4  5  2  0
  4  6  1  0
  6  7  1  0
  7  8  1  0
  7  2  1  0
  7  3  1  0
  1  9  1  0
  1 10  1  0
  1 11  1  0
  2 12  1  0
  3 13  1  0
  6 14  1  0
  6 15  1  0
  8 16  1  0
  8 17  1  0
  8 18  1  0
M  END
