
     RDKit          2D

 21 23  0  0  0  0  0  0  0  0999 V2000
    2.3660   -2.5981    0.0000 C   0  0  0  0  0  0  0  0  0  0  0  0
    1.6160   -1.2990    0.0000 C   0  0  0  0  0  0  0  0  0  0  0  0
    0.8660    0.0000    0.0000 C   0  0  0  0  0  0  0  0  0  0  0  0
   -0.4330    0.7500    0.0000 C   0  0  0  0  0  0  0  0  0  0  0  0
   -0.9821   -1.2990    0.0000 C   0  0  0  0  0  0  0  0  0  0  0  0
    0.3170   -2.0490    0.0000 C   0  0  0  0  0  0  0  0  0  0  0  0
   -0.0712   -3.4979    0.0000 C   0  0  0  0  0  0  0  0  0  0  0  0
   -0.4330   -0.7500    0.0000 C   0  0  0  0  0  0  0  0  0  0  0  0
   -1.8819   -1.1382    0.0000 O   0  0  0  0  0  0  0  0  0  0  0  0
    3.1160   -3.8971    0.0000 H   0  0  0  0  0  0  0  0  0  0  0  0
    3.6651   -1.8481    0.0000 H   0  0  0  0  0  0  0  0  0  0  0  0
    1.1681   -3.5008    0.0000 H   0  0  0  0  0  0  0  0  0  0  0  0
    2.9151   -0.5490    0.0000 H   0  0  0  0  0  0  0  0  0  0  0  0
    1.9267    1.0607    0.0000 H   0  0  0  0  0  0  0  0  0  0  0  0
   -1.1830    2.0490    0.0000 H   0  0  0  0  0  0  0  0  0  0  0  0
   -1.8848   -2.4970    0.0000 H   0  0  0  0  0  0  0  0  0  0  0  0
   -1.7159   -0.9876    0.0000 H   0  0  0  0  0  0  0  0  0  0  0  0
   -0.4595   -4.9468    0.0000 H   0  0  0  0  0  0  0  0  0  0  0  0
    1.3195   -4.0599    0.0000 H   0  0  0  0  0  0  0  0  0  0  0  0
   -1.5566   -3.2892    0.0000 H   0  0  0  0  0  0  0  0  0  0  0  0
   -3.0639   -0.2148    0.0000 H   0  0  0  0  0  0  0  0  0  0  0  0
  1  2  1  0
  2  3  1  0
  3  4  1  0
  4  5  1  0
  5  6  1  0
  6  7  1  0
  6  8  1  0
  8  9  1  0
  6  2  1  0
  8  3  1  0
  8  4  1  0
  1 10  1  0
  1 11  1  0
  1 12  1  0
  2 13  1  0
  3 14  1  0
  4 15  1  0
  5 16  1  0
  5 17  1  0
  7 18  1  0
  7 19  1  0
  7 20  1  0
  9 21  1  0
M  END
