
     RDKit          3D

 19 20  0  0  0  0  0  0  0  0999 V2000
   -2.7434   -0.0302    0.1734 C   0  0  0  0  0  0  0  0  0  0  0  0
   -1.3397   -0.4801    0.0592 C   0  0  0  0  0  0  0  0  0  0  0  0
   -0.2666    0.2410    0.7906 C   0  0  0  0  0  0  0  0  0  0  0  0
   -0.4296    1.2816   -0.1035 O   0  0  0  0  0  0  0  0  0  0  0  0
   -0.4653    0.1883   -0.9563 C   0  0  0  0  0  0  0  0  0  0  0  0
    0.6736   -0.3660   -0.2038 C   0  0  0  0  0  0  0  0  0  0  0  0
    2.0231    0.2372   -0.3339 C   0  0  0  0  0  0  0  0  0  0  0  0
    2.6881    0.1217    1.0146 C   0  0  0  0  0  0  0  0  0  0  0  0
    3.8753   -0.1774    1.1191 O   0  0  0  0  0  0  0  0  0  0  0  0
   -3.1478   -0.3844    1.1526 H   0  0  0  0  0  0  0  0  0  0  0  0
   -2.8683    1.0515    0.0703 H   0  0  0  0  0  0  0  0  0  0  0  0
   -3.3536   -0.5986   -0.5899 H   0  0  0  0  0  0  0  0  0  0  0  0
   -1.2489   -1.5926    0.1338 H   0  0  0  0  0  0  0  0  0  0  0  0
   -0.1200    0.3182    1.7858 H   0  0  0  0  0  0  0  0  0  0  0  0
   -0.6128    0.2137   -1.9554 H   0  0  0  0  0  0  0  0  0  0  0  0
    0.6866   -1.4732   -0.1488 H   0  0  0  0  0  0  0  0  0  0  0  0
    2.6146   -0.2133   -1.1336 H   0  0  0  0  0  0  0  0  0  0  0  0
    1.9879    1.3418   -0.5567 H   0  0  0  0  0  0  0  0  0  0  0  0
    2.0469    0.3207    1.8641 H   0  0  0  0  0  0  0  0  0  0  0  0
  1  2  1  0
  2  3  1  0
  3  4  1  0
  4  5  1  0
  5  6  1  0
  6  7  1  0
  7  8  1  0
  8  9  2  0
  5  2  1  0
  6  3  1  0
  1 10  1  0
  1 11  1  0
  1 12  1  0
  2 13  1  0
  3 14  1  0
  5 15  1  0
  6 16  1  0
  7 17  1  0
  7 18  1  0
  8 19  1  0
M  END
