
     RDKit          3D

 19 20  0  0  0  0  0  0  0  0999 V2000
    2.2089   -0.2338    0.0148 C   0  0  0  0  0  0  0  0  0  0  0  0
    0.8398    0.1697    0.4945 C   0  0  0  0  0  0  0  0  0  0  0  0
    0.3455    1.3458   -0.2746 C   0  0  0  0  0  0  0  0  0  0  0  0
   -0.9517    1.4181   -0.4745 C   0  0  0  0  0  0  0  0  0  0  0  0
   -1.7564    0.2115   -0.2151 C   0  0  0  0  0  0  0  0  0  0  0  0
   -0.9882   -0.9340   -0.8429 C   0  0  0  0  0  0  0  0  0  0  0  0
   -0.1701   -0.9197    0.4305 C   0  0  0  0  0  0  0  0  0  0  0  0
   -1.4118   -0.4103    1.1129 C   0  0  0  0  0  0  0  0  0  0  0  0
   -1.9189   -0.4646    2.2205 O   0  0  0  0  0  0  0  0  0  0  0  0
    2.4791   -1.2606    0.2891 H   0  0  0  0  0  0  0  0  0  0  0  0
    2.3555   -0.0601   -1.0723 H   0  0  0  0  0  0  0  0  0  0  0  0
    2.9413    0.4520    0.5303 H   0  0  0  0  0  0  0  0  0  0  0  0
    0.9461    0.4604    1.5800 H   0  0  0  0  0  0  0  0  0  0  0  0
    1.0483    2.0649   -0.6238 H   0  0  0  0  0  0  0  0  0  0  0  0
   -1.4119    2.3148   -0.8123 H   0  0  0  0  0  0  0  0  0  0  0  0
   -2.8191    0.2516   -0.4077 H   0  0  0  0  0  0  0  0  0  0  0  0
   -1.5319   -1.8552   -1.0165 H   0  0  0  0  0  0  0  0  0  0  0  0
   -0.3577   -0.6336   -1.7153 H   0  0  0  0  0  0  0  0  0  0  0  0
    0.1532   -1.9169    0.7824 H   0  0  0  0  0  0  0  0  0  0  0  0
  1  2  1  0
  2  3  1  0
  3  4  2  0
  4  5  1  0
  5  6  1  0
  6  7  1  0
  7  8  1  0
  8  9  2  0
  7  2  1  0
  8  5  1  0
  1 10  1  0
  1 11  1  0
  1 12  1  0
  2 13  1  0
  3 14  1  0
  4 15  1  0
  5 16  1  0
  6 17  1  0
  6 18  1  0
  7 19  1  0
M  END
