
     RDKit          3D

 20 21  0  0  0  0  0  0  0  0999 V2000
    2.2737    0.1951    0.3562 C   0  0  0  0  0  0  0  0  0  0  0  0
    0.9271    0.1078   -0.2737 C   0  0  0  0  0  0  0  0  0  0  0  0
    0.3798   -1.3089   -0.3255 C   0  0  0  0  0  0  0  0  0  0  0  0
   -1.0376   -1.0140   -0.8384 C   0  0  0  0  0  0  0  0  0  0  0  0
   -1.4584    0.1038    0.0709 C   0  0  0  0  0  0  0  0  0  0  0  0
   -2.4119   -0.1766    1.0362 O   0  0  0  0  0  0  0  0  0  0  0  0
   -1.1746    1.5206   -0.2416 C   0  0  0  0  0  0  0  0  0  0  0  0
   -0.1597    0.7957    0.5190 C   0  0  0  0  0  0  0  0  0  0  0  0
    2.7443    1.1561   -0.0051 H   0  0  0  0  0  0  0  0  0  0  0  0
    2.2319    0.3216    1.4730 H   0  0  0  0  0  0  0  0  0  0  0  0
    2.9478   -0.6034    0.0526 H   0  0  0  0  0  0  0  0  0  0  0  0
    0.9315    0.4876   -1.3089 H   0  0  0  0  0  0  0  0  0  0  0  0
    0.9348   -1.9667   -0.9914 H   0  0  0  0  0  0  0  0  0  0  0  0
    0.2772   -1.6805    0.7159 H   0  0  0  0  0  0  0  0  0  0  0  0
   -0.8775   -0.6573   -1.8964 H   0  0  0  0  0  0  0  0  0  0  0  0
   -1.6796   -1.8935   -0.8129 H   0  0  0  0  0  0  0  0  0  0  0  0
   -2.0530   -0.3400    1.9291 H   0  0  0  0  0  0  0  0  0  0  0  0
   -0.8860    1.8151   -1.2909 H   0  0  0  0  0  0  0  0  0  0  0  0
   -1.8587    2.2645    0.2077 H   0  0  0  0  0  0  0  0  0  0  0  0
   -0.0510    0.8732    1.6242 H   0  0  0  0  0  0  0  0  0  0  0  0
  1  2  1  0
  2  3  1  0
  3  4  1  0
  4  5  1  0
  5  6  1  0
  5  7  1  0
  7  8  1  0
  8  2  1  0
  8  5  1  0
  1  9  1  0
  1 10  1  0
  1 11  1  0
  2 12  1  0
  3 13  1  0
  3 14  1  0
  4 15  1  0
  4 16  1  0
  6 17  1  0
  7 18  1  0
  7 19  1  0
  8 20  1  0
M  END
