
     RDKit          3D

 19 20  0  0  0  0  0  0  0  0999 V2000
    2.6967   -0.7308    0.3102 C   0  0  0  0  0  0  0  0  0  0  0  0
    1.3617   -0.4761   -0.3020 C   0  0  0  0  0  0  0  0  0  0  0  0
    0.9044    0.9771   -0.1014 C   0  0  0  0  0  0  0  0  0  0  0  0
   -0.4352    0.3758    0.1006 C   0  0  0  0  0  0  0  0  0  0  0  0
   -1.1181    0.2132   -1.2130 O   0  0  0  0  0  0  0  0  0  0  0  0
   -1.6932    0.8386   -0.0361 C   0  0  0  0  0  0  0  0  0  0  0  0
   -2.9132    0.1124    0.4293 C   0  0  0  0  0  0  0  0  0  0  0  0
    0.1769   -0.8695    0.4932 C   0  0  0  0  0  0  0  0  0  0  0  0
   -0.1245   -1.8214    1.1679 O   0  0  0  0  0  0  0  0  0  0  0  0
    2.6899   -1.3210    1.2227 H   0  0  0  0  0  0  0  0  0  0  0  0
    3.3032   -1.3050   -0.4489 H   0  0  0  0  0  0  0  0  0  0  0  0
    3.2243    0.2471    0.4205 H   0  0  0  0  0  0  0  0  0  0  0  0
    1.2247   -0.8190   -1.3546 H   0  0  0  0  0  0  0  0  0  0  0  0
    1.0824    1.5268   -1.0435 H   0  0  0  0  0  0  0  0  0  0  0  0
    1.3485    1.4086    0.7996 H   0  0  0  0  0  0  0  0  0  0  0  0
   -1.8921    1.9169   -0.2840 H   0  0  0  0  0  0  0  0  0  0  0  0
   -3.8242    0.7752    0.4823 H   0  0  0  0  0  0  0  0  0  0  0  0
   -2.7991   -0.3143    1.4583 H   0  0  0  0  0  0  0  0  0  0  0  0
   -3.2130   -0.7344   -0.2207 H   0  0  0  0  0  0  0  0  0  0  0  0
  1  2  1  0
  2  3  1  0
  3  4  1  0
  4  5  1  0
  5  6  1  0
  6  7  1  0
  4  8  1  0
  8  9  2  0
  8  2  1  0
  6  4  1  0
  1 10  1  0
  1 11  1  0
  1 12  1  0
  2 13  1  0
  3 14  1  0
  3 15  1  0
  6 16  1  0
  7 17  1  0
  7 18  1  0
  7 19  1  0
M  END
