
     RDKit          3D

 19 20  0  0  0  0  0  0  0  0999 V2000
   -2.1270   -0.5112   -0.2933 C   0  0  0  0  0  0  0  0  0  0  0  0
   -0.7445   -0.4736   -0.9538 C   0  0  0  0  0  0  0  0  0  0  0  0
    0.2681   -1.1002   -0.2138 C   0  0  0  0  0  0  0  0  0  0  0  0
    1.0331   -0.8254    0.9950 C   0  0  0  0  0  0  0  0  0  0  0  0
    0.7680   -1.0933    2.1674 O   0  0  0  0  0  0  0  0  0  0  0  0
    2.2090   -0.1377    0.3920 C   0  0  0  0  0  0  0  0  0  0  0  0
    1.6805    0.5922   -0.5703 C   0  0  0  0  0  0  0  0  0  0  0  0
    0.2663    0.4119   -0.5883 C   0  0  0  0  0  0  0  0  0  0  0  0
   -0.2843    1.3771    0.5150 C   0  0  0  0  0  0  0  0  0  0  0  0
   -1.9913   -0.3573    0.8135 H   0  0  0  0  0  0  0  0  0  0  0  0
   -2.7677    0.2972   -0.6449 H   0  0  0  0  0  0  0  0  0  0  0  0
   -2.5329   -1.5181   -0.4139 H   0  0  0  0  0  0  0  0  0  0  0  0
   -0.8808   -0.7036   -2.0462 H   0  0  0  0  0  0  0  0  0  0  0  0
    0.8893   -1.8060   -0.8572 H   0  0  0  0  0  0  0  0  0  0  0  0
    3.2582   -0.2357    0.7363 H   0  0  0  0  0  0  0  0  0  0  0  0
    2.3132    1.2182   -1.2164 H   0  0  0  0  0  0  0  0  0  0  0  0
    0.2675    2.3379    0.4988 H   0  0  0  0  0  0  0  0  0  0  0  0
   -0.2928    0.8524    1.4653 H   0  0  0  0  0  0  0  0  0  0  0  0
   -1.3320    1.6753    0.2147 H   0  0  0  0  0  0  0  0  0  0  0  0
  1  2  1  0
  2  3  1  0
  3  4  1  0
  4  5  2  0
  4  6  1  0
  6  7  2  0
  7  8  1  0
  8  9  1  0
  8  2  1  0
  8  3  1  0
  1 10  1  0
  1 11  1  0
  1 12  1  0
  2 13  1  0
  3 14  1  0
  6 15  1  0
  7 16  1  0
  9 17  1  0
  9 18  1  0
  9 19  1  0
M  END
