
     RDKit          3D

 19 19  0  0  0  0  0  0  0  0999 V2000
    2.0151   -0.0275    0.2333 C   0  0  0  0  0  0  0  0  0  0  0  0
    0.8449   -0.3454   -0.6609 C   0  0  0  0  0  0  0  0  0  0  0  0
    0.1153   -1.5542   -0.2815 C   0  0  0  0  0  0  0  0  0  0  0  0
    0.5319   -2.6873   -0.2875 O   0  0  0  0  0  0  0  0  0  0  0  0
   -1.2667   -1.2075    0.1327 C   0  0  0  0  0  0  0  0  0  0  0  0
   -1.1894    0.2616    0.5152 C   0  0  0  0  0  0  0  0  0  0  0  0
   -2.3787    0.9141    0.2622 O   0  0  0  0  0  0  0  0  0  0  0  0
   -0.1665    0.7800   -0.4792 C   0  0  0  0  0  0  0  0  0  0  0  0
    0.4062    1.9355    0.0024 O   0  0  0  0  0  0  0  0  0  0  0  0
    1.7103    0.5742    1.1340 H   0  0  0  0  0  0  0  0  0  0  0  0
    2.6949    0.6687   -0.3384 H   0  0  0  0  0  0  0  0  0  0  0  0
    2.6106   -0.8983    0.5165 H   0  0  0  0  0  0  0  0  0  0  0  0
    1.2264   -0.3624   -1.7031 H   0  0  0  0  0  0  0  0  0  0  0  0
   -1.9736   -1.2529   -0.7430 H   0  0  0  0  0  0  0  0  0  0  0  0
   -1.5932   -1.8421    0.9682 H   0  0  0  0  0  0  0  0  0  0  0  0
   -0.8520    0.3691    1.5552 H   0  0  0  0  0  0  0  0  0  0  0  0
   -2.2641    1.6952   -0.3618 H   0  0  0  0  0  0  0  0  0  0  0  0
   -0.6844    0.8940   -1.4389 H   0  0  0  0  0  0  0  0  0  0  0  0
    0.2131    2.0853    0.9746 H   0  0  0  0  0  0  0  0  0  0  0  0
  1  2  1  0
  2  3  1  0
  3  4  2  0
  3  5  1  0
  5  6  1  0
  6  7  1  0
  6  8  1  0
  8  9  1  0
  8  2  1  0
  1 10  1  0
  1 11  1  0
  1 12  1  0
  2 13  1  0
  5 14  1  0
  5 15  1  0
  6 16  1  0
  7 17  1  0
  8 18  1  0
  9 19  1  0
M  END
