
     RDKit          3D

 21 22  0  0  0  0  0  0  0  0999 V2000
   -1.9996   -0.5327    0.3768 C   0  0  0  0  0  0  0  0  0  0  0  0
   -1.0200    0.1204   -0.5273 C   0  0  0  0  0  0  0  0  0  0  0  0
   -0.2302   -0.8917   -1.3357 C   0  0  0  0  0  0  0  0  0  0  0  0
    1.0447   -1.1658   -1.0960 C   0  0  0  0  0  0  0  0  0  0  0  0
    1.8348   -0.5109   -0.0103 C   0  0  0  0  0  0  0  0  0  0  0  0
    0.8187   -0.0783    0.9630 C   0  0  0  0  0  0  0  0  0  0  0  0
    0.3972    1.1754    1.4548 C   0  0  0  0  0  0  0  0  0  0  0  0
    0.0016    0.9637    0.1120 C   0  0  0  0  0  0  0  0  0  0  0  0
    0.7393    1.6765   -0.8671 O   0  0  0  0  0  0  0  0  0  0  0  0
   -2.2631    0.1841    1.1906 H   0  0  0  0  0  0  0  0  0  0  0  0
   -2.9756   -0.7161   -0.1595 H   0  0  0  0  0  0  0  0  0  0  0  0
   -1.6912   -1.5051    0.7834 H   0  0  0  0  0  0  0  0  0  0  0  0
   -1.5903    0.7069   -1.2942 H   0  0  0  0  0  0  0  0  0  0  0  0
   -0.7694   -1.3963   -2.1420 H   0  0  0  0  0  0  0  0  0  0  0  0
    1.5377   -1.8978   -1.7146 H   0  0  0  0  0  0  0  0  0  0  0  0
    2.3872    0.3837   -0.4225 H   0  0  0  0  0  0  0  0  0  0  0  0
    2.5640   -1.2052    0.4524 H   0  0  0  0  0  0  0  0  0  0  0  0
    0.2324   -0.9790    1.3267 H   0  0  0  0  0  0  0  0  0  0  0  0
   -0.3978    1.2062    2.2455 H   0  0  0  0  0  0  0  0  0  0  0  0
    1.1642    1.9577    1.6767 H   0  0  0  0  0  0  0  0  0  0  0  0
    0.2154    2.5043   -1.0127 H   0  0  0  0  0  0  0  0  0  0  0  0
  1  2  1  0
  2  3  1  0
  3  4  2  0
  4  5  1  0
  5  6  1  0
  6  7  1  0
  7  8  1  0
  8  9  1  0
  8  2  1  0
  8  6  1  0
  1 10  1  0
  1 11  1  0
  1 12  1  0
  2 13  1  0
  3 14  1  0
  4 15  1  0
  5 16  1  0
  5 17  1  0
  6 18  1  0
  7 19  1  0
  7 20  1  0
  9 21  1  0
M  END
