
     RDKit          3D

 19 20  0  0  0  0  0  0  0  0999 V2000
    2.3015   -0.0583    0.3747 C   0  0  0  0  0  0  0  0  0  0  0  0
    0.9485    0.3366   -0.1318 C   0  0  0  0  0  0  0  0  0  0  0  0
    0.3940   -0.6197   -1.1202 C   0  0  0  0  0  0  0  0  0  0  0  0
    0.8587   -0.9353   -2.1808 O   0  0  0  0  0  0  0  0  0  0  0  0
   -0.8665   -1.1093   -0.5189 C   0  0  0  0  0  0  0  0  0  0  0  0
   -1.8604    0.0213   -0.5420 C   0  0  0  0  0  0  0  0  0  0  0  0
   -1.3434    0.9161    0.5640 C   0  0  0  0  0  0  0  0  0  0  0  0
   -0.0758    0.1986    0.9749 C   0  0  0  0  0  0  0  0  0  0  0  0
   -0.4979   -1.1465    0.8489 O   0  0  0  0  0  0  0  0  0  0  0  0
    2.6590    0.7486    1.0414 H   0  0  0  0  0  0  0  0  0  0  0  0
    3.0294   -0.2207   -0.4407 H   0  0  0  0  0  0  0  0  0  0  0  0
    2.1940   -1.0262    0.9052 H   0  0  0  0  0  0  0  0  0  0  0  0
    0.9216    1.3430   -0.5870 H   0  0  0  0  0  0  0  0  0  0  0  0
   -1.2257   -2.0523   -0.8909 H   0  0  0  0  0  0  0  0  0  0  0  0
   -1.6796    0.5837   -1.5045 H   0  0  0  0  0  0  0  0  0  0  0  0
   -2.8962   -0.2831   -0.4192 H   0  0  0  0  0  0  0  0  0  0  0  0
   -1.1403    1.9467    0.2087 H   0  0  0  0  0  0  0  0  0  0  0  0
   -2.0067    0.9129    1.4581 H   0  0  0  0  0  0  0  0  0  0  0  0
    0.2858    0.4439    1.9600 H   0  0  0  0  0  0  0  0  0  0  0  0
  1  2  1  0
  2  3  1  0
  3  4  2  0
  3  5  1  0
  5  6  1  0
  6  7  1  0
  7  8  1  0
  8  9  1  0
  8  2  1  0
  9  5  1  0
  1 10  1  0
  1 11  1  0
  1 12  1  0
  2 13  1  0
  5 14  1  0
  6 15  1  0
  6 16  1  0
  7 17  1  0
  7 18  1  0
  8 19  1  0
M  END
