
     RDKit          3D

 19 20  0  0  0  0  0  0  0  0999 V2000
    1.8387   -0.6931    0.4725 C   0  0  0  0  0  0  0  0  0  0  0  0
    1.1170   -0.1665   -0.6745 C   0  0  0  0  0  0  0  0  0  0  0  0
    0.7640    1.3159   -0.7102 C   0  0  0  0  0  0  0  0  0  0  0  0
   -0.2841    0.8792    0.2539 C   0  0  0  0  0  0  0  0  0  0  0  0
   -0.3764   -0.2571   -0.7726 C   0  0  0  0  0  0  0  0  0  0  0  0
   -1.4079   -0.0522    0.1090 C   0  0  0  0  0  0  0  0  0  0  0  0
   -2.5630    0.8223   -0.0368 O   0  0  0  0  0  0  0  0  0  0  0  0
   -1.7388   -1.0151    1.2007 C   0  0  0  0  0  0  0  0  0  0  0  0
   -1.8636   -2.2361    0.9197 O   0  0  0  0  0  0  0  0  0  0  0  0
    2.9440   -0.5382    0.2707 H   0  0  0  0  0  0  0  0  0  0  0  0
    1.6847   -0.3131    1.4590 H   0  0  0  0  0  0  0  0  0  0  0  0
    1.7432   -1.7974    0.5098 H   0  0  0  0  0  0  0  0  0  0  0  0
    1.6481   -0.4106   -1.6179 H   0  0  0  0  0  0  0  0  0  0  0  0
    1.4896    2.0190   -0.3372 H   0  0  0  0  0  0  0  0  0  0  0  0
    0.3674    1.5647   -1.6830 H   0  0  0  0  0  0  0  0  0  0  0  0
    0.1158    0.7960    1.2399 H   0  0  0  0  0  0  0  0  0  0  0  0
   -0.6876    0.0878   -1.8219 H   0  0  0  0  0  0  0  0  0  0  0  0
   -2.9391    0.6613   -0.9767 H   0  0  0  0  0  0  0  0  0  0  0  0
   -1.8519   -0.6668    2.1958 H   0  0  0  0  0  0  0  0  0  0  0  0
  1  2  1  0
  2  3  1  0
  3  4  1  0
  4  5  1  0
  5  6  1  0
  6  7  1  0
  6  8  1  0
  8  9  2  0
  5  2  1  0
  6  4  1  0
  1 10  1  0
  1 11  1  0
  1 12  1  0
  2 13  1  0
  3 14  1  0
  3 15  1  0
  4 16  1  0
  5 17  1  0
  7 18  1  0
  8 19  1  0
M  END
