
     RDKit          3D

 22 22  0  0  0  0  0  0  0  0999 V2000
   -2.2930    0.6043    0.1383 C   0  0  0  0  0  0  0  0  0  0  0  0
   -1.1187   -0.2748    0.4910 C   0  0  0  0  0  0  0  0  0  0  0  0
   -0.8227   -1.2235   -0.6562 C   0  0  0  0  0  0  0  0  0  0  0  0
    0.5045   -0.6980   -1.2162 C   0  0  0  0  0  0  0  0  0  0  0  0
    1.1949   -0.3753    0.1180 C   0  0  0  0  0  0  0  0  0  0  0  0
    2.4700    0.3360   -0.1993 C   0  0  0  0  0  0  0  0  0  0  0  0
    0.1475    0.5177    0.7269 C   0  0  0  0  0  0  0  0  0  0  0  0
    0.3672    0.8425    2.0334 O   0  0  0  0  0  0  0  0  0  0  0  0
   -2.4738    0.5689   -0.9718 H   0  0  0  0  0  0  0  0  0  0  0  0
   -3.2141    0.2877    0.6838 H   0  0  0  0  0  0  0  0  0  0  0  0
   -2.0607    1.6204    0.4748 H   0  0  0  0  0  0  0  0  0  0  0  0
   -1.4010   -0.8434    1.4127 H   0  0  0  0  0  0  0  0  0  0  0  0
   -1.6092   -1.2340   -1.4082 H   0  0  0  0  0  0  0  0  0  0  0  0
   -0.5962   -2.2467   -0.2381 H   0  0  0  0  0  0  0  0  0  0  0  0
    0.3151    0.2653   -1.6972 H   0  0  0  0  0  0  0  0  0  0  0  0
    1.0400   -1.4357   -1.7980 H   0  0  0  0  0  0  0  0  0  0  0  0
    1.3227   -1.2860    0.7218 H   0  0  0  0  0  0  0  0  0  0  0  0
    3.1264   -0.3720   -0.7434 H   0  0  0  0  0  0  0  0  0  0  0  0
    2.2248    1.1415   -0.9368 H   0  0  0  0  0  0  0  0  0  0  0  0
    2.9784    0.7538    0.6809 H   0  0  0  0  0  0  0  0  0  0  0  0
    0.1086    1.4400    0.1179 H   0  0  0  0  0  0  0  0  0  0  0  0
   -0.2106    1.6114    2.2657 H   0  0  0  0  0  0  0  0  0  0  0  0
  1  2  1  0
  2  3  1  0
  3  4  1  0
  4  5  1  0
  5  6  1  0
  5  7  1  0
  7  8  1  0
  7  2  1  0
  1  9  1  0
  1 10  1  0
  1 11  1  0
  2 12  1  0
  3 13  1  0
  3 14  1  0
  4 15  1  0
  4 16  1  0
  5 17  1  0
  6 18  1  0
  6 19  1  0
  6 20  1  0
  7 21  1  0
  8 22  1  0
M  END
