
     RDKit          3D

 15 16  0  0  0  0  0  0  0  0999 V2000
   -1.9739   -0.3354   -0.7429 C   0  0  0  0  0  0  0  0  0  0  0  0
   -1.0037    0.3846    0.2084 C   0  0  0  0  0  0  0  0  0  0  0  0
    0.2313    0.8548   -0.2651 C   0  0  0  0  0  0  0  0  0  0  0  0
    1.4141    1.2207    0.2936 O   0  0  0  0  0  0  0  0  0  0  0  0
    2.1110   -0.0129    0.3033 C   0  0  0  0  0  0  0  0  0  0  0  0
    1.1255   -1.0258    0.1740 O   0  0  0  0  0  0  0  0  0  0  0  0
    0.0616   -0.3739    0.7216 C   0  0  0  0  0  0  0  0  0  0  0  0
   -1.3509   -0.7524   -1.5571 H   0  0  0  0  0  0  0  0  0  0  0  0
   -2.6745    0.4324   -1.1272 H   0  0  0  0  0  0  0  0  0  0  0  0
   -2.5114   -1.1307   -0.1921 H   0  0  0  0  0  0  0  0  0  0  0  0
   -1.6010    1.0392    0.8976 H   0  0  0  0  0  0  0  0  0  0  0  0
    0.4442    0.5769   -1.3467 H   0  0  0  0  0  0  0  0  0  0  0  0
    2.8494   -0.0808   -0.4918 H   0  0  0  0  0  0  0  0  0  0  0  0
    2.5510   -0.1895    1.3195 H   0  0  0  0  0  0  0  0  0  0  0  0
    0.3273   -0.1562    1.8050 H   0  0  0  0  0  0  0  0  0  0  0  0
  1  2  1  0
  2  3  1  0
  3  4  1  0
  4  5  1  0
  5  6  1  0
  6  7  1  0
  7  2  1  0
  7  3  1  0
  1  8  1  0
  1  9  1  0
  1 10  1  0
  2 11  1  0
  3 12  1  0
  5 13  1  0
  5 14  1  0
  7 15  1  0
M  END
