
     RDKit          3D

 21 23  0  0  0  0  0  0  0  0999 V2000
    2.3916    0.0063   -0.0120 C   0  0  0  0  0  0  0  0  0  0  0  0
    0.9728   -0.3489   -0.4769 C   0  0  0  0  0  0  0  0  0  0  0  0
    0.1301   -0.7369    0.7455 C   0  0  0  0  0  0  0  0  0  0  0  0
   -1.0829   -1.4886    0.2752 C   0  0  0  0  0  0  0  0  0  0  0  0
   -2.1162   -0.4671   -0.0803 C   0  0  0  0  0  0  0  0  0  0  0  0
   -1.3322    0.8357   -0.1990 C   0  0  0  0  0  0  0  0  0  0  0  0
   -0.2883    0.7013    0.7929 C   0  0  0  0  0  0  0  0  0  0  0  0
    0.0733    0.8355   -0.6375 C   0  0  0  0  0  0  0  0  0  0  0  0
    0.5797    2.0078   -1.1626 O   0  0  0  0  0  0  0  0  0  0  0  0
    2.6027   -0.5646    0.9040 H   0  0  0  0  0  0  0  0  0  0  0  0
    3.1211   -0.2402   -0.7871 H   0  0  0  0  0  0  0  0  0  0  0  0
    2.4500    1.0905    0.2396 H   0  0  0  0  0  0  0  0  0  0  0  0
    0.9681   -1.1044   -1.2634 H   0  0  0  0  0  0  0  0  0  0  0  0
    0.6837   -1.1389    1.5847 H   0  0  0  0  0  0  0  0  0  0  0  0
   -0.7975   -2.0905   -0.6280 H   0  0  0  0  0  0  0  0  0  0  0  0
   -1.4135   -2.2055    1.0519 H   0  0  0  0  0  0  0  0  0  0  0  0
   -2.7035   -0.6958   -0.9681 H   0  0  0  0  0  0  0  0  0  0  0  0
   -2.7628   -0.3280    0.8364 H   0  0  0  0  0  0  0  0  0  0  0  0
   -1.8785    1.7722   -0.2774 H   0  0  0  0  0  0  0  0  0  0  0  0
   -0.0077    1.3789    1.5702 H   0  0  0  0  0  0  0  0  0  0  0  0
    0.4100    2.7814   -0.5948 H   0  0  0  0  0  0  0  0  0  0  0  0
  1  2  1  0
  2  3  1  0
  3  4  1  0
  4  5  1  0
  5  6  1  0
  6  7  1  0
  7  8  1  0
  8  9  1  0
  8  2  1  0
  7  3  1  0
  8  6  1  0
  1 10  1  0
  1 11  1  0
  1 12  1  0
  2 13  1  0
  3 14  1  0
  4 15  1  0
  4 16  1  0
  5 17  1  0
  5 18  1  0
  6 19  1  0
  7 20  1  0
  9 21  1  0
M  END
