
     RDKit          3D

 23 25  0  0  0  0  0  0  0  0999 V2000
   -2.4435    1.0708    0.1235 C   0  0  0  0  0  0  0  0  0  0  0  0
   -2.0733   -0.3694    0.4257 C   0  0  0  0  0  0  0  0  0  0  0  0
   -1.7133   -1.0761   -0.8701 C   0  0  0  0  0  0  0  0  0  0  0  0
   -0.3129   -1.2414   -0.3398 C   0  0  0  0  0  0  0  0  0  0  0  0
   -0.6692   -0.5573    0.9471 C   0  0  0  0  0  0  0  0  0  0  0  0
    0.4116   -0.0198    0.0984 C   0  0  0  0  0  0  0  0  0  0  0  0
    1.8585   -0.1972    0.4427 C   0  0  0  0  0  0  0  0  0  0  0  0
    2.7119    0.9040    0.8903 C   0  0  0  0  0  0  0  0  0  0  0  0
    2.8065    0.4995   -0.5636 C   0  0  0  0  0  0  0  0  0  0  0  0
   -1.8854    1.7543    0.8101 H   0  0  0  0  0  0  0  0  0  0  0  0
   -3.5189    1.2567    0.3351 H   0  0  0  0  0  0  0  0  0  0  0  0
   -2.2849    1.3330   -0.9432 H   0  0  0  0  0  0  0  0  0  0  0  0
   -2.8492   -0.8892    1.0308 H   0  0  0  0  0  0  0  0  0  0  0  0
   -2.2666   -2.0513   -0.9676 H   0  0  0  0  0  0  0  0  0  0  0  0
   -1.7253   -0.4444   -1.7689 H   0  0  0  0  0  0  0  0  0  0  0  0
    0.1460   -2.2449   -0.2830 H   0  0  0  0  0  0  0  0  0  0  0  0
   -0.4919   -1.0855    1.8942 H   0  0  0  0  0  0  0  0  0  0  0  0
    0.1338    0.9028   -0.4829 H   0  0  0  0  0  0  0  0  0  0  0  0
    2.1768   -1.2381    0.7023 H   0  0  0  0  0  0  0  0  0  0  0  0
    3.6230    0.6455    1.4690 H   0  0  0  0  0  0  0  0  0  0  0  0
    2.3164    1.9110    1.1358 H   0  0  0  0  0  0  0  0  0  0  0  0
    3.6777   -0.0822   -0.9169 H   0  0  0  0  0  0  0  0  0  0  0  0
    2.3722    1.2193   -1.2620 H   0  0  0  0  0  0  0  0  0  0  0  0
  1  2  1  0
  2  3  1  0
  3  4  1  0
  4  5  1  0
  5  6  1  0
  6  7  1  0
  7  8  1  0
  8  9  1  0
  5  2  1  0
  9  7  1  0
  6  4  1  0
  1 10  1  0
  1 11  1  0
  1 12  1  0
  2 13  1  0
  3 14  1  0
  3 15  1  0
  4 16  1  0
  5 17  1  0
  6 18  1  0
  7 19  1  0
  8 20  1  0
  8 21  1  0
  9 22  1  0
  9 23  1  0
M  END
