
     RDKit          3D

 23 24  0  0  0  0  0  0  0  0999 V2000
    2.5707    0.1913   -0.2305 C   0  0  0  0  0  0  0  0  0  0  0  0
    1.1427    0.4259    0.0699 C   0  0  0  0  0  0  0  0  0  0  0  0
    0.3150    1.0254   -1.0806 C   0  0  0  0  0  0  0  0  0  0  0  0
   -0.7841    0.1600   -0.5351 C   0  0  0  0  0  0  0  0  0  0  0  0
   -2.0947   -0.0017   -1.0332 C   0  0  0  0  0  0  0  0  0  0  0  0
   -1.8288    0.7903    0.2378 C   0  0  0  0  0  0  0  0  0  0  0  0
   -2.2382    0.2812    1.4529 O   0  0  0  0  0  0  0  0  0  0  0  0
    0.2234   -0.7919   -0.1086 C   0  0  0  0  0  0  0  0  0  0  0  0
    0.0488   -1.5889    1.1286 C   0  0  0  0  0  0  0  0  0  0  0  0
    3.2100    0.7925    0.4780 H   0  0  0  0  0  0  0  0  0  0  0  0
    2.8851    0.3939   -1.2534 H   0  0  0  0  0  0  0  0  0  0  0  0
    2.8108   -0.8778    0.0214 H   0  0  0  0  0  0  0  0  0  0  0  0
    0.8723    0.9405    0.9966 H   0  0  0  0  0  0  0  0  0  0  0  0
    0.7044    0.6524   -2.0681 H   0  0  0  0  0  0  0  0  0  0  0  0
    0.1569    2.0985   -1.0164 H   0  0  0  0  0  0  0  0  0  0  0  0
   -2.4809    0.6230   -1.8622 H   0  0  0  0  0  0  0  0  0  0  0  0
   -2.6399   -0.9490   -0.9159 H   0  0  0  0  0  0  0  0  0  0  0  0
   -1.8980    1.9089    0.1866 H   0  0  0  0  0  0  0  0  0  0  0  0
   -1.8260    0.8459    2.1573 H   0  0  0  0  0  0  0  0  0  0  0  0
    0.6325   -1.4054   -0.9294 H   0  0  0  0  0  0  0  0  0  0  0  0
   -0.3801   -1.0612    1.9770 H   0  0  0  0  0  0  0  0  0  0  0  0
    1.0778   -1.9236    1.4575 H   0  0  0  0  0  0  0  0  0  0  0  0
   -0.4797   -2.5303    0.8696 H   0  0  0  0  0  0  0  0  0  0  0  0
  1  2  1  0
  2  3  1  0
  3  4  1  0
  4  5  1  0
  5  6  1  0
  6  7  1  0
  4  8  1  0
  8  9  1  0
  8  2  1  0
  6  4  1  0
  1 10  1  0
  1 11  1  0
  1 12  1  0
  2 13  1  0
  3 14  1  0
  3 15  1  0
  5 16  1  0
  5 17  1  0
  6 18  1  0
  7 19  1  0
  8 20  1  0
  9 21  1  0
  9 22  1  0
  9 23  1  0
M  END
