
     RDKit          3D

 20 21  0  0  0  0  0  0  0  0999 V2000
   -1.2249    1.3299   -0.3632 C   0  0  0  0  0  0  0  0  0  0  0  0
   -0.5118    0.0473   -0.8059 C   0  0  0  0  0  0  0  0  0  0  0  0
   -1.0118   -1.0875    0.0884 C   0  0  0  0  0  0  0  0  0  0  0  0
   -2.1508   -0.8191    0.7984 O   0  0  0  0  0  0  0  0  0  0  0  0
    0.2966   -0.9567    0.8409 C   0  0  0  0  0  0  0  0  0  0  0  0
    1.4989   -1.3654    0.0665 C   0  0  0  0  0  0  0  0  0  0  0  0
    0.8828   -0.0810   -0.3051 C   0  0  0  0  0  0  0  0  0  0  0  0
    1.5985    1.1745    0.0889 C   0  0  0  0  0  0  0  0  0  0  0  0
   -0.9984    2.1737   -1.0350 H   0  0  0  0  0  0  0  0  0  0  0  0
   -2.3314    1.1408   -0.4268 H   0  0  0  0  0  0  0  0  0  0  0  0
   -1.0288    1.5498    0.7086 H   0  0  0  0  0  0  0  0  0  0  0  0
   -0.6325   -0.1092   -1.8742 H   0  0  0  0  0  0  0  0  0  0  0  0
   -1.0716   -2.0098   -0.5498 H   0  0  0  0  0  0  0  0  0  0  0  0
   -2.8442   -1.5321    0.6191 H   0  0  0  0  0  0  0  0  0  0  0  0
    0.3426   -0.4674    1.8082 H   0  0  0  0  0  0  0  0  0  0  0  0
    2.5059   -1.3323    0.4801 H   0  0  0  0  0  0  0  0  0  0  0  0
    1.3199   -2.2433   -0.6140 H   0  0  0  0  0  0  0  0  0  0  0  0
    1.5819    1.3454    1.1794 H   0  0  0  0  0  0  0  0  0  0  0  0
    1.1169    2.0508   -0.4136 H   0  0  0  0  0  0  0  0  0  0  0  0
    2.6621    1.1915   -0.2910 H   0  0  0  0  0  0  0  0  0  0  0  0
  1  2  1  0
  2  3  1  0
  3  4  1  0
  3  5  1  0
  5  6  1  0
  6  7  1  0
  7  8  1  0
  7  2  1  0
  7  5  1  0
  1  9  1  0
  1 10  1  0
  1 11  1  0
  2 12  1  0
  3 13  1  0
  4 14  1  0
  5 15  1  0
  6 16  1  0
  6 17  1  0
  8 18  1  0
  8 19  1  0
  8 20  1  0
M  END
