
     RDKit          3D

 18 19  0  0  0  0  0  0  0  0999 V2000
   -2.0026   -0.0337    0.4903 C   0  0  0  0  0  0  0  0  0  0  0  0
   -0.9116    0.2548   -0.4592 C   0  0  0  0  0  0  0  0  0  0  0  0
    0.0026   -0.9448   -0.7248 C   0  0  0  0  0  0  0  0  0  0  0  0
    1.3592   -0.3086   -0.6377 C   0  0  0  0  0  0  0  0  0  0  0  0
    1.7499   -0.1211    0.8245 C   0  0  0  0  0  0  0  0  0  0  0  0
    0.7204    0.7327    1.2423 O   0  0  0  0  0  0  0  0  0  0  0  0
    0.1288    1.2361    0.0911 C   0  0  0  0  0  0  0  0  0  0  0  0
    1.1020    1.0561   -0.9252 O   0  0  0  0  0  0  0  0  0  0  0  0
   -2.0296    0.7093    1.3307 H   0  0  0  0  0  0  0  0  0  0  0  0
   -2.9830    0.1220   -0.0444 H   0  0  0  0  0  0  0  0  0  0  0  0
   -1.9734   -1.0697    0.8241 H   0  0  0  0  0  0  0  0  0  0  0  0
   -1.2239    0.6209   -1.4473 H   0  0  0  0  0  0  0  0  0  0  0  0
   -0.1569   -1.7232    0.0485 H   0  0  0  0  0  0  0  0  0  0  0  0
   -0.1983   -1.4125   -1.6956 H   0  0  0  0  0  0  0  0  0  0  0  0
    2.1252   -0.7391   -1.2489 H   0  0  0  0  0  0  0  0  0  0  0  0
    1.7917   -1.0561    1.3738 H   0  0  0  0  0  0  0  0  0  0  0  0
    2.7298    0.4290    0.7983 H   0  0  0  0  0  0  0  0  0  0  0  0
   -0.2304    2.2480    0.1595 H   0  0  0  0  0  0  0  0  0  0  0  0
  1  2  1  0
  2  3  1  0
  3  4  1  0
  4  5  1  0
  5  6  1  0
  6  7  1  0
  7  8  1  0
  7  2  1  0
  8  4  1  0
  1  9  1  0
  1 10  1  0
  1 11  1  0
  2 12  1  0
  3 13  1  0
  3 14  1  0
  4 15  1  0
  5 16  1  0
  5 17  1  0
  7 18  1  0
M  END
