
     RDKit          3D

 21 23  0  0  0  0  0  0  0  0999 V2000
    2.1580   -0.5262    0.3072 C   0  0  0  0  0  0  0  0  0  0  0  0
    0.7256   -0.0746    0.4835 C   0  0  0  0  0  0  0  0  0  0  0  0
    0.4992    1.1677   -0.3056 C   0  0  0  0  0  0  0  0  0  0  0  0
    0.7758    2.3365    0.3419 O   0  0  0  0  0  0  0  0  0  0  0  0
   -0.9039    1.0355   -0.8012 C   0  0  0  0  0  0  0  0  0  0  0  0
   -1.9137    0.1950   -0.1266 C   0  0  0  0  0  0  0  0  0  0  0  0
   -1.5608   -0.9630    0.7452 C   0  0  0  0  0  0  0  0  0  0  0  0
   -0.2597   -1.0759   -0.0621 C   0  0  0  0  0  0  0  0  0  0  0  0
   -1.0220   -0.3718   -1.1466 C   0  0  0  0  0  0  0  0  0  0  0  0
    2.7694    0.3315   -0.0409 H   0  0  0  0  0  0  0  0  0  0  0  0
    2.1494   -1.3566   -0.4395 H   0  0  0  0  0  0  0  0  0  0  0  0
    2.5216   -0.9095    1.2853 H   0  0  0  0  0  0  0  0  0  0  0  0
    0.5431    0.1381    1.5641 H   0  0  0  0  0  0  0  0  0  0  0  0
    1.1707    1.1107   -1.2111 H   0  0  0  0  0  0  0  0  0  0  0  0
    1.3432    2.2549    1.1457 H   0  0  0  0  0  0  0  0  0  0  0  0
   -1.2828    1.8292   -1.4460 H   0  0  0  0  0  0  0  0  0  0  0  0
   -2.9667    0.4161   -0.2741 H   0  0  0  0  0  0  0  0  0  0  0  0
   -1.3492   -0.7809    1.7934 H   0  0  0  0  0  0  0  0  0  0  0  0
   -2.1859   -1.8636    0.5094 H   0  0  0  0  0  0  0  0  0  0  0  0
    0.0895   -2.0787   -0.2493 H   0  0  0  0  0  0  0  0  0  0  0  0
   -1.3008   -0.8144   -2.0724 H   0  0  0  0  0  0  0  0  0  0  0  0
  1  2  1  0
  2  3  1  0
  3  4  1  0
  3  5  1  0
  5  6  1  0
  6  7  1  0
  7  8  1  0
  8  9  1  0
  8  2  1  0
  9  5  1  0
  9  6  1  0
  1 10  1  0
  1 11  1  0
  1 12  1  0
  2 13  1  0
  3 14  1  0
  4 15  1  0
  5 16  1  0
  6 17  1  0
  7 18  1  0
  7 19  1  0
  8 20  1  0
  9 21  1  0
M  END
