
     RDKit          3D

 19 19  0  0  0  0  0  0  0  0999 V2000
   -2.4854    0.0458    0.2417 C   0  0  0  0  0  0  0  0  0  0  0  0
   -1.0076    0.3100    0.2542 C   0  0  0  0  0  0  0  0  0  0  0  0
   -0.1783   -0.9460    0.1520 C   0  0  0  0  0  0  0  0  0  0  0  0
    1.2618   -0.6106    0.3167 C   0  0  0  0  0  0  0  0  0  0  0  0
    2.0388   -1.4151   -0.5230 O   0  0  0  0  0  0  0  0  0  0  0  0
    1.6003    0.8318    0.0871 C   0  0  0  0  0  0  0  0  0  0  0  0
    0.7152    1.4592   -0.9297 C   0  0  0  0  0  0  0  0  0  0  0  0
    1.2052    2.2437   -1.7794 O   0  0  0  0  0  0  0  0  0  0  0  0
   -0.6323    1.1248   -0.8680 O   0  0  0  0  0  0  0  0  0  0  0  0
   -2.9636    0.9152   -0.2788 H   0  0  0  0  0  0  0  0  0  0  0  0
   -2.8581    0.0771    1.2842 H   0  0  0  0  0  0  0  0  0  0  0  0
   -2.6727   -0.9051   -0.2583 H   0  0  0  0  0  0  0  0  0  0  0  0
   -0.7408    0.8491    1.2085 H   0  0  0  0  0  0  0  0  0  0  0  0
   -0.3717   -1.3716   -0.8734 H   0  0  0  0  0  0  0  0  0  0  0  0
   -0.5426   -1.6978    0.9081 H   0  0  0  0  0  0  0  0  0  0  0  0
    1.5592   -0.8623    1.3655 H   0  0  0  0  0  0  0  0  0  0  0  0
    1.9986   -2.3411   -0.1990 H   0  0  0  0  0  0  0  0  0  0  0  0
    2.6344    0.8862   -0.2699 H   0  0  0  0  0  0  0  0  0  0  0  0
    1.4394    1.4066    1.0301 H   0  0  0  0  0  0  0  0  0  0  0  0
  1  2  1  0
  2  3  1  0
  3  4  1  0
  4  5  1  0
  4  6  1  0
  6  7  1  0
  7  8  2  0
  7  9  1  0
  9  2  1  0
  1 10  1  0
  1 11  1  0
  1 12  1  0
  2 13  1  0
  3 14  1  0
  3 15  1  0
  4 16  1  0
  5 17  1  0
  6 18  1  0
  6 19  1  0
M  END
