
     RDKit          3D

 18 18  0  0  0  0  0  0  0  0999 V2000
   -1.9245   -0.2916   -0.3143 C   0  0  0  0  0  0  0  0  0  0  0  0
   -0.5905    0.0228    0.2690 C   0  0  0  0  0  0  0  0  0  0  0  0
   -0.0691    1.3837   -0.0933 C   0  0  0  0  0  0  0  0  0  0  0  0
    1.4193    1.2331   -0.0608 C   0  0  0  0  0  0  0  0  0  0  0  0
    2.2740    2.0469   -0.3164 O   0  0  0  0  0  0  0  0  0  0  0  0
    1.7163   -0.1729    0.3647 C   0  0  0  0  0  0  0  0  0  0  0  0
    0.5205   -0.8685   -0.3021 C   0  0  0  0  0  0  0  0  0  0  0  0
    0.3959   -2.1739    0.0779 O   0  0  0  0  0  0  0  0  0  0  0  0
   -1.8452   -0.5248   -1.3876 H   0  0  0  0  0  0  0  0  0  0  0  0
   -2.6096    0.5416   -0.1035 H   0  0  0  0  0  0  0  0  0  0  0  0
   -2.3340   -1.1767    0.2550 H   0  0  0  0  0  0  0  0  0  0  0  0
   -0.6063   -0.0374    1.3789 H   0  0  0  0  0  0  0  0  0  0  0  0
   -0.4334    1.6684   -1.0896 H   0  0  0  0  0  0  0  0  0  0  0  0
   -0.3506    2.1759    0.6215 H   0  0  0  0  0  0  0  0  0  0  0  0
    1.5823   -0.2088    1.4486 H   0  0  0  0  0  0  0  0  0  0  0  0
    2.6706   -0.5419   -0.0081 H   0  0  0  0  0  0  0  0  0  0  0  0
    0.5717   -0.6914   -1.3759 H   0  0  0  0  0  0  0  0  0  0  0  0
   -0.3874   -2.3846    0.6361 H   0  0  0  0  0  0  0  0  0  0  0  0
  1  2  1  0
  2  3  1  0
  3  4  1  0
  4  5  2  0
  4  6  1  0
  6  7  1  0
  7  8  1  0
  7  2  1  0
  1  9  1  0
  1 10  1  0
  1 11  1  0
  2 12  1  0
  3 13  1  0
  3 14  1  0
  6 15  1  0
  6 16  1  0
  7 17  1  0
  8 18  1  0
M  END
