
     RDKit          3D

 23 24  0  0  0  0  0  0  0  0999 V2000
    2.6989   -0.9835   -0.0400 C   0  0  0  0  0  0  0  0  0  0  0  0
    1.5930   -0.0771    0.4886 C   0  0  0  0  0  0  0  0  0  0  0  0
    1.5029    1.2173   -0.2936 C   0  0  0  0  0  0  0  0  0  0  0  0
    0.0132    1.0563   -0.2666 C   0  0  0  0  0  0  0  0  0  0  0  0
   -1.2109    1.5464   -0.3215 C   0  0  0  0  0  0  0  0  0  0  0  0
   -2.4299    0.7086   -0.2116 C   0  0  0  0  0  0  0  0  0  0  0  0
   -2.0934   -0.7470   -0.0569 C   0  0  0  0  0  0  0  0  0  0  0  0
   -0.8272   -0.8943    0.8005 C   0  0  0  0  0  0  0  0  0  0  0  0
    0.2665   -0.4010   -0.0886 C   0  0  0  0  0  0  0  0  0  0  0  0
    2.4721   -1.2613   -1.0784 H   0  0  0  0  0  0  0  0  0  0  0  0
    2.6884   -1.9274    0.5492 H   0  0  0  0  0  0  0  0  0  0  0  0
    3.6917   -0.4861    0.0278 H   0  0  0  0  0  0  0  0  0  0  0  0
    1.6013    0.1035    1.5618 H   0  0  0  0  0  0  0  0  0  0  0  0
    1.8459    1.1827   -1.3269 H   0  0  0  0  0  0  0  0  0  0  0  0
    1.7853    2.1171    0.2722 H   0  0  0  0  0  0  0  0  0  0  0  0
   -1.3438    2.6462   -0.4573 H   0  0  0  0  0  0  0  0  0  0  0  0
   -3.0657    1.0130    0.6517 H   0  0  0  0  0  0  0  0  0  0  0  0
   -3.0252    0.8010   -1.1646 H   0  0  0  0  0  0  0  0  0  0  0  0
   -2.9138   -1.3476    0.3237 H   0  0  0  0  0  0  0  0  0  0  0  0
   -1.8316   -1.1228   -1.0839 H   0  0  0  0  0  0  0  0  0  0  0  0
   -0.9299   -0.2296    1.7050 H   0  0  0  0  0  0  0  0  0  0  0  0
   -0.7609   -1.9590    1.0646 H   0  0  0  0  0  0  0  0  0  0  0  0
    0.2732   -0.9554   -1.0551 H   0  0  0  0  0  0  0  0  0  0  0  0
  1  2  1  0
  2  3  1  0
  3  4  1  0
  4  5  2  0
  5  6  1  0
  6  7  1  0
  7  8  1  0
  8  9  1  0
  9  2  1  0
  9  4  1  0
  1 10  1  0
  1 11  1  0
  1 12  1  0
  2 13  1  0
  3 14  1  0
  3 15  1  0
  5 16  1  0
  6 17  1  0
  6 18  1  0
  7 19  1  0
  7 20  1  0
  8 21  1  0
  8 22  1  0
  9 23  1  0
M  END
