
     RDKit          3D

 21 23  0  0  0  0  0  0  0  0999 V2000
    2.3701   -0.3183    0.7008 C   0  0  0  0  0  0  0  0  0  0  0  0
    1.1831    0.5171    0.3365 C   0  0  0  0  0  0  0  0  0  0  0  0
    1.0295    0.7398   -1.1715 C   0  0  0  0  0  0  0  0  0  0  0  0
    0.0258    0.0322   -0.3870 C   0  0  0  0  0  0  0  0  0  0  0  0
   -0.3292   -1.4057   -0.5778 C   0  0  0  0  0  0  0  0  0  0  0  0
   -1.4101   -1.5749    0.2709 O   0  0  0  0  0  0  0  0  0  0  0  0
   -2.1921   -0.4481    0.2074 C   0  0  0  0  0  0  0  0  0  0  0  0
   -1.9492    0.7141    1.0870 C   0  0  0  0  0  0  0  0  0  0  0  0
   -1.3156    0.6930   -0.2291 C   0  0  0  0  0  0  0  0  0  0  0  0
    2.7436   -0.9069   -0.1797 H   0  0  0  0  0  0  0  0  0  0  0  0
    2.1697   -1.0430    1.5238 H   0  0  0  0  0  0  0  0  0  0  0  0
    3.2345    0.3419    0.9782 H   0  0  0  0  0  0  0  0  0  0  0  0
    1.0727    1.4575    0.9450 H   0  0  0  0  0  0  0  0  0  0  0  0
    1.6943    0.1926   -1.8513 H   0  0  0  0  0  0  0  0  0  0  0  0
    0.7848    1.7648   -1.5236 H   0  0  0  0  0  0  0  0  0  0  0  0
    0.4652   -2.1179   -0.3388 H   0  0  0  0  0  0  0  0  0  0  0  0
   -0.7195   -1.5474   -1.6256 H   0  0  0  0  0  0  0  0  0  0  0  0
   -3.1860   -0.4970   -0.2816 H   0  0  0  0  0  0  0  0  0  0  0  0
   -2.7739    1.4408    1.2323 H   0  0  0  0  0  0  0  0  0  0  0  0
   -1.2762    0.6613    1.9698 H   0  0  0  0  0  0  0  0  0  0  0  0
   -1.6216    1.3042   -1.0856 H   0  0  0  0  0  0  0  0  0  0  0  0
  1  2  1  0
  2  3  1  0
  3  4  1  0
  4  5  1  0
  5  6  1  0
  6  7  1  0
  7  8  1  0
  8  9  1  0
  4  2  1  0
  9  7  1  0
  9  4  1  0
  1 10  1  0
  1 11  1  0
  1 12  1  0
  2 13  1  0
  3 14  1  0
  3 15  1  0
  5 16  1  0
  5 17  1  0
  7 18  1  0
  8 19  1  0
  8 20  1  0
  9 21  1  0
M  END
