
     RDKit          3D

 18 18  0  0  0  0  0  0  0  0999 V2000
    1.1477    0.9901   -1.0600 C   0  0  0  0  0  0  0  0  0  0  0  0
    0.1537    0.6074   -0.0165 C   0  0  0  0  0  0  0  0  0  0  0  0
   -1.2713    0.5474   -0.5504 C   0  0  0  0  0  0  0  0  0  0  0  0
   -1.8548   -0.4266    0.4546 C   0  0  0  0  0  0  0  0  0  0  0  0
   -0.8720   -1.3230    0.7855 O   0  0  0  0  0  0  0  0  0  0  0  0
    0.3299   -0.8848    0.3050 C   0  0  0  0  0  0  0  0  0  0  0  0
    1.4638   -1.1013    1.2252 C   0  0  0  0  0  0  0  0  0  0  0  0
    1.3649   -1.6147    2.3060 O   0  0  0  0  0  0  0  0  0  0  0  0
    0.9439    0.4761   -2.0034 H   0  0  0  0  0  0  0  0  0  0  0  0
    1.1665    2.1045   -1.1637 H   0  0  0  0  0  0  0  0  0  0  0  0
    2.1490    0.6324   -0.6928 H   0  0  0  0  0  0  0  0  0  0  0  0
    0.2147    1.2174    0.8897 H   0  0  0  0  0  0  0  0  0  0  0  0
   -1.7654    1.5273   -0.5384 H   0  0  0  0  0  0  0  0  0  0  0  0
   -1.2351    0.0763   -1.5556 H   0  0  0  0  0  0  0  0  0  0  0  0
   -2.1708    0.1988    1.3397 H   0  0  0  0  0  0  0  0  0  0  0  0
   -2.7796   -0.8986    0.0700 H   0  0  0  0  0  0  0  0  0  0  0  0
    0.5714   -1.3558   -0.6910 H   0  0  0  0  0  0  0  0  0  0  0  0
    2.4435   -0.7728    0.8961 H   0  0  0  0  0  0  0  0  0  0  0  0
  1  2  1  0
  2  3  1  0
  3  4  1  0
  4  5  1  0
  5  6  1  0
  6  7  1  0
  7  8  2  0
  6  2  1  0
  1  9  1  0
  1 10  1  0
  1 11  1  0
  2 12  1  0
  3 13  1  0
  3 14  1  0
  4 15  1  0
  4 16  1  0
  6 17  1  0
  7 18  1  0
M  END
