
     RDKit          3D

 20 21  0  0  0  0  0  0  0  0999 V2000
   -2.0416   -0.5326   -0.7057 C   0  0  0  0  0  0  0  0  0  0  0  0
   -0.6936   -0.9086   -0.1158 C   0  0  0  0  0  0  0  0  0  0  0  0
   -0.5867   -0.6920    1.3523 C   0  0  0  0  0  0  0  0  0  0  0  0
    0.1773    0.1688    0.4208 C   0  0  0  0  0  0  0  0  0  0  0  0
   -0.3309    1.5821    0.1160 C   0  0  0  0  0  0  0  0  0  0  0  0
    1.6549    0.0543    0.4486 C   0  0  0  0  0  0  0  0  0  0  0  0
    2.3868   -0.1262   -0.8218 C   0  0  0  0  0  0  0  0  0  0  0  0
    2.4684    1.0375   -0.0943 O   0  0  0  0  0  0  0  0  0  0  0  0
   -2.5765   -1.4690   -0.9744 H   0  0  0  0  0  0  0  0  0  0  0  0
   -1.8876    0.1390   -1.5739 H   0  0  0  0  0  0  0  0  0  0  0  0
   -2.6823   -0.0124    0.0330 H   0  0  0  0  0  0  0  0  0  0  0  0
   -0.2626   -1.8147   -0.5871 H   0  0  0  0  0  0  0  0  0  0  0  0
   -1.4464   -0.3070    1.9417 H   0  0  0  0  0  0  0  0  0  0  0  0
   -0.0203   -1.4717    1.9087 H   0  0  0  0  0  0  0  0  0  0  0  0
    0.0954    2.3198    0.8022 H   0  0  0  0  0  0  0  0  0  0  0  0
    0.0449    1.7998   -0.9205 H   0  0  0  0  0  0  0  0  0  0  0  0
   -1.4255    1.6083    0.0665 H   0  0  0  0  0  0  0  0  0  0  0  0
    2.0783   -0.4906    1.3201 H   0  0  0  0  0  0  0  0  0  0  0  0
    1.8195   -0.0464   -1.7605 H   0  0  0  0  0  0  0  0  0  0  0  0
    3.2285   -0.8385   -0.8560 H   0  0  0  0  0  0  0  0  0  0  0  0
  1  2  1  0
  2  3  1  0
  3  4  1  0
  4  5  1  0
  4  6  1  0
  6  7  1  0
  7  8  1  0
  4  2  1  0
  8  6  1  0
  1  9  1  0
  1 10  1  0
  1 11  1  0
  2 12  1  0
  3 13  1  0
  3 14  1  0
  5 15  1  0
  5 16  1  0
  5 17  1  0
  6 18  1  0
  7 19  1  0
  7 20  1  0
M  END
