
     RDKit          3D

 23 24  0  0  0  0  0  0  0  0999 V2000
   -2.4339   -0.0928    0.6271 C   0  0  0  0  0  0  0  0  0  0  0  0
   -1.2831   -0.2552   -0.2882 C   0  0  0  0  0  0  0  0  0  0  0  0
   -0.1073    0.6571   -0.0114 C   0  0  0  0  0  0  0  0  0  0  0  0
   -0.0230    1.8815   -0.8555 C   0  0  0  0  0  0  0  0  0  0  0  0
    0.8683   -0.4287   -0.2436 C   0  0  0  0  0  0  0  0  0  0  0  0
    2.0158   -0.4959    0.7308 C   0  0  0  0  0  0  0  0  0  0  0  0
    2.6968    0.7362    0.6252 O   0  0  0  0  0  0  0  0  0  0  0  0
    0.6443   -1.6017   -1.0912 C   0  0  0  0  0  0  0  0  0  0  0  0
   -0.3223   -1.3904    0.0006 C   0  0  0  0  0  0  0  0  0  0  0  0
   -3.3701   -0.3950    0.0715 H   0  0  0  0  0  0  0  0  0  0  0  0
   -2.3813   -0.6446    1.5658 H   0  0  0  0  0  0  0  0  0  0  0  0
   -2.5801    1.0155    0.7967 H   0  0  0  0  0  0  0  0  0  0  0  0
   -1.5744   -0.2202   -1.3552 H   0  0  0  0  0  0  0  0  0  0  0  0
   -0.1411    0.9391    1.0820 H   0  0  0  0  0  0  0  0  0  0  0  0
   -0.4751    1.6774   -1.8371 H   0  0  0  0  0  0  0  0  0  0  0  0
    0.9920    2.2869   -0.8924 H   0  0  0  0  0  0  0  0  0  0  0  0
   -0.6616    2.6691   -0.3566 H   0  0  0  0  0  0  0  0  0  0  0  0
    2.7109   -1.3009    0.4198 H   0  0  0  0  0  0  0  0  0  0  0  0
    1.7071   -0.5891    1.7755 H   0  0  0  0  0  0  0  0  0  0  0  0
    2.4171    1.3465    1.3745 H   0  0  0  0  0  0  0  0  0  0  0  0
    1.3294   -2.4523   -0.9797 H   0  0  0  0  0  0  0  0  0  0  0  0
    0.2559   -1.4744   -2.1267 H   0  0  0  0  0  0  0  0  0  0  0  0
   -0.2845   -1.8681    0.9682 H   0  0  0  0  0  0  0  0  0  0  0  0
  1  2  1  0
  2  3  1  0
  3  4  1  0
  3  5  1  0
  5  6  1  0
  6  7  1  0
  5  8  1  0
  8  9  1  0
  9  2  1  0
  9  5  1  0
  1 10  1  0
  1 11  1  0
  1 12  1  0
  2 13  1  0
  3 14  1  0
  4 15  1  0
  4 16  1  0
  4 17  1  0
  6 18  1  0
  6 19  1  0
  7 20  1  0
  8 21  1  0
  8 22  1  0
  9 23  1  0
M  END
