
     RDKit          3D

 19 19  0  0  0  0  0  0  0  0999 V2000
   -2.8004    1.2627    0.1963 C   0  0  0  0  0  0  0  0  0  0  0  0
   -1.8481    0.1287    0.5287 C   0  0  0  0  0  0  0  0  0  0  0  0
   -1.7323   -1.0082   -0.4221 C   0  0  0  0  0  0  0  0  0  0  0  0
   -0.6214   -0.0006   -0.2815 C   0  0  0  0  0  0  0  0  0  0  0  0
    0.5745   -0.5173    0.2487 O   0  0  0  0  0  0  0  0  0  0  0  0
    1.7987   -0.1875   -0.2937 C   0  0  0  0  0  0  0  0  0  0  0  0
    1.7764    0.5994   -1.2859 O   0  0  0  0  0  0  0  0  0  0  0  0
    3.0945   -0.7142    0.2390 C   0  0  0  0  0  0  0  0  0  0  0  0
    4.1268   -0.1975   -0.5200 O   0  0  0  0  0  0  0  0  0  0  0  0
   -3.1091    1.1512   -0.8664 H   0  0  0  0  0  0  0  0  0  0  0  0
   -3.6477    1.3205    0.8873 H   0  0  0  0  0  0  0  0  0  0  0  0
   -2.1920    2.2053    0.3014 H   0  0  0  0  0  0  0  0  0  0  0  0
   -1.7260   -0.0900    1.6164 H   0  0  0  0  0  0  0  0  0  0  0  0
   -2.3346   -1.0288   -1.3618 H   0  0  0  0  0  0  0  0  0  0  0  0
   -1.6162   -2.0203    0.0210 H   0  0  0  0  0  0  0  0  0  0  0  0
   -0.5482    0.6943   -1.1672 H   0  0  0  0  0  0  0  0  0  0  0  0
    3.1060   -1.8337    0.1808 H   0  0  0  0  0  0  0  0  0  0  0  0
    3.2079   -0.3999    1.2895 H   0  0  0  0  0  0  0  0  0  0  0  0
    4.4911    0.6359   -0.1055 H   0  0  0  0  0  0  0  0  0  0  0  0
  1  2  1  0
  2  3  1  0
  3  4  1  0
  4  5  1  0
  5  6  1  0
  6  7  2  0
  6  8  1  0
  8  9  1  0
  4  2  1  0
  1 10  1  0
  1 11  1  0
  1 12  1  0
  2 13  1  0
  3 14  1  0
  3 15  1  0
  4 16  1  0
  8 17  1  0
  8 18  1  0
  9 19  1  0
M  END
