
     RDKit          3D

 19 20  0  0  0  0  0  0  0  0999 V2000
    2.2437    0.6924    0.1291 C   0  0  0  0  0  0  0  0  0  0  0  0
    1.2346   -0.0341   -0.6851 C   0  0  0  0  0  0  0  0  0  0  0  0
    0.6909   -1.3378   -0.0632 C   0  0  0  0  0  0  0  0  0  0  0  0
   -0.3460   -0.4588    0.5392 C   0  0  0  0  0  0  0  0  0  0  0  0
   -1.7937   -0.7734    0.4124 C   0  0  0  0  0  0  0  0  0  0  0  0
   -2.2993    0.6415    0.1821 C   0  0  0  0  0  0  0  0  0  0  0  0
   -3.2910    1.2285    0.6135 O   0  0  0  0  0  0  0  0  0  0  0  0
   -1.2936    1.1858   -0.7154 C   0  0  0  0  0  0  0  0  0  0  0  0
   -0.1634    0.5356   -0.6081 C   0  0  0  0  0  0  0  0  0  0  0  0
    1.9684    1.7883    0.0982 H   0  0  0  0  0  0  0  0  0  0  0  0
    3.2612    0.6100   -0.2967 H   0  0  0  0  0  0  0  0  0  0  0  0
    2.2325    0.4056    1.2116 H   0  0  0  0  0  0  0  0  0  0  0  0
    1.5799   -0.1819   -1.7209 H   0  0  0  0  0  0  0  0  0  0  0  0
    0.3686   -2.0706   -0.8035 H   0  0  0  0  0  0  0  0  0  0  0  0
    1.4042   -1.6945    0.6957 H   0  0  0  0  0  0  0  0  0  0  0  0
   -0.0750   -0.0097    1.5152 H   0  0  0  0  0  0  0  0  0  0  0  0
   -2.2448   -1.1606    1.3409 H   0  0  0  0  0  0  0  0  0  0  0  0
   -2.0245   -1.3886   -0.4570 H   0  0  0  0  0  0  0  0  0  0  0  0
   -1.4528    2.0222   -1.3880 H   0  0  0  0  0  0  0  0  0  0  0  0
  1  2  1  0
  2  3  1  0
  3  4  1  0
  4  5  1  0
  5  6  1  0
  6  7  2  0
  6  8  1  0
  8  9  2  0
  9  2  1  0
  9  4  1  0
  1 10  1  0
  1 11  1  0
  1 12  1  0
  2 13  1  0
  3 14  1  0
  3 15  1  0
  4 16  1  0
  5 17  1  0
  5 18  1  0
  8 19  1  0
M  END
