
     RDKit          3D

 23 24  0  0  0  0  0  0  0  0999 V2000
   -1.8706    1.3145   -0.0109 C   0  0  0  0  0  0  0  0  0  0  0  0
   -1.1372    0.1666   -0.5422 C   0  0  0  0  0  0  0  0  0  0  0  0
   -0.2206   -0.5957    0.3769 C   0  0  0  0  0  0  0  0  0  0  0  0
   -0.5621   -1.3174    1.4872 C   0  0  0  0  0  0  0  0  0  0  0  0
    0.3522   -1.1097   -0.9160 C   0  0  0  0  0  0  0  0  0  0  0  0
    0.2304    0.3825   -1.1364 C   0  0  0  0  0  0  0  0  0  0  0  0
    0.5324    1.0265   -2.1646 O   0  0  0  0  0  0  0  0  0  0  0  0
    0.7363    0.5520    0.2660 C   0  0  0  0  0  0  0  0  0  0  0  0
    2.1731    0.2762    0.5086 C   0  0  0  0  0  0  0  0  0  0  0  0
   -1.3241    2.2711    0.0501 H   0  0  0  0  0  0  0  0  0  0  0  0
   -2.7535    1.5173   -0.6768 H   0  0  0  0  0  0  0  0  0  0  0  0
   -2.3321    1.0750    0.9915 H   0  0  0  0  0  0  0  0  0  0  0  0
   -1.7918   -0.5302   -1.1067 H   0  0  0  0  0  0  0  0  0  0  0  0
   -0.2897   -0.8232    2.4671 H   0  0  0  0  0  0  0  0  0  0  0  0
   -1.6568   -1.5410    1.6028 H   0  0  0  0  0  0  0  0  0  0  0  0
   -0.0733   -2.3322    1.5684 H   0  0  0  0  0  0  0  0  0  0  0  0
   -0.4334   -1.7091   -1.4434 H   0  0  0  0  0  0  0  0  0  0  0  0
    1.3341   -1.5385   -0.9110 H   0  0  0  0  0  0  0  0  0  0  0  0
    0.9296    0.6785   -2.9817 H   0  0  0  0  0  0  0  0  0  0  0  0
    0.4212    1.4864    0.7732 H   0  0  0  0  0  0  0  0  0  0  0  0
    2.8026    0.7669   -0.2906 H   0  0  0  0  0  0  0  0  0  0  0  0
    2.4981    0.7724    1.4549 H   0  0  0  0  0  0  0  0  0  0  0  0
    2.4354   -0.7888    0.6336 H   0  0  0  0  0  0  0  0  0  0  0  0
  1  2  1  0
  2  3  1  0
  3  4  1  0
  3  5  1  0
  5  6  1  0
  6  7  1  0
  6  8  1  0
  8  9  1  0
  6  2  1  0
  8  3  1  0
  1 10  1  0
  1 11  1  0
  1 12  1  0
  2 13  1  0
  4 14  1  0
  4 15  1  0
  4 16  1  0
  5 17  1  0
  5 18  1  0
  7 19  1  0
  8 20  1  0
  9 21  1  0
  9 22  1  0
  9 23  1  0
M  END
