
     RDKit          3D

 21 22  0  0  0  0  0  0  0  0999 V2000
   -1.4077   -1.5278   -0.0216 C   0  0  0  0  0  0  0  0  0  0  0  0
   -0.8040   -0.2556   -0.5886 C   0  0  0  0  0  0  0  0  0  0  0  0
   -1.5501    0.9503   -0.0754 C   0  0  0  0  0  0  0  0  0  0  0  0
   -0.5460    1.5339    0.9219 C   0  0  0  0  0  0  0  0  0  0  0  0
    0.2730    0.4324    1.2663 O   0  0  0  0  0  0  0  0  0  0  0  0
    0.5487   -0.0829    0.0223 C   0  0  0  0  0  0  0  0  0  0  0  0
    1.6519    0.6114   -0.7225 C   0  0  0  0  0  0  0  0  0  0  0  0
    1.7316   -0.8148   -0.3511 C   0  0  0  0  0  0  0  0  0  0  0  0
    2.6998   -1.2296    0.5633 O   0  0  0  0  0  0  0  0  0  0  0  0
   -2.5043   -1.5389   -0.0606 H   0  0  0  0  0  0  0  0  0  0  0  0
   -0.9245   -2.4084   -0.4671 H   0  0  0  0  0  0  0  0  0  0  0  0
   -1.1383   -1.5479    1.0680 H   0  0  0  0  0  0  0  0  0  0  0  0
   -0.7201   -0.2665   -1.6813 H   0  0  0  0  0  0  0  0  0  0  0  0
   -1.7688    1.6665   -0.8961 H   0  0  0  0  0  0  0  0  0  0  0  0
   -2.4330    0.6091    0.4696 H   0  0  0  0  0  0  0  0  0  0  0  0
    0.1426    2.2276    0.3698 H   0  0  0  0  0  0  0  0  0  0  0  0
   -1.0236    1.9881    1.7858 H   0  0  0  0  0  0  0  0  0  0  0  0
    1.4671    0.9720   -1.7343 H   0  0  0  0  0  0  0  0  0  0  0  0
    2.3310    1.2840   -0.1209 H   0  0  0  0  0  0  0  0  0  0  0  0
    1.6386   -1.5367   -1.2093 H   0  0  0  0  0  0  0  0  0  0  0  0
    2.3362   -1.0663    1.4616 H   0  0  0  0  0  0  0  0  0  0  0  0
  1  2  1  0
  2  3  1  0
  3  4  1  0
  4  5  1  0
  5  6  1  0
  6  7  1  0
  7  8  1  0
  8  9  1  0
  6  2  1  0
  8  6  1  0
  1 10  1  0
  1 11  1  0
  1 12  1  0
  2 13  1  0
  3 14  1  0
  3 15  1  0
  4 16  1  0
  4 17  1  0
  7 18  1  0
  7 19  1  0
  8 20  1  0
  9 21  1  0
M  END
