
     RDKit          3D

 20 21  0  0  0  0  0  0  0  0999 V2000
   -2.4643   -0.1729   -0.1039 C   0  0  0  0  0  0  0  0  0  0  0  0
   -1.0561   -0.5490    0.0297 C   0  0  0  0  0  0  0  0  0  0  0  0
   -0.0600   -0.0564   -0.9705 C   0  0  0  0  0  0  0  0  0  0  0  0
   -0.1703    1.2868   -0.3160 C   0  0  0  0  0  0  0  0  0  0  0  0
   -0.1463    0.3367    0.8327 C   0  0  0  0  0  0  0  0  0  0  0  0
    0.9442   -0.3996    0.0963 C   0  0  0  0  0  0  0  0  0  0  0  0
    2.2722    0.2209    0.0360 C   0  0  0  0  0  0  0  0  0  0  0  0
    1.0028   -1.7671    0.3875 O   0  0  0  0  0  0  0  0  0  0  0  0
   -3.0433   -1.0793   -0.4369 H   0  0  0  0  0  0  0  0  0  0  0  0
   -2.8893    0.0655    0.9114 H   0  0  0  0  0  0  0  0  0  0  0  0
   -2.7129    0.6264   -0.8014 H   0  0  0  0  0  0  0  0  0  0  0  0
   -0.9276   -1.6050    0.3474 H   0  0  0  0  0  0  0  0  0  0  0  0
   -0.0029   -0.2666   -1.9466 H   0  0  0  0  0  0  0  0  0  0  0  0
   -1.1091    1.8273   -0.4180 H   0  0  0  0  0  0  0  0  0  0  0  0
    0.6807    1.9688   -0.4365 H   0  0  0  0  0  0  0  0  0  0  0  0
   -0.1878    0.5278    1.8124 H   0  0  0  0  0  0  0  0  0  0  0  0
    2.3683    1.2289    0.4412 H   0  0  0  0  0  0  0  0  0  0  0  0
    2.6513    0.1891   -1.0259 H   0  0  0  0  0  0  0  0  0  0  0  0
    2.9979   -0.4185    0.6098 H   0  0  0  0  0  0  0  0  0  0  0  0
    1.8525   -1.9637    0.8778 H   0  0  0  0  0  0  0  0  0  0  0  0
  1  2  1  0
  2  3  1  0
  3  4  1  0
  4  5  1  0
  5  6  1  0
  6  7  1  0
  6  8  1  0
  5  2  1  0
  6  3  1  0
  1  9  1  0
  1 10  1  0
  1 11  1  0
  2 12  1  0
  3 13  1  0
  4 14  1  0
  4 15  1  0
  5 16  1  0
  7 17  1  0
  7 18  1  0
  7 19  1  0
  8 20  1  0
M  END
