
     RDKit          3D

 17 18  0  0  0  0  0  0  0  0999 V2000
    2.0694   -0.3984   -0.0441 C   0  0  0  0  0  0  0  0  0  0  0  0
    0.6852   -0.0693    0.4495 C   0  0  0  0  0  0  0  0  0  0  0  0
    0.3867    1.3767    0.3952 C   0  0  0  0  0  0  0  0  0  0  0  0
    1.1991    2.3546    0.5304 O   0  0  0  0  0  0  0  0  0  0  0  0
   -1.0503    1.4598    0.1513 C   0  0  0  0  0  0  0  0  0  0  0  0
   -1.7941    2.4487    0.4651 O   0  0  0  0  0  0  0  0  0  0  0  0
   -1.5231    0.2443   -0.5070 C   0  0  0  0  0  0  0  0  0  0  0  0
   -1.6246   -1.0560    0.1524 C   0  0  0  0  0  0  0  0  0  0  0  0
   -0.3239   -0.6572   -0.4871 C   0  0  0  0  0  0  0  0  0  0  0  0
    2.8501    0.0258    0.6114 H   0  0  0  0  0  0  0  0  0  0  0  0
    2.1766   -1.5026    0.0148 H   0  0  0  0  0  0  0  0  0  0  0  0
    2.1958   -0.1324   -1.1137 H   0  0  0  0  0  0  0  0  0  0  0  0
    0.5758   -0.4674    1.4783 H   0  0  0  0  0  0  0  0  0  0  0  0
   -1.9595    0.4169   -1.5280 H   0  0  0  0  0  0  0  0  0  0  0  0
   -1.6691   -1.0758    1.2665 H   0  0  0  0  0  0  0  0  0  0  0  0
   -2.1859   -1.8421   -0.3957 H   0  0  0  0  0  0  0  0  0  0  0  0
   -0.0080   -1.1256   -1.4393 H   0  0  0  0  0  0  0  0  0  0  0  0
  1  2  1  0
  2  3  1  0
  3  4  2  0
  3  5  1  0
  5  6  2  0
  5  7  1  0
  7  8  1  0
  8  9  1  0
  9  2  1  0
  9  7  1  0
  1 10  1  0
  1 11  1  0
  1 12  1  0
  2 13  1  0
  7 14  1  0
  8 15  1  0
  8 16  1  0
  9 17  1  0
M  END
