
     RDKit          3D

 18 18  0  0  0  0  0  0  0  0999 V2000
    2.3251   -0.3194   -0.1177 C   0  0  0  0  0  0  0  0  0  0  0  0
    0.8482   -0.1440   -0.3518 C   0  0  0  0  0  0  0  0  0  0  0  0
    0.3294    1.1617    0.2534 C   0  0  0  0  0  0  0  0  0  0  0  0
   -1.1236    1.2028   -0.0138 C   0  0  0  0  0  0  0  0  0  0  0  0
   -1.6728    2.1681   -0.4908 O   0  0  0  0  0  0  0  0  0  0  0  0
   -1.9330    0.0101    0.3187 C   0  0  0  0  0  0  0  0  0  0  0  0
   -1.1627   -1.2503   -0.0518 C   0  0  0  0  0  0  0  0  0  0  0  0
    0.1720   -1.1735    0.2477 O   0  0  0  0  0  0  0  0  0  0  0  0
    2.7671    0.4966    0.5003 H   0  0  0  0  0  0  0  0  0  0  0  0
    2.8982   -0.4070   -1.0842 H   0  0  0  0  0  0  0  0  0  0  0  0
    2.5634   -1.2646    0.4353 H   0  0  0  0  0  0  0  0  0  0  0  0
    0.6228   -0.0673   -1.4525 H   0  0  0  0  0  0  0  0  0  0  0  0
    0.5474    1.1912    1.3517 H   0  0  0  0  0  0  0  0  0  0  0  0
    0.7998    2.0408   -0.2071 H   0  0  0  0  0  0  0  0  0  0  0  0
   -2.1275   -0.0371    1.4294 H   0  0  0  0  0  0  0  0  0  0  0  0
   -2.8909   -0.0253   -0.2176 H   0  0  0  0  0  0  0  0  0  0  0  0
   -1.3617   -1.5198   -1.1244 H   0  0  0  0  0  0  0  0  0  0  0  0
   -1.6012   -2.0628    0.5751 H   0  0  0  0  0  0  0  0  0  0  0  0
  1  2  1  0
  2  3  1  0
  3  4  1  0
  4  5  2  0
  4  6  1  0
  6  7  1  0
  7  8  1  0
  8  2  1  0
  1  9  1  0
  1 10  1  0
  1 11  1  0
  2 12  1  0
  3 13  1  0
  3 14  1  0
  6 15  1  0
  6 16  1  0
  7 17  1  0
  7 18  1  0
M  END
