
     RDKit          3D

 21 22  0  0  0  0  0  0  0  0999 V2000
   -2.3564   -0.6114    0.1775 C   0  0  0  0  0  0  0  0  0  0  0  0
   -0.9019   -0.6056    0.5058 C   0  0  0  0  0  0  0  0  0  0  0  0
   -0.0526   -1.6096   -0.1323 C   0  0  0  0  0  0  0  0  0  0  0  0
    0.0193   -2.7899   -0.3582 O   0  0  0  0  0  0  0  0  0  0  0  0
    0.8762   -0.4783   -0.4802 C   0  0  0  0  0  0  0  0  0  0  0  0
    2.2345   -0.4347    0.1074 C   0  0  0  0  0  0  0  0  0  0  0  0
    0.3853    0.4329   -1.5141 C   0  0  0  0  0  0  0  0  0  0  0  0
   -0.1815    0.5036   -0.1671 C   0  0  0  0  0  0  0  0  0  0  0  0
    0.0434    1.7365    0.6249 C   0  0  0  0  0  0  0  0  0  0  0  0
   -2.7306    0.4398    0.3621 H   0  0  0  0  0  0  0  0  0  0  0  0
   -2.8700   -1.2477    0.9388 H   0  0  0  0  0  0  0  0  0  0  0  0
   -2.5923   -0.8942   -0.8517 H   0  0  0  0  0  0  0  0  0  0  0  0
   -0.7553   -0.6055    1.6254 H   0  0  0  0  0  0  0  0  0  0  0  0
    2.4291    0.4697    0.7354 H   0  0  0  0  0  0  0  0  0  0  0  0
    3.0579   -0.5253   -0.6225 H   0  0  0  0  0  0  0  0  0  0  0  0
    2.3490   -1.2991    0.8153 H   0  0  0  0  0  0  0  0  0  0  0  0
   -0.1903   -0.0373   -2.3483 H   0  0  0  0  0  0  0  0  0  0  0  0
    1.0515    1.2412   -1.8257 H   0  0  0  0  0  0  0  0  0  0  0  0
    0.7020    1.6280    1.4982 H   0  0  0  0  0  0  0  0  0  0  0  0
    0.4510    2.5614   -0.0293 H   0  0  0  0  0  0  0  0  0  0  0  0
   -0.9684    2.1255    0.9383 H   0  0  0  0  0  0  0  0  0  0  0  0
  1  2  1  0
  2  3  1  0
  3  4  2  0
  3  5  1  0
  5  6  1  0
  5  7  1  0
  7  8  1  0
  8  9  1  0
  8  2  1  0
  8  5  1  0
  1 10  1  0
  1 11  1  0
  1 12  1  0
  2 13  1  0
  6 14  1  0
  6 15  1  0
  6 16  1  0
  7 17  1  0
  7 18  1  0
  9 19  1  0
  9 20  1  0
  9 21  1  0
M  END
