
     RDKit          3D

 21 22  0  0  0  0  0  0  0  0999 V2000
    1.7824   -0.0166    0.6359 C   0  0  0  0  0  0  0  0  0  0  0  0
    0.8553   -0.3367   -0.5371 C   0  0  0  0  0  0  0  0  0  0  0  0
    0.2946   -1.7033   -0.3475 C   0  0  0  0  0  0  0  0  0  0  0  0
   -1.0289   -1.7683   -0.0386 O   0  0  0  0  0  0  0  0  0  0  0  0
   -1.5465   -0.6556    0.5853 C   0  0  0  0  0  0  0  0  0  0  0  0
   -1.5200    0.4739   -0.4060 C   0  0  0  0  0  0  0  0  0  0  0  0
   -1.6708    1.7028    0.1858 O   0  0  0  0  0  0  0  0  0  0  0  0
   -0.2653    1.8581    0.1243 C   0  0  0  0  0  0  0  0  0  0  0  0
   -0.1193    0.7284   -0.8291 C   0  0  0  0  0  0  0  0  0  0  0  0
    1.4004   -0.4682    1.5833 H   0  0  0  0  0  0  0  0  0  0  0  0
    2.7739   -0.5299    0.4656 H   0  0  0  0  0  0  0  0  0  0  0  0
    2.0069    1.0474    0.7180 H   0  0  0  0  0  0  0  0  0  0  0  0
    1.5539   -0.3957   -1.4262 H   0  0  0  0  0  0  0  0  0  0  0  0
    0.8571   -2.2463    0.4678 H   0  0  0  0  0  0  0  0  0  0  0  0
    0.4554   -2.3567   -1.2543 H   0  0  0  0  0  0  0  0  0  0  0  0
   -2.5926   -0.9051    0.9019 H   0  0  0  0  0  0  0  0  0  0  0  0
   -0.9982   -0.4267    1.5107 H   0  0  0  0  0  0  0  0  0  0  0  0
   -2.1881    0.2404   -1.2573 H   0  0  0  0  0  0  0  0  0  0  0  0
    0.1387    1.7556    1.1297 H   0  0  0  0  0  0  0  0  0  0  0  0
   -0.0799    2.8780   -0.3252 H   0  0  0  0  0  0  0  0  0  0  0  0
   -0.1091    1.1246   -1.8871 H   0  0  0  0  0  0  0  0  0  0  0  0
  1  2  1  0
  2  3  1  0
  3  4  1  0
  4  5  1  0
  5  6  1  0
  6  7  1  0
  7  8  1  0
  8  9  1  0
  9  2  1  0
  9  6  1  0
  1 10  1  0
  1 11  1  0
  1 12  1  0
  2 13  1  0
  3 14  1  0
  3 15  1  0
  5 16  1  0
  5 17  1  0
  6 18  1  0
  8 19  1  0
  8 20  1  0
  9 21  1  0
M  END
