
     RDKit          3D

 19 20  0  0  0  0  0  0  0  0999 V2000
    2.5799    0.2744   -0.0858 C   0  0  0  0  0  0  0  0  0  0  0  0
    1.5544   -0.1021    0.9194 C   0  0  0  0  0  0  0  0  0  0  0  0
    0.7472   -1.3092    0.5270 C   0  0  0  0  0  0  0  0  0  0  0  0
   -0.4223   -0.9356    0.0520 C   0  0  0  0  0  0  0  0  0  0  0  0
   -1.8035   -0.7394   -0.5190 C   0  0  0  0  0  0  0  0  0  0  0  0
   -1.8227    0.5187    0.3977 C   0  0  0  0  0  0  0  0  0  0  0  0
   -2.5998    1.5434   -0.1123 O   0  0  0  0  0  0  0  0  0  0  0  0
   -0.3600    0.5791    0.0566 C   0  0  0  0  0  0  0  0  0  0  0  0
    0.5479    0.8790    1.0585 O   0  0  0  0  0  0  0  0  0  0  0  0
    2.4378   -0.3321   -1.0005 H   0  0  0  0  0  0  0  0  0  0  0  0
    3.6276    0.1481    0.2453 H   0  0  0  0  0  0  0  0  0  0  0  0
    2.4553    1.3572   -0.3188 H   0  0  0  0  0  0  0  0  0  0  0  0
    2.0072   -0.3187    1.9020 H   0  0  0  0  0  0  0  0  0  0  0  0
    1.0782   -2.3287    0.6211 H   0  0  0  0  0  0  0  0  0  0  0  0
   -2.5357   -1.4934   -0.2352 H   0  0  0  0  0  0  0  0  0  0  0  0
   -1.7735   -0.4036   -1.5569 H   0  0  0  0  0  0  0  0  0  0  0  0
   -2.0154    0.2466    1.4618 H   0  0  0  0  0  0  0  0  0  0  0  0
   -3.5249    1.3943    0.2408 H   0  0  0  0  0  0  0  0  0  0  0  0
   -0.1778    1.0222   -0.9295 H   0  0  0  0  0  0  0  0  0  0  0  0
  1  2  1  0
  2  3  1  0
  3  4  2  0
  4  5  1  0
  5  6  1  0
  6  7  1  0
  6  8  1  0
  8  9  1  0
  9  2  1  0
  8  4  1  0
  1 10  1  0
  1 11  1  0
  1 12  1  0
  2 13  1  0
  3 14  1  0
  5 15  1  0
  5 16  1  0
  6 17  1  0
  7 18  1  0
  8 19  1  0
M  END
