
     RDKit          3D

 25 26  0  0  0  0  0  0  0  0999 V2000
    2.1282   -1.2643    0.3954 C   0  0  0  0  0  0  0  0  0  0  0  0
    2.1363   -0.0767   -0.5250 C   0  0  0  0  0  0  0  0  0  0  0  0
    1.8947    1.2838    0.1046 C   0  0  0  0  0  0  0  0  0  0  0  0
    0.9734    0.6575   -0.9614 C   0  0  0  0  0  0  0  0  0  0  0  0
   -0.4206    0.5800   -0.5696 C   0  0  0  0  0  0  0  0  0  0  0  0
   -0.8185    0.8139    0.8354 C   0  0  0  0  0  0  0  0  0  0  0  0
   -2.1577    0.0916    1.0082 C   0  0  0  0  0  0  0  0  0  0  0  0
   -2.4402   -0.6441   -0.2549 C   0  0  0  0  0  0  0  0  0  0  0  0
   -1.0682   -0.7815   -0.8864 C   0  0  0  0  0  0  0  0  0  0  0  0
    1.7825   -2.2003   -0.1064 H   0  0  0  0  0  0  0  0  0  0  0  0
    3.1931   -1.5031    0.6977 H   0  0  0  0  0  0  0  0  0  0  0  0
    1.6198   -1.0847    1.3648 H   0  0  0  0  0  0  0  0  0  0  0  0
    3.0304   -0.0615   -1.1841 H   0  0  0  0  0  0  0  0  0  0  0  0
    2.5048    2.1520   -0.1960 H   0  0  0  0  0  0  0  0  0  0  0  0
    1.6069    1.2798    1.1491 H   0  0  0  0  0  0  0  0  0  0  0  0
    1.0828    1.1603   -1.9762 H   0  0  0  0  0  0  0  0  0  0  0  0
   -1.0237    1.2963   -1.1752 H   0  0  0  0  0  0  0  0  0  0  0  0
   -1.0189    1.8994    1.0070 H   0  0  0  0  0  0  0  0  0  0  0  0
   -0.1839    0.4648    1.6256 H   0  0  0  0  0  0  0  0  0  0  0  0
   -2.9761    0.8068    1.2370 H   0  0  0  0  0  0  0  0  0  0  0  0
   -2.1206   -0.6564    1.8336 H   0  0  0  0  0  0  0  0  0  0  0  0
   -2.8455   -1.6426   -0.0801 H   0  0  0  0  0  0  0  0  0  0  0  0
   -3.1361   -0.0795   -0.9065 H   0  0  0  0  0  0  0  0  0  0  0  0
   -1.2280   -0.8802   -1.9799 H   0  0  0  0  0  0  0  0  0  0  0  0
   -0.5149   -1.6116   -0.4566 H   0  0  0  0  0  0  0  0  0  0  0  0
  1  2  1  0
  2  3  1  0
  3  4  1  0
  4  5  1  0
  5  6  1  0
  6  7  1  0
  7  8  1  0
  8  9  1  0
  4  2  1  0
  9  5  1  0
  1 10  1  0
  1 11  1  0
  1 12  1  0
  2 13  1  0
  3 14  1  0
  3 15  1  0
  4 16  1  0
  5 17  1  0
  6 18  1  0
  6 19  1  0
  7 20  1  0
  7 21  1  0
  8 22  1  0
  8 23  1  0
  9 24  1  0
  9 25  1  0
M  END
