
     RDKit          3D

 21 21  0  0  0  0  0  0  0  0999 V2000
   -3.1120    0.2771    0.4072 C   0  0  0  0  0  0  0  0  0  0  0  0
   -2.1049    0.0470   -0.6804 C   0  0  0  0  0  0  0  0  0  0  0  0
   -0.9603    1.0465   -0.5640 C   0  0  0  0  0  0  0  0  0  0  0  0
   -0.3414    0.0677    0.4421 C   0  0  0  0  0  0  0  0  0  0  0  0
    1.0916   -0.0552    0.3654 C   0  0  0  0  0  0  0  0  0  0  0  0
    2.2909   -0.1609    0.2936 C   0  0  0  0  0  0  0  0  0  0  0  0
    3.7643   -0.2756    0.1877 C   0  0  0  0  0  0  0  0  0  0  0  0
    4.3680    0.2831    1.3370 O   0  0  0  0  0  0  0  0  0  0  0  0
   -1.0582   -1.0240   -0.3373 C   0  0  0  0  0  0  0  0  0  0  0  0
   -2.7586    0.9497    1.2108 H   0  0  0  0  0  0  0  0  0  0  0  0
   -3.4395   -0.6634    0.8963 H   0  0  0  0  0  0  0  0  0  0  0  0
   -4.0045    0.7513   -0.0469 H   0  0  0  0  0  0  0  0  0  0  0  0
   -2.5588   -0.0480   -1.6619 H   0  0  0  0  0  0  0  0  0  0  0  0
   -0.3586    1.0346   -1.5061 H   0  0  0  0  0  0  0  0  0  0  0  0
   -1.2187    2.0228   -0.1614 H   0  0  0  0  0  0  0  0  0  0  0  0
   -0.7266    0.1848    1.4681 H   0  0  0  0  0  0  0  0  0  0  0  0
    4.0254   -1.3241    0.0434 H   0  0  0  0  0  0  0  0  0  0  0  0
    4.0700    0.3774   -0.6791 H   0  0  0  0  0  0  0  0  0  0  0  0
    5.0772   -0.3431    1.6815 H   0  0  0  0  0  0  0  0  0  0  0  0
   -0.5474   -1.3294   -1.2515 H   0  0  0  0  0  0  0  0  0  0  0  0
   -1.4979   -1.8184    0.2942 H   0  0  0  0  0  0  0  0  0  0  0  0
  1  2  1  0
  2  3  1  0
  3  4  1  0
  4  5  1  0
  5  6  3  0
  6  7  1  0
  7  8  1  0
  4  9  1  0
  9  2  1  0
  1 10  1  0
  1 11  1  0
  1 12  1  0
  2 13  1  0
  3 14  1  0
  3 15  1  0
  4 16  1  0
  7 17  1  0
  7 18  1  0
  8 19  1  0
  9 20  1  0
  9 21  1  0
M  END
