
     RDKit          3D

 23 24  0  0  0  0  0  0  0  0999 V2000
    2.7551    0.4170    0.2971 C   0  0  0  0  0  0  0  0  0  0  0  0
    1.8019   -0.4116   -0.5314 C   0  0  0  0  0  0  0  0  0  0  0  0
    0.5342    0.2101   -0.8836 C   0  0  0  0  0  0  0  0  0  0  0  0
   -0.1215    1.3244   -0.1348 C   0  0  0  0  0  0  0  0  0  0  0  0
   -1.6112    0.9952   -0.2112 C   0  0  0  0  0  0  0  0  0  0  0  0
   -1.8943   -0.3598    0.3731 C   0  0  0  0  0  0  0  0  0  0  0  0
   -1.4856   -1.5060   -0.4757 C   0  0  0  0  0  0  0  0  0  0  0  0
   -0.1963   -1.9280   -0.3606 O   0  0  0  0  0  0  0  0  0  0  0  0
    0.6133   -0.9458    0.1340 C   0  0  0  0  0  0  0  0  0  0  0  0
    2.4077    1.4824    0.3303 H   0  0  0  0  0  0  0  0  0  0  0  0
    3.7799    0.4078   -0.0765 H   0  0  0  0  0  0  0  0  0  0  0  0
    2.6872    0.0635    1.3638 H   0  0  0  0  0  0  0  0  0  0  0  0
    2.3070   -1.0030   -1.3129 H   0  0  0  0  0  0  0  0  0  0  0  0
    0.1106    0.0161   -1.8730 H   0  0  0  0  0  0  0  0  0  0  0  0
    0.1660    1.2832    0.9476 H   0  0  0  0  0  0  0  0  0  0  0  0
    0.1026    2.3196   -0.5043 H   0  0  0  0  0  0  0  0  0  0  0  0
   -1.9449    1.0924   -1.2589 H   0  0  0  0  0  0  0  0  0  0  0  0
   -2.1265    1.7555    0.4076 H   0  0  0  0  0  0  0  0  0  0  0  0
   -1.4929   -0.3821    1.3994 H   0  0  0  0  0  0  0  0  0  0  0  0
   -3.0144   -0.4186    0.4937 H   0  0  0  0  0  0  0  0  0  0  0  0
   -2.1488   -2.3798   -0.2024 H   0  0  0  0  0  0  0  0  0  0  0  0
   -1.7338   -1.2932   -1.5386 H   0  0  0  0  0  0  0  0  0  0  0  0
    0.5044   -0.7393    1.1975 H   0  0  0  0  0  0  0  0  0  0  0  0
  1  2  1  0
  2  3  1  0
  3  4  1  0
  4  5  1  0
  5  6  1  0
  6  7  1  0
  7  8  1  0
  8  9  1  0
  9  2  1  0
  9  3  1  0
  1 10  1  0
  1 11  1  0
  1 12  1  0
  2 13  1  0
  3 14  1  0
  4 15  1  0
  4 16  1  0
  5 17  1  0
  5 18  1  0
  6 19  1  0
  6 20  1  0
  7 21  1  0
  7 22  1  0
  9 23  1  0
M  END
