
     RDKit          3D

 21 22  0  0  0  0  0  0  0  0999 V2000
    2.2537   -0.9542   -0.1012 C   0  0  0  0  0  0  0  0  0  0  0  0
    0.8249   -0.9485    0.2491 C   0  0  0  0  0  0  0  0  0  0  0  0
   -0.1596   -1.0170   -0.8577 C   0  0  0  0  0  0  0  0  0  0  0  0
   -0.2480   -1.5889   -1.9213 O   0  0  0  0  0  0  0  0  0  0  0  0
   -0.9850   -0.0899   -0.1075 C   0  0  0  0  0  0  0  0  0  0  0  0
   -2.0882    0.6840   -0.5746 C   0  0  0  0  0  0  0  0  0  0  0  0
   -2.2722   -0.4171    0.5150 C   0  0  0  0  0  0  0  0  0  0  0  0
    0.2085    0.3769    0.6468 C   0  0  0  0  0  0  0  0  0  0  0  0
    0.8927    1.5867    0.0694 C   0  0  0  0  0  0  0  0  0  0  0  0
    2.8405   -1.2572    0.8116 H   0  0  0  0  0  0  0  0  0  0  0  0
    2.6805   -0.0176   -0.4525 H   0  0  0  0  0  0  0  0  0  0  0  0
    2.4439   -1.7761   -0.8395 H   0  0  0  0  0  0  0  0  0  0  0  0
    0.5968   -1.7435    1.0128 H   0  0  0  0  0  0  0  0  0  0  0  0
   -2.2143    1.7338   -0.2102 H   0  0  0  0  0  0  0  0  0  0  0  0
   -2.5997    0.5069   -1.5284 H   0  0  0  0  0  0  0  0  0  0  0  0
   -2.8699   -1.2873    0.2318 H   0  0  0  0  0  0  0  0  0  0  0  0
   -2.4822   -0.0308    1.5238 H   0  0  0  0  0  0  0  0  0  0  0  0
    0.0975    0.4347    1.7302 H   0  0  0  0  0  0  0  0  0  0  0  0
    0.7802    1.6345   -1.0425 H   0  0  0  0  0  0  0  0  0  0  0  0
    1.9454    1.6920    0.3855 H   0  0  0  0  0  0  0  0  0  0  0  0
    0.3546    2.4785    0.4593 H   0  0  0  0  0  0  0  0  0  0  0  0
  1  2  1  0
  2  3  1  0
  3  4  2  0
  3  5  1  0
  5  6  1  0
  6  7  1  0
  5  8  1  0
  8  9  1  0
  8  2  1  0
  7  5  1  0
  1 10  1  0
  1 11  1  0
  1 12  1  0
  2 13  1  0
  6 14  1  0
  6 15  1  0
  7 16  1  0
  7 17  1  0
  8 18  1  0
  9 19  1  0
  9 20  1  0
  9 21  1  0
M  END
