
     RDKit          3D

 15 16  0  0  0  0  0  0  0  0999 V2000
    1.9247   -0.0754   -0.2471 C   0  0  0  0  0  0  0  0  0  0  0  0
    0.6461   -0.5153    0.4629 C   0  0  0  0  0  0  0  0  0  0  0  0
   -0.2222    0.4827    1.1244 C   0  0  0  0  0  0  0  0  0  0  0  0
   -0.3227    1.7992    0.6084 O   0  0  0  0  0  0  0  0  0  0  0  0
   -0.7309    1.3492   -0.6324 C   0  0  0  0  0  0  0  0  0  0  0  0
   -1.0492    1.9369   -1.6793 O   0  0  0  0  0  0  0  0  0  0  0  0
   -0.6305   -0.0395   -0.2003 C   0  0  0  0  0  0  0  0  0  0  0  0
   -1.7397   -0.9849   -0.3555 C   0  0  0  0  0  0  0  0  0  0  0  0
   -2.3526   -1.3462    0.6177 O   0  0  0  0  0  0  0  0  0  0  0  0
    2.2345    0.9365    0.1010 H   0  0  0  0  0  0  0  0  0  0  0  0
    2.7198   -0.8299   -0.0482 H   0  0  0  0  0  0  0  0  0  0  0  0
    1.6679   -0.0482   -1.3463 H   0  0  0  0  0  0  0  0  0  0  0  0
    0.5870   -1.5391    0.8594 H   0  0  0  0  0  0  0  0  0  0  0  0
   -0.7220    0.2306    2.0566 H   0  0  0  0  0  0  0  0  0  0  0  0
   -2.0101   -1.3566   -1.3211 H   0  0  0  0  0  0  0  0  0  0  0  0
  1  2  1  0
  2  3  1  0
  3  4  1  0
  4  5  1  0
  5  6  2  0
  5  7  1  0
  7  8  1  0
  8  9  2  0
  7  2  1  0
  7  3  1  0
  1 10  1  0
  1 11  1  0
  1 12  1  0
  2 13  1  0
  3 14  1  0
  8 15  1  0
M  END
