
     RDKit          3D

 21 22  0  0  0  0  0  0  0  0999 V2000
    1.8455   -0.2217    0.2305 C   0  0  0  0  0  0  0  0  0  0  0  0
    0.6919   -0.1726   -0.7376 C   0  0  0  0  0  0  0  0  0  0  0  0
   -0.1456   -1.4012   -0.5193 C   0  0  0  0  0  0  0  0  0  0  0  0
   -1.5864   -0.9945   -0.8245 C   0  0  0  0  0  0  0  0  0  0  0  0
   -1.3228   -0.0562    0.3647 C   0  0  0  0  0  0  0  0  0  0  0  0
   -0.5338   -1.1914    0.9178 C   0  0  0  0  0  0  0  0  0  0  0  0
   -0.2566   -1.7577    1.9329 O   0  0  0  0  0  0  0  0  0  0  0  0
   -0.3470    0.8744   -0.2918 C   0  0  0  0  0  0  0  0  0  0  0  0
    0.1783    1.9492    0.5313 C   0  0  0  0  0  0  0  0  0  0  0  0
    2.4004   -1.1702    0.0285 H   0  0  0  0  0  0  0  0  0  0  0  0
    2.5796    0.5882    0.0800 H   0  0  0  0  0  0  0  0  0  0  0  0
    1.4371   -0.2862    1.2422 H   0  0  0  0  0  0  0  0  0  0  0  0
    0.9822   -0.0216   -1.7747 H   0  0  0  0  0  0  0  0  0  0  0  0
    0.1902   -2.3532   -0.8216 H   0  0  0  0  0  0  0  0  0  0  0  0
   -1.7248   -0.4709   -1.7774 H   0  0  0  0  0  0  0  0  0  0  0  0
   -2.2652   -1.8043   -0.5736 H   0  0  0  0  0  0  0  0  0  0  0  0
   -2.1581    0.3118    0.8939 H   0  0  0  0  0  0  0  0  0  0  0  0
   -0.8266    1.2607   -1.2168 H   0  0  0  0  0  0  0  0  0  0  0  0
   -0.4405    2.0898    1.4585 H   0  0  0  0  0  0  0  0  0  0  0  0
    1.2185    1.8907    0.8638 H   0  0  0  0  0  0  0  0  0  0  0  0
    0.0838    2.9369   -0.0068 H   0  0  0  0  0  0  0  0  0  0  0  0
  1  2  1  0
  2  3  1  0
  3  4  1  0
  4  5  1  0
  5  6  1  0
  6  7  2  0
  5  8  1  0
  8  9  1  0
  8  2  1  0
  6  3  1  0
  1 10  1  0
  1 11  1  0
  1 12  1  0
  2 13  1  0
  3 14  1  0
  4 15  1  0
  4 16  1  0
  5 17  1  0
  8 18  1  0
  9 19  1  0
  9 20  1  0
  9 21  1  0
M  END
