
     RDKit          3D

 23 24  0  0  0  0  0  0  0  0999 V2000
    3.1870   -0.2493    0.0006 C   0  0  0  0  0  0  0  0  0  0  0  0
    1.8879    0.4617    0.2873 C   0  0  0  0  0  0  0  0  0  0  0  0
    0.8311   -0.4967    0.7946 C   0  0  0  0  0  0  0  0  0  0  0  0
   -0.4106    0.3379    0.4463 C   0  0  0  0  0  0  0  0  0  0  0  0
   -1.6554   -0.4551    0.4580 C   0  0  0  0  0  0  0  0  0  0  0  0
   -2.9031    0.3585    0.1249 C   0  0  0  0  0  0  0  0  0  0  0  0
   -2.4158   -0.7651   -0.7650 C   0  0  0  0  0  0  0  0  0  0  0  0
    0.0446    0.7829   -0.9500 C   0  0  0  0  0  0  0  0  0  0  0  0
    1.3812    1.1488   -0.7804 O   0  0  0  0  0  0  0  0  0  0  0  0
    3.8772    0.4937   -0.4402 H   0  0  0  0  0  0  0  0  0  0  0  0
    3.0899   -1.0792   -0.7103 H   0  0  0  0  0  0  0  0  0  0  0  0
    3.6129   -0.5469    0.9824 H   0  0  0  0  0  0  0  0  0  0  0  0
    2.0993    1.1597    1.1462 H   0  0  0  0  0  0  0  0  0  0  0  0
    0.9046   -0.7111    1.8562 H   0  0  0  0  0  0  0  0  0  0  0  0
    0.8701   -1.3900    0.1376 H   0  0  0  0  0  0  0  0  0  0  0  0
   -0.4052    1.2221    1.1198 H   0  0  0  0  0  0  0  0  0  0  0  0
   -1.7826   -1.1108    1.3445 H   0  0  0  0  0  0  0  0  0  0  0  0
   -2.7826    1.3565   -0.3192 H   0  0  0  0  0  0  0  0  0  0  0  0
   -3.8070    0.2151    0.7402 H   0  0  0  0  0  0  0  0  0  0  0  0
   -1.9466   -0.5206   -1.7247 H   0  0  0  0  0  0  0  0  0  0  0  0
   -3.1238   -1.6200   -0.7970 H   0  0  0  0  0  0  0  0  0  0  0  0
    0.0357   -0.1448   -1.5700 H   0  0  0  0  0  0  0  0  0  0  0  0
   -0.5888    1.5527   -1.3818 H   0  0  0  0  0  0  0  0  0  0  0  0
  1  2  1  0
  2  3  1  0
  3  4  1  0
  4  5  1  0
  5  6  1  0
  6  7  1  0
  4  8  1  0
  8  9  1  0
  9  2  1  0
  7  5  1  0
  1 10  1  0
  1 11  1  0
  1 12  1  0
  2 13  1  0
  3 14  1  0
  3 15  1  0
  4 16  1  0
  5 17  1  0
  6 18  1  0
  6 19  1  0
  7 20  1  0
  7 21  1  0
  8 22  1  0
  8 23  1  0
M  END
