
     RDKit          3D

 18 19  0  0  0  0  0  0  0  0999 V2000
    1.7929   -0.0733   -0.5339 C   0  0  0  0  0  0  0  0  0  0  0  0
    0.7503    0.5862    0.2337 C   0  0  0  0  0  0  0  0  0  0  0  0
    0.3500   -0.1275    1.5227 C   0  0  0  0  0  0  0  0  0  0  0  0
   -0.5661   -1.0168    1.1386 C   0  0  0  0  0  0  0  0  0  0  0  0
   -0.7491   -0.9067   -0.2789 C   0  0  0  0  0  0  0  0  0  0  0  0
   -1.4192   -0.0882   -1.1992 C   0  0  0  0  0  0  0  0  0  0  0  0
   -0.6313    0.6528   -0.3216 C   0  0  0  0  0  0  0  0  0  0  0  0
   -1.4169    1.3470    0.6548 O   0  0  0  0  0  0  0  0  0  0  0  0
    1.9928   -1.0927   -0.0914 H   0  0  0  0  0  0  0  0  0  0  0  0
    1.6082   -0.2549   -1.6034 H   0  0  0  0  0  0  0  0  0  0  0  0
    2.7642    0.4682   -0.4742 H   0  0  0  0  0  0  0  0  0  0  0  0
    1.1046    1.5804    0.5616 H   0  0  0  0  0  0  0  0  0  0  0  0
    0.7408    0.0663    2.5180 H   0  0  0  0  0  0  0  0  0  0  0  0
   -1.0536   -1.6909    1.8702 H   0  0  0  0  0  0  0  0  0  0  0  0
    0.1093   -1.4851   -0.7684 H   0  0  0  0  0  0  0  0  0  0  0  0
   -1.1462   -0.0829   -2.2912 H   0  0  0  0  0  0  0  0  0  0  0  0
   -2.5486   -0.0946   -1.1483 H   0  0  0  0  0  0  0  0  0  0  0  0
   -1.6821    2.2128    0.2111 H   0  0  0  0  0  0  0  0  0  0  0  0
  1  2  1  0
  2  3  1  0
  3  4  2  0
  4  5  1  0
  5  6  1  0
  6  7  1  0
  7  8  1  0
  7  2  1  0
  7  5  1  0
  1  9  1  0
  1 10  1  0
  1 11  1  0
  2 12  1  0
  3 13  1  0
  4 14  1  0
  5 15  1  0
  6 16  1  0
  6 17  1  0
  8 18  1  0
M  END
