
     RDKit          3D

 23 24  0  0  0  0  0  0  0  0999 V2000
   -0.9388   -1.8926    0.4307 C   0  0  0  0  0  0  0  0  0  0  0  0
   -0.6684   -0.4305    0.5046 C   0  0  0  0  0  0  0  0  0  0  0  0
   -1.6531    0.2678   -0.4420 C   0  0  0  0  0  0  0  0  0  0  0  0
   -1.0441    1.5626   -0.8781 C   0  0  0  0  0  0  0  0  0  0  0  0
   -0.3099    2.0590    0.2230 O   0  0  0  0  0  0  0  0  0  0  0  0
    0.9088    1.4380    0.2487 C   0  0  0  0  0  0  0  0  0  0  0  0
    1.4523    0.7137    1.3896 C   0  0  0  0  0  0  0  0  0  0  0  0
    0.7425   -0.0457    0.2335 C   0  0  0  0  0  0  0  0  0  0  0  0
    1.6029   -0.7534   -0.7520 C   0  0  0  0  0  0  0  0  0  0  0  0
   -0.1088   -2.5088    0.0833 H   0  0  0  0  0  0  0  0  0  0  0  0
   -1.2506   -2.3305    1.4248 H   0  0  0  0  0  0  0  0  0  0  0  0
   -1.8101   -2.1391   -0.2452 H   0  0  0  0  0  0  0  0  0  0  0  0
   -0.9788   -0.0949    1.5285 H   0  0  0  0  0  0  0  0  0  0  0  0
   -2.6073    0.4971    0.0845 H   0  0  0  0  0  0  0  0  0  0  0  0
   -1.9156   -0.4103   -1.2759 H   0  0  0  0  0  0  0  0  0  0  0  0
   -0.3881    1.3712   -1.7394 H   0  0  0  0  0  0  0  0  0  0  0  0
   -1.8226    2.2828   -1.1267 H   0  0  0  0  0  0  0  0  0  0  0  0
    1.6660    1.9159   -0.4375 H   0  0  0  0  0  0  0  0  0  0  0  0
    2.5244    0.5210    1.4406 H   0  0  0  0  0  0  0  0  0  0  0  0
    0.9218    0.6754    2.3772 H   0  0  0  0  0  0  0  0  0  0  0  0
    1.6698   -1.8298   -0.6488 H   0  0  0  0  0  0  0  0  0  0  0  0
    1.3541   -0.5120   -1.8090 H   0  0  0  0  0  0  0  0  0  0  0  0
    2.6535   -0.3568   -0.6145 H   0  0  0  0  0  0  0  0  0  0  0  0
  1  2  1  0
  2  3  1  0
  3  4  1  0
  4  5  1  0
  5  6  1  0
  6  7  1  0
  7  8  1  0
  8  9  1  0
  8  2  1  0
  8  6  1  0
  1 10  1  0
  1 11  1  0
  1 12  1  0
  2 13  1  0
  3 14  1  0
  3 15  1  0
  4 16  1  0
  4 17  1  0
  6 18  1  0
  7 19  1  0
  7 20  1  0
  9 21  1  0
  9 22  1  0
  9 23  1  0
M  END
