
     RDKit          3D

 23 24  0  0  0  0  0  0  0  0999 V2000
    2.6712    0.4102    0.2144 C   0  0  0  0  0  0  0  0  0  0  0  0
    1.3352    0.3875    0.8746 C   0  0  0  0  0  0  0  0  0  0  0  0
    0.7254   -0.9705    1.1155 C   0  0  0  0  0  0  0  0  0  0  0  0
   -0.4948   -0.6006    0.3478 C   0  0  0  0  0  0  0  0  0  0  0  0
   -1.0997   -1.5433   -0.6359 C   0  0  0  0  0  0  0  0  0  0  0  0
   -1.1321    0.7235    0.4890 C   0  0  0  0  0  0  0  0  0  0  0  0
   -2.2532    1.1042   -0.4125 C   0  0  0  0  0  0  0  0  0  0  0  0
    0.2137    0.6473   -0.1086 C   0  0  0  0  0  0  0  0  0  0  0  0
    0.4659    0.7918   -1.4419 O   0  0  0  0  0  0  0  0  0  0  0  0
    3.4635    0.3531    0.9895 H   0  0  0  0  0  0  0  0  0  0  0  0
    2.8177    1.3692   -0.3542 H   0  0  0  0  0  0  0  0  0  0  0  0
    2.7877   -0.4022   -0.5021 H   0  0  0  0  0  0  0  0  0  0  0  0
    1.2721    0.9877    1.8091 H   0  0  0  0  0  0  0  0  0  0  0  0
    1.3081   -1.7498    0.5402 H   0  0  0  0  0  0  0  0  0  0  0  0
    0.6026   -1.2730    2.1648 H   0  0  0  0  0  0  0  0  0  0  0  0
   -1.0720   -2.5697   -0.1649 H   0  0  0  0  0  0  0  0  0  0  0  0
   -0.5726   -1.6365   -1.5861 H   0  0  0  0  0  0  0  0  0  0  0  0
   -2.2026   -1.3484   -0.7734 H   0  0  0  0  0  0  0  0  0  0  0  0
   -1.1682    1.2097    1.5017 H   0  0  0  0  0  0  0  0  0  0  0  0
   -2.1470    0.5939   -1.3944 H   0  0  0  0  0  0  0  0  0  0  0  0
   -2.1294    2.2012   -0.6484 H   0  0  0  0  0  0  0  0  0  0  0  0
   -3.2579    1.0111    0.0221 H   0  0  0  0  0  0  0  0  0  0  0  0
   -0.1337    0.3035   -2.0461 H   0  0  0  0  0  0  0  0  0  0  0  0
  1  2  1  0
  2  3  1  0
  3  4  1  0
  4  5  1  0
  4  6  1  0
  6  7  1  0
  6  8  1  0
  8  9  1  0
  8  2  1  0
  8  4  1  0
  1 10  1  0
  1 11  1  0
  1 12  1  0
  2 13  1  0
  3 14  1  0
  3 15  1  0
  5 16  1  0
  5 17  1  0
  5 18  1  0
  6 19  1  0
  7 20  1  0
  7 21  1  0
  7 22  1  0
  9 23  1  0
M  END
