
     RDKit          3D

 25 26  0  0  0  0  0  0  0  0999 V2000
   -1.8873   -1.1411    1.2235 C   0  0  0  0  0  0  0  0  0  0  0  0
   -1.6525   -0.2602    0.0282 C   0  0  0  0  0  0  0  0  0  0  0  0
   -0.8514   -0.8925   -1.0555 C   0  0  0  0  0  0  0  0  0  0  0  0
    0.4410   -0.4021   -0.5233 C   0  0  0  0  0  0  0  0  0  0  0  0
    1.5007   -1.3213   -0.6838 C   0  0  0  0  0  0  0  0  0  0  0  0
    0.7482    0.3127    0.7738 C   0  0  0  0  0  0  0  0  0  0  0  0
    1.9225    1.2708    0.7036 C   0  0  0  0  0  0  0  0  0  0  0  0
   -0.3809    0.5569    0.0639 C   0  0  0  0  0  0  0  0  0  0  0  0
   -0.5727    1.9092   -0.6448 C   0  0  0  0  0  0  0  0  0  0  0  0
   -2.3682   -0.5312    2.0247 H   0  0  0  0  0  0  0  0  0  0  0  0
   -2.6023   -1.9311    0.9370 H   0  0  0  0  0  0  0  0  0  0  0  0
   -0.9500   -1.5893    1.6028 H   0  0  0  0  0  0  0  0  0  0  0  0
   -2.5583    0.2466   -0.2900 H   0  0  0  0  0  0  0  0  0  0  0  0
   -1.0279   -1.9825   -1.0903 H   0  0  0  0  0  0  0  0  0  0  0  0
   -1.0386   -0.4214   -2.0655 H   0  0  0  0  0  0  0  0  0  0  0  0
    1.6035   -2.1543    0.0708 H   0  0  0  0  0  0  0  0  0  0  0  0
    2.5226   -0.8392   -0.6859 H   0  0  0  0  0  0  0  0  0  0  0  0
    1.4657   -1.8701   -1.6711 H   0  0  0  0  0  0  0  0  0  0  0  0
    0.7594   -0.2793    1.7301 H   0  0  0  0  0  0  0  0  0  0  0  0
    1.6609    2.2374    1.1836 H   0  0  0  0  0  0  0  0  0  0  0  0
    2.8135    0.8899    1.2321 H   0  0  0  0  0  0  0  0  0  0  0  0
    2.2030    1.4811   -0.3605 H   0  0  0  0  0  0  0  0  0  0  0  0
   -1.6212    2.2012   -0.6988 H   0  0  0  0  0  0  0  0  0  0  0  0
   -0.1440    1.8276   -1.6772 H   0  0  0  0  0  0  0  0  0  0  0  0
    0.0145    2.6822   -0.1276 H   0  0  0  0  0  0  0  0  0  0  0  0
  1  2  1  0
  2  3  1  0
  3  4  1  0
  4  5  1  0
  4  6  1  0
  6  7  1  0
  6  8  1  0
  8  9  1  0
  8  2  1  0
  8  4  1  0
  1 10  1  0
  1 11  1  0
  1 12  1  0
  2 13  1  0
  3 14  1  0
  3 15  1  0
  5 16  1  0
  5 17  1  0
  5 18  1  0
  6 19  1  0
  7 20  1  0
  7 21  1  0
  7 22  1  0
  9 23  1  0
  9 24  1  0
  9 25  1  0
M  END
