
     RDKit          3D

 21 23  0  0  0  0  0  0  0  0999 V2000
    2.5986   -0.5368    0.4297 C   0  0  0  0  0  0  0  0  0  0  0  0
    1.6378    0.3297   -0.3983 C   0  0  0  0  0  0  0  0  0  0  0  0
    0.6083    1.0010    0.2792 C   0  0  0  0  0  0  0  0  0  0  0  0
   -0.5058    1.8632   -0.1396 C   0  0  0  0  0  0  0  0  0  0  0  0
   -1.6968    1.2302   -0.0034 C   0  0  0  0  0  0  0  0  0  0  0  0
   -1.7505   -0.1484    0.5111 C   0  0  0  0  0  0  0  0  0  0  0  0
   -1.9632   -1.2932   -0.4174 C   0  0  0  0  0  0  0  0  0  0  0  0
   -0.5753   -1.0363    0.0635 C   0  0  0  0  0  0  0  0  0  0  0  0
    0.3664   -0.2176   -0.6850 C   0  0  0  0  0  0  0  0  0  0  0  0
    2.8326   -1.4629   -0.1446 H   0  0  0  0  0  0  0  0  0  0  0  0
    3.5639    0.0014    0.5569 H   0  0  0  0  0  0  0  0  0  0  0  0
    2.2029   -0.7293    1.4298 H   0  0  0  0  0  0  0  0  0  0  0  0
    2.2138    0.8511   -1.1974 H   0  0  0  0  0  0  0  0  0  0  0  0
    0.5010    0.7856    1.3852 H   0  0  0  0  0  0  0  0  0  0  0  0
   -0.4759    2.8545   -0.5095 H   0  0  0  0  0  0  0  0  0  0  0  0
   -2.6341    1.7406   -0.2762 H   0  0  0  0  0  0  0  0  0  0  0  0
   -2.1517   -0.3121    1.5306 H   0  0  0  0  0  0  0  0  0  0  0  0
   -2.0969   -1.1132   -1.5182 H   0  0  0  0  0  0  0  0  0  0  0  0
   -2.4863   -2.1908   -0.0765 H   0  0  0  0  0  0  0  0  0  0  0  0
   -0.1547   -1.6484    0.8949 H   0  0  0  0  0  0  0  0  0  0  0  0
   -0.0341    0.0318   -1.7148 H   0  0  0  0  0  0  0  0  0  0  0  0
  1  2  1  0
  2  3  1  0
  3  4  1  0
  4  5  2  0
  5  6  1  0
  6  7  1  0
  7  8  1  0
  8  9  1  0
  9  2  1  0
  9  3  1  0
  8  6  1  0
  1 10  1  0
  1 11  1  0
  1 12  1  0
  2 13  1  0
  3 14  1  0
  4 15  1  0
  5 16  1  0
  6 17  1  0
  7 18  1  0
  7 19  1  0
  8 20  1  0
  9 21  1  0
M  END
