
     RDKit          3D

 20 20  0  0  0  0  0  0  0  0999 V2000
    1.4819   -0.6589    0.6172 C   0  0  0  0  0  0  0  0  0  0  0  0
    1.0056   -0.1345   -0.6899 C   0  0  0  0  0  0  0  0  0  0  0  0
    0.5913    1.3231   -0.6287 C   0  0  0  0  0  0  0  0  0  0  0  0
   -0.7283    1.5572   -0.0008 C   0  0  0  0  0  0  0  0  0  0  0  0
   -1.1909    0.4878    0.9076 C   0  0  0  0  0  0  0  0  0  0  0  0
   -1.2460   -0.8049    0.6024 C   0  0  0  0  0  0  0  0  0  0  0  0
   -0.8872   -1.4966   -0.6422 C   0  0  0  0  0  0  0  0  0  0  0  0
    0.1195   -0.9278   -1.3635 O   0  0  0  0  0  0  0  0  0  0  0  0
    2.5843   -0.7498    0.7127 H   0  0  0  0  0  0  0  0  0  0  0  0
    1.1891    0.0901    1.4102 H   0  0  0  0  0  0  0  0  0  0  0  0
    1.0621   -1.6349    0.9101 H   0  0  0  0  0  0  0  0  0  0  0  0
    1.9323   -0.1118   -1.3453 H   0  0  0  0  0  0  0  0  0  0  0  0
    0.5451    1.6646   -1.7017 H   0  0  0  0  0  0  0  0  0  0  0  0
    1.4176    1.9004   -0.1746 H   0  0  0  0  0  0  0  0  0  0  0  0
   -0.7602    2.5314    0.5493 H   0  0  0  0  0  0  0  0  0  0  0  0
   -1.5196    1.6583   -0.7962 H   0  0  0  0  0  0  0  0  0  0  0  0
   -1.5118    0.7862    1.9073 H   0  0  0  0  0  0  0  0  0  0  0  0
   -1.6188   -1.4011    1.4287 H   0  0  0  0  0  0  0  0  0  0  0  0
   -0.6715   -2.5617   -0.4062 H   0  0  0  0  0  0  0  0  0  0  0  0
   -1.7944   -1.5172   -1.2965 H   0  0  0  0  0  0  0  0  0  0  0  0
  1  2  1  0
  2  3  1  0
  3  4  1  0
  4  5  1  0
  5  6  2  0
  6  7  1  0
  7  8  1  0
  8  2  1  0
  1  9  1  0
  1 10  1  0
  1 11  1  0
  2 12  1  0
  3 13  1  0
  3 14  1  0
  4 15  1  0
  4 16  1  0
  5 17  1  0
  6 18  1  0
  7 19  1  0
  7 20  1  0
M  END
