
     RDKit          3D

 19 21  0  0  0  0  0  0  0  0999 V2000
    1.8314   -1.0989    0.1809 C   0  0  0  0  0  0  0  0  0  0  0  0
    1.3237    0.3185    0.0581 C   0  0  0  0  0  0  0  0  0  0  0  0
    0.1761    0.6586   -0.8049 C   0  0  0  0  0  0  0  0  0  0  0  0
   -0.7826   -0.3702   -1.2809 C   0  0  0  0  0  0  0  0  0  0  0  0
   -1.7335   -0.5611   -0.1131 C   0  0  0  0  0  0  0  0  0  0  0  0
   -2.3132    0.5249    0.4905 O   0  0  0  0  0  0  0  0  0  0  0  0
   -1.0607   -0.1279    1.0321 C   0  0  0  0  0  0  0  0  0  0  0  0
    0.0742    0.7596    0.6837 C   0  0  0  0  0  0  0  0  0  0  0  0
    0.0301    2.0293    1.2753 O   0  0  0  0  0  0  0  0  0  0  0  0
    2.1787   -1.2087    1.2390 H   0  0  0  0  0  0  0  0  0  0  0  0
    1.0963   -1.8613   -0.0652 H   0  0  0  0  0  0  0  0  0  0  0  0
    2.7620   -1.1824   -0.4474 H   0  0  0  0  0  0  0  0  0  0  0  0
    2.1517    1.0622    0.0688 H   0  0  0  0  0  0  0  0  0  0  0  0
    0.1325    1.6270   -1.3342 H   0  0  0  0  0  0  0  0  0  0  0  0
   -1.3017   -0.0749   -2.2086 H   0  0  0  0  0  0  0  0  0  0  0  0
   -0.3309   -1.3666   -1.4771 H   0  0  0  0  0  0  0  0  0  0  0  0
   -2.3814   -1.4510   -0.1666 H   0  0  0  0  0  0  0  0  0  0  0  0
   -1.3058   -0.3253    2.0962 H   0  0  0  0  0  0  0  0  0  0  0  0
   -0.5467    2.6484    0.7734 H   0  0  0  0  0  0  0  0  0  0  0  0
  1  2  1  0
  2  3  1  0
  3  4  1  0
  4  5  1  0
  5  6  1  0
  6  7  1  0
  7  8  1  0
  8  9  1  0
  8  2  1  0
  8  3  1  0
  7  5  1  0
  1 10  1  0
  1 11  1  0
  1 12  1  0
  2 13  1  0
  3 14  1  0
  4 15  1  0
  4 16  1  0
  5 17  1  0
  7 18  1  0
  9 19  1  0
M  END
