
     RDKit          3D

 19 19  0  0  0  0  0  0  0  0999 V2000
   -2.6612    0.2043    0.0173 C   0  0  0  0  0  0  0  0  0  0  0  0
   -1.2201   -0.2948   -0.0058 C   0  0  0  0  0  0  0  0  0  0  0  0
   -0.7919   -1.1386   -1.1443 C   0  0  0  0  0  0  0  0  0  0  0  0
   -0.3980    0.3279   -1.1043 C   0  0  0  0  0  0  0  0  0  0  0  0
    0.9848    0.7017   -0.7681 C   0  0  0  0  0  0  0  0  0  0  0  0
    1.5007    1.6319   -1.3570 O   0  0  0  0  0  0  0  0  0  0  0  0
    1.6852   -0.0834    0.2826 C   0  0  0  0  0  0  0  0  0  0  0  0
    3.0699    0.4038    0.5092 C   0  0  0  0  0  0  0  0  0  0  0  0
    3.3029    1.3930    1.1766 O   0  0  0  0  0  0  0  0  0  0  0  0
   -3.2333   -0.2842   -0.7759 H   0  0  0  0  0  0  0  0  0  0  0  0
   -2.6580    1.3170   -0.1580 H   0  0  0  0  0  0  0  0  0  0  0  0
   -3.0821   -0.0265    1.0142 H   0  0  0  0  0  0  0  0  0  0  0  0
   -0.7649   -0.5195    0.9613 H   0  0  0  0  0  0  0  0  0  0  0  0
    0.0533   -1.8344   -1.0532 H   0  0  0  0  0  0  0  0  0  0  0  0
   -1.5823   -1.4675   -1.8250 H   0  0  0  0  0  0  0  0  0  0  0  0
   -0.9125    0.9213   -1.8898 H   0  0  0  0  0  0  0  0  0  0  0  0
    1.6499   -1.1427    0.0060 H   0  0  0  0  0  0  0  0  0  0  0  0
    1.1640    0.0425    1.2805 H   0  0  0  0  0  0  0  0  0  0  0  0
    3.8936   -0.1519    0.0576 H   0  0  0  0  0  0  0  0  0  0  0  0
  1  2  1  0
  2  3  1  0
  3  4  1  0
  4  5  1  0
  5  6  2  0
  5  7  1  0
  7  8  1  0
  8  9  2  0
  4  2  1  0
  1 10  1  0
  1 11  1  0
  1 12  1  0
  2 13  1  0
  3 14  1  0
  3 15  1  0
  4 16  1  0
  7 17  1  0
  7 18  1  0
  8 19  1  0
M  END
