
     RDKit          3D

 18 19  0  0  0  0  0  0  0  0999 V2000
   -2.0133    0.3034   -0.4757 C   0  0  0  0  0  0  0  0  0  0  0  0
   -0.8515    0.2408    0.5060 C   0  0  0  0  0  0  0  0  0  0  0  0
    0.0430    1.3854    0.2078 C   0  0  0  0  0  0  0  0  0  0  0  0
    1.2290    1.1167   -0.3003 C   0  0  0  0  0  0  0  0  0  0  0  0
    1.5311   -0.3299   -0.5667 C   0  0  0  0  0  0  0  0  0  0  0  0
    1.2826   -1.0684    0.7203 C   0  0  0  0  0  0  0  0  0  0  0  0
   -0.1092   -1.0437    0.1871 C   0  0  0  0  0  0  0  0  0  0  0  0
    0.3787   -0.9325   -1.1124 O   0  0  0  0  0  0  0  0  0  0  0  0
   -2.3711   -0.7446   -0.6539 H   0  0  0  0  0  0  0  0  0  0  0  0
   -1.6347    0.6541   -1.4580 H   0  0  0  0  0  0  0  0  0  0  0  0
   -2.8449    0.8882   -0.0789 H   0  0  0  0  0  0  0  0  0  0  0  0
   -1.1783    0.2781    1.5541 H   0  0  0  0  0  0  0  0  0  0  0  0
   -0.2470    2.4004    0.3919 H   0  0  0  0  0  0  0  0  0  0  0  0
    1.9650    1.8539   -0.5257 H   0  0  0  0  0  0  0  0  0  0  0  0
    2.4557   -0.5343   -1.0948 H   0  0  0  0  0  0  0  0  0  0  0  0
    1.7214   -2.0616    0.7162 H   0  0  0  0  0  0  0  0  0  0  0  0
    1.3713   -0.4718    1.6403 H   0  0  0  0  0  0  0  0  0  0  0  0
   -0.7279   -1.9343    0.3427 H   0  0  0  0  0  0  0  0  0  0  0  0
  1  2  1  0
  2  3  1  0
  3  4  2  0
  4  5  1  0
  5  6  1  0
  6  7  1  0
  7  8  1  0
  7  2  1  0
  8  5  1  0
  1  9  1  0
  1 10  1  0
  1 11  1  0
  2 12  1  0
  3 13  1  0
  4 14  1  0
  5 15  1  0
  6 16  1  0
  6 17  1  0
  7 18  1  0
M  END
