
     RDKit          3D

 23 24  0  0  0  0  0  0  0  0999 V2000
    2.8889    0.5428   -0.0309 C   0  0  0  0  0  0  0  0  0  0  0  0
    1.7817   -0.4276   -0.3378 C   0  0  0  0  0  0  0  0  0  0  0  0
    0.5052    0.3276   -0.6387 C   0  0  0  0  0  0  0  0  0  0  0  0
   -0.4990   -0.4497    0.1725 C   0  0  0  0  0  0  0  0  0  0  0  0
    0.3453   -0.9904    1.2827 C   0  0  0  0  0  0  0  0  0  0  0  0
    1.5186   -1.3204    0.6664 O   0  0  0  0  0  0  0  0  0  0  0  0
   -1.5441   -1.1908   -0.5040 C   0  0  0  0  0  0  0  0  0  0  0  0
   -1.8805   -0.0254    0.3541 C   0  0  0  0  0  0  0  0  0  0  0  0
   -2.4201    1.2495   -0.2230 C   0  0  0  0  0  0  0  0  0  0  0  0
    3.8169   -0.0733    0.1181 H   0  0  0  0  0  0  0  0  0  0  0  0
    2.6378    1.1322    0.8718 H   0  0  0  0  0  0  0  0  0  0  0  0
    3.0140    1.1856   -0.9313 H   0  0  0  0  0  0  0  0  0  0  0  0
    2.1285   -1.0270   -1.2282 H   0  0  0  0  0  0  0  0  0  0  0  0
    0.2153    0.2755   -1.7054 H   0  0  0  0  0  0  0  0  0  0  0  0
    0.6050    1.3880   -0.2941 H   0  0  0  0  0  0  0  0  0  0  0  0
   -0.0888   -1.8125    1.8419 H   0  0  0  0  0  0  0  0  0  0  0  0
    0.5528   -0.1594    2.0153 H   0  0  0  0  0  0  0  0  0  0  0  0
   -1.6450   -1.0113   -1.6132 H   0  0  0  0  0  0  0  0  0  0  0  0
   -1.9399   -2.1678   -0.2106 H   0  0  0  0  0  0  0  0  0  0  0  0
   -2.3409   -0.2762    1.3540 H   0  0  0  0  0  0  0  0  0  0  0  0
   -3.4488    1.1549   -0.6105 H   0  0  0  0  0  0  0  0  0  0  0  0
   -2.4675    1.9875    0.6313 H   0  0  0  0  0  0  0  0  0  0  0  0
   -1.7354    1.6881   -0.9805 H   0  0  0  0  0  0  0  0  0  0  0  0
  1  2  1  0
  2  3  1  0
  3  4  1  0
  4  5  1  0
  5  6  1  0
  4  7  1  0
  7  8  1  0
  8  9  1  0
  6  2  1  0
  8  4  1  0
  1 10  1  0
  1 11  1  0
  1 12  1  0
  2 13  1  0
  3 14  1  0
  3 15  1  0
  5 16  1  0
  5 17  1  0
  7 18  1  0
  7 19  1  0
  8 20  1  0
  9 21  1  0
  9 22  1  0
  9 23  1  0
M  END
