
     RDKit          3D

 21 21  0  0  0  0  0  0  0  0999 V2000
   -0.4389   -1.7652    0.7438 C   0  0  0  0  0  0  0  0  0  0  0  0
   -0.6049   -0.7613   -0.3619 C   0  0  0  0  0  0  0  0  0  0  0  0
    0.3430    0.2778   -0.6825 C   0  0  0  0  0  0  0  0  0  0  0  0
    1.6977    0.4422   -0.0630 C   0  0  0  0  0  0  0  0  0  0  0  0
    2.5919   -0.7013   -0.2574 C   0  0  0  0  0  0  0  0  0  0  0  0
    2.2724   -1.7038   -0.8679 O   0  0  0  0  0  0  0  0  0  0  0  0
   -0.8400    0.6666    0.1133 C   0  0  0  0  0  0  0  0  0  0  0  0
   -2.0233    1.3471   -0.5100 C   0  0  0  0  0  0  0  0  0  0  0  0
   -0.5944    0.9548    1.4627 O   0  0  0  0  0  0  0  0  0  0  0  0
   -0.0890   -2.7111    0.2749 H   0  0  0  0  0  0  0  0  0  0  0  0
    0.1713   -1.4211    1.5773 H   0  0  0  0  0  0  0  0  0  0  0  0
   -1.4533   -1.9880    1.1369 H   0  0  0  0  0  0  0  0  0  0  0  0
   -1.2824   -1.1493   -1.1791 H   0  0  0  0  0  0  0  0  0  0  0  0
    0.3194    0.6632   -1.7460 H   0  0  0  0  0  0  0  0  0  0  0  0
    1.5479    0.7024    1.0054 H   0  0  0  0  0  0  0  0  0  0  0  0
    2.2250    1.3425   -0.4983 H   0  0  0  0  0  0  0  0  0  0  0  0
    3.5894   -0.6610    0.1598 H   0  0  0  0  0  0  0  0  0  0  0  0
   -1.7627    2.2056   -1.1506 H   0  0  0  0  0  0  0  0  0  0  0  0
   -2.6763    1.7425    0.3149 H   0  0  0  0  0  0  0  0  0  0  0  0
   -2.6767    0.6189   -1.0616 H   0  0  0  0  0  0  0  0  0  0  0  0
   -0.3160    1.8985    1.5894 H   0  0  0  0  0  0  0  0  0  0  0  0
  1  2  1  0
  2  3  1  0
  3  4  1  0
  4  5  1  0
  5  6  2  0
  3  7  1  0
  7  8  1  0
  7  9  1  0
  7  2  1  0
  1 10  1  0
  1 11  1  0
  1 12  1  0
  2 13  1  0
  3 14  1  0
  4 15  1  0
  4 16  1  0
  5 17  1  0
  8 18  1  0
  8 19  1  0
  8 20  1  0
  9 21  1  0
M  END
