
     RDKit          3D

 23 24  0  0  0  0  0  0  0  0999 V2000
    2.4291    0.2521   -0.4304 C   0  0  0  0  0  0  0  0  0  0  0  0
    1.2416   -0.0825    0.4993 C   0  0  0  0  0  0  0  0  0  0  0  0
    0.5554    1.2304    0.7015 C   0  0  0  0  0  0  0  0  0  0  0  0
    0.0031    1.5755   -0.5160 O   0  0  0  0  0  0  0  0  0  0  0  0
   -1.3297    1.2932   -0.5843 C   0  0  0  0  0  0  0  0  0  0  0  0
   -1.7286   -0.1192   -0.6407 C   0  0  0  0  0  0  0  0  0  0  0  0
   -1.9417   -0.9233    0.6176 C   0  0  0  0  0  0  0  0  0  0  0  0
   -0.8618   -1.2022   -0.4721 C   0  0  0  0  0  0  0  0  0  0  0  0
    0.4895   -1.2216    0.0284 C   0  0  0  0  0  0  0  0  0  0  0  0
    3.2513    0.7104    0.1102 H   0  0  0  0  0  0  0  0  0  0  0  0
    2.0970    0.9011   -1.2629 H   0  0  0  0  0  0  0  0  0  0  0  0
    2.7855   -0.7036   -0.8717 H   0  0  0  0  0  0  0  0  0  0  0  0
    1.7677   -0.2887    1.4846 H   0  0  0  0  0  0  0  0  0  0  0  0
   -0.0943    1.3117    1.5586 H   0  0  0  0  0  0  0  0  0  0  0  0
    1.3814    1.9861    0.8771 H   0  0  0  0  0  0  0  0  0  0  0  0
   -1.7225    1.8996   -1.4566 H   0  0  0  0  0  0  0  0  0  0  0  0
   -1.8615    1.7633    0.2985 H   0  0  0  0  0  0  0  0  0  0  0  0
   -2.6149   -0.2652   -1.3422 H   0  0  0  0  0  0  0  0  0  0  0  0
   -2.7832   -1.6226    0.7190 H   0  0  0  0  0  0  0  0  0  0  0  0
   -1.5859   -0.5539    1.5923 H   0  0  0  0  0  0  0  0  0  0  0  0
   -1.1238   -2.1776   -1.0074 H   0  0  0  0  0  0  0  0  0  0  0  0
    0.5028   -2.0192    0.8478 H   0  0  0  0  0  0  0  0  0  0  0  0
    1.1437   -1.7439   -0.7506 H   0  0  0  0  0  0  0  0  0  0  0  0
  1  2  1  0
  2  3  1  0
  3  4  1  0
  4  5  1  0
  5  6  1  0
  6  7  1  0
  7  8  1  0
  8  9  1  0
  9  2  1  0
  8  6  1  0
  1 10  1  0
  1 11  1  0
  1 12  1  0
  2 13  1  0
  3 14  1  0
  3 15  1  0
  5 16  1  0
  5 17  1  0
  6 18  1  0
  7 19  1  0
  7 20  1  0
  8 21  1  0
  9 22  1  0
  9 23  1  0
M  END
