
     RDKit          3D

 19 20  0  0  0  0  0  0  0  0999 V2000
   -2.0897   -0.6752    0.4306 C   0  0  0  0  0  0  0  0  0  0  0  0
   -0.8623   -0.7011   -0.3894 C   0  0  0  0  0  0  0  0  0  0  0  0
   -0.5393    0.5289   -1.2272 C   0  0  0  0  0  0  0  0  0  0  0  0
   -0.2840    1.0936    0.1322 C   0  0  0  0  0  0  0  0  0  0  0  0
    0.7525    0.7866    1.0900 C   0  0  0  0  0  0  0  0  0  0  0  0
    0.4479   -0.3136    0.2526 C   0  0  0  0  0  0  0  0  0  0  0  0
    1.4539   -0.5636   -0.7110 O   0  0  0  0  0  0  0  0  0  0  0  0
    2.7798   -0.3722   -0.4278 C   0  0  0  0  0  0  0  0  0  0  0  0
    3.2106    0.0202    0.6835 O   0  0  0  0  0  0  0  0  0  0  0  0
   -2.8773    0.0525    0.0904 H   0  0  0  0  0  0  0  0  0  0  0  0
   -1.8727   -0.5779    1.5286 H   0  0  0  0  0  0  0  0  0  0  0  0
   -2.6459   -1.6626    0.3854 H   0  0  0  0  0  0  0  0  0  0  0  0
   -0.7827   -1.6605   -0.9388 H   0  0  0  0  0  0  0  0  0  0  0  0
   -1.4188    0.9638   -1.7151 H   0  0  0  0  0  0  0  0  0  0  0  0
    0.2917    0.3778   -1.9016 H   0  0  0  0  0  0  0  0  0  0  0  0
   -1.2807    1.1548    0.6666 H   0  0  0  0  0  0  0  0  0  0  0  0
    1.6022    1.5010    1.0369 H   0  0  0  0  0  0  0  0  0  0  0  0
    0.5471    0.6039    2.1932 H   0  0  0  0  0  0  0  0  0  0  0  0
    3.5679   -0.5565   -1.1793 H   0  0  0  0  0  0  0  0  0  0  0  0
  1  2  1  0
  2  3  1  0
  3  4  1  0
  4  5  1  0
  5  6  1  0
  6  7  1  0
  7  8  1  0
  8  9  2  0
  6  2  1  0
  6  4  1  0
  1 10  1  0
  1 11  1  0
  1 12  1  0
  2 13  1  0
  3 14  1  0
  3 15  1  0
  4 16  1  0
  5 17  1  0
  5 18  1  0
  8 19  1  0
M  END
