
     RDKit          3D

 19 20  0  0  0  0  0  0  0  0999 V2000
    2.2892   -0.4622    0.0262 C   0  0  0  0  0  0  0  0  0  0  0  0
    1.1458    0.2855   -0.6828 C   0  0  0  0  0  0  0  0  0  0  0  0
   -0.0389   -0.4641   -0.8007 C   0  0  0  0  0  0  0  0  0  0  0  0
   -0.9592   -1.0886    0.1699 C   0  0  0  0  0  0  0  0  0  0  0  0
   -2.0129    0.0308    0.3102 C   0  0  0  0  0  0  0  0  0  0  0  0
   -1.2777    1.2508   -0.2213 C   0  0  0  0  0  0  0  0  0  0  0  0
   -1.7818    2.2333   -0.7189 O   0  0  0  0  0  0  0  0  0  0  0  0
    0.1063    0.8696    0.0473 C   0  0  0  0  0  0  0  0  0  0  0  0
    0.2177    0.6646    1.4536 O   0  0  0  0  0  0  0  0  0  0  0  0
    3.2437    0.0474   -0.0808 H   0  0  0  0  0  0  0  0  0  0  0  0
    1.9863   -0.6567    1.0819 H   0  0  0  0  0  0  0  0  0  0  0  0
    2.3902   -1.4703   -0.4484 H   0  0  0  0  0  0  0  0  0  0  0  0
    1.5626    0.8278   -1.5594 H   0  0  0  0  0  0  0  0  0  0  0  0
   -0.5761   -0.3464   -1.7930 H   0  0  0  0  0  0  0  0  0  0  0  0
   -1.4111   -1.9887   -0.2829 H   0  0  0  0  0  0  0  0  0  0  0  0
   -0.4393   -1.2656    1.1157 H   0  0  0  0  0  0  0  0  0  0  0  0
   -2.9033   -0.1889   -0.2708 H   0  0  0  0  0  0  0  0  0  0  0  0
   -2.1916    0.2481    1.3778 H   0  0  0  0  0  0  0  0  0  0  0  0
    0.6503    1.4736    1.7898 H   0  0  0  0  0  0  0  0  0  0  0  0
  1  2  1  0
  2  3  1  0
  3  4  1  0
  4  5  1  0
  5  6  1  0
  6  7  2  0
  6  8  1  0
  8  9  1  0
  8  2  1  0
  8  3  1  0
  1 10  1  0
  1 11  1  0
  1 12  1  0
  2 13  1  0
  3 14  1  0
  4 15  1  0
  4 16  1  0
  5 17  1  0
  5 18  1  0
  9 19  1  0
M  END
