
     RDKit          3D

 17 17  0  0  0  0  0  0  0  0999 V2000
   -0.2349    1.4711   -0.1832 C   0  0  0  0  0  0  0  0  0  0  0  0
   -0.5116    0.0709   -0.6585 C   0  0  0  0  0  0  0  0  0  0  0  0
   -1.6750   -0.5320    0.1221 C   0  0  0  0  0  0  0  0  0  0  0  0
   -1.1105   -0.7846    1.4044 O   0  0  0  0  0  0  0  0  0  0  0  0
    0.2747   -0.7705    1.3365 C   0  0  0  0  0  0  0  0  0  0  0  0
    1.0913   -0.7211    2.2923 O   0  0  0  0  0  0  0  0  0  0  0  0
    0.6095   -0.8263   -0.1154 C   0  0  0  0  0  0  0  0  0  0  0  0
    1.8997   -0.2483   -0.4464 C   0  0  0  0  0  0  0  0  0  0  0  0
    1.9849    0.6466   -1.2602 O   0  0  0  0  0  0  0  0  0  0  0  0
   -0.0546    2.1560   -1.0222 H   0  0  0  0  0  0  0  0  0  0  0  0
    0.6598    1.5298    0.4803 H   0  0  0  0  0  0  0  0  0  0  0  0
   -1.0993    1.8003    0.4562 H   0  0  0  0  0  0  0  0  0  0  0  0
   -0.6281   -0.0181   -1.7375 H   0  0  0  0  0  0  0  0  0  0  0  0
   -2.5259    0.1568    0.2006 H   0  0  0  0  0  0  0  0  0  0  0  0
   -1.9030   -1.4973   -0.3445 H   0  0  0  0  0  0  0  0  0  0  0  0
    0.4244   -1.8276   -0.5502 H   0  0  0  0  0  0  0  0  0  0  0  0
    2.7986   -0.6058    0.0258 H   0  0  0  0  0  0  0  0  0  0  0  0
  1  2  1  0
  2  3  1  0
  3  4  1  0
  4  5  1  0
  5  6  2  0
  5  7  1  0
  7  8  1  0
  8  9  2  0
  7  2  1  0
  1 10  1  0
  1 11  1  0
  1 12  1  0
  2 13  1  0
  3 14  1  0
  3 15  1  0
  7 16  1  0
  8 17  1  0
M  END
