
     RDKit          3D

 21 22  0  0  0  0  0  0  0  0999 V2000
    2.4176   -0.7273    0.4739 C   0  0  0  0  0  0  0  0  0  0  0  0
    1.1842   -0.0702   -0.0867 C   0  0  0  0  0  0  0  0  0  0  0  0
    1.1423    1.3877    0.1529 C   0  0  0  0  0  0  0  0  0  0  0  0
   -0.0195    1.9994    0.0594 C   0  0  0  0  0  0  0  0  0  0  0  0
   -1.2257    1.2453   -0.2726 C   0  0  0  0  0  0  0  0  0  0  0  0
   -1.9119    0.7920    0.8760 O   0  0  0  0  0  0  0  0  0  0  0  0
   -1.3075   -0.1256    0.0475 C   0  0  0  0  0  0  0  0  0  0  0  0
   -2.2708   -1.0109   -0.7132 C   0  0  0  0  0  0  0  0  0  0  0  0
   -0.0177   -0.8111    0.4666 C   0  0  0  0  0  0  0  0  0  0  0  0
    3.2558   -0.0064    0.4775 H   0  0  0  0  0  0  0  0  0  0  0  0
    2.7134   -1.5559   -0.2010 H   0  0  0  0  0  0  0  0  0  0  0  0
    2.2451   -1.1816    1.4807 H   0  0  0  0  0  0  0  0  0  0  0  0
    1.1892   -0.2097   -1.2016 H   0  0  0  0  0  0  0  0  0  0  0  0
    2.0714    1.9263    0.4017 H   0  0  0  0  0  0  0  0  0  0  0  0
   -0.1087    3.0748    0.2261 H   0  0  0  0  0  0  0  0  0  0  0  0
   -1.8364    1.6731   -1.1011 H   0  0  0  0  0  0  0  0  0  0  0  0
   -2.3002   -0.6784   -1.7814 H   0  0  0  0  0  0  0  0  0  0  0  0
   -3.3054   -0.9624   -0.2646 H   0  0  0  0  0  0  0  0  0  0  0  0
   -1.9863   -2.0880   -0.6289 H   0  0  0  0  0  0  0  0  0  0  0  0
    0.0065   -1.8186    0.0098 H   0  0  0  0  0  0  0  0  0  0  0  0
    0.0647   -0.8525    1.5791 H   0  0  0  0  0  0  0  0  0  0  0  0
  1  2  1  0
  2  3  1  0
  3  4  2  0
  4  5  1  0
  5  6  1  0
  6  7  1  0
  7  8  1  0
  7  9  1  0
  9  2  1  0
  7  5  1  0
  1 10  1  0
  1 11  1  0
  1 12  1  0
  2 13  1  0
  3 14  1  0
  4 15  1  0
  5 16  1  0
  8 17  1  0
  8 18  1  0
  8 19  1  0
  9 20  1  0
  9 21  1  0
M  END
