
     RDKit          3D

 19 20  0  0  0  0  0  0  0  0999 V2000
   -1.8616   -0.5536    1.2017 C   0  0  0  0  0  0  0  0  0  0  0  0
   -1.1494   -0.3509   -0.0836 C   0  0  0  0  0  0  0  0  0  0  0  0
   -1.5948    0.7751   -0.9325 C   0  0  0  0  0  0  0  0  0  0  0  0
   -2.6480    1.2983   -1.1900 O   0  0  0  0  0  0  0  0  0  0  0  0
   -0.1784    0.9688   -1.3199 C   0  0  0  0  0  0  0  0  0  0  0  0
    0.1943    0.3796    0.0477 C   0  0  0  0  0  0  0  0  0  0  0  0
    1.3702   -0.5360    0.0049 C   0  0  0  0  0  0  0  0  0  0  0  0
    2.7221   -0.1055    0.1062 C   0  0  0  0  0  0  0  0  0  0  0  0
    2.0869   -0.4710    1.3053 O   0  0  0  0  0  0  0  0  0  0  0  0
   -2.5475   -1.4421    1.0788 H   0  0  0  0  0  0  0  0  0  0  0  0
   -1.1042   -0.8567    1.9701 H   0  0  0  0  0  0  0  0  0  0  0  0
   -2.4745    0.2831    1.5417 H   0  0  0  0  0  0  0  0  0  0  0  0
   -0.9516   -1.3016   -0.6276 H   0  0  0  0  0  0  0  0  0  0  0  0
    0.1490    2.0059   -1.4716 H   0  0  0  0  0  0  0  0  0  0  0  0
    0.1904    0.2416   -2.0949 H   0  0  0  0  0  0  0  0  0  0  0  0
    0.1267    1.0995    0.8635 H   0  0  0  0  0  0  0  0  0  0  0  0
    1.1347   -1.5934   -0.2063 H   0  0  0  0  0  0  0  0  0  0  0  0
    2.9910    0.9563   -0.0412 H   0  0  0  0  0  0  0  0  0  0  0  0
    3.5448   -0.7973   -0.1524 H   0  0  0  0  0  0  0  0  0  0  0  0
  1  2  1  0
  2  3  1  0
  3  4  2  0
  3  5  1  0
  5  6  1  0
  6  7  1  0
  7  8  1  0
  8  9  1  0
  6  2  1  0
  9  7  1  0
  1 10  1  0
  1 11  1  0
  1 12  1  0
  2 13  1  0
  5 14  1  0
  5 15  1  0
  6 16  1  0
  7 17  1  0
  8 18  1  0
  8 19  1  0
M  END
