
     RDKit          3D

 21 22  0  0  0  0  0  0  0  0999 V2000
    2.7302   -0.2729    0.3051 C   0  0  0  0  0  0  0  0  0  0  0  0
    1.3289   -0.3571   -0.2388 C   0  0  0  0  0  0  0  0  0  0  0  0
    0.7881    0.9640   -0.6063 C   0  0  0  0  0  0  0  0  0  0  0  0
   -0.4450    1.3996   -0.4418 C   0  0  0  0  0  0  0  0  0  0  0  0
   -1.6510    0.8095    0.1144 C   0  0  0  0  0  0  0  0  0  0  0  0
   -2.6147    0.0641   -0.7638 C   0  0  0  0  0  0  0  0  0  0  0  0
   -1.7679   -0.6209    0.2819 C   0  0  0  0  0  0  0  0  0  0  0  0
   -0.7275   -1.4325   -0.0635 O   0  0  0  0  0  0  0  0  0  0  0  0
    0.3774   -1.0241    0.7145 C   0  0  0  0  0  0  0  0  0  0  0  0
    3.4246   -0.8426   -0.3438 H   0  0  0  0  0  0  0  0  0  0  0  0
    2.7548   -0.7870    1.2995 H   0  0  0  0  0  0  0  0  0  0  0  0
    3.1167    0.7455    0.3912 H   0  0  0  0  0  0  0  0  0  0  0  0
    1.3368   -0.9789   -1.1803 H   0  0  0  0  0  0  0  0  0  0  0  0
    1.5178    1.6332   -1.0641 H   0  0  0  0  0  0  0  0  0  0  0  0
   -0.5823    2.4218   -0.8023 H   0  0  0  0  0  0  0  0  0  0  0  0
   -2.1684    1.4776    0.8686 H   0  0  0  0  0  0  0  0  0  0  0  0
   -3.7087    0.1446   -0.5932 H   0  0  0  0  0  0  0  0  0  0  0  0
   -2.3387   -0.1711   -1.8111 H   0  0  0  0  0  0  0  0  0  0  0  0
   -2.2903   -0.9752    1.2212 H   0  0  0  0  0  0  0  0  0  0  0  0
    0.0873   -0.2937    1.4972 H   0  0  0  0  0  0  0  0  0  0  0  0
    0.8319   -1.9039    1.2154 H   0  0  0  0  0  0  0  0  0  0  0  0
  1  2  1  0
  2  3  1  0
  3  4  2  0
  4  5  1  0
  5  6  1  0
  6  7  1  0
  7  8  1  0
  8  9  1  0
  9  2  1  0
  7  5  1  0
  1 10  1  0
  1 11  1  0
  1 12  1  0
  2 13  1  0
  3 14  1  0
  4 15  1  0
  5 16  1  0
  6 17  1  0
  6 18  1  0
  7 19  1  0
  9 20  1  0
  9 21  1  0
M  END
