
     RDKit          3D

 19 20  0  0  0  0  0  0  0  0999 V2000
    2.0663    0.2042   -0.7144 C   0  0  0  0  0  0  0  0  0  0  0  0
    0.9799   -0.6270   -0.0748 C   0  0  0  0  0  0  0  0  0  0  0  0
    0.8033   -0.2605    1.3400 C   0  0  0  0  0  0  0  0  0  0  0  0
   -0.4522    0.0383    1.5670 C   0  0  0  0  0  0  0  0  0  0  0  0
   -1.2389   -0.0915    0.3575 C   0  0  0  0  0  0  0  0  0  0  0  0
   -2.4058   -0.8123    0.5376 O   0  0  0  0  0  0  0  0  0  0  0  0
   -1.3598    1.1392   -0.5012 C   0  0  0  0  0  0  0  0  0  0  0  0
   -0.5285    0.6361   -1.4856 O   0  0  0  0  0  0  0  0  0  0  0  0
   -0.3342   -0.5203   -0.7392 C   0  0  0  0  0  0  0  0  0  0  0  0
    1.6612    1.0912   -1.2395 H   0  0  0  0  0  0  0  0  0  0  0  0
    2.6699   -0.4313   -1.3827 H   0  0  0  0  0  0  0  0  0  0  0  0
    2.7228    0.5596    0.1004 H   0  0  0  0  0  0  0  0  0  0  0  0
    1.3363   -1.6997   -0.0803 H   0  0  0  0  0  0  0  0  0  0  0  0
    1.6377   -0.2466    2.0954 H   0  0  0  0  0  0  0  0  0  0  0  0
   -0.8651    0.3459    2.5339 H   0  0  0  0  0  0  0  0  0  0  0  0
   -2.7549   -1.2280   -0.2733 H   0  0  0  0  0  0  0  0  0  0  0  0
   -0.9023    2.0122   -0.0058 H   0  0  0  0  0  0  0  0  0  0  0  0
   -2.3919    1.3508   -0.7918 H   0  0  0  0  0  0  0  0  0  0  0  0
   -0.6438   -1.4605   -1.2431 H   0  0  0  0  0  0  0  0  0  0  0  0
  1  2  1  0
  2  3  1  0
  3  4  2  0
  4  5  1  0
  5  6  1  0
  5  7  1  0
  7  8  1  0
  8  9  1  0
  9  2  1  0
  9  5  1  0
  1 10  1  0
  1 11  1  0
  1 12  1  0
  2 13  1  0
  3 14  1  0
  4 15  1  0
  6 16  1  0
  7 17  1  0
  7 18  1  0
  9 19  1  0
M  END
