
     RDKit          3D

 23 24  0  0  0  0  0  0  0  0999 V2000
   -2.7906    0.8683    0.2252 C   0  0  0  0  0  0  0  0  0  0  0  0
   -1.2997    0.5309   -0.0094 C   0  0  0  0  0  0  0  0  0  0  0  0
   -1.1347   -0.8160   -0.7343 C   0  0  0  0  0  0  0  0  0  0  0  0
    0.2043   -0.7968   -0.0472 C   0  0  0  0  0  0  0  0  0  0  0  0
    1.1923   -0.0027   -0.7914 C   0  0  0  0  0  0  0  0  0  0  0  0
    2.5344   -0.0155   -0.0798 C   0  0  0  0  0  0  0  0  0  0  0  0
    3.4846    0.7311   -0.8401 O   0  0  0  0  0  0  0  0  0  0  0  0
    0.5147   -0.9434    1.3283 C   0  0  0  0  0  0  0  0  0  0  0  0
   -0.7076   -0.2384    1.0789 C   0  0  0  0  0  0  0  0  0  0  0  0
   -3.4048   -0.0302    0.2492 H   0  0  0  0  0  0  0  0  0  0  0  0
   -2.8492    1.4613    1.1726 H   0  0  0  0  0  0  0  0  0  0  0  0
   -3.1606    1.5266   -0.5763 H   0  0  0  0  0  0  0  0  0  0  0  0
   -0.8647    1.3946   -0.4648 H   0  0  0  0  0  0  0  0  0  0  0  0
   -1.8682   -1.5438   -0.3569 H   0  0  0  0  0  0  0  0  0  0  0  0
   -1.0658   -0.7223   -1.8125 H   0  0  0  0  0  0  0  0  0  0  0  0
    0.9868    1.1014   -0.8848 H   0  0  0  0  0  0  0  0  0  0  0  0
    1.3592   -0.4310   -1.8215 H   0  0  0  0  0  0  0  0  0  0  0  0
    2.9387   -1.0036    0.1135 H   0  0  0  0  0  0  0  0  0  0  0  0
    2.4953    0.6023    0.8690 H   0  0  0  0  0  0  0  0  0  0  0  0
    3.1725    1.6836   -0.7960 H   0  0  0  0  0  0  0  0  0  0  0  0
    1.2312   -0.3787    1.9598 H   0  0  0  0  0  0  0  0  0  0  0  0
    0.5809   -2.0315    1.6653 H   0  0  0  0  0  0  0  0  0  0  0  0
   -1.5491   -0.9463    1.4250 H   0  0  0  0  0  0  0  0  0  0  0  0
  1  2  1  0
  2  3  1  0
  3  4  1  0
  4  5  1  0
  5  6  1  0
  6  7  1  0
  4  8  1  0
  8  9  1  0
  9  2  1  0
  9  4  1  0
  1 10  1  0
  1 11  1  0
  1 12  1  0
  2 13  1  0
  3 14  1  0
  3 15  1  0
  5 16  1  0
  5 17  1  0
  6 18  1  0
  6 19  1  0
  7 20  1  0
  8 21  1  0
  8 22  1  0
  9 23  1  0
M  END
