
     RDKit          3D

 23 24  0  0  0  0  0  0  0  0999 V2000
    1.9045   -1.4194   -0.3105 C   0  0  0  0  0  0  0  0  0  0  0  0
    0.8241   -0.3519   -0.4325 C   0  0  0  0  0  0  0  0  0  0  0  0
    0.9040    0.5665    0.7298 C   0  0  0  0  0  0  0  0  0  0  0  0
    0.5586    1.9690    0.2334 C   0  0  0  0  0  0  0  0  0  0  0  0
   -0.5828    1.9250   -0.5873 O   0  0  0  0  0  0  0  0  0  0  0  0
   -1.5854    1.1721   -0.0174 C   0  0  0  0  0  0  0  0  0  0  0  0
   -1.6853   -0.2017   -0.5630 C   0  0  0  0  0  0  0  0  0  0  0  0
   -1.4372   -1.3074    0.4487 C   0  0  0  0  0  0  0  0  0  0  0  0
   -0.4941   -1.0100   -0.6386 C   0  0  0  0  0  0  0  0  0  0  0  0
    1.8407   -2.1564   -1.1237 H   0  0  0  0  0  0  0  0  0  0  0  0
    1.9190   -1.8745    0.7049 H   0  0  0  0  0  0  0  0  0  0  0  0
    2.8776   -0.8757   -0.4015 H   0  0  0  0  0  0  0  0  0  0  0  0
    1.0624    0.2241   -1.3667 H   0  0  0  0  0  0  0  0  0  0  0  0
    0.3257    0.2684    1.6008 H   0  0  0  0  0  0  0  0  0  0  0  0
    1.9865    0.6103    1.0494 H   0  0  0  0  0  0  0  0  0  0  0  0
    0.4650    2.6717    1.0596 H   0  0  0  0  0  0  0  0  0  0  0  0
    1.4366    2.2665   -0.4101 H   0  0  0  0  0  0  0  0  0  0  0  0
   -1.4188    1.1992    1.0995 H   0  0  0  0  0  0  0  0  0  0  0  0
   -2.5908    1.6717   -0.1416 H   0  0  0  0  0  0  0  0  0  0  0  0
   -2.4805   -0.3690   -1.3420 H   0  0  0  0  0  0  0  0  0  0  0  0
   -1.2557   -1.0189    1.5055 H   0  0  0  0  0  0  0  0  0  0  0  0
   -2.1251   -2.1619    0.3522 H   0  0  0  0  0  0  0  0  0  0  0  0
   -0.4491   -1.7977   -1.4487 H   0  0  0  0  0  0  0  0  0  0  0  0
  1  2  1  0
  2  3  1  0
  3  4  1  0
  4  5  1  0
  5  6  1  0
  6  7  1  0
  7  8  1  0
  8  9  1  0
  9  2  1  0
  9  7  1  0
  1 10  1  0
  1 11  1  0
  1 12  1  0
  2 13  1  0
  3 14  1  0
  3 15  1  0
  4 16  1  0
  4 17  1  0
  6 18  1  0
  6 19  1  0
  7 20  1  0
  8 21  1  0
  8 22  1  0
  9 23  1  0
M  END
