
     RDKit          3D

 27 27  0  0  0  0  0  0  0  0999 V2000
    1.2102   -1.8724    0.2872 C   0  0  0  0  0  0  0  0  0  0  0  0
    0.7744   -0.5543   -0.2583 C   0  0  0  0  0  0  0  0  0  0  0  0
    1.6506    0.5285    0.3088 C   0  0  0  0  0  0  0  0  0  0  0  0
    1.2278    1.8315   -0.3791 C   0  0  0  0  0  0  0  0  0  0  0  0
   -0.1641    2.1411    0.1563 C   0  0  0  0  0  0  0  0  0  0  0  0
   -1.0907    1.0930   -0.3710 C   0  0  0  0  0  0  0  0  0  0  0  0
   -0.6878   -0.3056   -0.0737 C   0  0  0  0  0  0  0  0  0  0  0  0
   -1.4229   -1.2147   -1.0694 C   0  0  0  0  0  0  0  0  0  0  0  0
   -1.1852   -0.7102    1.2985 C   0  0  0  0  0  0  0  0  0  0  0  0
    0.8798   -2.0676    1.3188 H   0  0  0  0  0  0  0  0  0  0  0  0
    2.3354   -1.8596    0.3239 H   0  0  0  0  0  0  0  0  0  0  0  0
    0.9559   -2.6818   -0.4261 H   0  0  0  0  0  0  0  0  0  0  0  0
    0.9662   -0.5685   -1.3651 H   0  0  0  0  0  0  0  0  0  0  0  0
    1.5727    0.5941    1.3985 H   0  0  0  0  0  0  0  0  0  0  0  0
    2.6875    0.3376   -0.0428 H   0  0  0  0  0  0  0  0  0  0  0  0
    1.9404    2.6377   -0.2222 H   0  0  0  0  0  0  0  0  0  0  0  0
    1.1053    1.5489   -1.4620 H   0  0  0  0  0  0  0  0  0  0  0  0
   -0.5249    3.1261   -0.2375 H   0  0  0  0  0  0  0  0  0  0  0  0
   -0.1713    2.1137    1.2640 H   0  0  0  0  0  0  0  0  0  0  0  0
   -1.1628    1.2084   -1.4720 H   0  0  0  0  0  0  0  0  0  0  0  0
   -2.1028    1.2912    0.0446 H   0  0  0  0  0  0  0  0  0  0  0  0
   -2.4978   -1.1077   -0.8632 H   0  0  0  0  0  0  0  0  0  0  0  0
   -1.1991   -0.8068   -2.0720 H   0  0  0  0  0  0  0  0  0  0  0  0
   -1.0485   -2.2476   -0.9225 H   0  0  0  0  0  0  0  0  0  0  0  0
   -1.2362   -1.8178    1.3034 H   0  0  0  0  0  0  0  0  0  0  0  0
   -2.2227   -0.3479    1.4137 H   0  0  0  0  0  0  0  0  0  0  0  0
   -0.5895   -0.2893    2.1191 H   0  0  0  0  0  0  0  0  0  0  0  0
  1  2  1  0
  2  3  1  0
  3  4  1  0
  4  5  1  0
  5  6  1  0
  6  7  1  0
  7  8  1  0
  7  9  1  0
  7  2  1  0
  1 10  1  0
  1 11  1  0
  1 12  1  0
  2 13  1  0
  3 14  1  0
  3 15  1  0
  4 16  1  0
  4 17  1  0
  5 18  1  0
  5 19  1  0
  6 20  1  0
  6 21  1  0
  8 22  1  0
  8 23  1  0
  8 24  1  0
  9 25  1  0
  9 26  1  0
  9 27  1  0
M  END
