
     RDKit          3D

 23 23  0  0  0  0  0  0  0  0999 V2000
   -2.1231    1.1155   -0.5816 C   0  0  0  0  0  0  0  0  0  0  0  0
   -1.3223    0.3387    0.4739 C   0  0  0  0  0  0  0  0  0  0  0  0
   -0.2068    1.1734    0.8817 C   0  0  0  0  0  0  0  0  0  0  0  0
    1.1152    1.3043    0.8035 C   0  0  0  0  0  0  0  0  0  0  0  0
    2.1551    0.4987    0.1473 C   0  0  0  0  0  0  0  0  0  0  0  0
    1.7653   -0.0300   -1.0709 O   0  0  0  0  0  0  0  0  0  0  0  0
    1.1797   -1.2552   -1.0106 C   0  0  0  0  0  0  0  0  0  0  0  0
    0.3624   -1.5102    0.2267 C   0  0  0  0  0  0  0  0  0  0  0  0
   -1.0308   -1.0281    0.0137 C   0  0  0  0  0  0  0  0  0  0  0  0
   -1.3961    1.5812   -1.2679 H   0  0  0  0  0  0  0  0  0  0  0  0
   -2.7273    1.9137   -0.1140 H   0  0  0  0  0  0  0  0  0  0  0  0
   -2.8093    0.4321   -1.1367 H   0  0  0  0  0  0  0  0  0  0  0  0
   -2.0292    0.2700    1.3541 H   0  0  0  0  0  0  0  0  0  0  0  0
   -0.5856    2.0221    1.4840 H   0  0  0  0  0  0  0  0  0  0  0  0
    1.5016    2.1719    1.3233 H   0  0  0  0  0  0  0  0  0  0  0  0
    2.6389   -0.2446    0.8137 H   0  0  0  0  0  0  0  0  0  0  0  0
    2.9924    1.2172   -0.1044 H   0  0  0  0  0  0  0  0  0  0  0  0
    1.9136   -2.0717   -1.2062 H   0  0  0  0  0  0  0  0  0  0  0  0
    0.4585   -1.3163   -1.8783 H   0  0  0  0  0  0  0  0  0  0  0  0
    0.3194   -2.6173    0.3555 H   0  0  0  0  0  0  0  0  0  0  0  0
    0.8269   -1.1188    1.1515 H   0  0  0  0  0  0  0  0  0  0  0  0
   -1.2312   -1.0738   -1.0974 H   0  0  0  0  0  0  0  0  0  0  0  0
   -1.7673   -1.7728    0.4389 H   0  0  0  0  0  0  0  0  0  0  0  0
  1  2  1  0
  2  3  1  0
  3  4  2  3
  4  5  1  0
  5  6  1  0
  6  7  1  0
  7  8  1  0
  8  9  1  0
  9  2  1  0
  1 10  1  0
  1 11  1  0
  1 12  1  0
  2 13  1  0
  3 14  1  0
  4 15  1  0
  5 16  1  0
  5 17  1  0
  7 18  1  0
  7 19  1  0
  8 20  1  0
  8 21  1  0
  9 22  1  0
  9 23  1  0
M  END
