
     RDKit          3D

 20 21  0  0  0  0  0  0  0  0999 V2000
    1.9122    0.3204    0.5257 C   0  0  0  0  0  0  0  0  0  0  0  0
    0.8890   -0.1140   -0.5005 C   0  0  0  0  0  0  0  0  0  0  0  0
    0.3185   -1.4773   -0.2017 C   0  0  0  0  0  0  0  0  0  0  0  0
   -1.1720   -1.5493   -0.2485 C   0  0  0  0  0  0  0  0  0  0  0  0
   -1.8921   -0.5096    0.1513 C   0  0  0  0  0  0  0  0  0  0  0  0
   -1.0923    0.6053    0.5985 C   0  0  0  0  0  0  0  0  0  0  0  0
   -0.7703    1.8731    0.0858 C   0  0  0  0  0  0  0  0  0  0  0  0
   -0.2106    0.8291   -0.6889 C   0  0  0  0  0  0  0  0  0  0  0  0
    1.5108    0.4820    1.5246 H   0  0  0  0  0  0  0  0  0  0  0  0
    2.3846    1.2481    0.0869 H   0  0  0  0  0  0  0  0  0  0  0  0
    2.7079   -0.4440    0.5413 H   0  0  0  0  0  0  0  0  0  0  0  0
    1.4779   -0.2356   -1.4574 H   0  0  0  0  0  0  0  0  0  0  0  0
    0.6717   -1.7803    0.8236 H   0  0  0  0  0  0  0  0  0  0  0  0
    0.7123   -2.2702   -0.8794 H   0  0  0  0  0  0  0  0  0  0  0  0
   -1.6663   -2.4743   -0.6189 H   0  0  0  0  0  0  0  0  0  0  0  0
   -2.9517   -0.5171    0.1360 H   0  0  0  0  0  0  0  0  0  0  0  0
   -0.5166    0.2900    1.5288 H   0  0  0  0  0  0  0  0  0  0  0  0
   -0.0666    2.5269    0.6735 H   0  0  0  0  0  0  0  0  0  0  0  0
   -1.5288    2.5566   -0.3994 H   0  0  0  0  0  0  0  0  0  0  0  0
   -0.7175    0.6402   -1.6813 H   0  0  0  0  0  0  0  0  0  0  0  0
  1  2  1  0
  2  3  1  0
  3  4  1  0
  4  5  2  0
  5  6  1  0
  6  7  1  0
  7  8  1  0
  8  2  1  0
  8  6  1  0
  1  9  1  0
  1 10  1  0
  1 11  1  0
  2 12  1  0
  3 13  1  0
  3 14  1  0
  4 15  1  0
  5 16  1  0
  6 17  1  0
  7 18  1  0
  7 19  1  0
  8 20  1  0
M  END
