
     RDKit          3D

 23 25  0  0  0  0  0  0  0  0999 V2000
   -2.4286   -0.9240    0.7410 C   0  0  0  0  0  0  0  0  0  0  0  0
   -1.6775    0.3947    0.6531 C   0  0  0  0  0  0  0  0  0  0  0  0
   -1.7769    1.0486   -0.7572 C   0  0  0  0  0  0  0  0  0  0  0  0
   -0.5656    0.4844   -0.2635 C   0  0  0  0  0  0  0  0  0  0  0  0
    0.1978   -0.6866   -0.7490 C   0  0  0  0  0  0  0  0  0  0  0  0
    1.4027   -0.0507   -0.1894 C   0  0  0  0  0  0  0  0  0  0  0  0
    2.7691   -0.2479   -0.5314 C   0  0  0  0  0  0  0  0  0  0  0  0
    2.2311   -0.5602    0.8812 C   0  0  0  0  0  0  0  0  0  0  0  0
    0.6987    1.2553   -0.0039 C   0  0  0  0  0  0  0  0  0  0  0  0
   -1.9155   -1.6582    1.3920 H   0  0  0  0  0  0  0  0  0  0  0  0
   -2.4480   -1.3839   -0.2807 H   0  0  0  0  0  0  0  0  0  0  0  0
   -3.4970   -0.7771    1.0120 H   0  0  0  0  0  0  0  0  0  0  0  0
   -1.7129    1.0612    1.5169 H   0  0  0  0  0  0  0  0  0  0  0  0
   -1.8655    2.1760   -0.7235 H   0  0  0  0  0  0  0  0  0  0  0  0
   -2.4807    0.6082   -1.4666 H   0  0  0  0  0  0  0  0  0  0  0  0
    0.1369   -0.8696   -1.8278 H   0  0  0  0  0  0  0  0  0  0  0  0
   -0.1002   -1.6240   -0.2040 H   0  0  0  0  0  0  0  0  0  0  0  0
    3.4746    0.6019   -0.5616 H   0  0  0  0  0  0  0  0  0  0  0  0
    3.1054   -1.1066   -1.1408 H   0  0  0  0  0  0  0  0  0  0  0  0
    2.2532   -1.5923    1.2306 H   0  0  0  0  0  0  0  0  0  0  0  0
    2.5118    0.1724    1.6901 H   0  0  0  0  0  0  0  0  0  0  0  0
    0.7810    1.7273    0.9983 H   0  0  0  0  0  0  0  0  0  0  0  0
    0.9061    1.9512   -0.8636 H   0  0  0  0  0  0  0  0  0  0  0  0
  1  2  1  0
  2  3  1  0
  3  4  1  0
  4  5  1  0
  5  6  1  0
  6  7  1  0
  7  8  1  0
  6  9  1  0
  4  2  1  0
  8  6  1  0
  9  4  1  0
  1 10  1  0
  1 11  1  0
  1 12  1  0
  2 13  1  0
  3 14  1  0
  3 15  1  0
  5 16  1  0
  5 17  1  0
  7 18  1  0
  7 19  1  0
  8 20  1  0
  8 21  1  0
  9 22  1  0
  9 23  1  0
M  END
