
     RDKit          3D

 21 22  0  0  0  0  0  0  0  0999 V2000
    2.2093    0.4801   -0.6023 C   0  0  0  0  0  0  0  0  0  0  0  0
    1.0583   -0.2171    0.1022 C   0  0  0  0  0  0  0  0  0  0  0  0
    0.4616    0.6059    1.1977 C   0  0  0  0  0  0  0  0  0  0  0  0
   -1.0202    0.2777    1.1533 C   0  0  0  0  0  0  0  0  0  0  0  0
   -1.8007    1.0971    0.1861 C   0  0  0  0  0  0  0  0  0  0  0  0
   -1.3347   -0.2582   -0.1784 C   0  0  0  0  0  0  0  0  0  0  0  0
   -2.3440   -1.2383   -0.2661 O   0  0  0  0  0  0  0  0  0  0  0  0
   -0.0459   -0.5006   -0.8883 C   0  0  0  0  0  0  0  0  0  0  0  0
    0.0371   -1.8824   -1.1806 O   0  0  0  0  0  0  0  0  0  0  0  0
    1.9208    1.4470   -1.0320 H   0  0  0  0  0  0  0  0  0  0  0  0
    3.0100    0.5956    0.1579 H   0  0  0  0  0  0  0  0  0  0  0  0
    2.5974   -0.2377   -1.3536 H   0  0  0  0  0  0  0  0  0  0  0  0
    1.4807   -1.1384    0.5506 H   0  0  0  0  0  0  0  0  0  0  0  0
    0.8878    0.3337    2.1938 H   0  0  0  0  0  0  0  0  0  0  0  0
    0.6494    1.6744    0.9604 H   0  0  0  0  0  0  0  0  0  0  0  0
   -1.4926   -0.2199    2.0135 H   0  0  0  0  0  0  0  0  0  0  0  0
   -2.8511    1.2450    0.4245 H   0  0  0  0  0  0  0  0  0  0  0  0
   -1.3175    2.0119   -0.2475 H   0  0  0  0  0  0  0  0  0  0  0  0
   -2.1853   -1.7968   -1.0730 H   0  0  0  0  0  0  0  0  0  0  0  0
    0.0697    0.0515   -1.8342 H   0  0  0  0  0  0  0  0  0  0  0  0
    0.0099   -2.3307   -0.2840 H   0  0  0  0  0  0  0  0  0  0  0  0
  1  2  1  0
  2  3  1  0
  3  4  1  0
  4  5  1  0
  5  6  1  0
  6  7  1  0
  6  8  1  0
  8  9  1  0
  8  2  1  0
  6  4  1  0
  1 10  1  0
  1 11  1  0
  1 12  1  0
  2 13  1  0
  3 14  1  0
  3 15  1  0
  4 16  1  0
  5 17  1  0
  5 18  1  0
  7 19  1  0
  8 20  1  0
  9 21  1  0
M  END
