
     RDKit          3D

 19 19  0  0  0  0  0  0  0  0999 V2000
    2.1638   -0.0666   -0.2313 C   0  0  0  0  0  0  0  0  0  0  0  0
    0.6869    0.0817   -0.3611 C   0  0  0  0  0  0  0  0  0  0  0  0
    0.1577    1.3877    0.0368 C   0  0  0  0  0  0  0  0  0  0  0  0
    0.8795    2.2749    0.3704 O   0  0  0  0  0  0  0  0  0  0  0  0
   -1.2949    1.5802    0.0151 C   0  0  0  0  0  0  0  0  0  0  0  0
   -1.9303    0.5386    0.6852 O   0  0  0  0  0  0  0  0  0  0  0  0
   -1.5443   -0.6763    0.1526 C   0  0  0  0  0  0  0  0  0  0  0  0
   -0.0745   -0.9425    0.4921 C   0  0  0  0  0  0  0  0  0  0  0  0
    0.3072   -2.2213    0.1753 O   0  0  0  0  0  0  0  0  0  0  0  0
    2.4853   -1.0652    0.1332 H   0  0  0  0  0  0  0  0  0  0  0  0
    2.6093    0.0488   -1.2544 H   0  0  0  0  0  0  0  0  0  0  0  0
    2.5799    0.7616    0.3680 H   0  0  0  0  0  0  0  0  0  0  0  0
    0.3676   -0.1329   -1.4109 H   0  0  0  0  0  0  0  0  0  0  0  0
   -1.6242    2.5375    0.4628 H   0  0  0  0  0  0  0  0  0  0  0  0
   -1.6113    1.6095   -1.0673 H   0  0  0  0  0  0  0  0  0  0  0  0
   -1.6552   -0.6172   -0.9571 H   0  0  0  0  0  0  0  0  0  0  0  0
   -2.1297   -1.5156    0.5256 H   0  0  0  0  0  0  0  0  0  0  0  0
    0.0458   -0.6964    1.5788 H   0  0  0  0  0  0  0  0  0  0  0  0
   -0.4185   -2.8863    0.2861 H   0  0  0  0  0  0  0  0  0  0  0  0
  1  2  1  0
  2  3  1  0
  3  4  2  0
  3  5  1  0
  5  6  1  0
  6  7  1  0
  7  8  1  0
  8  9  1  0
  8  2  1  0
  1 10  1  0
  1 11  1  0
  1 12  1  0
  2 13  1  0
  5 14  1  0
  5 15  1  0
  7 16  1  0
  7 17  1  0
  8 18  1  0
  9 19  1  0
M  END
