
     RDKit          3D

 19 20  0  0  0  0  0  0  0  0999 V2000
    1.8391    1.0130   -0.1899 C   0  0  0  0  0  0  0  0  0  0  0  0
    1.1309   -0.3045   -0.4280 C   0  0  0  0  0  0  0  0  0  0  0  0
    0.6490   -0.9485    0.8273 C   0  0  0  0  0  0  0  0  0  0  0  0
   -0.8090   -1.2803    0.5526 C   0  0  0  0  0  0  0  0  0  0  0  0
   -1.2274   -0.1221   -0.3106 C   0  0  0  0  0  0  0  0  0  0  0  0
   -1.9531    0.9505    0.2226 C   0  0  0  0  0  0  0  0  0  0  0  0
   -2.5233    0.0319   -0.7216 O   0  0  0  0  0  0  0  0  0  0  0  0
   -0.0941   -0.0011   -1.2454 C   0  0  0  0  0  0  0  0  0  0  0  0
   -0.0969    0.2805   -2.4301 O   0  0  0  0  0  0  0  0  0  0  0  0
    2.9329    0.8862   -0.0608 H   0  0  0  0  0  0  0  0  0  0  0  0
    1.3684    1.6268    0.5879 H   0  0  0  0  0  0  0  0  0  0  0  0
    1.7215    1.5940   -1.1489 H   0  0  0  0  0  0  0  0  0  0  0  0
    1.8110   -0.9560   -0.9934 H   0  0  0  0  0  0  0  0  0  0  0  0
    0.6593   -0.2600    1.7043 H   0  0  0  0  0  0  0  0  0  0  0  0
    1.1747   -1.8746    1.0986 H   0  0  0  0  0  0  0  0  0  0  0  0
   -1.3845   -1.2906    1.4857 H   0  0  0  0  0  0  0  0  0  0  0  0
   -0.9092   -2.2110   -0.0406 H   0  0  0  0  0  0  0  0  0  0  0  0
   -2.4588    0.8686    1.2135 H   0  0  0  0  0  0  0  0  0  0  0  0
   -1.8302    1.9972   -0.1232 H   0  0  0  0  0  0  0  0  0  0  0  0
  1  2  1  0
  2  3  1  0
  3  4  1  0
  4  5  1  0
  5  6  1  0
  6  7  1  0
  5  8  1  0
  8  9  2  0
  8  2  1  0
  7  5  1  0
  1 10  1  0
  1 11  1  0
  1 12  1  0
  2 13  1  0
  3 14  1  0
  3 15  1  0
  4 16  1  0
  4 17  1  0
  6 18  1  0
  6 19  1  0
M  END
