
     RDKit          3D

 21 22  0  0  0  0  0  0  0  0999 V2000
    2.0619   -1.3915   -0.0639 C   0  0  0  0  0  0  0  0  0  0  0  0
    1.2788   -0.2792    0.5906 C   0  0  0  0  0  0  0  0  0  0  0  0
    1.8550    1.1150    0.3222 C   0  0  0  0  0  0  0  0  0  0  0  0
    0.5089    1.4671   -0.2249 C   0  0  0  0  0  0  0  0  0  0  0  0
    0.1702    0.8141   -1.3818 O   0  0  0  0  0  0  0  0  0  0  0  0
    0.0778    0.1232   -0.2054 C   0  0  0  0  0  0  0  0  0  0  0  0
   -1.2358   -0.3946    0.2999 C   0  0  0  0  0  0  0  0  0  0  0  0
   -2.3994    0.0587   -0.5626 C   0  0  0  0  0  0  0  0  0  0  0  0
   -3.5539   -0.4982    0.0281 O   0  0  0  0  0  0  0  0  0  0  0  0
    1.3503   -2.1903   -0.3268 H   0  0  0  0  0  0  0  0  0  0  0  0
    2.8457   -1.7036    0.6438 H   0  0  0  0  0  0  0  0  0  0  0  0
    2.5049   -0.9604   -1.0045 H   0  0  0  0  0  0  0  0  0  0  0  0
    1.0378   -0.4005    1.6470 H   0  0  0  0  0  0  0  0  0  0  0  0
    2.6684    1.0341   -0.4239 H   0  0  0  0  0  0  0  0  0  0  0  0
    2.1662    1.6250    1.2505 H   0  0  0  0  0  0  0  0  0  0  0  0
   -0.0468    2.3447    0.1271 H   0  0  0  0  0  0  0  0  0  0  0  0
   -1.2356   -1.5089    0.2654 H   0  0  0  0  0  0  0  0  0  0  0  0
   -1.3852   -0.1111    1.3434 H   0  0  0  0  0  0  0  0  0  0  0  0
   -2.3440   -0.3824   -1.5732 H   0  0  0  0  0  0  0  0  0  0  0  0
   -2.4931    1.1500   -0.6004 H   0  0  0  0  0  0  0  0  0  0  0  0
   -3.8321    0.0889    0.7865 H   0  0  0  0  0  0  0  0  0  0  0  0
  1  2  1  0
  2  3  1  0
  3  4  1  0
  4  5  1  0
  5  6  1  0
  6  7  1  0
  7  8  1  0
  8  9  1  0
  6  2  1  0
  6  4  1  0
  1 10  1  0
  1 11  1  0
  1 12  1  0
  2 13  1  0
  3 14  1  0
  3 15  1  0
  4 16  1  0
  7 17  1  0
  7 18  1  0
  8 19  1  0
  8 20  1  0
  9 21  1  0
M  END
