
     RDKit          3D

 21 22  0  0  0  0  0  0  0  0999 V2000
    1.4375   -1.4796    0.1088 C   0  0  0  0  0  0  0  0  0  0  0  0
    1.1941   -0.0251   -0.0074 C   0  0  0  0  0  0  0  0  0  0  0  0
    0.3923    0.5391    1.1785 C   0  0  0  0  0  0  0  0  0  0  0  0
   -0.8972   -0.2126    1.0288 C   0  0  0  0  0  0  0  0  0  0  0  0
   -1.0564   -0.4388   -0.4829 C   0  0  0  0  0  0  0  0  0  0  0  0
   -2.2756    0.0906   -0.9081 O   0  0  0  0  0  0  0  0  0  0  0  0
    0.1010    0.3157   -1.0330 C   0  0  0  0  0  0  0  0  0  0  0  0
   -0.0787    1.7840   -0.6255 C   0  0  0  0  0  0  0  0  0  0  0  0
    0.1704    1.8427    0.7299 O   0  0  0  0  0  0  0  0  0  0  0  0
    0.8692   -1.9519    0.9329 H   0  0  0  0  0  0  0  0  0  0  0  0
    2.5354   -1.6750    0.2854 H   0  0  0  0  0  0  0  0  0  0  0  0
    1.2309   -1.9528   -0.8832 H   0  0  0  0  0  0  0  0  0  0  0  0
    2.0498    0.5954   -0.2596 H   0  0  0  0  0  0  0  0  0  0  0  0
    0.8952    0.4580    2.1161 H   0  0  0  0  0  0  0  0  0  0  0  0
   -0.9497   -1.1436    1.5919 H   0  0  0  0  0  0  0  0  0  0  0  0
   -1.7437    0.4297    1.3970 H   0  0  0  0  0  0  0  0  0  0  0  0
   -0.9750   -1.5237   -0.6362 H   0  0  0  0  0  0  0  0  0  0  0  0
   -2.9994   -0.3623   -0.4215 H   0  0  0  0  0  0  0  0  0  0  0  0
    0.3792    0.1620   -2.0460 H   0  0  0  0  0  0  0  0  0  0  0  0
    0.7566    2.3580   -1.1233 H   0  0  0  0  0  0  0  0  0  0  0  0
   -1.0358    2.1903   -0.9425 H   0  0  0  0  0  0  0  0  0  0  0  0
  1  2  1  0
  2  3  1  0
  3  4  1  0
  4  5  1  0
  5  6  1  0
  5  7  1  0
  7  8  1  0
  8  9  1  0
  7  2  1  0
  9  3  1  0
  1 10  1  0
  1 11  1  0
  1 12  1  0
  2 13  1  0
  3 14  1  0
  4 15  1  0
  4 16  1  0
  5 17  1  0
  6 18  1  0
  7 19  1  0
  8 20  1  0
  8 21  1  0
M  END
