
     RDKit          3D

 21 22  0  0  0  0  0  0  0  0999 V2000
   -1.4063   -1.3531    0.5505 C   0  0  0  0  0  0  0  0  0  0  0  0
   -0.7353   -0.5735   -0.4936 C   0  0  0  0  0  0  0  0  0  0  0  0
   -1.4490    0.6040   -1.0668 C   0  0  0  0  0  0  0  0  0  0  0  0
   -1.8931    1.7063   -0.5160 O   0  0  0  0  0  0  0  0  0  0  0  0
   -0.8826    1.2958    0.2105 C   0  0  0  0  0  0  0  0  0  0  0  0
    0.3024    0.4515   -0.0980 C   0  0  0  0  0  0  0  0  0  0  0  0
    1.2385    0.9040   -1.1434 C   0  0  0  0  0  0  0  0  0  0  0  0
    1.0783   -0.0028    1.1227 C   0  0  0  0  0  0  0  0  0  0  0  0
    1.7201   -1.2166    0.8199 O   0  0  0  0  0  0  0  0  0  0  0  0
   -1.1716   -2.4561    0.4651 H   0  0  0  0  0  0  0  0  0  0  0  0
   -2.5196   -1.3220    0.3433 H   0  0  0  0  0  0  0  0  0  0  0  0
   -1.2936   -1.0619    1.5857 H   0  0  0  0  0  0  0  0  0  0  0  0
   -0.2950   -1.2428   -1.2648 H   0  0  0  0  0  0  0  0  0  0  0  0
   -0.9505    0.9079   -2.0411 H   0  0  0  0  0  0  0  0  0  0  0  0
   -1.3294    0.9305    1.1916 H   0  0  0  0  0  0  0  0  0  0  0  0
    0.8885    1.7292   -1.7913 H   0  0  0  0  0  0  0  0  0  0  0  0
    2.1589    1.2923   -0.6573 H   0  0  0  0  0  0  0  0  0  0  0  0
    1.5638    0.0580   -1.7820 H   0  0  0  0  0  0  0  0  0  0  0  0
    1.8920    0.7390    1.3238 H   0  0  0  0  0  0  0  0  0  0  0  0
    0.4764   -0.1601    2.0098 H   0  0  0  0  0  0  0  0  0  0  0  0
    2.6072   -1.2297    1.2315 H   0  0  0  0  0  0  0  0  0  0  0  0
  1  2  1  0
  2  3  1  0
  3  4  1  0
  4  5  1  0
  5  6  1  0
  6  7  1  0
  6  8  1  0
  8  9  1  0
  6  2  1  0
  5  3  1  0
  1 10  1  0
  1 11  1  0
  1 12  1  0
  2 13  1  0
  3 14  1  0
  5 15  1  0
  7 16  1  0
  7 17  1  0
  7 18  1  0
  8 19  1  0
  8 20  1  0
  9 21  1  0
M  END
