
     RDKit          3D

 23 24  0  0  0  0  0  0  0  0999 V2000
   -1.8972    0.0024    0.7734 C   0  0  0  0  0  0  0  0  0  0  0  0
   -1.1613    0.4899   -0.4371 C   0  0  0  0  0  0  0  0  0  0  0  0
   -0.1605    1.5675   -0.1281 C   0  0  0  0  0  0  0  0  0  0  0  0
    0.9303    1.1202    0.7921 C   0  0  0  0  0  0  0  0  0  0  0  0
    1.8300    0.0834    0.1383 C   0  0  0  0  0  0  0  0  0  0  0  0
    1.3155   -1.3056    0.2658 C   0  0  0  0  0  0  0  0  0  0  0  0
    1.4411   -2.0820   -0.9804 O   0  0  0  0  0  0  0  0  0  0  0  0
    0.1302   -1.6657   -0.4245 C   0  0  0  0  0  0  0  0  0  0  0  0
   -0.5563   -0.6340   -1.2517 C   0  0  0  0  0  0  0  0  0  0  0  0
   -2.9214    0.4722    0.8554 H   0  0  0  0  0  0  0  0  0  0  0  0
   -1.3899    0.2244    1.7113 H   0  0  0  0  0  0  0  0  0  0  0  0
   -2.0414   -1.1124    0.7475 H   0  0  0  0  0  0  0  0  0  0  0  0
   -1.9328    0.9651   -1.1096 H   0  0  0  0  0  0  0  0  0  0  0  0
   -0.7087    2.3913    0.3755 H   0  0  0  0  0  0  0  0  0  0  0  0
    0.2904    1.9241   -1.0562 H   0  0  0  0  0  0  0  0  0  0  0  0
    1.5787    2.0018    0.9921 H   0  0  0  0  0  0  0  0  0  0  0  0
    0.5721    0.7776    1.7839 H   0  0  0  0  0  0  0  0  0  0  0  0
    1.9932    0.3988   -0.9057 H   0  0  0  0  0  0  0  0  0  0  0  0
    2.8287    0.1497    0.6520 H   0  0  0  0  0  0  0  0  0  0  0  0
    1.6769   -1.8952    1.1100 H   0  0  0  0  0  0  0  0  0  0  0  0
   -0.4561   -2.5396   -0.0936 H   0  0  0  0  0  0  0  0  0  0  0  0
    0.0589   -0.1929   -2.0404 H   0  0  0  0  0  0  0  0  0  0  0  0
   -1.4202   -1.1408   -1.7700 H   0  0  0  0  0  0  0  0  0  0  0  0
  1  2  1  0
  2  3  1  0
  3  4  1  0
  4  5  1  0
  5  6  1  0
  6  7  1  0
  7  8  1  0
  8  9  1  0
  9  2  1  0
  8  6  1  0
  1 10  1  0
  1 11  1  0
  1 12  1  0
  2 13  1  0
  3 14  1  0
  3 15  1  0
  4 16  1  0
  4 17  1  0
  5 18  1  0
  5 19  1  0
  6 20  1  0
  8 21  1  0
  9 22  1  0
  9 23  1  0
M  END
