
     RDKit          3D

 22 23  0  0  0  0  0  0  0  0999 V2000
    2.8564   -0.4838   -0.4530 C   0  0  0  0  0  0  0  0  0  0  0  0
    1.3997   -0.8908   -0.1593 C   0  0  0  0  0  0  0  0  0  0  0  0
    0.7759   -0.2412    0.9418 C   0  0  0  0  0  0  0  0  0  0  0  0
   -0.0305    1.0408    0.9788 C   0  0  0  0  0  0  0  0  0  0  0  0
   -0.9983    0.2053    0.1174 C   0  0  0  0  0  0  0  0  0  0  0  0
   -1.9015    1.1369   -0.6312 C   0  0  0  0  0  0  0  0  0  0  0  0
   -1.6946   -0.9105    0.7724 C   0  0  0  0  0  0  0  0  0  0  0  0
    0.3202   -0.0792   -0.5690 C   0  0  0  0  0  0  0  0  0  0  0  0
    3.2011   -0.9986   -1.3903 H   0  0  0  0  0  0  0  0  0  0  0  0
    2.9572    0.6024   -0.5288 H   0  0  0  0  0  0  0  0  0  0  0  0
    3.4518   -0.9420    0.3651 H   0  0  0  0  0  0  0  0  0  0  0  0
    1.3024   -2.0004   -0.3833 H   0  0  0  0  0  0  0  0  0  0  0  0
    0.1710   -0.9842    1.5513 H   0  0  0  0  0  0  0  0  0  0  0  0
    0.3594    1.8628    0.3661 H   0  0  0  0  0  0  0  0  0  0  0  0
   -0.3934    1.3183    1.9558 H   0  0  0  0  0  0  0  0  0  0  0  0
   -1.3899    1.9424   -1.1584 H   0  0  0  0  0  0  0  0  0  0  0  0
   -2.5845    0.5755   -1.3088 H   0  0  0  0  0  0  0  0  0  0  0  0
   -2.5732    1.6211    0.1247 H   0  0  0  0  0  0  0  0  0  0  0  0
   -1.2962   -1.9354    0.5103 H   0  0  0  0  0  0  0  0  0  0  0  0
   -2.7571   -0.9499    0.3856 H   0  0  0  0  0  0  0  0  0  0  0  0
   -1.8293   -0.8064    1.8828 H   0  0  0  0  0  0  0  0  0  0  0  0
    0.6534    0.9168   -1.0134 H   0  0  0  0  0  0  0  0  0  0  0  0
  1  2  1  0
  2  3  1  0
  3  4  1  0
  4  5  1  0
  5  6  1  0
  5  7  1  0
  5  8  1  0
  8  2  1  0
  8  3  1  0
  1  9  1  0
  1 10  1  0
  1 11  1  0
  2 12  1  0
  3 13  1  0
  4 14  1  0
  4 15  1  0
  6 16  1  0
  6 17  1  0
  6 18  1  0
  7 19  1  0
  7 20  1  0
  7 21  1  0
  8 22  1  0
M  END
