
     RDKit          3D

 16 18  0  0  0  0  0  0  0  0999 V2000
   -2.2062    0.1714    0.0147 C   0  0  0  0  0  0  0  0  0  0  0  0
   -0.7552    0.3466   -0.2864 C   0  0  0  0  0  0  0  0  0  0  0  0
   -0.0305   -0.8503   -0.8381 C   0  0  0  0  0  0  0  0  0  0  0  0
   -0.1963   -1.4192    0.4227 O   0  0  0  0  0  0  0  0  0  0  0  0
    0.2159   -0.1251    0.7437 C   0  0  0  0  0  0  0  0  0  0  0  0
    1.2120   -0.2645   -0.3364 C   0  0  0  0  0  0  0  0  0  0  0  0
    2.2100    0.4898   -0.8101 C   0  0  0  0  0  0  0  0  0  0  0  0
    2.4064   -0.8860   -0.2248 O   0  0  0  0  0  0  0  0  0  0  0  0
   -2.4761   -0.8580    0.2801 H   0  0  0  0  0  0  0  0  0  0  0  0
   -2.5280    0.8397    0.8671 H   0  0  0  0  0  0  0  0  0  0  0  0
   -2.7826    0.5385   -0.8606 H   0  0  0  0  0  0  0  0  0  0  0  0
   -0.5074    1.3202   -0.7065 H   0  0  0  0  0  0  0  0  0  0  0  0
   -0.2303   -1.3064   -1.7182 H   0  0  0  0  0  0  0  0  0  0  0  0
    0.3376    0.2353    1.6794 H   0  0  0  0  0  0  0  0  0  0  0  0
    2.5512    0.5161   -1.8754 H   0  0  0  0  0  0  0  0  0  0  0  0
    2.7796    1.2520   -0.2043 H   0  0  0  0  0  0  0  0  0  0  0  0
  1  2  1  0
  2  3  1  0
  3  4  1  0
  4  5  1  0
  5  6  1  0
  6  7  1  0
  7  8  1  0
  5  2  1  0
  8  6  1  0
  6  3  1  0
  1  9  1  0
  1 10  1  0
  1 11  1  0
  2 12  1  0
  3 13  1  0
  5 14  1  0
  7 15  1  0
  7 16  1  0
M  END
