
     RDKit          3D

 19 21  0  0  0  0  0  0  0  0999 V2000
   -1.9024    0.2447    1.0808 C   0  0  0  0  0  0  0  0  0  0  0  0
   -1.1708    0.3178   -0.2163 C   0  0  0  0  0  0  0  0  0  0  0  0
   -0.6743   -0.9742   -0.7907 C   0  0  0  0  0  0  0  0  0  0  0  0
    0.6848   -0.4166   -1.0568 C   0  0  0  0  0  0  0  0  0  0  0  0
    0.9093    0.9878   -1.4522 C   0  0  0  0  0  0  0  0  0  0  0  0
    0.2852    0.7608   -0.1174 C   0  0  0  0  0  0  0  0  0  0  0  0
    1.0078    0.5227    1.0066 O   0  0  0  0  0  0  0  0  0  0  0  0
    1.9437   -0.4445    0.7851 C   0  0  0  0  0  0  0  0  0  0  0  0
    1.7239   -1.0495   -0.4154 O   0  0  0  0  0  0  0  0  0  0  0  0
   -1.2550   -0.2008    1.8511 H   0  0  0  0  0  0  0  0  0  0  0  0
   -2.8291   -0.3449    0.9217 H   0  0  0  0  0  0  0  0  0  0  0  0
   -2.2222    1.2639    1.3557 H   0  0  0  0  0  0  0  0  0  0  0  0
   -1.7003    0.8991   -1.0096 H   0  0  0  0  0  0  0  0  0  0  0  0
   -1.2507   -1.3220   -1.6798 H   0  0  0  0  0  0  0  0  0  0  0  0
   -0.6834   -1.7899   -0.0116 H   0  0  0  0  0  0  0  0  0  0  0  0
    1.9461    1.3113   -1.5472 H   0  0  0  0  0  0  0  0  0  0  0  0
    0.2386    1.4040   -2.2317 H   0  0  0  0  0  0  0  0  0  0  0  0
    1.9940   -1.2137    1.6111 H   0  0  0  0  0  0  0  0  0  0  0  0
    2.9550    0.0440    0.8110 H   0  0  0  0  0  0  0  0  0  0  0  0
  1  2  1  0
  2  3  1  0
  3  4  1  0
  4  5  1  0
  5  6  1  0
  6  7  1  0
  7  8  1  0
  8  9  1  0
  6  2  1  0
  6  4  1  0
  9  4  1  0
  1 10  1  0
  1 11  1  0
  1 12  1  0
  2 13  1  0
  3 14  1  0
  3 15  1  0
  5 16  1  0
  5 17  1  0
  8 18  1  0
  8 19  1  0
M  END
