
     RDKit          3D

 19 20  0  0  0  0  0  0  0  0999 V2000
    2.0676   -0.8057   -0.0523 C   0  0  0  0  0  0  0  0  0  0  0  0
    0.9882    0.2112   -0.0512 C   0  0  0  0  0  0  0  0  0  0  0  0
   -0.2306   -0.1090   -0.8865 C   0  0  0  0  0  0  0  0  0  0  0  0
   -1.0598    1.1432   -0.7232 C   0  0  0  0  0  0  0  0  0  0  0  0
   -0.8440    1.3403    0.7400 C   0  0  0  0  0  0  0  0  0  0  0  0
   -1.2414    2.1970    1.4746 O   0  0  0  0  0  0  0  0  0  0  0  0
    0.0129    0.1823    1.0939 C   0  0  0  0  0  0  0  0  0  0  0  0
   -0.7104   -0.9107    0.3328 C   0  0  0  0  0  0  0  0  0  0  0  0
   -2.0719   -0.7827    0.4862 O   0  0  0  0  0  0  0  0  0  0  0  0
    2.8551   -0.4834    0.6525 H   0  0  0  0  0  0  0  0  0  0  0  0
    1.7563   -1.8149    0.2551 H   0  0  0  0  0  0  0  0  0  0  0  0
    2.5443   -0.7992   -1.0629 H   0  0  0  0  0  0  0  0  0  0  0  0
    1.3498    1.2126   -0.2590 H   0  0  0  0  0  0  0  0  0  0  0  0
   -0.1434   -0.5939   -1.8115 H   0  0  0  0  0  0  0  0  0  0  0  0
   -0.6102    1.9273   -1.3318 H   0  0  0  0  0  0  0  0  0  0  0  0
   -2.1292    0.9746   -0.9494 H   0  0  0  0  0  0  0  0  0  0  0  0
    0.3318    0.0208    2.0791 H   0  0  0  0  0  0  0  0  0  0  0  0
   -0.2787   -1.8995    0.3574 H   0  0  0  0  0  0  0  0  0  0  0  0
   -2.5865   -1.0106   -0.3437 H   0  0  0  0  0  0  0  0  0  0  0  0
  1  2  1  0
  2  3  1  0
  3  4  1  0
  4  5  1  0
  5  6  2  0
  5  7  1  0
  7  8  1  0
  8  9  1  0
  7  2  1  0
  8  3  1  0
  1 10  1  0
  1 11  1  0
  1 12  1  0
  2 13  1  0
  3 14  1  0
  4 15  1  0
  4 16  1  0
  7 17  1  0
  8 18  1  0
  9 19  1  0
M  END
