
     RDKit          3D

 19 20  0  0  0  0  0  0  0  0999 V2000
   -2.1759    0.5503    0.6341 C   0  0  0  0  0  0  0  0  0  0  0  0
   -1.0199    0.2959   -0.2778 C   0  0  0  0  0  0  0  0  0  0  0  0
   -0.9672   -1.0543   -0.8298 C   0  0  0  0  0  0  0  0  0  0  0  0
    0.2172   -1.6176   -0.6433 C   0  0  0  0  0  0  0  0  0  0  0  0
    1.1302   -0.6993    0.0724 C   0  0  0  0  0  0  0  0  0  0  0  0
    2.0086   -1.2499    1.0145 O   0  0  0  0  0  0  0  0  0  0  0  0
    1.4779    0.6027   -0.5460 C   0  0  0  0  0  0  0  0  0  0  0  0
    2.5716    1.2983   -0.0274 O   0  0  0  0  0  0  0  0  0  0  0  0
    0.3007    0.4809    0.4097 C   0  0  0  0  0  0  0  0  0  0  0  0
   -2.0923    1.6180    0.9771 H   0  0  0  0  0  0  0  0  0  0  0  0
   -2.1261   -0.0813    1.5351 H   0  0  0  0  0  0  0  0  0  0  0  0
   -3.1224    0.4338    0.0817 H   0  0  0  0  0  0  0  0  0  0  0  0
   -1.1170    1.0106   -1.1391 H   0  0  0  0  0  0  0  0  0  0  0  0
   -1.7759   -1.5601   -1.3337 H   0  0  0  0  0  0  0  0  0  0  0  0
    0.5042   -2.6141   -0.9618 H   0  0  0  0  0  0  0  0  0  0  0  0
    1.7506   -1.0091    1.9435 H   0  0  0  0  0  0  0  0  0  0  0  0
    1.2666    0.6926   -1.6367 H   0  0  0  0  0  0  0  0  0  0  0  0
    2.7922    2.0121   -0.6891 H   0  0  0  0  0  0  0  0  0  0  0  0
    0.3769    0.8904    1.4165 H   0  0  0  0  0  0  0  0  0  0  0  0
  1  2  1  0
  2  3  1  0
  3  4  2  0
  4  5  1  0
  5  6  1  0
  5  7  1  0
  7  8  1  0
  7  9  1  0
  9  2  1  0
  9  5  1  0
  1 10  1  0
  1 11  1  0
  1 12  1  0
  2 13  1  0
  3 14  1  0
  4 15  1  0
  6 16  1  0
  7 17  1  0
  8 18  1  0
  9 19  1  0
M  END
