
     RDKit          3D

 21 21  0  0  0  0  0  0  0  0999 V2000
   -2.7861    0.5647    0.0774 C   0  0  0  0  0  0  0  0  0  0  0  0
   -1.5252   -0.3027   -0.0702 C   0  0  0  0  0  0  0  0  0  0  0  0
   -0.7917    0.1452   -1.2538 C   0  0  0  0  0  0  0  0  0  0  0  0
    0.4946    0.6069   -1.0490 O   0  0  0  0  0  0  0  0  0  0  0  0
    1.0827   -0.2081   -0.0864 C   0  0  0  0  0  0  0  0  0  0  0  0
    2.5744   -0.0041    0.0184 C   0  0  0  0  0  0  0  0  0  0  0  0
    2.8628    1.3143    0.3612 O   0  0  0  0  0  0  0  0  0  0  0  0
    0.3697    0.1361    1.2005 C   0  0  0  0  0  0  0  0  0  0  0  0
   -0.9058   -0.3336    1.1254 O   0  0  0  0  0  0  0  0  0  0  0  0
   -3.1713    0.4119    1.1250 H   0  0  0  0  0  0  0  0  0  0  0  0
   -2.5617    1.6268   -0.0216 H   0  0  0  0  0  0  0  0  0  0  0  0
   -3.5456    0.2016   -0.6472 H   0  0  0  0  0  0  0  0  0  0  0  0
   -1.9365   -1.3368   -0.2741 H   0  0  0  0  0  0  0  0  0  0  0  0
   -1.3248    0.9761   -1.8051 H   0  0  0  0  0  0  0  0  0  0  0  0
   -0.7052   -0.6655   -2.0375 H   0  0  0  0  0  0  0  0  0  0  0  0
    0.8713   -1.2506   -0.3741 H   0  0  0  0  0  0  0  0  0  0  0  0
    2.9603   -0.7256    0.7454 H   0  0  0  0  0  0  0  0  0  0  0  0
    2.9969   -0.2671   -0.9828 H   0  0  0  0  0  0  0  0  0  0  0  0
    3.8554    1.3277    0.5464 H   0  0  0  0  0  0  0  0  0  0  0  0
    0.8775   -0.2252    2.0985 H   0  0  0  0  0  0  0  0  0  0  0  0
    0.3082    1.2597    1.3037 H   0  0  0  0  0  0  0  0  0  0  0  0
  1  2  1  0
  2  3  1  0
  3  4  1  0
  4  5  1  0
  5  6  1  0
  6  7  1  0
  5  8  1  0
  8  9  1  0
  9  2  1  0
  1 10  1  0
  1 11  1  0
  1 12  1  0
  2 13  1  0
  3 14  1  0
  3 15  1  0
  5 16  1  0
  6 17  1  0
  6 18  1  0
  7 19  1  0
  8 20  1  0
  8 21  1  0
M  END
