
     RDKit          3D

 19 20  0  0  0  0  0  0  0  0999 V2000
    2.4760    0.2338   -0.2774 C   0  0  0  0  0  0  0  0  0  0  0  0
    1.2111   -0.5454   -0.2043 C   0  0  0  0  0  0  0  0  0  0  0  0
    0.1091    0.1723   -0.9930 C   0  0  0  0  0  0  0  0  0  0  0  0
   -0.7401    0.1006    0.2286 C   0  0  0  0  0  0  0  0  0  0  0  0
    0.3911   -0.3553    1.0673 C   0  0  0  0  0  0  0  0  0  0  0  0
   -1.3992    1.2253    0.6299 O   0  0  0  0  0  0  0  0  0  0  0  0
   -2.5991    0.6240    0.2019 C   0  0  0  0  0  0  0  0  0  0  0  0
   -1.9486   -0.7140    0.1679 C   0  0  0  0  0  0  0  0  0  0  0  0
   -2.2170   -1.8871    0.1172 O   0  0  0  0  0  0  0  0  0  0  0  0
    3.3056   -0.4697   -0.5792 H   0  0  0  0  0  0  0  0  0  0  0  0
    2.4471    0.9854   -1.1157 H   0  0  0  0  0  0  0  0  0  0  0  0
    2.7386    0.7956    0.6224 H   0  0  0  0  0  0  0  0  0  0  0  0
    1.3030   -1.6145   -0.4140 H   0  0  0  0  0  0  0  0  0  0  0  0
   -0.2224   -0.5140   -1.8212 H   0  0  0  0  0  0  0  0  0  0  0  0
    0.3792    1.1523   -1.3767 H   0  0  0  0  0  0  0  0  0  0  0  0
    0.2407   -1.2841    1.6581 H   0  0  0  0  0  0  0  0  0  0  0  0
    0.8436    0.4661    1.6628 H   0  0  0  0  0  0  0  0  0  0  0  0
   -2.9251    1.0161   -0.7873 H   0  0  0  0  0  0  0  0  0  0  0  0
   -3.3934    0.6125    0.9869 H   0  0  0  0  0  0  0  0  0  0  0  0
  1  2  1  0
  2  3  1  0
  3  4  1  0
  4  5  1  0
  4  6  1  0
  6  7  1  0
  7  8  1  0
  8  9  2  0
  5  2  1  0
  8  4  1  0
  1 10  1  0
  1 11  1  0
  1 12  1  0
  2 13  1  0
  3 14  1  0
  3 15  1  0
  5 16  1  0
  5 17  1  0
  7 18  1  0
  7 19  1  0
M  END
