
     RDKit          3D

 21 21  0  0  0  0  0  0  0  0999 V2000
   -1.8647    0.9868    0.3753 C   0  0  0  0  0  0  0  0  0  0  0  0
   -1.2994    0.0859   -0.7337 C   0  0  0  0  0  0  0  0  0  0  0  0
   -1.2077   -1.2654   -0.1873 C   0  0  0  0  0  0  0  0  0  0  0  0
   -0.1101   -1.7851    0.3148 C   0  0  0  0  0  0  0  0  0  0  0  0
    1.0991   -0.9355    0.3195 C   0  0  0  0  0  0  0  0  0  0  0  0
    1.2184   -0.0635   -0.9035 C   0  0  0  0  0  0  0  0  0  0  0  0
    2.3197    0.9106   -0.6666 C   0  0  0  0  0  0  0  0  0  0  0  0
    3.3270    0.9983   -1.3450 O   0  0  0  0  0  0  0  0  0  0  0  0
   -0.0349    0.6476   -1.2785 C   0  0  0  0  0  0  0  0  0  0  0  0
   -2.6264    0.4561    0.9585 H   0  0  0  0  0  0  0  0  0  0  0  0
   -2.3653    1.8723   -0.0999 H   0  0  0  0  0  0  0  0  0  0  0  0
   -1.0204    1.3690    0.9943 H   0  0  0  0  0  0  0  0  0  0  0  0
   -2.0789    0.0888   -1.5254 H   0  0  0  0  0  0  0  0  0  0  0  0
   -2.0976   -1.9014   -0.1863 H   0  0  0  0  0  0  0  0  0  0  0  0
   -0.1201   -2.8083    0.7066 H   0  0  0  0  0  0  0  0  0  0  0  0
    1.1433   -0.3052    1.2455 H   0  0  0  0  0  0  0  0  0  0  0  0
    1.9722   -1.6167    0.3898 H   0  0  0  0  0  0  0  0  0  0  0  0
    1.5564   -0.7307   -1.7263 H   0  0  0  0  0  0  0  0  0  0  0  0
    2.2368    1.5992    0.1646 H   0  0  0  0  0  0  0  0  0  0  0  0
    0.0383    1.7067   -0.9419 H   0  0  0  0  0  0  0  0  0  0  0  0
   -0.0859    0.6903   -2.3879 H   0  0  0  0  0  0  0  0  0  0  0  0
  1  2  1  0
  2  3  1  0
  3  4  2  0
  4  5  1  0
  5  6  1  0
  6  7  1  0
  7  8  2  0
  6  9  1  0
  9  2  1  0
  1 10  1  0
  1 11  1  0
  1 12  1  0
  2 13  1  0
  3 14  1  0
  4 15  1  0
  5 16  1  0
  5 17  1  0
  6 18  1  0
  7 19  1  0
  9 20  1  0
  9 21  1  0
M  END
