
     RDKit          3D

 18 18  0  0  0  0  0  0  0  0999 V2000
    1.4288   -1.3029   -0.2969 C   0  0  0  0  0  0  0  0  0  0  0  0
    1.1010    0.0906    0.1821 C   0  0  0  0  0  0  0  0  0  0  0  0
    0.2186    0.3030    1.3458 C   0  0  0  0  0  0  0  0  0  0  0  0
   -0.2491    0.6619   -0.0466 C   0  0  0  0  0  0  0  0  0  0  0  0
   -0.3508    2.1094   -0.3758 C   0  0  0  0  0  0  0  0  0  0  0  0
    0.5365    2.8368    0.0257 O   0  0  0  0  0  0  0  0  0  0  0  0
   -1.3738   -0.1608   -0.5738 C   0  0  0  0  0  0  0  0  0  0  0  0
   -1.6034   -1.2057    0.3130 O   0  0  0  0  0  0  0  0  0  0  0  0
    0.9449   -1.4819   -1.2800 H   0  0  0  0  0  0  0  0  0  0  0  0
    2.5182   -1.4540   -0.4318 H   0  0  0  0  0  0  0  0  0  0  0  0
    1.0863   -2.0853    0.4072 H   0  0  0  0  0  0  0  0  0  0  0  0
    1.9419    0.8052    0.0638 H   0  0  0  0  0  0  0  0  0  0  0  0
    0.3625    1.1575    2.0393 H   0  0  0  0  0  0  0  0  0  0  0  0
   -0.2132   -0.5856    1.8545 H   0  0  0  0  0  0  0  0  0  0  0  0
   -1.1473    2.5185   -0.9326 H   0  0  0  0  0  0  0  0  0  0  0  0
   -2.3219    0.4398   -0.5857 H   0  0  0  0  0  0  0  0  0  0  0  0
   -1.1569   -0.5789   -1.5792 H   0  0  0  0  0  0  0  0  0  0  0  0
   -1.7224   -2.0675   -0.1291 H   0  0  0  0  0  0  0  0  0  0  0  0
  1  2  1  0
  2  3  1  0
  3  4  1  0
  4  5  1  0
  5  6  2  0
  4  7  1  0
  7  8  1  0
  4  2  1  0
  1  9  1  0
  1 10  1  0
  1 11  1  0
  2 12  1  0
  3 13  1  0
  3 14  1  0
  5 15  1  0
  7 16  1  0
  7 17  1  0
  8 18  1  0
M  END
