
     RDKit          3D

 19 19  0  0  0  0  0  0  0  0999 V2000
   -2.0695   -0.5818    0.4699 C   0  0  0  0  0  0  0  0  0  0  0  0
   -0.5898   -0.3902    0.4756 C   0  0  0  0  0  0  0  0  0  0  0  0
    0.0932   -1.5261   -0.2523 C   0  0  0  0  0  0  0  0  0  0  0  0
   -0.1064   -2.7019   -0.4209 O   0  0  0  0  0  0  0  0  0  0  0  0
    1.1116   -0.4792   -0.6447 C   0  0  0  0  0  0  0  0  0  0  0  0
    2.0487   -0.3187    0.4938 C   0  0  0  0  0  0  0  0  0  0  0  0
    2.8213   -1.2353    0.7229 O   0  0  0  0  0  0  0  0  0  0  0  0
   -0.0516    0.4712   -0.6560 C   0  0  0  0  0  0  0  0  0  0  0  0
    0.2373    1.8910   -0.3072 C   0  0  0  0  0  0  0  0  0  0  0  0
   -2.2916   -1.4652    1.1331 H   0  0  0  0  0  0  0  0  0  0  0  0
   -2.3877   -0.7829   -0.5690 H   0  0  0  0  0  0  0  0  0  0  0  0
   -2.5962    0.2691    0.9295 H   0  0  0  0  0  0  0  0  0  0  0  0
   -0.1355   -0.2100    1.4618 H   0  0  0  0  0  0  0  0  0  0  0  0
    1.6144   -0.6675   -1.5946 H   0  0  0  0  0  0  0  0  0  0  0  0
    2.0923    0.5544    1.1320 H   0  0  0  0  0  0  0  0  0  0  0  0
   -0.6576    0.3553   -1.5550 H   0  0  0  0  0  0  0  0  0  0  0  0
    0.9992    2.2658   -1.0458 H   0  0  0  0  0  0  0  0  0  0  0  0
    0.5505    2.0688    0.7230 H   0  0  0  0  0  0  0  0  0  0  0  0
   -0.6824    2.4831   -0.4961 H   0  0  0  0  0  0  0  0  0  0  0  0
  1  2  1  0
  2  3  1  0
  3  4  2  0
  3  5  1  0
  5  6  1  0
  6  7  2  0
  5  8  1  0
  8  9  1  0
  8  2  1  0
  1 10  1  0
  1 11  1  0
  1 12  1  0
  2 13  1  0
  5 14  1  0
  6 15  1  0
  8 16  1  0
  9 17  1  0
  9 18  1  0
  9 19  1  0
M  END
