
     RDKit          3D

 18 18  0  0  0  0  0  0  0  0999 V2000
   -2.3524    0.2001    0.6064 C   0  0  0  0  0  0  0  0  0  0  0  0
   -1.1210   -0.6519    0.4680 C   0  0  0  0  0  0  0  0  0  0  0  0
   -0.7367   -0.9122   -0.9238 C   0  0  0  0  0  0  0  0  0  0  0  0
    0.3076   -0.1581   -1.2184 C   0  0  0  0  0  0  0  0  0  0  0  0
    0.6304    0.6231   -0.0018 C   0  0  0  0  0  0  0  0  0  0  0  0
    2.1192    0.6145    0.2769 C   0  0  0  0  0  0  0  0  0  0  0  0
    2.6034   -0.6643    0.3858 O   0  0  0  0  0  0  0  0  0  0  0  0
   -0.0507   -0.0145    1.0367 O   0  0  0  0  0  0  0  0  0  0  0  0
   -3.1720   -0.0982   -0.0553 H   0  0  0  0  0  0  0  0  0  0  0  0
   -2.6803    0.1242    1.6813 H   0  0  0  0  0  0  0  0  0  0  0  0
   -2.1377    1.2614    0.4347 H   0  0  0  0  0  0  0  0  0  0  0  0
   -1.2458   -1.6306    0.9752 H   0  0  0  0  0  0  0  0  0  0  0  0
   -1.2066   -1.6113   -1.6487 H   0  0  0  0  0  0  0  0  0  0  0  0
    0.8526   -0.0990   -2.1697 H   0  0  0  0  0  0  0  0  0  0  0  0
    0.2306    1.6417   -0.1048 H   0  0  0  0  0  0  0  0  0  0  0  0
    2.6117    1.2177   -0.5140 H   0  0  0  0  0  0  0  0  0  0  0  0
    2.2980    1.1524    1.2292 H   0  0  0  0  0  0  0  0  0  0  0  0
    3.0497   -0.9954   -0.4576 H   0  0  0  0  0  0  0  0  0  0  0  0
  1  2  1  0
  2  3  1  0
  3  4  2  0
  4  5  1  0
  5  6  1  0
  6  7  1  0
  5  8  1  0
  8  2  1  0
  1  9  1  0
  1 10  1  0
  1 11  1  0
  2 12  1  0
  3 13  1  0
  4 14  1  0
  5 15  1  0
  6 16  1  0
  6 17  1  0
  7 18  1  0
M  END
