
     RDKit          3D

 18 19  0  0  0  0  0  0  0  0999 V2000
    2.6470   -0.4468    0.2305 C   0  0  0  0  0  0  0  0  0  0  0  0
    1.3264   -0.0432   -0.3657 C   0  0  0  0  0  0  0  0  0  0  0  0
    0.6267    0.9848    0.4464 C   0  0  0  0  0  0  0  0  0  0  0  0
   -0.6779    0.7884    0.2963 C   0  0  0  0  0  0  0  0  0  0  0  0
   -2.1715    0.7571    0.2768 C   0  0  0  0  0  0  0  0  0  0  0  0
   -2.0220   -0.7602    0.0768 C   0  0  0  0  0  0  0  0  0  0  0  0
   -0.7618   -0.3989   -0.6382 C   0  0  0  0  0  0  0  0  0  0  0  0
    0.3905   -1.1061   -0.3128 O   0  0  0  0  0  0  0  0  0  0  0  0
    2.5035   -1.0402    1.1342 H   0  0  0  0  0  0  0  0  0  0  0  0
    3.1998    0.4714    0.4716 H   0  0  0  0  0  0  0  0  0  0  0  0
    3.2189   -0.9825   -0.5730 H   0  0  0  0  0  0  0  0  0  0  0  0
    1.4324    0.3006   -1.4011 H   0  0  0  0  0  0  0  0  0  0  0  0
    1.0629    1.7806    1.0718 H   0  0  0  0  0  0  0  0  0  0  0  0
   -2.6556    1.0343    1.2245 H   0  0  0  0  0  0  0  0  0  0  0  0
   -2.5297    1.2622   -0.6291 H   0  0  0  0  0  0  0  0  0  0  0  0
   -1.9083   -1.3142    1.0136 H   0  0  0  0  0  0  0  0  0  0  0  0
   -2.7901   -1.1437   -0.6342 H   0  0  0  0  0  0  0  0  0  0  0  0
   -0.8911   -0.1435   -1.6885 H   0  0  0  0  0  0  0  0  0  0  0  0
  1  2  1  0
  2  3  1  0
  3  4  2  0
  4  5  1  0
  5  6  1  0
  6  7  1  0
  7  8  1  0
  8  2  1  0
  7  4  1  0
  1  9  1  0
  1 10  1  0
  1 11  1  0
  2 12  1  0
  3 13  1  0
  5 14  1  0
  5 15  1  0
  6 16  1  0
  6 17  1  0
  7 18  1  0
M  END
