
     RDKit          3D

 21 21  0  0  0  0  0  0  0  0999 V2000
   -3.0761    0.1746   -0.4760 C   0  0  0  0  0  0  0  0  0  0  0  0
   -1.6074    0.5262   -0.5073 C   0  0  0  0  0  0  0  0  0  0  0  0
   -0.9342    0.9925    0.7270 C   0  0  0  0  0  0  0  0  0  0  0  0
   -0.7140   -0.4026    0.3194 C   0  0  0  0  0  0  0  0  0  0  0  0
    0.5773   -0.8767   -0.2653 C   0  0  0  0  0  0  0  0  0  0  0  0
    1.5218    0.1811   -0.6414 C   0  0  0  0  0  0  0  0  0  0  0  0
    1.1215    1.1515   -1.2523 O   0  0  0  0  0  0  0  0  0  0  0  0
    2.9902    0.1491   -0.3186 C   0  0  0  0  0  0  0  0  0  0  0  0
    3.3270   -0.9765    0.4311 O   0  0  0  0  0  0  0  0  0  0  0  0
   -3.3574   -0.3228    0.4958 H   0  0  0  0  0  0  0  0  0  0  0  0
   -3.7325    1.0363   -0.7035 H   0  0  0  0  0  0  0  0  0  0  0  0
   -3.2532   -0.5801   -1.2661 H   0  0  0  0  0  0  0  0  0  0  0  0
   -1.2372    0.8813   -1.4863 H   0  0  0  0  0  0  0  0  0  0  0  0
   -0.0924    1.6874    0.6099 H   0  0  0  0  0  0  0  0  0  0  0  0
   -1.5063    1.1972    1.6691 H   0  0  0  0  0  0  0  0  0  0  0  0
   -1.2388   -1.1762    0.9430 H   0  0  0  0  0  0  0  0  0  0  0  0
    0.2988   -1.4723   -1.1902 H   0  0  0  0  0  0  0  0  0  0  0  0
    1.0530   -1.6381    0.3931 H   0  0  0  0  0  0  0  0  0  0  0  0
    3.2013    1.0861    0.2474 H   0  0  0  0  0  0  0  0  0  0  0  0
    3.5329    0.1782   -1.2873 H   0  0  0  0  0  0  0  0  0  0  0  0
    3.1257   -1.7961   -0.0511 H   0  0  0  0  0  0  0  0  0  0  0  0
  1  2  1  0
  2  3  1  0
  3  4  1  0
  4  5  1  0
  5  6  1  0
  6  7  2  0
  6  8  1  0
  8  9  1  0
  4  2  1  0
  1 10  1  0
  1 11  1  0
  1 12  1  0
  2 13  1  0
  3 14  1  0
  3 15  1  0
  4 16  1  0
  5 17  1  0
  5 18  1  0
  8 19  1  0
  8 20  1  0
  9 21  1  0
M  END
