
     RDKit          3D

 21 22  0  0  0  0  0  0  0  0999 V2000
   -2.2940   -0.1467    0.3644 C   0  0  0  0  0  0  0  0  0  0  0  0
   -1.0507   -0.2410   -0.5151 C   0  0  0  0  0  0  0  0  0  0  0  0
   -0.4307    1.0975   -0.7122 C   0  0  0  0  0  0  0  0  0  0  0  0
    0.8650    1.3104   -0.0204 C   0  0  0  0  0  0  0  0  0  0  0  0
    1.4055    0.1376    0.7111 C   0  0  0  0  0  0  0  0  0  0  0  0
    2.0517   -0.8998   -0.1693 C   0  0  0  0  0  0  0  0  0  0  0  0
    0.9357   -1.6104   -0.6350 O   0  0  0  0  0  0  0  0  0  0  0  0
   -0.1365   -1.2493    0.1360 C   0  0  0  0  0  0  0  0  0  0  0  0
    0.3774   -0.6224    1.2922 O   0  0  0  0  0  0  0  0  0  0  0  0
   -2.1536   -0.6618    1.3361 H   0  0  0  0  0  0  0  0  0  0  0  0
   -3.1521   -0.6603   -0.1277 H   0  0  0  0  0  0  0  0  0  0  0  0
   -2.5246    0.9131    0.6141 H   0  0  0  0  0  0  0  0  0  0  0  0
   -1.3555   -0.6457   -1.5170 H   0  0  0  0  0  0  0  0  0  0  0  0
   -0.2732    1.3101   -1.8108 H   0  0  0  0  0  0  0  0  0  0  0  0
   -1.1984    1.8683   -0.4069 H   0  0  0  0  0  0  0  0  0  0  0  0
    0.7267    2.1406    0.7344 H   0  0  0  0  0  0  0  0  0  0  0  0
    1.6545    1.7111   -0.7127 H   0  0  0  0  0  0  0  0  0  0  0  0
    2.0716    0.4318    1.5406 H   0  0  0  0  0  0  0  0  0  0  0  0
    2.6370   -1.5665    0.4784 H   0  0  0  0  0  0  0  0  0  0  0  0
    2.5713   -0.5020   -1.0357 H   0  0  0  0  0  0  0  0  0  0  0  0
   -0.7272   -2.1146    0.4554 H   0  0  0  0  0  0  0  0  0  0  0  0
  1  2  1  0
  2  3  1  0
  3  4  1  0
  4  5  1  0
  5  6  1  0
  6  7  1  0
  7  8  1  0
  8  9  1  0
  8  2  1  0
  9  5  1  0
  1 10  1  0
  1 11  1  0
  1 12  1  0
  2 13  1  0
  3 14  1  0
  3 15  1  0
  4 16  1  0
  4 17  1  0
  5 18  1  0
  6 19  1  0
  6 20  1  0
  8 21  1  0
M  END
