
     RDKit          3D

 19 20  0  0  0  0  0  0  0  0999 V2000
    1.9246   -1.0228    0.0682 C   0  0  0  0  0  0  0  0  0  0  0  0
    0.6389   -0.3414   -0.4230 C   0  0  0  0  0  0  0  0  0  0  0  0
    0.5295    0.9949    0.2162 C   0  0  0  0  0  0  0  0  0  0  0  0
    1.0690    1.9995   -0.6075 O   0  0  0  0  0  0  0  0  0  0  0  0
   -0.8654    1.4021    0.5304 C   0  0  0  0  0  0  0  0  0  0  0  0
   -1.9038    0.6172    0.4628 C   0  0  0  0  0  0  0  0  0  0  0  0
   -1.7789   -0.8032    0.0513 C   0  0  0  0  0  0  0  0  0  0  0  0
   -1.5086   -1.0494   -1.3275 O   0  0  0  0  0  0  0  0  0  0  0  0
   -0.4915   -1.2705   -0.2603 C   0  0  0  0  0  0  0  0  0  0  0  0
    2.4024   -1.6022   -0.7396 H   0  0  0  0  0  0  0  0  0  0  0  0
    1.6789   -1.7648    0.8753 H   0  0  0  0  0  0  0  0  0  0  0  0
    2.5846   -0.2654    0.5032 H   0  0  0  0  0  0  0  0  0  0  0  0
    0.8268   -0.1683   -1.5246 H   0  0  0  0  0  0  0  0  0  0  0  0
    1.1177    1.0111    1.1492 H   0  0  0  0  0  0  0  0  0  0  0  0
    0.4307    2.7233   -0.7865 H   0  0  0  0  0  0  0  0  0  0  0  0
   -0.9937    2.4356    0.8352 H   0  0  0  0  0  0  0  0  0  0  0  0
   -2.8849    0.9903    0.7078 H   0  0  0  0  0  0  0  0  0  0  0  0
   -2.5365   -1.5315    0.4231 H   0  0  0  0  0  0  0  0  0  0  0  0
   -0.2398   -2.3543   -0.1538 H   0  0  0  0  0  0  0  0  0  0  0  0
  1  2  1  0
  2  3  1  0
  3  4  1  0
  3  5  1  0
  5  6  2  0
  6  7  1  0
  7  8  1  0
  8  9  1  0
  9  2  1  0
  9  7  1  0
  1 10  1  0
  1 11  1  0
  1 12  1  0
  2 13  1  0
  3 14  1  0
  4 15  1  0
  5 16  1  0
  6 17  1  0
  7 18  1  0
  9 19  1  0
M  END
