
     RDKit          3D

 17 18  0  0  0  0  0  0  0  0999 V2000
   -2.1271    0.1261    0.7323 C   0  0  0  0  0  0  0  0  0  0  0  0
   -0.7054   -0.3477    0.8169 C   0  0  0  0  0  0  0  0  0  0  0  0
   -0.1625   -0.8277   -0.4810 C   0  0  0  0  0  0  0  0  0  0  0  0
   -0.0781    0.5321   -0.8616 O   0  0  0  0  0  0  0  0  0  0  0  0
    0.2461    0.7636    0.4961 C   0  0  0  0  0  0  0  0  0  0  0  0
    1.6435    0.1612    0.5468 C   0  0  0  0  0  0  0  0  0  0  0  0
    2.4715    0.9645   -0.2091 O   0  0  0  0  0  0  0  0  0  0  0  0
    1.2871   -1.1070   -0.2078 C   0  0  0  0  0  0  0  0  0  0  0  0
    1.9736   -2.0409   -0.4905 O   0  0  0  0  0  0  0  0  0  0  0  0
   -2.2478    0.6413   -0.2510 H   0  0  0  0  0  0  0  0  0  0  0  0
   -2.8680   -0.6769    0.8464 H   0  0  0  0  0  0  0  0  0  0  0  0
   -2.3385    0.8672    1.5389 H   0  0  0  0  0  0  0  0  0  0  0  0
   -0.4592   -0.9877    1.6769 H   0  0  0  0  0  0  0  0  0  0  0  0
   -0.7007   -1.4892   -1.1053 H   0  0  0  0  0  0  0  0  0  0  0  0
    0.0944    1.7390    0.8838 H   0  0  0  0  0  0  0  0  0  0  0  0
    1.9891   -0.0478    1.5554 H   0  0  0  0  0  0  0  0  0  0  0  0
    1.9819    1.7297   -0.6370 H   0  0  0  0  0  0  0  0  0  0  0  0
  1  2  1  0
  2  3  1  0
  3  4  1  0
  4  5  1  0
  5  6  1  0
  6  7  1  0
  6  8  1  0
  8  9  2  0
  5  2  1  0
  8  3  1  0
  1 10  1  0
  1 11  1  0
  1 12  1  0
  2 13  1  0
  3 14  1  0
  5 15  1  0
  6 16  1  0
  7 17  1  0
M  END
