
     RDKit          3D

 25 26  0  0  0  0  0  0  0  0999 V2000
    1.2941   -1.7181    0.6774 C   0  0  0  0  0  0  0  0  0  0  0  0
    0.2739   -0.9428   -0.0702 C   0  0  0  0  0  0  0  0  0  0  0  0
   -0.9175   -0.5432    0.7517 C   0  0  0  0  0  0  0  0  0  0  0  0
   -2.0905   -0.3932   -0.1950 C   0  0  0  0  0  0  0  0  0  0  0  0
   -1.5687    0.6742   -1.1384 C   0  0  0  0  0  0  0  0  0  0  0  0
   -0.3339    1.2680   -0.4571 C   0  0  0  0  0  0  0  0  0  0  0  0
   -0.6781    0.9549    1.0054 C   0  0  0  0  0  0  0  0  0  0  0  0
    0.7948    0.3228   -0.6987 C   0  0  0  0  0  0  0  0  0  0  0  0
    2.0807    0.7982   -0.0850 C   0  0  0  0  0  0  0  0  0  0  0  0
    2.2605   -1.7208    0.1702 H   0  0  0  0  0  0  0  0  0  0  0  0
    0.9546   -2.7954    0.7022 H   0  0  0  0  0  0  0  0  0  0  0  0
    1.3751   -1.3963    1.7489 H   0  0  0  0  0  0  0  0  0  0  0  0
   -0.0992   -1.5842   -0.9183 H   0  0  0  0  0  0  0  0  0  0  0  0
   -1.1042   -1.1078    1.6360 H   0  0  0  0  0  0  0  0  0  0  0  0
   -2.2939   -1.3436   -0.6943 H   0  0  0  0  0  0  0  0  0  0  0  0
   -2.9725    0.0020    0.3566 H   0  0  0  0  0  0  0  0  0  0  0  0
   -2.3099    1.4276   -1.3996 H   0  0  0  0  0  0  0  0  0  0  0  0
   -1.2499    0.1455   -2.0697 H   0  0  0  0  0  0  0  0  0  0  0  0
   -0.1679    2.3011   -0.6576 H   0  0  0  0  0  0  0  0  0  0  0  0
   -1.6019    1.4671    1.2917 H   0  0  0  0  0  0  0  0  0  0  0  0
    0.1440    1.1366    1.6794 H   0  0  0  0  0  0  0  0  0  0  0  0
    0.9551    0.2158   -1.7832 H   0  0  0  0  0  0  0  0  0  0  0  0
    2.2929    1.8035   -0.4948 H   0  0  0  0  0  0  0  0  0  0  0  0
    2.9069    0.1436   -0.3640 H   0  0  0  0  0  0  0  0  0  0  0  0
    2.0555    0.8846    1.0064 H   0  0  0  0  0  0  0  0  0  0  0  0
  1  2  1  0
  2  3  1  0
  3  4  1  0
  4  5  1  0
  5  6  1  0
  6  7  1  0
  6  8  1  0
  8  9  1  0
  8  2  1  0
  7  3  1  0
  1 10  1  0
  1 11  1  0
  1 12  1  0
  2 13  1  0
  3 14  1  0
  4 15  1  0
  4 16  1  0
  5 17  1  0
  5 18  1  0
  6 19  1  0
  7 20  1  0
  7 21  1  0
  8 22  1  0
  9 23  1  0
  9 24  1  0
  9 25  1  0
M  END
