
     RDKit          3D

 18 18  0  0  0  0  0  0  0  0999 V2000
    1.9886   -0.1705   -0.1733 C   0  0  0  0  0  0  0  0  0  0  0  0
    0.7003    0.0016    0.6138 C   0  0  0  0  0  0  0  0  0  0  0  0
   -0.0536    1.2155    0.2085 C   0  0  0  0  0  0  0  0  0  0  0  0
   -1.2006    1.0017   -0.6961 C   0  0  0  0  0  0  0  0  0  0  0  0
   -1.8858   -0.1398   -0.6439 O   0  0  0  0  0  0  0  0  0  0  0  0
   -1.4660   -1.1974    0.0478 C   0  0  0  0  0  0  0  0  0  0  0  0
   -0.0815   -1.2348    0.4902 C   0  0  0  0  0  0  0  0  0  0  0  0
    0.4375   -2.2931    0.7609 O   0  0  0  0  0  0  0  0  0  0  0  0
    2.1038   -1.1954   -0.5624 H   0  0  0  0  0  0  0  0  0  0  0  0
    2.8564    0.1625    0.4261 H   0  0  0  0  0  0  0  0  0  0  0  0
    1.8879    0.4858   -1.0847 H   0  0  0  0  0  0  0  0  0  0  0  0
    0.9784    0.1030    1.7021 H   0  0  0  0  0  0  0  0  0  0  0  0
   -0.3822    1.8049    1.1155 H   0  0  0  0  0  0  0  0  0  0  0  0
    0.6792    1.9069   -0.2978 H   0  0  0  0  0  0  0  0  0  0  0  0
   -0.8649    1.1649   -1.7644 H   0  0  0  0  0  0  0  0  0  0  0  0
   -1.9234    1.8584   -0.5343 H   0  0  0  0  0  0  0  0  0  0  0  0
   -1.6504   -2.1344   -0.5595 H   0  0  0  0  0  0  0  0  0  0  0  0
   -2.1237   -1.3396    0.9515 H   0  0  0  0  0  0  0  0  0  0  0  0
  1  2  1  0
  2  3  1  0
  3  4  1  0
  4  5  1  0
  5  6  1  0
  6  7  1  0
  7  8  2  0
  7  2  1  0
  1  9  1  0
  1 10  1  0
  1 11  1  0
  2 12  1  0
  3 13  1  0
  3 14  1  0
  4 15  1  0
  4 16  1  0
  6 17  1  0
  6 18  1  0
M  END
