
     RDKit          3D

 23 25  0  0  0  0  0  0  0  0999 V2000
   -3.2452   -0.2424    0.3609 C   0  0  0  0  0  0  0  0  0  0  0  0
   -1.8086   -0.6083    0.0979 C   0  0  0  0  0  0  0  0  0  0  0  0
   -1.2016    0.0534   -1.1258 C   0  0  0  0  0  0  0  0  0  0  0  0
   -0.7234    0.4067    0.2148 C   0  0  0  0  0  0  0  0  0  0  0  0
    0.6135   -0.0461    0.7379 C   0  0  0  0  0  0  0  0  0  0  0  0
    1.5628    1.1493    0.7662 C   0  0  0  0  0  0  0  0  0  0  0  0
    2.2073    0.5494   -0.4690 C   0  0  0  0  0  0  0  0  0  0  0  0
    2.9538   -0.7110   -0.1886 C   0  0  0  0  0  0  0  0  0  0  0  0
    1.4757   -0.7015   -0.2754 C   0  0  0  0  0  0  0  0  0  0  0  0
   -3.4463    0.8374    0.2073 H   0  0  0  0  0  0  0  0  0  0  0  0
   -3.5862   -0.5113    1.3764 H   0  0  0  0  0  0  0  0  0  0  0  0
   -3.8690   -0.7739   -0.4001 H   0  0  0  0  0  0  0  0  0  0  0  0
   -1.5783   -1.6710    0.3019 H   0  0  0  0  0  0  0  0  0  0  0  0
   -1.8306    0.8313   -1.6528 H   0  0  0  0  0  0  0  0  0  0  0  0
   -0.7314   -0.6510   -1.8064 H   0  0  0  0  0  0  0  0  0  0  0  0
   -1.0080    1.4257    0.6145 H   0  0  0  0  0  0  0  0  0  0  0  0
    0.5923   -0.5074    1.7466 H   0  0  0  0  0  0  0  0  0  0  0  0
    1.0841    2.1198    0.6202 H   0  0  0  0  0  0  0  0  0  0  0  0
    2.2705    1.1195    1.5977 H   0  0  0  0  0  0  0  0  0  0  0  0
    2.2886    1.1060   -1.3957 H   0  0  0  0  0  0  0  0  0  0  0  0
    3.4910   -0.7253    0.7779 H   0  0  0  0  0  0  0  0  0  0  0  0
    3.4807   -1.1340   -1.0664 H   0  0  0  0  0  0  0  0  0  0  0  0
    1.0081   -1.3151   -1.0400 H   0  0  0  0  0  0  0  0  0  0  0  0
  1  2  1  0
  2  3  1  0
  3  4  1  0
  4  5  1  0
  5  6  1  0
  6  7  1  0
  7  8  1  0
  8  9  1  0
  4  2  1  0
  9  5  1  0
  9  7  1  0
  1 10  1  0
  1 11  1  0
  1 12  1  0
  2 13  1  0
  3 14  1  0
  3 15  1  0
  4 16  1  0
  5 17  1  0
  6 18  1  0
  6 19  1  0
  7 20  1  0
  8 21  1  0
  8 22  1  0
  9 23  1  0
M  END
