
     RDKit          3D

 23 24  0  0  0  0  0  0  0  0999 V2000
   -1.6312    1.1538    0.8440 C   0  0  0  0  0  0  0  0  0  0  0  0
   -1.1441    0.5855   -0.4324 C   0  0  0  0  0  0  0  0  0  0  0  0
   -1.7263   -0.7971   -0.6337 C   0  0  0  0  0  0  0  0  0  0  0  0
   -0.5832   -1.7875   -0.5495 C   0  0  0  0  0  0  0  0  0  0  0  0
    0.6249   -1.0111   -0.2211 C   0  0  0  0  0  0  0  0  0  0  0  0
    1.8563   -1.0785    0.2497 C   0  0  0  0  0  0  0  0  0  0  0  0
    2.4704    0.3027    0.2609 C   0  0  0  0  0  0  0  0  0  0  0  0
    1.1817    1.1301    0.4323 C   0  0  0  0  0  0  0  0  0  0  0  0
    0.3254    0.4353   -0.5623 C   0  0  0  0  0  0  0  0  0  0  0  0
   -0.9600    1.8482    1.3538 H   0  0  0  0  0  0  0  0  0  0  0  0
   -2.5957    1.7204    0.6842 H   0  0  0  0  0  0  0  0  0  0  0  0
   -1.9233    0.3364    1.5672 H   0  0  0  0  0  0  0  0  0  0  0  0
   -1.5102    1.2151   -1.2717 H   0  0  0  0  0  0  0  0  0  0  0  0
   -2.4881   -1.0502    0.1439 H   0  0  0  0  0  0  0  0  0  0  0  0
   -2.2203   -0.9156   -1.6172 H   0  0  0  0  0  0  0  0  0  0  0  0
   -0.4149   -2.2836   -1.5189 H   0  0  0  0  0  0  0  0  0  0  0  0
   -0.8237   -2.5701    0.1996 H   0  0  0  0  0  0  0  0  0  0  0  0
    2.4118   -1.9446    0.5941 H   0  0  0  0  0  0  0  0  0  0  0  0
    2.9331    0.5024   -0.7118 H   0  0  0  0  0  0  0  0  0  0  0  0
    3.1567    0.4380    1.0951 H   0  0  0  0  0  0  0  0  0  0  0  0
    0.8832    0.9834    1.4818 H   0  0  0  0  0  0  0  0  0  0  0  0
    1.4509    2.1618    0.1815 H   0  0  0  0  0  0  0  0  0  0  0  0
    0.7267    0.6251   -1.5696 H   0  0  0  0  0  0  0  0  0  0  0  0
  1  2  1  0
  2  3  1  0
  3  4  1  0
  4  5  1  0
  5  6  2  0
  6  7  1  0
  7  8  1  0
  8  9  1  0
  9  2  1  0
  9  5  1  0
  1 10  1  0
  1 11  1  0
  1 12  1  0
  2 13  1  0
  3 14  1  0
  3 15  1  0
  4 16  1  0
  4 17  1  0
  6 18  1  0
  7 19  1  0
  7 20  1  0
  8 21  1  0
  8 22  1  0
  9 23  1  0
M  END
