
     RDKit          3D

 19 19  0  0  0  0  0  0  0  0999 V2000
   -2.7831    0.6528    0.1468 C   0  0  0  0  0  0  0  0  0  0  0  0
   -1.9603   -0.4893    0.6855 C   0  0  0  0  0  0  0  0  0  0  0  0
   -1.1176   -1.1753   -0.3896 C   0  0  0  0  0  0  0  0  0  0  0  0
    0.0638   -1.4839    0.4151 C   0  0  0  0  0  0  0  0  0  0  0  0
    1.1844   -0.6430    0.3301 C   0  0  0  0  0  0  0  0  0  0  0  0
    1.9820   -0.0517    0.2614 C   0  0  0  0  0  0  0  0  0  0  0  0
    3.4696    1.0193    0.1463 C   0  0  0  0  0  0  0  0  0  0  0  0
    3.5427    1.5487   -1.0522 O   0  0  0  0  0  0  0  0  0  0  0  0
   -0.8195   -0.2363    1.3977 O   0  0  0  0  0  0  0  0  0  0  0  0
   -3.6808    0.7641    0.8271 H   0  0  0  0  0  0  0  0  0  0  0  0
   -2.2061    1.5467   -0.0283 H   0  0  0  0  0  0  0  0  0  0  0  0
   -3.1738    0.2296   -0.8378 H   0  0  0  0  0  0  0  0  0  0  0  0
   -2.6078   -1.2260    1.2504 H   0  0  0  0  0  0  0  0  0  0  0  0
   -1.6375   -2.1499   -0.6577 H   0  0  0  0  0  0  0  0  0  0  0  0
   -0.9949   -0.5039   -1.2615 H   0  0  0  0  0  0  0  0  0  0  0  0
    0.0079   -2.1099    1.2863 H   0  0  0  0  0  0  0  0  0  0  0  0
    4.3937    0.3056    0.3369 H   0  0  0  0  0  0  0  0  0  0  0  0
    3.4084    1.6371    0.9424 H   0  0  0  0  0  0  0  0  0  0  0  0
    2.9289    2.3654   -1.1554 H   0  0  0  0  0  0  0  0  0  0  0  0
  1  2  1  0
  2  3  1  0
  3  4  1  0
  4  5  1  0
  5  6  3  0
  6  7  1  0
  7  8  1  0
  4  9  1  0
  9  2  1  0
  1 10  1  0
  1 11  1  0
  1 12  1  0
  2 13  1  0
  3 14  1  0
  3 15  1  0
  4 16  1  0
  7 17  1  0
  7 18  1  0
  8 19  1  0
M  END
