
     RDKit          3D

 19 20  0  0  0  0  0  0  0  0999 V2000
   -1.5443   -1.3285    0.3244 C   0  0  0  0  0  0  0  0  0  0  0  0
   -0.8939   -0.0172    0.6312 C   0  0  0  0  0  0  0  0  0  0  0  0
   -0.6852    0.8267   -0.5728 C   0  0  0  0  0  0  0  0  0  0  0  0
   -0.1951    2.2300   -0.3081 C   0  0  0  0  0  0  0  0  0  0  0  0
    1.0429    1.6179    0.2361 C   0  0  0  0  0  0  0  0  0  0  0  0
    2.1118    2.0961    0.5555 O   0  0  0  0  0  0  0  0  0  0  0  0
    0.5054    0.2563    0.2430 C   0  0  0  0  0  0  0  0  0  0  0  0
    1.2687   -0.8855   -0.3479 C   0  0  0  0  0  0  0  0  0  0  0  0
    1.2930   -1.9092    0.6244 O   0  0  0  0  0  0  0  0  0  0  0  0
   -2.4980   -1.0858   -0.2328 H   0  0  0  0  0  0  0  0  0  0  0  0
   -0.9498   -1.9370   -0.4054 H   0  0  0  0  0  0  0  0  0  0  0  0
   -1.8422   -1.9019    1.2089 H   0  0  0  0  0  0  0  0  0  0  0  0
   -1.2412    0.4872    1.5513 H   0  0  0  0  0  0  0  0  0  0  0  0
   -0.7232    0.4298   -1.5858 H   0  0  0  0  0  0  0  0  0  0  0  0
   -0.0884    2.8764   -1.1752 H   0  0  0  0  0  0  0  0  0  0  0  0
   -0.7852    2.6565    0.5453 H   0  0  0  0  0  0  0  0  0  0  0  0
    2.3480   -0.5922   -0.4810 H   0  0  0  0  0  0  0  0  0  0  0  0
    0.8576   -1.2753   -1.2884 H   0  0  0  0  0  0  0  0  0  0  0  0
    2.0193   -2.5444    0.4775 H   0  0  0  0  0  0  0  0  0  0  0  0
  1  2  1  0
  2  3  1  0
  3  4  1  0
  4  5  1  0
  5  6  2  0
  5  7  1  0
  7  8  1  0
  8  9  1  0
  7  2  1  0
  7  3  1  0
  1 10  1  0
  1 11  1  0
  1 12  1  0
  2 13  1  0
  3 14  1  0
  4 15  1  0
  4 16  1  0
  8 17  1  0
  8 18  1  0
  9 19  1  0
M  END
