
     RDKit          3D

 19 21  0  0  0  0  0  0  0  0999 V2000
    2.2365    0.7369    0.4346 C   0  0  0  0  0  0  0  0  0  0  0  0
    1.1093   -0.2295    0.5440 C   0  0  0  0  0  0  0  0  0  0  0  0
    0.6865   -0.8376   -0.8199 C   0  0  0  0  0  0  0  0  0  0  0  0
   -0.1972   -0.0340   -0.0109 C   0  0  0  0  0  0  0  0  0  0  0  0
   -1.4841   -0.5365    0.5161 C   0  0  0  0  0  0  0  0  0  0  0  0
   -1.7971   -1.7848   -0.0228 O   0  0  0  0  0  0  0  0  0  0  0  0
   -2.1648    0.6336   -0.1606 C   0  0  0  0  0  0  0  0  0  0  0  0
   -1.7788    1.8620    0.3016 O   0  0  0  0  0  0  0  0  0  0  0  0
   -0.7908    1.2685   -0.4302 C   0  0  0  0  0  0  0  0  0  0  0  0
    2.8352    0.5348   -0.5003 H   0  0  0  0  0  0  0  0  0  0  0  0
    2.9496    0.7197    1.2593 H   0  0  0  0  0  0  0  0  0  0  0  0
    1.9002    1.7998    0.3177 H   0  0  0  0  0  0  0  0  0  0  0  0
    1.2139   -0.9873    1.3746 H   0  0  0  0  0  0  0  0  0  0  0  0
    0.5278   -1.9420   -0.8183 H   0  0  0  0  0  0  0  0  0  0  0  0
    1.1223   -0.4163   -1.7235 H   0  0  0  0  0  0  0  0  0  0  0  0
   -1.6364   -0.4570    1.6229 H   0  0  0  0  0  0  0  0  0  0  0  0
   -1.3662   -2.4530    0.5735 H   0  0  0  0  0  0  0  0  0  0  0  0
   -2.7995    0.4854   -1.0269 H   0  0  0  0  0  0  0  0  0  0  0  0
   -0.5663    1.6372   -1.4310 H   0  0  0  0  0  0  0  0  0  0  0  0
  1  2  1  0
  2  3  1  0
  3  4  1  0
  4  5  1  0
  5  6  1  0
  5  7  1  0
  7  8  1  0
  8  9  1  0
  4  2  1  0
  9  7  1  0
  9  4  1  0
  1 10  1  0
  1 11  1  0
  1 12  1  0
  2 13  1  0
  3 14  1  0
  3 15  1  0
  5 16  1  0
  6 17  1  0
  7 18  1  0
  9 19  1  0
M  END
