
     RDKit          3D

 18 19  0  0  0  0  0  0  0  0999 V2000
   -1.4029   -1.8100   -0.1233 C   0  0  0  0  0  0  0  0  0  0  0  0
   -0.8763   -0.4699    0.3791 C   0  0  0  0  0  0  0  0  0  0  0  0
   -1.1008    0.7094   -0.5970 C   0  0  0  0  0  0  0  0  0  0  0  0
   -1.4491    1.9255    0.0357 O   0  0  0  0  0  0  0  0  0  0  0  0
    0.2181    0.2020   -0.2911 C   0  0  0  0  0  0  0  0  0  0  0  0
    1.2551    1.0347    0.3787 C   0  0  0  0  0  0  0  0  0  0  0  0
    2.1221   -0.0264   -0.2405 C   0  0  0  0  0  0  0  0  0  0  0  0
    1.0995   -0.3670   -1.1556 O   0  0  0  0  0  0  0  0  0  0  0  0
   -2.4606   -1.8783    0.2255 H   0  0  0  0  0  0  0  0  0  0  0  0
   -1.3375   -1.8552   -1.2312 H   0  0  0  0  0  0  0  0  0  0  0  0
   -0.8086   -2.6314    0.3208 H   0  0  0  0  0  0  0  0  0  0  0  0
   -1.1086   -0.2697    1.4520 H   0  0  0  0  0  0  0  0  0  0  0  0
   -1.5482    0.4840   -1.5738 H   0  0  0  0  0  0  0  0  0  0  0  0
   -0.6446    2.3499    0.4366 H   0  0  0  0  0  0  0  0  0  0  0  0
    1.3767    2.0144   -0.1204 H   0  0  0  0  0  0  0  0  0  0  0  0
    1.2330    1.0797    1.4750 H   0  0  0  0  0  0  0  0  0  0  0  0
    2.4373   -0.8317    0.4231 H   0  0  0  0  0  0  0  0  0  0  0  0
    2.9954    0.3399   -0.8238 H   0  0  0  0  0  0  0  0  0  0  0  0
  1  2  1  0
  2  3  1  0
  3  4  1  0
  3  5  1  0
  5  6  1  0
  6  7  1  0
  7  8  1  0
  5  2  1  0
  8  5  1  0
  1  9  1  0
  1 10  1  0
  1 11  1  0
  2 12  1  0
  3 13  1  0
  4 14  1  0
  6 15  1  0
  6 16  1  0
  7 17  1  0
  7 18  1  0
M  END
