
     RDKit          3D

 21 22  0  0  0  0  0  0  0  0999 V2000
    1.9658    0.0516    1.1606 C   0  0  0  0  0  0  0  0  0  0  0  0
    1.4044    0.1025   -0.2279 C   0  0  0  0  0  0  0  0  0  0  0  0
    0.9342   -1.1288   -0.9279 C   0  0  0  0  0  0  0  0  0  0  0  0
    0.0640    0.0967   -0.6418 C   0  0  0  0  0  0  0  0  0  0  0  0
   -0.2955    0.9024   -1.7559 O   0  0  0  0  0  0  0  0  0  0  0  0
   -1.1647    1.7929   -1.0953 C   0  0  0  0  0  0  0  0  0  0  0  0
   -1.9209    1.0132   -0.2096 O   0  0  0  0  0  0  0  0  0  0  0  0
   -1.2441   -0.2321   -0.1496 C   0  0  0  0  0  0  0  0  0  0  0  0
   -1.4403   -0.9288    1.1208 C   0  0  0  0  0  0  0  0  0  0  0  0
    3.0744   -0.1720    1.1404 H   0  0  0  0  0  0  0  0  0  0  0  0
    1.8990    1.0872    1.5740 H   0  0  0  0  0  0  0  0  0  0  0  0
    1.5295   -0.6558    1.8369 H   0  0  0  0  0  0  0  0  0  0  0  0
    2.1410    0.6646   -0.8673 H   0  0  0  0  0  0  0  0  0  0  0  0
    1.1035   -1.3051   -1.9882 H   0  0  0  0  0  0  0  0  0  0  0  0
    0.7835   -2.0231   -0.2978 H   0  0  0  0  0  0  0  0  0  0  0  0
   -1.7992    2.3445   -1.8116 H   0  0  0  0  0  0  0  0  0  0  0  0
   -0.5956    2.5058   -0.4681 H   0  0  0  0  0  0  0  0  0  0  0  0
   -1.7868   -0.8302   -0.9470 H   0  0  0  0  0  0  0  0  0  0  0  0
   -0.6510   -1.5755    1.4751 H   0  0  0  0  0  0  0  0  0  0  0  0
   -1.6145   -0.1605    1.9310 H   0  0  0  0  0  0  0  0  0  0  0  0
   -2.3866   -1.5496    1.1494 H   0  0  0  0  0  0  0  0  0  0  0  0
  1  2  1  0
  2  3  1  0
  3  4  1  0
  4  5  1  0
  5  6  1  0
  6  7  1  0
  7  8  1  0
  8  9  1  0
  4  2  1  0
  8  4  1  0
  1 10  1  0
  1 11  1  0
  1 12  1  0
  2 13  1  0
  3 14  1  0
  3 15  1  0
  6 16  1  0
  6 17  1  0
  8 18  1  0
  9 19  1  0
  9 20  1  0
  9 21  1  0
M  END
