
     RDKit          3D

 23 24  0  0  0  0  0  0  0  0999 V2000
   -0.7289    1.7499    0.1691 C   0  0  0  0  0  0  0  0  0  0  0  0
   -0.8853    0.4001   -0.4549 C   0  0  0  0  0  0  0  0  0  0  0  0
   -2.1428   -0.2378    0.0929 C   0  0  0  0  0  0  0  0  0  0  0  0
   -1.8239   -1.6687    0.2569 C   0  0  0  0  0  0  0  0  0  0  0  0
   -0.5467   -1.8551    0.1162 C   0  0  0  0  0  0  0  0  0  0  0  0
    0.1427   -0.5967   -0.1554 C   0  0  0  0  0  0  0  0  0  0  0  0
    1.2938   -0.7001   -1.1328 C   0  0  0  0  0  0  0  0  0  0  0  0
    1.4783   -0.3977    0.3527 C   0  0  0  0  0  0  0  0  0  0  0  0
    2.1609    0.8904    0.6213 C   0  0  0  0  0  0  0  0  0  0  0  0
   -0.3085    2.4527   -0.5856 H   0  0  0  0  0  0  0  0  0  0  0  0
   -0.1741    1.7518    1.1047 H   0  0  0  0  0  0  0  0  0  0  0  0
   -1.7542    2.1701    0.3942 H   0  0  0  0  0  0  0  0  0  0  0  0
   -1.0046    0.4743   -1.5714 H   0  0  0  0  0  0  0  0  0  0  0  0
   -3.0129   -0.0804   -0.5862 H   0  0  0  0  0  0  0  0  0  0  0  0
   -2.3920    0.1520    1.1212 H   0  0  0  0  0  0  0  0  0  0  0  0
   -2.5305   -2.4788    0.4659 H   0  0  0  0  0  0  0  0  0  0  0  0
   -0.0154   -2.8224    0.1863 H   0  0  0  0  0  0  0  0  0  0  0  0
    1.5662   -1.6906   -1.5196 H   0  0  0  0  0  0  0  0  0  0  0  0
    1.4672    0.1178   -1.8605 H   0  0  0  0  0  0  0  0  0  0  0  0
    1.9417   -1.2696    0.9010 H   0  0  0  0  0  0  0  0  0  0  0  0
    2.0890    1.2206    1.6892 H   0  0  0  0  0  0  0  0  0  0  0  0
    3.2683    0.7145    0.4737 H   0  0  0  0  0  0  0  0  0  0  0  0
    1.9118    1.7036   -0.0787 H   0  0  0  0  0  0  0  0  0  0  0  0
  1  2  1  0
  2  3  1  0
  3  4  1  0
  4  5  2  0
  5  6  1  0
  6  7  1  0
  7  8  1  0
  8  9  1  0
  6  2  1  0
  8  6  1  0
  1 10  1  0
  1 11  1  0
  1 12  1  0
  2 13  1  0
  3 14  1  0
  3 15  1  0
  4 16  1  0
  5 17  1  0
  7 18  1  0
  7 19  1  0
  8 20  1  0
  9 21  1  0
  9 22  1  0
  9 23  1  0
M  END
