
     RDKit          3D

 19 20  0  0  0  0  0  0  0  0999 V2000
   -1.9580    0.6741    0.1587 C   0  0  0  0  0  0  0  0  0  0  0  0
   -0.9698   -0.3028   -0.4350 C   0  0  0  0  0  0  0  0  0  0  0  0
   -0.4130   -1.1203    0.7177 C   0  0  0  0  0  0  0  0  0  0  0  0
    0.3970   -0.3809    1.5538 O   0  0  0  0  0  0  0  0  0  0  0  0
    1.2322    0.4974    0.9183 C   0  0  0  0  0  0  0  0  0  0  0  0
    2.1402   -0.1615   -0.0663 C   0  0  0  0  0  0  0  0  0  0  0  0
    1.4053   -0.3115   -1.1648 C   0  0  0  0  0  0  0  0  0  0  0  0
    0.1791    0.5285   -0.9812 C   0  0  0  0  0  0  0  0  0  0  0  0
    0.5452    1.3906    0.0748 O   0  0  0  0  0  0  0  0  0  0  0  0
   -1.9623    1.5711   -0.5193 H   0  0  0  0  0  0  0  0  0  0  0  0
   -2.9684    0.2768    0.2408 H   0  0  0  0  0  0  0  0  0  0  0  0
   -1.5251    0.9875    1.1464 H   0  0  0  0  0  0  0  0  0  0  0  0
   -1.4005   -0.9748   -1.1721 H   0  0  0  0  0  0  0  0  0  0  0  0
   -1.3151   -1.4383    1.3153 H   0  0  0  0  0  0  0  0  0  0  0  0
    0.0698   -2.0222    0.3043 H   0  0  0  0  0  0  0  0  0  0  0  0
    1.7773    1.0774    1.6696 H   0  0  0  0  0  0  0  0  0  0  0  0
    3.1713   -0.4358    0.1303 H   0  0  0  0  0  0  0  0  0  0  0  0
    1.6829   -0.9327   -2.0038 H   0  0  0  0  0  0  0  0  0  0  0  0
   -0.0882    1.0776   -1.8876 H   0  0  0  0  0  0  0  0  0  0  0  0
  1  2  1  0
  2  3  1  0
  3  4  1  0
  4  5  1  0
  5  6  1  0
  6  7  2  0
  7  8  1  0
  8  9  1  0
  8  2  1  0
  9  5  1  0
  1 10  1  0
  1 11  1  0
  1 12  1  0
  2 13  1  0
  3 14  1  0
  3 15  1  0
  5 16  1  0
  6 17  1  0
  7 18  1  0
  8 19  1  0
M  END
