
     RDKit          3D

 16 16  0  0  0  0  0  0  0  0999 V2000
    1.5844   -0.2830    0.3390 C   0  0  0  0  0  0  0  0  0  0  0  0
    0.4859   -0.2485   -0.6706 C   0  0  0  0  0  0  0  0  0  0  0  0
   -0.8028   -0.8998   -0.2855 C   0  0  0  0  0  0  0  0  0  0  0  0
   -0.7534   -1.7953    0.7723 O   0  0  0  0  0  0  0  0  0  0  0  0
   -1.3431    0.4103    0.1904 C   0  0  0  0  0  0  0  0  0  0  0  0
   -2.2019    0.8502    0.9139 O   0  0  0  0  0  0  0  0  0  0  0  0
   -0.3005    1.0661   -0.6642 C   0  0  0  0  0  0  0  0  0  0  0  0
    0.3704    2.0303    0.0345 O   0  0  0  0  0  0  0  0  0  0  0  0
    1.3091   -0.7947    1.2888 H   0  0  0  0  0  0  0  0  0  0  0  0
    2.5196   -0.7370   -0.0451 H   0  0  0  0  0  0  0  0  0  0  0  0
    1.8392    0.7635    0.6097 H   0  0  0  0  0  0  0  0  0  0  0  0
    0.8422   -0.4294   -1.7090 H   0  0  0  0  0  0  0  0  0  0  0  0
   -1.3598   -1.2339   -1.1809 H   0  0  0  0  0  0  0  0  0  0  0  0
   -1.6949   -1.9997    1.0131 H   0  0  0  0  0  0  0  0  0  0  0  0
   -0.7366    1.3368   -1.6306 H   0  0  0  0  0  0  0  0  0  0  0  0
    0.2424    1.9640    1.0241 H   0  0  0  0  0  0  0  0  0  0  0  0
  1  2  1  0
  2  3  1  0
  3  4  1  0
  3  5  1  0
  5  6  2  0
  5  7  1  0
  7  8  1  0
  7  2  1  0
  1  9  1  0
  1 10  1  0
  1 11  1  0
  2 12  1  0
  3 13  1  0
  4 14  1  0
  7 15  1  0
  8 16  1  0
M  END
