
     RDKit          3D

 21 23  0  0  0  0  0  0  0  0999 V2000
   -2.0890   -1.0797    0.5887 C   0  0  0  0  0  0  0  0  0  0  0  0
   -0.9603   -0.3902   -0.1046 C   0  0  0  0  0  0  0  0  0  0  0  0
   -1.1776    1.1261   -0.1755 C   0  0  0  0  0  0  0  0  0  0  0  0
    0.2149    1.5553   -0.6597 C   0  0  0  0  0  0  0  0  0  0  0  0
    1.0817    0.8457    0.3357 C   0  0  0  0  0  0  0  0  0  0  0  0
    2.2945    0.0801   -0.1117 C   0  0  0  0  0  0  0  0  0  0  0  0
    1.4789   -1.1816   -0.0458 C   0  0  0  0  0  0  0  0  0  0  0  0
    0.3440   -0.4590    0.6506 C   0  0  0  0  0  0  0  0  0  0  0  0
    0.6163    0.5153    1.5860 O   0  0  0  0  0  0  0  0  0  0  0  0
   -3.0714   -0.5747    0.4671 H   0  0  0  0  0  0  0  0  0  0  0  0
   -2.1965   -2.0955    0.1181 H   0  0  0  0  0  0  0  0  0  0  0  0
   -1.9286   -1.2368    1.6626 H   0  0  0  0  0  0  0  0  0  0  0  0
   -0.8178   -0.7530   -1.1477 H   0  0  0  0  0  0  0  0  0  0  0  0
   -1.2747    1.5466    0.8419 H   0  0  0  0  0  0  0  0  0  0  0  0
   -1.9652    1.4052   -0.8704 H   0  0  0  0  0  0  0  0  0  0  0  0
    0.2598    2.6413   -0.6234 H   0  0  0  0  0  0  0  0  0  0  0  0
    0.3032    1.1326   -1.6963 H   0  0  0  0  0  0  0  0  0  0  0  0
    2.7375    0.3469   -1.0651 H   0  0  0  0  0  0  0  0  0  0  0  0
    3.0488    0.0760    0.7268 H   0  0  0  0  0  0  0  0  0  0  0  0
    1.8579   -1.9812    0.6061 H   0  0  0  0  0  0  0  0  0  0  0  0
    1.2436   -1.5195   -1.0833 H   0  0  0  0  0  0  0  0  0  0  0  0
  1  2  1  0
  2  3  1  0
  3  4  1  0
  4  5  1  0
  5  6  1  0
  6  7  1  0
  7  8  1  0
  8  9  1  0
  8  2  1  0
  8  5  1  0
  9  5  1  0
  1 10  1  0
  1 11  1  0
  1 12  1  0
  2 13  1  0
  3 14  1  0
  3 15  1  0
  4 16  1  0
  4 17  1  0
  6 18  1  0
  6 19  1  0
  7 20  1  0
  7 21  1  0
M  END
