
     RDKit          3D

 21 21  0  0  0  0  0  0  0  0999 V2000
   -3.0366    0.6954   -0.1003 C   0  0  0  0  0  0  0  0  0  0  0  0
   -1.7728    0.0787   -0.6082 C   0  0  0  0  0  0  0  0  0  0  0  0
   -0.6119    0.8214   -0.0354 C   0  0  0  0  0  0  0  0  0  0  0  0
    0.2559   -0.0875    0.3603 C   0  0  0  0  0  0  0  0  0  0  0  0
    1.5730    0.2658    0.9996 C   0  0  0  0  0  0  0  0  0  0  0  0
    2.6411   -0.3239    0.0923 C   0  0  0  0  0  0  0  0  0  0  0  0
    2.5107    0.2444   -1.1663 O   0  0  0  0  0  0  0  0  0  0  0  0
   -0.2941   -1.4121    0.0654 C   0  0  0  0  0  0  0  0  0  0  0  0
   -1.6447   -1.2297   -0.1401 O   0  0  0  0  0  0  0  0  0  0  0  0
   -3.5726    1.1290   -0.9761 H   0  0  0  0  0  0  0  0  0  0  0  0
   -2.8812    1.5030    0.6356 H   0  0  0  0  0  0  0  0  0  0  0  0
   -3.7051   -0.0588    0.4001 H   0  0  0  0  0  0  0  0  0  0  0  0
   -1.6625    0.1296   -1.7160 H   0  0  0  0  0  0  0  0  0  0  0  0
   -0.5678    1.8945    0.0096 H   0  0  0  0  0  0  0  0  0  0  0  0
    1.7141    1.3585    1.0422 H   0  0  0  0  0  0  0  0  0  0  0  0
    1.5665   -0.1794    1.9969 H   0  0  0  0  0  0  0  0  0  0  0  0
    3.6172   -0.0955    0.5679 H   0  0  0  0  0  0  0  0  0  0  0  0
    2.5371   -1.4200    0.0285 H   0  0  0  0  0  0  0  0  0  0  0  0
    3.3288    0.6889   -1.4906 H   0  0  0  0  0  0  0  0  0  0  0  0
    0.1567   -1.8658   -0.8639 H   0  0  0  0  0  0  0  0  0  0  0  0
   -0.1517   -2.1366    0.8986 H   0  0  0  0  0  0  0  0  0  0  0  0
  1  2  1  0
  2  3  1  0
  3  4  2  0
  4  5  1  0
  5  6  1  0
  6  7  1  0
  4  8  1  0
  8  9  1  0
  9  2  1  0
  1 10  1  0
  1 11  1  0
  1 12  1  0
  2 13  1  0
  3 14  1  0
  5 15  1  0
  5 16  1  0
  6 17  1  0
  6 18  1  0
  7 19  1  0
  8 20  1  0
  8 21  1  0
M  END
