
     RDKit          3D

 21 22  0  0  0  0  0  0  0  0999 V2000
   -2.7882    0.1675   -0.2926 C   0  0  0  0  0  0  0  0  0  0  0  0
   -1.4212    0.5073    0.2400 C   0  0  0  0  0  0  0  0  0  0  0  0
   -0.7404   -0.6642    0.9642 C   0  0  0  0  0  0  0  0  0  0  0  0
    0.4753   -0.1888    0.2835 C   0  0  0  0  0  0  0  0  0  0  0  0
    1.5774   -1.0796   -0.0480 C   0  0  0  0  0  0  0  0  0  0  0  0
    2.4990    0.1407    0.1111 C   0  0  0  0  0  0  0  0  0  0  0  0
    1.3982    0.7363    0.9846 C   0  0  0  0  0  0  0  0  0  0  0  0
   -0.3308    0.4179   -0.7680 C   0  0  0  0  0  0  0  0  0  0  0  0
   -0.2057    0.7184   -1.9169 O   0  0  0  0  0  0  0  0  0  0  0  0
   -3.1143    1.0324   -0.9072 H   0  0  0  0  0  0  0  0  0  0  0  0
   -3.4654    0.0615    0.5874 H   0  0  0  0  0  0  0  0  0  0  0  0
   -2.7572   -0.7355   -0.9199 H   0  0  0  0  0  0  0  0  0  0  0  0
   -1.4176    1.4479    0.8176 H   0  0  0  0  0  0  0  0  0  0  0  0
   -1.0994   -1.6255    0.5440 H   0  0  0  0  0  0  0  0  0  0  0  0
   -0.7983   -0.6216    2.0515 H   0  0  0  0  0  0  0  0  0  0  0  0
    1.5829   -1.5055   -1.0664 H   0  0  0  0  0  0  0  0  0  0  0  0
    1.8252   -1.7924    0.7597 H   0  0  0  0  0  0  0  0  0  0  0  0
    3.4401   -0.0528    0.6104 H   0  0  0  0  0  0  0  0  0  0  0  0
    2.5355    0.6770   -0.8573 H   0  0  0  0  0  0  0  0  0  0  0  0
    1.2056    1.8064    0.7911 H   0  0  0  0  0  0  0  0  0  0  0  0
    1.5994    0.5526    2.0528 H   0  0  0  0  0  0  0  0  0  0  0  0
  1  2  1  0
  2  3  1  0
  3  4  1  0
  4  5  1  0
  5  6  1  0
  6  7  1  0
  4  8  1  0
  8  9  2  0
  8  2  1  0
  7  4  1  0
  1 10  1  0
  1 11  1  0
  1 12  1  0
  2 13  1  0
  3 14  1  0
  3 15  1  0
  5 16  1  0
  5 17  1  0
  6 18  1  0
  6 19  1  0
  7 20  1  0
  7 21  1  0
M  END
