
     RDKit          3D

 19 20  0  0  0  0  0  0  0  0999 V2000
    2.5501    0.4143   -0.8035 C   0  0  0  0  0  0  0  0  0  0  0  0
    1.4996   -0.0938    0.1284 C   0  0  0  0  0  0  0  0  0  0  0  0
    0.7738   -1.3120   -0.3797 C   0  0  0  0  0  0  0  0  0  0  0  0
   -0.5352   -0.8564   -0.5297 O   0  0  0  0  0  0  0  0  0  0  0  0
   -0.6063    0.0176    0.5801 C   0  0  0  0  0  0  0  0  0  0  0  0
   -1.9244    0.7415    0.6160 C   0  0  0  0  0  0  0  0  0  0  0  0
   -2.8811    0.5742   -0.4559 C   0  0  0  0  0  0  0  0  0  0  0  0
   -3.0815   -0.1871    0.7159 O   0  0  0  0  0  0  0  0  0  0  0  0
    0.4629    0.8456    0.3301 O   0  0  0  0  0  0  0  0  0  0  0  0
    2.7356    1.4979   -0.5513 H   0  0  0  0  0  0  0  0  0  0  0  0
    2.2248    0.3198   -1.8406 H   0  0  0  0  0  0  0  0  0  0  0  0
    3.4670   -0.1917   -0.6519 H   0  0  0  0  0  0  0  0  0  0  0  0
    1.9638   -0.2785    1.1357 H   0  0  0  0  0  0  0  0  0  0  0  0
    1.1945   -1.6951   -1.3281 H   0  0  0  0  0  0  0  0  0  0  0  0
    0.7612   -2.0598    0.4271 H   0  0  0  0  0  0  0  0  0  0  0  0
   -0.3907   -0.5745    1.4758 H   0  0  0  0  0  0  0  0  0  0  0  0
   -2.0234    1.4848    1.4068 H   0  0  0  0  0  0  0  0  0  0  0  0
   -2.5935   -0.0585   -1.3232 H   0  0  0  0  0  0  0  0  0  0  0  0
   -3.5973    1.4120   -0.6450 H   0  0  0  0  0  0  0  0  0  0  0  0
  1  2  1  0
  2  3  1  0
  3  4  1  0
  4  5  1  0
  5  6  1  0
  6  7  1  0
  7  8  1  0
  5  9  1  0
  9  2  1  0
  8  6  1  0
  1 10  1  0
  1 11  1  0
  1 12  1  0
  2 13  1  0
  3 14  1  0
  3 15  1  0
  5 16  1  0
  6 17  1  0
  7 18  1  0
  7 19  1  0
M  END
