
     RDKit          3D

 25 25  0  0  0  0  0  0  0  0999 V2000
    0.5450   -2.2953   -0.7891 C   0  0  0  0  0  0  0  0  0  0  0  0
    0.1691   -1.1834    0.1334 C   0  0  0  0  0  0  0  0  0  0  0  0
   -0.9497   -0.2791   -0.3355 C   0  0  0  0  0  0  0  0  0  0  0  0
   -2.2462   -0.4223    0.4368 C   0  0  0  0  0  0  0  0  0  0  0  0
   -0.1324    0.8804    0.2164 C   0  0  0  0  0  0  0  0  0  0  0  0
   -0.1426    2.1087   -0.6463 C   0  0  0  0  0  0  0  0  0  0  0  0
   -1.4267    2.6163   -0.8297 O   0  0  0  0  0  0  0  0  0  0  0  0
    1.0997    0.0223   -0.0616 C   0  0  0  0  0  0  0  0  0  0  0  0
    2.1792    0.1118    0.9707 C   0  0  0  0  0  0  0  0  0  0  0  0
    1.1430   -3.0318   -0.1769 H   0  0  0  0  0  0  0  0  0  0  0  0
    1.2722   -1.9585   -1.5833 H   0  0  0  0  0  0  0  0  0  0  0  0
   -0.3080   -2.8459   -1.2183 H   0  0  0  0  0  0  0  0  0  0  0  0
    0.0778   -1.4259    1.2018 H   0  0  0  0  0  0  0  0  0  0  0  0
   -1.0765   -0.2585   -1.4325 H   0  0  0  0  0  0  0  0  0  0  0  0
   -2.0828   -0.8580    1.4346 H   0  0  0  0  0  0  0  0  0  0  0  0
   -2.6976    0.5992    0.5999 H   0  0  0  0  0  0  0  0  0  0  0  0
   -3.0150   -0.9728   -0.1602 H   0  0  0  0  0  0  0  0  0  0  0  0
   -0.3208    1.0855    1.2695 H   0  0  0  0  0  0  0  0  0  0  0  0
    0.4704    2.8763   -0.1376 H   0  0  0  0  0  0  0  0  0  0  0  0
    0.3358    1.9019   -1.6159 H   0  0  0  0  0  0  0  0  0  0  0  0
   -1.7516    2.9125    0.0547 H   0  0  0  0  0  0  0  0  0  0  0  0
    1.4810    0.1377   -1.0790 H   0  0  0  0  0  0  0  0  0  0  0  0
    3.1668    0.3951    0.5439 H   0  0  0  0  0  0  0  0  0  0  0  0
    2.3333   -0.9121    1.4013 H   0  0  0  0  0  0  0  0  0  0  0  0
    1.8766    0.7958    1.8027 H   0  0  0  0  0  0  0  0  0  0  0  0
  1  2  1  0
  2  3  1  0
  3  4  1  0
  3  5  1  0
  5  6  1  0
  6  7  1  0
  5  8  1  0
  8  9  1  0
  8  2  1  0
  1 10  1  0
  1 11  1  0
  1 12  1  0
  2 13  1  0
  3 14  1  0
  4 15  1  0
  4 16  1  0
  4 17  1  0
  5 18  1  0
  6 19  1  0
  6 20  1  0
  7 21  1  0
  8 22  1  0
  9 23  1  0
  9 24  1  0
  9 25  1  0
M  END
