
     RDKit          3D

 21 22  0  0  0  0  0  0  0  0999 V2000
    2.4030   -0.5333   -0.7474 C   0  0  0  0  0  0  0  0  0  0  0  0
    1.0398   -0.8808   -0.3593 C   0  0  0  0  0  0  0  0  0  0  0  0
    0.4334   -0.2080    0.8722 C   0  0  0  0  0  0  0  0  0  0  0  0
    0.4332    1.0096    0.0467 C   0  0  0  0  0  0  0  0  0  0  0  0
   -0.2633    2.1190    0.3938 O   0  0  0  0  0  0  0  0  0  0  0  0
   -0.1074   -0.0037   -0.8778 C   0  0  0  0  0  0  0  0  0  0  0  0
   -0.8330   -0.6410    0.2345 C   0  0  0  0  0  0  0  0  0  0  0  0
   -2.1512   -0.2364    0.6936 C   0  0  0  0  0  0  0  0  0  0  0  0
   -2.4845    1.0986    0.7072 O   0  0  0  0  0  0  0  0  0  0  0  0
    2.9999    0.0179    0.0210 H   0  0  0  0  0  0  0  0  0  0  0  0
    2.9836   -1.4621   -0.9484 H   0  0  0  0  0  0  0  0  0  0  0  0
    2.4485    0.0388   -1.7215 H   0  0  0  0  0  0  0  0  0  0  0  0
    0.7958   -1.9524   -0.4445 H   0  0  0  0  0  0  0  0  0  0  0  0
    0.7438   -0.3607    1.8119 H   0  0  0  0  0  0  0  0  0  0  0  0
    1.4759    1.3774   -0.2600 H   0  0  0  0  0  0  0  0  0  0  0  0
   -0.1534    2.4207    1.3227 H   0  0  0  0  0  0  0  0  0  0  0  0
   -0.3512    0.0723   -1.8468 H   0  0  0  0  0  0  0  0  0  0  0  0
   -0.7950   -1.7884    0.0460 H   0  0  0  0  0  0  0  0  0  0  0  0
   -2.9097   -0.7013   -0.0194 H   0  0  0  0  0  0  0  0  0  0  0  0
   -2.4636   -0.7404    1.6695 H   0  0  0  0  0  0  0  0  0  0  0  0
   -3.2446    1.3542    0.1293 H   0  0  0  0  0  0  0  0  0  0  0  0
  1  2  1  0
  2  3  1  0
  3  4  1  0
  4  5  1  0
  4  6  1  0
  6  7  1  0
  7  8  1  0
  8  9  1  0
  6  2  1  0
  7  3  1  0
  1 10  1  0
  1 11  1  0
  1 12  1  0
  2 13  1  0
  3 14  1  0
  4 15  1  0
  5 16  1  0
  6 17  1  0
  7 18  1  0
  8 19  1  0
  8 20  1  0
  9 21  1  0
M  END
