
     RDKit          3D

 21 21  0  0  0  0  0  0  0  0999 V2000
    2.2672    0.4701   -0.0779 C   0  0  0  0  0  0  0  0  0  0  0  0
    0.9758   -0.0441    0.4844 C   0  0  0  0  0  0  0  0  0  0  0  0
    0.5929   -1.2776   -0.3430 C   0  0  0  0  0  0  0  0  0  0  0  0
   -0.8685   -1.4078    0.1006 C   0  0  0  0  0  0  0  0  0  0  0  0
   -1.3218    0.0072   -0.2885 C   0  0  0  0  0  0  0  0  0  0  0  0
   -2.6292    0.3450    0.2608 C   0  0  0  0  0  0  0  0  0  0  0  0
   -2.7343    0.7179    1.3961 O   0  0  0  0  0  0  0  0  0  0  0  0
   -0.1910    0.8649    0.2271 C   0  0  0  0  0  0  0  0  0  0  0  0
    0.0704    1.8556   -0.7022 O   0  0  0  0  0  0  0  0  0  0  0  0
    2.1926    0.4365   -1.1962 H   0  0  0  0  0  0  0  0  0  0  0  0
    3.0644   -0.2450    0.2216 H   0  0  0  0  0  0  0  0  0  0  0  0
    2.5202    1.4929    0.2782 H   0  0  0  0  0  0  0  0  0  0  0  0
    1.0361   -0.3833    1.5240 H   0  0  0  0  0  0  0  0  0  0  0  0
    0.5631   -1.0067   -1.4052 H   0  0  0  0  0  0  0  0  0  0  0  0
    1.1866   -2.1481   -0.0900 H   0  0  0  0  0  0  0  0  0  0  0  0
   -1.4034   -2.1774   -0.4485 H   0  0  0  0  0  0  0  0  0  0  0  0
   -0.9222   -1.4954    1.2029 H   0  0  0  0  0  0  0  0  0  0  0  0
   -1.2704    0.0343   -1.3942 H   0  0  0  0  0  0  0  0  0  0  0  0
   -3.5037    0.2427   -0.4077 H   0  0  0  0  0  0  0  0  0  0  0  0
   -0.4979    1.3448    1.1999 H   0  0  0  0  0  0  0  0  0  0  0  0
    0.8731    2.3734   -0.5423 H   0  0  0  0  0  0  0  0  0  0  0  0
  1  2  1  0
  2  3  1  0
  3  4  1  0
  4  5  1  0
  5  6  1  0
  6  7  2  0
  5  8  1  0
  8  9  1  0
  8  2  1  0
  1 10  1  0
  1 11  1  0
  1 12  1  0
  2 13  1  0
  3 14  1  0
  3 15  1  0
  4 16  1  0
  4 17  1  0
  5 18  1  0
  6 19  1  0
  8 20  1  0
  9 21  1  0
M  END
