
     RDKit          3D

 17 17  0  0  0  0  0  0  0  0999 V2000
   -1.0890   -1.5943    0.1034 C   0  0  0  0  0  0  0  0  0  0  0  0
   -0.4306   -0.2693    0.5080 C   0  0  0  0  0  0  0  0  0  0  0  0
   -1.3720    0.8143    0.1662 C   0  0  0  0  0  0  0  0  0  0  0  0
   -0.6884    1.8061   -0.3648 C   0  0  0  0  0  0  0  0  0  0  0  0
    0.7468    1.4978   -0.4335 C   0  0  0  0  0  0  0  0  0  0  0  0
    1.7258    2.2777   -0.5400 O   0  0  0  0  0  0  0  0  0  0  0  0
    0.7502   -0.0070   -0.3431 C   0  0  0  0  0  0  0  0  0  0  0  0
    2.0299   -0.4528    0.2015 C   0  0  0  0  0  0  0  0  0  0  0  0
    2.9952   -0.5076   -0.5374 O   0  0  0  0  0  0  0  0  0  0  0  0
   -2.1294   -1.5949    0.4204 H   0  0  0  0  0  0  0  0  0  0  0  0
   -0.4758   -2.4034    0.5564 H   0  0  0  0  0  0  0  0  0  0  0  0
   -0.9984   -1.6738   -0.9921 H   0  0  0  0  0  0  0  0  0  0  0  0
   -0.2205   -0.2576    1.5974 H   0  0  0  0  0  0  0  0  0  0  0  0
   -2.4695    0.8163    0.3203 H   0  0  0  0  0  0  0  0  0  0  0  0
   -1.1327    2.7499   -0.7144 H   0  0  0  0  0  0  0  0  0  0  0  0
    0.5839   -0.4606   -1.3387 H   0  0  0  0  0  0  0  0  0  0  0  0
    2.1745   -0.7408    1.2332 H   0  0  0  0  0  0  0  0  0  0  0  0
  1  2  1  0
  2  3  1  0
  3  4  2  0
  4  5  1  0
  5  6  2  0
  5  7  1  0
  7  8  1  0
  8  9  2  0
  7  2  1  0
  1 10  1  0
  1 11  1  0
  1 12  1  0
  2 13  1  0
  3 14  1  0
  4 15  1  0
  7 16  1  0
  8 17  1  0
M  END
