
     RDKit          3D

 22 23  0  0  0  0  0  0  0  0999 V2000
    2.2670    0.9873   -0.5766 C   0  0  0  0  0  0  0  0  0  0  0  0
    1.1907    0.3685    0.2475 C   0  0  0  0  0  0  0  0  0  0  0  0
   -0.0040    1.3155    0.3386 C   0  0  0  0  0  0  0  0  0  0  0  0
   -0.8740    0.1675   -0.0445 C   0  0  0  0  0  0  0  0  0  0  0  0
   -2.1536    0.2648   -0.6985 C   0  0  0  0  0  0  0  0  0  0  0  0
   -2.0109   -0.3027    0.7319 C   0  0  0  0  0  0  0  0  0  0  0  0
    0.2920   -0.6213   -0.4498 C   0  0  0  0  0  0  0  0  0  0  0  0
    0.3443   -1.9513    0.3139 C   0  0  0  0  0  0  0  0  0  0  0  0
    2.5199    1.9875   -0.1391 H   0  0  0  0  0  0  0  0  0  0  0  0
    1.9656    1.1441   -1.6290 H   0  0  0  0  0  0  0  0  0  0  0  0
    3.2223    0.4132   -0.5487 H   0  0  0  0  0  0  0  0  0  0  0  0
    1.5898    0.0479    1.2312 H   0  0  0  0  0  0  0  0  0  0  0  0
   -0.2229    1.6704    1.3617 H   0  0  0  0  0  0  0  0  0  0  0  0
   -0.0247    2.0951   -0.4585 H   0  0  0  0  0  0  0  0  0  0  0  0
   -2.6260    1.2904   -0.7327 H   0  0  0  0  0  0  0  0  0  0  0  0
   -2.5299   -0.4069   -1.4807 H   0  0  0  0  0  0  0  0  0  0  0  0
   -2.3481    0.3693    1.5658 H   0  0  0  0  0  0  0  0  0  0  0  0
   -2.1684   -1.3849    0.8682 H   0  0  0  0  0  0  0  0  0  0  0  0
    0.4863   -0.8015   -1.5111 H   0  0  0  0  0  0  0  0  0  0  0  0
    0.1508   -1.6662    1.3837 H   0  0  0  0  0  0  0  0  0  0  0  0
    1.3660   -2.3528    0.2806 H   0  0  0  0  0  0  0  0  0  0  0  0
   -0.4323   -2.6339   -0.0539 H   0  0  0  0  0  0  0  0  0  0  0  0
  1  2  1  0
  2  3  1  0
  3  4  1  0
  4  5  1  0
  5  6  1  0
  4  7  1  0
  7  8  1  0
  7  2  1  0
  6  4  1  0
  1  9  1  0
  1 10  1  0
  1 11  1  0
  2 12  1  0
  3 13  1  0
  3 14  1  0
  5 15  1  0
  5 16  1  0
  6 17  1  0
  6 18  1  0
  7 19  1  0
  8 20  1  0
  8 21  1  0
  8 22  1  0
M  END
