
     RDKit          3D

 14 14  0  0  0  0  0  0  0  0999 V2000
    1.8006   -0.2284    0.1142 C   0  0  0  0  0  0  0  0  0  0  0  0
    0.3813   -0.2114   -0.3031 C   0  0  0  0  0  0  0  0  0  0  0  0
   -0.3138    1.1249    0.0018 C   0  0  0  0  0  0  0  0  0  0  0  0
   -1.6378    0.7139   -0.2821 O   0  0  0  0  0  0  0  0  0  0  0  0
   -1.7160   -0.5902    0.1218 C   0  0  0  0  0  0  0  0  0  0  0  0
   -0.4517   -1.0469    0.4226 O   0  0  0  0  0  0  0  0  0  0  0  0
    2.1635    0.7623    0.4702 H   0  0  0  0  0  0  0  0  0  0  0  0
    2.4184   -0.5087   -0.7892 H   0  0  0  0  0  0  0  0  0  0  0  0
    1.9625   -0.9914    0.8932 H   0  0  0  0  0  0  0  0  0  0  0  0
    0.2171   -0.3774   -1.3886 H   0  0  0  0  0  0  0  0  0  0  0  0
    0.0269    1.9277   -0.6430 H   0  0  0  0  0  0  0  0  0  0  0  0
   -0.3019    1.3458    1.0836 H   0  0  0  0  0  0  0  0  0  0  0  0
   -2.4277   -0.6449    0.9725 H   0  0  0  0  0  0  0  0  0  0  0  0
   -2.1215   -1.2753   -0.6740 H   0  0  0  0  0  0  0  0  0  0  0  0
  1  2  1  0
  2  3  1  0
  3  4  1  0
  4  5  1  0
  5  6  1  0
  6  2  1  0
  1  7  1  0
  1  8  1  0
  1  9  1  0
  2 10  1  0
  3 11  1  0
  3 12  1  0
  5 13  1  0
  5 14  1  0
M  END
