
     RDKit          3D

 21 23  0  0  0  0  0  0  0  0999 V2000
    2.2259    0.3992   -0.7195 C   0  0  0  0  0  0  0  0  0  0  0  0
    1.1979    0.3715    0.3557 C   0  0  0  0  0  0  0  0  0  0  0  0
    0.7048   -1.0313    0.6710 C   0  0  0  0  0  0  0  0  0  0  0  0
   -0.4323   -1.2439   -0.3009 C   0  0  0  0  0  0  0  0  0  0  0  0
   -1.7556   -0.6647   -0.0439 C   0  0  0  0  0  0  0  0  0  0  0  0
   -2.0070    0.4289    0.9340 C   0  0  0  0  0  0  0  0  0  0  0  0
   -0.8683    1.1728    1.0753 O   0  0  0  0  0  0  0  0  0  0  0  0
   -0.1067    1.0629   -0.0620 C   0  0  0  0  0  0  0  0  0  0  0  0
   -0.7191    0.0225   -0.9493 C   0  0  0  0  0  0  0  0  0  0  0  0
    2.8833    1.2880   -0.5617 H   0  0  0  0  0  0  0  0  0  0  0  0
    1.8398    0.4320   -1.7367 H   0  0  0  0  0  0  0  0  0  0  0  0
    2.8926   -0.5069   -0.6589 H   0  0  0  0  0  0  0  0  0  0  0  0
    1.5181    0.8867    1.2866 H   0  0  0  0  0  0  0  0  0  0  0  0
    0.2420   -0.9671    1.6877 H   0  0  0  0  0  0  0  0  0  0  0  0
    1.4959   -1.7804    0.5949 H   0  0  0  0  0  0  0  0  0  0  0  0
   -0.3945   -2.1478   -0.9171 H   0  0  0  0  0  0  0  0  0  0  0  0
   -2.6413   -1.1084   -0.4981 H   0  0  0  0  0  0  0  0  0  0  0  0
   -2.7918    1.1030    0.4790 H   0  0  0  0  0  0  0  0  0  0  0  0
   -2.4042    0.0639    1.8881 H   0  0  0  0  0  0  0  0  0  0  0  0
    0.0739    2.0263   -0.5375 H   0  0  0  0  0  0  0  0  0  0  0  0
   -0.9535    0.1928   -1.9867 H   0  0  0  0  0  0  0  0  0  0  0  0
  1  2  1  0
  2  3  1  0
  3  4  1  0
  4  5  1  0
  5  6  1  0
  6  7  1  0
  7  8  1  0
  8  9  1  0
  8  2  1  0
  9  4  1  0
  9  5  1  0
  1 10  1  0
  1 11  1  0
  1 12  1  0
  2 13  1  0
  3 14  1  0
  3 15  1  0
  4 16  1  0
  5 17  1  0
  6 18  1  0
  6 19  1  0
  8 20  1  0
  9 21  1  0
M  END
