
     RDKit          3D

 21 22  0  0  0  0  0  0  0  0999 V2000
    2.3175    0.1032    0.6925 C   0  0  0  0  0  0  0  0  0  0  0  0
    0.8835   -0.3651    0.6070 C   0  0  0  0  0  0  0  0  0  0  0  0
    0.4044   -0.5793   -0.8176 C   0  0  0  0  0  0  0  0  0  0  0  0
   -0.6319   -1.5914   -1.0927 C   0  0  0  0  0  0  0  0  0  0  0  0
   -1.7618   -1.2414   -0.4897 C   0  0  0  0  0  0  0  0  0  0  0  0
   -1.5845    0.0492    0.2516 C   0  0  0  0  0  0  0  0  0  0  0  0
   -1.8325   -0.1175    1.6239 O   0  0  0  0  0  0  0  0  0  0  0  0
   -0.1711    0.4736    0.0330 C   0  0  0  0  0  0  0  0  0  0  0  0
    0.0594    1.9103   -0.3656 C   0  0  0  0  0  0  0  0  0  0  0  0
    2.5342    0.7256   -0.1981 H   0  0  0  0  0  0  0  0  0  0  0  0
    2.5713    0.5801    1.6387 H   0  0  0  0  0  0  0  0  0  0  0  0
    2.9487   -0.8250    0.5873 H   0  0  0  0  0  0  0  0  0  0  0  0
    0.5825   -1.1668    1.3223 H   0  0  0  0  0  0  0  0  0  0  0  0
    1.0437   -0.2507   -1.6554 H   0  0  0  0  0  0  0  0  0  0  0  0
   -0.4839   -2.4775   -1.6936 H   0  0  0  0  0  0  0  0  0  0  0  0
   -2.7177   -1.7594   -0.4852 H   0  0  0  0  0  0  0  0  0  0  0  0
   -2.2797    0.7742   -0.2025 H   0  0  0  0  0  0  0  0  0  0  0  0
   -2.2331   -1.0134    1.7197 H   0  0  0  0  0  0  0  0  0  0  0  0
   -0.7714    2.2008   -1.0305 H   0  0  0  0  0  0  0  0  0  0  0  0
    0.9904    2.0175   -0.9822 H   0  0  0  0  0  0  0  0  0  0  0  0
    0.1319    2.5528    0.5371 H   0  0  0  0  0  0  0  0  0  0  0  0
  1  2  1  0
  2  3  1  0
  3  4  1  0
  4  5  2  0
  5  6  1  0
  6  7  1  0
  6  8  1  0
  8  9  1  0
  8  2  1  0
  8  3  1  0
  1 10  1  0
  1 11  1  0
  1 12  1  0
  2 13  1  0
  3 14  1  0
  4 15  1  0
  5 16  1  0
  6 17  1  0
  7 18  1  0
  9 19  1  0
  9 20  1  0
  9 21  1  0
M  END
