
     RDKit          3D

 21 23  0  0  0  0  0  0  0  0999 V2000
    2.2050   -0.6680    0.8975 C   0  0  0  0  0  0  0  0  0  0  0  0
    1.4489   -0.4433   -0.3662 C   0  0  0  0  0  0  0  0  0  0  0  0
    0.2205   -1.3438   -0.5549 C   0  0  0  0  0  0  0  0  0  0  0  0
   -0.4592   -1.6090    0.6142 O   0  0  0  0  0  0  0  0  0  0  0  0
   -1.1422   -0.4992    1.0259 C   0  0  0  0  0  0  0  0  0  0  0  0
   -0.8769    0.6114    0.0253 C   0  0  0  0  0  0  0  0  0  0  0  0
   -1.8681    1.6898   -0.2061 C   0  0  0  0  0  0  0  0  0  0  0  0
    0.5359    0.7374   -0.4114 C   0  0  0  0  0  0  0  0  0  0  0  0
   -0.4535   -0.1625   -1.1464 C   0  0  0  0  0  0  0  0  0  0  0  0
    1.5807   -0.9822    1.7393 H   0  0  0  0  0  0  0  0  0  0  0  0
    2.8168    0.2269    1.1192 H   0  0  0  0  0  0  0  0  0  0  0  0
    2.9434   -1.4915    0.7049 H   0  0  0  0  0  0  0  0  0  0  0  0
    2.0834   -0.5053   -1.2629 H   0  0  0  0  0  0  0  0  0  0  0  0
    0.3485   -2.1546   -1.2701 H   0  0  0  0  0  0  0  0  0  0  0  0
   -2.2553   -0.6470    1.0839 H   0  0  0  0  0  0  0  0  0  0  0  0
   -0.8192   -0.1844    2.0325 H   0  0  0  0  0  0  0  0  0  0  0  0
   -2.8502    1.1876   -0.4551 H   0  0  0  0  0  0  0  0  0  0  0  0
   -1.5876    2.2293   -1.1329 H   0  0  0  0  0  0  0  0  0  0  0  0
   -2.0195    2.3632    0.6627 H   0  0  0  0  0  0  0  0  0  0  0  0
    0.8563    1.6594   -0.9351 H   0  0  0  0  0  0  0  0  0  0  0  0
   -0.7077   -0.0143   -2.1643 H   0  0  0  0  0  0  0  0  0  0  0  0
  1  2  1  0
  2  3  1  0
  3  4  1  0
  4  5  1  0
  5  6  1  0
  6  7  1  0
  6  8  1  0
  8  9  1  0
  8  2  1  0
  9  3  1  0
  9  6  1  0
  1 10  1  0
  1 11  1  0
  1 12  1  0
  2 13  1  0
  3 14  1  0
  5 15  1  0
  5 16  1  0
  7 17  1  0
  7 18  1  0
  7 19  1  0
  8 20  1  0
  9 21  1  0
M  END
