
     RDKit          3D

 21 23  0  0  0  0  0  0  0  0999 V2000
   -1.7681    1.5484    0.3307 C   0  0  0  0  0  0  0  0  0  0  0  0
   -0.4821    0.8405    0.5872 C   0  0  0  0  0  0  0  0  0  0  0  0
    0.4813    0.8572   -0.5717 C   0  0  0  0  0  0  0  0  0  0  0  0
    1.8754    0.3871   -0.3530 C   0  0  0  0  0  0  0  0  0  0  0  0
    2.2469   -0.1404    0.9743 C   0  0  0  0  0  0  0  0  0  0  0  0
    1.2780   -0.9332    0.2066 C   0  0  0  0  0  0  0  0  0  0  0  0
   -0.0936   -0.4092   -0.0750 C   0  0  0  0  0  0  0  0  0  0  0  0
   -1.0071   -1.2570   -0.8741 C   0  0  0  0  0  0  0  0  0  0  0  0
   -2.1018   -1.7418   -0.1704 O   0  0  0  0  0  0  0  0  0  0  0  0
   -1.5286    2.5354   -0.1254 H   0  0  0  0  0  0  0  0  0  0  0  0
   -2.4793    0.9677   -0.2908 H   0  0  0  0  0  0  0  0  0  0  0  0
   -2.2908    1.8030    1.2994 H   0  0  0  0  0  0  0  0  0  0  0  0
   -0.0373    1.0694    1.5995 H   0  0  0  0  0  0  0  0  0  0  0  0
    0.1784    1.3121   -1.5292 H   0  0  0  0  0  0  0  0  0  0  0  0
    2.5211    0.2862   -1.2378 H   0  0  0  0  0  0  0  0  0  0  0  0
    1.9616    0.4079    1.8962 H   0  0  0  0  0  0  0  0  0  0  0  0
    3.2804   -0.5582    1.0435 H   0  0  0  0  0  0  0  0  0  0  0  0
    1.6177   -1.8624   -0.3034 H   0  0  0  0  0  0  0  0  0  0  0  0
   -1.3994   -0.7489   -1.8000 H   0  0  0  0  0  0  0  0  0  0  0  0
   -0.4539   -2.1431   -1.2505 H   0  0  0  0  0  0  0  0  0  0  0  0
   -1.7987   -2.2206    0.6439 H   0  0  0  0  0  0  0  0  0  0  0  0
  1  2  1  0
  2  3  1  0
  3  4  1  0
  4  5  1  0
  5  6  1  0
  6  7  1  0
  7  8  1  0
  8  9  1  0
  7  2  1  0
  7  3  1  0
  6  4  1  0
  1 10  1  0
  1 11  1  0
  1 12  1  0
  2 13  1  0
  3 14  1  0
  4 15  1  0
  5 16  1  0
  5 17  1  0
  6 18  1  0
  8 19  1  0
  8 20  1  0
  9 21  1  0
M  END
