
     RDKit          3D

 19 21  0  0  0  0  0  0  0  0999 V2000
   -2.3649   -0.0145    0.0643 C   0  0  0  0  0  0  0  0  0  0  0  0
   -0.9271   -0.2078    0.4294 C   0  0  0  0  0  0  0  0  0  0  0  0
   -0.0873   -0.9678   -0.5698 C   0  0  0  0  0  0  0  0  0  0  0  0
    1.0855   -1.5681    0.1646 C   0  0  0  0  0  0  0  0  0  0  0  0
    1.9177   -0.5927    0.5033 C   0  0  0  0  0  0  0  0  0  0  0  0
    1.4012    0.7213    0.0428 C   0  0  0  0  0  0  0  0  0  0  0  0
    2.2987    1.7300   -0.2787 O   0  0  0  0  0  0  0  0  0  0  0  0
   -0.0313    0.9838    0.1957 C   0  0  0  0  0  0  0  0  0  0  0  0
    0.4677    0.3244   -1.0249 C   0  0  0  0  0  0  0  0  0  0  0  0
   -2.4699    0.2653   -1.0048 H   0  0  0  0  0  0  0  0  0  0  0  0
   -2.7580    0.8115    0.7266 H   0  0  0  0  0  0  0  0  0  0  0  0
   -2.9048   -0.9481    0.3114 H   0  0  0  0  0  0  0  0  0  0  0  0
   -0.8401   -0.5867    1.4660 H   0  0  0  0  0  0  0  0  0  0  0  0
   -0.5977   -1.6204   -1.2651 H   0  0  0  0  0  0  0  0  0  0  0  0
    1.1819   -2.6395    0.3579 H   0  0  0  0  0  0  0  0  0  0  0  0
    2.8400   -0.7396    1.0389 H   0  0  0  0  0  0  0  0  0  0  0  0
    1.8275    2.3343   -0.9138 H   0  0  0  0  0  0  0  0  0  0  0  0
   -0.4666    1.9985    0.1731 H   0  0  0  0  0  0  0  0  0  0  0  0
    0.4277    0.7161   -2.0184 H   0  0  0  0  0  0  0  0  0  0  0  0
  1  2  1  0
  2  3  1  0
  3  4  1  0
  4  5  2  0
  5  6  1  0
  6  7  1  0
  6  8  1  0
  8  9  1  0
  8  2  1  0
  9  3  1  0
  9  6  1  0
  1 10  1  0
  1 11  1  0
  1 12  1  0
  2 13  1  0
  3 14  1  0
  4 15  1  0
  5 16  1  0
  7 17  1  0
  8 18  1  0
  9 19  1  0
M  END
