
     RDKit          3D

 19 20  0  0  0  0  0  0  0  0999 V2000
   -2.2843    0.4369   -0.5628 C   0  0  0  0  0  0  0  0  0  0  0  0
   -1.2021   -0.5390   -0.2827 C   0  0  0  0  0  0  0  0  0  0  0  0
   -0.7047   -0.5406    1.1763 C   0  0  0  0  0  0  0  0  0  0  0  0
    0.1640   -0.1842    0.0557 C   0  0  0  0  0  0  0  0  0  0  0  0
    0.7487    1.1845   -0.1254 C   0  0  0  0  0  0  0  0  0  0  0  0
    2.0681    1.0430   -0.4913 O   0  0  0  0  0  0  0  0  0  0  0  0
    2.5159   -0.1839   -0.0372 C   0  0  0  0  0  0  0  0  0  0  0  0
    1.3174   -1.0650   -0.2935 C   0  0  0  0  0  0  0  0  0  0  0  0
    1.3048   -2.2167   -0.6900 O   0  0  0  0  0  0  0  0  0  0  0  0
   -3.0932   -0.0263   -1.1938 H   0  0  0  0  0  0  0  0  0  0  0  0
   -1.9571    1.3610   -1.0675 H   0  0  0  0  0  0  0  0  0  0  0  0
   -2.8107    0.7786    0.3729 H   0  0  0  0  0  0  0  0  0  0  0  0
   -1.3543   -1.5688   -0.7184 H   0  0  0  0  0  0  0  0  0  0  0  0
   -0.6221   -1.5467    1.6726 H   0  0  0  0  0  0  0  0  0  0  0  0
   -1.1409    0.2190    1.8614 H   0  0  0  0  0  0  0  0  0  0  0  0
    0.2077    1.8118   -0.8546 H   0  0  0  0  0  0  0  0  0  0  0  0
    0.7162    1.6974    0.8573 H   0  0  0  0  0  0  0  0  0  0  0  0
    3.3425   -0.4976   -0.7036 H   0  0  0  0  0  0  0  0  0  0  0  0
    2.7839   -0.1634    1.0248 H   0  0  0  0  0  0  0  0  0  0  0  0
  1  2  1  0
  2  3  1  0
  3  4  1  0
  4  5  1  0
  5  6  1  0
  6  7  1  0
  7  8  1  0
  8  9  2  0
  4  2  1  0
  8  4  1  0
  1 10  1  0
  1 11  1  0
  1 12  1  0
  2 13  1  0
  3 14  1  0
  3 15  1  0
  5 16  1  0
  5 17  1  0
  7 18  1  0
  7 19  1  0
M  END
