
     RDKit          3D

 23 24  0  0  0  0  0  0  0  0999 V2000
    0.6712    2.4449   -0.4768 C   0  0  0  0  0  0  0  0  0  0  0  0
    0.3298    1.0005   -0.6447 C   0  0  0  0  0  0  0  0  0  0  0  0
    1.1209    0.0192    0.1702 C   0  0  0  0  0  0  0  0  0  0  0  0
    2.2660   -0.6516   -0.5271 C   0  0  0  0  0  0  0  0  0  0  0  0
   -0.0771   -0.7890    0.4700 C   0  0  0  0  0  0  0  0  0  0  0  0
   -0.1833   -1.2115    1.8034 O   0  0  0  0  0  0  0  0  0  0  0  0
   -1.3164   -0.8317   -0.3109 C   0  0  0  0  0  0  0  0  0  0  0  0
   -2.5694   -1.3453    0.3660 C   0  0  0  0  0  0  0  0  0  0  0  0
   -0.8740    0.5118    0.1180 C   0  0  0  0  0  0  0  0  0  0  0  0
   -0.1814    3.0485   -0.8636 H   0  0  0  0  0  0  0  0  0  0  0  0
    0.9723    2.7354    0.5360 H   0  0  0  0  0  0  0  0  0  0  0  0
    1.5268    2.6662   -1.1487 H   0  0  0  0  0  0  0  0  0  0  0  0
    0.2495    0.7423   -1.7208 H   0  0  0  0  0  0  0  0  0  0  0  0
    1.5165    0.5488    1.0848 H   0  0  0  0  0  0  0  0  0  0  0  0
    2.0284   -1.0769   -1.4985 H   0  0  0  0  0  0  0  0  0  0  0  0
    3.1018    0.1046   -0.5750 H   0  0  0  0  0  0  0  0  0  0  0  0
    2.6472   -1.4551    0.1340 H   0  0  0  0  0  0  0  0  0  0  0  0
    0.0619   -2.1861    1.7914 H   0  0  0  0  0  0  0  0  0  0  0  0
   -1.3243   -0.9819   -1.4187 H   0  0  0  0  0  0  0  0  0  0  0  0
   -3.3246   -1.6933   -0.3529 H   0  0  0  0  0  0  0  0  0  0  0  0
   -3.0674   -0.5262    0.9580 H   0  0  0  0  0  0  0  0  0  0  0  0
   -2.3060   -2.1190    1.1319 H   0  0  0  0  0  0  0  0  0  0  0  0
   -1.2685    1.0454    0.9741 H   0  0  0  0  0  0  0  0  0  0  0  0
  1  2  1  0
  2  3  1  0
  3  4  1  0
  3  5  1  0
  5  6  1  0
  5  7  1  0
  7  8  1  0
  7  9  1  0
  9  2  1  0
  9  5  1  0
  1 10  1  0
  1 11  1  0
  1 12  1  0
  2 13  1  0
  3 14  1  0
  4 15  1  0
  4 16  1  0
  4 17  1  0
  6 18  1  0
  7 19  1  0
  8 20  1  0
  8 21  1  0
  8 22  1  0
  9 23  1  0
M  END
