
     RDKit          3D

 19 20  0  0  0  0  0  0  0  0999 V2000
   -1.0252    1.9562   -0.1529 C   0  0  0  0  0  0  0  0  0  0  0  0
   -0.1249    0.8462   -0.5527 C   0  0  0  0  0  0  0  0  0  0  0  0
    0.4286    0.0228    0.5836 C   0  0  0  0  0  0  0  0  0  0  0  0
    1.3735   -1.0943    0.2353 C   0  0  0  0  0  0  0  0  0  0  0  0
    2.6801   -0.5513   -0.1948 C   0  0  0  0  0  0  0  0  0  0  0  0
    3.4660   -0.1979    0.6543 O   0  0  0  0  0  0  0  0  0  0  0  0
    0.5250   -1.4787   -0.7935 O   0  0  0  0  0  0  0  0  0  0  0  0
   -0.4938   -0.5724   -0.4833 C   0  0  0  0  0  0  0  0  0  0  0  0
   -1.7935   -1.0681    0.0418 C   0  0  0  0  0  0  0  0  0  0  0  0
   -2.0958    1.7304   -0.1619 H   0  0  0  0  0  0  0  0  0  0  0  0
   -0.7515    2.3017    0.8871 H   0  0  0  0  0  0  0  0  0  0  0  0
   -0.8628    2.8739   -0.7905 H   0  0  0  0  0  0  0  0  0  0  0  0
    0.6393    1.1134   -1.3215 H   0  0  0  0  0  0  0  0  0  0  0  0
    0.0435    0.1424    1.6009 H   0  0  0  0  0  0  0  0  0  0  0  0
    1.4393   -1.8051    1.0851 H   0  0  0  0  0  0  0  0  0  0  0  0
    2.9582   -0.4586   -1.2280 H   0  0  0  0  0  0  0  0  0  0  0  0
   -1.5993   -2.0803    0.5053 H   0  0  0  0  0  0  0  0  0  0  0  0
   -2.5553   -1.2490   -0.7351 H   0  0  0  0  0  0  0  0  0  0  0  0
   -2.2514   -0.4313    0.8210 H   0  0  0  0  0  0  0  0  0  0  0  0
  1  2  1  0
  2  3  1  0
  3  4  1  0
  4  5  1  0
  5  6  2  0
  4  7  1  0
  7  8  1  0
  8  9  1  0
  8  2  1  0
  8  3  1  0
  1 10  1  0
  1 11  1  0
  1 12  1  0
  2 13  1  0
  3 14  1  0
  4 15  1  0
  5 16  1  0
  9 17  1  0
  9 18  1  0
  9 19  1  0
M  END
