
     RDKit          3D

 23 25  0  0  0  0  0  0  0  0999 V2000
    1.4791    1.1465   -1.4648 C   0  0  0  0  0  0  0  0  0  0  0  0
    1.2236   -0.0470   -0.6140 C   0  0  0  0  0  0  0  0  0  0  0  0
   -0.1612   -0.6912   -0.8051 C   0  0  0  0  0  0  0  0  0  0  0  0
   -0.0296   -1.8656    0.1308 C   0  0  0  0  0  0  0  0  0  0  0  0
    0.5955   -1.1405    1.3427 C   0  0  0  0  0  0  0  0  0  0  0  0
    0.6479    0.2629    0.7781 C   0  0  0  0  0  0  0  0  0  0  0  0
   -0.6572    0.3653    0.1008 C   0  0  0  0  0  0  0  0  0  0  0  0
   -1.8891    0.3065    0.8799 C   0  0  0  0  0  0  0  0  0  0  0  0
   -1.5244    1.4416   -0.0960 C   0  0  0  0  0  0  0  0  0  0  0  0
    1.6001    2.0801   -0.8811 H   0  0  0  0  0  0  0  0  0  0  0  0
    2.4408    0.9589   -2.0262 H   0  0  0  0  0  0  0  0  0  0  0  0
    0.7090    1.2506   -2.2665 H   0  0  0  0  0  0  0  0  0  0  0  0
    2.0157   -0.8114   -0.5609 H   0  0  0  0  0  0  0  0  0  0  0  0
   -0.5123   -0.8219   -1.7908 H   0  0  0  0  0  0  0  0  0  0  0  0
   -1.0553   -2.1764    0.4174 H   0  0  0  0  0  0  0  0  0  0  0  0
    0.6073   -2.6623   -0.2376 H   0  0  0  0  0  0  0  0  0  0  0  0
   -0.1262   -1.1114    2.1877 H   0  0  0  0  0  0  0  0  0  0  0  0
    1.5705   -1.5510    1.5901 H   0  0  0  0  0  0  0  0  0  0  0  0
    1.0838    1.0441    1.3321 H   0  0  0  0  0  0  0  0  0  0  0  0
   -1.7972    0.5237    1.9695 H   0  0  0  0  0  0  0  0  0  0  0  0
   -2.6472   -0.4262    0.5496 H   0  0  0  0  0  0  0  0  0  0  0  0
   -2.2034    1.5055   -0.9549 H   0  0  0  0  0  0  0  0  0  0  0  0
   -1.3703    2.4192    0.4191 H   0  0  0  0  0  0  0  0  0  0  0  0
  1  2  1  0
  2  3  1  0
  3  4  1  0
  4  5  1  0
  5  6  1  0
  6  7  1  0
  7  8  1  0
  8  9  1  0
  6  2  1  0
  9  7  1  0
  7  3  1  0
  1 10  1  0
  1 11  1  0
  1 12  1  0
  2 13  1  0
  3 14  1  0
  4 15  1  0
  4 16  1  0
  5 17  1  0
  5 18  1  0
  6 19  1  0
  8 20  1  0
  8 21  1  0
  9 22  1  0
  9 23  1  0
M  END
