
     RDKit          3D

 25 25  0  0  0  0  0  0  0  0999 V2000
   -2.0141   -1.1962   -0.0882 C   0  0  0  0  0  0  0  0  0  0  0  0
   -0.7376   -0.7817    0.5663 C   0  0  0  0  0  0  0  0  0  0  0  0
    0.4021   -1.3187   -0.2937 C   0  0  0  0  0  0  0  0  0  0  0  0
    1.3422   -0.1882   -0.5331 C   0  0  0  0  0  0  0  0  0  0  0  0
    2.6864   -0.3978    0.1684 C   0  0  0  0  0  0  0  0  0  0  0  0
    0.7234    1.0667   -0.0106 C   0  0  0  0  0  0  0  0  0  0  0  0
    0.4190    1.8866   -1.1048 O   0  0  0  0  0  0  0  0  0  0  0  0
   -0.5286    0.6619    0.7492 C   0  0  0  0  0  0  0  0  0  0  0  0
   -1.6310    1.5615    0.3519 C   0  0  0  0  0  0  0  0  0  0  0  0
   -2.0331   -0.9486   -1.1887 H   0  0  0  0  0  0  0  0  0  0  0  0
   -2.0061   -2.3282   -0.0780 H   0  0  0  0  0  0  0  0  0  0  0  0
   -2.9252   -0.9055    0.4336 H   0  0  0  0  0  0  0  0  0  0  0  0
   -0.6798   -1.3529    1.5400 H   0  0  0  0  0  0  0  0  0  0  0  0
    0.9416   -2.1422    0.1866 H   0  0  0  0  0  0  0  0  0  0  0  0
    0.0360   -1.6989   -1.2717 H   0  0  0  0  0  0  0  0  0  0  0  0
    1.6060   -0.0912   -1.6266 H   0  0  0  0  0  0  0  0  0  0  0  0
    2.5081   -0.4257    1.2475 H   0  0  0  0  0  0  0  0  0  0  0  0
    3.1802   -1.3085   -0.2348 H   0  0  0  0  0  0  0  0  0  0  0  0
    3.3339    0.4573   -0.1363 H   0  0  0  0  0  0  0  0  0  0  0  0
    1.4351    1.6346    0.6192 H   0  0  0  0  0  0  0  0  0  0  0  0
    0.0560    1.3582   -1.8683 H   0  0  0  0  0  0  0  0  0  0  0  0
   -0.2906    0.8479    1.8383 H   0  0  0  0  0  0  0  0  0  0  0  0
   -1.8013    2.3638    1.1296 H   0  0  0  0  0  0  0  0  0  0  0  0
   -1.4159    2.1510   -0.5868 H   0  0  0  0  0  0  0  0  0  0  0  0
   -2.6070    1.0949    0.1912 H   0  0  0  0  0  0  0  0  0  0  0  0
  1  2  1  0
  2  3  1  0
  3  4  1  0
  4  5  1  0
  4  6  1  0
  6  7  1  0
  6  8  1  0
  8  9  1  0
  8  2  1  0
  1 10  1  0
  1 11  1  0
  1 12  1  0
  2 13  1  0
  3 14  1  0
  3 15  1  0
  4 16  1  0
  5 17  1  0
  5 18  1  0
  5 19  1  0
  6 20  1  0
  7 21  1  0
  8 22  1  0
  9 23  1  0
  9 24  1  0
  9 25  1  0
M  END
