
     RDKit          3D

 23 23  0  0  0  0  0  0  0  0999 V2000
    2.7066    0.0341    0.7819 C   0  0  0  0  0  0  0  0  0  0  0  0
    1.6075    0.0969   -0.2384 C   0  0  0  0  0  0  0  0  0  0  0  0
    0.4126    0.8425    0.3301 C   0  0  0  0  0  0  0  0  0  0  0  0
   -0.7451    0.0785   -0.2812 C   0  0  0  0  0  0  0  0  0  0  0  0
   -1.6867    1.0697   -0.9152 C   0  0  0  0  0  0  0  0  0  0  0  0
   -1.4761   -0.7084    0.7752 C   0  0  0  0  0  0  0  0  0  0  0  0
   -2.5341   -1.4096    0.2316 O   0  0  0  0  0  0  0  0  0  0  0  0
   -0.0493   -0.7917   -1.2827 C   0  0  0  0  0  0  0  0  0  0  0  0
    1.0966   -1.1593   -0.5582 O   0  0  0  0  0  0  0  0  0  0  0  0
    3.6631    0.3211    0.2953 H   0  0  0  0  0  0  0  0  0  0  0  0
    2.7540   -0.9430    1.2929 H   0  0  0  0  0  0  0  0  0  0  0  0
    2.5138    0.8076    1.5538 H   0  0  0  0  0  0  0  0  0  0  0  0
    1.9337    0.5524   -1.1996 H   0  0  0  0  0  0  0  0  0  0  0  0
    0.4025    0.8406    1.4268 H   0  0  0  0  0  0  0  0  0  0  0  0
    0.4636    1.8810   -0.1038 H   0  0  0  0  0  0  0  0  0  0  0  0
   -2.1539    1.6421   -0.0695 H   0  0  0  0  0  0  0  0  0  0  0  0
   -2.5074    0.5688   -1.4489 H   0  0  0  0  0  0  0  0  0  0  0  0
   -1.1392    1.7568   -1.5854 H   0  0  0  0  0  0  0  0  0  0  0  0
   -0.7232   -1.3654    1.2763 H   0  0  0  0  0  0  0  0  0  0  0  0
   -1.8758   -0.0131    1.5327 H   0  0  0  0  0  0  0  0  0  0  0  0
   -2.2901   -2.2936   -0.1036 H   0  0  0  0  0  0  0  0  0  0  0  0
   -0.6321   -1.6694   -1.6035 H   0  0  0  0  0  0  0  0  0  0  0  0
    0.2590   -0.1387   -2.1385 H   0  0  0  0  0  0  0  0  0  0  0  0
  1  2  1  0
  2  3  1  0
  3  4  1  0
  4  5  1  0
  4  6  1  0
  6  7  1  0
  4  8  1  0
  8  9  1  0
  9  2  1  0
  1 10  1  0
  1 11  1  0
  1 12  1  0
  2 13  1  0
  3 14  1  0
  3 15  1  0
  5 16  1  0
  5 17  1  0
  5 18  1  0
  6 19  1  0
  6 20  1  0
  7 21  1  0
  8 22  1  0
  8 23  1  0
M  END
