
     RDKit          3D

 23 24  0  0  0  0  0  0  0  0999 V2000
    2.7585   -0.0285    0.3388 C   0  0  0  0  0  0  0  0  0  0  0  0
    1.2210   -0.0939    0.3650 C   0  0  0  0  0  0  0  0  0  0  0  0
    0.7498    1.2852    0.1244 C   0  0  0  0  0  0  0  0  0  0  0  0
   -0.6985    1.3964   -0.3278 C   0  0  0  0  0  0  0  0  0  0  0  0
   -1.4495    0.3031    0.3021 C   0  0  0  0  0  0  0  0  0  0  0  0
   -2.6354   -0.3845   -0.1536 C   0  0  0  0  0  0  0  0  0  0  0  0
   -1.4096   -0.8268   -0.7551 C   0  0  0  0  0  0  0  0  0  0  0  0
   -0.3501   -1.7105   -0.2281 C   0  0  0  0  0  0  0  0  0  0  0  0
    0.8646   -1.0771   -0.4691 O   0  0  0  0  0  0  0  0  0  0  0  0
    3.0055    0.4754   -0.6227 H   0  0  0  0  0  0  0  0  0  0  0  0
    3.0930    0.5946    1.1682 H   0  0  0  0  0  0  0  0  0  0  0  0
    3.1810   -1.0575    0.3583 H   0  0  0  0  0  0  0  0  0  0  0  0
    0.9884   -0.4131    1.4213 H   0  0  0  0  0  0  0  0  0  0  0  0
    0.7741    1.8297    1.1163 H   0  0  0  0  0  0  0  0  0  0  0  0
    1.3992    1.8951   -0.5402 H   0  0  0  0  0  0  0  0  0  0  0  0
   -0.6670    1.3710   -1.4433 H   0  0  0  0  0  0  0  0  0  0  0  0
   -1.0618    2.4023   -0.0579 H   0  0  0  0  0  0  0  0  0  0  0  0
   -1.1430    0.0782    1.3421 H   0  0  0  0  0  0  0  0  0  0  0  0
   -3.3495    0.2029   -0.7665 H   0  0  0  0  0  0  0  0  0  0  0  0
   -3.1627   -1.0655    0.5309 H   0  0  0  0  0  0  0  0  0  0  0  0
   -1.2571   -0.5479   -1.8180 H   0  0  0  0  0  0  0  0  0  0  0  0
   -0.3678   -2.6784   -0.7514 H   0  0  0  0  0  0  0  0  0  0  0  0
   -0.4829   -1.9502    0.8664 H   0  0  0  0  0  0  0  0  0  0  0  0
  1  2  1  0
  2  3  1  0
  3  4  1  0
  4  5  1  0
  5  6  1  0
  6  7  1  0
  7  8  1  0
  8  9  1  0
  9  2  1  0
  7  5  1  0
  1 10  1  0
  1 11  1  0
  1 12  1  0
  2 13  1  0
  3 14  1  0
  3 15  1  0
  4 16  1  0
  4 17  1  0
  5 18  1  0
  6 19  1  0
  6 20  1  0
  7 21  1  0
  8 22  1  0
  8 23  1  0
M  END
