
     RDKit          3D

 23 24  0  0  0  0  0  0  0  0999 V2000
    2.7267   -0.3850    0.0995 C   0  0  0  0  0  0  0  0  0  0  0  0
    1.3215   -0.1270   -0.3571 C   0  0  0  0  0  0  0  0  0  0  0  0
    0.8161    1.2396    0.0977 C   0  0  0  0  0  0  0  0  0  0  0  0
   -0.6431    1.1188   -0.3450 C   0  0  0  0  0  0  0  0  0  0  0  0
   -1.4636    1.9917    0.3250 O   0  0  0  0  0  0  0  0  0  0  0  0
   -0.9777   -0.2833    0.0407 C   0  0  0  0  0  0  0  0  0  0  0  0
   -2.2413   -0.6228    0.6722 C   0  0  0  0  0  0  0  0  0  0  0  0
   -2.0111   -1.0680   -0.7241 C   0  0  0  0  0  0  0  0  0  0  0  0
    0.3059   -1.0225    0.2901 C   0  0  0  0  0  0  0  0  0  0  0  0
    3.3726    0.3661   -0.4109 H   0  0  0  0  0  0  0  0  0  0  0  0
    3.0322   -1.3663   -0.2570 H   0  0  0  0  0  0  0  0  0  0  0  0
    2.8622   -0.2853    1.1902 H   0  0  0  0  0  0  0  0  0  0  0  0
    1.2810   -0.1895   -1.4455 H   0  0  0  0  0  0  0  0  0  0  0  0
    0.7962    1.2734    1.2047 H   0  0  0  0  0  0  0  0  0  0  0  0
    1.3363    2.0643   -0.3780 H   0  0  0  0  0  0  0  0  0  0  0  0
   -0.7333    1.2931   -1.4410 H   0  0  0  0  0  0  0  0  0  0  0  0
   -1.0677    2.8959    0.3293 H   0  0  0  0  0  0  0  0  0  0  0  0
   -2.2751   -1.3594    1.4747 H   0  0  0  0  0  0  0  0  0  0  0  0
   -2.9698    0.2222    0.8199 H   0  0  0  0  0  0  0  0  0  0  0  0
   -1.8854   -2.1592   -0.8645 H   0  0  0  0  0  0  0  0  0  0  0  0
   -2.4317   -0.5269   -1.5899 H   0  0  0  0  0  0  0  0  0  0  0  0
    0.3037   -2.0366   -0.1231 H   0  0  0  0  0  0  0  0  0  0  0  0
    0.5453   -1.0330    1.3920 H   0  0  0  0  0  0  0  0  0  0  0  0
  1  2  1  0
  2  3  1  0
  3  4  1  0
  4  5  1  0
  4  6  1  0
  6  7  1  0
  7  8  1  0
  6  9  1  0
  9  2  1  0
  8  6  1  0
  1 10  1  0
  1 11  1  0
  1 12  1  0
  2 13  1  0
  3 14  1  0
  3 15  1  0
  4 16  1  0
  5 17  1  0
  7 18  1  0
  7 19  1  0
  8 20  1  0
  8 21  1  0
  9 22  1  0
  9 23  1  0
M  END
