
     RDKit          3D

 18 18  0  0  0  0  0  0  0  0999 V2000
    2.0891   -0.1364    0.4414 C   0  0  0  0  0  0  0  0  0  0  0  0
    0.8125   -0.0356   -0.3135 C   0  0  0  0  0  0  0  0  0  0  0  0
    0.1618    1.2888   -0.2306 C   0  0  0  0  0  0  0  0  0  0  0  0
    0.7076    2.2726    0.2004 O   0  0  0  0  0  0  0  0  0  0  0  0
   -1.1991    1.0866   -0.7676 C   0  0  0  0  0  0  0  0  0  0  0  0
   -1.5422   -0.3153   -0.3494 C   0  0  0  0  0  0  0  0  0  0  0  0
   -0.2789   -0.9316    0.2162 C   0  0  0  0  0  0  0  0  0  0  0  0
   -0.3102   -0.9289    1.6298 O   0  0  0  0  0  0  0  0  0  0  0  0
    2.7346    0.7226    0.1461 H   0  0  0  0  0  0  0  0  0  0  0  0
    1.9766   -0.1068    1.5289 H   0  0  0  0  0  0  0  0  0  0  0  0
    2.6260   -1.0481    0.1280 H   0  0  0  0  0  0  0  0  0  0  0  0
    0.9752   -0.2927   -1.3707 H   0  0  0  0  0  0  0  0  0  0  0  0
   -1.9382    1.8142   -0.3797 H   0  0  0  0  0  0  0  0  0  0  0  0
   -1.1649    1.0984   -1.8964 H   0  0  0  0  0  0  0  0  0  0  0  0
   -2.2930   -0.3329    0.4615 H   0  0  0  0  0  0  0  0  0  0  0  0
   -1.9438   -0.8986   -1.1934 H   0  0  0  0  0  0  0  0  0  0  0  0
   -0.2007   -1.9668   -0.1090 H   0  0  0  0  0  0  0  0  0  0  0  0
   -1.2125   -1.2896    1.8580 H   0  0  0  0  0  0  0  0  0  0  0  0
  1  2  1  0
  2  3  1  0
  3  4  2  0
  3  5  1  0
  5  6  1  0
  6  7  1  0
  7  8  1  0
  7  2  1  0
  1  9  1  0
  1 10  1  0
  1 11  1  0
  2 12  1  0
  5 13  1  0
  5 14  1  0
  6 15  1  0
  6 16  1  0
  7 17  1  0
  8 18  1  0
M  END
