
     RDKit          3D

 12 12  0  0  0  0  0  0  0  0999 V2000
    1.4876   -0.0888   -0.0647 C   0  0  0  0  0  0  0  0  0  0  0  0
    0.1420   -0.3667    0.6001 C   0  0  0  0  0  0  0  0  0  0  0  0
   -0.9454   -0.4009   -0.4365 C   0  0  0  0  0  0  0  0  0  0  0  0
   -1.2908    0.9528    0.1063 C   0  0  0  0  0  0  0  0  0  0  0  0
   -2.0306    1.9182   -0.2288 O   0  0  0  0  0  0  0  0  0  0  0  0
   -0.4391    0.7637    1.2064 O   0  0  0  0  0  0  0  0  0  0  0  0
    2.2602    0.1831    0.6714 H   0  0  0  0  0  0  0  0  0  0  0  0
    1.7614   -1.0200   -0.6045 H   0  0  0  0  0  0  0  0  0  0  0  0
    1.2679    0.7562   -0.7791 H   0  0  0  0  0  0  0  0  0  0  0  0
    0.1374   -1.2119    1.3022 H   0  0  0  0  0  0  0  0  0  0  0  0
   -1.7625   -1.1072   -0.2788 H   0  0  0  0  0  0  0  0  0  0  0  0
   -0.5883   -0.3783   -1.4940 H   0  0  0  0  0  0  0  0  0  0  0  0
  1  2  1  0
  2  3  1  0
  3  4  1  0
  4  5  2  0
  4  6  1  0
  6  2  1  0
  1  7  1  0
  1  8  1  0
  1  9  1  0
  2 10  1  0
  3 11  1  0
  3 12  1  0
M  END
