
     RDKit          3D

 21 22  0  0  0  0  0  0  0  0999 V2000
   -1.2469    1.6415    0.1647 C   0  0  0  0  0  0  0  0  0  0  0  0
   -0.2008    0.6084    0.4676 C   0  0  0  0  0  0  0  0  0  0  0  0
    1.1151    1.1137   -0.0825 C   0  0  0  0  0  0  0  0  0  0  0  0
    2.1010    0.0156   -0.3402 C   0  0  0  0  0  0  0  0  0  0  0  0
    1.8593   -1.1515    0.3084 O   0  0  0  0  0  0  0  0  0  0  0  0
    0.6108   -1.6752    0.2115 C   0  0  0  0  0  0  0  0  0  0  0  0
   -0.4727   -0.7265   -0.1586 C   0  0  0  0  0  0  0  0  0  0  0  0
   -1.8649   -1.2746   -0.1938 C   0  0  0  0  0  0  0  0  0  0  0  0
   -1.1856   -0.8435   -1.3227 O   0  0  0  0  0  0  0  0  0  0  0  0
   -2.2698    1.3083    0.4379 H   0  0  0  0  0  0  0  0  0  0  0  0
   -1.2075    2.0017   -0.8806 H   0  0  0  0  0  0  0  0  0  0  0  0
   -1.0372    2.5123    0.8516 H   0  0  0  0  0  0  0  0  0  0  0  0
   -0.1037    0.5173    1.5756 H   0  0  0  0  0  0  0  0  0  0  0  0
    1.5107    1.8914    0.6039 H   0  0  0  0  0  0  0  0  0  0  0  0
    0.8750    1.5764   -1.0748 H   0  0  0  0  0  0  0  0  0  0  0  0
    3.1029    0.3989    0.0153 H   0  0  0  0  0  0  0  0  0  0  0  0
    2.2581   -0.1931   -1.4254 H   0  0  0  0  0  0  0  0  0  0  0  0
    0.3490   -2.0961    1.2279 H   0  0  0  0  0  0  0  0  0  0  0  0
    0.5627   -2.5803   -0.4635 H   0  0  0  0  0  0  0  0  0  0  0  0
   -2.7187   -0.6672    0.1983 H   0  0  0  0  0  0  0  0  0  0  0  0
   -2.0367   -2.3774   -0.1204 H   0  0  0  0  0  0  0  0  0  0  0  0
  1  2  1  0
  2  3  1  0
  3  4  1  0
  4  5  1  0
  5  6  1  0
  6  7  1  0
  7  8  1  0
  8  9  1  0
  7  2  1  0
  9  7  1  0
  1 10  1  0
  1 11  1  0
  1 12  1  0
  2 13  1  0
  3 14  1  0
  3 15  1  0
  4 16  1  0
  4 17  1  0
  6 18  1  0
  6 19  1  0
  8 20  1  0
  8 21  1  0
M  END
