
     RDKit          3D

 21 21  0  0  0  0  0  0  0  0999 V2000
   -2.3196   -1.0323   -0.2916 C   0  0  0  0  0  0  0  0  0  0  0  0
   -1.3830   -0.0011    0.3495 C   0  0  0  0  0  0  0  0  0  0  0  0
    0.0039   -0.5595    0.4866 C   0  0  0  0  0  0  0  0  0  0  0  0
    0.9653    0.2088   -0.3694 C   0  0  0  0  0  0  0  0  0  0  0  0
    2.3900   -0.1374    0.0708 C   0  0  0  0  0  0  0  0  0  0  0  0
    2.6233   -1.4774   -0.1397 O   0  0  0  0  0  0  0  0  0  0  0  0
    0.7862    1.5476   -0.1396 O   0  0  0  0  0  0  0  0  0  0  0  0
   -0.4711    2.0256   -0.3294 C   0  0  0  0  0  0  0  0  0  0  0  0
   -1.4787    1.1310   -0.3953 O   0  0  0  0  0  0  0  0  0  0  0  0
   -3.3421   -0.7761    0.0769 H   0  0  0  0  0  0  0  0  0  0  0  0
   -2.0140   -2.0557   -0.0825 H   0  0  0  0  0  0  0  0  0  0  0  0
   -2.3328   -0.8325   -1.3989 H   0  0  0  0  0  0  0  0  0  0  0  0
   -1.7605    0.1806    1.3923 H   0  0  0  0  0  0  0  0  0  0  0  0
    0.3852   -0.5526    1.5283 H   0  0  0  0  0  0  0  0  0  0  0  0
    0.0482   -1.6410    0.1662 H   0  0  0  0  0  0  0  0  0  0  0  0
    0.8277   -0.0891   -1.4345 H   0  0  0  0  0  0  0  0  0  0  0  0
    3.0911    0.4763   -0.5432 H   0  0  0  0  0  0  0  0  0  0  0  0
    2.4994    0.1489    1.1288 H   0  0  0  0  0  0  0  0  0  0  0  0
    2.6442   -1.9588    0.7313 H   0  0  0  0  0  0  0  0  0  0  0  0
   -0.4693    2.6244   -1.2871 H   0  0  0  0  0  0  0  0  0  0  0  0
   -0.6933    2.7705    0.4806 H   0  0  0  0  0  0  0  0  0  0  0  0
  1  2  1  0
  2  3  1  0
  3  4  1  0
  4  5  1  0
  5  6  1  0
  4  7  1  0
  7  8  1  0
  8  9  1  0
  9  2  1  0
  1 10  1  0
  1 11  1  0
  1 12  1  0
  2 13  1  0
  3 14  1  0
  3 15  1  0
  4 16  1  0
  5 17  1  0
  5 18  1  0
  6 19  1  0
  8 20  1  0
  8 21  1  0
M  END
