
     RDKit          3D

 21 22  0  0  0  0  0  0  0  0999 V2000
   -2.4892   -0.5709    0.1882 C   0  0  0  0  0  0  0  0  0  0  0  0
   -1.0242   -0.2387    0.3053 C   0  0  0  0  0  0  0  0  0  0  0  0
   -0.1586   -0.7195   -0.8602 C   0  0  0  0  0  0  0  0  0  0  0  0
    1.1806   -1.2287   -0.4449 C   0  0  0  0  0  0  0  0  0  0  0  0
    1.9031   -0.3376    0.5188 C   0  0  0  0  0  0  0  0  0  0  0  0
    1.8246    1.0943    0.2093 C   0  0  0  0  0  0  0  0  0  0  0  0
    0.7194    1.5645   -0.3450 C   0  0  0  0  0  0  0  0  0  0  0  0
   -0.4119    0.7091   -0.6543 C   0  0  0  0  0  0  0  0  0  0  0  0
   -1.3417    1.2642   -1.5677 O   0  0  0  0  0  0  0  0  0  0  0  0
   -2.8184   -0.2511   -0.8158 H   0  0  0  0  0  0  0  0  0  0  0  0
   -2.6297   -1.6764    0.2287 H   0  0  0  0  0  0  0  0  0  0  0  0
   -3.0533   -0.0492    0.9898 H   0  0  0  0  0  0  0  0  0  0  0  0
   -0.5834   -0.2636    1.3338 H   0  0  0  0  0  0  0  0  0  0  0  0
   -0.6457   -1.2629   -1.6923 H   0  0  0  0  0  0  0  0  0  0  0  0
    1.8261   -1.3491   -1.3394 H   0  0  0  0  0  0  0  0  0  0  0  0
    1.0848   -2.2354    0.0131 H   0  0  0  0  0  0  0  0  0  0  0  0
    1.4915   -0.4937    1.5583 H   0  0  0  0  0  0  0  0  0  0  0  0
    2.9761   -0.6106    0.5892 H   0  0  0  0  0  0  0  0  0  0  0  0
    2.6754    1.7677    0.4361 H   0  0  0  0  0  0  0  0  0  0  0  0
    0.6888    2.6380   -0.5650 H   0  0  0  0  0  0  0  0  0  0  0  0
   -1.2143    2.2496   -1.6276 H   0  0  0  0  0  0  0  0  0  0  0  0
  1  2  1  0
  2  3  1  0
  3  4  1  0
  4  5  1  0
  5  6  1  0
  6  7  2  0
  7  8  1  0
  8  9  1  0
  8  2  1  0
  8  3  1  0
  1 10  1  0
  1 11  1  0
  1 12  1  0
  2 13  1  0
  3 14  1  0
  4 15  1  0
  4 16  1  0
  5 17  1  0
  5 18  1  0
  6 19  1  0
  7 20  1  0
  9 21  1  0
M  END
