
     RDKit          3D

 19 20  0  0  0  0  0  0  0  0999 V2000
    2.2673    0.4295   -1.0183 C   0  0  0  0  0  0  0  0  0  0  0  0
    1.1759   -0.4173   -0.3168 C   0  0  0  0  0  0  0  0  0  0  0  0
    1.1138   -0.4481    1.1623 C   0  0  0  0  0  0  0  0  0  0  0  0
    0.1506    0.3885    0.3291 C   0  0  0  0  0  0  0  0  0  0  0  0
   -1.3247    0.0573    0.5064 C   0  0  0  0  0  0  0  0  0  0  0  0
   -2.2400    1.2334    0.1593 C   0  0  0  0  0  0  0  0  0  0  0  0
   -3.0606    1.6736    0.8398 O   0  0  0  0  0  0  0  0  0  0  0  0
   -1.7898   -1.2138   -0.2127 C   0  0  0  0  0  0  0  0  0  0  0  0
   -1.7778   -1.0419    1.1738 O   0  0  0  0  0  0  0  0  0  0  0  0
    2.8008   -0.1500   -1.7450 H   0  0  0  0  0  0  0  0  0  0  0  0
    1.6710    1.2613   -1.5073 H   0  0  0  0  0  0  0  0  0  0  0  0
    2.9134    0.8944   -0.2495 H   0  0  0  0  0  0  0  0  0  0  0  0
    0.9596   -1.3626   -0.8423 H   0  0  0  0  0  0  0  0  0  0  0  0
    1.9439    0.0229    1.7045 H   0  0  0  0  0  0  0  0  0  0  0  0
    0.6928   -1.3287    1.6664 H   0  0  0  0  0  0  0  0  0  0  0  0
    0.3737    1.4842    0.5320 H   0  0  0  0  0  0  0  0  0  0  0  0
   -2.0227    1.6108   -0.8296 H   0  0  0  0  0  0  0  0  0  0  0  0
   -1.0595   -1.8721   -0.6933 H   0  0  0  0  0  0  0  0  0  0  0  0
   -2.7877   -1.2215   -0.6588 H   0  0  0  0  0  0  0  0  0  0  0  0
  1  2  1  0
  2  3  1  0
  3  4  1  0
  4  5  1  0
  5  6  1  0
  6  7  2  0
  5  8  1  0
  8  9  1  0
  4  2  1  0
  9  5  1  0
  1 10  1  0
  1 11  1  0
  1 12  1  0
  2 13  1  0
  3 14  1  0
  3 15  1  0
  4 16  1  0
  6 17  1  0
  8 18  1  0
  8 19  1  0
M  END
