
     RDKit          3D

 18 19  0  0  0  0  0  0  0  0999 V2000
   -1.9410   -0.5484   -0.0063 C   0  0  0  0  0  0  0  0  0  0  0  0
   -0.4444   -0.6316    0.1274 C   0  0  0  0  0  0  0  0  0  0  0  0
    0.0402    0.5667    0.9599 C   0  0  0  0  0  0  0  0  0  0  0  0
    0.0008    1.3516   -0.3594 C   0  0  0  0  0  0  0  0  0  0  0  0
    0.3303    0.0120   -1.0215 C   0  0  0  0  0  0  0  0  0  0  0  0
    1.6743   -0.2282   -0.8402 O   0  0  0  0  0  0  0  0  0  0  0  0
    2.0163   -0.4501    0.4716 C   0  0  0  0  0  0  0  0  0  0  0  0
    1.3270    0.3508    1.3756 O   0  0  0  0  0  0  0  0  0  0  0  0
   -2.3810   -1.3796    0.5872 H   0  0  0  0  0  0  0  0  0  0  0  0
   -2.3025   -0.6339   -1.0409 H   0  0  0  0  0  0  0  0  0  0  0  0
   -2.3681    0.3833    0.4086 H   0  0  0  0  0  0  0  0  0  0  0  0
   -0.0384   -1.5998    0.4519 H   0  0  0  0  0  0  0  0  0  0  0  0
   -0.6989    0.8748    1.7000 H   0  0  0  0  0  0  0  0  0  0  0  0
    0.8034    2.0953   -0.4030 H   0  0  0  0  0  0  0  0  0  0  0  0
   -1.0219    1.6867   -0.5844 H   0  0  0  0  0  0  0  0  0  0  0  0
   -0.0784   -0.1375   -2.0125 H   0  0  0  0  0  0  0  0  0  0  0  0
    3.1051   -0.1774    0.5986 H   0  0  0  0  0  0  0  0  0  0  0  0
    1.9771   -1.5346    0.7612 H   0  0  0  0  0  0  0  0  0  0  0  0
  1  2  1  0
  2  3  1  0
  3  4  1  0
  4  5  1  0
  5  6  1  0
  6  7  1  0
  7  8  1  0
  5  2  1  0
  8  3  1  0
  1  9  1  0
  1 10  1  0
  1 11  1  0
  2 12  1  0
  3 13  1  0
  4 14  1  0
  4 15  1  0
  5 16  1  0
  7 17  1  0
  7 18  1  0
M  END
