
     RDKit          3D

 21 22  0  0  0  0  0  0  0  0999 V2000
   -2.7977   -0.2131   -0.2905 C   0  0  0  0  0  0  0  0  0  0  0  0
   -1.4163    0.3279   -0.0370 C   0  0  0  0  0  0  0  0  0  0  0  0
   -0.7291   -0.6227    0.8883 C   0  0  0  0  0  0  0  0  0  0  0  0
    0.5771   -0.8349    0.7979 C   0  0  0  0  0  0  0  0  0  0  0  0
    1.4681   -0.1712   -0.2009 C   0  0  0  0  0  0  0  0  0  0  0  0
    2.7900    0.1206    0.4779 C   0  0  0  0  0  0  0  0  0  0  0  0
    0.7417    1.0399   -0.6284 C   0  0  0  0  0  0  0  0  0  0  0  0
    0.1621    1.4043   -1.7542 O   0  0  0  0  0  0  0  0  0  0  0  0
   -0.5565    0.4328   -1.2257 C   0  0  0  0  0  0  0  0  0  0  0  0
   -3.2727   -0.3583    0.7188 H   0  0  0  0  0  0  0  0  0  0  0  0
   -2.8106   -1.1720   -0.8075 H   0  0  0  0  0  0  0  0  0  0  0  0
   -3.4396    0.5137   -0.8272 H   0  0  0  0  0  0  0  0  0  0  0  0
   -1.5117    1.3017    0.4596 H   0  0  0  0  0  0  0  0  0  0  0  0
   -1.3062   -1.1458    1.6434 H   0  0  0  0  0  0  0  0  0  0  0  0
    1.0402   -1.5313    1.4862 H   0  0  0  0  0  0  0  0  0  0  0  0
    1.5732   -0.8612   -1.0492 H   0  0  0  0  0  0  0  0  0  0  0  0
    3.4863   -0.6753    0.2174 H   0  0  0  0  0  0  0  0  0  0  0  0
    2.6455    0.1223    1.5778 H   0  0  0  0  0  0  0  0  0  0  0  0
    3.1911    1.0863    0.1224 H   0  0  0  0  0  0  0  0  0  0  0  0
    0.6246    1.7769    0.2027 H   0  0  0  0  0  0  0  0  0  0  0  0
   -0.4595   -0.5406   -1.7714 H   0  0  0  0  0  0  0  0  0  0  0  0
  1  2  1  0
  2  3  1  0
  3  4  2  0
  4  5  1  0
  5  6  1  0
  5  7  1  0
  7  8  1  0
  8  9  1  0
  9  2  1  0
  9  7  1  0
  1 10  1  0
  1 11  1  0
  1 12  1  0
  2 13  1  0
  3 14  1  0
  4 15  1  0
  5 16  1  0
  6 17  1  0
  6 18  1  0
  6 19  1  0
  7 20  1  0
  9 21  1  0
M  END
