
     RDKit          3D

 19 19  0  0  0  0  0  0  0  0999 V2000
    2.2067    0.0560   -0.2471 C   0  0  0  0  0  0  0  0  0  0  0  0
    0.7221    0.2074   -0.4133 C   0  0  0  0  0  0  0  0  0  0  0  0
    0.0161   -1.0561   -0.6437 C   0  0  0  0  0  0  0  0  0  0  0  0
    0.5611   -2.1028   -0.9451 O   0  0  0  0  0  0  0  0  0  0  0  0
   -1.4617   -1.0584   -0.4997 C   0  0  0  0  0  0  0  0  0  0  0  0
   -2.0217    0.2967   -0.2522 C   0  0  0  0  0  0  0  0  0  0  0  0
   -1.2979    1.2199    0.3650 C   0  0  0  0  0  0  0  0  0  0  0  0
    0.0835    0.8821    0.8070 C   0  0  0  0  0  0  0  0  0  0  0  0
   -0.0085    0.0126    1.8780 O   0  0  0  0  0  0  0  0  0  0  0  0
    2.5575   -0.7071   -0.9679 H   0  0  0  0  0  0  0  0  0  0  0  0
    2.4604   -0.1866    0.8041 H   0  0  0  0  0  0  0  0  0  0  0  0
    2.6607    1.0462   -0.4629 H   0  0  0  0  0  0  0  0  0  0  0  0
    0.5346    0.8761   -1.2823 H   0  0  0  0  0  0  0  0  0  0  0  0
   -1.6775   -1.7012    0.4035 H   0  0  0  0  0  0  0  0  0  0  0  0
   -1.9653   -1.5464   -1.3546 H   0  0  0  0  0  0  0  0  0  0  0  0
   -3.0356    0.4989   -0.5928 H   0  0  0  0  0  0  0  0  0  0  0  0
   -1.6733    2.2127    0.5606 H   0  0  0  0  0  0  0  0  0  0  0  0
    0.6841    1.7870    1.0255 H   0  0  0  0  0  0  0  0  0  0  0  0
    0.6548   -0.7369    1.8179 H   0  0  0  0  0  0  0  0  0  0  0  0
  1  2  1  0
  2  3  1  0
  3  4  2  0
  3  5  1  0
  5  6  1  0
  6  7  2  0
  7  8  1  0
  8  9  1  0
  8  2  1  0
  1 10  1  0
  1 11  1  0
  1 12  1  0
  2 13  1  0
  5 14  1  0
  5 15  1  0
  6 16  1  0
  7 17  1  0
  8 18  1  0
  9 19  1  0
M  END
