
     RDKit          3D

 20 20  0  0  0  0  0  0  0  0999 V2000
   -2.3434   -0.3873    0.2561 C   0  0  0  0  0  0  0  0  0  0  0  0
   -0.9736   -0.1665   -0.2484 C   0  0  0  0  0  0  0  0  0  0  0  0
   -0.6464    1.2525   -0.6085 C   0  0  0  0  0  0  0  0  0  0  0  0
    0.5504    1.2386   -1.3238 O   0  0  0  0  0  0  0  0  0  0  0  0
    1.6165    0.7585   -0.5994 C   0  0  0  0  0  0  0  0  0  0  0  0
    1.3678   -0.6767   -0.1196 C   0  0  0  0  0  0  0  0  0  0  0  0
    2.4444   -1.1436    0.5799 O   0  0  0  0  0  0  0  0  0  0  0  0
    0.1134   -0.6111    0.7363 C   0  0  0  0  0  0  0  0  0  0  0  0
   -2.9861   -0.8314   -0.5588 H   0  0  0  0  0  0  0  0  0  0  0  0
   -2.3537   -1.1418    1.0677 H   0  0  0  0  0  0  0  0  0  0  0  0
   -2.8740    0.5185    0.5837 H   0  0  0  0  0  0  0  0  0  0  0  0
   -0.8107   -0.7767   -1.1826 H   0  0  0  0  0  0  0  0  0  0  0  0
   -1.4001    1.7445   -1.2261 H   0  0  0  0  0  0  0  0  0  0  0  0
   -0.4537    1.8149    0.3511 H   0  0  0  0  0  0  0  0  0  0  0  0
    1.7457    1.4067    0.2843 H   0  0  0  0  0  0  0  0  0  0  0  0
    2.4890    0.7111   -1.2559 H   0  0  0  0  0  0  0  0  0  0  0  0
    1.1030   -1.2527   -1.0206 H   0  0  0  0  0  0  0  0  0  0  0  0
    3.2297   -1.1335   -0.0188 H   0  0  0  0  0  0  0  0  0  0  0  0
    0.3074    0.2199    1.4757 H   0  0  0  0  0  0  0  0  0  0  0  0
   -0.1257   -1.5440    1.2355 H   0  0  0  0  0  0  0  0  0  0  0  0
  1  2  1  0
  2  3  1  0
  3  4  1  0
  4  5  1  0
  5  6  1  0
  6  7  1  0
  6  8  1  0
  8  2  1  0
  1  9  1  0
  1 10  1  0
  1 11  1  0
  2 12  1  0
  3 13  1  0
  3 14  1  0
  5 15  1  0
  5 16  1  0
  6 17  1  0
  7 18  1  0
  8 19  1  0
  8 20  1  0
M  END
