
     RDKit          3D

 18 18  0  0  0  0  0  0  0  0999 V2000
   -1.4377   -0.0900    1.0068 C   0  0  0  0  0  0  0  0  0  0  0  0
   -0.9398   -0.1436   -0.4155 C   0  0  0  0  0  0  0  0  0  0  0  0
    0.0848   -1.2286   -0.6322 C   0  0  0  0  0  0  0  0  0  0  0  0
    1.2330   -1.1279    0.3005 C   0  0  0  0  0  0  0  0  0  0  0  0
    1.7353    0.0839    0.4782 C   0  0  0  0  0  0  0  0  0  0  0  0
    1.1315    1.2004   -0.2428 C   0  0  0  0  0  0  0  0  0  0  0  0
    1.8204    2.2193   -0.4593 O   0  0  0  0  0  0  0  0  0  0  0  0
   -0.2650    1.1839   -0.7327 C   0  0  0  0  0  0  0  0  0  0  0  0
   -2.0100    0.8751    1.1038 H   0  0  0  0  0  0  0  0  0  0  0  0
   -0.6342   -0.0359    1.7557 H   0  0  0  0  0  0  0  0  0  0  0  0
   -2.1653   -0.9046    1.2279 H   0  0  0  0  0  0  0  0  0  0  0  0
   -1.7897   -0.3435   -1.0750 H   0  0  0  0  0  0  0  0  0  0  0  0
    0.4954   -1.0826   -1.6564 H   0  0  0  0  0  0  0  0  0  0  0  0
   -0.3682   -2.2387   -0.6281 H   0  0  0  0  0  0  0  0  0  0  0  0
    1.6691   -1.9650    0.8273 H   0  0  0  0  0  0  0  0  0  0  0  0
    2.5777    0.2153    1.1511 H   0  0  0  0  0  0  0  0  0  0  0  0
   -0.7886    2.0261   -0.1927 H   0  0  0  0  0  0  0  0  0  0  0  0
   -0.3486    1.3562   -1.8164 H   0  0  0  0  0  0  0  0  0  0  0  0
  1  2  1  0
  2  3  1  0
  3  4  1  0
  4  5  2  0
  5  6  1  0
  6  7  2  0
  6  8  1  0
  8  2  1  0
  1  9  1  0
  1 10  1  0
  1 11  1  0
  2 12  1  0
  3 13  1  0
  3 14  1  0
  4 15  1  0
  5 16  1  0
  8 17  1  0
  8 18  1  0
M  END
