
     RDKit          3D

 23 23  0  0  0  0  0  0  0  0999 V2000
   -1.6342   -1.4562   -0.5545 C   0  0  0  0  0  0  0  0  0  0  0  0
   -1.1743   -0.2680    0.2472 C   0  0  0  0  0  0  0  0  0  0  0  0
   -2.0376    0.9360    0.0759 C   0  0  0  0  0  0  0  0  0  0  0  0
   -1.0483    1.9832   -0.4262 C   0  0  0  0  0  0  0  0  0  0  0  0
    0.1679    1.5267    0.0841 O   0  0  0  0  0  0  0  0  0  0  0  0
    0.1438    0.1900   -0.3404 C   0  0  0  0  0  0  0  0  0  0  0  0
    1.2464   -0.6208    0.2780 C   0  0  0  0  0  0  0  0  0  0  0  0
    2.6049   -0.2288   -0.2533 C   0  0  0  0  0  0  0  0  0  0  0  0
    3.5353   -1.0629    0.4083 O   0  0  0  0  0  0  0  0  0  0  0  0
   -1.1079   -1.5083   -1.5304 H   0  0  0  0  0  0  0  0  0  0  0  0
   -1.4404   -2.3695    0.0314 H   0  0  0  0  0  0  0  0  0  0  0  0
   -2.7248   -1.4015   -0.7480 H   0  0  0  0  0  0  0  0  0  0  0  0
   -1.0268   -0.5013    1.3135 H   0  0  0  0  0  0  0  0  0  0  0  0
   -2.8318    0.7396   -0.6718 H   0  0  0  0  0  0  0  0  0  0  0  0
   -2.4428    1.3298    1.0364 H   0  0  0  0  0  0  0  0  0  0  0  0
   -1.3016    2.9977   -0.0661 H   0  0  0  0  0  0  0  0  0  0  0  0
   -0.9554    1.9486   -1.5333 H   0  0  0  0  0  0  0  0  0  0  0  0
    0.1514    0.1904   -1.4383 H   0  0  0  0  0  0  0  0  0  0  0  0
    1.0769   -1.6746    0.0039 H   0  0  0  0  0  0  0  0  0  0  0  0
    1.1940   -0.5402    1.3601 H   0  0  0  0  0  0  0  0  0  0  0  0
    2.8476    0.8228   -0.1178 H   0  0  0  0  0  0  0  0  0  0  0  0
    2.7082   -0.4806   -1.3285 H   0  0  0  0  0  0  0  0  0  0  0  0
    4.0497   -0.5518    1.0914 H   0  0  0  0  0  0  0  0  0  0  0  0
  1  2  1  0
  2  3  1  0
  3  4  1  0
  4  5  1  0
  5  6  1  0
  6  7  1  0
  7  8  1  0
  8  9  1  0
  6  2  1  0
  1 10  1  0
  1 11  1  0
  1 12  1  0
  2 13  1  0
  3 14  1  0
  3 15  1  0
  4 16  1  0
  4 17  1  0
  6 18  1  0
  7 19  1  0
  7 20  1  0
  8 21  1  0
  8 22  1  0
  9 23  1  0
M  END
