
     RDKit          3D

 17 18  0  0  0  0  0  0  0  0999 V2000
   -1.6433   -1.1034    0.6124 C   0  0  0  0  0  0  0  0  0  0  0  0
   -0.9617   -0.1793   -0.3736 C   0  0  0  0  0  0  0  0  0  0  0  0
   -1.3348    1.2252   -0.1704 C   0  0  0  0  0  0  0  0  0  0  0  0
   -0.2387    1.9243    0.0291 C   0  0  0  0  0  0  0  0  0  0  0  0
    0.9330    1.0565   -0.0242 C   0  0  0  0  0  0  0  0  0  0  0  0
    2.2553    1.0111    0.0698 O   0  0  0  0  0  0  0  0  0  0  0  0
    2.7220   -0.1898   -0.0926 C   0  0  0  0  0  0  0  0  0  0  0  0
    1.6306   -1.0165   -0.3128 C   0  0  0  0  0  0  0  0  0  0  0  0
    0.5037   -0.2248   -0.2686 C   0  0  0  0  0  0  0  0  0  0  0  0
   -1.0225   -1.3622    1.4740 H   0  0  0  0  0  0  0  0  0  0  0  0
   -1.8910   -2.0682    0.0901 H   0  0  0  0  0  0  0  0  0  0  0  0
   -2.6059   -0.6118    0.8883 H   0  0  0  0  0  0  0  0  0  0  0  0
   -1.2270   -0.5046   -1.3994 H   0  0  0  0  0  0  0  0  0  0  0  0
   -2.3639    1.6438   -0.1803 H   0  0  0  0  0  0  0  0  0  0  0  0
   -0.1855    2.9973    0.2103 H   0  0  0  0  0  0  0  0  0  0  0  0
    3.7644   -0.5166   -0.0665 H   0  0  0  0  0  0  0  0  0  0  0  0
    1.6652   -2.0811   -0.4858 H   0  0  0  0  0  0  0  0  0  0  0  0
  1  2  1  0
  2  3  1  0
  3  4  2  0
  4  5  1  0
  5  6  1  0
  6  7  1  0
  7  8  2  0
  8  9  1  0
  9  2  1  0
  9  5  2  0
  1 10  1  0
  1 11  1  0
  1 12  1  0
  2 13  1  0
  3 14  1  0
  4 15  1  0
  7 16  1  0
  8 17  1  0
M  END
