
     RDKit          3D

 17 18  0  0  0  0  0  0  0  0999 V2000
    2.0889   -0.3227    0.4996 C   0  0  0  0  0  0  0  0  0  0  0  0
    0.7333   -0.7141   -0.1120 C   0  0  0  0  0  0  0  0  0  0  0  0
    0.1391    0.0203   -1.1812 C   0  0  0  0  0  0  0  0  0  0  0  0
   -1.1788    0.4297   -1.3676 O   0  0  0  0  0  0  0  0  0  0  0  0
   -0.8140    1.4022   -0.3934 C   0  0  0  0  0  0  0  0  0  0  0  0
   -0.3782    0.1057    0.3109 C   0  0  0  0  0  0  0  0  0  0  0  0
   -1.6476   -0.7262    0.5787 C   0  0  0  0  0  0  0  0  0  0  0  0
    2.0323   -0.3057    1.6046 H   0  0  0  0  0  0  0  0  0  0  0  0
    2.9065   -0.9165    0.0928 H   0  0  0  0  0  0  0  0  0  0  0  0
    2.2339    0.7507    0.1889 H   0  0  0  0  0  0  0  0  0  0  0  0
    0.6686   -1.8419   -0.1746 H   0  0  0  0  0  0  0  0  0  0  0  0
    0.7936    0.8883   -1.5076 H   0  0  0  0  0  0  0  0  0  0  0  0
   -0.0188    2.0804   -0.6740 H   0  0  0  0  0  0  0  0  0  0  0  0
   -1.6659    1.8410    0.1437 H   0  0  0  0  0  0  0  0  0  0  0  0
   -2.1378   -0.2314    1.4388 H   0  0  0  0  0  0  0  0  0  0  0  0
   -1.4181   -1.7597    0.8196 H   0  0  0  0  0  0  0  0  0  0  0  0
   -2.3370   -0.7001   -0.2671 H   0  0  0  0  0  0  0  0  0  0  0  0
  1  2  1  0
  2  3  1  0
  3  4  1  0
  4  5  1  0
  5  6  1  0
  6  7  1  0
  6  2  1  0
  6  3  1  0
  1  8  1  0
  1  9  1  0
  1 10  1  0
  2 11  1  0
  3 12  1  0
  5 13  1  0
  5 14  1  0
  7 15  1  0
  7 16  1  0
  7 17  1  0
M  END
