
     RDKit          3D

 19 20  0  0  0  0  0  0  0  0999 V2000
    1.7256    1.2382    0.3044 C   0  0  0  0  0  0  0  0  0  0  0  0
    1.3754   -0.2085    0.2708 C   0  0  0  0  0  0  0  0  0  0  0  0
    0.3635   -0.6581    1.2595 C   0  0  0  0  0  0  0  0  0  0  0  0
    0.1059   -0.4744    2.4111 O   0  0  0  0  0  0  0  0  0  0  0  0
   -0.2339   -1.4815    0.1598 C   0  0  0  0  0  0  0  0  0  0  0  0
   -0.9116   -0.7204   -0.8795 C   0  0  0  0  0  0  0  0  0  0  0  0
   -1.7214    0.5024   -0.5218 C   0  0  0  0  0  0  0  0  0  0  0  0
   -2.7581    0.2371    0.3369 O   0  0  0  0  0  0  0  0  0  0  0  0
    0.5589   -0.6597   -0.8855 C   0  0  0  0  0  0  0  0  0  0  0  0
    1.2486    1.8007   -0.5496 H   0  0  0  0  0  0  0  0  0  0  0  0
    2.8201    1.3915    0.1591 H   0  0  0  0  0  0  0  0  0  0  0  0
    1.3792    1.7251    1.2635 H   0  0  0  0  0  0  0  0  0  0  0  0
    2.3044   -0.8349    0.4144 H   0  0  0  0  0  0  0  0  0  0  0  0
   -0.0266   -2.5585    0.1242 H   0  0  0  0  0  0  0  0  0  0  0  0
   -1.3678   -1.3080   -1.7114 H   0  0  0  0  0  0  0  0  0  0  0  0
   -2.0904    1.0376   -1.4215 H   0  0  0  0  0  0  0  0  0  0  0  0
   -1.0170    1.2095   -0.0205 H   0  0  0  0  0  0  0  0  0  0  0  0
   -2.8720    1.0053    0.9379 H   0  0  0  0  0  0  0  0  0  0  0  0
    1.1171   -1.2432   -1.6517 H   0  0  0  0  0  0  0  0  0  0  0  0
  1  2  1  0
  2  3  1  0
  3  4  2  0
  3  5  1  0
  5  6  1  0
  6  7  1  0
  7  8  1  0
  6  9  1  0
  9  2  1  0
  9  5  1  0
  1 10  1  0
  1 11  1  0
  1 12  1  0
  2 13  1  0
  5 14  1  0
  6 15  1  0
  7 16  1  0
  7 17  1  0
  8 18  1  0
  9 19  1  0
M  END
