
     RDKit          3D

 18 19  0  0  0  0  0  0  0  0999 V2000
    2.5845    0.2063   -0.1807 C   0  0  0  0  0  0  0  0  0  0  0  0
    1.2255    0.3383    0.4727 C   0  0  0  0  0  0  0  0  0  0  0  0
    0.8577   -0.8785    1.1983 C   0  0  0  0  0  0  0  0  0  0  0  0
   -0.4434   -1.0730    1.0233 C   0  0  0  0  0  0  0  0  0  0  0  0
   -0.9350    0.0297    0.1716 C   0  0  0  0  0  0  0  0  0  0  0  0
   -2.2045   -0.1546   -0.5817 C   0  0  0  0  0  0  0  0  0  0  0  0
   -2.0605    0.8917    0.5081 C   0  0  0  0  0  0  0  0  0  0  0  0
    0.2176    0.4999   -0.4647 O   0  0  0  0  0  0  0  0  0  0  0  0
    2.4838    0.5816   -1.2141 H   0  0  0  0  0  0  0  0  0  0  0  0
    3.2922    0.8548    0.3476 H   0  0  0  0  0  0  0  0  0  0  0  0
    2.8881   -0.8451   -0.2441 H   0  0  0  0  0  0  0  0  0  0  0  0
    1.2349    1.2005    1.2007 H   0  0  0  0  0  0  0  0  0  0  0  0
    1.5516   -1.5152    1.7855 H   0  0  0  0  0  0  0  0  0  0  0  0
   -1.0217   -1.8871    1.4317 H   0  0  0  0  0  0  0  0  0  0  0  0
   -2.8017   -1.0658   -0.3729 H   0  0  0  0  0  0  0  0  0  0  0  0
   -2.1580    0.1726   -1.6460 H   0  0  0  0  0  0  0  0  0  0  0  0
   -2.6838    0.6972    1.3843 H   0  0  0  0  0  0  0  0  0  0  0  0
   -2.0269    1.9466    0.1222 H   0  0  0  0  0  0  0  0  0  0  0  0
  1  2  1  0
  2  3  1  0
  3  4  2  0
  4  5  1  0
  5  6  1  0
  6  7  1  0
  5  8  1  0
  8  2  1  0
  7  5  1  0
  1  9  1  0
  1 10  1  0
  1 11  1  0
  2 12  1  0
  3 13  1  0
  4 14  1  0
  6 15  1  0
  6 16  1  0
  7 17  1  0
  7 18  1  0
M  END
