
     RDKit          3D

 19 20  0  0  0  0  0  0  0  0999 V2000
    2.3433    0.1762    0.4219 C   0  0  0  0  0  0  0  0  0  0  0  0
    1.1219    0.0437   -0.3838 C   0  0  0  0  0  0  0  0  0  0  0  0
   -0.0224    0.9740   -0.1005 C   0  0  0  0  0  0  0  0  0  0  0  0
   -0.2757    0.1631    1.1357 C   0  0  0  0  0  0  0  0  0  0  0  0
    0.0289   -0.8637    0.0919 C   0  0  0  0  0  0  0  0  0  0  0  0
   -0.8413   -0.0539   -0.8356 C   0  0  0  0  0  0  0  0  0  0  0  0
   -2.2837    0.0191   -0.5425 C   0  0  0  0  0  0  0  0  0  0  0  0
    2.6312    1.2689    0.4517 H   0  0  0  0  0  0  0  0  0  0  0  0
    3.1930   -0.2995   -0.1515 H   0  0  0  0  0  0  0  0  0  0  0  0
    2.3337   -0.2437    1.4236 H   0  0  0  0  0  0  0  0  0  0  0  0
    1.2651   -0.0799   -1.4727 H   0  0  0  0  0  0  0  0  0  0  0  0
   -0.0509    1.9650   -0.2089 H   0  0  0  0  0  0  0  0  0  0  0  0
   -1.3099    0.1793    1.5333 H   0  0  0  0  0  0  0  0  0  0  0  0
    0.4356    0.2746    1.9614 H   0  0  0  0  0  0  0  0  0  0  0  0
    0.0484   -1.8589    0.1827 H   0  0  0  0  0  0  0  0  0  0  0  0
   -0.5435   -0.1706   -1.8966 H   0  0  0  0  0  0  0  0  0  0  0  0
   -2.6642   -0.6315    0.2412 H   0  0  0  0  0  0  0  0  0  0  0  0
   -2.5499    1.1040   -0.3736 H   0  0  0  0  0  0  0  0  0  0  0  0
   -2.8595   -0.2474   -1.4777 H   0  0  0  0  0  0  0  0  0  0  0  0
  1  2  1  0
  2  3  1  0
  3  4  1  0
  4  5  1  0
  5  6  1  0
  6  7  1  0
  5  2  1  0
  6  3  1  0
  1  8  1  0
  1  9  1  0
  1 10  1  0
  2 11  1  0
  3 12  1  0
  4 13  1  0
  4 14  1  0
  5 15  1  0
  6 16  1  0
  7 17  1  0
  7 18  1  0
  7 19  1  0
M  END
