
     RDKit          3D

 21 22  0  0  0  0  0  0  0  0999 V2000
    2.8747    0.3112    0.4409 C   0  0  0  0  0  0  0  0  0  0  0  0
    1.8722   -0.3429   -0.5186 C   0  0  0  0  0  0  0  0  0  0  0  0
    0.5934    0.3950   -0.4099 C   0  0  0  0  0  0  0  0  0  0  0  0
   -0.3594   -0.4295    0.0078 C   0  0  0  0  0  0  0  0  0  0  0  0
   -1.7515   -0.0391    0.2272 C   0  0  0  0  0  0  0  0  0  0  0  0
   -2.7026    0.2840   -0.8358 C   0  0  0  0  0  0  0  0  0  0  0  0
   -2.0921    1.4367   -0.0593 C   0  0  0  0  0  0  0  0  0  0  0  0
    0.2930   -1.7589    0.1858 C   0  0  0  0  0  0  0  0  0  0  0  0
    1.6059   -1.6282   -0.1406 O   0  0  0  0  0  0  0  0  0  0  0  0
    3.7348   -0.3380    0.6276 H   0  0  0  0  0  0  0  0  0  0  0  0
    2.3887    0.5070    1.4195 H   0  0  0  0  0  0  0  0  0  0  0  0
    3.1318    1.2862   -0.0044 H   0  0  0  0  0  0  0  0  0  0  0  0
    2.3380   -0.2668   -1.5222 H   0  0  0  0  0  0  0  0  0  0  0  0
    0.5235    1.4491   -0.6519 H   0  0  0  0  0  0  0  0  0  0  0  0
   -2.1892   -0.4184    1.1924 H   0  0  0  0  0  0  0  0  0  0  0  0
   -2.3751    0.0984   -1.8745 H   0  0  0  0  0  0  0  0  0  0  0  0
   -3.7815    0.1303   -0.6375 H   0  0  0  0  0  0  0  0  0  0  0  0
   -2.7331    1.9550    0.6894 H   0  0  0  0  0  0  0  0  0  0  0  0
   -1.4114    2.0419   -0.6553 H   0  0  0  0  0  0  0  0  0  0  0  0
   -0.1654   -2.5335   -0.4910 H   0  0  0  0  0  0  0  0  0  0  0  0
    0.2053   -2.1395    1.2163 H   0  0  0  0  0  0  0  0  0  0  0  0
  1  2  1  0
  2  3  1  0
  3  4  2  0
  4  5  1  0
  5  6  1  0
  6  7  1  0
  4  8  1  0
  8  9  1  0
  9  2  1  0
  7  5  1  0
  1 10  1  0
  1 11  1  0
  1 12  1  0
  2 13  1  0
  3 14  1  0
  5 15  1  0
  6 16  1  0
  6 17  1  0
  7 18  1  0
  7 19  1  0
  8 20  1  0
  8 21  1  0
M  END
