
     RDKit          3D

 23 24  0  0  0  0  0  0  0  0999 V2000
    1.9527    1.2883   -0.1584 C   0  0  0  0  0  0  0  0  0  0  0  0
    1.7226   -0.1212   -0.5723 C   0  0  0  0  0  0  0  0  0  0  0  0
    1.5588   -1.1088    0.5558 C   0  0  0  0  0  0  0  0  0  0  0  0
    0.4899   -0.8725   -0.4418 C   0  0  0  0  0  0  0  0  0  0  0  0
   -0.8501   -0.3573   -0.0383 C   0  0  0  0  0  0  0  0  0  0  0  0
   -1.1252    0.2304    1.3088 C   0  0  0  0  0  0  0  0  0  0  0  0
   -0.3936    1.3433    1.6477 O   0  0  0  0  0  0  0  0  0  0  0  0
   -1.6332    0.2125   -1.2016 C   0  0  0  0  0  0  0  0  0  0  0  0
   -2.1107   -1.0608   -0.6372 C   0  0  0  0  0  0  0  0  0  0  0  0
    2.2105    1.4129    0.9193 H   0  0  0  0  0  0  0  0  0  0  0  0
    2.8667    1.7094   -0.6787 H   0  0  0  0  0  0  0  0  0  0  0  0
    1.1335    1.9316   -0.5101 H   0  0  0  0  0  0  0  0  0  0  0  0
    2.4325   -0.4290   -1.4146 H   0  0  0  0  0  0  0  0  0  0  0  0
    2.1995   -2.0078    0.4909 H   0  0  0  0  0  0  0  0  0  0  0  0
    1.4604   -0.7274    1.5980 H   0  0  0  0  0  0  0  0  0  0  0  0
    0.3866   -1.7472   -1.1629 H   0  0  0  0  0  0  0  0  0  0  0  0
   -2.2094    0.5458    1.3784 H   0  0  0  0  0  0  0  0  0  0  0  0
   -1.0426   -0.5663    2.0921 H   0  0  0  0  0  0  0  0  0  0  0  0
   -0.7325    2.1532    1.1956 H   0  0  0  0  0  0  0  0  0  0  0  0
   -1.2205    0.1598   -2.2281 H   0  0  0  0  0  0  0  0  0  0  0  0
   -2.1810    1.1493   -0.9944 H   0  0  0  0  0  0  0  0  0  0  0  0
   -1.9000   -2.0272   -1.1440 H   0  0  0  0  0  0  0  0  0  0  0  0
   -3.0148   -1.1109   -0.0042 H   0  0  0  0  0  0  0  0  0  0  0  0
  1  2  1  0
  2  3  1  0
  3  4  1  0
  4  5  1  0
  5  6  1  0
  6  7  1  0
  5  8  1  0
  8  9  1  0
  4  2  1  0
  9  5  1  0
  1 10  1  0
  1 11  1  0
  1 12  1  0
  2 13  1  0
  3 14  1  0
  3 15  1  0
  4 16  1  0
  6 17  1  0
  6 18  1  0
  7 19  1  0
  8 20  1  0
  8 21  1  0
  9 22  1  0
  9 23  1  0
M  END
