
     RDKit          3D

 23 24  0  0  0  0  0  0  0  0999 V2000
    1.6733   -0.8293    1.1533 C   0  0  0  0  0  0  0  0  0  0  0  0
    1.3632   -0.5488   -0.2952 C   0  0  0  0  0  0  0  0  0  0  0  0
    1.9651    0.7895   -0.6904 C   0  0  0  0  0  0  0  0  0  0  0  0
    0.6147    1.2262   -1.2101 C   0  0  0  0  0  0  0  0  0  0  0  0
    0.0244   -0.0129   -0.6125 C   0  0  0  0  0  0  0  0  0  0  0  0
   -0.8858   -0.6721   -1.3967 O   0  0  0  0  0  0  0  0  0  0  0  0
   -1.2067   -0.1662   -0.0709 C   0  0  0  0  0  0  0  0  0  0  0  0
   -2.2210    0.9779   -0.0623 C   0  0  0  0  0  0  0  0  0  0  0  0
   -1.5986   -1.3053    0.8325 C   0  0  0  0  0  0  0  0  0  0  0  0
    2.2103    0.0155    1.6498 H   0  0  0  0  0  0  0  0  0  0  0  0
    2.3067   -1.7533    1.2761 H   0  0  0  0  0  0  0  0  0  0  0  0
    0.7492   -0.9801    1.7659 H   0  0  0  0  0  0  0  0  0  0  0  0
    1.7241   -1.3799   -0.9564 H   0  0  0  0  0  0  0  0  0  0  0  0
    2.2670    1.4313    0.1708 H   0  0  0  0  0  0  0  0  0  0  0  0
    2.7727    0.7526   -1.4234 H   0  0  0  0  0  0  0  0  0  0  0  0
    0.2460    2.1892   -0.8478 H   0  0  0  0  0  0  0  0  0  0  0  0
    0.6017    1.1735   -2.3381 H   0  0  0  0  0  0  0  0  0  0  0  0
   -3.0498    0.8023    0.6242 H   0  0  0  0  0  0  0  0  0  0  0  0
   -2.5971    1.2128   -1.0592 H   0  0  0  0  0  0  0  0  0  0  0  0
   -1.6502    1.8564    0.3600 H   0  0  0  0  0  0  0  0  0  0  0  0
   -1.0071   -2.2149    0.6882 H   0  0  0  0  0  0  0  0  0  0  0  0
   -2.6544   -1.5769    0.5543 H   0  0  0  0  0  0  0  0  0  0  0  0
   -1.6477   -0.9874    1.8881 H   0  0  0  0  0  0  0  0  0  0  0  0
  1  2  1  0
  2  3  1  0
  3  4  1  0
  4  5  1  0
  5  6  1  0
  6  7  1  0
  7  8  1  0
  7  9  1  0
  5  2  1  0
  7  5  1  0
  1 10  1  0
  1 11  1  0
  1 12  1  0
  2 13  1  0
  3 14  1  0
  3 15  1  0
  4 16  1  0
  4 17  1  0
  8 18  1  0
  8 19  1  0
  8 20  1  0
  9 21  1  0
  9 22  1  0
  9 23  1  0
M  END
