
     RDKit          3D

 19 20  0  0  0  0  0  0  0  0999 V2000
    2.2305    0.5485    0.1887 C   0  0  0  0  0  0  0  0  0  0  0  0
    1.1821   -0.4932   -0.0825 C   0  0  0  0  0  0  0  0  0  0  0  0
    0.2059   -0.1253   -1.2077 C   0  0  0  0  0  0  0  0  0  0  0  0
   -0.8813   -0.1609   -0.2119 C   0  0  0  0  0  0  0  0  0  0  0  0
   -1.7841    1.0229   -0.1012 C   0  0  0  0  0  0  0  0  0  0  0  0
   -2.7925    0.1508   -0.6390 O   0  0  0  0  0  0  0  0  0  0  0  0
   -2.0387   -0.9984   -0.4448 C   0  0  0  0  0  0  0  0  0  0  0  0
   -2.2694   -2.2317   -0.4646 O   0  0  0  0  0  0  0  0  0  0  0  0
    0.0202   -0.4628    0.9198 C   0  0  0  0  0  0  0  0  0  0  0  0
    3.1013    0.3184   -0.4608 H   0  0  0  0  0  0  0  0  0  0  0  0
    2.5963    0.4255    1.2346 H   0  0  0  0  0  0  0  0  0  0  0  0
    1.8867    1.5826    0.0272 H   0  0  0  0  0  0  0  0  0  0  0  0
    1.6500   -1.4837   -0.1941 H   0  0  0  0  0  0  0  0  0  0  0  0
    0.1567   -0.9546   -1.9233 H   0  0  0  0  0  0  0  0  0  0  0  0
    0.4194    0.8769   -1.6282 H   0  0  0  0  0  0  0  0  0  0  0  0
   -1.5952    1.8598   -0.7887 H   0  0  0  0  0  0  0  0  0  0  0  0
   -2.0847    1.3304    0.9029 H   0  0  0  0  0  0  0  0  0  0  0  0
   -0.1380   -1.4937    1.3265 H   0  0  0  0  0  0  0  0  0  0  0  0
    0.1348    0.2884    1.7176 H   0  0  0  0  0  0  0  0  0  0  0  0
  1  2  1  0
  2  3  1  0
  3  4  1  0
  4  5  1  0
  5  6  1  0
  6  7  1  0
  7  8  2  0
  4  9  1  0
  9  2  1  0
  7  4  1  0
  1 10  1  0
  1 11  1  0
  1 12  1  0
  2 13  1  0
  3 14  1  0
  3 15  1  0
  5 16  1  0
  5 17  1  0
  9 18  1  0
  9 19  1  0
M  END
