
     RDKit          3D

 25 26  0  0  0  0  0  0  0  0999 V2000
   -1.5881    1.7739    0.0061 C   0  0  0  0  0  0  0  0  0  0  0  0
   -0.8670    0.4813    0.2604 C   0  0  0  0  0  0  0  0  0  0  0  0
   -1.8235   -0.7077    0.1048 C   0  0  0  0  0  0  0  0  0  0  0  0
   -0.9516   -1.9011   -0.1527 C   0  0  0  0  0  0  0  0  0  0  0  0
    0.3151   -1.3691   -0.7213 C   0  0  0  0  0  0  0  0  0  0  0  0
    1.4170   -1.1368    0.3217 C   0  0  0  0  0  0  0  0  0  0  0  0
    1.6016    0.2271   -0.3289 C   0  0  0  0  0  0  0  0  0  0  0  0
    1.9799    1.3307    0.5948 C   0  0  0  0  0  0  0  0  0  0  0  0
    0.1749    0.1588   -0.7667 C   0  0  0  0  0  0  0  0  0  0  0  0
   -1.1329    2.5384    0.6906 H   0  0  0  0  0  0  0  0  0  0  0  0
   -1.4462    2.1302   -1.0241 H   0  0  0  0  0  0  0  0  0  0  0  0
   -2.6607    1.7470    0.2608 H   0  0  0  0  0  0  0  0  0  0  0  0
   -0.4611    0.4410    1.2926 H   0  0  0  0  0  0  0  0  0  0  0  0
   -2.4625   -0.5750   -0.8098 H   0  0  0  0  0  0  0  0  0  0  0  0
   -2.4242   -0.8696    1.0062 H   0  0  0  0  0  0  0  0  0  0  0  0
   -0.8252   -2.4920    0.7719 H   0  0  0  0  0  0  0  0  0  0  0  0
   -1.3989   -2.5943   -0.9223 H   0  0  0  0  0  0  0  0  0  0  0  0
    0.7039   -1.8156   -1.6396 H   0  0  0  0  0  0  0  0  0  0  0  0
    0.9466   -1.1141    1.3235 H   0  0  0  0  0  0  0  0  0  0  0  0
    2.2612   -1.8174    0.2245 H   0  0  0  0  0  0  0  0  0  0  0  0
    2.2863    0.1594   -1.1784 H   0  0  0  0  0  0  0  0  0  0  0  0
    1.9443    2.2790    0.0450 H   0  0  0  0  0  0  0  0  0  0  0  0
    1.4114    1.3869    1.5259 H   0  0  0  0  0  0  0  0  0  0  0  0
    3.0522    1.1764    0.8792 H   0  0  0  0  0  0  0  0  0  0  0  0
   -0.0525    0.5627   -1.7641 H   0  0  0  0  0  0  0  0  0  0  0  0
  1  2  1  0
  2  3  1  0
  3  4  1  0
  4  5  1  0
  5  6  1  0
  6  7  1  0
  7  8  1  0
  7  9  1  0
  9  2  1  0
  9  5  1  0
  1 10  1  0
  1 11  1  0
  1 12  1  0
  2 13  1  0
  3 14  1  0
  3 15  1  0
  4 16  1  0
  4 17  1  0
  5 18  1  0
  6 19  1  0
  6 20  1  0
  7 21  1  0
  8 22  1  0
  8 23  1  0
  8 24  1  0
  9 25  1  0
M  END
