
     RDKit          3D

 15 15  0  0  0  0  0  0  0  0999 V2000
    2.3469   -0.4935   -0.1556 C   0  0  0  0  0  0  0  0  0  0  0  0
    0.8901   -0.1523   -0.0975 C   0  0  0  0  0  0  0  0  0  0  0  0
    0.4621    1.1331    0.1745 C   0  0  0  0  0  0  0  0  0  0  0  0
   -0.8711    1.4870    0.2367 C   0  0  0  0  0  0  0  0  0  0  0  0
   -1.2608    2.6581    0.4845 O   0  0  0  0  0  0  0  0  0  0  0  0
   -1.8142    0.4927    0.0129 C   0  0  0  0  0  0  0  0  0  0  0  0
   -1.3314   -0.7749   -0.2547 C   0  0  0  0  0  0  0  0  0  0  0  0
   -2.2414   -1.8101   -0.4870 O   0  0  0  0  0  0  0  0  0  0  0  0
   -0.0478   -1.0486   -0.3001 O   0  0  0  0  0  0  0  0  0  0  0  0
    2.9027    0.3990   -0.4896 H   0  0  0  0  0  0  0  0  0  0  0  0
    2.6464   -0.7737    0.8944 H   0  0  0  0  0  0  0  0  0  0  0  0
    2.5071   -1.3849   -0.7736 H   0  0  0  0  0  0  0  0  0  0  0  0
    1.2245    1.9019    0.3479 H   0  0  0  0  0  0  0  0  0  0  0  0
   -2.8812    0.6763    0.0412 H   0  0  0  0  0  0  0  0  0  0  0  0
   -2.5319   -2.3100    0.3660 H   0  0  0  0  0  0  0  0  0  0  0  0
  1  2  1  0
  2  3  2  0
  3  4  1  0
  4  5  2  0
  4  6  1  0
  6  7  2  0
  7  8  1  0
  7  9  1  0
  9  2  1  0
  1 10  1  0
  1 11  1  0
  1 12  1  0
  3 13  1  0
  6 14  1  0
  8 15  1  0
M  END
