
     RDKit          3D

 19 21  0  0  0  0  0  0  0  0999 V2000
    2.4105    0.2023   -0.0851 C   0  0  0  0  0  0  0  0  0  0  0  0
    1.0844   -0.3538    0.2854 C   0  0  0  0  0  0  0  0  0  0  0  0
    0.0946    0.7864    0.5625 C   0  0  0  0  0  0  0  0  0  0  0  0
    0.1070    0.9705   -0.8425 O   0  0  0  0  0  0  0  0  0  0  0  0
    0.1200   -0.4440   -0.9062 C   0  0  0  0  0  0  0  0  0  0  0  0
   -1.2212   -0.9641   -0.4776 C   0  0  0  0  0  0  0  0  0  0  0  0
   -2.1540    0.1925   -0.1783 C   0  0  0  0  0  0  0  0  0  0  0  0
   -1.2268    0.2389    1.0155 C   0  0  0  0  0  0  0  0  0  0  0  0
   -1.1704   -1.1725    0.9210 O   0  0  0  0  0  0  0  0  0  0  0  0
    2.4590    1.3157    0.0452 H   0  0  0  0  0  0  0  0  0  0  0  0
    2.5496    0.0428   -1.1891 H   0  0  0  0  0  0  0  0  0  0  0  0
    3.2480   -0.2029    0.5079 H   0  0  0  0  0  0  0  0  0  0  0  0
    1.0358   -1.1868    0.9792 H   0  0  0  0  0  0  0  0  0  0  0  0
    0.5182    1.6142    1.1351 H   0  0  0  0  0  0  0  0  0  0  0  0
    0.5475   -0.8600   -1.8149 H   0  0  0  0  0  0  0  0  0  0  0  0
   -1.6455   -1.7861   -1.0516 H   0  0  0  0  0  0  0  0  0  0  0  0
   -1.9275    1.0347   -0.8602 H   0  0  0  0  0  0  0  0  0  0  0  0
   -3.1922   -0.0503    0.0095 H   0  0  0  0  0  0  0  0  0  0  0  0
   -1.6370    0.6225    1.9442 H   0  0  0  0  0  0  0  0  0  0  0  0
  1  2  1  0
  2  3  1  0
  3  4  1  0
  4  5  1  0
  5  6  1  0
  6  7  1  0
  7  8  1  0
  8  9  1  0
  5  2  1  0
  9  6  1  0
  8  3  1  0
  1 10  1  0
  1 11  1  0
  1 12  1  0
  2 13  1  0
  3 14  1  0
  5 15  1  0
  6 16  1  0
  7 17  1  0
  7 18  1  0
  8 19  1  0
M  END
