
     RDKit          3D

 23 24  0  0  0  0  0  0  0  0999 V2000
    2.2497   -0.3653    0.5058 C   0  0  0  0  0  0  0  0  0  0  0  0
    1.2807    0.4086   -0.3518 C   0  0  0  0  0  0  0  0  0  0  0  0
    0.4101    1.3149    0.4499 C   0  0  0  0  0  0  0  0  0  0  0  0
   -0.4137    0.3311    1.2712 C   0  0  0  0  0  0  0  0  0  0  0  0
   -0.9640   -0.0662   -0.0980 C   0  0  0  0  0  0  0  0  0  0  0  0
   -2.2536   -0.6964   -0.1800 C   0  0  0  0  0  0  0  0  0  0  0  0
   -0.8626    1.4382   -0.4013 C   0  0  0  0  0  0  0  0  0  0  0  0
    0.2121   -0.5765   -0.8683 C   0  0  0  0  0  0  0  0  0  0  0  0
    0.5442   -1.8784   -0.6069 O   0  0  0  0  0  0  0  0  0  0  0  0
    2.2542   -0.0033    1.5657 H   0  0  0  0  0  0  0  0  0  0  0  0
    2.0493   -1.4554    0.5165 H   0  0  0  0  0  0  0  0  0  0  0  0
    3.2978   -0.2500    0.1556 H   0  0  0  0  0  0  0  0  0  0  0  0
    1.7756    0.9347   -1.1699 H   0  0  0  0  0  0  0  0  0  0  0  0
    0.7820    2.1845    0.9141 H   0  0  0  0  0  0  0  0  0  0  0  0
    0.1579   -0.4533    1.7775 H   0  0  0  0  0  0  0  0  0  0  0  0
   -1.2058    0.8296    1.8375 H   0  0  0  0  0  0  0  0  0  0  0  0
   -3.0798    0.0574   -0.1116 H   0  0  0  0  0  0  0  0  0  0  0  0
   -2.4204   -1.3767    0.6993 H   0  0  0  0  0  0  0  0  0  0  0  0
   -2.3695   -1.3095   -1.0730 H   0  0  0  0  0  0  0  0  0  0  0  0
   -1.6564    2.0267    0.0637 H   0  0  0  0  0  0  0  0  0  0  0  0
   -0.6718    1.6339   -1.4674 H   0  0  0  0  0  0  0  0  0  0  0  0
    0.1308   -0.3897   -1.9593 H   0  0  0  0  0  0  0  0  0  0  0  0
    0.7532   -2.3387   -1.4692 H   0  0  0  0  0  0  0  0  0  0  0  0
  1  2  1  0
  2  3  1  0
  3  4  1  0
  4  5  1  0
  5  6  1  0
  5  7  1  0
  5  8  1  0
  8  9  1  0
  8  2  1  0
  7  3  1  0
  1 10  1  0
  1 11  1  0
  1 12  1  0
  2 13  1  0
  3 14  1  0
  4 15  1  0
  4 16  1  0
  6 17  1  0
  6 18  1  0
  6 19  1  0
  7 20  1  0
  7 21  1  0
  8 22  1  0
  9 23  1  0
M  END
