
     RDKit          3D

 21 21  0  0  0  0  0  0  0  0999 V2000
    2.5712    0.1696    0.3660 C   0  0  0  0  0  0  0  0  0  0  0  0
    1.2089   -0.1259   -0.2004 C   0  0  0  0  0  0  0  0  0  0  0  0
    0.3346   -0.8015    0.8452 C   0  0  0  0  0  0  0  0  0  0  0  0
   -0.9969   -1.0499    0.1636 C   0  0  0  0  0  0  0  0  0  0  0  0
   -1.5298    0.3390   -0.2129 C   0  0  0  0  0  0  0  0  0  0  0  0
   -2.9288    0.1888   -0.6080 C   0  0  0  0  0  0  0  0  0  0  0  0
   -3.7433   -0.2303    0.1901 O   0  0  0  0  0  0  0  0  0  0  0  0
   -0.7096    0.8215   -1.2035 O   0  0  0  0  0  0  0  0  0  0  0  0
    0.5181    1.1495   -0.6183 C   0  0  0  0  0  0  0  0  0  0  0  0
    3.2547   -0.6561    0.0182 H   0  0  0  0  0  0  0  0  0  0  0  0
    2.9640    1.1516    0.1030 H   0  0  0  0  0  0  0  0  0  0  0  0
    2.5356    0.0485    1.4859 H   0  0  0  0  0  0  0  0  0  0  0  0
    1.2718   -0.8565   -1.0471 H   0  0  0  0  0  0  0  0  0  0  0  0
    0.2257   -0.1037    1.7187 H   0  0  0  0  0  0  0  0  0  0  0  0
    0.7876   -1.7765    1.1604 H   0  0  0  0  0  0  0  0  0  0  0  0
   -0.7880   -1.5711   -0.7790 H   0  0  0  0  0  0  0  0  0  0  0  0
   -1.7112   -1.5764    0.8264 H   0  0  0  0  0  0  0  0  0  0  0  0
   -1.3868    0.9581    0.7015 H   0  0  0  0  0  0  0  0  0  0  0  0
   -3.2698    0.4400   -1.5963 H   0  0  0  0  0  0  0  0  0  0  0  0
    1.1195    1.7715   -1.2859 H   0  0  0  0  0  0  0  0  0  0  0  0
    0.2726    1.7099    0.3129 H   0  0  0  0  0  0  0  0  0  0  0  0
  1  2  1  0
  2  3  1  0
  3  4  1  0
  4  5  1  0
  5  6  1  0
  6  7  2  0
  5  8  1  0
  8  9  1  0
  9  2  1  0
  1 10  1  0
  1 11  1  0
  1 12  1  0
  2 13  1  0
  3 14  1  0
  3 15  1  0
  4 16  1  0
  4 17  1  0
  5 18  1  0
  6 19  1  0
  9 20  1  0
  9 21  1  0
M  END
