
     RDKit          3D

 21 22  0  0  0  0  0  0  0  0999 V2000
   -2.1264   -1.4170    0.1270 C   0  0  0  0  0  0  0  0  0  0  0  0
   -0.9797   -0.6207   -0.4381 C   0  0  0  0  0  0  0  0  0  0  0  0
    0.3168   -0.5156    0.2708 C   0  0  0  0  0  0  0  0  0  0  0  0
    1.5380   -0.3294   -0.5673 C   0  0  0  0  0  0  0  0  0  0  0  0
    2.8777   -0.2163   -0.0416 C   0  0  0  0  0  0  0  0  0  0  0  0
    2.4128   -1.5202   -0.4972 O   0  0  0  0  0  0  0  0  0  0  0  0
   -0.6344    0.6181    0.3906 C   0  0  0  0  0  0  0  0  0  0  0  0
   -0.4632    1.8677   -0.4368 C   0  0  0  0  0  0  0  0  0  0  0  0
   -1.2541    0.7769    1.6149 O   0  0  0  0  0  0  0  0  0  0  0  0
   -1.8723   -1.7938    1.1235 H   0  0  0  0  0  0  0  0  0  0  0  0
   -2.9710   -0.6819    0.2750 H   0  0  0  0  0  0  0  0  0  0  0  0
   -2.5092   -2.1852   -0.5596 H   0  0  0  0  0  0  0  0  0  0  0  0
   -1.0046   -0.5230   -1.5420 H   0  0  0  0  0  0  0  0  0  0  0  0
    0.4984   -1.1235    1.2017 H   0  0  0  0  0  0  0  0  0  0  0  0
    1.3565   -0.0081   -1.6068 H   0  0  0  0  0  0  0  0  0  0  0  0
    3.6642    0.1835   -0.7069 H   0  0  0  0  0  0  0  0  0  0  0  0
    3.1157   -0.1770    1.0437 H   0  0  0  0  0  0  0  0  0  0  0  0
   -0.9010    2.7488    0.0835 H   0  0  0  0  0  0  0  0  0  0  0  0
   -1.0499    1.7747   -1.3914 H   0  0  0  0  0  0  0  0  0  0  0  0
    0.5906    2.1058   -0.6604 H   0  0  0  0  0  0  0  0  0  0  0  0
   -0.6048    1.0361    2.3176 H   0  0  0  0  0  0  0  0  0  0  0  0
  1  2  1  0
  2  3  1  0
  3  4  1  0
  4  5  1  0
  5  6  1  0
  3  7  1  0
  7  8  1  0
  7  9  1  0
  7  2  1  0
  6  4  1  0
  1 10  1  0
  1 11  1  0
  1 12  1  0
  2 13  1  0
  3 14  1  0
  4 15  1  0
  5 16  1  0
  5 17  1  0
  8 18  1  0
  8 19  1  0
  8 20  1  0
  9 21  1  0
M  END
