
     RDKit          3D

 25 25  0  0  0  0  0  0  0  0999 V2000
    2.2595    0.3111    0.9618 C   0  0  0  0  0  0  0  0  0  0  0  0
    1.2468    0.2403   -0.1655 C   0  0  0  0  0  0  0  0  0  0  0  0
    0.7865    1.5986   -0.4416 C   0  0  0  0  0  0  0  0  0  0  0  0
   -0.4121    1.9014   -0.8722 C   0  0  0  0  0  0  0  0  0  0  0  0
   -1.3600    0.8013   -1.0934 C   0  0  0  0  0  0  0  0  0  0  0  0
   -1.2092   -0.3570   -0.1521 C   0  0  0  0  0  0  0  0  0  0  0  0
   -2.0228   -0.0480    1.0915 C   0  0  0  0  0  0  0  0  0  0  0  0
    0.1890   -0.7534    0.1493 C   0  0  0  0  0  0  0  0  0  0  0  0
    0.5304   -2.0780   -0.5190 C   0  0  0  0  0  0  0  0  0  0  0  0
    1.9144    1.0595    1.6826 H   0  0  0  0  0  0  0  0  0  0  0  0
    2.2411   -0.6734    1.4692 H   0  0  0  0  0  0  0  0  0  0  0  0
    3.2738    0.5568    0.5909 H   0  0  0  0  0  0  0  0  0  0  0  0
    1.8253   -0.1080   -1.0663 H   0  0  0  0  0  0  0  0  0  0  0  0
    1.4818    2.4248   -0.2819 H   0  0  0  0  0  0  0  0  0  0  0  0
   -0.6970    2.9508   -1.0617 H   0  0  0  0  0  0  0  0  0  0  0  0
   -2.3835    1.2220   -1.0290 H   0  0  0  0  0  0  0  0  0  0  0  0
   -1.2439    0.4701   -2.1668 H   0  0  0  0  0  0  0  0  0  0  0  0
   -1.7293   -1.2222   -0.6429 H   0  0  0  0  0  0  0  0  0  0  0  0
   -1.9104    1.0238    1.3442 H   0  0  0  0  0  0  0  0  0  0  0  0
   -1.6365   -0.7134    1.8945 H   0  0  0  0  0  0  0  0  0  0  0  0
   -3.0984   -0.3213    0.9437 H   0  0  0  0  0  0  0  0  0  0  0  0
    0.2354   -0.9812    1.2483 H   0  0  0  0  0  0  0  0  0  0  0  0
    0.9004   -1.9588   -1.5382 H   0  0  0  0  0  0  0  0  0  0  0  0
   -0.4251   -2.6776   -0.4712 H   0  0  0  0  0  0  0  0  0  0  0  0
    1.2436   -2.6683    0.1257 H   0  0  0  0  0  0  0  0  0  0  0  0
  1  2  1  0
  2  3  1  0
  3  4  2  0
  4  5  1  0
  5  6  1  0
  6  7  1  0
  6  8  1  0
  8  9  1  0
  8  2  1  0
  1 10  1  0
  1 11  1  0
  1 12  1  0
  2 13  1  0
  3 14  1  0
  4 15  1  0
  5 16  1  0
  5 17  1  0
  6 18  1  0
  7 19  1  0
  7 20  1  0
  7 21  1  0
  8 22  1  0
  9 23  1  0
  9 24  1  0
  9 25  1  0
M  END
