
     RDKit          3D

 17 18  0  0  0  0  0  0  0  0999 V2000
    1.9174    0.1771   -0.0634 C   0  0  0  0  0  0  0  0  0  0  0  0
    0.6122   -0.5021   -0.1146 C   0  0  0  0  0  0  0  0  0  0  0  0
   -0.2006   -0.3425    1.1847 C   0  0  0  0  0  0  0  0  0  0  0  0
   -1.5156   -0.8715    0.6652 C   0  0  0  0  0  0  0  0  0  0  0  0
   -1.6223   -0.5763   -0.6290 C   0  0  0  0  0  0  0  0  0  0  0  0
   -0.4355    0.2833   -0.9341 C   0  0  0  0  0  0  0  0  0  0  0  0
   -0.5544    1.4739   -0.0896 C   0  0  0  0  0  0  0  0  0  0  0  0
   -0.8304    2.6285   -0.4861 O   0  0  0  0  0  0  0  0  0  0  0  0
   -0.3024    1.0626    1.2138 O   0  0  0  0  0  0  0  0  0  0  0  0
    2.7193   -0.6135    0.0307 H   0  0  0  0  0  0  0  0  0  0  0  0
    2.1432    0.6674   -1.0500 H   0  0  0  0  0  0  0  0  0  0  0  0
    2.0781    0.8877    0.7437 H   0  0  0  0  0  0  0  0  0  0  0  0
    0.6467   -1.5585   -0.4326 H   0  0  0  0  0  0  0  0  0  0  0  0
    0.1960   -0.8368    2.0273 H   0  0  0  0  0  0  0  0  0  0  0  0
   -2.2814   -1.4124    1.2251 H   0  0  0  0  0  0  0  0  0  0  0  0
   -2.3789   -0.8704   -1.3356 H   0  0  0  0  0  0  0  0  0  0  0  0
   -0.1915    0.4036   -1.9555 H   0  0  0  0  0  0  0  0  0  0  0  0
  1  2  1  0
  2  3  1  0
  3  4  1  0
  4  5  2  0
  5  6  1  0
  6  7  1  0
  7  8  2  0
  7  9  1  0
  6  2  1  0
  9  3  1  0
  1 10  1  0
  1 11  1  0
  1 12  1  0
  2 13  1  0
  3 14  1  0
  4 15  1  0
  5 16  1  0
  6 17  1  0
M  END
