
     RDKit          3D

 23 24  0  0  0  0  0  0  0  0999 V2000
    2.9564    0.2864   -0.7083 C   0  0  0  0  0  0  0  0  0  0  0  0
    1.9643   -0.1029    0.3500 C   0  0  0  0  0  0  0  0  0  0  0  0
    1.2064   -1.3971    0.2435 C   0  0  0  0  0  0  0  0  0  0  0  0
    0.5397   -0.1010    0.1697 C   0  0  0  0  0  0  0  0  0  0  0  0
   -0.2297    0.2508   -1.0256 C   0  0  0  0  0  0  0  0  0  0  0  0
   -1.3392    0.3154    0.0197 C   0  0  0  0  0  0  0  0  0  0  0  0
   -2.1565   -0.9443    0.1431 C   0  0  0  0  0  0  0  0  0  0  0  0
   -2.1789    1.5478   -0.1246 C   0  0  0  0  0  0  0  0  0  0  0  0
   -0.3945    0.3538    1.0560 O   0  0  0  0  0  0  0  0  0  0  0  0
    3.4643   -0.5723   -1.1823 H   0  0  0  0  0  0  0  0  0  0  0  0
    2.4837    0.8895   -1.5361 H   0  0  0  0  0  0  0  0  0  0  0  0
    3.7591    0.9401   -0.3070 H   0  0  0  0  0  0  0  0  0  0  0  0
    2.3515    0.0789    1.3957 H   0  0  0  0  0  0  0  0  0  0  0  0
    1.0106   -2.0076    1.1496 H   0  0  0  0  0  0  0  0  0  0  0  0
    1.3150   -2.0010   -0.6888 H   0  0  0  0  0  0  0  0  0  0  0  0
   -0.0789    1.2174   -1.5118 H   0  0  0  0  0  0  0  0  0  0  0  0
   -0.4748   -0.5498   -1.7514 H   0  0  0  0  0  0  0  0  0  0  0  0
   -2.9145   -1.0638   -0.6399 H   0  0  0  0  0  0  0  0  0  0  0  0
   -2.7061   -0.8595    1.1257 H   0  0  0  0  0  0  0  0  0  0  0  0
   -1.4822   -1.8097    0.2667 H   0  0  0  0  0  0  0  0  0  0  0  0
   -2.9968    1.3124   -0.8341 H   0  0  0  0  0  0  0  0  0  0  0  0
   -2.5571    1.8863    0.8532 H   0  0  0  0  0  0  0  0  0  0  0  0
   -1.5415    2.3301   -0.6130 H   0  0  0  0  0  0  0  0  0  0  0  0
  1  2  1  0
  2  3  1  0
  3  4  1  0
  4  5  1  0
  5  6  1  0
  6  7  1  0
  6  8  1  0
  6  9  1  0
  4  2  1  0
  9  4  1  0
  1 10  1  0
  1 11  1  0
  1 12  1  0
  2 13  1  0
  3 14  1  0
  3 15  1  0
  5 16  1  0
  5 17  1  0
  7 18  1  0
  7 19  1  0
  7 20  1  0
  8 21  1  0
  8 22  1  0
  8 23  1  0
M  END
