
     RDKit          3D

 25 25  0  0  0  0  0  0  0  0999 V2000
    2.1701   -1.0381   -0.2152 C   0  0  0  0  0  0  0  0  0  0  0  0
    1.2489   -0.0257   -0.8061 C   0  0  0  0  0  0  0  0  0  0  0  0
   -0.1384   -0.5369   -1.0714 C   0  0  0  0  0  0  0  0  0  0  0  0
   -1.0149   -0.1205    0.0630 C   0  0  0  0  0  0  0  0  0  0  0  0
   -2.0080    0.9492   -0.3003 C   0  0  0  0  0  0  0  0  0  0  0  0
   -1.7720   -1.2867    0.6608 C   0  0  0  0  0  0  0  0  0  0  0  0
   -0.0262    0.4483    1.0909 C   0  0  0  0  0  0  0  0  0  0  0  0
    0.9602    1.1278    0.1650 C   0  0  0  0  0  0  0  0  0  0  0  0
    2.0830    1.5873    0.7881 O   0  0  0  0  0  0  0  0  0  0  0  0
    1.8808   -2.0918   -0.4253 H   0  0  0  0  0  0  0  0  0  0  0  0
    3.2098   -0.8730   -0.6238 H   0  0  0  0  0  0  0  0  0  0  0  0
    2.2834   -0.9677    0.8845 H   0  0  0  0  0  0  0  0  0  0  0  0
    1.7226    0.4486   -1.6855 H   0  0  0  0  0  0  0  0  0  0  0  0
   -0.5261   -0.0587   -1.9952 H   0  0  0  0  0  0  0  0  0  0  0  0
   -0.1938   -1.6311   -1.1966 H   0  0  0  0  0  0  0  0  0  0  0  0
   -1.5466    1.9156   -0.5606 H   0  0  0  0  0  0  0  0  0  0  0  0
   -2.6198    1.1414    0.6176 H   0  0  0  0  0  0  0  0  0  0  0  0
   -2.6166    0.6375   -1.1612 H   0  0  0  0  0  0  0  0  0  0  0  0
   -2.6494   -1.4633    0.0203 H   0  0  0  0  0  0  0  0  0  0  0  0
   -2.0928   -1.0827    1.6970 H   0  0  0  0  0  0  0  0  0  0  0  0
   -1.1044   -2.1618    0.6943 H   0  0  0  0  0  0  0  0  0  0  0  0
    0.4381   -0.4311    1.5675 H   0  0  0  0  0  0  0  0  0  0  0  0
   -0.4983    1.1086    1.8054 H   0  0  0  0  0  0  0  0  0  0  0  0
    0.4882    1.9113   -0.4243 H   0  0  0  0  0  0  0  0  0  0  0  0
    2.3221    2.4935    0.4113 H   0  0  0  0  0  0  0  0  0  0  0  0
  1  2  1  0
  2  3  1  0
  3  4  1  0
  4  5  1  0
  4  6  1  0
  4  7  1  0
  7  8  1  0
  8  9  1  0
  8  2  1  0
  1 10  1  0
  1 11  1  0
  1 12  1  0
  2 13  1  0
  3 14  1  0
  3 15  1  0
  5 16  1  0
  5 17  1  0
  5 18  1  0
  6 19  1  0
  6 20  1  0
  6 21  1  0
  7 22  1  0
  7 23  1  0
  8 24  1  0
  9 25  1  0
M  END
