
     RDKit          3D

 19 19  0  0  0  0  0  0  0  0999 V2000
   -1.5014   -1.5098    0.8059 C   0  0  0  0  0  0  0  0  0  0  0  0
   -0.5088   -0.4848    0.5048 C   0  0  0  0  0  0  0  0  0  0  0  0
   -0.6554   -0.4103   -0.9320 C   0  0  0  0  0  0  0  0  0  0  0  0
    0.1165    0.4974   -0.3161 C   0  0  0  0  0  0  0  0  0  0  0  0
   -0.3120    1.9816   -0.3459 C   0  0  0  0  0  0  0  0  0  0  0  0
    1.6168    0.3978   -0.4639 C   0  0  0  0  0  0  0  0  0  0  0  0
    2.0957    0.9763   -1.5011 O   0  0  0  0  0  0  0  0  0  0  0  0
    2.4939   -0.2722    0.4339 C   0  0  0  0  0  0  0  0  0  0  0  0
    2.1020   -0.8623    1.4607 O   0  0  0  0  0  0  0  0  0  0  0  0
   -2.5632   -1.2770    0.5089 H   0  0  0  0  0  0  0  0  0  0  0  0
   -1.5930   -1.7851    1.8750 H   0  0  0  0  0  0  0  0  0  0  0  0
   -1.3223   -2.5185    0.3156 H   0  0  0  0  0  0  0  0  0  0  0  0
   -0.2990    0.0334    1.4320 H   0  0  0  0  0  0  0  0  0  0  0  0
   -0.1963   -1.2814   -1.4993 H   0  0  0  0  0  0  0  0  0  0  0  0
   -1.6026   -0.1218   -1.4693 H   0  0  0  0  0  0  0  0  0  0  0  0
   -0.8919    2.1509   -1.2979 H   0  0  0  0  0  0  0  0  0  0  0  0
    0.5043    2.6778   -0.2238 H   0  0  0  0  0  0  0  0  0  0  0  0
   -1.0462    2.0920    0.4730 H   0  0  0  0  0  0  0  0  0  0  0  0
    3.5629   -0.2839    0.2395 H   0  0  0  0  0  0  0  0  0  0  0  0
  1  2  1  0
  2  3  1  0
  3  4  1  0
  4  5  1  0
  4  6  1  0
  6  7  2  0
  6  8  1  0
  8  9  2  0
  4  2  1  0
  1 10  1  0
  1 11  1  0
  1 12  1  0
  2 13  1  0
  3 14  1  0
  3 15  1  0
  5 16  1  0
  5 17  1  0
  5 18  1  0
  8 19  1  0
M  END
