
     RDKit          3D

 19 20  0  0  0  0  0  0  0  0999 V2000
   -2.6864    0.3307    0.5486 C   0  0  0  0  0  0  0  0  0  0  0  0
   -1.3062   -0.2442    0.9128 C   0  0  0  0  0  0  0  0  0  0  0  0
   -0.6862   -1.0681   -0.0519 C   0  0  0  0  0  0  0  0  0  0  0  0
    0.1326   -0.6789   -1.2420 C   0  0  0  0  0  0  0  0  0  0  0  0
    0.0132   -0.6355   -2.4296 O   0  0  0  0  0  0  0  0  0  0  0  0
    1.1325   -0.3913   -0.1419 C   0  0  0  0  0  0  0  0  0  0  0  0
    2.1886    0.5101   -0.6559 C   0  0  0  0  0  0  0  0  0  0  0  0
    3.1582    0.8365    0.2772 O   0  0  0  0  0  0  0  0  0  0  0  0
   -0.0848    0.3237    0.4220 C   0  0  0  0  0  0  0  0  0  0  0  0
   -2.4683    1.1401   -0.2072 H   0  0  0  0  0  0  0  0  0  0  0  0
   -3.3046   -0.4162    0.0228 H   0  0  0  0  0  0  0  0  0  0  0  0
   -3.1648    0.8216    1.3934 H   0  0  0  0  0  0  0  0  0  0  0  0
   -1.3081   -0.5165    2.0120 H   0  0  0  0  0  0  0  0  0  0  0  0
   -0.1452   -1.9676    0.3916 H   0  0  0  0  0  0  0  0  0  0  0  0
    1.4132   -1.2434    0.4624 H   0  0  0  0  0  0  0  0  0  0  0  0
    2.7391    0.0340   -1.5183 H   0  0  0  0  0  0  0  0  0  0  0  0
    1.7458    1.4341   -1.0714 H   0  0  0  0  0  0  0  0  0  0  0  0
    2.9241    0.5530    1.1768 H   0  0  0  0  0  0  0  0  0  0  0  0
   -0.2929    1.1780   -0.3013 H   0  0  0  0  0  0  0  0  0  0  0  0
  1  2  1  0
  2  3  1  0
  3  4  1  0
  4  5  2  0
  4  6  1  0
  6  7  1  0
  7  8  1  0
  6  9  1  0
  9  2  1  0
  9  3  1  0
  1 10  1  0
  1 11  1  0
  1 12  1  0
  2 13  1  0
  3 14  1  0
  6 15  1  0
  7 16  1  0
  7 17  1  0
  8 18  1  0
  9 19  1  0
M  END
