
     RDKit          3D

 17 17  0  0  0  0  0  0  0  0999 V2000
   -1.3617    0.9837    0.9560 C   0  0  0  0  0  0  0  0  0  0  0  0
   -0.9327   -0.4275    0.6100 C   0  0  0  0  0  0  0  0  0  0  0  0
    0.5163   -0.5657    0.8274 C   0  0  0  0  0  0  0  0  0  0  0  0
    1.1379   -0.1924   -0.2740 C   0  0  0  0  0  0  0  0  0  0  0  0
    2.5988   -0.1831   -0.4595 C   0  0  0  0  0  0  0  0  0  0  0  0
    3.3331   -0.5530    0.4837 O   0  0  0  0  0  0  0  0  0  0  0  0
    0.1442    0.1965   -1.2868 C   0  0  0  0  0  0  0  0  0  0  0  0
    0.3849    0.9842   -2.2133 O   0  0  0  0  0  0  0  0  0  0  0  0
   -1.0636   -0.5580   -0.8876 C   0  0  0  0  0  0  0  0  0  0  0  0
   -0.4673    1.5991    1.1993 H   0  0  0  0  0  0  0  0  0  0  0  0
   -2.0471    0.9166    1.8326 H   0  0  0  0  0  0  0  0  0  0  0  0
   -1.8884    1.4892    0.1305 H   0  0  0  0  0  0  0  0  0  0  0  0
   -1.5351   -1.1760    1.1548 H   0  0  0  0  0  0  0  0  0  0  0  0
    1.0451   -0.9148    1.7314 H   0  0  0  0  0  0  0  0  0  0  0  0
    3.0735    0.1291   -1.3758 H   0  0  0  0  0  0  0  0  0  0  0  0
   -0.9390   -1.6177   -1.1616 H   0  0  0  0  0  0  0  0  0  0  0  0
   -1.9991   -0.1103   -1.2671 H   0  0  0  0  0  0  0  0  0  0  0  0
  1  2  1  0
  2  3  1  0
  3  4  2  0
  4  5  1  0
  5  6  2  0
  4  7  1  0
  7  8  2  0
  7  9  1  0
  9  2  1  0
  1 10  1  0
  1 11  1  0
  1 12  1  0
  2 13  1  0
  3 14  1  0
  5 15  1  0
  9 16  1  0
  9 17  1  0
M  END
