
     RDKit          3D

 23 23  0  0  0  0  0  0  0  0999 V2000
    2.7294    0.4105    0.1579 C   0  0  0  0  0  0  0  0  0  0  0  0
    1.2592    0.3285   -0.0803 C   0  0  0  0  0  0  0  0  0  0  0  0
    0.7202   -1.0822   -0.0061 C   0  0  0  0  0  0  0  0  0  0  0  0
   -0.6078   -1.1134   -0.6747 C   0  0  0  0  0  0  0  0  0  0  0  0
   -1.7487   -0.6400    0.1573 C   0  0  0  0  0  0  0  0  0  0  0  0
   -1.8272   -1.2618    1.3999 O   0  0  0  0  0  0  0  0  0  0  0  0
   -1.8448    0.8289    0.3324 C   0  0  0  0  0  0  0  0  0  0  0  0
   -0.5790    1.5843    0.1228 C   0  0  0  0  0  0  0  0  0  0  0  0
    0.5043    1.0947    0.8040 O   0  0  0  0  0  0  0  0  0  0  0  0
    3.0264    1.4531    0.2719 H   0  0  0  0  0  0  0  0  0  0  0  0
    3.0993   -0.2324    0.9769 H   0  0  0  0  0  0  0  0  0  0  0  0
    3.2355    0.0390   -0.7760 H   0  0  0  0  0  0  0  0  0  0  0  0
    1.0749    0.7124   -1.1276 H   0  0  0  0  0  0  0  0  0  0  0  0
    0.7325   -1.3859    1.0407 H   0  0  0  0  0  0  0  0  0  0  0  0
    1.4184   -1.7715   -0.5606 H   0  0  0  0  0  0  0  0  0  0  0  0
   -0.8180   -2.1837   -0.9592 H   0  0  0  0  0  0  0  0  0  0  0  0
   -0.5798   -0.5330   -1.6017 H   0  0  0  0  0  0  0  0  0  0  0  0
   -2.6860   -0.9678   -0.3867 H   0  0  0  0  0  0  0  0  0  0  0  0
   -1.1619   -1.9508    1.5457 H   0  0  0  0  0  0  0  0  0  0  0  0
   -2.2050    1.0725    1.3748 H   0  0  0  0  0  0  0  0  0  0  0  0
   -2.6202    1.2892   -0.3340 H   0  0  0  0  0  0  0  0  0  0  0  0
   -0.3625    1.6689   -0.9772 H   0  0  0  0  0  0  0  0  0  0  0  0
   -0.7592    2.6403    0.4512 H   0  0  0  0  0  0  0  0  0  0  0  0
  1  2  1  0
  2  3  1  0
  3  4  1  0
  4  5  1  0
  5  6  1  0
  5  7  1  0
  7  8  1  0
  8  9  1  0
  9  2  1  0
  1 10  1  0
  1 11  1  0
  1 12  1  0
  2 13  1  0
  3 14  1  0
  3 15  1  0
  4 16  1  0
  4 17  1  0
  5 18  1  0
  6 19  1  0
  7 20  1  0
  7 21  1  0
  8 22  1  0
  8 23  1  0
M  END
