
     RDKit          3D

 22 23  0  0  0  0  0  0  0  0999 V2000
   -2.6584    0.2396    0.3098 C   0  0  0  0  0  0  0  0  0  0  0  0
   -1.4717   -0.6152   -0.1201 C   0  0  0  0  0  0  0  0  0  0  0  0
   -0.5549   -0.9276    1.0362 C   0  0  0  0  0  0  0  0  0  0  0  0
    0.6376   -0.0480    0.9260 C   0  0  0  0  0  0  0  0  0  0  0  0
    1.6126   -0.2815   -0.1412 C   0  0  0  0  0  0  0  0  0  0  0  0
    2.9735    0.3407   -0.1568 C   0  0  0  0  0  0  0  0  0  0  0  0
    0.4808    0.7338   -0.3100 C   0  0  0  0  0  0  0  0  0  0  0  0
   -0.6742    0.2185   -1.0975 C   0  0  0  0  0  0  0  0  0  0  0  0
   -3.5261   -0.4468    0.4024 H   0  0  0  0  0  0  0  0  0  0  0  0
   -2.3772    0.7007    1.2672 H   0  0  0  0  0  0  0  0  0  0  0  0
   -2.8563    1.0441   -0.4542 H   0  0  0  0  0  0  0  0  0  0  0  0
   -1.7989   -1.5322   -0.6577 H   0  0  0  0  0  0  0  0  0  0  0  0
   -0.2656   -1.9997    1.0717 H   0  0  0  0  0  0  0  0  0  0  0  0
   -1.1423   -0.7188    1.9674 H   0  0  0  0  0  0  0  0  0  0  0  0
    0.9099    0.4718    1.8857 H   0  0  0  0  0  0  0  0  0  0  0  0
    1.5464   -1.2410   -0.6871 H   0  0  0  0  0  0  0  0  0  0  0  0
    3.7544   -0.3377   -0.5952 H   0  0  0  0  0  0  0  0  0  0  0  0
    3.2764    0.7289    0.8333 H   0  0  0  0  0  0  0  0  0  0  0  0
    2.9582    1.2252   -0.8469 H   0  0  0  0  0  0  0  0  0  0  0  0
    0.7150    1.8050   -0.2488 H   0  0  0  0  0  0  0  0  0  0  0  0
   -0.2593   -0.4016   -1.9336 H   0  0  0  0  0  0  0  0  0  0  0  0
   -1.2799    1.0417   -1.5137 H   0  0  0  0  0  0  0  0  0  0  0  0
  1  2  1  0
  2  3  1  0
  3  4  1  0
  4  5  1  0
  5  6  1  0
  5  7  1  0
  7  8  1  0
  8  2  1  0
  7  4  1  0
  1  9  1  0
  1 10  1  0
  1 11  1  0
  2 12  1  0
  3 13  1  0
  3 14  1  0
  4 15  1  0
  5 16  1  0
  6 17  1  0
  6 18  1  0
  6 19  1  0
  7 20  1  0
  8 21  1  0
  8 22  1  0
M  END
