
     RDKit          3D

 19 21  0  0  0  0  0  0  0  0999 V2000
    2.0746    0.6137    0.5565 C   0  0  0  0  0  0  0  0  0  0  0  0
    1.4043   -0.7334    0.4588 C   0  0  0  0  0  0  0  0  0  0  0  0
    0.5602   -0.9747   -0.7208 C   0  0  0  0  0  0  0  0  0  0  0  0
   -0.4116    0.1174   -1.0804 C   0  0  0  0  0  0  0  0  0  0  0  0
   -1.8550   -0.2908   -1.0263 C   0  0  0  0  0  0  0  0  0  0  0  0
   -1.0714    0.0372    0.2188 C   0  0  0  0  0  0  0  0  0  0  0  0
   -1.5063    1.2029    0.9972 C   0  0  0  0  0  0  0  0  0  0  0  0
   -1.7030    2.2556    0.4184 O   0  0  0  0  0  0  0  0  0  0  0  0
   -0.0394   -0.9051    0.7182 C   0  0  0  0  0  0  0  0  0  0  0  0
    3.0515    0.5264   -0.0030 H   0  0  0  0  0  0  0  0  0  0  0  0
    2.3582    0.8692    1.5985 H   0  0  0  0  0  0  0  0  0  0  0  0
    1.4658    1.3926    0.0739 H   0  0  0  0  0  0  0  0  0  0  0  0
    2.0444   -1.5896    0.7750 H   0  0  0  0  0  0  0  0  0  0  0  0
    0.4480   -1.9720   -1.1884 H   0  0  0  0  0  0  0  0  0  0  0  0
   -0.0847    1.0329   -1.5640 H   0  0  0  0  0  0  0  0  0  0  0  0
   -2.5601    0.4674   -1.3692 H   0  0  0  0  0  0  0  0  0  0  0  0
   -2.1070   -1.3670   -1.1572 H   0  0  0  0  0  0  0  0  0  0  0  0
   -1.6581    1.1655    2.0555 H   0  0  0  0  0  0  0  0  0  0  0  0
   -0.4104   -1.8481    1.1421 H   0  0  0  0  0  0  0  0  0  0  0  0
  1  2  1  0
  2  3  1  0
  3  4  1  0
  4  5  1  0
  5  6  1  0
  6  7  1  0
  7  8  2  0
  6  9  1  0
  9  2  1  0
  9  3  1  0
  6  4  1  0
  1 10  1  0
  1 11  1  0
  1 12  1  0
  2 13  1  0
  3 14  1  0
  4 15  1  0
  5 16  1  0
  5 17  1  0
  7 18  1  0
  9 19  1  0
M  END
