
     RDKit          3D

 20 21  0  0  0  0  0  0  0  0999 V2000
    1.6295    0.7913    0.4537 C   0  0  0  0  0  0  0  0  0  0  0  0
    1.1753   -0.4016   -0.2364 C   0  0  0  0  0  0  0  0  0  0  0  0
    0.5869   -0.2333   -1.6261 C   0  0  0  0  0  0  0  0  0  0  0  0
   -0.7155   -0.1667   -1.4330 C   0  0  0  0  0  0  0  0  0  0  0  0
   -1.0335   -0.2645   -0.0552 C   0  0  0  0  0  0  0  0  0  0  0  0
   -1.1481    1.1357    0.4802 C   0  0  0  0  0  0  0  0  0  0  0  0
   -1.0846   -1.2087    1.0027 C   0  0  0  0  0  0  0  0  0  0  0  0
    0.1069   -1.2471    0.3004 C   0  0  0  0  0  0  0  0  0  0  0  0
    1.1193    1.0554    1.4197 H   0  0  0  0  0  0  0  0  0  0  0  0
    2.7017    0.6581    0.8321 H   0  0  0  0  0  0  0  0  0  0  0  0
    1.7633    1.7015   -0.2037 H   0  0  0  0  0  0  0  0  0  0  0  0
    2.1030   -1.0288   -0.4546 H   0  0  0  0  0  0  0  0  0  0  0  0
    1.1171   -0.1787   -2.5701 H   0  0  0  0  0  0  0  0  0  0  0  0
   -1.4611   -0.0486   -2.2554 H   0  0  0  0  0  0  0  0  0  0  0  0
   -1.2301    1.2278    1.5768 H   0  0  0  0  0  0  0  0  0  0  0  0
   -2.2235    1.3898    0.1693 H   0  0  0  0  0  0  0  0  0  0  0  0
   -0.5779    1.9075   -0.0208 H   0  0  0  0  0  0  0  0  0  0  0  0
   -1.0331   -0.9152    2.0767 H   0  0  0  0  0  0  0  0  0  0  0  0
   -1.9125   -1.9732    0.9069 H   0  0  0  0  0  0  0  0  0  0  0  0
    0.1167   -2.2007   -0.3633 H   0  0  0  0  0  0  0  0  0  0  0  0
  1  2  1  0
  2  3  1  0
  3  4  2  0
  4  5  1  0
  5  6  1  0
  5  7  1  0
  7  8  1  0
  8  2  1  0
  8  5  1  0
  1  9  1  0
  1 10  1  0
  1 11  1  0
  2 12  1  0
  3 13  1  0
  4 14  1  0
  6 15  1  0
  6 16  1  0
  6 17  1  0
  7 18  1  0
  7 19  1  0
  8 20  1  0
M  END
