
     RDKit          3D

 25 25  0  0  0  0  0  0  0  0999 V2000
    2.3859    1.1092   -0.4969 C   0  0  0  0  0  0  0  0  0  0  0  0
    1.2098    0.1670   -0.5577 C   0  0  0  0  0  0  0  0  0  0  0  0
    1.5603   -1.0621    0.2258 C   0  0  0  0  0  0  0  0  0  0  0  0
    0.3115   -1.7345    0.7164 C   0  0  0  0  0  0  0  0  0  0  0  0
   -0.8123   -1.4354   -0.0337 O   0  0  0  0  0  0  0  0  0  0  0  0
   -1.1656   -0.1102   -0.0217 C   0  0  0  0  0  0  0  0  0  0  0  0
   -2.1295    0.2468    1.0929 C   0  0  0  0  0  0  0  0  0  0  0  0
   -1.9086    0.1923   -1.3268 C   0  0  0  0  0  0  0  0  0  0  0  0
    0.0207    0.8180    0.1087 C   0  0  0  0  0  0  0  0  0  0  0  0
    2.1133    2.0282   -1.0577 H   0  0  0  0  0  0  0  0  0  0  0  0
    2.5612    1.3787    0.5756 H   0  0  0  0  0  0  0  0  0  0  0  0
    3.3113    0.6483   -0.8759 H   0  0  0  0  0  0  0  0  0  0  0  0
    1.0210   -0.1197   -1.6001 H   0  0  0  0  0  0  0  0  0  0  0  0
    2.2218   -1.7203   -0.3644 H   0  0  0  0  0  0  0  0  0  0  0  0
    2.1502   -0.7634    1.1251 H   0  0  0  0  0  0  0  0  0  0  0  0
    0.4775   -2.8380    0.6088 H   0  0  0  0  0  0  0  0  0  0  0  0
    0.1114   -1.5154    1.7747 H   0  0  0  0  0  0  0  0  0  0  0  0
   -1.6740    0.2054    2.0864 H   0  0  0  0  0  0  0  0  0  0  0  0
   -3.0846   -0.3278    1.0214 H   0  0  0  0  0  0  0  0  0  0  0  0
   -2.4121    1.3190    0.9154 H   0  0  0  0  0  0  0  0  0  0  0  0
   -1.2871   -0.0453   -2.1964 H   0  0  0  0  0  0  0  0  0  0  0  0
   -2.2241    1.2534   -1.2774 H   0  0  0  0  0  0  0  0  0  0  0  0
   -2.8523   -0.4093   -1.2760 H   0  0  0  0  0  0  0  0  0  0  0  0
   -0.1813    1.7936   -0.3608 H   0  0  0  0  0  0  0  0  0  0  0  0
    0.2757    0.9216    1.1942 H   0  0  0  0  0  0  0  0  0  0  0  0
  1  2  1  0
  2  3  1  0
  3  4  1  0
  4  5  1  0
  5  6  1  0
  6  7  1  0
  6  8  1  0
  6  9  1  0
  9  2  1  0
  1 10  1  0
  1 11  1  0
  1 12  1  0
  2 13  1  0
  3 14  1  0
  3 15  1  0
  4 16  1  0
  4 17  1  0
  7 18  1  0
  7 19  1  0
  7 20  1  0
  8 21  1  0
  8 22  1  0
  8 23  1  0
  9 24  1  0
  9 25  1  0
M  END
