
     RDKit          3D

 25 26  0  0  0  0  0  0  0  0999 V2000
   -2.2165    0.2429   -0.4489 C   0  0  0  0  0  0  0  0  0  0  0  0
   -1.3318   -0.1330    0.6748 C   0  0  0  0  0  0  0  0  0  0  0  0
   -0.5385   -1.4026    0.4469 C   0  0  0  0  0  0  0  0  0  0  0  0
    0.1288   -1.2704   -0.8800 C   0  0  0  0  0  0  0  0  0  0  0  0
    1.4302   -0.5866   -0.9038 C   0  0  0  0  0  0  0  0  0  0  0  0
    2.2325   -0.2549    0.2836 C   0  0  0  0  0  0  0  0  0  0  0  0
    1.5250    0.8010   -0.5594 C   0  0  0  0  0  0  0  0  0  0  0  0
    0.4581    1.5402    0.0950 C   0  0  0  0  0  0  0  0  0  0  0  0
   -0.3668    0.9099    1.1223 C   0  0  0  0  0  0  0  0  0  0  0  0
   -3.0987    0.8119   -0.0467 H   0  0  0  0  0  0  0  0  0  0  0  0
   -2.6285   -0.7092   -0.8937 H   0  0  0  0  0  0  0  0  0  0  0  0
   -1.7704    0.7946   -1.2707 H   0  0  0  0  0  0  0  0  0  0  0  0
   -1.9959   -0.3588    1.5623 H   0  0  0  0  0  0  0  0  0  0  0  0
   -1.1967   -2.3084    0.4959 H   0  0  0  0  0  0  0  0  0  0  0  0
    0.1922   -1.5107    1.2437 H   0  0  0  0  0  0  0  0  0  0  0  0
    0.2415   -2.3248   -1.2619 H   0  0  0  0  0  0  0  0  0  0  0  0
   -0.5397   -0.7854   -1.6505 H   0  0  0  0  0  0  0  0  0  0  0  0
    2.0621   -0.9256   -1.7851 H   0  0  0  0  0  0  0  0  0  0  0  0
    3.3593   -0.2192    0.2028 H   0  0  0  0  0  0  0  0  0  0  0  0
    1.9186   -0.4337    1.3144 H   0  0  0  0  0  0  0  0  0  0  0  0
    2.1899    1.4670   -1.1916 H   0  0  0  0  0  0  0  0  0  0  0  0
    0.9270    2.4601    0.5666 H   0  0  0  0  0  0  0  0  0  0  0  0
   -0.2215    1.9846   -0.6908 H   0  0  0  0  0  0  0  0  0  0  0  0
    0.2246    0.4875    1.9624 H   0  0  0  0  0  0  0  0  0  0  0  0
   -0.9850    1.7235    1.6123 H   0  0  0  0  0  0  0  0  0  0  0  0
  1  2  1  0
  2  3  1  0
  3  4  1  0
  4  5  1  0
  5  6  1  0
  6  7  1  0
  7  8  1  0
  8  9  1  0
  9  2  1  0
  7  5  1  0
  1 10  1  0
  1 11  1  0
  1 12  1  0
  2 13  1  0
  3 14  1  0
  3 15  1  0
  4 16  1  0
  4 17  1  0
  5 18  1  0
  6 19  1  0
  6 20  1  0
  7 21  1  0
  8 22  1  0
  8 23  1  0
  9 24  1  0
  9 25  1  0
M  END
