
     RDKit          3D

 21 21  0  0  0  0  0  0  0  0999 V2000
    2.6902    0.0651   -0.2442 C   0  0  0  0  0  0  0  0  0  0  0  0
    1.2754    0.1580    0.2819 C   0  0  0  0  0  0  0  0  0  0  0  0
    0.7118   -1.1999    0.3004 C   0  0  0  0  0  0  0  0  0  0  0  0
   -0.5130   -1.6661    0.0623 C   0  0  0  0  0  0  0  0  0  0  0  0
   -1.8556   -1.2492   -0.3025 C   0  0  0  0  0  0  0  0  0  0  0  0
   -2.1878    0.1549    0.0023 C   0  0  0  0  0  0  0  0  0  0  0  0
   -1.6339    1.3157    0.2612 C   0  0  0  0  0  0  0  0  0  0  0  0
   -0.2448    1.8016    0.3792 C   0  0  0  0  0  0  0  0  0  0  0  0
    0.5496    1.0450   -0.4991 O   0  0  0  0  0  0  0  0  0  0  0  0
    3.3954   -0.2849    0.5648 H   0  0  0  0  0  0  0  0  0  0  0  0
    2.7680   -0.6441   -1.0915 H   0  0  0  0  0  0  0  0  0  0  0  0
    3.0889    1.0779   -0.5376 H   0  0  0  0  0  0  0  0  0  0  0  0
    1.3450    0.5290    1.3378 H   0  0  0  0  0  0  0  0  0  0  0  0
    1.4430   -1.9647    0.5592 H   0  0  0  0  0  0  0  0  0  0  0  0
   -0.4824   -2.7637    0.1924 H   0  0  0  0  0  0  0  0  0  0  0  0
   -2.0159   -1.4085   -1.3888 H   0  0  0  0  0  0  0  0  0  0  0  0
   -2.6066   -1.8992    0.2290 H   0  0  0  0  0  0  0  0  0  0  0  0
   -3.2799    0.2610    0.0163 H   0  0  0  0  0  0  0  0  0  0  0  0
   -2.3437    2.1039    0.4281 H   0  0  0  0  0  0  0  0  0  0  0  0
    0.1218    1.6973    1.4401 H   0  0  0  0  0  0  0  0  0  0  0  0
   -0.2258    2.8710    0.1261 H   0  0  0  0  0  0  0  0  0  0  0  0
  1  2  1  0
  2  3  1  0
  3  4  2  3
  4  5  1  0
  5  6  1  0
  6  7  2  3
  7  8  1  0
  8  9  1  0
  9  2  1  0
  1 10  1  0
  1 11  1  0
  1 12  1  0
  2 13  1  0
  3 14  1  0
  4 15  1  0
  5 16  1  0
  5 17  1  0
  6 18  1  0
  7 19  1  0
  8 20  1  0
  8 21  1  0
M  END
