
     RDKit          3D

 23 24  0  0  0  0  0  0  0  0999 V2000
   -1.5101    1.7484    0.0611 C   0  0  0  0  0  0  0  0  0  0  0  0
   -0.6837    0.5469    0.3486 C   0  0  0  0  0  0  0  0  0  0  0  0
   -1.5169   -0.7425    0.4498 C   0  0  0  0  0  0  0  0  0  0  0  0
   -1.1418   -1.7471   -0.5929 C   0  0  0  0  0  0  0  0  0  0  0  0
    0.2071   -2.0590   -0.6611 O   0  0  0  0  0  0  0  0  0  0  0  0
    0.9481   -1.0920   -0.0501 C   0  0  0  0  0  0  0  0  0  0  0  0
    1.7424   -0.0237   -0.5414 C   0  0  0  0  0  0  0  0  0  0  0  0
    2.6415    0.7100    0.4660 C   0  0  0  0  0  0  0  0  0  0  0  0
    0.3501    0.2189   -0.6429 C   0  0  0  0  0  0  0  0  0  0  0  0
   -1.3109    2.2276   -0.9080 H   0  0  0  0  0  0  0  0  0  0  0  0
   -2.5935    1.4579    0.0634 H   0  0  0  0  0  0  0  0  0  0  0  0
   -1.4317    2.5220    0.8773 H   0  0  0  0  0  0  0  0  0  0  0  0
   -0.2248    0.6751    1.3555 H   0  0  0  0  0  0  0  0  0  0  0  0
   -1.5349   -1.1465    1.4717 H   0  0  0  0  0  0  0  0  0  0  0  0
   -2.5583   -0.4196    0.2255 H   0  0  0  0  0  0  0  0  0  0  0  0
   -1.4721   -1.4158   -1.5927 H   0  0  0  0  0  0  0  0  0  0  0  0
   -1.6756   -2.6869   -0.3431 H   0  0  0  0  0  0  0  0  0  0  0  0
    0.9099   -1.2242    1.0683 H   0  0  0  0  0  0  0  0  0  0  0  0
    2.3195   -0.1800   -1.4942 H   0  0  0  0  0  0  0  0  0  0  0  0
    3.4760    0.0035    0.6820 H   0  0  0  0  0  0  0  0  0  0  0  0
    2.1000    0.8771    1.4102 H   0  0  0  0  0  0  0  0  0  0  0  0
    3.0688    1.6073    0.0231 H   0  0  0  0  0  0  0  0  0  0  0  0
   -0.1090    0.1424   -1.6761 H   0  0  0  0  0  0  0  0  0  0  0  0
  1  2  1  0
  2  3  1  0
  3  4  1  0
  4  5  1  0
  5  6  1  0
  6  7  1  0
  7  8  1  0
  7  9  1  0
  9  2  1  0
  9  6  1  0
  1 10  1  0
  1 11  1  0
  1 12  1  0
  2 13  1  0
  3 14  1  0
  3 15  1  0
  4 16  1  0
  4 17  1  0
  6 18  1  0
  7 19  1  0
  8 20  1  0
  8 21  1  0
  8 22  1  0
  9 23  1  0
M  END
