
     RDKit          3D

 21 23  0  0  0  0  0  0  0  0999 V2000
    2.8134    0.2967   -0.5940 C   0  0  0  0  0  0  0  0  0  0  0  0
    1.6121   -0.5252   -0.1035 C   0  0  0  0  0  0  0  0  0  0  0  0
    0.7870    0.0620    0.8608 C   0  0  0  0  0  0  0  0  0  0  0  0
    0.0867    1.1893    1.0503 O   0  0  0  0  0  0  0  0  0  0  0  0
   -1.2847    0.8107    1.2347 C   0  0  0  0  0  0  0  0  0  0  0  0
   -1.8164    0.4791   -0.0823 C   0  0  0  0  0  0  0  0  0  0  0  0
   -2.3086   -0.6145   -0.7978 C   0  0  0  0  0  0  0  0  0  0  0  0
   -0.9961   -0.8554   -0.3477 C   0  0  0  0  0  0  0  0  0  0  0  0
    0.3084   -0.3146   -0.6051 C   0  0  0  0  0  0  0  0  0  0  0  0
    3.6427    0.1307    0.1226 H   0  0  0  0  0  0  0  0  0  0  0  0
    3.1235   -0.0390   -1.5821 H   0  0  0  0  0  0  0  0  0  0  0  0
    2.5813    1.3883   -0.5341 H   0  0  0  0  0  0  0  0  0  0  0  0
    1.9514   -1.5956   -0.0033 H   0  0  0  0  0  0  0  0  0  0  0  0
    0.4601   -0.6762    1.6677 H   0  0  0  0  0  0  0  0  0  0  0  0
   -1.2729   -0.0347    1.9504 H   0  0  0  0  0  0  0  0  0  0  0  0
   -1.7814    1.7164    1.6447 H   0  0  0  0  0  0  0  0  0  0  0  0
   -1.5435    1.3472   -0.7729 H   0  0  0  0  0  0  0  0  0  0  0  0
   -2.4598   -0.5721   -1.9156 H   0  0  0  0  0  0  0  0  0  0  0  0
   -3.2028   -1.1594   -0.3796 H   0  0  0  0  0  0  0  0  0  0  0  0
   -0.9997   -1.5924    0.5215 H   0  0  0  0  0  0  0  0  0  0  0  0
    0.2995    0.5588   -1.3346 H   0  0  0  0  0  0  0  0  0  0  0  0
  1  2  1  0
  2  3  1  0
  3  4  1  0
  4  5  1  0
  5  6  1  0
  6  7  1  0
  7  8  1  0
  8  9  1  0
  9  2  1  0
  9  3  1  0
  8  6  1  0
  1 10  1  0
  1 11  1  0
  1 12  1  0
  2 13  1  0
  3 14  1  0
  5 15  1  0
  5 16  1  0
  6 17  1  0
  7 18  1  0
  7 19  1  0
  8 20  1  0
  9 21  1  0
M  END
