
     RDKit          3D

 14 14  0  0  0  0  0  0  0  0999 V2000
   -1.3345   -0.7347   -0.1137 C   0  0  0  0  0  0  0  0  0  0  0  0
   -0.5227   -0.0015    0.8979 C   0  0  0  0  0  0  0  0  0  0  0  0
   -0.1882    1.4094    0.5601 C   0  0  0  0  0  0  0  0  0  0  0  0
   -0.6670    2.3855   -0.0441 O   0  0  0  0  0  0  0  0  0  0  0  0
    1.0173    1.2098    1.2616 O   0  0  0  0  0  0  0  0  0  0  0  0
    0.9724   -0.1335    0.7728 C   0  0  0  0  0  0  0  0  0  0  0  0
    1.4777   -0.1805   -0.6033 C   0  0  0  0  0  0  0  0  0  0  0  0
    1.8702    0.8098   -1.2064 O   0  0  0  0  0  0  0  0  0  0  0  0
   -2.3064   -0.9994    0.3535 H   0  0  0  0  0  0  0  0  0  0  0  0
   -1.5963   -0.1107   -1.0113 H   0  0  0  0  0  0  0  0  0  0  0  0
   -0.8626   -1.6869   -0.4533 H   0  0  0  0  0  0  0  0  0  0  0  0
   -0.8575   -0.0504    1.9492 H   0  0  0  0  0  0  0  0  0  0  0  0
    1.4767   -0.7981    1.4691 H   0  0  0  0  0  0  0  0  0  0  0  0
    1.5208   -1.1187   -1.1441 H   0  0  0  0  0  0  0  0  0  0  0  0
  1  2  1  0
  2  3  1  0
  3  4  2  0
  3  5  1  0
  5  6  1  0
  6  7  1  0
  7  8  2  0
  6  2  1  0
  1  9  1  0
  1 10  1  0
  1 11  1  0
  2 12  1  0
  6 13  1  0
  7 14  1  0
M  END
