
     RDKit          3D

 19 21  0  0  0  0  0  0  0  0999 V2000
   -2.2720    0.5290   -0.6880 C   0  0  0  0  0  0  0  0  0  0  0  0
   -0.8950    0.7561   -0.1233 C   0  0  0  0  0  0  0  0  0  0  0  0
   -0.3697    0.0571    1.0416 C   0  0  0  0  0  0  0  0  0  0  0  0
   -0.4679   -1.4210    1.2473 C   0  0  0  0  0  0  0  0  0  0  0  0
   -0.3804   -1.6643   -0.1319 O   0  0  0  0  0  0  0  0  0  0  0  0
    0.0417   -0.3771   -0.2833 C   0  0  0  0  0  0  0  0  0  0  0  0
    1.3754   -0.0557   -0.8946 C   0  0  0  0  0  0  0  0  0  0  0  0
    2.5004    0.4635   -0.1374 C   0  0  0  0  0  0  0  0  0  0  0  0
    1.7605    1.2706   -1.0273 O   0  0  0  0  0  0  0  0  0  0  0  0
   -2.7957   -0.3298   -0.2760 H   0  0  0  0  0  0  0  0  0  0  0  0
   -2.1370    0.4312   -1.8037 H   0  0  0  0  0  0  0  0  0  0  0  0
   -2.8462    1.4746   -0.5541 H   0  0  0  0  0  0  0  0  0  0  0  0
   -0.5052    1.7758   -0.3133 H   0  0  0  0  0  0  0  0  0  0  0  0
    0.3027    0.6006    1.7390 H   0  0  0  0  0  0  0  0  0  0  0  0
    0.4517   -1.8375    1.7463 H   0  0  0  0  0  0  0  0  0  0  0  0
   -1.3512   -1.8099    1.7476 H   0  0  0  0  0  0  0  0  0  0  0  0
    1.6225   -0.7376   -1.7541 H   0  0  0  0  0  0  0  0  0  0  0  0
    2.4211    0.6580    0.9447 H   0  0  0  0  0  0  0  0  0  0  0  0
    3.5441    0.2164   -0.4794 H   0  0  0  0  0  0  0  0  0  0  0  0
  1  2  1  0
  2  3  1  0
  3  4  1  0
  4  5  1  0
  5  6  1  0
  6  7  1  0
  7  8  1  0
  8  9  1  0
  6  2  1  0
  9  7  1  0
  6  3  1  0
  1 10  1  0
  1 11  1  0
  1 12  1  0
  2 13  1  0
  3 14  1  0
  4 15  1  0
  4 16  1  0
  7 17  1  0
  8 18  1  0
  8 19  1  0
M  END
