
     RDKit          3D

 21 21  0  0  0  0  0  0  0  0999 V2000
   -2.6632    0.6555    0.0824 C   0  0  0  0  0  0  0  0  0  0  0  0
   -1.4048   -0.1490   -0.0151 C   0  0  0  0  0  0  0  0  0  0  0  0
   -0.3210    0.4689   -0.9089 C   0  0  0  0  0  0  0  0  0  0  0  0
    0.6401   -0.1380    0.0917 C   0  0  0  0  0  0  0  0  0  0  0  0
    0.9447   -1.5842   -0.1260 C   0  0  0  0  0  0  0  0  0  0  0  0
    1.8751    0.6841    0.3552 C   0  0  0  0  0  0  0  0  0  0  0  0
    2.5447    0.8186   -0.8803 O   0  0  0  0  0  0  0  0  0  0  0  0
   -0.4464    0.0370    1.1105 C   0  0  0  0  0  0  0  0  0  0  0  0
   -0.4790    0.2361    2.2945 O   0  0  0  0  0  0  0  0  0  0  0  0
   -2.4892    1.7294    0.0411 H   0  0  0  0  0  0  0  0  0  0  0  0
   -3.3272    0.3400   -0.7494 H   0  0  0  0  0  0  0  0  0  0  0  0
   -3.1910    0.3247    1.0171 H   0  0  0  0  0  0  0  0  0  0  0  0
   -1.5878   -1.2076   -0.2627 H   0  0  0  0  0  0  0  0  0  0  0  0
   -0.3464    1.5703   -0.8236 H   0  0  0  0  0  0  0  0  0  0  0  0
   -0.2806    0.0584   -1.9240 H   0  0  0  0  0  0  0  0  0  0  0  0
    1.9511   -1.8275    0.2531 H   0  0  0  0  0  0  0  0  0  0  0  0
    0.2380   -2.2398    0.4427 H   0  0  0  0  0  0  0  0  0  0  0  0
    0.8164   -1.8016   -1.2065 H   0  0  0  0  0  0  0  0  0  0  0  0
    2.5778    0.1271    1.0064 H   0  0  0  0  0  0  0  0  0  0  0  0
    1.6571    1.7054    0.7015 H   0  0  0  0  0  0  0  0  0  0  0  0
    3.2916    0.1922   -0.9697 H   0  0  0  0  0  0  0  0  0  0  0  0
  1  2  1  0
  2  3  1  0
  3  4  1  0
  4  5  1  0
  4  6  1  0
  6  7  1  0
  4  8  1  0
  8  9  2  0
  8  2  1  0
  1 10  1  0
  1 11  1  0
  1 12  1  0
  2 13  1  0
  3 14  1  0
  3 15  1  0
  5 16  1  0
  5 17  1  0
  5 18  1  0
  6 19  1  0
  6 20  1  0
  7 21  1  0
M  END
