
     RDKit          2D

 21 23  0  0  0  0  0  0  0  0999 V2000
   -2.5323   -2.2500    0.0000 C   0  0  0  0  0  0  0  0  0  0  0  0
   -2.5323   -0.7500    0.0000 C   0  0  0  0  0  0  0  0  0  0  0  0
   -2.5323    0.7500    0.0000 C   0  0  0  0  0  0  0  0  0  0  0  0
   -0.8192    2.0952    0.0000 C   0  0  0  0  0  0  0  0  0  0  0  0
    0.3943    1.2135    0.0000 C   0  0  0  0  0  0  0  0  0  0  0  0
    1.2760    0.0000    0.0000 C   0  0  0  0  0  0  0  0  0  0  0  0
    0.3943   -1.2135    0.0000 O   0  0  0  0  0  0  0  0  0  0  0  0
   -1.0323   -0.7500    0.0000 C   0  0  0  0  0  0  0  0  0  0  0  0
   -1.0323    0.7500    0.0000 C   0  0  0  0  0  0  0  0  0  0  0  0
   -2.5323   -3.7500    0.0000 H   0  0  0  0  0  0  0  0  0  0  0  0
   -4.0323   -2.2500    0.0000 H   0  0  0  0  0  0  0  0  0  0  0  0
   -1.6532   -2.3580    0.0000 H   0  0  0  0  0  0  0  0  0  0  0  0
   -4.0323   -0.7500    0.0000 H   0  0  0  0  0  0  0  0  0  0  0  0
   -3.5929    1.8107    0.0000 H   0  0  0  0  0  0  0  0  0  0  0  0
    0.0625    3.3087    0.0000 H   0  0  0  0  0  0  0  0  0  0  0  0
   -2.0328    2.9769    0.0000 H   0  0  0  0  0  0  0  0  0  0  0  0
    0.8578    2.6401    0.0000 H   0  0  0  0  0  0  0  0  0  0  0  0
    2.3907    1.0037    0.0000 H   0  0  0  0  0  0  0  0  0  0  0  0
    2.3907   -1.0037    0.0000 H   0  0  0  0  0  0  0  0  0  0  0  0
   -1.0632   -1.6352    0.0000 H   0  0  0  0  0  0  0  0  0  0  0  0
   -0.9628    1.5441    0.0000 H   0  0  0  0  0  0  0  0  0  0  0  0
  1  2  1  0
  2  3  1  0
  3  4  1  0
  4  5  1  0
  5  6  1  0
  6  7  1  0
  7  8  1  0
  8  9  1  0
  8  2  1  0
  9  3  1  0
  9  5  1  0
  1 10  1  0
  1 11  1  0
  1 12  1  0
  2 13  1  0
  3 14  1  0
  4 15  1  0
  4 16  1  0
  5 17  1  0
  6 18  1  0
  6 19  1  0
  8 20  1  0
  9 21  1  0
M  END
