
     RDKit          3D

 18 20  0  0  0  0  0  0  0  0999 V2000
    2.4535    0.2391    0.0611 C   0  0  0  0  0  0  0  0  0  0  0  0
    0.9591    0.5647    0.0870 C   0  0  0  0  0  0  0  0  0  0  0  0
    0.0972   -0.5501    0.5770 C   0  0  0  0  0  0  0  0  0  0  0  0
   -1.2422   -0.2413    1.1357 C   0  0  0  0  0  0  0  0  0  0  0  0
   -2.1197   -0.0236   -0.0557 C   0  0  0  0  0  0  0  0  0  0  0  0
   -1.9645    1.2293   -0.6472 O   0  0  0  0  0  0  0  0  0  0  0  0
   -1.2587    0.2306   -1.2435 C   0  0  0  0  0  0  0  0  0  0  0  0
    0.1134   -0.1645   -0.8466 C   0  0  0  0  0  0  0  0  0  0  0  0
    2.8295    0.1776   -0.9867 H   0  0  0  0  0  0  0  0  0  0  0  0
    2.6582   -0.7560    0.5106 H   0  0  0  0  0  0  0  0  0  0  0  0
    3.0142    0.9880    0.6415 H   0  0  0  0  0  0  0  0  0  0  0  0
    0.7133    1.6165    0.3685 H   0  0  0  0  0  0  0  0  0  0  0  0
    0.5472   -1.5054    0.9063 H   0  0  0  0  0  0  0  0  0  0  0  0
   -1.1719    0.7435    1.6778 H   0  0  0  0  0  0  0  0  0  0  0  0
   -1.6053   -0.9655    1.8575 H   0  0  0  0  0  0  0  0  0  0  0  0
   -3.0005   -0.6333   -0.2481 H   0  0  0  0  0  0  0  0  0  0  0  0
   -1.6322   -0.0677   -2.2529 H   0  0  0  0  0  0  0  0  0  0  0  0
    0.6094   -0.8818   -1.5423 H   0  0  0  0  0  0  0  0  0  0  0  0
  1  2  1  0
  2  3  1  0
  3  4  1  0
  4  5  1  0
  5  6  1  0
  6  7  1  0
  7  8  1  0
  8  2  1  0
  8  3  1  0
  7  5  1  0
  1  9  1  0
  1 10  1  0
  1 11  1  0
  2 12  1  0
  3 13  1  0
  4 14  1  0
  4 15  1  0
  5 16  1  0
  7 17  1  0
  8 18  1  0
M  END
