
     RDKit          3D

 23 24  0  0  0  0  0  0  0  0999 V2000
    1.4822   -0.9483   -1.1398 C   0  0  0  0  0  0  0  0  0  0  0  0
    1.2493   -0.0487    0.0071 C   0  0  0  0  0  0  0  0  0  0  0  0
    0.4476    1.1888   -0.3093 C   0  0  0  0  0  0  0  0  0  0  0  0
    0.1356    1.6717    1.0677 C   0  0  0  0  0  0  0  0  0  0  0  0
   -0.0387    0.5973    1.8280 C   0  0  0  0  0  0  0  0  0  0  0  0
    0.3788   -0.6316    1.0952 C   0  0  0  0  0  0  0  0  0  0  0  0
   -0.8467   -1.2098    0.4249 C   0  0  0  0  0  0  0  0  0  0  0  0
   -1.6202   -0.2464   -0.3781 C   0  0  0  0  0  0  0  0  0  0  0  0
   -0.8744    0.8935   -0.9556 C   0  0  0  0  0  0  0  0  0  0  0  0
    2.5592   -0.8547   -1.4548 H   0  0  0  0  0  0  0  0  0  0  0  0
    1.3890   -2.0111   -0.8149 H   0  0  0  0  0  0  0  0  0  0  0  0
    0.8784   -0.7224   -2.0411 H   0  0  0  0  0  0  0  0  0  0  0  0
    2.1914    0.2854    0.4783 H   0  0  0  0  0  0  0  0  0  0  0  0
    0.9926    1.9252   -0.9135 H   0  0  0  0  0  0  0  0  0  0  0  0
    0.0685    2.7084    1.3698 H   0  0  0  0  0  0  0  0  0  0  0  0
   -0.4256    0.6007    2.8323 H   0  0  0  0  0  0  0  0  0  0  0  0
    0.8657   -1.3762    1.7135 H   0  0  0  0  0  0  0  0  0  0  0  0
   -1.4765   -1.6324    1.2638 H   0  0  0  0  0  0  0  0  0  0  0  0
   -0.5458   -2.1037   -0.1679 H   0  0  0  0  0  0  0  0  0  0  0  0
   -2.0960   -0.8082   -1.2363 H   0  0  0  0  0  0  0  0  0  0  0  0
   -2.5052    0.0945    0.2363 H   0  0  0  0  0  0  0  0  0  0  0  0
   -1.4998    1.8146   -0.8360 H   0  0  0  0  0  0  0  0  0  0  0  0
   -0.7096    0.8135   -2.0696 H   0  0  0  0  0  0  0  0  0  0  0  0
  1  2  1  0
  2  3  1  0
  3  4  1  0
  4  5  2  0
  5  6  1  0
  6  7  1  0
  7  8  1  0
  8  9  1  0
  6  2  1  0
  9  3  1  0
  1 10  1  0
  1 11  1  0
  1 12  1  0
  2 13  1  0
  3 14  1  0
  4 15  1  0
  5 16  1  0
  6 17  1  0
  7 18  1  0
  7 19  1  0
  8 20  1  0
  8 21  1  0
  9 22  1  0
  9 23  1  0
M  END
