
     RDKit          3D

 23 23  0  0  0  0  0  0  0  0999 V2000
    2.1058    0.6928   -0.6739 C   0  0  0  0  0  0  0  0  0  0  0  0
    1.6665    0.0625    0.5981 C   0  0  0  0  0  0  0  0  0  0  0  0
    1.2712   -1.4259    0.4684 C   0  0  0  0  0  0  0  0  0  0  0  0
    0.2882   -0.3833    0.8622 C   0  0  0  0  0  0  0  0  0  0  0  0
   -0.8680   -0.0036    0.0159 C   0  0  0  0  0  0  0  0  0  0  0  0
   -2.1387   -0.6397    0.5784 C   0  0  0  0  0  0  0  0  0  0  0  0
   -1.1352    1.5080    0.0446 C   0  0  0  0  0  0  0  0  0  0  0  0
   -0.7723   -0.3951   -1.3946 C   0  0  0  0  0  0  0  0  0  0  0  0
   -1.6049    0.0806   -2.1656 O   0  0  0  0  0  0  0  0  0  0  0  0
    2.9032    0.0288   -1.1174 H   0  0  0  0  0  0  0  0  0  0  0  0
    2.6286    1.6655   -0.4421 H   0  0  0  0  0  0  0  0  0  0  0  0
    1.3342    0.8844   -1.4104 H   0  0  0  0  0  0  0  0  0  0  0  0
    2.3553    0.2759    1.4602 H   0  0  0  0  0  0  0  0  0  0  0  0
    1.7131   -2.1163    1.2418 H   0  0  0  0  0  0  0  0  0  0  0  0
    1.2990   -1.8681   -0.5346 H   0  0  0  0  0  0  0  0  0  0  0  0
    0.0280   -0.4368    1.9636 H   0  0  0  0  0  0  0  0  0  0  0  0
   -1.8474   -1.5102    1.2104 H   0  0  0  0  0  0  0  0  0  0  0  0
   -2.6564    0.0733    1.2680 H   0  0  0  0  0  0  0  0  0  0  0  0
   -2.8042   -0.9828   -0.2322 H   0  0  0  0  0  0  0  0  0  0  0  0
   -1.7146    1.7256    0.9672 H   0  0  0  0  0  0  0  0  0  0  0  0
   -0.2166    2.0908   -0.0291 H   0  0  0  0  0  0  0  0  0  0  0  0
   -1.7854    1.7301   -0.8473 H   0  0  0  0  0  0  0  0  0  0  0  0
   -0.0496   -1.0564   -1.8314 H   0  0  0  0  0  0  0  0  0  0  0  0
  1  2  1  0
  2  3  1  0
  3  4  1  0
  4  5  1  0
  5  6  1  0
  5  7  1  0
  5  8  1  0
  8  9  2  0
  4  2  1  0
  1 10  1  0
  1 11  1  0
  1 12  1  0
  2 13  1  0
  3 14  1  0
  3 15  1  0
  4 16  1  0
  6 17  1  0
  6 18  1  0
  6 19  1  0
  7 20  1  0
  7 21  1  0
  7 22  1  0
  8 23  1  0
M  END
