
     RDKit          3D

 19 20  0  0  0  0  0  0  0  0999 V2000
    2.4551    0.3282    0.1339 C   0  0  0  0  0  0  0  0  0  0  0  0
    1.0968   -0.2423   -0.1214 C   0  0  0  0  0  0  0  0  0  0  0  0
    0.2000   -0.1364    1.1038 C   0  0  0  0  0  0  0  0  0  0  0  0
   -1.1478   -0.7318    0.6773 C   0  0  0  0  0  0  0  0  0  0  0  0
   -2.1194    0.3432    0.3520 C   0  0  0  0  0  0  0  0  0  0  0  0
   -1.8571    0.7181   -0.8948 C   0  0  0  0  0  0  0  0  0  0  0  0
   -0.7465   -0.1670   -1.3927 C   0  0  0  0  0  0  0  0  0  0  0  0
    0.4654    0.4612   -1.1396 O   0  0  0  0  0  0  0  0  0  0  0  0
   -0.9281   -1.3028   -0.5800 O   0  0  0  0  0  0  0  0  0  0  0  0
    2.9366   -0.0611    1.0273 H   0  0  0  0  0  0  0  0  0  0  0  0
    2.3919    1.4347    0.1015 H   0  0  0  0  0  0  0  0  0  0  0  0
    3.1009    0.0406   -0.7351 H   0  0  0  0  0  0  0  0  0  0  0  0
    1.1406   -1.2945   -0.4160 H   0  0  0  0  0  0  0  0  0  0  0  0
    0.0467    0.9273    1.3893 H   0  0  0  0  0  0  0  0  0  0  0  0
    0.6207   -0.7133    1.9457 H   0  0  0  0  0  0  0  0  0  0  0  0
   -1.5049   -1.4470    1.4143 H   0  0  0  0  0  0  0  0  0  0  0  0
   -2.8823    0.7293    1.0157 H   0  0  0  0  0  0  0  0  0  0  0  0
   -2.3729    1.5172   -1.4142 H   0  0  0  0  0  0  0  0  0  0  0  0
   -0.8958   -0.4035   -2.4666 H   0  0  0  0  0  0  0  0  0  0  0  0
  1  2  1  0
  2  3  1  0
  3  4  1  0
  4  5  1  0
  5  6  2  0
  6  7  1  0
  7  8  1  0
  7  9  1  0
  8  2  1  0
  9  4  1  0
  1 10  1  0
  1 11  1  0
  1 12  1  0
  2 13  1  0
  3 14  1  0
  3 15  1  0
  4 16  1  0
  5 17  1  0
  6 18  1  0
  7 19  1  0
M  END
