
     RDKit          3D

 20 21  0  0  0  0  0  0  0  0999 V2000
    1.6961    0.0664   -1.0679 C   0  0  0  0  0  0  0  0  0  0  0  0
    0.9841    0.3823    0.2170 C   0  0  0  0  0  0  0  0  0  0  0  0
    0.5622   -0.9571    0.8415 C   0  0  0  0  0  0  0  0  0  0  0  0
   -0.9399   -0.8821    0.6932 C   0  0  0  0  0  0  0  0  0  0  0  0
   -1.3403   -0.6966   -0.7272 C   0  0  0  0  0  0  0  0  0  0  0  0
   -1.0106    0.5272   -1.1255 C   0  0  0  0  0  0  0  0  0  0  0  0
   -0.2809    1.1507    0.0278 C   0  0  0  0  0  0  0  0  0  0  0  0
   -1.1416    0.5748    1.1690 C   0  0  0  0  0  0  0  0  0  0  0  0
    2.0655    0.9744   -1.5729 H   0  0  0  0  0  0  0  0  0  0  0  0
    1.0260   -0.4864   -1.7731 H   0  0  0  0  0  0  0  0  0  0  0  0
    2.5564   -0.5907   -0.8345 H   0  0  0  0  0  0  0  0  0  0  0  0
    1.6732    0.9324    0.8753 H   0  0  0  0  0  0  0  0  0  0  0  0
    1.0112   -1.7998    0.3161 H   0  0  0  0  0  0  0  0  0  0  0  0
    0.7929   -0.9610    1.9053 H   0  0  0  0  0  0  0  0  0  0  0  0
   -1.5063   -1.5941    1.2543 H   0  0  0  0  0  0  0  0  0  0  0  0
   -1.8200   -1.4405   -1.3290 H   0  0  0  0  0  0  0  0  0  0  0  0
   -1.2111    1.0106   -2.0812 H   0  0  0  0  0  0  0  0  0  0  0  0
   -0.2266    2.2125    0.0162 H   0  0  0  0  0  0  0  0  0  0  0  0
   -2.1926    0.8274    1.0538 H   0  0  0  0  0  0  0  0  0  0  0  0
   -0.6978    0.7496    2.1415 H   0  0  0  0  0  0  0  0  0  0  0  0
  1  2  1  0
  2  3  1  0
  3  4  1  0
  4  5  1  0
  5  6  2  0
  6  7  1  0
  7  8  1  0
  7  2  1  0
  8  4  1  0
  1  9  1  0
  1 10  1  0
  1 11  1  0
  2 12  1  0
  3 13  1  0
  3 14  1  0
  4 15  1  0
  5 16  1  0
  6 17  1  0
  7 18  1  0
  8 19  1  0
  8 20  1  0
M  END
