
     RDKit          3D

 19 21  0  0  0  0  0  0  0  0999 V2000
    2.0548   -0.3947    0.3678 C   0  0  0  0  0  0  0  0  0  0  0  0
    0.6803    0.1975    0.5695 C   0  0  0  0  0  0  0  0  0  0  0  0
    0.6392    1.4882   -0.1270 C   0  0  0  0  0  0  0  0  0  0  0  0
   -0.4578    1.5901   -0.8065 C   0  0  0  0  0  0  0  0  0  0  0  0
   -1.2943    0.3772   -0.6516 C   0  0  0  0  0  0  0  0  0  0  0  0
   -0.7830   -0.8343   -1.3296 C   0  0  0  0  0  0  0  0  0  0  0  0
   -0.4198   -0.6504    0.0912 C   0  0  0  0  0  0  0  0  0  0  0  0
   -1.5946   -0.8287    1.0497 C   0  0  0  0  0  0  0  0  0  0  0  0
   -2.1254    0.3294    0.4379 O   0  0  0  0  0  0  0  0  0  0  0  0
    2.0283   -1.5033    0.4629 H   0  0  0  0  0  0  0  0  0  0  0  0
    2.4322   -0.0915   -0.6499 H   0  0  0  0  0  0  0  0  0  0  0  0
    2.7271    0.0841    1.1032 H   0  0  0  0  0  0  0  0  0  0  0  0
    0.5599    0.4031    1.6572 H   0  0  0  0  0  0  0  0  0  0  0  0
    1.4485    2.2211   -0.0472 H   0  0  0  0  0  0  0  0  0  0  0  0
   -0.7485    2.4247   -1.4079 H   0  0  0  0  0  0  0  0  0  0  0  0
   -1.5189   -1.6707   -1.5072 H   0  0  0  0  0  0  0  0  0  0  0  0
   -0.0886   -0.6895   -2.1536 H   0  0  0  0  0  0  0  0  0  0  0  0
   -1.3466   -0.7103    2.1130 H   0  0  0  0  0  0  0  0  0  0  0  0
   -2.1929   -1.7419    0.8283 H   0  0  0  0  0  0  0  0  0  0  0  0
  1  2  1  0
  2  3  1  0
  3  4  2  0
  4  5  1  0
  5  6  1  0
  6  7  1  0
  7  8  1  0
  8  9  1  0
  7  2  1  0
  7  5  1  0
  9  5  1  0
  1 10  1  0
  1 11  1  0
  1 12  1  0
  2 13  1  0
  3 14  1  0
  4 15  1  0
  6 16  1  0
  6 17  1  0
  8 18  1  0
  8 19  1  0
M  END
