
     RDKit          3D

 21 21  0  0  0  0  0  0  0  0999 V2000
    2.7041    0.1371    0.2631 C   0  0  0  0  0  0  0  0  0  0  0  0
    1.3105    0.6239   -0.0789 C   0  0  0  0  0  0  0  0  0  0  0  0
    0.5478   -0.2433   -1.0367 C   0  0  0  0  0  0  0  0  0  0  0  0
   -0.4811   -0.1059    0.0374 C   0  0  0  0  0  0  0  0  0  0  0  0
   -1.1254   -1.4577    0.3223 C   0  0  0  0  0  0  0  0  0  0  0  0
   -2.0142   -1.6979   -0.6970 O   0  0  0  0  0  0  0  0  0  0  0  0
   -1.5492    0.9282   -0.1821 C   0  0  0  0  0  0  0  0  0  0  0  0
   -1.0206    2.1365   -0.6366 O   0  0  0  0  0  0  0  0  0  0  0  0
    0.4457    0.2964    0.9686 O   0  0  0  0  0  0  0  0  0  0  0  0
    2.5873   -0.9004    0.6447 H   0  0  0  0  0  0  0  0  0  0  0  0
    3.3804    0.1799   -0.6306 H   0  0  0  0  0  0  0  0  0  0  0  0
    3.0889    0.8032    1.0664 H   0  0  0  0  0  0  0  0  0  0  0  0
    1.2640    1.6758   -0.3864 H   0  0  0  0  0  0  0  0  0  0  0  0
    1.0002   -1.2571   -1.0678 H   0  0  0  0  0  0  0  0  0  0  0  0
    0.2799    0.1908   -2.0028 H   0  0  0  0  0  0  0  0  0  0  0  0
   -1.6372   -1.3404    1.3107 H   0  0  0  0  0  0  0  0  0  0  0  0
   -0.3054   -2.1838    0.3926 H   0  0  0  0  0  0  0  0  0  0  0  0
   -2.7141   -2.3452   -0.4537 H   0  0  0  0  0  0  0  0  0  0  0  0
   -2.0794    1.0739    0.7880 H   0  0  0  0  0  0  0  0  0  0  0  0
   -2.3232    0.6062   -0.9030 H   0  0  0  0  0  0  0  0  0  0  0  0
   -1.3589    2.8797   -0.0567 H   0  0  0  0  0  0  0  0  0  0  0  0
  1  2  1  0
  2  3  1  0
  3  4  1  0
  4  5  1  0
  5  6  1  0
  4  7  1  0
  7  8  1  0
  4  9  1  0
  9  2  1  0
  1 10  1  0
  1 11  1  0
  1 12  1  0
  2 13  1  0
  3 14  1  0
  3 15  1  0
  5 16  1  0
  5 17  1  0
  6 18  1  0
  7 19  1  0
  7 20  1  0
  8 21  1  0
M  END
