
     RDKit          3D

 23 25  0  0  0  0  0  0  0  0999 V2000
   -2.3683   -0.5721   -0.9034 C   0  0  0  0  0  0  0  0  0  0  0  0
   -2.0385   -0.2071    0.5139 C   0  0  0  0  0  0  0  0  0  0  0  0
   -0.9820    0.8271    0.7607 C   0  0  0  0  0  0  0  0  0  0  0  0
    0.0842    1.0768   -0.2702 C   0  0  0  0  0  0  0  0  0  0  0  0
    1.1581    0.0981    0.1285 C   0  0  0  0  0  0  0  0  0  0  0  0
    2.2975    0.5780    0.9170 C   0  0  0  0  0  0  0  0  0  0  0  0
    2.4650    0.0820   -0.5242 C   0  0  0  0  0  0  0  0  0  0  0  0
    0.3906   -1.1440    0.4728 C   0  0  0  0  0  0  0  0  0  0  0  0
   -0.8088   -0.6239    1.1846 C   0  0  0  0  0  0  0  0  0  0  0  0
   -3.4635   -0.8085   -1.0432 H   0  0  0  0  0  0  0  0  0  0  0  0
   -2.2138    0.3548   -1.5177 H   0  0  0  0  0  0  0  0  0  0  0  0
   -1.7249   -1.3396   -1.3382 H   0  0  0  0  0  0  0  0  0  0  0  0
   -2.9439   -0.1150    1.1655 H   0  0  0  0  0  0  0  0  0  0  0  0
   -1.1491    1.5886    1.5388 H   0  0  0  0  0  0  0  0  0  0  0  0
   -0.2351    0.8027   -1.3008 H   0  0  0  0  0  0  0  0  0  0  0  0
    0.4644    2.1282   -0.2200 H   0  0  0  0  0  0  0  0  0  0  0  0
    2.7943   -0.0071    1.7047 H   0  0  0  0  0  0  0  0  0  0  0  0
    2.3789    1.6876    1.0247 H   0  0  0  0  0  0  0  0  0  0  0  0
    2.6243    0.8623   -1.3157 H   0  0  0  0  0  0  0  0  0  0  0  0
    3.0413   -0.8679   -0.6259 H   0  0  0  0  0  0  0  0  0  0  0  0
    0.0856   -1.6617   -0.4516 H   0  0  0  0  0  0  0  0  0  0  0  0
    0.9870   -1.8767    1.0597 H   0  0  0  0  0  0  0  0  0  0  0  0
   -0.8432   -0.8626    2.2674 H   0  0  0  0  0  0  0  0  0  0  0  0
  1  2  1  0
  2  3  1  0
  3  4  1  0
  4  5  1  0
  5  6  1  0
  6  7  1  0
  5  8  1  0
  8  9  1  0
  9  2  1  0
  9  3  1  0
  7  5  1  0
  1 10  1  0
  1 11  1  0
  1 12  1  0
  2 13  1  0
  3 14  1  0
  4 15  1  0
  4 16  1  0
  6 17  1  0
  6 18  1  0
  7 19  1  0
  7 20  1  0
  8 21  1  0
  8 22  1  0
  9 23  1  0
M  END
