
     RDKit          3D

 16 17  0  0  0  0  0  0  0  0999 V2000
    1.9626   -0.0669    0.6150 C   0  0  0  0  0  0  0  0  0  0  0  0
    0.6995    0.0809   -0.1791 C   0  0  0  0  0  0  0  0  0  0  0  0
   -0.2230    1.0981    0.3468 C   0  0  0  0  0  0  0  0  0  0  0  0
    0.0275    1.9740    1.1249 O   0  0  0  0  0  0  0  0  0  0  0  0
   -1.5307    0.8294   -0.2749 C   0  0  0  0  0  0  0  0  0  0  0  0
   -1.5513   -0.6657   -0.4054 C   0  0  0  0  0  0  0  0  0  0  0  0
   -1.1427   -1.3589    0.7218 O   0  0  0  0  0  0  0  0  0  0  0  0
   -0.1448   -1.1606   -0.1965 C   0  0  0  0  0  0  0  0  0  0  0  0
    2.8146    0.1988   -0.0652 H   0  0  0  0  0  0  0  0  0  0  0  0
    2.1017   -1.1201    0.8925 H   0  0  0  0  0  0  0  0  0  0  0  0
    1.9864    0.6154    1.4640 H   0  0  0  0  0  0  0  0  0  0  0  0
    0.9032    0.3417   -1.2544 H   0  0  0  0  0  0  0  0  0  0  0  0
   -2.3857    1.1697    0.3464 H   0  0  0  0  0  0  0  0  0  0  0  0
   -1.6041    1.2621   -1.3143 H   0  0  0  0  0  0  0  0  0  0  0  0
   -2.1340   -1.1631   -1.1891 H   0  0  0  0  0  0  0  0  0  0  0  0
    0.2208   -2.0348   -0.8042 H   0  0  0  0  0  0  0  0  0  0  0  0
  1  2  1  0
  2  3  1  0
  3  4  2  0
  3  5  1  0
  5  6  1  0
  6  7  1  0
  7  8  1  0
  8  2  1  0
  8  6  1  0
  1  9  1  0
  1 10  1  0
  1 11  1  0
  2 12  1  0
  5 13  1  0
  5 14  1  0
  6 15  1  0
  8 16  1  0
M  END
