
     RDKit          3D

 19 20  0  0  0  0  0  0  0  0999 V2000
   -1.5760   -1.3990    0.8441 C   0  0  0  0  0  0  0  0  0  0  0  0
   -0.7073   -0.7503   -0.2485 C   0  0  0  0  0  0  0  0  0  0  0  0
   -0.8746    0.5983   -0.6660 C   0  0  0  0  0  0  0  0  0  0  0  0
    0.1364    1.6739   -0.8949 C   0  0  0  0  0  0  0  0  0  0  0  0
    0.5831    2.2490   -1.8369 O   0  0  0  0  0  0  0  0  0  0  0  0
    0.2155    1.5785    0.6029 C   0  0  0  0  0  0  0  0  0  0  0  0
    0.3364    0.0963    0.2271 C   0  0  0  0  0  0  0  0  0  0  0  0
    1.6583   -0.0963   -0.5253 C   0  0  0  0  0  0  0  0  0  0  0  0
    2.0977   -1.4311   -0.3882 O   0  0  0  0  0  0  0  0  0  0  0  0
   -1.4201   -2.4722    0.9080 H   0  0  0  0  0  0  0  0  0  0  0  0
   -2.6504   -1.2039    0.6329 H   0  0  0  0  0  0  0  0  0  0  0  0
   -1.3520   -0.9672    1.8407 H   0  0  0  0  0  0  0  0  0  0  0  0
   -0.5391   -1.5088   -1.0716 H   0  0  0  0  0  0  0  0  0  0  0  0
   -1.7007    1.1134   -0.0724 H   0  0  0  0  0  0  0  0  0  0  0  0
   -0.7267    1.8381    1.0939 H   0  0  0  0  0  0  0  0  0  0  0  0
    1.1481    1.9564    1.0369 H   0  0  0  0  0  0  0  0  0  0  0  0
    2.4059    0.4933    0.0416 H   0  0  0  0  0  0  0  0  0  0  0  0
    1.6066    0.1777   -1.5731 H   0  0  0  0  0  0  0  0  0  0  0  0
    1.3588   -1.9459    0.0488 H   0  0  0  0  0  0  0  0  0  0  0  0
  1  2  1  0
  2  3  1  0
  3  4  1  0
  4  5  2  0
  4  6  1  0
  6  7  1  0
  7  8  1  0
  8  9  1  0
  7  2  1  0
  7  3  1  0
  1 10  1  0
  1 11  1  0
  1 12  1  0
  2 13  1  0
  3 14  1  0
  6 15  1  0
  6 16  1  0
  8 17  1  0
  8 18  1  0
  9 19  1  0
M  END
