
     RDKit          3D

 15 15  0  0  0  0  0  0  0  0999 V2000
    1.8680    0.0778    0.0558 C   0  0  0  0  0  0  0  0  0  0  0  0
    0.4588    0.0689   -0.4400 C   0  0  0  0  0  0  0  0  0  0  0  0
   -0.3346   -1.0350    0.2193 C   0  0  0  0  0  0  0  0  0  0  0  0
   -1.7223   -0.5492    0.0823 C   0  0  0  0  0  0  0  0  0  0  0  0
   -1.7113    0.7670   -0.0640 C   0  0  0  0  0  0  0  0  0  0  0  0
   -0.3262    1.2530   -0.0366 C   0  0  0  0  0  0  0  0  0  0  0  0
   -0.0072    2.4214    0.2730 O   0  0  0  0  0  0  0  0  0  0  0  0
    2.5706    0.4406   -0.7449 H   0  0  0  0  0  0  0  0  0  0  0  0
    2.0216    0.5636    1.0190 H   0  0  0  0  0  0  0  0  0  0  0  0
    2.1660   -1.0022    0.2019 H   0  0  0  0  0  0  0  0  0  0  0  0
    0.4895   -0.0594   -1.5424 H   0  0  0  0  0  0  0  0  0  0  0  0
   -0.0981   -1.0395    1.3036 H   0  0  0  0  0  0  0  0  0  0  0  0
   -0.1633   -2.0200   -0.2523 H   0  0  0  0  0  0  0  0  0  0  0  0
   -2.5795   -1.2134    0.1053 H   0  0  0  0  0  0  0  0  0  0  0  0
   -2.6320    1.3265   -0.1802 H   0  0  0  0  0  0  0  0  0  0  0  0
  1  2  1  0
  2  3  1  0
  3  4  1  0
  4  5  2  0
  5  6  1  0
  6  7  2  0
  6  2  1  0
  1  8  1  0
  1  9  1  0
  1 10  1  0
  2 11  1  0
  3 12  1  0
  3 13  1  0
  4 14  1  0
  5 15  1  0
M  END
