
     RDKit          3D

 23 23  0  0  0  0  0  0  0  0999 V2000
    0.4906    2.1502   -0.2511 C   0  0  0  0  0  0  0  0  0  0  0  0
   -0.2097    0.8303   -0.3498 C   0  0  0  0  0  0  0  0  0  0  0  0
   -1.4212    0.7622    0.5095 C   0  0  0  0  0  0  0  0  0  0  0  0
   -2.0247   -0.4154    0.5883 C   0  0  0  0  0  0  0  0  0  0  0  0
   -1.4824   -1.5685   -0.1581 C   0  0  0  0  0  0  0  0  0  0  0  0
   -0.0034   -1.6004   -0.2979 C   0  0  0  0  0  0  0  0  0  0  0  0
    0.6754   -0.3182    0.1245 C   0  0  0  0  0  0  0  0  0  0  0  0
    2.0698   -0.2037   -0.3923 C   0  0  0  0  0  0  0  0  0  0  0  0
    0.7260   -0.3326    1.5310 O   0  0  0  0  0  0  0  0  0  0  0  0
    1.3442    2.1378   -0.9500 H   0  0  0  0  0  0  0  0  0  0  0  0
    0.7724    2.3562    0.7928 H   0  0  0  0  0  0  0  0  0  0  0  0
   -0.1974    2.9329   -0.5789 H   0  0  0  0  0  0  0  0  0  0  0  0
   -0.5449    0.6377   -1.3903 H   0  0  0  0  0  0  0  0  0  0  0  0
   -1.7786    1.6344    1.0355 H   0  0  0  0  0  0  0  0  0  0  0  0
   -2.9099   -0.5128    1.2018 H   0  0  0  0  0  0  0  0  0  0  0  0
   -1.9412   -1.5564   -1.1797 H   0  0  0  0  0  0  0  0  0  0  0  0
   -1.7929   -2.4996    0.3960 H   0  0  0  0  0  0  0  0  0  0  0  0
    0.4568   -2.4570    0.2680 H   0  0  0  0  0  0  0  0  0  0  0  0
    0.2983   -1.7805   -1.3610 H   0  0  0  0  0  0  0  0  0  0  0  0
    2.4998   -1.2429   -0.4261 H   0  0  0  0  0  0  0  0  0  0  0  0
    2.6688    0.3935    0.3535 H   0  0  0  0  0  0  0  0  0  0  0  0
    2.1372    0.2672   -1.3816 H   0  0  0  0  0  0  0  0  0  0  0  0
    0.1670    0.3855    1.9158 H   0  0  0  0  0  0  0  0  0  0  0  0
  1  2  1  0
  2  3  1  0
  3  4  2  0
  4  5  1  0
  5  6  1  0
  6  7  1  0
  7  8  1  0
  7  9  1  0
  7  2  1  0
  1 10  1  0
  1 11  1  0
  1 12  1  0
  2 13  1  0
  3 14  1  0
  4 15  1  0
  5 16  1  0
  5 17  1  0
  6 18  1  0
  6 19  1  0
  8 20  1  0
  8 21  1  0
  8 22  1  0
  9 23  1  0
M  END
