
     RDKit          3D

 21 22  0  0  0  0  0  0  0  0999 V2000
   -2.4085    0.9678   -0.3841 C   0  0  0  0  0  0  0  0  0  0  0  0
   -1.8355   -0.1424    0.4725 C   0  0  0  0  0  0  0  0  0  0  0  0
   -1.5426   -1.4842   -0.2331 C   0  0  0  0  0  0  0  0  0  0  0  0
   -0.4868   -0.5822    0.1652 C   0  0  0  0  0  0  0  0  0  0  0  0
    0.3758    0.2010   -0.7610 C   0  0  0  0  0  0  0  0  0  0  0  0
    1.2452    0.2040    0.4966 C   0  0  0  0  0  0  0  0  0  0  0  0
    2.6739   -0.1435    0.1468 C   0  0  0  0  0  0  0  0  0  0  0  0
    3.2810    0.9882   -0.3916 O   0  0  0  0  0  0  0  0  0  0  0  0
    0.5090   -0.8392    1.0495 O   0  0  0  0  0  0  0  0  0  0  0  0
   -1.9420    1.9553   -0.1422 H   0  0  0  0  0  0  0  0  0  0  0  0
   -3.5166    1.0507   -0.2213 H   0  0  0  0  0  0  0  0  0  0  0  0
   -2.2731    0.6925   -1.4539 H   0  0  0  0  0  0  0  0  0  0  0  0
   -2.1697   -0.2294    1.5340 H   0  0  0  0  0  0  0  0  0  0  0  0
   -1.9353   -1.5788   -1.2608 H   0  0  0  0  0  0  0  0  0  0  0  0
   -1.7221   -2.3913    0.3894 H   0  0  0  0  0  0  0  0  0  0  0  0
    0.0515    1.2432   -0.9787 H   0  0  0  0  0  0  0  0  0  0  0  0
    0.8464   -0.3435   -1.5852 H   0  0  0  0  0  0  0  0  0  0  0  0
    1.1310    1.1167    1.1139 H   0  0  0  0  0  0  0  0  0  0  0  0
    3.2337   -0.3861    1.0833 H   0  0  0  0  0  0  0  0  0  0  0  0
    2.6992   -1.0036   -0.5408 H   0  0  0  0  0  0  0  0  0  0  0  0
    3.7856    0.7049   -1.2176 H   0  0  0  0  0  0  0  0  0  0  0  0
  1  2  1  0
  2  3  1  0
  3  4  1  0
  4  5  1  0
  5  6  1  0
  6  7  1  0
  7  8  1  0
  6  9  1  0
  4  2  1  0
  9  4  1  0
  1 10  1  0
  1 11  1  0
  1 12  1  0
  2 13  1  0
  3 14  1  0
  3 15  1  0
  5 16  1  0
  5 17  1  0
  6 18  1  0
  7 19  1  0
  7 20  1  0
  8 21  1  0
M  END
