
     RDKit          3D

 20 22  0  0  0  0  0  0  0  0999 V2000
    2.3839    0.4747   -0.2602 C   0  0  0  0  0  0  0  0  0  0  0  0
    0.9121    0.5424    0.0381 C   0  0  0  0  0  0  0  0  0  0  0  0
   -0.0041    0.2856   -1.1274 C   0  0  0  0  0  0  0  0  0  0  0  0
   -1.3570    0.8984   -0.8442 C   0  0  0  0  0  0  0  0  0  0  0  0
   -2.0361   -0.0154    0.1365 C   0  0  0  0  0  0  0  0  0  0  0  0
   -1.0070   -1.0963    0.4921 C   0  0  0  0  0  0  0  0  0  0  0  0
    0.4003   -0.7370    0.6612 C   0  0  0  0  0  0  0  0  0  0  0  0
   -0.1319   -1.1309   -0.6559 C   0  0  0  0  0  0  0  0  0  0  0  0
    2.7320    1.2862   -0.9125 H   0  0  0  0  0  0  0  0  0  0  0  0
    2.6446   -0.5335   -0.6277 H   0  0  0  0  0  0  0  0  0  0  0  0
    2.9156    0.6031    0.7126 H   0  0  0  0  0  0  0  0  0  0  0  0
    0.6601    1.4376    0.6066 H   0  0  0  0  0  0  0  0  0  0  0  0
    0.4003    0.4215   -2.1257 H   0  0  0  0  0  0  0  0  0  0  0  0
   -1.9381    1.1270   -1.7352 H   0  0  0  0  0  0  0  0  0  0  0  0
   -1.1531    1.8668   -0.3053 H   0  0  0  0  0  0  0  0  0  0  0  0
   -2.8330   -0.5653   -0.4336 H   0  0  0  0  0  0  0  0  0  0  0  0
   -2.4172    0.4941    1.0209 H   0  0  0  0  0  0  0  0  0  0  0  0
   -1.4193   -1.9563    1.0283 H   0  0  0  0  0  0  0  0  0  0  0  0
    1.0625   -1.4234    1.1734 H   0  0  0  0  0  0  0  0  0  0  0  0
    0.1855   -1.9795   -1.2327 H   0  0  0  0  0  0  0  0  0  0  0  0
  1  2  1  0
  2  3  1  0
  3  4  1  0
  4  5  1  0
  5  6  1  0
  6  7  1  0
  7  8  1  0
  7  2  1  0
  8  3  1  0
  8  6  1  0
  1  9  1  0
  1 10  1  0
  1 11  1  0
  2 12  1  0
  3 13  1  0
  4 14  1  0
  4 15  1  0
  5 16  1  0
  5 17  1  0
  6 18  1  0
  7 19  1  0
  8 20  1  0
M  END
