
     RDKit          3D

 21 22  0  0  0  0  0  0  0  0999 V2000
    2.4513   -0.1723    0.1605 C   0  0  0  0  0  0  0  0  0  0  0  0
    0.9774   -0.3037    0.4304 C   0  0  0  0  0  0  0  0  0  0  0  0
    0.3345   -1.1148   -0.6382 C   0  0  0  0  0  0  0  0  0  0  0  0
   -0.9604   -1.3532   -0.7602 C   0  0  0  0  0  0  0  0  0  0  0  0
   -2.0832   -0.8995    0.0940 C   0  0  0  0  0  0  0  0  0  0  0  0
   -1.6210   -0.0763    1.1173 O   0  0  0  0  0  0  0  0  0  0  0  0
   -1.0944    1.1145    0.7466 C   0  0  0  0  0  0  0  0  0  0  0  0
   -0.5739    1.5004   -0.5453 C   0  0  0  0  0  0  0  0  0  0  0  0
    0.3799    1.0539    0.4982 C   0  0  0  0  0  0  0  0  0  0  0  0
    2.8322    0.8371    0.4038 H   0  0  0  0  0  0  0  0  0  0  0  0
    2.6061   -0.3157   -0.9291 H   0  0  0  0  0  0  0  0  0  0  0  0
    3.0170   -0.9684    0.6667 H   0  0  0  0  0  0  0  0  0  0  0  0
    0.8837   -0.8717    1.3895 H   0  0  0  0  0  0  0  0  0  0  0  0
    1.0209   -1.5323   -1.3644 H   0  0  0  0  0  0  0  0  0  0  0  0
   -1.2304   -1.9603   -1.5961 H   0  0  0  0  0  0  0  0  0  0  0  0
   -2.9111   -0.4542   -0.4798 H   0  0  0  0  0  0  0  0  0  0  0  0
   -2.4838   -1.8178    0.6064 H   0  0  0  0  0  0  0  0  0  0  0  0
   -1.4152    1.9582    1.4338 H   0  0  0  0  0  0  0  0  0  0  0  0
   -0.6449    0.9490   -1.4929 H   0  0  0  0  0  0  0  0  0  0  0  0
   -0.5092    2.6100   -0.7622 H   0  0  0  0  0  0  0  0  0  0  0  0
    1.0245    1.8170    1.0209 H   0  0  0  0  0  0  0  0  0  0  0  0
  1  2  1  0
  2  3  1  0
  3  4  2  0
  4  5  1  0
  5  6  1  0
  6  7  1  0
  7  8  1  0
  8  9  1  0
  9  2  1  0
  9  7  1  0
  1 10  1  0
  1 11  1  0
  1 12  1  0
  2 13  1  0
  3 14  1  0
  4 15  1  0
  5 16  1  0
  5 17  1  0
  7 18  1  0
  8 19  1  0
  8 20  1  0
  9 21  1  0
M  END
