
     RDKit          3D

 19 21  0  0  0  0  0  0  0  0999 V2000
    2.7382   -0.1946   -0.1274 C   0  0  0  0  0  0  0  0  0  0  0  0
    1.3622    0.2285   -0.6176 C   0  0  0  0  0  0  0  0  0  0  0  0
    0.4420    0.6832    0.4234 C   0  0  0  0  0  0  0  0  0  0  0  0
   -0.9206    1.1504   -0.1079 C   0  0  0  0  0  0  0  0  0  0  0  0
   -1.6698    1.7724    0.8659 O   0  0  0  0  0  0  0  0  0  0  0  0
   -1.1875   -0.2818   -0.3800 C   0  0  0  0  0  0  0  0  0  0  0  0
   -2.2157   -1.1014    0.0811 C   0  0  0  0  0  0  0  0  0  0  0  0
   -2.0989   -0.7391   -1.2619 O   0  0  0  0  0  0  0  0  0  0  0  0
    0.2366   -0.6614   -0.3464 C   0  0  0  0  0  0  0  0  0  0  0  0
    3.2503   -0.8749   -0.8065 H   0  0  0  0  0  0  0  0  0  0  0  0
    2.5631   -0.7017    0.8613 H   0  0  0  0  0  0  0  0  0  0  0  0
    3.3284    0.7385    0.0778 H   0  0  0  0  0  0  0  0  0  0  0  0
    1.4290    0.8564   -1.5421 H   0  0  0  0  0  0  0  0  0  0  0  0
    0.5757    0.5612    1.4911 H   0  0  0  0  0  0  0  0  0  0  0  0
   -0.7551    1.8115   -0.9794 H   0  0  0  0  0  0  0  0  0  0  0  0
   -2.4734    1.2223    1.0274 H   0  0  0  0  0  0  0  0  0  0  0  0
   -2.0090   -2.1798    0.3506 H   0  0  0  0  0  0  0  0  0  0  0  0
   -3.0620   -0.7053    0.6805 H   0  0  0  0  0  0  0  0  0  0  0  0
    0.4664   -1.5847    0.2395 H   0  0  0  0  0  0  0  0  0  0  0  0
  1  2  1  0
  2  3  1  0
  3  4  1  0
  4  5  1  0
  4  6  1  0
  6  7  1  0
  7  8  1  0
  6  9  1  0
  9  2  1  0
  9  3  1  0
  8  6  1  0
  1 10  1  0
  1 11  1  0
  1 12  1  0
  2 13  1  0
  3 14  1  0
  4 15  1  0
  5 16  1  0
  7 17  1  0
  7 18  1  0
  9 19  1  0
M  END
