
     RDKit          3D

 21 22  0  0  0  0  0  0  0  0999 V2000
    1.8772   -0.3869    0.2359 C   0  0  0  0  0  0  0  0  0  0  0  0
    0.6443   -0.1715   -0.5608 C   0  0  0  0  0  0  0  0  0  0  0  0
   -0.3222   -1.3678   -0.4738 C   0  0  0  0  0  0  0  0  0  0  0  0
   -1.5134   -0.7183   -1.1407 C   0  0  0  0  0  0  0  0  0  0  0  0
   -1.5264    0.5428   -0.7162 C   0  0  0  0  0  0  0  0  0  0  0  0
   -0.3569    0.7551    0.1608 C   0  0  0  0  0  0  0  0  0  0  0  0
    0.1120    2.1266    0.3149 C   0  0  0  0  0  0  0  0  0  0  0  0
   -0.5482    0.0390    1.3359 O   0  0  0  0  0  0  0  0  0  0  0  0
   -0.6074   -1.3136    0.9998 C   0  0  0  0  0  0  0  0  0  0  0  0
    2.7010    0.2471   -0.2035 H   0  0  0  0  0  0  0  0  0  0  0  0
    2.2151   -1.4427    0.0593 H   0  0  0  0  0  0  0  0  0  0  0  0
    1.7979   -0.1368    1.3040 H   0  0  0  0  0  0  0  0  0  0  0  0
    0.7850    0.1690   -1.5834 H   0  0  0  0  0  0  0  0  0  0  0  0
    0.0197   -2.2650   -0.8990 H   0  0  0  0  0  0  0  0  0  0  0  0
   -2.1647   -1.2370   -1.8063 H   0  0  0  0  0  0  0  0  0  0  0  0
   -2.2884    1.2486   -0.9975 H   0  0  0  0  0  0  0  0  0  0  0  0
    1.2004    2.1133    0.5796 H   0  0  0  0  0  0  0  0  0  0  0  0
   -0.3948    2.6155    1.1661 H   0  0  0  0  0  0  0  0  0  0  0  0
   -0.1017    2.7167   -0.5898 H   0  0  0  0  0  0  0  0  0  0  0  0
    0.1244   -1.8837    1.6012 H   0  0  0  0  0  0  0  0  0  0  0  0
   -1.6530   -1.6504    1.2134 H   0  0  0  0  0  0  0  0  0  0  0  0
  1  2  1  0
  2  3  1  0
  3  4  1  0
  4  5  2  0
  5  6  1  0
  6  7  1  0
  6  8  1  0
  8  9  1  0
  6  2  1  0
  9  3  1  0
  1 10  1  0
  1 11  1  0
  1 12  1  0
  2 13  1  0
  3 14  1  0
  4 15  1  0
  5 16  1  0
  7 17  1  0
  7 18  1  0
  7 19  1  0
  9 20  1  0
  9 21  1  0
M  END
