
     RDKit          3D

 23 24  0  0  0  0  0  0  0  0999 V2000
   -3.2568    0.3943    0.3064 C   0  0  0  0  0  0  0  0  0  0  0  0
   -1.8972    0.3535   -0.3654 C   0  0  0  0  0  0  0  0  0  0  0  0
   -1.5829   -0.8759   -1.1602 C   0  0  0  0  0  0  0  0  0  0  0  0
   -0.8945   -0.5681    0.1719 C   0  0  0  0  0  0  0  0  0  0  0  0
    0.5775   -0.2570    0.0746 C   0  0  0  0  0  0  0  0  0  0  0  0
    1.5100   -0.9499   -0.5225 C   0  0  0  0  0  0  0  0  0  0  0  0
    2.8552   -0.2806   -0.3788 C   0  0  0  0  0  0  0  0  0  0  0  0
    2.6211    0.5376    0.8910 C   0  0  0  0  0  0  0  0  0  0  0  0
    1.1832    0.9473    0.6736 C   0  0  0  0  0  0  0  0  0  0  0  0
   -3.8900   -0.4719    0.0397 H   0  0  0  0  0  0  0  0  0  0  0  0
   -3.8146    1.3224    0.0822 H   0  0  0  0  0  0  0  0  0  0  0  0
   -3.1316    0.3412    1.4194 H   0  0  0  0  0  0  0  0  0  0  0  0
   -1.6131    1.3149   -0.8327 H   0  0  0  0  0  0  0  0  0  0  0  0
   -2.3245   -1.6867   -1.1952 H   0  0  0  0  0  0  0  0  0  0  0  0
   -0.9696   -0.7560   -2.0933 H   0  0  0  0  0  0  0  0  0  0  0  0
   -1.2043   -1.1998    1.0411 H   0  0  0  0  0  0  0  0  0  0  0  0
    1.3495   -1.8788   -1.0510 H   0  0  0  0  0  0  0  0  0  0  0  0
    3.0295    0.4481   -1.1868 H   0  0  0  0  0  0  0  0  0  0  0  0
    3.6327   -1.0342   -0.2554 H   0  0  0  0  0  0  0  0  0  0  0  0
    3.3133    1.3743    0.9888 H   0  0  0  0  0  0  0  0  0  0  0  0
    2.6152   -0.1446    1.7861 H   0  0  0  0  0  0  0  0  0  0  0  0
    0.6882    1.2577    1.6174 H   0  0  0  0  0  0  0  0  0  0  0  0
    1.2036    1.8122   -0.0510 H   0  0  0  0  0  0  0  0  0  0  0  0
  1  2  1  0
  2  3  1  0
  3  4  1  0
  4  5  1  0
  5  6  2  0
  6  7  1  0
  7  8  1  0
  8  9  1  0
  4  2  1  0
  9  5  1  0
  1 10  1  0
  1 11  1  0
  1 12  1  0
  2 13  1  0
  3 14  1  0
  3 15  1  0
  4 16  1  0
  6 17  1  0
  7 18  1  0
  7 19  1  0
  8 20  1  0
  8 21  1  0
  9 22  1  0
  9 23  1  0
M  END
