
     RDKit          3D

 21 21  0  0  0  0  0  0  0  0999 V2000
   -2.1960    0.6305    1.0820 C   0  0  0  0  0  0  0  0  0  0  0  0
   -1.1505    0.4334    0.0204 C   0  0  0  0  0  0  0  0  0  0  0  0
   -1.0529   -1.0291   -0.4064 C   0  0  0  0  0  0  0  0  0  0  0  0
    0.0046   -1.0587   -1.4686 C   0  0  0  0  0  0  0  0  0  0  0  0
    1.2586   -0.7325   -1.0419 O   0  0  0  0  0  0  0  0  0  0  0  0
    1.3757    0.3843   -0.2612 C   0  0  0  0  0  0  0  0  0  0  0  0
    2.6025    0.1760    0.6231 C   0  0  0  0  0  0  0  0  0  0  0  0
    0.2076    0.7644    0.5089 C   0  0  0  0  0  0  0  0  0  0  0  0
    0.2987    1.3548    1.5590 O   0  0  0  0  0  0  0  0  0  0  0  0
   -2.1135    1.6837    1.4224 H   0  0  0  0  0  0  0  0  0  0  0  0
   -2.0225   -0.0814    1.9036 H   0  0  0  0  0  0  0  0  0  0  0  0
   -3.1881    0.4799    0.6177 H   0  0  0  0  0  0  0  0  0  0  0  0
   -1.3897    1.0635   -0.8567 H   0  0  0  0  0  0  0  0  0  0  0  0
   -0.7167   -1.6313    0.4638 H   0  0  0  0  0  0  0  0  0  0  0  0
   -1.9961   -1.3892   -0.8409 H   0  0  0  0  0  0  0  0  0  0  0  0
   -0.3426   -0.4550   -2.3260 H   0  0  0  0  0  0  0  0  0  0  0  0
    0.0510   -2.1218   -1.8437 H   0  0  0  0  0  0  0  0  0  0  0  0
    1.6474    1.2529   -0.9299 H   0  0  0  0  0  0  0  0  0  0  0  0
    3.0888    1.1292    0.8908 H   0  0  0  0  0  0  0  0  0  0  0  0
    2.2684   -0.4073    1.5061 H   0  0  0  0  0  0  0  0  0  0  0  0
    3.3652   -0.4463    0.1069 H   0  0  0  0  0  0  0  0  0  0  0  0
  1  2  1  0
  2  3  1  0
  3  4  1  0
  4  5  1  0
  5  6  1  0
  6  7  1  0
  6  8  1  0
  8  9  2  0
  8  2  1  0
  1 10  1  0
  1 11  1  0
  1 12  1  0
  2 13  1  0
  3 14  1  0
  3 15  1  0
  4 16  1  0
  4 17  1  0
  6 18  1  0
  7 19  1  0
  7 20  1  0
  7 21  1  0
M  END
