
     RDKit          3D

 21 22  0  0  0  0  0  0  0  0999 V2000
    2.5777    0.1808    0.8077 C   0  0  0  0  0  0  0  0  0  0  0  0
    1.4259    0.0348   -0.1239 C   0  0  0  0  0  0  0  0  0  0  0  0
    0.4216   -1.0634    0.2545 C   0  0  0  0  0  0  0  0  0  0  0  0
   -0.6359   -0.1278   -0.0827 C   0  0  0  0  0  0  0  0  0  0  0  0
   -1.3386   -0.2329   -1.3978 C   0  0  0  0  0  0  0  0  0  0  0  0
   -2.5245    0.3297   -0.7126 C   0  0  0  0  0  0  0  0  0  0  0  0
   -3.5196    0.9198   -1.0455 O   0  0  0  0  0  0  0  0  0  0  0  0
   -1.9498   -0.1521    0.5650 C   0  0  0  0  0  0  0  0  0  0  0  0
    0.2746    1.0228    0.1253 C   0  0  0  0  0  0  0  0  0  0  0  0
    2.4448    1.1167    1.3839 H   0  0  0  0  0  0  0  0  0  0  0  0
    2.7728   -0.7049    1.4437 H   0  0  0  0  0  0  0  0  0  0  0  0
    3.4988    0.3441    0.1757 H   0  0  0  0  0  0  0  0  0  0  0  0
    1.6503    0.0443   -1.2117 H   0  0  0  0  0  0  0  0  0  0  0  0
    0.5179   -1.2183    1.3667 H   0  0  0  0  0  0  0  0  0  0  0  0
    0.6177   -1.9411   -0.3552 H   0  0  0  0  0  0  0  0  0  0  0  0
   -0.8587    0.3859   -2.1556 H   0  0  0  0  0  0  0  0  0  0  0  0
   -1.4715   -1.2667   -1.7841 H   0  0  0  0  0  0  0  0  0  0  0  0
   -2.2685   -1.1965    0.8358 H   0  0  0  0  0  0  0  0  0  0  0  0
   -2.0623    0.5085    1.4346 H   0  0  0  0  0  0  0  0  0  0  0  0
    0.1553    1.7750   -0.6778 H   0  0  0  0  0  0  0  0  0  0  0  0
    0.2719    1.4210    1.1541 H   0  0  0  0  0  0  0  0  0  0  0  0
  1  2  1  0
  2  3  1  0
  3  4  1  0
  4  5  1  0
  5  6  1  0
  6  7  2  0
  6  8  1  0
  4  9  1  0
  9  2  1  0
  8  4  1  0
  1 10  1  0
  1 11  1  0
  1 12  1  0
  2 13  1  0
  3 14  1  0
  3 15  1  0
  5 16  1  0
  5 17  1  0
  8 18  1  0
  8 19  1  0
  9 20  1  0
  9 21  1  0
M  END
