
     RDKit          3D

 21 22  0  0  0  0  0  0  0  0999 V2000
    2.0949    0.8137   -0.1691 C   0  0  0  0  0  0  0  0  0  0  0  0
    0.9731   -0.1287    0.1729 C   0  0  0  0  0  0  0  0  0  0  0  0
   -0.2182    0.5021    0.8589 C   0  0  0  0  0  0  0  0  0  0  0  0
   -1.0455   -0.5715    1.4761 C   0  0  0  0  0  0  0  0  0  0  0  0
   -1.2202   -1.6701    0.7163 O   0  0  0  0  0  0  0  0  0  0  0  0
   -0.7372   -1.6880   -0.5424 C   0  0  0  0  0  0  0  0  0  0  0  0
    0.0290   -0.4522   -0.9542 C   0  0  0  0  0  0  0  0  0  0  0  0
   -0.8016    0.7374   -0.5411 C   0  0  0  0  0  0  0  0  0  0  0  0
   -0.4998    1.9382   -1.1087 O   0  0  0  0  0  0  0  0  0  0  0  0
    1.7708    1.7708   -0.5824 H   0  0  0  0  0  0  0  0  0  0  0  0
    2.7838    0.2975   -0.8644 H   0  0  0  0  0  0  0  0  0  0  0  0
    2.6805    0.9627    0.7745 H   0  0  0  0  0  0  0  0  0  0  0  0
    1.3798   -1.0113    0.7089 H   0  0  0  0  0  0  0  0  0  0  0  0
   -0.0423    1.3876    1.4480 H   0  0  0  0  0  0  0  0  0  0  0  0
   -0.6695   -0.8804    2.4817 H   0  0  0  0  0  0  0  0  0  0  0  0
   -2.0612   -0.1228    1.6881 H   0  0  0  0  0  0  0  0  0  0  0  0
   -0.0675   -2.5852   -0.6535 H   0  0  0  0  0  0  0  0  0  0  0  0
   -1.5419   -1.8243   -1.3102 H   0  0  0  0  0  0  0  0  0  0  0  0
    0.4166   -0.4787   -1.9558 H   0  0  0  0  0  0  0  0  0  0  0  0
   -1.8972    0.4918   -0.5840 H   0  0  0  0  0  0  0  0  0  0  0  0
   -1.3264    2.5115   -1.0594 H   0  0  0  0  0  0  0  0  0  0  0  0
  1  2  1  0
  2  3  1  0
  3  4  1  0
  4  5  1  0
  5  6  1  0
  6  7  1  0
  7  8  1  0
  8  9  1  0
  7  2  1  0
  8  3  1  0
  1 10  1  0
  1 11  1  0
  1 12  1  0
  2 13  1  0
  3 14  1  0
  4 15  1  0
  4 16  1  0
  6 17  1  0
  6 18  1  0
  7 19  1  0
  8 20  1  0
  9 21  1  0
M  END
