
     RDKit          3D

 17 17  0  0  0  0  0  0  0  0999 V2000
   -0.0376   -1.6271   -0.7578 C   0  0  0  0  0  0  0  0  0  0  0  0
   -0.1052   -0.7276    0.4576 C   0  0  0  0  0  0  0  0  0  0  0  0
   -1.4314   -0.1159    0.6413 C   0  0  0  0  0  0  0  0  0  0  0  0
   -2.3358   -0.5148    1.3055 O   0  0  0  0  0  0  0  0  0  0  0  0
   -1.4150    1.1069   -0.1734 C   0  0  0  0  0  0  0  0  0  0  0  0
   -0.0025    1.5245   -0.0954 C   0  0  0  0  0  0  0  0  0  0  0  0
    0.7292    0.4952    0.2576 C   0  0  0  0  0  0  0  0  0  0  0  0
    2.1638    0.5257    0.4349 C   0  0  0  0  0  0  0  0  0  0  0  0
    2.7788   -0.5047    0.7731 O   0  0  0  0  0  0  0  0  0  0  0  0
   -0.6966   -1.3000   -1.5668 H   0  0  0  0  0  0  0  0  0  0  0  0
    1.0180   -1.6303   -1.0928 H   0  0  0  0  0  0  0  0  0  0  0  0
   -0.2668   -2.6552   -0.4301 H   0  0  0  0  0  0  0  0  0  0  0  0
    0.2666   -1.2903    1.3146 H   0  0  0  0  0  0  0  0  0  0  0  0
   -2.1129    1.8867    0.1977 H   0  0  0  0  0  0  0  0  0  0  0  0
   -1.6167    0.8480   -1.2376 H   0  0  0  0  0  0  0  0  0  0  0  0
    0.3625    2.5412   -0.3034 H   0  0  0  0  0  0  0  0  0  0  0  0
    2.7016    1.4376    0.2750 H   0  0  0  0  0  0  0  0  0  0  0  0
  1  2  1  0
  2  3  1  0
  3  4  2  0
  3  5  1  0
  5  6  1  0
  6  7  2  0
  7  8  1  0
  8  9  2  0
  7  2  1  0
  1 10  1  0
  1 11  1  0
  1 12  1  0
  2 13  1  0
  5 14  1  0
  5 15  1  0
  6 16  1  0
  8 17  1  0
M  END
