
     RDKit          3D

 23 23  0  0  0  0  0  0  0  0999 V2000
   -2.4494   -0.4906   -0.3772 C   0  0  0  0  0  0  0  0  0  0  0  0
   -0.9612   -0.1214   -0.3139 C   0  0  0  0  0  0  0  0  0  0  0  0
   -0.0881   -1.3207   -0.2359 C   0  0  0  0  0  0  0  0  0  0  0  0
    1.1611   -1.1406    0.5567 C   0  0  0  0  0  0  0  0  0  0  0  0
    2.1446   -0.2265   -0.1678 C   0  0  0  0  0  0  0  0  0  0  0  0
    1.4184    1.0151   -0.4963 C   0  0  0  0  0  0  0  0  0  0  0  0
    1.6707    1.4680   -1.6009 O   0  0  0  0  0  0  0  0  0  0  0  0
    0.4452    1.7614    0.3282 C   0  0  0  0  0  0  0  0  0  0  0  0
   -0.7309    0.8972    0.7511 C   0  0  0  0  0  0  0  0  0  0  0  0
   -2.9778    0.4850   -0.5630 H   0  0  0  0  0  0  0  0  0  0  0  0
   -2.7871   -1.0017    0.5223 H   0  0  0  0  0  0  0  0  0  0  0  0
   -2.5950   -1.0784   -1.3060 H   0  0  0  0  0  0  0  0  0  0  0  0
   -0.7646    0.3949   -1.2996 H   0  0  0  0  0  0  0  0  0  0  0  0
    0.2219   -1.6324   -1.2731 H   0  0  0  0  0  0  0  0  0  0  0  0
   -0.6320   -2.2088    0.1788 H   0  0  0  0  0  0  0  0  0  0  0  0
    1.6270   -2.1584    0.6749 H   0  0  0  0  0  0  0  0  0  0  0  0
    1.0259   -0.7462    1.5604 H   0  0  0  0  0  0  0  0  0  0  0  0
    2.9620    0.0008    0.5548 H   0  0  0  0  0  0  0  0  0  0  0  0
    2.5854   -0.7374   -1.0241 H   0  0  0  0  0  0  0  0  0  0  0  0
    0.0308    2.6130   -0.2456 H   0  0  0  0  0  0  0  0  0  0  0  0
    0.9537    2.2058    1.2179 H   0  0  0  0  0  0  0  0  0  0  0  0
   -1.6543    1.5382    0.7980 H   0  0  0  0  0  0  0  0  0  0  0  0
   -0.6063    0.4835    1.7603 H   0  0  0  0  0  0  0  0  0  0  0  0
  1  2  1  0
  2  3  1  0
  3  4  1  0
  4  5  1  0
  5  6  1  0
  6  7  2  0
  6  8  1  0
  8  9  1  0
  9  2  1  0
  1 10  1  0
  1 11  1  0
  1 12  1  0
  2 13  1  0
  3 14  1  0
  3 15  1  0
  4 16  1  0
  4 17  1  0
  5 18  1  0
  5 19  1  0
  8 20  1  0
  8 21  1  0
  9 22  1  0
  9 23  1  0
M  END
