
     RDKit          3D

 16 16  0  0  0  0  0  0  0  0999 V2000
   -1.7351    0.4940   -0.3008 C   0  0  0  0  0  0  0  0  0  0  0  0
   -0.6063   -0.4685   -0.3474 C   0  0  0  0  0  0  0  0  0  0  0  0
   -0.0856   -0.9633    0.9442 C   0  0  0  0  0  0  0  0  0  0  0  0
   -0.5623   -1.1510    2.0356 O   0  0  0  0  0  0  0  0  0  0  0  0
    1.2426   -1.0997    0.2443 C   0  0  0  0  0  0  0  0  0  0  0  0
    0.7737    0.1194   -0.5668 C   0  0  0  0  0  0  0  0  0  0  0  0
    1.0477    1.3410    0.1779 C   0  0  0  0  0  0  0  0  0  0  0  0
    1.8966    2.1220   -0.1882 O   0  0  0  0  0  0  0  0  0  0  0  0
   -1.4995    1.4899    0.0832 H   0  0  0  0  0  0  0  0  0  0  0  0
   -2.1369    0.6188   -1.3222 H   0  0  0  0  0  0  0  0  0  0  0  0
   -2.5527    0.0844    0.3321 H   0  0  0  0  0  0  0  0  0  0  0  0
   -0.7948   -1.2832   -1.0727 H   0  0  0  0  0  0  0  0  0  0  0  0
    2.1159   -0.9255    0.8688 H   0  0  0  0  0  0  0  0  0  0  0  0
    1.2204   -2.0044   -0.3777 H   0  0  0  0  0  0  0  0  0  0  0  0
    1.1685    0.0388   -1.5823 H   0  0  0  0  0  0  0  0  0  0  0  0
    0.5077    1.5872    1.0720 H   0  0  0  0  0  0  0  0  0  0  0  0
  1  2  1  0
  2  3  1  0
  3  4  2  0
  3  5  1  0
  5  6  1  0
  6  7  1  0
  7  8  2  0
  6  2  1  0
  1  9  1  0
  1 10  1  0
  1 11  1  0
  2 12  1  0
  5 13  1  0
  5 14  1  0
  6 15  1  0
  7 16  1  0
M  END
