
     RDKit          3D

 21 22  0  0  0  0  0  0  0  0999 V2000
    0.7115    2.0804    0.1076 C   0  0  0  0  0  0  0  0  0  0  0  0
    0.1533    0.7172    0.4764 C   0  0  0  0  0  0  0  0  0  0  0  0
    1.0316   -0.3163   -0.2564 C   0  0  0  0  0  0  0  0  0  0  0  0
    1.6580   -1.1657    0.7918 C   0  0  0  0  0  0  0  0  0  0  0  0
    2.7208   -1.7204    0.5884 O   0  0  0  0  0  0  0  0  0  0  0  0
   -0.0021   -1.1955   -0.9889 C   0  0  0  0  0  0  0  0  0  0  0  0
   -1.1041   -1.0801   -0.0087 C   0  0  0  0  0  0  0  0  0  0  0  0
   -2.2684   -0.3128    0.0996 C   0  0  0  0  0  0  0  0  0  0  0  0
   -1.1529    0.4964   -0.1677 C   0  0  0  0  0  0  0  0  0  0  0  0
   -0.0240    2.8832    0.2357 H   0  0  0  0  0  0  0  0  0  0  0  0
    1.6532    2.2379    0.6381 H   0  0  0  0  0  0  0  0  0  0  0  0
    0.9623    2.0085   -0.9906 H   0  0  0  0  0  0  0  0  0  0  0  0
    0.1846    0.5761    1.5618 H   0  0  0  0  0  0  0  0  0  0  0  0
    1.7335    0.1456   -0.9331 H   0  0  0  0  0  0  0  0  0  0  0  0
    1.2008   -1.3225    1.7630 H   0  0  0  0  0  0  0  0  0  0  0  0
   -0.2196   -0.6460   -1.9402 H   0  0  0  0  0  0  0  0  0  0  0  0
    0.4024   -2.1889   -1.1501 H   0  0  0  0  0  0  0  0  0  0  0  0
   -0.6927   -1.4441    0.9892 H   0  0  0  0  0  0  0  0  0  0  0  0
   -3.0738   -0.4432   -0.6770 H   0  0  0  0  0  0  0  0  0  0  0  0
   -2.7814   -0.1848    1.0982 H   0  0  0  0  0  0  0  0  0  0  0  0
   -1.0931    0.8750   -1.2370 H   0  0  0  0  0  0  0  0  0  0  0  0
  1  2  1  0
  2  3  1  0
  3  4  1  0
  4  5  2  0
  3  6  1  0
  6  7  1  0
  7  8  1  0
  8  9  1  0
  9  2  1  0
  9  7  1  0
  1 10  1  0
  1 11  1  0
  1 12  1  0
  2 13  1  0
  3 14  1  0
  4 15  1  0
  6 16  1  0
  6 17  1  0
  7 18  1  0
  8 19  1  0
  8 20  1  0
  9 21  1  0
M  END
