
     RDKit          3D

 21 21  0  0  0  0  0  0  0  0999 V2000
    1.5986    0.6663    0.6857 C   0  0  0  0  0  0  0  0  0  0  0  0
    0.9390    0.4498   -0.6237 C   0  0  0  0  0  0  0  0  0  0  0  0
    1.1599   -0.8549   -1.3137 C   0  0  0  0  0  0  0  0  0  0  0  0
   -0.2019   -0.8736   -1.6328 O   0  0  0  0  0  0  0  0  0  0  0  0
   -0.4523   -0.1515   -0.4931 C   0  0  0  0  0  0  0  0  0  0  0  0
   -0.6166   -1.0776    0.6889 C   0  0  0  0  0  0  0  0  0  0  0  0
   -1.6904   -1.9200    0.4084 O   0  0  0  0  0  0  0  0  0  0  0  0
   -1.4753    0.9451   -0.5929 C   0  0  0  0  0  0  0  0  0  0  0  0
   -1.0004    1.8431   -1.5657 O   0  0  0  0  0  0  0  0  0  0  0  0
    2.4005   -0.0632    0.9198 H   0  0  0  0  0  0  0  0  0  0  0  0
    0.8085    0.6761    1.4754 H   0  0  0  0  0  0  0  0  0  0  0  0
    2.0868    1.6788    0.6862 H   0  0  0  0  0  0  0  0  0  0  0  0
    0.9214    1.2806   -1.3399 H   0  0  0  0  0  0  0  0  0  0  0  0
    1.7331   -0.7862   -2.2765 H   0  0  0  0  0  0  0  0  0  0  0  0
    1.5147   -1.6897   -0.6995 H   0  0  0  0  0  0  0  0  0  0  0  0
    0.2971   -1.6147    0.9360 H   0  0  0  0  0  0  0  0  0  0  0  0
   -0.9475   -0.4456    1.5566 H   0  0  0  0  0  0  0  0  0  0  0  0
   -1.4155   -2.6481   -0.2270 H   0  0  0  0  0  0  0  0  0  0  0  0
   -1.4950    1.4481    0.4159 H   0  0  0  0  0  0  0  0  0  0  0  0
   -2.4914    0.6036   -0.7902 H   0  0  0  0  0  0  0  0  0  0  0  0
   -1.6733    2.5336   -1.7842 H   0  0  0  0  0  0  0  0  0  0  0  0
  1  2  1  0
  2  3  1  0
  3  4  1  0
  4  5  1  0
  5  6  1  0
  6  7  1  0
  5  8  1  0
  8  9  1  0
  5  2  1  0
  1 10  1  0
  1 11  1  0
  1 12  1  0
  2 13  1  0
  3 14  1  0
  3 15  1  0
  6 16  1  0
  6 17  1  0
  7 18  1  0
  8 19  1  0
  8 20  1  0
  9 21  1  0
M  END
