
     RDKit          3D

 21 21  0  0  0  0  0  0  0  0999 V2000
   -1.5401    1.3606    0.7647 C   0  0  0  0  0  0  0  0  0  0  0  0
   -0.8953    0.5065   -0.3312 C   0  0  0  0  0  0  0  0  0  0  0  0
   -1.8753   -0.4642   -0.9115 C   0  0  0  0  0  0  0  0  0  0  0  0
   -2.8829   -0.3073   -1.5883 O   0  0  0  0  0  0  0  0  0  0  0  0
   -1.0955   -1.5753   -0.3190 C   0  0  0  0  0  0  0  0  0  0  0  0
   -0.1370   -0.6291    0.2911 C   0  0  0  0  0  0  0  0  0  0  0  0
    1.2962   -0.6942   -0.1737 C   0  0  0  0  0  0  0  0  0  0  0  0
    1.9334    0.6221    0.2273 C   0  0  0  0  0  0  0  0  0  0  0  0
    3.2684    0.6909   -0.1471 O   0  0  0  0  0  0  0  0  0  0  0  0
   -1.8863    0.6685    1.5634 H   0  0  0  0  0  0  0  0  0  0  0  0
   -0.7743    2.0620    1.1518 H   0  0  0  0  0  0  0  0  0  0  0  0
   -2.4063    1.8944    0.2931 H   0  0  0  0  0  0  0  0  0  0  0  0
   -0.3978    1.0713   -1.1225 H   0  0  0  0  0  0  0  0  0  0  0  0
   -1.7208   -2.0841    0.4544 H   0  0  0  0  0  0  0  0  0  0  0  0
   -0.6932   -2.3095   -1.0429 H   0  0  0  0  0  0  0  0  0  0  0  0
   -0.1427   -0.6398    1.4145 H   0  0  0  0  0  0  0  0  0  0  0  0
    1.4157   -0.9277   -1.2297 H   0  0  0  0  0  0  0  0  0  0  0  0
    1.8161   -1.4814    0.4413 H   0  0  0  0  0  0  0  0  0  0  0  0
    1.3435    1.4729   -0.1385 H   0  0  0  0  0  0  0  0  0  0  0  0
    1.9285    0.6278    1.3536 H   0  0  0  0  0  0  0  0  0  0  0  0
    3.4457    0.1356   -0.9506 H   0  0  0  0  0  0  0  0  0  0  0  0
  1  2  1  0
  2  3  1  0
  3  4  2  0
  3  5  1  0
  5  6  1  0
  6  7  1  0
  7  8  1  0
  8  9  1  0
  6  2  1  0
  1 10  1  0
  1 11  1  0
  1 12  1  0
  2 13  1  0
  5 14  1  0
  5 15  1  0
  6 16  1  0
  7 17  1  0
  7 18  1  0
  8 19  1  0
  8 20  1  0
  9 21  1  0
M  END
