
     RDKit          3D

 19 21  0  0  0  0  0  0  0  0999 V2000
    1.9190    0.8240    0.3198 C   0  0  0  0  0  0  0  0  0  0  0  0
    0.6857    0.2638   -0.2907 C   0  0  0  0  0  0  0  0  0  0  0  0
    0.8977   -1.1660   -0.8089 C   0  0  0  0  0  0  0  0  0  0  0  0
   -0.3942   -1.5873   -0.9849 O   0  0  0  0  0  0  0  0  0  0  0  0
   -1.1970   -1.0630   -0.0268 C   0  0  0  0  0  0  0  0  0  0  0  0
   -2.0787    0.0984   -0.4094 C   0  0  0  0  0  0  0  0  0  0  0  0
   -2.8288    0.5694    0.6288 O   0  0  0  0  0  0  0  0  0  0  0  0
   -1.5213    0.9093    0.7742 C   0  0  0  0  0  0  0  0  0  0  0  0
   -0.3882   -0.0421    0.7637 C   0  0  0  0  0  0  0  0  0  0  0  0
    2.4600    0.0028    0.8678 H   0  0  0  0  0  0  0  0  0  0  0  0
    2.5830    1.1819   -0.4621 H   0  0  0  0  0  0  0  0  0  0  0  0
    1.6820    1.6599    0.9874 H   0  0  0  0  0  0  0  0  0  0  0  0
    0.2515    0.8312   -1.1058 H   0  0  0  0  0  0  0  0  0  0  0  0
    1.4521   -1.1456   -1.7596 H   0  0  0  0  0  0  0  0  0  0  0  0
    1.4502   -1.7655   -0.0578 H   0  0  0  0  0  0  0  0  0  0  0  0
   -1.7365   -1.7530    0.6258 H   0  0  0  0  0  0  0  0  0  0  0  0
   -1.9751    0.6039   -1.3639 H   0  0  0  0  0  0  0  0  0  0  0  0
   -1.2786    1.9779    0.5918 H   0  0  0  0  0  0  0  0  0  0  0  0
    0.0173   -0.4002    1.7107 H   0  0  0  0  0  0  0  0  0  0  0  0
  1  2  1  0
  2  3  1  0
  3  4  1  0
  4  5  1  0
  5  6  1  0
  6  7  1  0
  7  8  1  0
  8  9  1  0
  9  2  1  0
  9  5  1  0
  8  6  1  0
  1 10  1  0
  1 11  1  0
  1 12  1  0
  2 13  1  0
  3 14  1  0
  3 15  1  0
  5 16  1  0
  6 17  1  0
  8 18  1  0
  9 19  1  0
M  END
