
     RDKit          3D

 21 21  0  0  0  0  0  0  0  0999 V2000
   -1.9979    0.9149    0.1177 C   0  0  0  0  0  0  0  0  0  0  0  0
   -0.6200    0.5809   -0.3289 C   0  0  0  0  0  0  0  0  0  0  0  0
    0.4465    0.8766    0.6935 C   0  0  0  0  0  0  0  0  0  0  0  0
    1.5960    0.0086    0.2713 C   0  0  0  0  0  0  0  0  0  0  0  0
    2.5905    0.8391   -0.2461 O   0  0  0  0  0  0  0  0  0  0  0  0
    1.1171   -0.8720   -0.8487 C   0  0  0  0  0  0  0  0  0  0  0  0
   -0.3973   -0.8838   -0.5905 C   0  0  0  0  0  0  0  0  0  0  0  0
   -0.6411   -1.7420    0.5699 C   0  0  0  0  0  0  0  0  0  0  0  0
   -1.7622   -2.1524    0.7961 O   0  0  0  0  0  0  0  0  0  0  0  0
   -2.3217    0.2322    0.9072 H   0  0  0  0  0  0  0  0  0  0  0  0
   -2.0019    1.9658    0.4744 H   0  0  0  0  0  0  0  0  0  0  0  0
   -2.6621    0.8989   -0.7772 H   0  0  0  0  0  0  0  0  0  0  0  0
   -0.3309    1.1236   -1.2603 H   0  0  0  0  0  0  0  0  0  0  0  0
    0.0459    0.5863    1.6977 H   0  0  0  0  0  0  0  0  0  0  0  0
    0.6685    1.9507    0.6467 H   0  0  0  0  0  0  0  0  0  0  0  0
    1.9929   -0.5690    1.1294 H   0  0  0  0  0  0  0  0  0  0  0  0
    2.2694    1.7708   -0.3643 H   0  0  0  0  0  0  0  0  0  0  0  0
    1.5334   -1.8810   -0.8434 H   0  0  0  0  0  0  0  0  0  0  0  0
    1.2701   -0.3525   -1.8216 H   0  0  0  0  0  0  0  0  0  0  0  0
   -0.9430   -1.2632   -1.4709 H   0  0  0  0  0  0  0  0  0  0  0  0
    0.1479   -2.0325    1.2479 H   0  0  0  0  0  0  0  0  0  0  0  0
  1  2  1  0
  2  3  1  0
  3  4  1  0
  4  5  1  0
  4  6  1  0
  6  7  1  0
  7  8  1  0
  8  9  2  0
  7  2  1  0
  1 10  1  0
  1 11  1  0
  1 12  1  0
  2 13  1  0
  3 14  1  0
  3 15  1  0
  4 16  1  0
  5 17  1  0
  6 18  1  0
  6 19  1  0
  7 20  1  0
  8 21  1  0
M  END
