
     RDKit          3D

 23 24  0  0  0  0  0  0  0  0999 V2000
    2.8156    0.5927    0.0100 C   0  0  0  0  0  0  0  0  0  0  0  0
    1.6022   -0.0341    0.5995 C   0  0  0  0  0  0  0  0  0  0  0  0
    0.3728    0.8713    0.6770 C   0  0  0  0  0  0  0  0  0  0  0  0
   -0.4091   -0.2351    0.0664 C   0  0  0  0  0  0  0  0  0  0  0  0
   -1.2707   -1.0622    0.9332 C   0  0  0  0  0  0  0  0  0  0  0  0
   -2.4831   -0.4841    0.1910 C   0  0  0  0  0  0  0  0  0  0  0  0
   -1.5134    0.0878   -0.8505 C   0  0  0  0  0  0  0  0  0  0  0  0
   -1.7385    1.4277   -1.1370 O   0  0  0  0  0  0  0  0  0  0  0  0
    0.8404   -0.8220   -0.4750 C   0  0  0  0  0  0  0  0  0  0  0  0
    2.5334    1.0740   -0.9648 H   0  0  0  0  0  0  0  0  0  0  0  0
    3.3088    1.3041    0.6903 H   0  0  0  0  0  0  0  0  0  0  0  0
    3.5057   -0.2479   -0.2961 H   0  0  0  0  0  0  0  0  0  0  0  0
    1.7375   -0.5551    1.5455 H   0  0  0  0  0  0  0  0  0  0  0  0
    0.5382    1.7575    0.0421 H   0  0  0  0  0  0  0  0  0  0  0  0
    0.0769    1.1575    1.7004 H   0  0  0  0  0  0  0  0  0  0  0  0
   -1.2562   -0.8149    2.0127 H   0  0  0  0  0  0  0  0  0  0  0  0
   -1.1097   -2.1457    0.7496 H   0  0  0  0  0  0  0  0  0  0  0  0
   -3.1453   -1.2643   -0.1690 H   0  0  0  0  0  0  0  0  0  0  0  0
   -2.9021    0.3475    0.7666 H   0  0  0  0  0  0  0  0  0  0  0  0
   -1.5625   -0.5208   -1.7861 H   0  0  0  0  0  0  0  0  0  0  0  0
   -1.9752    1.8869   -0.2896 H   0  0  0  0  0  0  0  0  0  0  0  0
    1.0568   -0.4159   -1.4949 H   0  0  0  0  0  0  0  0  0  0  0  0
    0.9776   -1.9049   -0.4257 H   0  0  0  0  0  0  0  0  0  0  0  0
  1  2  1  0
  2  3  1  0
  3  4  1  0
  4  5  1  0
  5  6  1  0
  6  7  1  0
  7  8  1  0
  4  9  1  0
  9  2  1  0
  7  4  1  0
  1 10  1  0
  1 11  1  0
  1 12  1  0
  2 13  1  0
  3 14  1  0
  3 15  1  0
  5 16  1  0
  5 17  1  0
  6 18  1  0
  6 19  1  0
  7 20  1  0
  8 21  1  0
  9 22  1  0
  9 23  1  0
M  END
