
     RDKit          3D

 21 22  0  0  0  0  0  0  0  0999 V2000
    2.0942   -0.6761   -0.5800 C   0  0  0  0  0  0  0  0  0  0  0  0
    1.2611    0.1905    0.2655 C   0  0  0  0  0  0  0  0  0  0  0  0
    0.0644    0.8590   -0.3835 C   0  0  0  0  0  0  0  0  0  0  0  0
   -0.4564    1.5884    0.8305 C   0  0  0  0  0  0  0  0  0  0  0  0
   -0.4341    0.5184    1.7644 O   0  0  0  0  0  0  0  0  0  0  0  0
    0.1548   -0.5017    1.0665 C   0  0  0  0  0  0  0  0  0  0  0  0
   -0.6386   -0.4712   -0.2493 C   0  0  0  0  0  0  0  0  0  0  0  0
   -2.1233   -0.3057   -0.0631 C   0  0  0  0  0  0  0  0  0  0  0  0
   -0.2430   -1.4674   -1.0937 O   0  0  0  0  0  0  0  0  0  0  0  0
    1.9716   -1.7730   -0.4112 H   0  0  0  0  0  0  0  0  0  0  0  0
    2.0176   -0.4999   -1.6703 H   0  0  0  0  0  0  0  0  0  0  0  0
    3.1785   -0.4775   -0.3311 H   0  0  0  0  0  0  0  0  0  0  0  0
    1.8128    0.9515    0.8713 H   0  0  0  0  0  0  0  0  0  0  0  0
    0.1569    1.3339   -1.3118 H   0  0  0  0  0  0  0  0  0  0  0  0
    0.3102    2.2999    1.1871 H   0  0  0  0  0  0  0  0  0  0  0  0
   -1.4451    2.0144    0.7114 H   0  0  0  0  0  0  0  0  0  0  0  0
    0.3600   -1.4398    1.4967 H   0  0  0  0  0  0  0  0  0  0  0  0
   -2.3601    0.2003    0.9049 H   0  0  0  0  0  0  0  0  0  0  0  0
   -2.6529   -1.2649   -0.0477 H   0  0  0  0  0  0  0  0  0  0  0  0
   -2.5307    0.2774   -0.9317 H   0  0  0  0  0  0  0  0  0  0  0  0
   -0.4979   -1.3566   -2.0250 H   0  0  0  0  0  0  0  0  0  0  0  0
  1  2  1  0
  2  3  1  0
  3  4  1  0
  4  5  1  0
  5  6  1  0
  6  7  1  0
  7  8  1  0
  7  9  1  0
  6  2  1  0
  7  3  1  0
  1 10  1  0
  1 11  1  0
  1 12  1  0
  2 13  1  0
  3 14  1  0
  4 15  1  0
  4 16  1  0
  6 17  1  0
  8 18  1  0
  8 19  1  0
  8 20  1  0
  9 21  1  0
M  END
