
     RDKit          3D

 21 22  0  0  0  0  0  0  0  0999 V2000
    1.9253    0.8752   -0.7110 C   0  0  0  0  0  0  0  0  0  0  0  0
    1.2833    0.1414    0.4721 C   0  0  0  0  0  0  0  0  0  0  0  0
    1.1724   -1.3047    0.0952 C   0  0  0  0  0  0  0  0  0  0  0  0
    0.1195   -1.4470   -0.7836 O   0  0  0  0  0  0  0  0  0  0  0  0
   -1.1123   -1.1911   -0.2252 C   0  0  0  0  0  0  0  0  0  0  0  0
   -1.8247    0.0078   -0.7162 C   0  0  0  0  0  0  0  0  0  0  0  0
   -3.2013    0.1059   -0.7139 O   0  0  0  0  0  0  0  0  0  0  0  0
   -1.2119   -0.0708    0.6892 C   0  0  0  0  0  0  0  0  0  0  0  0
   -0.0007    0.7748    0.8783 C   0  0  0  0  0  0  0  0  0  0  0  0
    2.9355    0.4910   -0.8615 H   0  0  0  0  0  0  0  0  0  0  0  0
    1.9199    1.9559   -0.4100 H   0  0  0  0  0  0  0  0  0  0  0  0
    1.2752    0.7938   -1.6065 H   0  0  0  0  0  0  0  0  0  0  0  0
    2.0244    0.2135    1.3128 H   0  0  0  0  0  0  0  0  0  0  0  0
    2.0891   -1.6267   -0.4190 H   0  0  0  0  0  0  0  0  0  0  0  0
    1.0360   -1.9658    0.9662 H   0  0  0  0  0  0  0  0  0  0  0  0
   -1.7023   -2.1119    0.0482 H   0  0  0  0  0  0  0  0  0  0  0  0
   -1.3084    0.6493   -1.4674 H   0  0  0  0  0  0  0  0  0  0  0  0
   -3.4272    0.9733   -0.2691 H   0  0  0  0  0  0  0  0  0  0  0  0
   -1.8988   -0.1315    1.5525 H   0  0  0  0  0  0  0  0  0  0  0  0
   -0.1427    1.6989    0.2446 H   0  0  0  0  0  0  0  0  0  0  0  0
    0.0499    1.1687    1.9246 H   0  0  0  0  0  0  0  0  0  0  0  0
  1  2  1  0
  2  3  1  0
  3  4  1  0
  4  5  1  0
  5  6  1  0
  6  7  1  0
  6  8  1  0
  8  9  1  0
  9  2  1  0
  8  5  1  0
  1 10  1  0
  1 11  1  0
  1 12  1  0
  2 13  1  0
  3 14  1  0
  3 15  1  0
  5 16  1  0
  6 17  1  0
  7 18  1  0
  8 19  1  0
  9 20  1  0
  9 21  1  0
M  END
