
     RDKit          3D

 19 20  0  0  0  0  0  0  0  0999 V2000
    2.5781    0.5167    0.1514 C   0  0  0  0  0  0  0  0  0  0  0  0
    1.3704   -0.2919    0.5902 C   0  0  0  0  0  0  0  0  0  0  0  0
    0.6885   -1.0736   -0.4853 C   0  0  0  0  0  0  0  0  0  0  0  0
   -0.4057   -0.0334   -0.4780 C   0  0  0  0  0  0  0  0  0  0  0  0
   -1.7735   -0.5420   -0.1349 C   0  0  0  0  0  0  0  0  0  0  0  0
   -2.8642    0.4268   -0.1170 C   0  0  0  0  0  0  0  0  0  0  0  0
   -2.3575    0.0140    1.1157 O   0  0  0  0  0  0  0  0  0  0  0  0
    0.2096    0.6295    0.7025 C   0  0  0  0  0  0  0  0  0  0  0  0
   -0.1840    1.5493    1.3949 O   0  0  0  0  0  0  0  0  0  0  0  0
    2.7096    1.3061    0.9478 H   0  0  0  0  0  0  0  0  0  0  0  0
    3.4937   -0.0757    0.0857 H   0  0  0  0  0  0  0  0  0  0  0  0
    2.2935    1.0413   -0.7739 H   0  0  0  0  0  0  0  0  0  0  0  0
    1.5328   -0.8487    1.5298 H   0  0  0  0  0  0  0  0  0  0  0  0
    0.3737   -2.0870   -0.1974 H   0  0  0  0  0  0  0  0  0  0  0  0
    1.2888   -1.0413   -1.4330 H   0  0  0  0  0  0  0  0  0  0  0  0
   -0.4251    0.5935   -1.3991 H   0  0  0  0  0  0  0  0  0  0  0  0
   -1.9572   -1.6415   -0.1033 H   0  0  0  0  0  0  0  0  0  0  0  0
   -3.9191    0.1135   -0.3158 H   0  0  0  0  0  0  0  0  0  0  0  0
   -2.6525    1.4442   -0.4864 H   0  0  0  0  0  0  0  0  0  0  0  0
  1  2  1  0
  2  3  1  0
  3  4  1  0
  4  5  1  0
  5  6  1  0
  6  7  1  0
  4  8  1  0
  8  9  2  0
  8  2  1  0
  7  5  1  0
  1 10  1  0
  1 11  1  0
  1 12  1  0
  2 13  1  0
  3 14  1  0
  3 15  1  0
  4 16  1  0
  5 17  1  0
  6 18  1  0
  6 19  1  0
M  END
