
     RDKit          3D

 20 20  0  0  0  0  0  0  0  0999 V2000
   -2.1615   -0.3985    0.0897 C   0  0  0  0  0  0  0  0  0  0  0  0
   -0.7647   -0.2426   -0.5029 C   0  0  0  0  0  0  0  0  0  0  0  0
   -0.3640    1.1723   -0.3792 C   0  0  0  0  0  0  0  0  0  0  0  0
    0.8660    1.4239    0.4345 C   0  0  0  0  0  0  0  0  0  0  0  0
    1.8990    0.4726   -0.1063 C   0  0  0  0  0  0  0  0  0  0  0  0
    2.8919    0.8285   -0.6746 O   0  0  0  0  0  0  0  0  0  0  0  0
    1.5690   -0.9587    0.1325 C   0  0  0  0  0  0  0  0  0  0  0  0
    0.1203   -1.2589    0.0948 C   0  0  0  0  0  0  0  0  0  0  0  0
   -2.9259   -0.5861   -0.6808 H   0  0  0  0  0  0  0  0  0  0  0  0
   -2.4810    0.5421    0.6135 H   0  0  0  0  0  0  0  0  0  0  0  0
   -2.1641   -1.1782    0.8993 H   0  0  0  0  0  0  0  0  0  0  0  0
   -0.8714   -0.4786   -1.6024 H   0  0  0  0  0  0  0  0  0  0  0  0
   -1.1803    1.8134    0.0686 H   0  0  0  0  0  0  0  0  0  0  0  0
   -0.1784    1.6560   -1.3844 H   0  0  0  0  0  0  0  0  0  0  0  0
    1.1815    2.4755    0.2465 H   0  0  0  0  0  0  0  0  0  0  0  0
    0.6534    1.2302    1.5025 H   0  0  0  0  0  0  0  0  0  0  0  0
    1.9724   -1.1927    1.1616 H   0  0  0  0  0  0  0  0  0  0  0  0
    2.1901   -1.5647   -0.5581 H   0  0  0  0  0  0  0  0  0  0  0  0
   -0.2568   -1.5286    1.1250 H   0  0  0  0  0  0  0  0  0  0  0  0
    0.0045   -2.2268   -0.4798 H   0  0  0  0  0  0  0  0  0  0  0  0
  1  2  1  0
  2  3  1  0
  3  4  1  0
  4  5  1  0
  5  6  2  0
  5  7  1  0
  7  8  1  0
  8  2  1  0
  1  9  1  0
  1 10  1  0
  1 11  1  0
  2 12  1  0
  3 13  1  0
  3 14  1  0
  4 15  1  0
  4 16  1  0
  7 17  1  0
  7 18  1  0
  8 19  1  0
  8 20  1  0
M  END
