
     RDKit          3D

 23 25  0  0  0  0  0  0  0  0999 V2000
   -2.8396    1.1525    0.0745 C   0  0  0  0  0  0  0  0  0  0  0  0
   -1.7632    0.2432   -0.4655 C   0  0  0  0  0  0  0  0  0  0  0  0
   -1.1920   -0.7000    0.4640 C   0  0  0  0  0  0  0  0  0  0  0  0
   -0.1886   -1.7861    0.1171 C   0  0  0  0  0  0  0  0  0  0  0  0
    1.0744   -1.0730    0.4754 C   0  0  0  0  0  0  0  0  0  0  0  0
    2.0722   -0.3576   -0.1992 C   0  0  0  0  0  0  0  0  0  0  0  0
    2.8500    0.7816    0.4912 C   0  0  0  0  0  0  0  0  0  0  0  0
    0.7818    0.0141   -0.6375 C   0  0  0  0  0  0  0  0  0  0  0  0
   -0.3899    0.5825    0.0342 C   0  0  0  0  0  0  0  0  0  0  0  0
   -2.7623    2.1832   -0.3329 H   0  0  0  0  0  0  0  0  0  0  0  0
   -3.8109    0.6784   -0.0787 H   0  0  0  0  0  0  0  0  0  0  0  0
   -2.7044    1.2513    1.1891 H   0  0  0  0  0  0  0  0  0  0  0  0
   -1.8969   -0.0507   -1.5232 H   0  0  0  0  0  0  0  0  0  0  0  0
   -1.4914   -0.6798    1.5415 H   0  0  0  0  0  0  0  0  0  0  0  0
   -0.3651   -2.6895    0.7363 H   0  0  0  0  0  0  0  0  0  0  0  0
   -0.2401   -2.0505   -0.9656 H   0  0  0  0  0  0  0  0  0  0  0  0
    0.9377   -0.7126    1.5461 H   0  0  0  0  0  0  0  0  0  0  0  0
    2.7712   -0.8987   -0.8728 H   0  0  0  0  0  0  0  0  0  0  0  0
    3.0171    1.6080   -0.1982 H   0  0  0  0  0  0  0  0  0  0  0  0
    2.1246    1.1658    1.2673 H   0  0  0  0  0  0  0  0  0  0  0  0
    3.7215    0.4090    1.0249 H   0  0  0  0  0  0  0  0  0  0  0  0
    0.5182   -0.4011   -1.6581 H   0  0  0  0  0  0  0  0  0  0  0  0
   -0.2243    1.3302    0.8057 H   0  0  0  0  0  0  0  0  0  0  0  0
  1  2  1  0
  2  3  1  0
  3  4  1  0
  4  5  1  0
  5  6  1  0
  6  7  1  0
  6  8  1  0
  8  9  1  0
  9  2  1  0
  9  3  1  0
  8  5  1  0
  1 10  1  0
  1 11  1  0
  1 12  1  0
  2 13  1  0
  3 14  1  0
  4 15  1  0
  4 16  1  0
  5 17  1  0
  6 18  1  0
  7 19  1  0
  7 20  1  0
  7 21  1  0
  8 22  1  0
  9 23  1  0
M  END
