
     RDKit          3D

 21 23  0  0  0  0  0  0  0  0999 V2000
   -2.7758   -0.4617   -0.7922 C   0  0  0  0  0  0  0  0  0  0  0  0
   -1.5859   -0.4693    0.1132 C   0  0  0  0  0  0  0  0  0  0  0  0
   -1.4327    0.8140    0.9297 C   0  0  0  0  0  0  0  0  0  0  0  0
   -0.4280    0.4027   -0.1699 C   0  0  0  0  0  0  0  0  0  0  0  0
    0.9236    0.1690    0.3653 C   0  0  0  0  0  0  0  0  0  0  0  0
    1.9716    1.2124   -0.0659 C   0  0  0  0  0  0  0  0  0  0  0  0
    2.1098   -0.2116   -0.3751 C   0  0  0  0  0  0  0  0  0  0  0  0
    2.4135   -1.1103    0.8031 C   0  0  0  0  0  0  0  0  0  0  0  0
    1.2122   -0.6718    1.3895 O   0  0  0  0  0  0  0  0  0  0  0  0
   -3.1075    0.5560   -1.0902 H   0  0  0  0  0  0  0  0  0  0  0  0
   -3.6543   -0.9338   -0.2789 H   0  0  0  0  0  0  0  0  0  0  0  0
   -2.5804   -1.1124   -1.6850 H   0  0  0  0  0  0  0  0  0  0  0  0
   -1.3973   -1.4345    0.6111 H   0  0  0  0  0  0  0  0  0  0  0  0
   -2.0774    1.6805    0.6732 H   0  0  0  0  0  0  0  0  0  0  0  0
   -1.1768    0.6338    1.9721 H   0  0  0  0  0  0  0  0  0  0  0  0
   -0.4878    0.9740   -1.1203 H   0  0  0  0  0  0  0  0  0  0  0  0
    2.5882    1.5867    0.8030 H   0  0  0  0  0  0  0  0  0  0  0  0
    1.6853    1.9305   -0.8227 H   0  0  0  0  0  0  0  0  0  0  0  0
    2.0569   -0.6310   -1.3891 H   0  0  0  0  0  0  0  0  0  0  0  0
    3.2949   -0.7313    1.3564 H   0  0  0  0  0  0  0  0  0  0  0  0
    2.4479   -2.1918    0.5748 H   0  0  0  0  0  0  0  0  0  0  0  0
  1  2  1  0
  2  3  1  0
  3  4  1  0
  4  5  1  0
  5  6  1  0
  6  7  1  0
  7  8  1  0
  8  9  1  0
  4  2  1  0
  7  5  1  0
  9  5  1  0
  1 10  1  0
  1 11  1  0
  1 12  1  0
  2 13  1  0
  3 14  1  0
  3 15  1  0
  4 16  1  0
  6 17  1  0
  6 18  1  0
  7 19  1  0
  8 20  1  0
  8 21  1  0
M  END
