
     RDKit          3D

 25 26  0  0  0  0  0  0  0  0999 V2000
    3.0537   -0.0149    0.3408 C   0  0  0  0  0  0  0  0  0  0  0  0
    1.9856    0.3067   -0.6607 C   0  0  0  0  0  0  0  0  0  0  0  0
    0.9612   -0.7907   -0.8885 C   0  0  0  0  0  0  0  0  0  0  0  0
    0.1611   -0.2522    0.2674 C   0  0  0  0  0  0  0  0  0  0  0  0
   -1.3184   -0.1752    0.0812 C   0  0  0  0  0  0  0  0  0  0  0  0
   -2.0371   -1.4982   -0.2082 C   0  0  0  0  0  0  0  0  0  0  0  0
   -2.0161    1.0377   -0.3357 C   0  0  0  0  0  0  0  0  0  0  0  0
   -2.0626    0.6369    1.1279 C   0  0  0  0  0  0  0  0  0  0  0  0
    0.8583    1.0725    0.0429 C   0  0  0  0  0  0  0  0  0  0  0  0
    2.6371   -0.2564    1.3407 H   0  0  0  0  0  0  0  0  0  0  0  0
    3.7489   -0.8033   -0.0351 H   0  0  0  0  0  0  0  0  0  0  0  0
    3.6710    0.8948    0.4700 H   0  0  0  0  0  0  0  0  0  0  0  0
    2.3807    0.7818   -1.5564 H   0  0  0  0  0  0  0  0  0  0  0  0
    0.4286   -0.6360   -1.8474 H   0  0  0  0  0  0  0  0  0  0  0  0
    1.3392   -1.8164   -0.7924 H   0  0  0  0  0  0  0  0  0  0  0  0
    0.4598   -0.7607    1.1982 H   0  0  0  0  0  0  0  0  0  0  0  0
   -2.5766   -1.8432    0.6995 H   0  0  0  0  0  0  0  0  0  0  0  0
   -1.3337   -2.2878   -0.4906 H   0  0  0  0  0  0  0  0  0  0  0  0
   -2.8243   -1.3327   -0.9885 H   0  0  0  0  0  0  0  0  0  0  0  0
   -1.5720    2.0304   -0.4748 H   0  0  0  0  0  0  0  0  0  0  0  0
   -2.9345    0.9112   -0.9569 H   0  0  0  0  0  0  0  0  0  0  0  0
   -3.0781    0.3320    1.4519 H   0  0  0  0  0  0  0  0  0  0  0  0
   -1.5007    1.2139    1.8729 H   0  0  0  0  0  0  0  0  0  0  0  0
    0.4196    1.7516   -0.6795 H   0  0  0  0  0  0  0  0  0  0  0  0
    1.1494    1.4982    1.0216 H   0  0  0  0  0  0  0  0  0  0  0  0
  1  2  1  0
  2  3  1  0
  3  4  1  0
  4  5  1  0
  5  6  1  0
  5  7  1  0
  7  8  1  0
  4  9  1  0
  9  2  1  0
  8  5  1  0
  1 10  1  0
  1 11  1  0
  1 12  1  0
  2 13  1  0
  3 14  1  0
  3 15  1  0
  4 16  1  0
  6 17  1  0
  6 18  1  0
  6 19  1  0
  7 20  1  0
  7 21  1  0
  8 22  1  0
  8 23  1  0
  9 24  1  0
  9 25  1  0
M  END
