
     RDKit          3D

 21 22  0  0  0  0  0  0  0  0999 V2000
   -1.8107   -0.4166    1.0004 C   0  0  0  0  0  0  0  0  0  0  0  0
   -1.3677    0.0980   -0.3372 C   0  0  0  0  0  0  0  0  0  0  0  0
   -1.4072    1.5539   -0.4549 C   0  0  0  0  0  0  0  0  0  0  0  0
   -0.1826    2.0326   -0.4042 C   0  0  0  0  0  0  0  0  0  0  0  0
    0.8050    0.9462   -0.2476 C   0  0  0  0  0  0  0  0  0  0  0  0
    2.0130    0.5477    0.0739 C   0  0  0  0  0  0  0  0  0  0  0  0
    2.1425   -0.9500   -0.0915 C   0  0  0  0  0  0  0  0  0  0  0  0
    0.6599   -1.3353    0.1394 C   0  0  0  0  0  0  0  0  0  0  0  0
    0.0423   -0.2498   -0.6885 C   0  0  0  0  0  0  0  0  0  0  0  0
   -2.8678   -0.1094    1.1388 H   0  0  0  0  0  0  0  0  0  0  0  0
   -1.1602   -0.1433    1.8334 H   0  0  0  0  0  0  0  0  0  0  0  0
   -1.8085   -1.5312    0.9500 H   0  0  0  0  0  0  0  0  0  0  0  0
   -2.0299   -0.3358   -1.1062 H   0  0  0  0  0  0  0  0  0  0  0  0
   -2.3185    2.1734   -0.5697 H   0  0  0  0  0  0  0  0  0  0  0  0
    0.1421    3.0745   -0.4618 H   0  0  0  0  0  0  0  0  0  0  0  0
    2.7920    1.2180    0.4085 H   0  0  0  0  0  0  0  0  0  0  0  0
    2.7790   -1.3774    0.7097 H   0  0  0  0  0  0  0  0  0  0  0  0
    2.4356   -1.2181   -1.1081 H   0  0  0  0  0  0  0  0  0  0  0  0
    0.4866   -1.1730    1.2062 H   0  0  0  0  0  0  0  0  0  0  0  0
    0.4646   -2.3475   -0.2210 H   0  0  0  0  0  0  0  0  0  0  0  0
    0.1904   -0.4570   -1.7697 H   0  0  0  0  0  0  0  0  0  0  0  0
  1  2  1  0
  2  3  1  0
  3  4  2  0
  4  5  1  0
  5  6  2  0
  6  7  1  0
  7  8  1  0
  8  9  1  0
  9  2  1  0
  9  5  1  0
  1 10  1  0
  1 11  1  0
  1 12  1  0
  2 13  1  0
  3 14  1  0
  4 15  1  0
  6 16  1  0
  7 17  1  0
  7 18  1  0
  8 19  1  0
  8 20  1  0
  9 21  1  0
M  END
