
     RDKit          3D

 19 21  0  0  0  0  0  0  0  0999 V2000
    2.2400    0.3834   -0.2231 C   0  0  0  0  0  0  0  0  0  0  0  0
    1.0786   -0.0710    0.6218 C   0  0  0  0  0  0  0  0  0  0  0  0
   -0.0795    0.9038    0.5343 C   0  0  0  0  0  0  0  0  0  0  0  0
   -1.0628    0.5281    1.4438 O   0  0  0  0  0  0  0  0  0  0  0  0
   -1.7071   -0.5693    0.8660 C   0  0  0  0  0  0  0  0  0  0  0  0
   -1.8948   -0.0302   -0.5671 C   0  0  0  0  0  0  0  0  0  0  0  0
   -0.4256    0.2404   -0.7844 C   0  0  0  0  0  0  0  0  0  0  0  0
    0.1892   -1.0072   -0.2116 C   0  0  0  0  0  0  0  0  0  0  0  0
   -0.7801   -1.5773    0.6150 O   0  0  0  0  0  0  0  0  0  0  0  0
    2.1116    0.1144   -1.3024 H   0  0  0  0  0  0  0  0  0  0  0  0
    3.1546   -0.1667    0.1023 H   0  0  0  0  0  0  0  0  0  0  0  0
    2.4037    1.4837   -0.1733 H   0  0  0  0  0  0  0  0  0  0  0  0
    1.3157   -0.4473    1.6229 H   0  0  0  0  0  0  0  0  0  0  0  0
    0.1594    1.9516    0.4491 H   0  0  0  0  0  0  0  0  0  0  0  0
   -2.6144   -0.8741    1.3312 H   0  0  0  0  0  0  0  0  0  0  0  0
   -2.3187   -0.7766   -1.2320 H   0  0  0  0  0  0  0  0  0  0  0  0
   -2.4074    0.9296   -0.5171 H   0  0  0  0  0  0  0  0  0  0  0  0
   -0.0793    0.6529   -1.6899 H   0  0  0  0  0  0  0  0  0  0  0  0
    0.7168   -1.6682   -0.8855 H   0  0  0  0  0  0  0  0  0  0  0  0
  1  2  1  0
  2  3  1  0
  3  4  1  0
  4  5  1  0
  5  6  1  0
  6  7  1  0
  7  8  1  0
  8  9  1  0
  8  2  1  0
  7  3  1  0
  9  5  1  0
  1 10  1  0
  1 11  1  0
  1 12  1  0
  2 13  1  0
  3 14  1  0
  5 15  1  0
  6 16  1  0
  6 17  1  0
  7 18  1  0
  8 19  1  0
M  END
