
     RDKit          3D

 19 21  0  0  0  0  0  0  0  0999 V2000
    1.8714    0.3631   -0.3486 C   0  0  0  0  0  0  0  0  0  0  0  0
    0.7361    0.2789    0.6236 C   0  0  0  0  0  0  0  0  0  0  0  0
    0.6461   -1.1902    1.0675 C   0  0  0  0  0  0  0  0  0  0  0  0
    0.4980   -1.7788   -0.1998 O   0  0  0  0  0  0  0  0  0  0  0  0
   -0.6360   -1.0797   -0.6805 C   0  0  0  0  0  0  0  0  0  0  0  0
   -1.3995   -0.8343    0.5325 C   0  0  0  0  0  0  0  0  0  0  0  0
   -0.6172   -1.3075    1.5808 O   0  0  0  0  0  0  0  0  0  0  0  0
   -0.5550    0.2751   -0.1415 C   0  0  0  0  0  0  0  0  0  0  0  0
   -1.2802    1.4477   -0.5736 C   0  0  0  0  0  0  0  0  0  0  0  0
    2.8388    0.5607    0.1373 H   0  0  0  0  0  0  0  0  0  0  0  0
    1.6727    1.0853   -1.1904 H   0  0  0  0  0  0  0  0  0  0  0  0
    1.9962   -0.6319   -0.8660 H   0  0  0  0  0  0  0  0  0  0  0  0
    0.7834    0.9640    1.4554 H   0  0  0  0  0  0  0  0  0  0  0  0
    1.4678   -1.5294    1.6423 H   0  0  0  0  0  0  0  0  0  0  0  0
   -1.0488   -1.3432   -1.6553 H   0  0  0  0  0  0  0  0  0  0  0  0
   -2.4635   -0.7000    0.6202 H   0  0  0  0  0  0  0  0  0  0  0  0
   -1.3534    2.2273    0.2404 H   0  0  0  0  0  0  0  0  0  0  0  0
   -0.8219    2.0043   -1.4378 H   0  0  0  0  0  0  0  0  0  0  0  0
   -2.3349    1.1887   -0.8065 H   0  0  0  0  0  0  0  0  0  0  0  0
  1  2  1  0
  2  3  1  0
  3  4  1  0
  4  5  1  0
  5  6  1  0
  6  7  1  0
  6  8  1  0
  8  9  1  0
  8  2  1  0
  7  3  1  0
  8  5  1  0
  1 10  1  0
  1 11  1  0
  1 12  1  0
  2 13  1  0
  3 14  1  0
  5 15  1  0
  6 16  1  0
  9 17  1  0
  9 18  1  0
  9 19  1  0
M  END
