
     RDKit          3D

 19 19  0  0  0  0  0  0  0  0999 V2000
   -2.6321    0.1346   -0.2220 C   0  0  0  0  0  0  0  0  0  0  0  0
   -1.1474   -0.1331   -0.1572 C   0  0  0  0  0  0  0  0  0  0  0  0
   -0.5780    0.5525    1.0689 C   0  0  0  0  0  0  0  0  0  0  0  0
    0.8630    0.1876    1.1377 C   0  0  0  0  0  0  0  0  0  0  0  0
    1.4733   -0.1172    0.0096 C   0  0  0  0  0  0  0  0  0  0  0  0
    2.8821   -0.4750    0.0692 C   0  0  0  0  0  0  0  0  0  0  0  0
    3.5439   -0.7811   -0.9663 O   0  0  0  0  0  0  0  0  0  0  0  0
    0.7969   -0.1132   -1.3118 C   0  0  0  0  0  0  0  0  0  0  0  0
   -0.4741    0.4137   -1.2624 O   0  0  0  0  0  0  0  0  0  0  0  0
   -2.8058    1.1658    0.1886 H   0  0  0  0  0  0  0  0  0  0  0  0
   -3.0560    0.0533   -1.2219 H   0  0  0  0  0  0  0  0  0  0  0  0
   -3.1100   -0.5587    0.5065 H   0  0  0  0  0  0  0  0  0  0  0  0
   -0.9883   -1.2200   -0.0807 H   0  0  0  0  0  0  0  0  0  0  0  0
   -0.6787    1.6597    0.8690 H   0  0  0  0  0  0  0  0  0  0  0  0
   -1.1275    0.2748    1.9989 H   0  0  0  0  0  0  0  0  0  0  0  0
    1.4045    0.1713    2.0959 H   0  0  0  0  0  0  0  0  0  0  0  0
    3.4380   -0.4987    0.9984 H   0  0  0  0  0  0  0  0  0  0  0  0
    1.4190    0.4554   -2.0542 H   0  0  0  0  0  0  0  0  0  0  0  0
    0.7772   -1.1717   -1.6662 H   0  0  0  0  0  0  0  0  0  0  0  0
  1  2  1  0
  2  3  1  0
  3  4  1  0
  4  5  2  0
  5  6  1  0
  6  7  2  0
  5  8  1  0
  8  9  1  0
  9  2  1  0
  1 10  1  0
  1 11  1  0
  1 12  1  0
  2 13  1  0
  3 14  1  0
  3 15  1  0
  4 16  1  0
  6 17  1  0
  8 18  1  0
  8 19  1  0
M  END
