
     RDKit          3D

 23 24  0  0  0  0  0  0  0  0999 V2000
    2.1199   -0.9356    0.7077 C   0  0  0  0  0  0  0  0  0  0  0  0
    1.6145   -0.0880   -0.3792 C   0  0  0  0  0  0  0  0  0  0  0  0
    1.2275    1.3549    0.0243 C   0  0  0  0  0  0  0  0  0  0  0  0
    0.0701    0.5966    0.6245 C   0  0  0  0  0  0  0  0  0  0  0  0
   -1.0235   -0.0447   -0.0080 C   0  0  0  0  0  0  0  0  0  0  0  0
   -2.2021    0.9033   -0.3330 C   0  0  0  0  0  0  0  0  0  0  0  0
   -1.6281   -1.3377    0.5698 C   0  0  0  0  0  0  0  0  0  0  0  0
    0.1672   -0.1448   -0.7722 C   0  0  0  0  0  0  0  0  0  0  0  0
    0.0361    0.6968   -1.9139 O   0  0  0  0  0  0  0  0  0  0  0  0
    2.4967   -0.3094    1.5702 H   0  0  0  0  0  0  0  0  0  0  0  0
    3.0596   -1.4767    0.3791 H   0  0  0  0  0  0  0  0  0  0  0  0
    1.4695   -1.7401    1.0741 H   0  0  0  0  0  0  0  0  0  0  0  0
    2.3314   -0.0039   -1.2022 H   0  0  0  0  0  0  0  0  0  0  0  0
    1.8917    1.7973    0.7781 H   0  0  0  0  0  0  0  0  0  0  0  0
    0.9318    1.9739   -0.8122 H   0  0  0  0  0  0  0  0  0  0  0  0
    0.4887   -0.0110    1.4894 H   0  0  0  0  0  0  0  0  0  0  0  0
   -2.9615    0.4072   -0.9339 H   0  0  0  0  0  0  0  0  0  0  0  0
   -2.5663    1.3892    0.5849 H   0  0  0  0  0  0  0  0  0  0  0  0
   -1.7258    1.7195   -0.9474 H   0  0  0  0  0  0  0  0  0  0  0  0
   -0.8659   -2.0985    0.7098 H   0  0  0  0  0  0  0  0  0  0  0  0
   -2.1338   -1.1122    1.5368 H   0  0  0  0  0  0  0  0  0  0  0  0
   -2.4318   -1.6384   -0.1290 H   0  0  0  0  0  0  0  0  0  0  0  0
   -0.3659    0.1023   -2.6180 H   0  0  0  0  0  0  0  0  0  0  0  0
  1  2  1  0
  2  3  1  0
  3  4  1  0
  4  5  1  0
  5  6  1  0
  5  7  1  0
  5  8  1  0
  8  9  1  0
  8  2  1  0
  8  4  1  0
  1 10  1  0
  1 11  1  0
  1 12  1  0
  2 13  1  0
  3 14  1  0
  3 15  1  0
  4 16  1  0
  6 17  1  0
  6 18  1  0
  6 19  1  0
  7 20  1  0
  7 21  1  0
  7 22  1  0
  9 23  1  0
M  END
