
     RDKit          3D

 19 21  0  0  0  0  0  0  0  0999 V2000
   -2.4720    0.3399    0.7639 C   0  0  0  0  0  0  0  0  0  0  0  0
   -0.9732    0.0890    0.7406 C   0  0  0  0  0  0  0  0  0  0  0  0
   -0.2098    0.8991   -0.2171 C   0  0  0  0  0  0  0  0  0  0  0  0
    1.2510    0.6363   -0.4737 C   0  0  0  0  0  0  0  0  0  0  0  0
    1.9244   -0.2210    0.5395 C   0  0  0  0  0  0  0  0  0  0  0  0
    3.2936   -0.3303    0.3776 O   0  0  0  0  0  0  0  0  0  0  0  0
    1.0429   -0.8597   -0.4532 C   0  0  0  0  0  0  0  0  0  0  0  0
   -0.4304   -0.6222   -0.4306 C   0  0  0  0  0  0  0  0  0  0  0  0
   -1.2116   -0.9054   -1.5352 O   0  0  0  0  0  0  0  0  0  0  0  0
   -2.8087    0.5916    1.7941 H   0  0  0  0  0  0  0  0  0  0  0  0
   -2.7288    1.2534    0.1514 H   0  0  0  0  0  0  0  0  0  0  0  0
   -3.0326   -0.4907    0.3101 H   0  0  0  0  0  0  0  0  0  0  0  0
   -0.5681   -0.2295    1.7248 H   0  0  0  0  0  0  0  0  0  0  0  0
   -0.7122    1.5882   -0.8896 H   0  0  0  0  0  0  0  0  0  0  0  0
    1.7425    1.0106   -1.3647 H   0  0  0  0  0  0  0  0  0  0  0  0
    1.5740   -0.1139    1.5871 H   0  0  0  0  0  0  0  0  0  0  0  0
    3.7187    0.5200    0.6509 H   0  0  0  0  0  0  0  0  0  0  0  0
    1.5082   -1.5040   -1.1998 H   0  0  0  0  0  0  0  0  0  0  0  0
   -0.9080   -1.6513   -2.0761 H   0  0  0  0  0  0  0  0  0  0  0  0
  1  2  1  0
  2  3  1  0
  3  4  1  0
  4  5  1  0
  5  6  1  0
  5  7  1  0
  7  8  1  0
  8  9  1  0
  8  2  1  0
  8  3  1  0
  7  4  1  0
  1 10  1  0
  1 11  1  0
  1 12  1  0
  2 13  1  0
  3 14  1  0
  4 15  1  0
  5 16  1  0
  6 17  1  0
  7 18  1  0
  9 19  1  0
M  END
