
     RDKit          3D

 20 22  0  0  0  0  0  0  0  0999 V2000
    1.4792   -1.3139    0.2660 C   0  0  0  0  0  0  0  0  0  0  0  0
    0.8697   -0.1323   -0.4498 C   0  0  0  0  0  0  0  0  0  0  0  0
   -0.2772   -0.4957   -1.3888 C   0  0  0  0  0  0  0  0  0  0  0  0
   -1.2249   -1.4891   -0.8492 C   0  0  0  0  0  0  0  0  0  0  0  0
   -1.2784   -0.1686   -0.2263 C   0  0  0  0  0  0  0  0  0  0  0  0
   -0.1470    0.5422    0.3743 C   0  0  0  0  0  0  0  0  0  0  0  0
   -0.1398    2.0463    0.3647 C   0  0  0  0  0  0  0  0  0  0  0  0
   -0.0119    1.2008    1.6207 C   0  0  0  0  0  0  0  0  0  0  0  0
    1.8024   -2.0398   -0.5056 H   0  0  0  0  0  0  0  0  0  0  0  0
    2.3223   -0.9351    0.8610 H   0  0  0  0  0  0  0  0  0  0  0  0
    0.7302   -1.7375    0.9739 H   0  0  0  0  0  0  0  0  0  0  0  0
    1.5809    0.5544   -0.9263 H   0  0  0  0  0  0  0  0  0  0  0  0
   -0.4387    0.0809   -2.2964 H   0  0  0  0  0  0  0  0  0  0  0  0
   -0.8096   -2.3305   -0.2507 H   0  0  0  0  0  0  0  0  0  0  0  0
   -2.0327   -1.7869   -1.5459 H   0  0  0  0  0  0  0  0  0  0  0  0
   -2.1447    0.4800   -0.5318 H   0  0  0  0  0  0  0  0  0  0  0  0
   -1.1172    2.4942    0.1196 H   0  0  0  0  0  0  0  0  0  0  0  0
    0.7401    2.5252   -0.0601 H   0  0  0  0  0  0  0  0  0  0  0  0
    0.9648    1.1974    2.1497 H   0  0  0  0  0  0  0  0  0  0  0  0
   -0.8674    1.3079    2.3009 H   0  0  0  0  0  0  0  0  0  0  0  0
  1  2  1  0
  2  3  1  0
  3  4  1  0
  4  5  1  0
  5  6  1  0
  6  7  1  0
  7  8  1  0
  6  2  1  0
  5  3  1  0
  8  6  1  0
  1  9  1  0
  1 10  1  0
  1 11  1  0
  2 12  1  0
  3 13  1  0
  4 14  1  0
  4 15  1  0
  5 16  1  0
  7 17  1  0
  7 18  1  0
  8 19  1  0
  8 20  1  0
M  END
