
     RDKit          3D

 18 18  0  0  0  0  0  0  0  0999 V2000
    1.9496   -0.0900    0.3318 C   0  0  0  0  0  0  0  0  0  0  0  0
    0.6868    0.1608   -0.4619 C   0  0  0  0  0  0  0  0  0  0  0  0
    0.0425   -1.0401   -1.0644 C   0  0  0  0  0  0  0  0  0  0  0  0
   -1.1350   -0.8771   -0.1478 C   0  0  0  0  0  0  0  0  0  0  0  0
   -0.5371    0.3946    0.3951 C   0  0  0  0  0  0  0  0  0  0  0  0
   -0.3225    0.2843    1.7562 O   0  0  0  0  0  0  0  0  0  0  0  0
   -1.2096    1.6427   -0.0098 C   0  0  0  0  0  0  0  0  0  0  0  0
   -1.5107    2.4430    0.8423 O   0  0  0  0  0  0  0  0  0  0  0  0
    2.8085    0.0685   -0.3301 H   0  0  0  0  0  0  0  0  0  0  0  0
    1.9975   -1.1338    0.7050 H   0  0  0  0  0  0  0  0  0  0  0  0
    2.0001    0.6577    1.1590 H   0  0  0  0  0  0  0  0  0  0  0  0
    0.8732    0.9450   -1.2318 H   0  0  0  0  0  0  0  0  0  0  0  0
    0.5602   -2.0125   -0.9197 H   0  0  0  0  0  0  0  0  0  0  0  0
   -0.2679   -0.9523   -2.1306 H   0  0  0  0  0  0  0  0  0  0  0  0
   -1.2218   -1.6973    0.5948 H   0  0  0  0  0  0  0  0  0  0  0  0
   -2.1077   -0.6721   -0.6508 H   0  0  0  0  0  0  0  0  0  0  0  0
   -1.1763    0.0364    2.2020 H   0  0  0  0  0  0  0  0  0  0  0  0
   -1.4300    1.8422   -1.0392 H   0  0  0  0  0  0  0  0  0  0  0  0
  1  2  1  0
  2  3  1  0
  3  4  1  0
  4  5  1  0
  5  6  1  0
  5  7  1  0
  7  8  2  0
  5  2  1  0
  1  9  1  0
  1 10  1  0
  1 11  1  0
  2 12  1  0
  3 13  1  0
  3 14  1  0
  4 15  1  0
  4 16  1  0
  6 17  1  0
  7 18  1  0
M  END
