
     RDKit          3D

 17 18  0  0  0  0  0  0  0  0999 V2000
   -2.2539   -0.1050   -0.5109 C   0  0  0  0  0  0  0  0  0  0  0  0
   -0.9729    0.1211    0.2205 C   0  0  0  0  0  0  0  0  0  0  0  0
    0.0540   -0.9627    0.0996 C   0  0  0  0  0  0  0  0  0  0  0  0
    0.1879   -0.5913   -1.2268 O   0  0  0  0  0  0  0  0  0  0  0  0
    0.1778    0.6430   -0.6011 C   0  0  0  0  0  0  0  0  0  0  0  0
    1.0764    0.0796    0.4252 C   0  0  0  0  0  0  0  0  0  0  0  0
    0.9686    0.7092    1.6403 O   0  0  0  0  0  0  0  0  0  0  0  0
    2.4414   -0.3129    0.0152 C   0  0  0  0  0  0  0  0  0  0  0  0
    2.7132   -0.8718   -1.0162 O   0  0  0  0  0  0  0  0  0  0  0  0
   -3.0412   -0.3205    0.2465 H   0  0  0  0  0  0  0  0  0  0  0  0
   -2.5930    0.7722   -1.0980 H   0  0  0  0  0  0  0  0  0  0  0  0
   -2.1482   -1.0208   -1.1362 H   0  0  0  0  0  0  0  0  0  0  0  0
   -1.0540    0.5890    1.2305 H   0  0  0  0  0  0  0  0  0  0  0  0
   -0.0036   -1.8971    0.4685 H   0  0  0  0  0  0  0  0  0  0  0  0
    0.2143    1.5476   -1.0503 H   0  0  0  0  0  0  0  0  0  0  0  0
    0.9835    1.6961    1.5934 H   0  0  0  0  0  0  0  0  0  0  0  0
    3.2497   -0.0758    0.7000 H   0  0  0  0  0  0  0  0  0  0  0  0
  1  2  1  0
  2  3  1  0
  3  4  1  0
  4  5  1  0
  5  6  1  0
  6  7  1  0
  6  8  1  0
  8  9  2  0
  5  2  1  0
  6  3  1  0
  1 10  1  0
  1 11  1  0
  1 12  1  0
  2 13  1  0
  3 14  1  0
  5 15  1  0
  7 16  1  0
  8 17  1  0
M  END
