
     RDKit          3D

 21 22  0  0  0  0  0  0  0  0999 V2000
   -2.4276    0.0972   -0.1421 C   0  0  0  0  0  0  0  0  0  0  0  0
   -1.0692   -0.1317    0.4538 C   0  0  0  0  0  0  0  0  0  0  0  0
   -0.2241    1.1427    0.3095 C   0  0  0  0  0  0  0  0  0  0  0  0
    1.1747    0.7765    0.6957 C   0  0  0  0  0  0  0  0  0  0  0  0
    1.1909   -0.4127    1.4532 O   0  0  0  0  0  0  0  0  0  0  0  0
    1.1418   -1.1204    0.2288 C   0  0  0  0  0  0  0  0  0  0  0  0
   -0.3005   -1.2354   -0.1964 C   0  0  0  0  0  0  0  0  0  0  0  0
    1.8702    0.0130   -0.3956 C   0  0  0  0  0  0  0  0  0  0  0  0
    1.5441    0.3508   -1.6902 O   0  0  0  0  0  0  0  0  0  0  0  0
   -2.9153    0.8870    0.5014 H   0  0  0  0  0  0  0  0  0  0  0  0
   -2.9766   -0.8632   -0.0967 H   0  0  0  0  0  0  0  0  0  0  0  0
   -2.3535    0.4989   -1.1806 H   0  0  0  0  0  0  0  0  0  0  0  0
   -1.2172   -0.3880    1.5246 H   0  0  0  0  0  0  0  0  0  0  0  0
   -0.3187    1.4370   -0.7696 H   0  0  0  0  0  0  0  0  0  0  0  0
   -0.6608    1.9478    0.8997 H   0  0  0  0  0  0  0  0  0  0  0  0
    1.8005    1.5859    1.0899 H   0  0  0  0  0  0  0  0  0  0  0  0
    1.6763   -2.0702    0.3643 H   0  0  0  0  0  0  0  0  0  0  0  0
   -0.6817   -2.2076    0.1940 H   0  0  0  0  0  0  0  0  0  0  0  0
   -0.4341   -1.2725   -1.2917 H   0  0  0  0  0  0  0  0  0  0  0  0
    2.9572   -0.0759   -0.2802 H   0  0  0  0  0  0  0  0  0  0  0  0
    2.2238    1.0409   -1.9790 H   0  0  0  0  0  0  0  0  0  0  0  0
  1  2  1  0
  2  3  1  0
  3  4  1  0
  4  5  1  0
  5  6  1  0
  6  7  1  0
  6  8  1  0
  8  9  1  0
  7  2  1  0
  8  4  1  0
  1 10  1  0
  1 11  1  0
  1 12  1  0
  2 13  1  0
  3 14  1  0
  3 15  1  0
  4 16  1  0
  6 17  1  0
  7 18  1  0
  7 19  1  0
  8 20  1  0
  9 21  1  0
M  END
