
     RDKit          3D

 21 23  0  0  0  0  0  0  0  0999 V2000
    2.9107   -0.0777    0.0637 C   0  0  0  0  0  0  0  0  0  0  0  0
    1.5277    0.1069   -0.4731 C   0  0  0  0  0  0  0  0  0  0  0  0
    0.4984    0.5696    0.5486 C   0  0  0  0  0  0  0  0  0  0  0  0
   -0.7924    1.1837    0.0345 C   0  0  0  0  0  0  0  0  0  0  0  0
   -2.0057    0.5378    0.6659 C   0  0  0  0  0  0  0  0  0  0  0  0
   -2.0979   -0.7693   -0.0911 C   0  0  0  0  0  0  0  0  0  0  0  0
   -0.8163   -0.7359   -0.9047 C   0  0  0  0  0  0  0  0  0  0  0  0
   -0.8072    0.6334   -1.2694 O   0  0  0  0  0  0  0  0  0  0  0  0
    0.4141   -0.8211   -0.0489 C   0  0  0  0  0  0  0  0  0  0  0  0
    3.3153    0.9445    0.3067 H   0  0  0  0  0  0  0  0  0  0  0  0
    3.5649   -0.5977   -0.6789 H   0  0  0  0  0  0  0  0  0  0  0  0
    2.8403   -0.6295    1.0251 H   0  0  0  0  0  0  0  0  0  0  0  0
    1.4939    0.5441   -1.4936 H   0  0  0  0  0  0  0  0  0  0  0  0
    0.8143    0.7190    1.5772 H   0  0  0  0  0  0  0  0  0  0  0  0
   -0.8026    2.2638    0.0395 H   0  0  0  0  0  0  0  0  0  0  0  0
   -1.8632    0.3234    1.7393 H   0  0  0  0  0  0  0  0  0  0  0  0
   -2.8713    1.2030    0.4619 H   0  0  0  0  0  0  0  0  0  0  0  0
   -2.9290   -0.6524   -0.8363 H   0  0  0  0  0  0  0  0  0  0  0  0
   -2.1940   -1.6459    0.5418 H   0  0  0  0  0  0  0  0  0  0  0  0
   -0.8256   -1.3979   -1.7647 H   0  0  0  0  0  0  0  0  0  0  0  0
    0.6257   -1.7016    0.5565 H   0  0  0  0  0  0  0  0  0  0  0  0
  1  2  1  0
  2  3  1  0
  3  4  1  0
  4  5  1  0
  5  6  1  0
  6  7  1  0
  7  8  1  0
  7  9  1  0
  9  2  1  0
  9  3  1  0
  8  4  1  0
  1 10  1  0
  1 11  1  0
  1 12  1  0
  2 13  1  0
  3 14  1  0
  4 15  1  0
  5 16  1  0
  5 17  1  0
  6 18  1  0
  6 19  1  0
  7 20  1  0
  9 21  1  0
M  END
