
     RDKit          3D

 23 23  0  0  0  0  0  0  0  0999 V2000
    2.4318    0.1601    0.3096 C   0  0  0  0  0  0  0  0  0  0  0  0
    1.1389    0.0598   -0.5114 C   0  0  0  0  0  0  0  0  0  0  0  0
    0.5727   -1.2994   -0.5109 C   0  0  0  0  0  0  0  0  0  0  0  0
   -0.7564   -1.4820    0.1208 C   0  0  0  0  0  0  0  0  0  0  0  0
   -1.7214   -0.3750    0.0077 C   0  0  0  0  0  0  0  0  0  0  0  0
   -2.3143   -0.1324    1.2703 O   0  0  0  0  0  0  0  0  0  0  0  0
   -1.1766    0.9244   -0.4765 C   0  0  0  0  0  0  0  0  0  0  0  0
   -1.9510    1.9703    0.0777 O   0  0  0  0  0  0  0  0  0  0  0  0
    0.2357    1.1465   -0.0413 C   0  0  0  0  0  0  0  0  0  0  0  0
    2.2133    0.5885    1.3252 H   0  0  0  0  0  0  0  0  0  0  0  0
    2.8811   -0.8465    0.4313 H   0  0  0  0  0  0  0  0  0  0  0  0
    3.1402    0.8844   -0.1655 H   0  0  0  0  0  0  0  0  0  0  0  0
    1.4580    0.3271   -1.5605 H   0  0  0  0  0  0  0  0  0  0  0  0
    0.5760   -1.7477   -1.5500 H   0  0  0  0  0  0  0  0  0  0  0  0
    1.3000   -1.9630    0.0498 H   0  0  0  0  0  0  0  0  0  0  0  0
   -0.6313   -1.7927    1.2012 H   0  0  0  0  0  0  0  0  0  0  0  0
   -1.2224   -2.3990   -0.3524 H   0  0  0  0  0  0  0  0  0  0  0  0
   -2.5901   -0.6279   -0.6678 H   0  0  0  0  0  0  0  0  0  0  0  0
   -1.7437   -0.5769    1.9746 H   0  0  0  0  0  0  0  0  0  0  0  0
   -1.3132    1.0270   -1.5795 H   0  0  0  0  0  0  0  0  0  0  0  0
   -1.3674    2.7767    0.0652 H   0  0  0  0  0  0  0  0  0  0  0  0
    0.5728    2.1321   -0.4668 H   0  0  0  0  0  0  0  0  0  0  0  0
    0.2674    1.2456    1.0491 H   0  0  0  0  0  0  0  0  0  0  0  0
  1  2  1  0
  2  3  1  0
  3  4  1  0
  4  5  1  0
  5  6  1  0
  5  7  1  0
  7  8  1  0
  7  9  1  0
  9  2  1  0
  1 10  1  0
  1 11  1  0
  1 12  1  0
  2 13  1  0
  3 14  1  0
  3 15  1  0
  4 16  1  0
  4 17  1  0
  5 18  1  0
  6 19  1  0
  7 20  1  0
  8 21  1  0
  9 22  1  0
  9 23  1  0
M  END
