
     RDKit          3D

 21 22  0  0  0  0  0  0  0  0999 V2000
   -2.5158    0.1652   -0.3814 C   0  0  0  0  0  0  0  0  0  0  0  0
   -1.0864    0.2983   -0.7787 C   0  0  0  0  0  0  0  0  0  0  0  0
   -0.2720   -0.9475   -0.7491 C   0  0  0  0  0  0  0  0  0  0  0  0
    0.8437   -1.0947   -1.5286 O   0  0  0  0  0  0  0  0  0  0  0  0
    1.9259   -0.6934   -0.7158 C   0  0  0  0  0  0  0  0  0  0  0  0
    1.3851    0.6565   -0.2266 C   0  0  0  0  0  0  0  0  0  0  0  0
    2.1244    1.1134    0.8754 O   0  0  0  0  0  0  0  0  0  0  0  0
   -0.0037    0.2442    0.1838 C   0  0  0  0  0  0  0  0  0  0  0  0
   -0.1578   -0.0928    1.6302 C   0  0  0  0  0  0  0  0  0  0  0  0
   -2.8425   -0.9096   -0.3134 H   0  0  0  0  0  0  0  0  0  0  0  0
   -3.2224    0.6146   -1.1344 H   0  0  0  0  0  0  0  0  0  0  0  0
   -2.7584    0.6510    0.5938 H   0  0  0  0  0  0  0  0  0  0  0  0
   -0.9118    0.9351   -1.6914 H   0  0  0  0  0  0  0  0  0  0  0  0
   -0.7072   -1.8589   -0.3239 H   0  0  0  0  0  0  0  0  0  0  0  0
    1.9830   -1.3511    0.1780 H   0  0  0  0  0  0  0  0  0  0  0  0
    2.8539   -0.5949   -1.2704 H   0  0  0  0  0  0  0  0  0  0  0  0
    1.4060    1.3619   -1.0696 H   0  0  0  0  0  0  0  0  0  0  0  0
    2.3483    2.0744    0.7305 H   0  0  0  0  0  0  0  0  0  0  0  0
    0.0987    0.7981    2.2486 H   0  0  0  0  0  0  0  0  0  0  0  0
    0.6492   -0.8450    1.8753 H   0  0  0  0  0  0  0  0  0  0  0  0
   -1.1403   -0.5247    1.8677 H   0  0  0  0  0  0  0  0  0  0  0  0
  1  2  1  0
  2  3  1  0
  3  4  1  0
  4  5  1  0
  5  6  1  0
  6  7  1  0
  6  8  1  0
  8  9  1  0
  8  2  1  0
  8  3  1  0
  1 10  1  0
  1 11  1  0
  1 12  1  0
  2 13  1  0
  3 14  1  0
  5 15  1  0
  5 16  1  0
  6 17  1  0
  7 18  1  0
  9 19  1  0
  9 20  1  0
  9 21  1  0
M  END
