
     RDKit          3D

 20 21  0  0  0  0  0  0  0  0999 V2000
    2.0871    0.0716   -0.2789 C   0  0  0  0  0  0  0  0  0  0  0  0
    0.9209   -0.3753    0.5841 C   0  0  0  0  0  0  0  0  0  0  0  0
    0.0665   -1.2764   -0.2504 C   0  0  0  0  0  0  0  0  0  0  0  0
   -1.3101   -0.6983   -0.2131 C   0  0  0  0  0  0  0  0  0  0  0  0
   -1.9331   -0.7795   -1.4610 O   0  0  0  0  0  0  0  0  0  0  0  0
   -1.2635    0.6568    0.3620 C   0  0  0  0  0  0  0  0  0  0  0  0
   -0.3484    1.7220   -0.0378 C   0  0  0  0  0  0  0  0  0  0  0  0
    0.0538    0.7650    1.0148 C   0  0  0  0  0  0  0  0  0  0  0  0
    2.4876    1.0453    0.0396 H   0  0  0  0  0  0  0  0  0  0  0  0
    2.8405   -0.7529   -0.2230 H   0  0  0  0  0  0  0  0  0  0  0  0
    1.7743    0.0966   -1.3550 H   0  0  0  0  0  0  0  0  0  0  0  0
    1.3464   -0.8460    1.4772 H   0  0  0  0  0  0  0  0  0  0  0  0
    0.4124   -1.3867   -1.2965 H   0  0  0  0  0  0  0  0  0  0  0  0
    0.1221   -2.2982    0.2118 H   0  0  0  0  0  0  0  0  0  0  0  0
   -1.9159   -1.3502    0.4841 H   0  0  0  0  0  0  0  0  0  0  0  0
   -2.8577   -1.1080   -1.3760 H   0  0  0  0  0  0  0  0  0  0  0  0
   -2.2018    0.9663    0.9042 H   0  0  0  0  0  0  0  0  0  0  0  0
    0.2464    1.7110   -0.9716 H   0  0  0  0  0  0  0  0  0  0  0  0
   -0.5745    2.7475    0.3112 H   0  0  0  0  0  0  0  0  0  0  0  0
    0.0470    1.0895    2.0744 H   0  0  0  0  0  0  0  0  0  0  0  0
  1  2  1  0
  2  3  1  0
  3  4  1  0
  4  5  1  0
  4  6  1  0
  6  7  1  0
  7  8  1  0
  8  2  1  0
  8  6  1  0
  1  9  1  0
  1 10  1  0
  1 11  1  0
  2 12  1  0
  3 13  1  0
  3 14  1  0
  4 15  1  0
  5 16  1  0
  6 17  1  0
  7 18  1  0
  7 19  1  0
  8 20  1  0
M  END
