
     RDKit          3D

 19 21  0  0  0  0  0  0  0  0999 V2000
    1.8611    0.2631    0.4788 C   0  0  0  0  0  0  0  0  0  0  0  0
    0.9108   -0.0307   -0.6926 C   0  0  0  0  0  0  0  0  0  0  0  0
    0.3984   -1.4272   -0.4413 C   0  0  0  0  0  0  0  0  0  0  0  0
   -0.7796   -1.8591   -0.9752 O   0  0  0  0  0  0  0  0  0  0  0  0
   -0.7699   -1.2285    0.3964 C   0  0  0  0  0  0  0  0  0  0  0  0
   -1.3150    0.1389    0.2519 C   0  0  0  0  0  0  0  0  0  0  0  0
   -2.6402    0.2082   -0.1923 O   0  0  0  0  0  0  0  0  0  0  0  0
   -0.6651    1.3568    0.7204 C   0  0  0  0  0  0  0  0  0  0  0  0
   -0.3051    0.8553   -0.6443 C   0  0  0  0  0  0  0  0  0  0  0  0
    2.7846   -0.3035    0.2751 H   0  0  0  0  0  0  0  0  0  0  0  0
    1.4168   -0.2135    1.3979 H   0  0  0  0  0  0  0  0  0  0  0  0
    2.0481    1.3259    0.5980 H   0  0  0  0  0  0  0  0  0  0  0  0
    1.4716    0.0829   -1.6170 H   0  0  0  0  0  0  0  0  0  0  0  0
    1.1607   -2.1604   -0.0821 H   0  0  0  0  0  0  0  0  0  0  0  0
   -1.0756   -1.9291    1.1700 H   0  0  0  0  0  0  0  0  0  0  0  0
   -2.6542   -0.0815   -1.1495 H   0  0  0  0  0  0  0  0  0  0  0  0
    0.1459    1.3804    1.4651 H   0  0  0  0  0  0  0  0  0  0  0  0
   -1.3156    2.2673    0.7809 H   0  0  0  0  0  0  0  0  0  0  0  0
   -0.6775    1.3546   -1.5495 H   0  0  0  0  0  0  0  0  0  0  0  0
  1  2  1  0
  2  3  1  0
  3  4  1  0
  4  5  1  0
  5  6  1  0
  6  7  1  0
  6  8  1  0
  8  9  1  0
  9  2  1  0
  5  3  1  0
  9  6  1  0
  1 10  1  0
  1 11  1  0
  1 12  1  0
  2 13  1  0
  3 14  1  0
  5 15  1  0
  7 16  1  0
  8 17  1  0
  8 18  1  0
  9 19  1  0
M  END
