
     RDKit          3D

 21 23  0  0  0  0  0  0  0  0999 V2000
   -2.3942   -0.8582    0.1805 C   0  0  0  0  0  0  0  0  0  0  0  0
   -1.2882   -0.2528   -0.6172 C   0  0  0  0  0  0  0  0  0  0  0  0
    0.0447   -0.8679   -0.4086 C   0  0  0  0  0  0  0  0  0  0  0  0
    1.1056   -0.3151   -1.3473 C   0  0  0  0  0  0  0  0  0  0  0  0
    2.2767    0.2620   -0.6653 C   0  0  0  0  0  0  0  0  0  0  0  0
    2.7410   -0.5065    0.4085 O   0  0  0  0  0  0  0  0  0  0  0  0
    0.9961    0.9981   -0.5667 C   0  0  0  0  0  0  0  0  0  0  0  0
   -0.1946    0.4593    0.1244 C   0  0  0  0  0  0  0  0  0  0  0  0
   -0.5147    0.7820    1.5390 C   0  0  0  0  0  0  0  0  0  0  0  0
   -1.9720   -1.2472    1.1369 H   0  0  0  0  0  0  0  0  0  0  0  0
   -2.7362   -1.7826   -0.3703 H   0  0  0  0  0  0  0  0  0  0  0  0
   -3.2498   -0.2085    0.3658 H   0  0  0  0  0  0  0  0  0  0  0  0
   -1.5571    0.2125   -1.5764 H   0  0  0  0  0  0  0  0  0  0  0  0
    0.2150   -1.7789    0.1497 H   0  0  0  0  0  0  0  0  0  0  0  0
    0.8923   -0.1970   -2.4076 H   0  0  0  0  0  0  0  0  0  0  0  0
    3.0663    0.6772   -1.2840 H   0  0  0  0  0  0  0  0  0  0  0  0
    3.5610   -0.1303    0.8012 H   0  0  0  0  0  0  0  0  0  0  0  0
    0.9320    1.9441   -1.1417 H   0  0  0  0  0  0  0  0  0  0  0  0
   -1.4867    1.3574    1.5386 H   0  0  0  0  0  0  0  0  0  0  0  0
    0.2317    1.5209    1.9389 H   0  0  0  0  0  0  0  0  0  0  0  0
   -0.6691   -0.0686    2.2016 H   0  0  0  0  0  0  0  0  0  0  0  0
  1  2  1  0
  2  3  1  0
  3  4  1  0
  4  5  1  0
  5  6  1  0
  5  7  1  0
  7  8  1  0
  8  9  1  0
  8  2  1  0
  8  3  1  0
  7  4  1  0
  1 10  1  0
  1 11  1  0
  1 12  1  0
  2 13  1  0
  3 14  1  0
  4 15  1  0
  5 16  1  0
  6 17  1  0
  7 18  1  0
  9 19  1  0
  9 20  1  0
  9 21  1  0
M  END
