
     RDKit          3D

 21 22  0  0  0  0  0  0  0  0999 V2000
   -1.2043   -1.6791   -0.3936 C   0  0  0  0  0  0  0  0  0  0  0  0
   -0.8780   -0.4524    0.3777 C   0  0  0  0  0  0  0  0  0  0  0  0
   -1.3702    0.8610   -0.2374 C   0  0  0  0  0  0  0  0  0  0  0  0
   -2.4637    1.3231    0.4512 O   0  0  0  0  0  0  0  0  0  0  0  0
   -0.0268    1.4548    0.2204 C   0  0  0  0  0  0  0  0  0  0  0  0
    0.5072    0.0777    0.1638 C   0  0  0  0  0  0  0  0  0  0  0  0
    1.5748   -0.3481    1.0687 C   0  0  0  0  0  0  0  0  0  0  0  0
    2.3894   -0.1301   -0.2093 C   0  0  0  0  0  0  0  0  0  0  0  0
    1.1907   -0.3337   -0.9321 O   0  0  0  0  0  0  0  0  0  0  0  0
   -0.2847   -2.2558   -0.7003 H   0  0  0  0  0  0  0  0  0  0  0  0
   -1.7331   -2.3842    0.3133 H   0  0  0  0  0  0  0  0  0  0  0  0
   -1.8399   -1.4930   -1.2591 H   0  0  0  0  0  0  0  0  0  0  0  0
   -1.1069   -0.4711    1.4699 H   0  0  0  0  0  0  0  0  0  0  0  0
   -1.4502    0.7989   -1.3312 H   0  0  0  0  0  0  0  0  0  0  0  0
   -2.8362    2.1551    0.0968 H   0  0  0  0  0  0  0  0  0  0  0  0
   -0.0941    1.9011    1.2394 H   0  0  0  0  0  0  0  0  0  0  0  0
    0.4090    2.1738   -0.5013 H   0  0  0  0  0  0  0  0  0  0  0  0
    1.4621   -1.4415    1.3274 H   0  0  0  0  0  0  0  0  0  0  0  0
    1.8741    0.2735    1.9071 H   0  0  0  0  0  0  0  0  0  0  0  0
    2.7596    0.9053   -0.2446 H   0  0  0  0  0  0  0  0  0  0  0  0
    3.1212   -0.9353   -0.3538 H   0  0  0  0  0  0  0  0  0  0  0  0
  1  2  1  0
  2  3  1  0
  3  4  1  0
  3  5  1  0
  5  6  1  0
  6  7  1  0
  7  8  1  0
  8  9  1  0
  6  2  1  0
  9  6  1  0
  1 10  1  0
  1 11  1  0
  1 12  1  0
  2 13  1  0
  3 14  1  0
  4 15  1  0
  5 16  1  0
  5 17  1  0
  7 18  1  0
  7 19  1  0
  8 20  1  0
  8 21  1  0
M  END
