
     RDKit          3D

 19 21  0  0  0  0  0  0  0  0999 V2000
    1.7566    0.3318   -0.7752 C   0  0  0  0  0  0  0  0  0  0  0  0
    0.9556   -0.0424    0.4225 C   0  0  0  0  0  0  0  0  0  0  0  0
    0.6322   -1.5265    0.3948 C   0  0  0  0  0  0  0  0  0  0  0  0
    0.0301   -2.2589    1.2986 O   0  0  0  0  0  0  0  0  0  0  0  0
   -0.4934   -1.0416    1.3624 C   0  0  0  0  0  0  0  0  0  0  0  0
   -0.5151    0.0541    0.3614 C   0  0  0  0  0  0  0  0  0  0  0  0
   -1.2371    1.2677    0.6723 C   0  0  0  0  0  0  0  0  0  0  0  0
   -2.2435    0.8449   -0.2312 O   0  0  0  0  0  0  0  0  0  0  0  0
   -1.2774    0.0128   -0.8457 C   0  0  0  0  0  0  0  0  0  0  0  0
    1.9591    1.4129   -0.8648 H   0  0  0  0  0  0  0  0  0  0  0  0
    2.7323   -0.2327   -0.7023 H   0  0  0  0  0  0  0  0  0  0  0  0
    1.2801   -0.0745   -1.7084 H   0  0  0  0  0  0  0  0  0  0  0  0
    1.3991    0.3241    1.3494 H   0  0  0  0  0  0  0  0  0  0  0  0
    0.2306   -1.7584   -0.6455 H   0  0  0  0  0  0  0  0  0  0  0  0
   -0.1313   -0.5724    2.3368 H   0  0  0  0  0  0  0  0  0  0  0  0
   -0.8663    2.2484    0.3195 H   0  0  0  0  0  0  0  0  0  0  0  0
   -1.6787    1.3454    1.6767 H   0  0  0  0  0  0  0  0  0  0  0  0
   -1.6990   -0.9498   -1.2202 H   0  0  0  0  0  0  0  0  0  0  0  0
   -0.8339    0.6150   -1.6857 H   0  0  0  0  0  0  0  0  0  0  0  0
  1  2  1  0
  2  3  1  0
  3  4  1  0
  4  5  1  0
  5  6  1  0
  6  7  1  0
  7  8  1  0
  8  9  1  0
  6  2  1  0
  5  3  1  0
  9  6  1  0
  1 10  1  0
  1 11  1  0
  1 12  1  0
  2 13  1  0
  3 14  1  0
  5 15  1  0
  7 16  1  0
  7 17  1  0
  9 18  1  0
  9 19  1  0
M  END
