
     RDKit          3D

 17 19  0  0  0  0  0  0  0  0999 V2000
    1.9186    0.4516    0.0799 C   0  0  0  0  0  0  0  0  0  0  0  0
    0.4351    0.7285    0.3517 C   0  0  0  0  0  0  0  0  0  0  0  0
   -0.3501    0.3741   -0.8859 C   0  0  0  0  0  0  0  0  0  0  0  0
   -1.7726    0.7531   -0.6992 C   0  0  0  0  0  0  0  0  0  0  0  0
   -2.2799    1.8259   -1.1267 O   0  0  0  0  0  0  0  0  0  0  0  0
   -2.4186   -0.2542    0.0071 O   0  0  0  0  0  0  0  0  0  0  0  0
   -1.4157   -1.1039    0.5664 C   0  0  0  0  0  0  0  0  0  0  0  0
   -0.1933   -0.4372    1.0378 C   0  0  0  0  0  0  0  0  0  0  0  0
   -0.3415   -1.0430   -0.3864 C   0  0  0  0  0  0  0  0  0  0  0  0
    2.1259    0.4452   -1.0150 H   0  0  0  0  0  0  0  0  0  0  0  0
    2.5619    1.2489    0.5051 H   0  0  0  0  0  0  0  0  0  0  0  0
    2.2179   -0.5357    0.4607 H   0  0  0  0  0  0  0  0  0  0  0  0
    0.2381    1.7211    0.7758 H   0  0  0  0  0  0  0  0  0  0  0  0
    0.1016    0.5807   -1.8474 H   0  0  0  0  0  0  0  0  0  0  0  0
   -1.6922   -2.0411    1.0297 H   0  0  0  0  0  0  0  0  0  0  0  0
    0.4332   -0.9649    1.7527 H   0  0  0  0  0  0  0  0  0  0  0  0
    0.4315   -1.7489   -0.6061 H   0  0  0  0  0  0  0  0  0  0  0  0
  1  2  1  0
  2  3  1  0
  3  4  1  0
  4  5  2  0
  4  6  1  0
  6  7  1  0
  7  8  1  0
  8  9  1  0
  8  2  1  0
  9  3  1  0
  9  7  1  0
  1 10  1  0
  1 11  1  0
  1 12  1  0
  2 13  1  0
  3 14  1  0
  7 15  1  0
  8 16  1  0
  9 17  1  0
M  END
