
     RDKit          3D

 21 22  0  0  0  0  0  0  0  0999 V2000
    2.7095    0.4188   -0.2725 C   0  0  0  0  0  0  0  0  0  0  0  0
    1.5466   -0.3973    0.2548 C   0  0  0  0  0  0  0  0  0  0  0  0
    0.3098   -0.3761   -0.4987 C   0  0  0  0  0  0  0  0  0  0  0  0
   -0.7948   -1.3681   -0.4098 C   0  0  0  0  0  0  0  0  0  0  0  0
   -2.1056   -0.6410   -0.0779 C   0  0  0  0  0  0  0  0  0  0  0  0
   -1.9290    0.3726    0.8244 O   0  0  0  0  0  0  0  0  0  0  0  0
   -1.3058    1.5014    0.3152 C   0  0  0  0  0  0  0  0  0  0  0  0
    0.0447    1.5602    0.7427 O   0  0  0  0  0  0  0  0  0  0  0  0
    0.4401    0.2655    0.8992 C   0  0  0  0  0  0  0  0  0  0  0  0
    3.3653   -0.2194   -0.9309 H   0  0  0  0  0  0  0  0  0  0  0  0
    2.3916    1.2838   -0.8628 H   0  0  0  0  0  0  0  0  0  0  0  0
    3.3365    0.6983    0.5992 H   0  0  0  0  0  0  0  0  0  0  0  0
    1.8737   -1.3726    0.6754 H   0  0  0  0  0  0  0  0  0  0  0  0
    0.2629    0.2935   -1.3763 H   0  0  0  0  0  0  0  0  0  0  0  0
   -0.5553   -2.1261    0.3488 H   0  0  0  0  0  0  0  0  0  0  0  0
   -0.9797   -1.8931   -1.3707 H   0  0  0  0  0  0  0  0  0  0  0  0
   -2.7712   -1.3974    0.3831 H   0  0  0  0  0  0  0  0  0  0  0  0
   -2.5989   -0.3155   -1.0216 H   0  0  0  0  0  0  0  0  0  0  0  0
   -1.3813    1.5784   -0.7865 H   0  0  0  0  0  0  0  0  0  0  0  0
   -1.7900    2.3909    0.8154 H   0  0  0  0  0  0  0  0  0  0  0  0
   -0.0692   -0.2569    1.7496 H   0  0  0  0  0  0  0  0  0  0  0  0
  1  2  1  0
  2  3  1  0
  3  4  1  0
  4  5  1  0
  5  6  1  0
  6  7  1  0
  7  8  1  0
  8  9  1  0
  9  2  1  0
  9  3  1  0
  1 10  1  0
  1 11  1  0
  1 12  1  0
  2 13  1  0
  3 14  1  0
  4 15  1  0
  4 16  1  0
  5 17  1  0
  5 18  1  0
  7 19  1  0
  7 20  1  0
  9 21  1  0
M  END
