
     RDKit          3D

 22 22  0  0  0  0  0  0  0  0999 V2000
    2.6108    0.0709   -0.6367 C   0  0  0  0  0  0  0  0  0  0  0  0
    1.5576    0.8552    0.0983 C   0  0  0  0  0  0  0  0  0  0  0  0
    0.2076    0.6446   -0.5963 C   0  0  0  0  0  0  0  0  0  0  0  0
   -0.0432   -0.4801    0.3532 C   0  0  0  0  0  0  0  0  0  0  0  0
   -1.4615   -0.5463    0.7882 C   0  0  0  0  0  0  0  0  0  0  0  0
   -2.3934   -0.7508   -0.3924 C   0  0  0  0  0  0  0  0  0  0  0  0
   -2.2635    0.3016   -1.2884 O   0  0  0  0  0  0  0  0  0  0  0  0
    0.9549    0.1284    1.2834 C   0  0  0  0  0  0  0  0  0  0  0  0
    2.7215    0.5297   -1.6415 H   0  0  0  0  0  0  0  0  0  0  0  0
    3.5630   -0.0184   -0.0859 H   0  0  0  0  0  0  0  0  0  0  0  0
    2.2240   -0.9803   -0.7488 H   0  0  0  0  0  0  0  0  0  0  0  0
    1.8186    1.9121    0.2731 H   0  0  0  0  0  0  0  0  0  0  0  0
    0.2618    0.3476   -1.6428 H   0  0  0  0  0  0  0  0  0  0  0  0
   -0.4631    1.5391   -0.4918 H   0  0  0  0  0  0  0  0  0  0  0  0
    0.3071   -1.4606   -0.0688 H   0  0  0  0  0  0  0  0  0  0  0  0
   -1.5932   -1.4140    1.4878 H   0  0  0  0  0  0  0  0  0  0  0  0
   -1.7271    0.3780    1.3333 H   0  0  0  0  0  0  0  0  0  0  0  0
   -3.4515   -0.7763   -0.0322 H   0  0  0  0  0  0  0  0  0  0  0  0
   -2.1581   -1.6751   -0.9492 H   0  0  0  0  0  0  0  0  0  0  0  0
   -2.7792    1.0911   -1.0602 H   0  0  0  0  0  0  0  0  0  0  0  0
    1.6288   -0.5832    1.7974 H   0  0  0  0  0  0  0  0  0  0  0  0
    0.4784    0.8867    1.9622 H   0  0  0  0  0  0  0  0  0  0  0  0
  1  2  1  0
  2  3  1  0
  3  4  1  0
  4  5  1  0
  5  6  1  0
  6  7  1  0
  4  8  1  0
  8  2  1  0
  1  9  1  0
  1 10  1  0
  1 11  1  0
  2 12  1  0
  3 13  1  0
  3 14  1  0
  4 15  1  0
  5 16  1  0
  5 17  1  0
  6 18  1  0
  6 19  1  0
  7 20  1  0
  8 21  1  0
  8 22  1  0
M  END
