
     RDKit          3D

 21 22  0  0  0  0  0  0  0  0999 V2000
    2.8638   -0.0921    0.2418 C   0  0  0  0  0  0  0  0  0  0  0  0
    1.4884    0.1146   -0.3062 C   0  0  0  0  0  0  0  0  0  0  0  0
    0.6367   -1.1576   -0.2045 C   0  0  0  0  0  0  0  0  0  0  0  0
   -0.5169   -0.8333   -0.9595 O   0  0  0  0  0  0  0  0  0  0  0  0
   -1.2547    0.0150   -0.1525 C   0  0  0  0  0  0  0  0  0  0  0  0
   -2.4569   -0.6796    0.4982 C   0  0  0  0  0  0  0  0  0  0  0  0
   -1.4168    1.4388   -0.4084 C   0  0  0  0  0  0  0  0  0  0  0  0
   -0.4599    0.8975    0.6735 C   0  0  0  0  0  0  0  0  0  0  0  0
    0.8479    1.0920    0.3919 O   0  0  0  0  0  0  0  0  0  0  0  0
    3.2900    0.9338    0.4387 H   0  0  0  0  0  0  0  0  0  0  0  0
    3.5625   -0.5933   -0.4228 H   0  0  0  0  0  0  0  0  0  0  0  0
    2.7642   -0.5533    1.2466 H   0  0  0  0  0  0  0  0  0  0  0  0
    1.5438    0.4118   -1.3885 H   0  0  0  0  0  0  0  0  0  0  0  0
    0.3687   -1.2334    0.8821 H   0  0  0  0  0  0  0  0  0  0  0  0
    1.1519   -2.0331   -0.5914 H   0  0  0  0  0  0  0  0  0  0  0  0
   -3.3765   -0.0612    0.2980 H   0  0  0  0  0  0  0  0  0  0  0  0
   -2.6644   -1.6602    0.0238 H   0  0  0  0  0  0  0  0  0  0  0  0
   -2.2931   -0.8551    1.5662 H   0  0  0  0  0  0  0  0  0  0  0  0
   -0.9877    1.8619   -1.3185 H   0  0  0  0  0  0  0  0  0  0  0  0
   -2.2990    1.9588   -0.0052 H   0  0  0  0  0  0  0  0  0  0  0  0
   -0.7920    1.0281    1.7401 H   0  0  0  0  0  0  0  0  0  0  0  0
  1  2  1  0
  2  3  1  0
  3  4  1  0
  4  5  1  0
  5  6  1  0
  5  7  1  0
  7  8  1  0
  8  9  1  0
  9  2  1  0
  8  5  1  0
  1 10  1  0
  1 11  1  0
  1 12  1  0
  2 13  1  0
  3 14  1  0
  3 15  1  0
  6 16  1  0
  6 17  1  0
  6 18  1  0
  7 19  1  0
  7 20  1  0
  8 21  1  0
M  END
