
     RDKit          3D

 19 19  0  0  0  0  0  0  0  0999 V2000
    1.8917    0.2739    0.6727 C   0  0  0  0  0  0  0  0  0  0  0  0
    1.1177   -0.2793   -0.5114 C   0  0  0  0  0  0  0  0  0  0  0  0
    0.2582    0.8019   -1.0698 C   0  0  0  0  0  0  0  0  0  0  0  0
   -0.7112    1.2747   -0.0121 C   0  0  0  0  0  0  0  0  0  0  0  0
   -1.6731    0.5375    0.5325 C   0  0  0  0  0  0  0  0  0  0  0  0
   -2.0066   -0.8830    0.2336 C   0  0  0  0  0  0  0  0  0  0  0  0
   -0.8492   -1.6521    0.4785 O   0  0  0  0  0  0  0  0  0  0  0  0
    0.4055   -1.4737   -0.0631 C   0  0  0  0  0  0  0  0  0  0  0  0
    1.0791   -2.5469   -0.2030 O   0  0  0  0  0  0  0  0  0  0  0  0
    2.9374    0.4555    0.3919 H   0  0  0  0  0  0  0  0  0  0  0  0
    1.8410   -0.4137    1.5533 H   0  0  0  0  0  0  0  0  0  0  0  0
    1.4002    1.2255    1.0222 H   0  0  0  0  0  0  0  0  0  0  0  0
    1.8548   -0.5639   -1.3170 H   0  0  0  0  0  0  0  0  0  0  0  0
   -0.3727    0.3784   -1.8756 H   0  0  0  0  0  0  0  0  0  0  0  0
    0.8563    1.6288   -1.4402 H   0  0  0  0  0  0  0  0  0  0  0  0
   -0.6199    2.2969    0.3348 H   0  0  0  0  0  0  0  0  0  0  0  0
   -2.2598    1.0677    1.2749 H   0  0  0  0  0  0  0  0  0  0  0  0
   -2.8671   -1.2124    0.8516 H   0  0  0  0  0  0  0  0  0  0  0  0
   -2.2822   -0.9158   -0.8538 H   0  0  0  0  0  0  0  0  0  0  0  0
  1  2  1  0
  2  3  1  0
  3  4  1  0
  4  5  2  0
  5  6  1  0
  6  7  1  0
  7  8  1  0
  8  9  2  0
  8  2  1  0
  1 10  1  0
  1 11  1  0
  1 12  1  0
  2 13  1  0
  3 14  1  0
  3 15  1  0
  4 16  1  0
  5 17  1  0
  6 18  1  0
  6 19  1  0
M  END
