
     RDKit          3D

 20 22  0  0  0  0  0  0  0  0999 V2000
    1.9894    0.4402    0.5163 C   0  0  0  0  0  0  0  0  0  0  0  0
    1.3292   -0.7162   -0.1299 C   0  0  0  0  0  0  0  0  0  0  0  0
    0.3130   -0.5319   -1.1866 C   0  0  0  0  0  0  0  0  0  0  0  0
   -0.3912    0.7683   -1.1174 C   0  0  0  0  0  0  0  0  0  0  0  0
   -1.5307    0.5544   -0.1962 C   0  0  0  0  0  0  0  0  0  0  0  0
   -1.4532    0.5619    1.2606 C   0  0  0  0  0  0  0  0  0  0  0  0
   -1.2235   -0.7018    0.5579 C   0  0  0  0  0  0  0  0  0  0  0  0
    0.0345   -1.2787    0.1382 C   0  0  0  0  0  0  0  0  0  0  0  0
    2.5445    0.0899    1.4357 H   0  0  0  0  0  0  0  0  0  0  0  0
    2.8200    0.8052   -0.1592 H   0  0  0  0  0  0  0  0  0  0  0  0
    1.4265    1.3023    0.7961 H   0  0  0  0  0  0  0  0  0  0  0  0
    2.1441   -1.4353   -0.4752 H   0  0  0  0  0  0  0  0  0  0  0  0
    0.2614   -1.1839   -2.0758 H   0  0  0  0  0  0  0  0  0  0  0  0
    0.2355    1.6378   -0.8027 H   0  0  0  0  0  0  0  0  0  0  0  0
   -0.7248    1.0461   -2.1467 H   0  0  0  0  0  0  0  0  0  0  0  0
   -2.5399    0.6749   -0.6973 H   0  0  0  0  0  0  0  0  0  0  0  0
   -2.4512    0.7104    1.7768 H   0  0  0  0  0  0  0  0  0  0  0  0
   -0.6801    1.0740    1.8633 H   0  0  0  0  0  0  0  0  0  0  0  0
   -2.1183   -1.4006    0.5746 H   0  0  0  0  0  0  0  0  0  0  0  0
    0.0148   -2.4170    0.0673 H   0  0  0  0  0  0  0  0  0  0  0  0
  1  2  1  0
  2  3  1  0
  3  4  1  0
  4  5  1  0
  5  6  1  0
  6  7  1  0
  7  8  1  0
  8  2  1  0
  8  3  1  0
  7  5  1  0
  1  9  1  0
  1 10  1  0
  1 11  1  0
  2 12  1  0
  3 13  1  0
  4 14  1  0
  4 15  1  0
  5 16  1  0
  6 17  1  0
  6 18  1  0
  7 19  1  0
  8 20  1  0
M  END
