
     RDKit          3D

 21 22  0  0  0  0  0  0  0  0999 V2000
    0.9400    1.7174   -0.0846 C   0  0  0  0  0  0  0  0  0  0  0  0
    1.0666    0.2767   -0.4530 C   0  0  0  0  0  0  0  0  0  0  0  0
    1.4866   -0.6052    0.7143 C   0  0  0  0  0  0  0  0  0  0  0  0
    2.0253   -1.7986    0.2643 O   0  0  0  0  0  0  0  0  0  0  0  0
    0.1713   -0.8981    1.3922 C   0  0  0  0  0  0  0  0  0  0  0  0
   -0.8473   -0.7014    0.5862 C   0  0  0  0  0  0  0  0  0  0  0  0
   -2.1527   -0.5577   -0.1044 C   0  0  0  0  0  0  0  0  0  0  0  0
   -1.4655    0.6669   -0.7560 C   0  0  0  0  0  0  0  0  0  0  0  0
   -0.2887   -0.2749   -0.7666 C   0  0  0  0  0  0  0  0  0  0  0  0
    0.2978    2.2131   -0.8372 H   0  0  0  0  0  0  0  0  0  0  0  0
    1.9317    2.2091    0.0041 H   0  0  0  0  0  0  0  0  0  0  0  0
    0.4173    1.7996    0.8857 H   0  0  0  0  0  0  0  0  0  0  0  0
    1.7422    0.0731   -1.2886 H   0  0  0  0  0  0  0  0  0  0  0  0
    2.1373   -0.0572    1.4009 H   0  0  0  0  0  0  0  0  0  0  0  0
    1.2984   -2.4931    0.2112 H   0  0  0  0  0  0  0  0  0  0  0  0
    0.1363   -1.2271    2.4193 H   0  0  0  0  0  0  0  0  0  0  0  0
   -2.2693   -1.3354   -0.8659 H   0  0  0  0  0  0  0  0  0  0  0  0
   -3.0094   -0.3036    0.5113 H   0  0  0  0  0  0  0  0  0  0  0  0
   -1.3838    1.4364    0.0081 H   0  0  0  0  0  0  0  0  0  0  0  0
   -1.8846    0.9318   -1.7313 H   0  0  0  0  0  0  0  0  0  0  0  0
   -0.3494   -1.0717   -1.5100 H   0  0  0  0  0  0  0  0  0  0  0  0
  1  2  1  0
  2  3  1  0
  3  4  1  0
  3  5  1  0
  5  6  2  0
  6  7  1  0
  7  8  1  0
  8  9  1  0
  9  2  1  0
  9  6  1  0
  1 10  1  0
  1 11  1  0
  1 12  1  0
  2 13  1  0
  3 14  1  0
  4 15  1  0
  5 16  1  0
  7 17  1  0
  7 18  1  0
  8 19  1  0
  8 20  1  0
  9 21  1  0
M  END
