
     RDKit          3D

 14 14  0  0  0  0  0  0  0  0999 V2000
   -1.7929    0.0251    0.2537 C   0  0  0  0  0  0  0  0  0  0  0  0
   -0.5443    0.2115   -0.5400 C   0  0  0  0  0  0  0  0  0  0  0  0
    0.4493    1.0961    0.0726 C   0  0  0  0  0  0  0  0  0  0  0  0
    1.5362    0.3954    0.3239 C   0  0  0  0  0  0  0  0  0  0  0  0
    1.2891   -1.0048   -0.1246 C   0  0  0  0  0  0  0  0  0  0  0  0
    0.0546   -1.0299   -0.7206 O   0  0  0  0  0  0  0  0  0  0  0  0
   -2.6655    0.1555   -0.4442 H   0  0  0  0  0  0  0  0  0  0  0  0
   -1.8920   -1.0181    0.6362 H   0  0  0  0  0  0  0  0  0  0  0  0
   -1.8786    0.6811    1.1385 H   0  0  0  0  0  0  0  0  0  0  0  0
   -0.7475    0.6072   -1.5737 H   0  0  0  0  0  0  0  0  0  0  0  0
    0.3412    2.1468    0.2936 H   0  0  0  0  0  0  0  0  0  0  0  0
    2.4809    0.6909    0.7694 H   0  0  0  0  0  0  0  0  0  0  0  0
    1.2976   -1.6487    0.7784 H   0  0  0  0  0  0  0  0  0  0  0  0
    2.0719   -1.3083   -0.8632 H   0  0  0  0  0  0  0  0  0  0  0  0
  1  2  1  0
  2  3  1  0
  3  4  2  0
  4  5  1  0
  5  6  1  0
  6  2  1  0
  1  7  1  0
  1  8  1  0
  1  9  1  0
  2 10  1  0
  3 11  1  0
  4 12  1  0
  5 13  1  0
  5 14  1  0
M  END
