
     RDKit          3D

 21 22  0  0  0  0  0  0  0  0999 V2000
    2.1903   -0.6223   -0.5360 C   0  0  0  0  0  0  0  0  0  0  0  0
    0.9383   -0.2289    0.1734 C   0  0  0  0  0  0  0  0  0  0  0  0
    0.5762    1.2166   -0.0568 C   0  0  0  0  0  0  0  0  0  0  0  0
   -0.8732    1.4724    0.3242 C   0  0  0  0  0  0  0  0  0  0  0  0
   -1.7269    0.2451    0.1468 C   0  0  0  0  0  0  0  0  0  0  0  0
   -1.2437   -0.9110    0.9907 C   0  0  0  0  0  0  0  0  0  0  0  0
   -0.2346   -1.1435   -0.1316 C   0  0  0  0  0  0  0  0  0  0  0  0
   -1.2094   -0.4846   -1.0437 C   0  0  0  0  0  0  0  0  0  0  0  0
   -1.4643   -0.5244   -2.2165 O   0  0  0  0  0  0  0  0  0  0  0  0
    2.8411    0.2919   -0.5919 H   0  0  0  0  0  0  0  0  0  0  0  0
    2.0302   -1.0714   -1.5194 H   0  0  0  0  0  0  0  0  0  0  0  0
    2.7779   -1.3696    0.0609 H   0  0  0  0  0  0  0  0  0  0  0  0
    1.1301   -0.3336    1.2734 H   0  0  0  0  0  0  0  0  0  0  0  0
    1.1963    1.8771    0.6085 H   0  0  0  0  0  0  0  0  0  0  0  0
    0.7888    1.5236   -1.1083 H   0  0  0  0  0  0  0  0  0  0  0  0
   -0.9608    1.9481    1.3000 H   0  0  0  0  0  0  0  0  0  0  0  0
   -1.2470    2.2215   -0.4310 H   0  0  0  0  0  0  0  0  0  0  0  0
   -2.7898    0.4593    0.1676 H   0  0  0  0  0  0  0  0  0  0  0  0
   -0.7478   -0.6643    1.9274 H   0  0  0  0  0  0  0  0  0  0  0  0
   -1.9745   -1.7207    1.0095 H   0  0  0  0  0  0  0  0  0  0  0  0
    0.0027   -2.1814   -0.3473 H   0  0  0  0  0  0  0  0  0  0  0  0
  1  2  1  0
  2  3  1  0
  3  4  1  0
  4  5  1  0
  5  6  1  0
  6  7  1  0
  7  8  1  0
  8  9  2  0
  7  2  1  0
  8  5  1  0
  1 10  1  0
  1 11  1  0
  1 12  1  0
  2 13  1  0
  3 14  1  0
  3 15  1  0
  4 16  1  0
  4 17  1  0
  5 18  1  0
  6 19  1  0
  6 20  1  0
  7 21  1  0
M  END
