
     RDKit          3D

 20 21  0  0  0  0  0  0  0  0999 V2000
   -2.6162    0.5545    0.1303 C   0  0  0  0  0  0  0  0  0  0  0  0
   -1.4049   -0.3021    0.3550 C   0  0  0  0  0  0  0  0  0  0  0  0
   -0.9157   -1.1741   -0.7731 C   0  0  0  0  0  0  0  0  0  0  0  0
   -0.0965    0.0047   -0.2439 C   0  0  0  0  0  0  0  0  0  0  0  0
    0.0863    1.0191   -1.1577 O   0  0  0  0  0  0  0  0  0  0  0  0
    1.1553   -0.3469    0.5394 C   0  0  0  0  0  0  0  0  0  0  0  0
    2.4589   -0.0098   -0.1266 C   0  0  0  0  0  0  0  0  0  0  0  0
    2.0178    0.7081    1.0929 C   0  0  0  0  0  0  0  0  0  0  0  0
   -3.1395    0.8101    1.0719 H   0  0  0  0  0  0  0  0  0  0  0  0
   -2.3851    1.4948   -0.4083 H   0  0  0  0  0  0  0  0  0  0  0  0
   -3.3517   -0.0472   -0.4793 H   0  0  0  0  0  0  0  0  0  0  0  0
   -1.3821   -0.8060    1.3436 H   0  0  0  0  0  0  0  0  0  0  0  0
   -0.4983   -2.1687   -0.5607 H   0  0  0  0  0  0  0  0  0  0  0  0
   -1.4789   -1.0403   -1.7123 H   0  0  0  0  0  0  0  0  0  0  0  0
    0.3568    0.5713   -2.0225 H   0  0  0  0  0  0  0  0  0  0  0  0
    1.1318   -1.3478    1.0066 H   0  0  0  0  0  0  0  0  0  0  0  0
    2.4417    0.5866   -1.0756 H   0  0  0  0  0  0  0  0  0  0  0  0
    3.3018   -0.7205   -0.0543 H   0  0  0  0  0  0  0  0  0  0  0  0
    1.7789    1.7724    1.0168 H   0  0  0  0  0  0  0  0  0  0  0  0
    2.5397    0.4418    2.0577 H   0  0  0  0  0  0  0  0  0  0  0  0
  1  2  1  0
  2  3  1  0
  3  4  1  0
  4  5  1  0
  4  6  1  0
  6  7  1  0
  7  8  1  0
  4  2  1  0
  8  6  1  0
  1  9  1  0
  1 10  1  0
  1 11  1  0
  2 12  1  0
  3 13  1  0
  3 14  1  0
  5 15  1  0
  6 16  1  0
  7 17  1  0
  7 18  1  0
  8 19  1  0
  8 20  1  0
M  END
