
     RDKit          3D

 21 23  0  0  0  0  0  0  0  0999 V2000
   -2.4526    0.2359   -0.7858 C   0  0  0  0  0  0  0  0  0  0  0  0
   -1.5431   -0.0014    0.3739 C   0  0  0  0  0  0  0  0  0  0  0  0
   -0.4329    1.0521    0.5041 C   0  0  0  0  0  0  0  0  0  0  0  0
    0.4488   -0.0780    0.9958 C   0  0  0  0  0  0  0  0  0  0  0  0
    1.7989   -0.1811    0.3996 C   0  0  0  0  0  0  0  0  0  0  0  0
    2.2239    0.5210   -0.8147 C   0  0  0  0  0  0  0  0  0  0  0  0
    1.5404   -0.8102   -0.9469 C   0  0  0  0  0  0  0  0  0  0  0  0
    0.1796   -0.8947   -1.1165 O   0  0  0  0  0  0  0  0  0  0  0  0
   -0.4153   -1.0004    0.1224 C   0  0  0  0  0  0  0  0  0  0  0  0
   -1.9002    0.3714   -1.7278 H   0  0  0  0  0  0  0  0  0  0  0  0
   -3.0595    1.1325   -0.5666 H   0  0  0  0  0  0  0  0  0  0  0  0
   -3.1536   -0.6137   -0.8517 H   0  0  0  0  0  0  0  0  0  0  0  0
   -2.0552   -0.2278    1.3068 H   0  0  0  0  0  0  0  0  0  0  0  0
   -0.1589    1.3908   -0.4957 H   0  0  0  0  0  0  0  0  0  0  0  0
   -0.6423    1.8333    1.2573 H   0  0  0  0  0  0  0  0  0  0  0  0
    0.3858   -0.3017    2.0677 H   0  0  0  0  0  0  0  0  0  0  0  0
    2.5713   -0.6386    1.0700 H   0  0  0  0  0  0  0  0  0  0  0  0
    3.3219    0.4866   -1.0296 H   0  0  0  0  0  0  0  0  0  0  0  0
    1.7561    1.4410   -1.1953 H   0  0  0  0  0  0  0  0  0  0  0  0
    2.1665   -1.7193   -1.1340 H   0  0  0  0  0  0  0  0  0  0  0  0
   -0.5797   -1.9977    0.5283 H   0  0  0  0  0  0  0  0  0  0  0  0
  1  2  1  0
  2  3  1  0
  3  4  1  0
  4  5  1  0
  5  6  1  0
  6  7  1  0
  7  8  1  0
  8  9  1  0
  9  2  1  0
  9  4  1  0
  7  5  1  0
  1 10  1  0
  1 11  1  0
  1 12  1  0
  2 13  1  0
  3 14  1  0
  3 15  1  0
  4 16  1  0
  5 17  1  0
  6 18  1  0
  6 19  1  0
  7 20  1  0
  9 21  1  0
M  END
