
     RDKit          3D

 19 20  0  0  0  0  0  0  0  0999 V2000
   -2.3002   -0.2024   -0.1720 C   0  0  0  0  0  0  0  0  0  0  0  0
   -0.8663    0.1931   -0.4287 C   0  0  0  0  0  0  0  0  0  0  0  0
    0.0242   -0.9531   -0.8018 C   0  0  0  0  0  0  0  0  0  0  0  0
    0.8568   -0.7139    0.4330 C   0  0  0  0  0  0  0  0  0  0  0  0
    2.1825   -0.0604    0.2043 C   0  0  0  0  0  0  0  0  0  0  0  0
    2.0196    1.3330    0.3291 O   0  0  0  0  0  0  0  0  0  0  0  0
    0.7379    1.6629    0.6916 C   0  0  0  0  0  0  0  0  0  0  0  0
    0.3527    2.8368    0.8863 O   0  0  0  0  0  0  0  0  0  0  0  0
   -0.0500    0.4347    0.8002 C   0  0  0  0  0  0  0  0  0  0  0  0
   -2.6095   -0.8603   -1.0114 H   0  0  0  0  0  0  0  0  0  0  0  0
   -2.4391   -0.6716    0.8054 H   0  0  0  0  0  0  0  0  0  0  0  0
   -2.9614    0.6973   -0.2362 H   0  0  0  0  0  0  0  0  0  0  0  0
   -0.8570    1.0420   -1.1626 H   0  0  0  0  0  0  0  0  0  0  0  0
   -0.4979   -1.9451   -0.8235 H   0  0  0  0  0  0  0  0  0  0  0  0
    0.5476   -0.8113   -1.7698 H   0  0  0  0  0  0  0  0  0  0  0  0
    0.8627   -1.5520    1.1562 H   0  0  0  0  0  0  0  0  0  0  0  0
    2.6357   -0.2730   -0.7652 H   0  0  0  0  0  0  0  0  0  0  0  0
    2.8983   -0.3902    1.0115 H   0  0  0  0  0  0  0  0  0  0  0  0
   -0.5365    0.2335    1.7728 H   0  0  0  0  0  0  0  0  0  0  0  0
  1  2  1  0
  2  3  1  0
  3  4  1  0
  4  5  1  0
  5  6  1  0
  6  7  1  0
  7  8  2  0
  7  9  1  0
  9  2  1  0
  9  4  1  0
  1 10  1  0
  1 11  1  0
  1 12  1  0
  2 13  1  0
  3 14  1  0
  3 15  1  0
  4 16  1  0
  5 17  1  0
  5 18  1  0
  9 19  1  0
M  END
