
     RDKit          3D

 21 22  0  0  0  0  0  0  0  0999 V2000
   -2.6650    1.1519   -0.0613 C   0  0  0  0  0  0  0  0  0  0  0  0
   -1.4120    0.4272    0.3591 C   0  0  0  0  0  0  0  0  0  0  0  0
   -1.3931   -0.9523   -0.3119 C   0  0  0  0  0  0  0  0  0  0  0  0
    0.0942   -1.2519   -0.4284 C   0  0  0  0  0  0  0  0  0  0  0  0
    0.6917    0.0477    0.0730 C   0  0  0  0  0  0  0  0  0  0  0  0
    2.0032    0.2740   -0.5677 C   0  0  0  0  0  0  0  0  0  0  0  0
    3.2368    0.1697    0.2605 C   0  0  0  0  0  0  0  0  0  0  0  0
    2.7994    1.3503   -0.3009 O   0  0  0  0  0  0  0  0  0  0  0  0
   -0.2534    1.0259   -0.1273 O   0  0  0  0  0  0  0  0  0  0  0  0
   -2.4344    1.7716   -0.9513 H   0  0  0  0  0  0  0  0  0  0  0  0
   -3.4480    0.3872   -0.3405 H   0  0  0  0  0  0  0  0  0  0  0  0
   -3.0695    1.8107    0.7322 H   0  0  0  0  0  0  0  0  0  0  0  0
   -1.4178    0.3021    1.4462 H   0  0  0  0  0  0  0  0  0  0  0  0
   -1.8104   -0.8973   -1.3259 H   0  0  0  0  0  0  0  0  0  0  0  0
   -1.9087   -1.7099    0.2951 H   0  0  0  0  0  0  0  0  0  0  0  0
    0.3840   -1.4496   -1.4915 H   0  0  0  0  0  0  0  0  0  0  0  0
    0.4059   -2.0640    0.2480 H   0  0  0  0  0  0  0  0  0  0  0  0
    0.8420   -0.0538    1.1717 H   0  0  0  0  0  0  0  0  0  0  0  0
    2.1035   -0.1210   -1.6138 H   0  0  0  0  0  0  0  0  0  0  0  0
    3.1539    0.1594    1.3819 H   0  0  0  0  0  0  0  0  0  0  0  0
    4.0978   -0.3779   -0.1509 H   0  0  0  0  0  0  0  0  0  0  0  0
  1  2  1  0
  2  3  1  0
  3  4  1  0
  4  5  1  0
  5  6  1  0
  6  7  1  0
  7  8  1  0
  5  9  1  0
  9  2  1  0
  8  6  1  0
  1 10  1  0
  1 11  1  0
  1 12  1  0
  2 13  1  0
  3 14  1  0
  3 15  1  0
  4 16  1  0
  4 17  1  0
  5 18  1  0
  6 19  1  0
  7 20  1  0
  7 21  1  0
M  END
