
     RDKit          3D

 21 21  0  0  0  0  0  0  0  0999 V2000
    2.5840    0.0222   -0.3915 C   0  0  0  0  0  0  0  0  0  0  0  0
    1.2952    0.0522    0.3915 C   0  0  0  0  0  0  0  0  0  0  0  0
    0.4205    1.2015    0.0641 C   0  0  0  0  0  0  0  0  0  0  0  0
   -0.5280    0.9618   -0.9117 O   0  0  0  0  0  0  0  0  0  0  0  0
   -1.4129   -0.0536   -0.5816 C   0  0  0  0  0  0  0  0  0  0  0  0
   -2.7343    0.4735   -0.0806 C   0  0  0  0  0  0  0  0  0  0  0  0
   -0.8228   -1.0627    0.3113 C   0  0  0  0  0  0  0  0  0  0  0  0
   -1.5172   -1.6479    1.0893 O   0  0  0  0  0  0  0  0  0  0  0  0
    0.6221   -1.3042    0.1979 C   0  0  0  0  0  0  0  0  0  0  0  0
    2.3214    0.1612   -1.4581 H   0  0  0  0  0  0  0  0  0  0  0  0
    3.1981    0.8719   -0.0780 H   0  0  0  0  0  0  0  0  0  0  0  0
    3.0537   -0.9657   -0.2557 H   0  0  0  0  0  0  0  0  0  0  0  0
    1.5668    0.1011    1.4669 H   0  0  0  0  0  0  0  0  0  0  0  0
   -0.1122    1.5467    0.9951 H   0  0  0  0  0  0  0  0  0  0  0  0
    1.0221    2.0715   -0.2729 H   0  0  0  0  0  0  0  0  0  0  0  0
   -1.6326   -0.5912   -1.5516 H   0  0  0  0  0  0  0  0  0  0  0  0
   -3.5176    0.4428   -0.8731 H   0  0  0  0  0  0  0  0  0  0  0  0
   -3.0565   -0.1112    0.8216 H   0  0  0  0  0  0  0  0  0  0  0  0
   -2.6442    1.5285    0.2646 H   0  0  0  0  0  0  0  0  0  0  0  0
    0.8924   -1.6790   -0.8246 H   0  0  0  0  0  0  0  0  0  0  0  0
    1.0020   -2.0193    0.9585 H   0  0  0  0  0  0  0  0  0  0  0  0
  1  2  1  0
  2  3  1  0
  3  4  1  0
  4  5  1  0
  5  6  1  0
  5  7  1  0
  7  8  2  0
  7  9  1  0
  9  2  1  0
  1 10  1  0
  1 11  1  0
  1 12  1  0
  2 13  1  0
  3 14  1  0
  3 15  1  0
  5 16  1  0
  6 17  1  0
  6 18  1  0
  6 19  1  0
  9 20  1  0
  9 21  1  0
M  END
