
     RDKit          3D

 19 19  0  0  0  0  0  0  0  0999 V2000
   -1.6655   -1.2260    0.0233 C   0  0  0  0  0  0  0  0  0  0  0  0
   -0.5218   -0.4788   -0.5981 C   0  0  0  0  0  0  0  0  0  0  0  0
    0.8194   -0.9657   -0.1519 C   0  0  0  0  0  0  0  0  0  0  0  0
    1.6174    0.2899    0.1099 C   0  0  0  0  0  0  0  0  0  0  0  0
    2.5224    0.0442    1.1259 O   0  0  0  0  0  0  0  0  0  0  0  0
    0.6278    1.3051    0.4995 C   0  0  0  0  0  0  0  0  0  0  0  0
    0.8111    2.2335    1.2366 O   0  0  0  0  0  0  0  0  0  0  0  0
   -0.6418    0.9713   -0.1868 C   0  0  0  0  0  0  0  0  0  0  0  0
   -1.7444    1.1997    0.6360 O   0  0  0  0  0  0  0  0  0  0  0  0
   -2.4540   -1.3453   -0.7570 H   0  0  0  0  0  0  0  0  0  0  0  0
   -1.4116   -2.2275    0.3853 H   0  0  0  0  0  0  0  0  0  0  0  0
   -2.1430   -0.6740    0.8549 H   0  0  0  0  0  0  0  0  0  0  0  0
   -0.5685   -0.5298   -1.7046 H   0  0  0  0  0  0  0  0  0  0  0  0
    0.7817   -1.6334    0.7373 H   0  0  0  0  0  0  0  0  0  0  0  0
    1.3367   -1.5483   -0.9441 H   0  0  0  0  0  0  0  0  0  0  0  0
    2.1390    0.6257   -0.8119 H   0  0  0  0  0  0  0  0  0  0  0  0
    3.4429    0.2348    0.7951 H   0  0  0  0  0  0  0  0  0  0  0  0
   -0.7998    1.6328   -1.0856 H   0  0  0  0  0  0  0  0  0  0  0  0
   -2.1480    2.0917    0.4652 H   0  0  0  0  0  0  0  0  0  0  0  0
  1  2  1  0
  2  3  1  0
  3  4  1  0
  4  5  1  0
  4  6  1  0
  6  7  2  0
  6  8  1  0
  8  9  1  0
  8  2  1  0
  1 10  1  0
  1 11  1  0
  1 12  1  0
  2 13  1  0
  3 14  1  0
  3 15  1  0
  4 16  1  0
  5 17  1  0
  8 18  1  0
  9 19  1  0
M  END
