
     RDKit          3D

 23 23  0  0  0  0  0  0  0  0999 V2000
    2.8433   -0.6317    0.5890 C   0  0  0  0  0  0  0  0  0  0  0  0
    1.8231   -0.0312   -0.3483 C   0  0  0  0  0  0  0  0  0  0  0  0
    1.3606    1.3167    0.1327 C   0  0  0  0  0  0  0  0  0  0  0  0
    0.0562    1.4746   -0.1729 C   0  0  0  0  0  0  0  0  0  0  0  0
   -0.4142    0.2612   -0.8626 C   0  0  0  0  0  0  0  0  0  0  0  0
   -1.8676   -0.0217   -0.6859 C   0  0  0  0  0  0  0  0  0  0  0  0
   -2.2086   -0.2075    0.7523 C   0  0  0  0  0  0  0  0  0  0  0  0
   -3.5916   -0.4711    0.8814 O   0  0  0  0  0  0  0  0  0  0  0  0
    0.4967   -0.8011   -0.2828 C   0  0  0  0  0  0  0  0  0  0  0  0
    2.3948   -0.7394    1.5860 H   0  0  0  0  0  0  0  0  0  0  0  0
    3.1297   -1.6062    0.1841 H   0  0  0  0  0  0  0  0  0  0  0  0
    3.7275    0.0248    0.5667 H   0  0  0  0  0  0  0  0  0  0  0  0
    2.1411   -0.0203   -1.3930 H   0  0  0  0  0  0  0  0  0  0  0  0
    1.9953    2.0245    0.6392 H   0  0  0  0  0  0  0  0  0  0  0  0
   -0.4625    2.3873    0.0933 H   0  0  0  0  0  0  0  0  0  0  0  0
   -0.1180    0.3476   -1.9428 H   0  0  0  0  0  0  0  0  0  0  0  0
   -2.0633   -1.0107   -1.1954 H   0  0  0  0  0  0  0  0  0  0  0  0
   -2.4449    0.7477   -1.2015 H   0  0  0  0  0  0  0  0  0  0  0  0
   -1.8995    0.6396    1.3966 H   0  0  0  0  0  0  0  0  0  0  0  0
   -1.6814   -1.1416    1.1051 H   0  0  0  0  0  0  0  0  0  0  0  0
   -4.0695    0.1751    0.2839 H   0  0  0  0  0  0  0  0  0  0  0  0
    0.5318   -1.7143   -0.9064 H   0  0  0  0  0  0  0  0  0  0  0  0
    0.3212   -1.0022    0.7812 H   0  0  0  0  0  0  0  0  0  0  0  0
  1  2  1  0
  2  3  1  0
  3  4  2  0
  4  5  1  0
  5  6  1  0
  6  7  1  0
  7  8  1  0
  5  9  1  0
  9  2  1  0
  1 10  1  0
  1 11  1  0
  1 12  1  0
  2 13  1  0
  3 14  1  0
  4 15  1  0
  5 16  1  0
  6 17  1  0
  6 18  1  0
  7 19  1  0
  7 20  1  0
  8 21  1  0
  9 22  1  0
  9 23  1  0
M  END
