
     RDKit          3D

 21 22  0  0  0  0  0  0  0  0999 V2000
    2.1289   -0.0948   -0.6509 C   0  0  0  0  0  0  0  0  0  0  0  0
    1.3693   -0.7587    0.4709 C   0  0  0  0  0  0  0  0  0  0  0  0
    0.4423    0.0424    1.2896 C   0  0  0  0  0  0  0  0  0  0  0  0
    0.0798    1.3850    0.7179 C   0  0  0  0  0  0  0  0  0  0  0  0
   -1.0960    1.1177   -0.1612 C   0  0  0  0  0  0  0  0  0  0  0  0
   -0.9715   -0.3195   -0.5916 C   0  0  0  0  0  0  0  0  0  0  0  0
   -2.3071   -0.9524   -0.5854 C   0  0  0  0  0  0  0  0  0  0  0  0
   -2.3578   -2.1601   -0.4731 O   0  0  0  0  0  0  0  0  0  0  0  0
   -0.0776   -1.0131    0.3871 C   0  0  0  0  0  0  0  0  0  0  0  0
    2.6971    0.7931   -0.2568 H   0  0  0  0  0  0  0  0  0  0  0  0
    1.4808    0.2174   -1.4732 H   0  0  0  0  0  0  0  0  0  0  0  0
    2.9081   -0.7852   -1.0408 H   0  0  0  0  0  0  0  0  0  0  0  0
    1.9686   -1.5130    1.0168 H   0  0  0  0  0  0  0  0  0  0  0  0
    0.2642   -0.1535    2.3652 H   0  0  0  0  0  0  0  0  0  0  0  0
   -0.1209    2.0778    1.5503 H   0  0  0  0  0  0  0  0  0  0  0  0
    0.9505    1.7786    0.1171 H   0  0  0  0  0  0  0  0  0  0  0  0
   -2.0197    1.2359    0.4235 H   0  0  0  0  0  0  0  0  0  0  0  0
   -1.1182    1.7838   -1.0375 H   0  0  0  0  0  0  0  0  0  0  0  0
   -0.5507   -0.3211   -1.6159 H   0  0  0  0  0  0  0  0  0  0  0  0
   -3.2070   -0.3734   -0.6765 H   0  0  0  0  0  0  0  0  0  0  0  0
   -0.4632   -1.9869    0.8045 H   0  0  0  0  0  0  0  0  0  0  0  0
  1  2  1  0
  2  3  1  0
  3  4  1  0
  4  5  1  0
  5  6  1  0
  6  7  1  0
  7  8  2  0
  6  9  1  0
  9  2  1  0
  9  3  1  0
  1 10  1  0
  1 11  1  0
  1 12  1  0
  2 13  1  0
  3 14  1  0
  4 15  1  0
  4 16  1  0
  5 17  1  0
  5 18  1  0
  6 19  1  0
  7 20  1  0
  9 21  1  0
M  END
