
     RDKit          3D

 23 25  0  0  0  0  0  0  0  0999 V2000
   -2.7364    0.7182    0.9264 C   0  0  0  0  0  0  0  0  0  0  0  0
   -1.6890    0.4233   -0.0981 C   0  0  0  0  0  0  0  0  0  0  0  0
   -1.5969   -1.0720   -0.4763 C   0  0  0  0  0  0  0  0  0  0  0  0
   -0.2277   -0.5839   -0.9587 C   0  0  0  0  0  0  0  0  0  0  0  0
   -0.3236    0.0555    0.4958 C   0  0  0  0  0  0  0  0  0  0  0  0
    0.8852   -0.1863   -0.1885 C   0  0  0  0  0  0  0  0  0  0  0  0
    1.8085    0.9554   -0.4945 C   0  0  0  0  0  0  0  0  0  0  0  0
    2.8638    0.2459    0.3670 C   0  0  0  0  0  0  0  0  0  0  0  0
    1.9768   -1.0078    0.3623 C   0  0  0  0  0  0  0  0  0  0  0  0
   -2.4587    0.4253    1.9570 H   0  0  0  0  0  0  0  0  0  0  0  0
   -3.7097    0.2528    0.6062 H   0  0  0  0  0  0  0  0  0  0  0  0
   -2.9009    1.8149    0.9333 H   0  0  0  0  0  0  0  0  0  0  0  0
   -1.6572    1.0882   -0.9583 H   0  0  0  0  0  0  0  0  0  0  0  0
   -1.5401   -1.7150    0.3987 H   0  0  0  0  0  0  0  0  0  0  0  0
   -2.2504   -1.3688   -1.2951 H   0  0  0  0  0  0  0  0  0  0  0  0
   -0.4526    0.1640   -1.7889 H   0  0  0  0  0  0  0  0  0  0  0  0
   -0.5392   -0.7172    1.3040 H   0  0  0  0  0  0  0  0  0  0  0  0
    1.5055    1.9391   -0.0530 H   0  0  0  0  0  0  0  0  0  0  0  0
    2.1477    1.0471   -1.5457 H   0  0  0  0  0  0  0  0  0  0  0  0
    3.8113    0.0437   -0.1575 H   0  0  0  0  0  0  0  0  0  0  0  0
    2.9386    0.7221    1.3595 H   0  0  0  0  0  0  0  0  0  0  0  0
    2.3669   -1.8094   -0.3205 H   0  0  0  0  0  0  0  0  0  0  0  0
    1.7780   -1.4351    1.3439 H   0  0  0  0  0  0  0  0  0  0  0  0
  1  2  1  0
  2  3  1  0
  3  4  1  0
  4  5  1  0
  5  6  1  0
  6  7  1  0
  7  8  1  0
  8  9  1  0
  5  2  1  0
  9  6  1  0
  6  4  1  0
  1 10  1  0
  1 11  1  0
  1 12  1  0
  2 13  1  0
  3 14  1  0
  3 15  1  0
  4 16  1  0
  5 17  1  0
  7 18  1  0
  7 19  1  0
  8 20  1  0
  8 21  1  0
  9 22  1  0
  9 23  1  0
M  END
