
     RDKit          3D

 23 24  0  0  0  0  0  0  0  0999 V2000
   -3.0425   -0.4653    0.1959 C   0  0  0  0  0  0  0  0  0  0  0  0
   -1.6535   -0.1897   -0.2191 C   0  0  0  0  0  0  0  0  0  0  0  0
   -0.7504   -1.4155   -0.2027 C   0  0  0  0  0  0  0  0  0  0  0  0
    0.5957   -0.7614   -0.4162 C   0  0  0  0  0  0  0  0  0  0  0  0
    1.3781   -0.1976    0.6810 C   0  0  0  0  0  0  0  0  0  0  0  0
    2.8284    0.1163    0.3776 C   0  0  0  0  0  0  0  0  0  0  0  0
    0.3323    0.6576    0.0926 C   0  0  0  0  0  0  0  0  0  0  0  0
    0.7246    1.8082   -0.8411 C   0  0  0  0  0  0  0  0  0  0  0  0
   -0.9446    0.6580    0.6125 O   0  0  0  0  0  0  0  0  0  0  0  0
   -3.3268   -1.4863   -0.1698 H   0  0  0  0  0  0  0  0  0  0  0  0
   -3.2456   -0.4454    1.2703 H   0  0  0  0  0  0  0  0  0  0  0  0
   -3.7183    0.2523   -0.3536 H   0  0  0  0  0  0  0  0  0  0  0  0
   -1.6027    0.2203   -1.2429 H   0  0  0  0  0  0  0  0  0  0  0  0
   -0.7243   -1.8778    0.8024 H   0  0  0  0  0  0  0  0  0  0  0  0
   -1.0430   -2.0923   -1.0001 H   0  0  0  0  0  0  0  0  0  0  0  0
    1.0174   -0.8275   -1.4622 H   0  0  0  0  0  0  0  0  0  0  0  0
    1.1724   -0.5819    1.7107 H   0  0  0  0  0  0  0  0  0  0  0  0
    3.4197    0.0897    1.2977 H   0  0  0  0  0  0  0  0  0  0  0  0
    2.9346    1.0889   -0.1616 H   0  0  0  0  0  0  0  0  0  0  0  0
    3.1737   -0.7015   -0.3183 H   0  0  0  0  0  0  0  0  0  0  0  0
    1.2116    2.5828   -0.2076 H   0  0  0  0  0  0  0  0  0  0  0  0
   -0.1834    2.1779   -1.3498 H   0  0  0  0  0  0  0  0  0  0  0  0
    1.4466    1.3903   -1.5605 H   0  0  0  0  0  0  0  0  0  0  0  0
  1  2  1  0
  2  3  1  0
  3  4  1  0
  4  5  1  0
  5  6  1  0
  5  7  1  0
  7  8  1  0
  7  9  1  0
  9  2  1  0
  7  4  1  0
  1 10  1  0
  1 11  1  0
  1 12  1  0
  2 13  1  0
  3 14  1  0
  3 15  1  0
  4 16  1  0
  5 17  1  0
  6 18  1  0
  6 19  1  0
  6 20  1  0
  8 21  1  0
  8 22  1  0
  8 23  1  0
M  END
