
     RDKit          3D

 23 23  0  0  0  0  0  0  0  0999 V2000
    2.6611    0.3937   -0.1122 C   0  0  0  0  0  0  0  0  0  0  0  0
    1.4220   -0.5039   -0.1540 C   0  0  0  0  0  0  0  0  0  0  0  0
    0.4443   -0.0198    0.8779 C   0  0  0  0  0  0  0  0  0  0  0  0
   -0.8928   -0.0258    0.2013 C   0  0  0  0  0  0  0  0  0  0  0  0
   -1.8276    0.9083    0.9359 C   0  0  0  0  0  0  0  0  0  0  0  0
   -1.5399   -1.3868    0.1771 C   0  0  0  0  0  0  0  0  0  0  0  0
   -0.5720    0.4472   -1.1884 C   0  0  0  0  0  0  0  0  0  0  0  0
    0.7448   -0.1838   -1.4637 C   0  0  0  0  0  0  0  0  0  0  0  0
    1.2145   -0.4118   -2.5502 O   0  0  0  0  0  0  0  0  0  0  0  0
    2.2874    1.3994    0.1748 H   0  0  0  0  0  0  0  0  0  0  0  0
    3.4044    0.0384    0.5999 H   0  0  0  0  0  0  0  0  0  0  0  0
    3.0497    0.5011   -1.1543 H   0  0  0  0  0  0  0  0  0  0  0  0
    1.6727   -1.5656   -0.0682 H   0  0  0  0  0  0  0  0  0  0  0  0
    0.4770   -0.5625    1.8237 H   0  0  0  0  0  0  0  0  0  0  0  0
    0.6796    1.0561    1.1228 H   0  0  0  0  0  0  0  0  0  0  0  0
   -1.5695    0.9213    2.0298 H   0  0  0  0  0  0  0  0  0  0  0  0
   -1.7709    1.9502    0.5476 H   0  0  0  0  0  0  0  0  0  0  0  0
   -2.8662    0.5073    0.8926 H   0  0  0  0  0  0  0  0  0  0  0  0
   -1.7840   -1.6912    1.2137 H   0  0  0  0  0  0  0  0  0  0  0  0
   -2.5214   -1.2598   -0.3444 H   0  0  0  0  0  0  0  0  0  0  0  0
   -0.9770   -2.1370   -0.3918 H   0  0  0  0  0  0  0  0  0  0  0  0
   -0.4556    1.5529   -1.2127 H   0  0  0  0  0  0  0  0  0  0  0  0
   -1.2806    0.0721   -1.9570 H   0  0  0  0  0  0  0  0  0  0  0  0
  1  2  1  0
  2  3  1  0
  3  4  1  0
  4  5  1  0
  4  6  1  0
  4  7  1  0
  7  8  1  0
  8  9  2  0
  8  2  1  0
  1 10  1  0
  1 11  1  0
  1 12  1  0
  2 13  1  0
  3 14  1  0
  3 15  1  0
  5 16  1  0
  5 17  1  0
  5 18  1  0
  6 19  1  0
  6 20  1  0
  6 21  1  0
  7 22  1  0
  7 23  1  0
M  END
