
     RDKit          3D

 21 23  0  0  0  0  0  0  0  0999 V2000
    2.4349   -0.0744   -0.1546 C   0  0  0  0  0  0  0  0  0  0  0  0
    1.2130    0.6389    0.3457 C   0  0  0  0  0  0  0  0  0  0  0  0
    0.2500    1.0160   -0.7351 C   0  0  0  0  0  0  0  0  0  0  0  0
   -0.8257   -0.0311   -0.7878 C   0  0  0  0  0  0  0  0  0  0  0  0
   -2.1210    0.2554   -0.1301 C   0  0  0  0  0  0  0  0  0  0  0  0
   -2.0433   -1.0209    0.6850 C   0  0  0  0  0  0  0  0  0  0  0  0
   -0.5504   -1.0158    0.3290 C   0  0  0  0  0  0  0  0  0  0  0  0
    0.4042   -0.3050    1.1964 C   0  0  0  0  0  0  0  0  0  0  0  0
   -0.3353   -1.2992   -0.9854 O   0  0  0  0  0  0  0  0  0  0  0  0
    2.2716   -0.6329   -1.0822 H   0  0  0  0  0  0  0  0  0  0  0  0
    3.3033    0.6290   -0.2112 H   0  0  0  0  0  0  0  0  0  0  0  0
    2.7256   -0.8143    0.6418 H   0  0  0  0  0  0  0  0  0  0  0  0
    1.5454    1.4973    0.9534 H   0  0  0  0  0  0  0  0  0  0  0  0
    0.8095    0.9439   -1.7136 H   0  0  0  0  0  0  0  0  0  0  0  0
   -0.1533    2.0242   -0.6697 H   0  0  0  0  0  0  0  0  0  0  0  0
   -2.0062    1.1237    0.5833 H   0  0  0  0  0  0  0  0  0  0  0  0
   -3.0117    0.3891   -0.7370 H   0  0  0  0  0  0  0  0  0  0  0  0
   -2.2342   -0.9272    1.7515 H   0  0  0  0  0  0  0  0  0  0  0  0
   -2.5794   -1.8225    0.1448 H   0  0  0  0  0  0  0  0  0  0  0  0
    1.0812   -0.9128    1.7938 H   0  0  0  0  0  0  0  0  0  0  0  0
   -0.1783    0.3385    1.9101 H   0  0  0  0  0  0  0  0  0  0  0  0
  1  2  1  0
  2  3  1  0
  3  4  1  0
  4  5  1  0
  5  6  1  0
  6  7  1  0
  7  8  1  0
  7  9  1  0
  8  2  1  0
  7  4  1  0
  9  4  1  0
  1 10  1  0
  1 11  1  0
  1 12  1  0
  2 13  1  0
  3 14  1  0
  3 15  1  0
  5 16  1  0
  5 17  1  0
  6 18  1  0
  6 19  1  0
  8 20  1  0
  8 21  1  0
M  END
