
     RDKit          3D

 23 25  0  0  0  0  0  0  0  0999 V2000
   -2.2018    1.2277    0.5758 C   0  0  0  0  0  0  0  0  0  0  0  0
   -0.8307    0.9851    0.0147 C   0  0  0  0  0  0  0  0  0  0  0  0
    0.0324    0.0937    0.8695 C   0  0  0  0  0  0  0  0  0  0  0  0
    1.4309   -0.0872    0.3677 C   0  0  0  0  0  0  0  0  0  0  0  0
    2.2458    1.1182    0.0078 C   0  0  0  0  0  0  0  0  0  0  0  0
    1.8379   -1.4572    0.0191 C   0  0  0  0  0  0  0  0  0  0  0  0
    0.8463   -0.8109   -0.8509 C   0  0  0  0  0  0  0  0  0  0  0  0
   -0.4999   -0.3838   -0.4106 C   0  0  0  0  0  0  0  0  0  0  0  0
   -1.6084   -1.3755   -0.5275 C   0  0  0  0  0  0  0  0  0  0  0  0
   -2.4686    0.4486    1.3324 H   0  0  0  0  0  0  0  0  0  0  0  0
   -2.1682    2.2034    1.1099 H   0  0  0  0  0  0  0  0  0  0  0  0
   -2.9981    1.2160   -0.1940 H   0  0  0  0  0  0  0  0  0  0  0  0
   -0.3558    1.8868   -0.4122 H   0  0  0  0  0  0  0  0  0  0  0  0
   -0.2931   -0.2585    1.8426 H   0  0  0  0  0  0  0  0  0  0  0  0
    2.2208    1.3434   -1.0981 H   0  0  0  0  0  0  0  0  0  0  0  0
    3.3019    1.0379    0.2867 H   0  0  0  0  0  0  0  0  0  0  0  0
    1.7598    2.0172    0.4745 H   0  0  0  0  0  0  0  0  0  0  0  0
    1.5256   -2.2883    0.7062 H   0  0  0  0  0  0  0  0  0  0  0  0
    2.8363   -1.6203   -0.4017 H   0  0  0  0  0  0  0  0  0  0  0  0
    1.1630   -0.4898   -1.8556 H   0  0  0  0  0  0  0  0  0  0  0  0
   -1.2546   -2.3010   -1.0302 H   0  0  0  0  0  0  0  0  0  0  0  0
   -2.1510   -1.5688    0.4075 H   0  0  0  0  0  0  0  0  0  0  0  0
   -2.3709   -0.9366   -1.2336 H   0  0  0  0  0  0  0  0  0  0  0  0
  1  2  1  0
  2  3  1  0
  3  4  1  0
  4  5  1  0
  4  6  1  0
  6  7  1  0
  7  8  1  0
  8  9  1  0
  8  2  1  0
  8  3  1  0
  7  4  1  0
  1 10  1  0
  1 11  1  0
  1 12  1  0
  2 13  1  0
  3 14  1  0
  5 15  1  0
  5 16  1  0
  5 17  1  0
  6 18  1  0
  6 19  1  0
  7 20  1  0
  9 21  1  0
  9 22  1  0
  9 23  1  0
M  END
