
     RDKit          3D

 20 21  0  0  0  0  0  0  0  0999 V2000
    2.4772    0.8262   -0.7244 C   0  0  0  0  0  0  0  0  0  0  0  0
    1.3480    0.2447    0.0503 C   0  0  0  0  0  0  0  0  0  0  0  0
    1.1572   -1.2568   -0.0767 C   0  0  0  0  0  0  0  0  0  0  0  0
   -0.3014   -1.1339   -0.2970 C   0  0  0  0  0  0  0  0  0  0  0  0
   -1.1434   -0.0636    0.2470 C   0  0  0  0  0  0  0  0  0  0  0  0
   -2.5670    0.0011   -0.2130 C   0  0  0  0  0  0  0  0  0  0  0  0
   -3.2474    1.0710    0.3886 O   0  0  0  0  0  0  0  0  0  0  0  0
   -0.0254    0.3608   -0.6051 C   0  0  0  0  0  0  0  0  0  0  0  0
    2.1827    1.2254   -1.7102 H   0  0  0  0  0  0  0  0  0  0  0  0
    2.9912    1.6071   -0.0942 H   0  0  0  0  0  0  0  0  0  0  0  0
    3.2539    0.0214   -0.8490 H   0  0  0  0  0  0  0  0  0  0  0  0
    1.2880    0.5663    1.1232 H   0  0  0  0  0  0  0  0  0  0  0  0
    1.6906   -1.5925   -1.0122 H   0  0  0  0  0  0  0  0  0  0  0  0
    1.5154   -1.8457    0.7749 H   0  0  0  0  0  0  0  0  0  0  0  0
   -0.7197   -1.7474   -1.1049 H   0  0  0  0  0  0  0  0  0  0  0  0
   -1.0243    0.1873    1.3407 H   0  0  0  0  0  0  0  0  0  0  0  0
   -3.0623   -0.9541    0.1276 H   0  0  0  0  0  0  0  0  0  0  0  0
   -2.6625    0.0184   -1.3182 H   0  0  0  0  0  0  0  0  0  0  0  0
   -3.0473    1.8686   -0.1963 H   0  0  0  0  0  0  0  0  0  0  0  0
   -0.1035    0.5957   -1.6632 H   0  0  0  0  0  0  0  0  0  0  0  0
  1  2  1  0
  2  3  1  0
  3  4  1  0
  4  5  1  0
  5  6  1  0
  6  7  1  0
  5  8  1  0
  8  2  1  0
  8  4  1  0
  1  9  1  0
  1 10  1  0
  1 11  1  0
  2 12  1  0
  3 13  1  0
  3 14  1  0
  4 15  1  0
  5 16  1  0
  6 17  1  0
  6 18  1  0
  7 19  1  0
  8 20  1  0
M  END
