
     RDKit          3D

 25 25  0  0  0  0  0  0  0  0999 V2000
   -2.6958    0.5857    0.2626 C   0  0  0  0  0  0  0  0  0  0  0  0
   -1.5749    0.2205   -0.6272 C   0  0  0  0  0  0  0  0  0  0  0  0
   -1.2110   -1.3051   -0.4840 C   0  0  0  0  0  0  0  0  0  0  0  0
    0.0604   -1.3293    0.1009 C   0  0  0  0  0  0  0  0  0  0  0  0
    1.3352   -1.2607    0.6884 C   0  0  0  0  0  0  0  0  0  0  0  0
    1.6426    0.2887    0.8028 C   0  0  0  0  0  0  0  0  0  0  0  0
    2.6383    0.6949   -0.1998 C   0  0  0  0  0  0  0  0  0  0  0  0
    0.4096    0.9585    0.7122 O   0  0  0  0  0  0  0  0  0  0  0  0
   -0.3099    1.0752   -0.3739 C   0  0  0  0  0  0  0  0  0  0  0  0
   -2.6115    1.6378    0.6121 H   0  0  0  0  0  0  0  0  0  0  0  0
   -3.6625    0.5590   -0.3216 H   0  0  0  0  0  0  0  0  0  0  0  0
   -2.8687   -0.1098    1.1146 H   0  0  0  0  0  0  0  0  0  0  0  0
   -1.8470    0.3983   -1.6771 H   0  0  0  0  0  0  0  0  0  0  0  0
   -2.0462   -1.8008    0.0885 H   0  0  0  0  0  0  0  0  0  0  0  0
   -1.3237   -1.7931   -1.4924 H   0  0  0  0  0  0  0  0  0  0  0  0
   -0.3593   -0.7407    0.9944 H   0  0  0  0  0  0  0  0  0  0  0  0
    0.4622   -0.7379   -0.7958 H   0  0  0  0  0  0  0  0  0  0  0  0
    1.4666   -1.7138    1.7108 H   0  0  0  0  0  0  0  0  0  0  0  0
    2.1814   -1.7418    0.1218 H   0  0  0  0  0  0  0  0  0  0  0  0
    2.0217    0.4852    1.8120 H   0  0  0  0  0  0  0  0  0  0  0  0
    2.2626    0.9673   -1.1881 H   0  0  0  0  0  0  0  0  0  0  0  0
    3.2425    1.5349    0.1795 H   0  0  0  0  0  0  0  0  0  0  0  0
    3.3456   -0.1681   -0.3650 H   0  0  0  0  0  0  0  0  0  0  0  0
    0.2382    1.1839   -1.3612 H   0  0  0  0  0  0  0  0  0  0  0  0
   -0.7962    2.1113   -0.3146 H   0  0  0  0  0  0  0  0  0  0  0  0
  1  2  1  0
  2  3  1  0
  3  4  1  0
  4  5  1  0
  5  6  1  0
  6  7  1  0
  6  8  1  0
  8  9  1  0
  9  2  1  0
  1 10  1  0
  1 11  1  0
  1 12  1  0
  2 13  1  0
  3 14  1  0
  3 15  1  0
  4 16  1  0
  4 17  1  0
  5 18  1  0
  5 19  1  0
  6 20  1  0
  7 21  1  0
  7 22  1  0
  7 23  1  0
  9 24  1  0
  9 25  1  0
M  END
