
     RDKit          3D

 17 18  0  0  0  0  0  0  0  0999 V2000
    1.7974    0.7160   -0.3344 C   0  0  0  0  0  0  0  0  0  0  0  0
    0.7382   -0.2401   -0.7666 C   0  0  0  0  0  0  0  0  0  0  0  0
    0.4606   -1.3741    0.1487 C   0  0  0  0  0  0  0  0  0  0  0  0
   -0.5622   -2.3127   -0.1803 O   0  0  0  0  0  0  0  0  0  0  0  0
   -1.4954   -1.3705   -0.5661 C   0  0  0  0  0  0  0  0  0  0  0  0
   -2.6338   -1.4363   -1.0705 O   0  0  0  0  0  0  0  0  0  0  0  0
   -0.5899   -0.3128   -0.1369 C   0  0  0  0  0  0  0  0  0  0  0  0
   -0.9937    0.6166    0.9789 C   0  0  0  0  0  0  0  0  0  0  0  0
   -0.9213    1.9309    0.4976 O   0  0  0  0  0  0  0  0  0  0  0  0
    1.6909    1.7139   -0.7898 H   0  0  0  0  0  0  0  0  0  0  0  0
    1.7468    0.7953    0.7821 H   0  0  0  0  0  0  0  0  0  0  0  0
    2.7926    0.2532   -0.5493 H   0  0  0  0  0  0  0  0  0  0  0  0
    0.7542   -0.4673   -1.8663 H   0  0  0  0  0  0  0  0  0  0  0  0
    0.9029   -1.4037    1.1657 H   0  0  0  0  0  0  0  0  0  0  0  0
   -2.0525    0.4155    1.2407 H   0  0  0  0  0  0  0  0  0  0  0  0
   -0.3875    0.4822    1.8722 H   0  0  0  0  0  0  0  0  0  0  0  0
   -1.2471    1.9938   -0.4258 H   0  0  0  0  0  0  0  0  0  0  0  0
  1  2  1  0
  2  3  1  0
  3  4  1  0
  4  5  1  0
  5  6  2  0
  5  7  1  0
  7  8  1  0
  8  9  1  0
  7  2  1  0
  7  3  1  0
  1 10  1  0
  1 11  1  0
  1 12  1  0
  2 13  1  0
  3 14  1  0
  8 15  1  0
  8 16  1  0
  9 17  1  0
M  END
