
     RDKit          3D

 23 24  0  0  0  0  0  0  0  0999 V2000
   -1.5767   -0.9443   -0.5265 C   0  0  0  0  0  0  0  0  0  0  0  0
   -0.6913   -0.3098    0.5364 C   0  0  0  0  0  0  0  0  0  0  0  0
    0.2519   -1.3931    1.0046 C   0  0  0  0  0  0  0  0  0  0  0  0
    1.3091   -1.7307   -0.0036 C   0  0  0  0  0  0  0  0  0  0  0  0
    1.4004   -0.8279   -1.0429 O   0  0  0  0  0  0  0  0  0  0  0  0
    1.3950    0.4618   -0.5142 C   0  0  0  0  0  0  0  0  0  0  0  0
    0.0293    0.8673   -0.0574 C   0  0  0  0  0  0  0  0  0  0  0  0
   -0.7888    1.8479   -0.7830 C   0  0  0  0  0  0  0  0  0  0  0  0
   -0.1274    2.2227    0.5033 C   0  0  0  0  0  0  0  0  0  0  0  0
   -2.1515   -1.7894   -0.1085 H   0  0  0  0  0  0  0  0  0  0  0  0
   -2.2683   -0.2236   -0.9877 H   0  0  0  0  0  0  0  0  0  0  0  0
   -0.8704   -1.3142   -1.3180 H   0  0  0  0  0  0  0  0  0  0  0  0
   -1.2542    0.0413    1.4077 H   0  0  0  0  0  0  0  0  0  0  0  0
   -0.3626   -2.3153    1.1779 H   0  0  0  0  0  0  0  0  0  0  0  0
    0.6690   -1.1122    1.9931 H   0  0  0  0  0  0  0  0  0  0  0  0
    1.2422   -2.7743   -0.3841 H   0  0  0  0  0  0  0  0  0  0  0  0
    2.2945   -1.6878    0.5401 H   0  0  0  0  0  0  0  0  0  0  0  0
    2.0626    0.4332    0.3851 H   0  0  0  0  0  0  0  0  0  0  0  0
    1.8348    1.2085   -1.1938 H   0  0  0  0  0  0  0  0  0  0  0  0
   -0.4754    2.2771   -1.7437 H   0  0  0  0  0  0  0  0  0  0  0  0
   -1.9063    1.7727   -0.6983 H   0  0  0  0  0  0  0  0  0  0  0  0
    0.7229    2.9330    0.3817 H   0  0  0  0  0  0  0  0  0  0  0  0
   -0.7389    2.3571    1.4317 H   0  0  0  0  0  0  0  0  0  0  0  0
  1  2  1  0
  2  3  1  0
  3  4  1  0
  4  5  1  0
  5  6  1  0
  6  7  1  0
  7  8  1  0
  8  9  1  0
  7  2  1  0
  9  7  1  0
  1 10  1  0
  1 11  1  0
  1 12  1  0
  2 13  1  0
  3 14  1  0
  3 15  1  0
  4 16  1  0
  4 17  1  0
  6 18  1  0
  6 19  1  0
  8 20  1  0
  8 21  1  0
  9 22  1  0
  9 23  1  0
M  END
