
     RDKit          3D

 19 19  0  0  0  0  0  0  0  0999 V2000
    2.1886    0.8406    0.2968 C   0  0  0  0  0  0  0  0  0  0  0  0
    0.9567    0.2430   -0.3453 C   0  0  0  0  0  0  0  0  0  0  0  0
    0.7018   -1.0842    0.3434 C   0  0  0  0  0  0  0  0  0  0  0  0
   -0.6057   -1.6667   -0.1488 C   0  0  0  0  0  0  0  0  0  0  0  0
   -1.2494   -0.6643   -0.8742 O   0  0  0  0  0  0  0  0  0  0  0  0
   -1.3274    0.4569   -0.0520 C   0  0  0  0  0  0  0  0  0  0  0  0
   -2.4716    1.3203   -0.3826 C   0  0  0  0  0  0  0  0  0  0  0  0
   -2.7018    2.3414    0.2248 O   0  0  0  0  0  0  0  0  0  0  0  0
   -0.0950    1.1273   -0.1977 O   0  0  0  0  0  0  0  0  0  0  0  0
    1.8903    1.6208    1.0548 H   0  0  0  0  0  0  0  0  0  0  0  0
    2.8633    1.3289   -0.4102 H   0  0  0  0  0  0  0  0  0  0  0  0
    2.7673    0.0848    0.8756 H   0  0  0  0  0  0  0  0  0  0  0  0
    1.1077    0.0345   -1.4318 H   0  0  0  0  0  0  0  0  0  0  0  0
    1.5563   -1.7487    0.1047 H   0  0  0  0  0  0  0  0  0  0  0  0
    0.6550   -0.9527    1.4389 H   0  0  0  0  0  0  0  0  0  0  0  0
   -1.2769   -1.8836    0.7318 H   0  0  0  0  0  0  0  0  0  0  0  0
   -0.4744   -2.5474   -0.7932 H   0  0  0  0  0  0  0  0  0  0  0  0
   -1.3573    0.1100    1.0218 H   0  0  0  0  0  0  0  0  0  0  0  0
   -3.1275    1.0392   -1.1892 H   0  0  0  0  0  0  0  0  0  0  0  0
  1  2  1  0
  2  3  1  0
  3  4  1  0
  4  5  1  0
  5  6  1  0
  6  7  1  0
  7  8  2  0
  6  9  1  0
  9  2  1  0
  1 10  1  0
  1 11  1  0
  1 12  1  0
  2 13  1  0
  3 14  1  0
  3 15  1  0
  4 16  1  0
  4 17  1  0
  6 18  1  0
  7 19  1  0
M  END
