
     RDKit          3D

 18 18  0  0  0  0  0  0  0  0999 V2000
    1.5251   -0.8294   -0.6794 C   0  0  0  0  0  0  0  0  0  0  0  0
    0.8254    0.0310    0.3239 C   0  0  0  0  0  0  0  0  0  0  0  0
    0.5086    1.4169   -0.1985 C   0  0  0  0  0  0  0  0  0  0  0  0
   -0.5153    1.8377    0.6616 O   0  0  0  0  0  0  0  0  0  0  0  0
   -1.0617    0.7758    1.3701 C   0  0  0  0  0  0  0  0  0  0  0  0
   -1.8169    0.8750    2.3723 O   0  0  0  0  0  0  0  0  0  0  0  0
   -0.5536   -0.4442    0.6789 C   0  0  0  0  0  0  0  0  0  0  0  0
   -1.4301   -0.6624   -0.5243 C   0  0  0  0  0  0  0  0  0  0  0  0
    2.5870   -0.4950   -0.7161 H   0  0  0  0  0  0  0  0  0  0  0  0
    1.1135   -0.7412   -1.6875 H   0  0  0  0  0  0  0  0  0  0  0  0
    1.5389   -1.8627   -0.2956 H   0  0  0  0  0  0  0  0  0  0  0  0
    1.4151    0.1250    1.2351 H   0  0  0  0  0  0  0  0  0  0  0  0
    1.4185    2.0311   -0.1465 H   0  0  0  0  0  0  0  0  0  0  0  0
    0.1279    1.3635   -1.2554 H   0  0  0  0  0  0  0  0  0  0  0  0
   -0.5579   -1.2910    1.3849 H   0  0  0  0  0  0  0  0  0  0  0  0
   -2.2227   -1.4227   -0.2949 H   0  0  0  0  0  0  0  0  0  0  0  0
   -2.0028    0.2680   -0.8073 H   0  0  0  0  0  0  0  0  0  0  0  0
   -0.8989   -0.9754   -1.4215 H   0  0  0  0  0  0  0  0  0  0  0  0
  1  2  1  0
  2  3  1  0
  3  4  1  0
  4  5  1  0
  5  6  2  0
  5  7  1  0
  7  8  1  0
  7  2  1  0
  1  9  1  0
  1 10  1  0
  1 11  1  0
  2 12  1  0
  3 13  1  0
  3 14  1  0
  7 15  1  0
  8 16  1  0
  8 17  1  0
  8 18  1  0
M  END
