
     RDKit          3D

 21 22  0  0  0  0  0  0  0  0999 V2000
   -2.4813   -0.3636    0.1186 C   0  0  0  0  0  0  0  0  0  0  0  0
   -1.1090   -0.6520   -0.4283 C   0  0  0  0  0  0  0  0  0  0  0  0
   -0.1792   -1.2996    0.5547 C   0  0  0  0  0  0  0  0  0  0  0  0
   -0.1616   -0.0760    1.2125 O   0  0  0  0  0  0  0  0  0  0  0  0
   -0.0378    0.3286   -0.0869 C   0  0  0  0  0  0  0  0  0  0  0  0
    0.0865    1.6185   -0.5710 C   0  0  0  0  0  0  0  0  0  0  0  0
    1.2318    2.2576   -0.0576 O   0  0  0  0  0  0  0  0  0  0  0  0
    0.9547   -0.7773   -0.2690 C   0  0  0  0  0  0  0  0  0  0  0  0
    2.2719   -0.6268    0.4101 C   0  0  0  0  0  0  0  0  0  0  0  0
   -2.4731    0.4535    0.8646 H   0  0  0  0  0  0  0  0  0  0  0  0
   -3.1622   -0.1136   -0.7208 H   0  0  0  0  0  0  0  0  0  0  0  0
   -2.8868   -1.2811    0.5920 H   0  0  0  0  0  0  0  0  0  0  0  0
   -1.1008   -1.0530   -1.4446 H   0  0  0  0  0  0  0  0  0  0  0  0
   -0.2707   -2.2110    0.9710 H   0  0  0  0  0  0  0  0  0  0  0  0
   -0.7634    2.2654   -0.3809 H   0  0  0  0  0  0  0  0  0  0  0  0
    0.2445    1.6309   -1.6880 H   0  0  0  0  0  0  0  0  0  0  0  0
    0.9875    3.0351    0.4923 H   0  0  0  0  0  0  0  0  0  0  0  0
    0.9443   -1.1744   -1.2907 H   0  0  0  0  0  0  0  0  0  0  0  0
    2.7778    0.3318    0.2382 H   0  0  0  0  0  0  0  0  0  0  0  0
    2.9530   -1.4208   -0.0112 H   0  0  0  0  0  0  0  0  0  0  0  0
    2.1738   -0.8721    1.4950 H   0  0  0  0  0  0  0  0  0  0  0  0
  1  2  1  0
  2  3  1  0
  3  4  1  0
  4  5  1  0
  5  6  1  0
  6  7  1  0
  5  8  1  0
  8  9  1  0
  5  2  1  0
  8  3  1  0
  1 10  1  0
  1 11  1  0
  1 12  1  0
  2 13  1  0
  3 14  1  0
  6 15  1  0
  6 16  1  0
  7 17  1  0
  8 18  1  0
  9 19  1  0
  9 20  1  0
  9 21  1  0
M  END
