
     RDKit          3D

 23 24  0  0  0  0  0  0  0  0999 V2000
   -2.3541   -1.5028    0.4701 C   0  0  0  0  0  0  0  0  0  0  0  0
   -2.0500   -0.0609    0.1898 C   0  0  0  0  0  0  0  0  0  0  0  0
   -1.2393    0.6308    1.3014 C   0  0  0  0  0  0  0  0  0  0  0  0
   -0.6750    0.3955   -0.1039 C   0  0  0  0  0  0  0  0  0  0  0  0
   -0.5058    1.6803   -0.9046 C   0  0  0  0  0  0  0  0  0  0  0  0
    0.3724   -0.5205   -0.1179 O   0  0  0  0  0  0  0  0  0  0  0  0
    1.5886    0.0371   -0.4033 C   0  0  0  0  0  0  0  0  0  0  0  0
    2.6936   -0.7776   -0.9984 C   0  0  0  0  0  0  0  0  0  0  0  0
    2.7270   -0.4390    0.4753 C   0  0  0  0  0  0  0  0  0  0  0  0
   -1.5801   -2.1923    0.0775 H   0  0  0  0  0  0  0  0  0  0  0  0
   -2.5014   -1.7152    1.5479 H   0  0  0  0  0  0  0  0  0  0  0  0
   -3.3019   -1.7923   -0.0455 H   0  0  0  0  0  0  0  0  0  0  0  0
   -2.8788    0.5312   -0.2612 H   0  0  0  0  0  0  0  0  0  0  0  0
   -0.8676    0.0195    2.1310 H   0  0  0  0  0  0  0  0  0  0  0  0
   -1.5877    1.6548    1.5566 H   0  0  0  0  0  0  0  0  0  0  0  0
   -1.4900    2.1014   -1.1989 H   0  0  0  0  0  0  0  0  0  0  0  0
    0.0070    1.4311   -1.8749 H   0  0  0  0  0  0  0  0  0  0  0  0
    0.0258    2.4605   -0.3455 H   0  0  0  0  0  0  0  0  0  0  0  0
    1.6286    1.1341   -0.5917 H   0  0  0  0  0  0  0  0  0  0  0  0
    2.5452   -1.8556   -1.1936 H   0  0  0  0  0  0  0  0  0  0  0  0
    3.3904   -0.2405   -1.6848 H   0  0  0  0  0  0  0  0  0  0  0  0
    2.5288   -1.2393    1.2154 H   0  0  0  0  0  0  0  0  0  0  0  0
    3.5244    0.2598    0.7593 H   0  0  0  0  0  0  0  0  0  0  0  0
  1  2  1  0
  2  3  1  0
  3  4  1  0
  4  5  1  0
  4  6  1  0
  6  7  1  0
  7  8  1  0
  8  9  1  0
  4  2  1  0
  9  7  1  0
  1 10  1  0
  1 11  1  0
  1 12  1  0
  2 13  1  0
  3 14  1  0
  3 15  1  0
  5 16  1  0
  5 17  1  0
  5 18  1  0
  7 19  1  0
  8 20  1  0
  8 21  1  0
  9 22  1  0
  9 23  1  0
M  END
