
     RDKit          3D

 21 23  0  0  0  0  0  0  0  0999 V2000
    1.6282    1.5412    0.4263 C   0  0  0  0  0  0  0  0  0  0  0  0
    1.2310    0.3585   -0.3836 C   0  0  0  0  0  0  0  0  0  0  0  0
    1.2811   -0.9531    0.4147 C   0  0  0  0  0  0  0  0  0  0  0  0
    0.0516   -0.3737   -0.3348 C   0  0  0  0  0  0  0  0  0  0  0  0
   -0.5417   -1.2687   -1.3313 C   0  0  0  0  0  0  0  0  0  0  0  0
   -1.3591   -1.5734   -0.0622 C   0  0  0  0  0  0  0  0  0  0  0  0
   -2.4255   -0.9243    0.0907 O   0  0  0  0  0  0  0  0  0  0  0  0
   -1.1397   -0.2648    0.5239 C   0  0  0  0  0  0  0  0  0  0  0  0
   -1.6538    1.0919    0.4826 C   0  0  0  0  0  0  0  0  0  0  0  0
    1.2864    2.4575   -0.0608 H   0  0  0  0  0  0  0  0  0  0  0  0
    2.7586    1.6003    0.4073 H   0  0  0  0  0  0  0  0  0  0  0  0
    1.3909    1.4670    1.5053 H   0  0  0  0  0  0  0  0  0  0  0  0
    1.8660    0.2666   -1.3199 H   0  0  0  0  0  0  0  0  0  0  0  0
    1.2787   -0.8913    1.5122 H   0  0  0  0  0  0  0  0  0  0  0  0
    1.7330   -1.8403   -0.0188 H   0  0  0  0  0  0  0  0  0  0  0  0
   -1.1456   -0.7459   -2.1141 H   0  0  0  0  0  0  0  0  0  0  0  0
    0.0697   -2.1095   -1.6819 H   0  0  0  0  0  0  0  0  0  0  0  0
   -0.9505   -2.4250    0.5069 H   0  0  0  0  0  0  0  0  0  0  0  0
   -1.9910    1.4588   -0.5311 H   0  0  0  0  0  0  0  0  0  0  0  0
   -2.5073    1.3192    1.1897 H   0  0  0  0  0  0  0  0  0  0  0  0
   -0.8611    1.8089    0.7791 H   0  0  0  0  0  0  0  0  0  0  0  0
  1  2  1  0
  2  3  1  0
  3  4  1  0
  4  5  1  0
  5  6  1  0
  6  7  1  0
  7  8  1  0
  8  9  1  0
  4  2  1  0
  8  6  1  0
  8  4  1  0
  1 10  1  0
  1 11  1  0
  1 12  1  0
  2 13  1  0
  3 14  1  0
  3 15  1  0
  5 16  1  0
  5 17  1  0
  6 18  1  0
  9 19  1  0
  9 20  1  0
  9 21  1  0
M  END
