
     RDKit          3D

 23 24  0  0  0  0  0  0  0  0999 V2000
   -1.4532    1.8724   -0.5143 C   0  0  0  0  0  0  0  0  0  0  0  0
   -1.4420    0.6650    0.3781 C   0  0  0  0  0  0  0  0  0  0  0  0
   -1.0130   -0.6565   -0.2013 C   0  0  0  0  0  0  0  0  0  0  0  0
   -1.6947   -1.9196    0.2848 C   0  0  0  0  0  0  0  0  0  0  0  0
   -0.1926    0.0586    0.8725 C   0  0  0  0  0  0  0  0  0  0  0  0
    1.1604    0.4887    0.4476 C   0  0  0  0  0  0  0  0  0  0  0  0
    1.6682    0.4666   -0.9171 C   0  0  0  0  0  0  0  0  0  0  0  0
    2.0588   -0.6669   -0.0128 C   0  0  0  0  0  0  0  0  0  0  0  0
    3.3308   -0.7720    0.4917 O   0  0  0  0  0  0  0  0  0  0  0  0
   -1.6340    1.4914   -1.5599 H   0  0  0  0  0  0  0  0  0  0  0  0
   -2.3139    2.5558   -0.3130 H   0  0  0  0  0  0  0  0  0  0  0  0
   -0.5428    2.4802   -0.4374 H   0  0  0  0  0  0  0  0  0  0  0  0
   -2.3300    0.5885    1.0371 H   0  0  0  0  0  0  0  0  0  0  0  0
   -0.6880   -0.6092   -1.2397 H   0  0  0  0  0  0  0  0  0  0  0  0
   -2.2456   -2.4240   -0.5091 H   0  0  0  0  0  0  0  0  0  0  0  0
   -2.3187   -1.6199    1.1548 H   0  0  0  0  0  0  0  0  0  0  0  0
   -0.8664   -2.5746    0.6819 H   0  0  0  0  0  0  0  0  0  0  0  0
   -0.2158   -0.3813    1.9117 H   0  0  0  0  0  0  0  0  0  0  0  0
    1.6960    1.1568    1.1839 H   0  0  0  0  0  0  0  0  0  0  0  0
    1.0531    0.2736   -1.8146 H   0  0  0  0  0  0  0  0  0  0  0  0
    2.5297    1.1523   -1.1519 H   0  0  0  0  0  0  0  0  0  0  0  0
    1.5596   -1.6379   -0.2578 H   0  0  0  0  0  0  0  0  0  0  0  0
    3.8942    0.0122    0.3142 H   0  0  0  0  0  0  0  0  0  0  0  0
  1  2  1  0
  2  3  1  0
  3  4  1  0
  3  5  1  0
  5  6  1  0
  6  7  1  0
  7  8  1  0
  8  9  1  0
  5  2  1  0
  8  6  1  0
  1 10  1  0
  1 11  1  0
  1 12  1  0
  2 13  1  0
  3 14  1  0
  4 15  1  0
  4 16  1  0
  4 17  1  0
  5 18  1  0
  6 19  1  0
  7 20  1  0
  7 21  1  0
  8 22  1  0
  9 23  1  0
M  END
