
     RDKit          3D

 21 21  0  0  0  0  0  0  0  0999 V2000
   -2.6853   -0.3463   -0.1060 C   0  0  0  0  0  0  0  0  0  0  0  0
   -1.1912   -0.4228    0.1876 C   0  0  0  0  0  0  0  0  0  0  0  0
   -0.5860    0.8103    0.8970 C   0  0  0  0  0  0  0  0  0  0  0  0
   -0.2848    0.4657   -0.5285 C   0  0  0  0  0  0  0  0  0  0  0  0
   -0.9194    1.3659   -1.4235 O   0  0  0  0  0  0  0  0  0  0  0  0
    1.1088    0.1775   -0.9072 C   0  0  0  0  0  0  0  0  0  0  0  0
    1.9144    1.3200   -0.9286 O   0  0  0  0  0  0  0  0  0  0  0  0
    1.8075   -0.9091   -0.1636 C   0  0  0  0  0  0  0  0  0  0  0  0
    2.0994   -0.5595    1.1538 O   0  0  0  0  0  0  0  0  0  0  0  0
   -2.9178    0.4265   -0.8612 H   0  0  0  0  0  0  0  0  0  0  0  0
   -2.9903   -1.3513   -0.4548 H   0  0  0  0  0  0  0  0  0  0  0  0
   -3.1757   -0.1511    0.8745 H   0  0  0  0  0  0  0  0  0  0  0  0
   -0.9058   -1.3572    0.6792 H   0  0  0  0  0  0  0  0  0  0  0  0
    0.1875    0.6499    1.6517 H   0  0  0  0  0  0  0  0  0  0  0  0
   -1.3278    1.6036    1.1490 H   0  0  0  0  0  0  0  0  0  0  0  0
   -1.0043    0.9850   -2.3200 H   0  0  0  0  0  0  0  0  0  0  0  0
    1.1011   -0.1612   -1.9935 H   0  0  0  0  0  0  0  0  0  0  0  0
    2.7533    1.1823   -1.4220 H   0  0  0  0  0  0  0  0  0  0  0  0
    2.7498   -1.2094   -0.6807 H   0  0  0  0  0  0  0  0  0  0  0  0
    1.2095   -1.8449   -0.0992 H   0  0  0  0  0  0  0  0  0  0  0  0
    3.0570   -0.6738    1.3242 H   0  0  0  0  0  0  0  0  0  0  0  0
  1  2  1  0
  2  3  1  0
  3  4  1  0
  4  5  1  0
  4  6  1  0
  6  7  1  0
  6  8  1  0
  8  9  1  0
  4  2  1  0
  1 10  1  0
  1 11  1  0
  1 12  1  0
  2 13  1  0
  3 14  1  0
  3 15  1  0
  5 16  1  0
  6 17  1  0
  7 18  1  0
  8 19  1  0
  8 20  1  0
  9 21  1  0
M  END
