
     RDKit          3D

 23 24  0  0  0  0  0  0  0  0999 V2000
    2.4381   -0.5588    1.2050 C   0  0  0  0  0  0  0  0  0  0  0  0
    1.3599    0.2935    0.6100 C   0  0  0  0  0  0  0  0  0  0  0  0
    1.8332    1.1258   -0.5864 C   0  0  0  0  0  0  0  0  0  0  0  0
    0.8311   -0.0223   -0.7333 C   0  0  0  0  0  0  0  0  0  0  0  0
   -0.5171    0.4070   -1.1763 C   0  0  0  0  0  0  0  0  0  0  0  0
   -1.6600   -0.0999   -0.3700 C   0  0  0  0  0  0  0  0  0  0  0  0
   -1.9474   -1.5502   -0.2003 C   0  0  0  0  0  0  0  0  0  0  0  0
   -2.1984    0.8385    0.6778 C   0  0  0  0  0  0  0  0  0  0  0  0
   -2.8442    0.7421   -0.5569 O   0  0  0  0  0  0  0  0  0  0  0  0
    2.8880   -1.1657    0.3661 H   0  0  0  0  0  0  0  0  0  0  0  0
    2.0799   -1.1987    2.0198 H   0  0  0  0  0  0  0  0  0  0  0  0
    3.2119    0.1232    1.6348 H   0  0  0  0  0  0  0  0  0  0  0  0
    0.6816    0.7504    1.3410 H   0  0  0  0  0  0  0  0  0  0  0  0
    1.4682    2.1538   -0.5537 H   0  0  0  0  0  0  0  0  0  0  0  0
    2.8597    0.9847   -0.9554 H   0  0  0  0  0  0  0  0  0  0  0  0
    1.2887   -0.9249   -1.2127 H   0  0  0  0  0  0  0  0  0  0  0  0
   -0.6143    0.1070   -2.2636 H   0  0  0  0  0  0  0  0  0  0  0  0
   -0.5651    1.5125   -1.1961 H   0  0  0  0  0  0  0  0  0  0  0  0
   -2.2206   -2.0180   -1.1924 H   0  0  0  0  0  0  0  0  0  0  0  0
   -2.8345   -1.6495    0.4657 H   0  0  0  0  0  0  0  0  0  0  0  0
   -1.0872   -2.0502    0.2362 H   0  0  0  0  0  0  0  0  0  0  0  0
   -2.8109    0.4451    1.5095 H   0  0  0  0  0  0  0  0  0  0  0  0
   -1.6406    1.7548    0.9310 H   0  0  0  0  0  0  0  0  0  0  0  0
  1  2  1  0
  2  3  1  0
  3  4  1  0
  4  5  1  0
  5  6  1  0
  6  7  1  0
  6  8  1  0
  8  9  1  0
  4  2  1  0
  9  6  1  0
  1 10  1  0
  1 11  1  0
  1 12  1  0
  2 13  1  0
  3 14  1  0
  3 15  1  0
  4 16  1  0
  5 17  1  0
  5 18  1  0
  7 19  1  0
  7 20  1  0
  7 21  1  0
  8 22  1  0
  8 23  1  0
M  END
