
     RDKit          3D

 20 21  0  0  0  0  0  0  0  0999 V2000
    2.2686    0.1550    0.4002 C   0  0  0  0  0  0  0  0  0  0  0  0
    0.9888   -0.6787    0.4045 C   0  0  0  0  0  0  0  0  0  0  0  0
   -0.1106    0.1286    1.0652 C   0  0  0  0  0  0  0  0  0  0  0  0
   -0.9257    0.7441   -0.0397 C   0  0  0  0  0  0  0  0  0  0  0  0
   -2.3517    0.2036    0.1034 C   0  0  0  0  0  0  0  0  0  0  0  0
   -0.3863    0.1111   -1.3232 C   0  0  0  0  0  0  0  0  0  0  0  0
   -0.6883   -1.2653   -1.3650 O   0  0  0  0  0  0  0  0  0  0  0  0
    0.5864   -0.8715   -1.0259 C   0  0  0  0  0  0  0  0  0  0  0  0
    2.0509    1.1915    0.7447 H   0  0  0  0  0  0  0  0  0  0  0  0
    2.7309    0.1936   -0.6069 H   0  0  0  0  0  0  0  0  0  0  0  0
    3.0263   -0.2923    1.0714 H   0  0  0  0  0  0  0  0  0  0  0  0
    1.1301   -1.6300    0.9435 H   0  0  0  0  0  0  0  0  0  0  0  0
    0.2988    0.9423    1.7141 H   0  0  0  0  0  0  0  0  0  0  0  0
   -0.7258   -0.5027    1.7559 H   0  0  0  0  0  0  0  0  0  0  0  0
   -0.8882    1.8312   -0.0683 H   0  0  0  0  0  0  0  0  0  0  0  0
   -2.9344    0.7407    0.8463 H   0  0  0  0  0  0  0  0  0  0  0  0
   -2.2632   -0.8860    0.2690 H   0  0  0  0  0  0  0  0  0  0  0  0
   -2.8293    0.3129   -0.9065 H   0  0  0  0  0  0  0  0  0  0  0  0
   -0.3603    0.6903   -2.2434 H   0  0  0  0  0  0  0  0  0  0  0  0
    1.3829   -1.1183   -1.7395 H   0  0  0  0  0  0  0  0  0  0  0  0
  1  2  1  0
  2  3  1  0
  3  4  1  0
  4  5  1  0
  4  6  1  0
  6  7  1  0
  7  8  1  0
  8  2  1  0
  8  6  1  0
  1  9  1  0
  1 10  1  0
  1 11  1  0
  2 12  1  0
  3 13  1  0
  3 14  1  0
  4 15  1  0
  5 16  1  0
  5 17  1  0
  5 18  1  0
  6 19  1  0
  8 20  1  0
M  END
