
     RDKit          3D

 23 23  0  0  0  0  0  0  0  0999 V2000
   -2.1914    0.6883   -0.7148 C   0  0  0  0  0  0  0  0  0  0  0  0
   -1.4335   -0.3449    0.0929 C   0  0  0  0  0  0  0  0  0  0  0  0
   -0.7959   -1.3581   -0.7945 C   0  0  0  0  0  0  0  0  0  0  0  0
    0.5367   -1.1105   -0.8908 O   0  0  0  0  0  0  0  0  0  0  0  0
    0.9052   -0.1549    0.0194 C   0  0  0  0  0  0  0  0  0  0  0  0
    2.0355   -0.7306    0.8496 C   0  0  0  0  0  0  0  0  0  0  0  0
    1.5025    1.0127   -0.7681 C   0  0  0  0  0  0  0  0  0  0  0  0
   -0.2675    0.2732    0.8065 C   0  0  0  0  0  0  0  0  0  0  0  0
   -0.2401   -0.0522    2.1437 O   0  0  0  0  0  0  0  0  0  0  0  0
   -2.4265    0.3385   -1.7345 H   0  0  0  0  0  0  0  0  0  0  0  0
   -1.5080    1.5610   -0.8391 H   0  0  0  0  0  0  0  0  0  0  0  0
   -3.0863    0.9811   -0.1456 H   0  0  0  0  0  0  0  0  0  0  0  0
   -2.1467   -0.8552    0.7894 H   0  0  0  0  0  0  0  0  0  0  0  0
   -1.2349   -1.2850   -1.8267 H   0  0  0  0  0  0  0  0  0  0  0  0
   -0.9645   -2.4031   -0.4589 H   0  0  0  0  0  0  0  0  0  0  0  0
    2.9034   -0.8156    0.1300 H   0  0  0  0  0  0  0  0  0  0  0  0
    1.8325   -1.7864    1.1556 H   0  0  0  0  0  0  0  0  0  0  0  0
    2.3601   -0.0848    1.6617 H   0  0  0  0  0  0  0  0  0  0  0  0
    1.3163    0.9009   -1.8603 H   0  0  0  0  0  0  0  0  0  0  0  0
    1.0499    1.9818   -0.4563 H   0  0  0  0  0  0  0  0  0  0  0  0
    2.5797    1.1045   -0.6344 H   0  0  0  0  0  0  0  0  0  0  0  0
   -0.3516    1.3947    0.7404 H   0  0  0  0  0  0  0  0  0  0  0  0
   -0.3749    0.7445    2.7348 H   0  0  0  0  0  0  0  0  0  0  0  0
  1  2  1  0
  2  3  1  0
  3  4  1  0
  4  5  1  0
  5  6  1  0
  5  7  1  0
  5  8  1  0
  8  9  1  0
  8  2  1  0
  1 10  1  0
  1 11  1  0
  1 12  1  0
  2 13  1  0
  3 14  1  0
  3 15  1  0
  6 16  1  0
  6 17  1  0
  6 18  1  0
  7 19  1  0
  7 20  1  0
  7 21  1  0
  8 22  1  0
  9 23  1  0
M  END
