
     RDKit          3D

 23 24  0  0  0  0  0  0  0  0999 V2000
    2.4942    0.6425   -0.0442 C   0  0  0  0  0  0  0  0  0  0  0  0
    1.0911    0.1947   -0.4036 C   0  0  0  0  0  0  0  0  0  0  0  0
    0.9466   -1.2890   -0.6602 C   0  0  0  0  0  0  0  0  0  0  0  0
   -0.2727   -1.2803    0.2129 C   0  0  0  0  0  0  0  0  0  0  0  0
   -1.5858   -1.0960   -0.4957 C   0  0  0  0  0  0  0  0  0  0  0  0
   -1.6383    0.1247   -1.1709 O   0  0  0  0  0  0  0  0  0  0  0  0
   -1.8305    1.1107   -0.2157 C   0  0  0  0  0  0  0  0  0  0  0  0
   -0.8630    1.0594    0.9160 C   0  0  0  0  0  0  0  0  0  0  0  0
    0.1808    0.0110    0.8023 C   0  0  0  0  0  0  0  0  0  0  0  0
    2.4662    1.5979    0.5095 H   0  0  0  0  0  0  0  0  0  0  0  0
    3.0873   -0.1432    0.4413 H   0  0  0  0  0  0  0  0  0  0  0  0
    2.9953    0.8781   -1.0222 H   0  0  0  0  0  0  0  0  0  0  0  0
    0.6360    0.8166   -1.1898 H   0  0  0  0  0  0  0  0  0  0  0  0
    0.8194   -1.5949   -1.7006 H   0  0  0  0  0  0  0  0  0  0  0  0
    1.7780   -1.8547   -0.1647 H   0  0  0  0  0  0  0  0  0  0  0  0
   -0.3426   -2.1465    0.9081 H   0  0  0  0  0  0  0  0  0  0  0  0
   -2.3714   -1.0273    0.3065 H   0  0  0  0  0  0  0  0  0  0  0  0
   -1.8671   -1.9528   -1.1325 H   0  0  0  0  0  0  0  0  0  0  0  0
   -1.8810    2.1192   -0.6959 H   0  0  0  0  0  0  0  0  0  0  0  0
   -2.8592    0.9422    0.2042 H   0  0  0  0  0  0  0  0  0  0  0  0
   -0.3389    2.0566    0.9525 H   0  0  0  0  0  0  0  0  0  0  0  0
   -1.3746    0.9682    1.9053 H   0  0  0  0  0  0  0  0  0  0  0  0
    0.7302   -0.1370    1.7374 H   0  0  0  0  0  0  0  0  0  0  0  0
  1  2  1  0
  2  3  1  0
  3  4  1  0
  4  5  1  0
  5  6  1  0
  6  7  1  0
  7  8  1  0
  8  9  1  0
  9  2  1  0
  9  4  1  0
  1 10  1  0
  1 11  1  0
  1 12  1  0
  2 13  1  0
  3 14  1  0
  3 15  1  0
  4 16  1  0
  5 17  1  0
  5 18  1  0
  7 19  1  0
  7 20  1  0
  8 21  1  0
  8 22  1  0
  9 23  1  0
M  END
