
     RDKit          3D

 21 22  0  0  0  0  0  0  0  0999 V2000
   -2.3756    0.1737   -0.3233 C   0  0  0  0  0  0  0  0  0  0  0  0
   -1.2394   -0.3080    0.4969 C   0  0  0  0  0  0  0  0  0  0  0  0
   -0.3172   -1.3243   -0.1868 C   0  0  0  0  0  0  0  0  0  0  0  0
    0.8201   -0.3950    0.1674 C   0  0  0  0  0  0  0  0  0  0  0  0
    2.0849   -0.5504   -0.5781 C   0  0  0  0  0  0  0  0  0  0  0  0
    2.9055   -1.4214    0.1783 O   0  0  0  0  0  0  0  0  0  0  0  0
    0.9258    0.1328    1.4397 O   0  0  0  0  0  0  0  0  0  0  0  0
   -0.0031    0.5936    0.5132 C   0  0  0  0  0  0  0  0  0  0  0  0
   -0.1307    2.0338    0.2266 C   0  0  0  0  0  0  0  0  0  0  0  0
   -2.5530    1.2495   -0.3092 H   0  0  0  0  0  0  0  0  0  0  0  0
   -3.3113   -0.3220    0.0712 H   0  0  0  0  0  0  0  0  0  0  0  0
   -2.2705   -0.2486   -1.3611 H   0  0  0  0  0  0  0  0  0  0  0  0
   -1.4901   -0.7226    1.5107 H   0  0  0  0  0  0  0  0  0  0  0  0
   -0.5349   -1.2926   -1.2793 H   0  0  0  0  0  0  0  0  0  0  0  0
   -0.2849   -2.3073    0.2713 H   0  0  0  0  0  0  0  0  0  0  0  0
    2.6882    0.3995   -0.6542 H   0  0  0  0  0  0  0  0  0  0  0  0
    1.9915   -0.9798   -1.5826 H   0  0  0  0  0  0  0  0  0  0  0  0
    3.4645   -1.9817   -0.3835 H   0  0  0  0  0  0  0  0  0  0  0  0
    0.8745    2.4333   -0.0512 H   0  0  0  0  0  0  0  0  0  0  0  0
   -0.7768    2.1942   -0.6491 H   0  0  0  0  0  0  0  0  0  0  0  0
   -0.4675    2.6432    1.1004 H   0  0  0  0  0  0  0  0  0  0  0  0
  1  2  1  0
  2  3  1  0
  3  4  1  0
  4  5  1  0
  5  6  1  0
  4  7  1  0
  7  8  1  0
  8  9  1  0
  8  2  1  0
  8  4  1  0
  1 10  1  0
  1 11  1  0
  1 12  1  0
  2 13  1  0
  3 14  1  0
  3 15  1  0
  5 16  1  0
  5 17  1  0
  6 18  1  0
  9 19  1  0
  9 20  1  0
  9 21  1  0
M  END
