
     RDKit          3D

 20 21  0  0  0  0  0  0  0  0999 V2000
   -2.1779   -0.2805   -0.2710 C   0  0  0  0  0  0  0  0  0  0  0  0
   -0.8768    0.0366    0.4820 C   0  0  0  0  0  0  0  0  0  0  0  0
   -0.2201    1.2448   -0.0662 C   0  0  0  0  0  0  0  0  0  0  0  0
    1.2782    1.2629    0.0753 C   0  0  0  0  0  0  0  0  0  0  0  0
    1.9081    0.0188   -0.4558 C   0  0  0  0  0  0  0  0  0  0  0  0
    1.2215   -0.5800   -1.5093 O   0  0  0  0  0  0  0  0  0  0  0  0
    1.2006   -1.1692   -0.2638 C   0  0  0  0  0  0  0  0  0  0  0  0
   -0.0475   -1.1829    0.5672 C   0  0  0  0  0  0  0  0  0  0  0  0
   -2.8525    0.5985   -0.2751 H   0  0  0  0  0  0  0  0  0  0  0  0
   -2.7067   -1.0462    0.3682 H   0  0  0  0  0  0  0  0  0  0  0  0
   -1.9932   -0.7213   -1.2490 H   0  0  0  0  0  0  0  0  0  0  0  0
   -1.2227    0.2845    1.5296 H   0  0  0  0  0  0  0  0  0  0  0  0
   -0.5158    1.4275   -1.1411 H   0  0  0  0  0  0  0  0  0  0  0  0
   -0.5916    2.1702    0.4665 H   0  0  0  0  0  0  0  0  0  0  0  0
    1.6576    2.1257   -0.5327 H   0  0  0  0  0  0  0  0  0  0  0  0
    1.5611    1.4455    1.1256 H   0  0  0  0  0  0  0  0  0  0  0  0
    3.0231    0.0364   -0.4721 H   0  0  0  0  0  0  0  0  0  0  0  0
    1.7422   -2.1564   -0.2223 H   0  0  0  0  0  0  0  0  0  0  0  0
   -0.6424   -2.0825    0.2306 H   0  0  0  0  0  0  0  0  0  0  0  0
    0.2550   -1.4323    1.6136 H   0  0  0  0  0  0  0  0  0  0  0  0
  1  2  1  0
  2  3  1  0
  3  4  1  0
  4  5  1  0
  5  6  1  0
  6  7  1  0
  7  8  1  0
  8  2  1  0
  7  5  1  0
  1  9  1  0
  1 10  1  0
  1 11  1  0
  2 12  1  0
  3 13  1  0
  3 14  1  0
  4 15  1  0
  4 16  1  0
  5 17  1  0
  7 18  1  0
  8 19  1  0
  8 20  1  0
M  END
