
     RDKit          3D

 20 20  0  0  0  0  0  0  0  0999 V2000
   -0.7304    1.7267   -0.5564 C   0  0  0  0  0  0  0  0  0  0  0  0
   -0.2400    0.7242    0.4440 C   0  0  0  0  0  0  0  0  0  0  0  0
   -1.4538   -0.0859    0.9180 C   0  0  0  0  0  0  0  0  0  0  0  0
   -1.4876   -1.1467   -0.1429 C   0  0  0  0  0  0  0  0  0  0  0  0
   -0.0662   -1.3818   -0.4672 C   0  0  0  0  0  0  0  0  0  0  0  0
    0.6330   -0.3137   -0.1310 C   0  0  0  0  0  0  0  0  0  0  0  0
    2.1074   -0.2365   -0.3343 C   0  0  0  0  0  0  0  0  0  0  0  0
    2.6879   -0.0413    0.9248 O   0  0  0  0  0  0  0  0  0  0  0  0
   -0.5529    1.4302   -1.6075 H   0  0  0  0  0  0  0  0  0  0  0  0
   -0.2846    2.7348   -0.3204 H   0  0  0  0  0  0  0  0  0  0  0  0
   -1.8378    1.8964   -0.4764 H   0  0  0  0  0  0  0  0  0  0  0  0
    0.2566    1.2175    1.2836 H   0  0  0  0  0  0  0  0  0  0  0  0
   -2.3729    0.5137    0.9062 H   0  0  0  0  0  0  0  0  0  0  0  0
   -1.1886   -0.4889    1.9019 H   0  0  0  0  0  0  0  0  0  0  0  0
   -1.9526   -0.7112   -1.0574 H   0  0  0  0  0  0  0  0  0  0  0  0
   -2.0064   -2.0714    0.1823 H   0  0  0  0  0  0  0  0  0  0  0  0
    0.3388   -2.3162   -0.9228 H   0  0  0  0  0  0  0  0  0  0  0  0
    2.4001    0.5474   -1.0539 H   0  0  0  0  0  0  0  0  0  0  0  0
    2.5288   -1.1880   -0.7170 H   0  0  0  0  0  0  0  0  0  0  0  0
    3.2212   -0.8091    1.2264 H   0  0  0  0  0  0  0  0  0  0  0  0
  1  2  1  0
  2  3  1  0
  3  4  1  0
  4  5  1  0
  5  6  2  0
  6  7  1  0
  7  8  1  0
  6  2  1  0
  1  9  1  0
  1 10  1  0
  1 11  1  0
  2 12  1  0
  3 13  1  0
  3 14  1  0
  4 15  1  0
  4 16  1  0
  5 17  1  0
  7 18  1  0
  7 19  1  0
  8 20  1  0
M  END
