
     RDKit          3D

 19 20  0  0  0  0  0  0  0  0999 V2000
    2.0809   -0.3687   -0.1026 C   0  0  0  0  0  0  0  0  0  0  0  0
    0.9413    0.4635    0.3538 C   0  0  0  0  0  0  0  0  0  0  0  0
    0.3220    1.2273   -0.7638 C   0  0  0  0  0  0  0  0  0  0  0  0
   -1.0031    1.1596   -0.8340 C   0  0  0  0  0  0  0  0  0  0  0  0
   -1.6819    0.3969    0.2468 C   0  0  0  0  0  0  0  0  0  0  0  0
   -1.0757    0.6476    1.4982 O   0  0  0  0  0  0  0  0  0  0  0  0
   -0.0939   -0.2855    1.1485 C   0  0  0  0  0  0  0  0  0  0  0  0
   -1.1130   -0.9812    0.3192 C   0  0  0  0  0  0  0  0  0  0  0  0
   -0.6962   -1.5167   -0.8837 O   0  0  0  0  0  0  0  0  0  0  0  0
    2.9141   -0.3497    0.6468 H   0  0  0  0  0  0  0  0  0  0  0  0
    1.8290   -1.4121   -0.3530 H   0  0  0  0  0  0  0  0  0  0  0  0
    2.5076    0.0899   -1.0390 H   0  0  0  0  0  0  0  0  0  0  0  0
    1.3536    1.2390    1.0638 H   0  0  0  0  0  0  0  0  0  0  0  0
    0.9543    1.7793   -1.4388 H   0  0  0  0  0  0  0  0  0  0  0  0
   -1.5594    1.6262   -1.6231 H   0  0  0  0  0  0  0  0  0  0  0  0
   -2.7680    0.4884    0.2424 H   0  0  0  0  0  0  0  0  0  0  0  0
    0.3696   -0.8309    1.9719 H   0  0  0  0  0  0  0  0  0  0  0  0
   -1.7379   -1.6435    0.9385 H   0  0  0  0  0  0  0  0  0  0  0  0
   -1.5433   -1.7295   -1.3920 H   0  0  0  0  0  0  0  0  0  0  0  0
  1  2  1  0
  2  3  1  0
  3  4  2  0
  4  5  1  0
  5  6  1  0
  6  7  1  0
  7  8  1  0
  8  9  1  0
  7  2  1  0
  8  5  1  0
  1 10  1  0
  1 11  1  0
  1 12  1  0
  2 13  1  0
  3 14  1  0
  4 15  1  0
  5 16  1  0
  7 17  1  0
  8 18  1  0
  9 19  1  0
M  END
