
     RDKit          3D

 17 17  0  0  0  0  0  0  0  0999 V2000
   -2.4129   -0.1746    0.0691 C   0  0  0  0  0  0  0  0  0  0  0  0
   -0.9694    0.0499   -0.2675 C   0  0  0  0  0  0  0  0  0  0  0  0
   -0.1085   -1.1033    0.0438 C   0  0  0  0  0  0  0  0  0  0  0  0
    1.2121   -1.1270    0.0611 C   0  0  0  0  0  0  0  0  0  0  0  0
    2.2371   -0.0681   -0.2095 C   0  0  0  0  0  0  0  0  0  0  0  0
    1.9196    1.1469    0.4467 O   0  0  0  0  0  0  0  0  0  0  0  0
    0.7056    1.8104    0.4578 C   0  0  0  0  0  0  0  0  0  0  0  0
    0.7282    3.0830    0.4983 O   0  0  0  0  0  0  0  0  0  0  0  0
   -0.5405    1.2136    0.4288 O   0  0  0  0  0  0  0  0  0  0  0  0
   -2.7785   -1.0548   -0.4709 H   0  0  0  0  0  0  0  0  0  0  0  0
   -2.9767    0.7153   -0.3184 H   0  0  0  0  0  0  0  0  0  0  0  0
   -2.6213   -0.2273    1.1396 H   0  0  0  0  0  0  0  0  0  0  0  0
   -0.9147    0.2075   -1.3759 H   0  0  0  0  0  0  0  0  0  0  0  0
   -0.6442   -2.0131    0.2791 H   0  0  0  0  0  0  0  0  0  0  0  0
    1.5939   -2.1282    0.3283 H   0  0  0  0  0  0  0  0  0  0  0  0
    3.2186   -0.4641    0.1742 H   0  0  0  0  0  0  0  0  0  0  0  0
    2.3517    0.1340   -1.2845 H   0  0  0  0  0  0  0  0  0  0  0  0
  1  2  1  0
  2  3  1  0
  3  4  2  0
  4  5  1  0
  5  6  1  0
  6  7  1  0
  7  8  2  0
  7  9  1  0
  9  2  1  0
  1 10  1  0
  1 11  1  0
  1 12  1  0
  2 13  1  0
  3 14  1  0
  4 15  1  0
  5 16  1  0
  5 17  1  0
M  END
