
     RDKit          3D

 21 23  0  0  0  0  0  0  0  0999 V2000
   -2.4146   -0.3161    0.0880 C   0  0  0  0  0  0  0  0  0  0  0  0
   -0.9301   -0.3332    0.4863 C   0  0  0  0  0  0  0  0  0  0  0  0
   -0.6272    1.0811    0.9178 C   0  0  0  0  0  0  0  0  0  0  0  0
    0.6991    1.3586    1.0561 O   0  0  0  0  0  0  0  0  0  0  0  0
    1.5134    0.8990    0.0518 C   0  0  0  0  0  0  0  0  0  0  0  0
    2.0674   -0.4707    0.4191 C   0  0  0  0  0  0  0  0  0  0  0  0
    1.2608   -1.0407   -0.7162 C   0  0  0  0  0  0  0  0  0  0  0  0
   -0.1737   -0.7488   -0.7432 C   0  0  0  0  0  0  0  0  0  0  0  0
    0.7843    0.3229   -1.1086 C   0  0  0  0  0  0  0  0  0  0  0  0
   -2.7697   -1.2913   -0.2306 H   0  0  0  0  0  0  0  0  0  0  0  0
   -2.4495    0.3982   -0.7866 H   0  0  0  0  0  0  0  0  0  0  0  0
   -2.9726    0.1529    0.9078 H   0  0  0  0  0  0  0  0  0  0  0  0
   -0.7569   -0.9956    1.3510 H   0  0  0  0  0  0  0  0  0  0  0  0
   -1.1033    1.1989    1.9339 H   0  0  0  0  0  0  0  0  0  0  0  0
   -1.1479    1.7565    0.2105 H   0  0  0  0  0  0  0  0  0  0  0  0
    2.3245    1.5670   -0.2768 H   0  0  0  0  0  0  0  0  0  0  0  0
    3.1563   -0.5624    0.3051 H   0  0  0  0  0  0  0  0  0  0  0  0
    1.6835   -0.8785    1.3822 H   0  0  0  0  0  0  0  0  0  0  0  0
    1.7179   -1.6252   -1.5076 H   0  0  0  0  0  0  0  0  0  0  0  0
   -0.7363   -1.1772   -1.6169 H   0  0  0  0  0  0  0  0  0  0  0  0
    0.8747    0.7048   -2.1232 H   0  0  0  0  0  0  0  0  0  0  0  0
  1  2  1  0
  2  3  1  0
  3  4  1  0
  4  5  1  0
  5  6  1  0
  6  7  1  0
  7  8  1  0
  8  9  1  0
  8  2  1  0
  9  5  1  0
  9  7  1  0
  1 10  1  0
  1 11  1  0
  1 12  1  0
  2 13  1  0
  3 14  1  0
  3 15  1  0
  5 16  1  0
  6 17  1  0
  6 18  1  0
  7 19  1  0
  8 20  1  0
  9 21  1  0
M  END
