
     RDKit          3D

 21 22  0  0  0  0  0  0  0  0999 V2000
   -1.5521    1.6996   -0.0904 C   0  0  0  0  0  0  0  0  0  0  0  0
   -0.7024    0.4880   -0.2234 C   0  0  0  0  0  0  0  0  0  0  0  0
   -1.4159   -0.8098   -0.0445 C   0  0  0  0  0  0  0  0  0  0  0  0
   -0.3672   -1.9181   -0.1594 C   0  0  0  0  0  0  0  0  0  0  0  0
    0.8353   -1.4129   -0.6799 O   0  0  0  0  0  0  0  0  0  0  0  0
    1.4371   -0.6113    0.2753 C   0  0  0  0  0  0  0  0  0  0  0  0
    2.3610    0.4466   -0.2072 C   0  0  0  0  0  0  0  0  0  0  0  0
    1.4388    1.4495    0.1222 O   0  0  0  0  0  0  0  0  0  0  0  0
    0.5342    0.5275    0.6758 C   0  0  0  0  0  0  0  0  0  0  0  0
   -2.2623    1.6658    0.7379 H   0  0  0  0  0  0  0  0  0  0  0  0
   -0.8617    2.5837    0.0136 H   0  0  0  0  0  0  0  0  0  0  0  0
   -2.1135    1.8405   -1.0578 H   0  0  0  0  0  0  0  0  0  0  0  0
   -0.2860    0.4853   -1.2740 H   0  0  0  0  0  0  0  0  0  0  0  0
   -2.1480   -0.8998   -0.9000 H   0  0  0  0  0  0  0  0  0  0  0  0
   -2.0108   -0.8932    0.8666 H   0  0  0  0  0  0  0  0  0  0  0  0
   -0.1642   -2.3479    0.8386 H   0  0  0  0  0  0  0  0  0  0  0  0
   -0.7768   -2.6888   -0.8487 H   0  0  0  0  0  0  0  0  0  0  0  0
    1.8472   -1.2234    1.0833 H   0  0  0  0  0  0  0  0  0  0  0  0
    2.5864    0.3581   -1.2790 H   0  0  0  0  0  0  0  0  0  0  0  0
    3.2878    0.6194    0.4097 H   0  0  0  0  0  0  0  0  0  0  0  0
    0.3331    0.6413    1.7412 H   0  0  0  0  0  0  0  0  0  0  0  0
  1  2  1  0
  2  3  1  0
  3  4  1  0
  4  5  1  0
  5  6  1  0
  6  7  1  0
  7  8  1  0
  8  9  1  0
  9  2  1  0
  9  6  1  0
  1 10  1  0
  1 11  1  0
  1 12  1  0
  2 13  1  0
  3 14  1  0
  3 15  1  0
  4 16  1  0
  4 17  1  0
  6 18  1  0
  7 19  1  0
  7 20  1  0
  9 21  1  0
M  END
