
     RDKit          3D

 22 23  0  0  0  0  0  0  0  0999 V2000
   -1.9933    1.1549   -0.1558 C   0  0  0  0  0  0  0  0  0  0  0  0
   -1.5963   -0.2383   -0.4038 C   0  0  0  0  0  0  0  0  0  0  0  0
   -1.2643   -1.1002    0.8331 C   0  0  0  0  0  0  0  0  0  0  0  0
   -0.0554   -0.1910    0.8462 C   0  0  0  0  0  0  0  0  0  0  0  0
   -0.1570   -0.5663   -0.6937 C   0  0  0  0  0  0  0  0  0  0  0  0
    1.0368   -0.1177   -0.0679 C   0  0  0  0  0  0  0  0  0  0  0  0
    2.2119   -1.0626    0.2706 C   0  0  0  0  0  0  0  0  0  0  0  0
    1.5977    1.2212   -0.5847 C   0  0  0  0  0  0  0  0  0  0  0  0
   -1.2292    1.9312   -0.4314 H   0  0  0  0  0  0  0  0  0  0  0  0
   -2.4022    1.3499    0.8802 H   0  0  0  0  0  0  0  0  0  0  0  0
   -2.8720    1.4191   -0.8202 H   0  0  0  0  0  0  0  0  0  0  0  0
   -2.3183   -0.7964   -1.0108 H   0  0  0  0  0  0  0  0  0  0  0  0
   -1.0355   -2.1187    0.5189 H   0  0  0  0  0  0  0  0  0  0  0  0
   -1.9228   -0.9623    1.6815 H   0  0  0  0  0  0  0  0  0  0  0  0
   -0.4426    0.8450    1.0986 H   0  0  0  0  0  0  0  0  0  0  0  0
   -0.1121   -1.6924   -0.8787 H   0  0  0  0  0  0  0  0  0  0  0  0
    1.8018   -1.9795    0.7379 H   0  0  0  0  0  0  0  0  0  0  0  0
    2.8850   -0.4950    0.9375 H   0  0  0  0  0  0  0  0  0  0  0  0
    2.7943   -1.2940   -0.6455 H   0  0  0  0  0  0  0  0  0  0  0  0
    2.5980    1.1256   -0.9905 H   0  0  0  0  0  0  0  0  0  0  0  0
    1.5265    1.9267    0.2649 H   0  0  0  0  0  0  0  0  0  0  0  0
    0.9489    1.6410   -1.3864 H   0  0  0  0  0  0  0  0  0  0  0  0
  1  2  1  0
  2  3  1  0
  3  4  1  0
  4  5  1  0
  5  6  1  0
  6  7  1  0
  6  8  1  0
  5  2  1  0
  6  4  1  0
  1  9  1  0
  1 10  1  0
  1 11  1  0
  2 12  1  0
  3 13  1  0
  3 14  1  0
  4 15  1  0
  5 16  1  0
  7 17  1  0
  7 18  1  0
  7 19  1  0
  8 20  1  0
  8 21  1  0
  8 22  1  0
M  END
