
     RDKit          3D

 19 19  0  0  0  0  0  0  0  0999 V2000
   -2.0345    0.4440   -0.2954 C   0  0  0  0  0  0  0  0  0  0  0  0
   -0.8638   -0.0549    0.5780 C   0  0  0  0  0  0  0  0  0  0  0  0
    0.0923    1.0308    0.7370 C   0  0  0  0  0  0  0  0  0  0  0  0
    1.2671    1.1506   -0.0947 C   0  0  0  0  0  0  0  0  0  0  0  0
    2.0896    0.2144   -0.5263 C   0  0  0  0  0  0  0  0  0  0  0  0
    1.9578   -1.2220   -0.2233 C   0  0  0  0  0  0  0  0  0  0  0  0
    2.9628   -1.9307   -0.4902 O   0  0  0  0  0  0  0  0  0  0  0  0
    0.8226   -1.8264    0.3245 O   0  0  0  0  0  0  0  0  0  0  0  0
   -0.4907   -1.3779    0.0779 C   0  0  0  0  0  0  0  0  0  0  0  0
   -1.6258    0.8907   -1.2136 H   0  0  0  0  0  0  0  0  0  0  0  0
   -2.7151   -0.4008   -0.5051 H   0  0  0  0  0  0  0  0  0  0  0  0
   -2.6265    1.2031    0.2466 H   0  0  0  0  0  0  0  0  0  0  0  0
   -1.3792   -0.1986    1.5819 H   0  0  0  0  0  0  0  0  0  0  0  0
   -0.4819    2.0087    0.6775 H   0  0  0  0  0  0  0  0  0  0  0  0
    0.4585    1.0635    1.8131 H   0  0  0  0  0  0  0  0  0  0  0  0
    1.5409    2.1341   -0.4286 H   0  0  0  0  0  0  0  0  0  0  0  0
    2.9470    0.5016   -1.1585 H   0  0  0  0  0  0  0  0  0  0  0  0
   -0.7657   -1.4733   -1.0080 H   0  0  0  0  0  0  0  0  0  0  0  0
   -1.1552   -2.1570    0.5614 H   0  0  0  0  0  0  0  0  0  0  0  0
  1  2  1  0
  2  3  1  0
  3  4  1  0
  4  5  2  0
  5  6  1  0
  6  7  2  0
  6  8  1  0
  8  9  1  0
  9  2  1  0
  1 10  1  0
  1 11  1  0
  1 12  1  0
  2 13  1  0
  3 14  1  0
  3 15  1  0
  4 16  1  0
  5 17  1  0
  9 18  1  0
  9 19  1  0
M  END
