
     RDKit          3D

 21 22  0  0  0  0  0  0  0  0999 V2000
    2.5158   -0.1248    0.4795 C   0  0  0  0  0  0  0  0  0  0  0  0
    1.2510   -0.5377   -0.2250 C   0  0  0  0  0  0  0  0  0  0  0  0
    0.1676   -0.7451    0.7813 C   0  0  0  0  0  0  0  0  0  0  0  0
   -1.0136   -0.0454    0.2037 C   0  0  0  0  0  0  0  0  0  0  0  0
   -2.2267   -0.9096    0.0388 C   0  0  0  0  0  0  0  0  0  0  0  0
   -1.3332    1.1933    0.7738 O   0  0  0  0  0  0  0  0  0  0  0  0
   -0.5980    1.9137   -0.1516 C   0  0  0  0  0  0  0  0  0  0  0  0
   -0.4865    0.6408   -0.9958 C   0  0  0  0  0  0  0  0  0  0  0  0
    0.8244    0.3221   -1.1859 O   0  0  0  0  0  0  0  0  0  0  0  0
    2.4612   -0.5107    1.5218 H   0  0  0  0  0  0  0  0  0  0  0  0
    3.4081   -0.5525   -0.0458 H   0  0  0  0  0  0  0  0  0  0  0  0
    2.6751    0.9613    0.5122 H   0  0  0  0  0  0  0  0  0  0  0  0
    1.4813   -1.5224   -0.7275 H   0  0  0  0  0  0  0  0  0  0  0  0
    0.4317   -0.3421    1.7860 H   0  0  0  0  0  0  0  0  0  0  0  0
   -0.0767   -1.8213    0.8917 H   0  0  0  0  0  0  0  0  0  0  0  0
   -2.9390   -0.6570    0.8691 H   0  0  0  0  0  0  0  0  0  0  0  0
   -1.9733   -1.9893    0.2102 H   0  0  0  0  0  0  0  0  0  0  0  0
   -2.7100   -0.8376   -0.9400 H   0  0  0  0  0  0  0  0  0  0  0  0
    0.3632    2.2403    0.2993 H   0  0  0  0  0  0  0  0  0  0  0  0
   -1.1302    2.6816   -0.7197 H   0  0  0  0  0  0  0  0  0  0  0  0
   -1.0920    0.6424   -1.9103 H   0  0  0  0  0  0  0  0  0  0  0  0
  1  2  1  0
  2  3  1  0
  3  4  1  0
  4  5  1  0
  4  6  1  0
  6  7  1  0
  7  8  1  0
  8  9  1  0
  9  2  1  0
  8  4  1  0
  1 10  1  0
  1 11  1  0
  1 12  1  0
  2 13  1  0
  3 14  1  0
  3 15  1  0
  5 16  1  0
  5 17  1  0
  5 18  1  0
  7 19  1  0
  7 20  1  0
  8 21  1  0
M  END
