
     RDKit          3D

 21 22  0  0  0  0  0  0  0  0999 V2000
    2.0704    0.3503   -1.0428 C   0  0  0  0  0  0  0  0  0  0  0  0
    1.0119   -0.2247   -0.1778 C   0  0  0  0  0  0  0  0  0  0  0  0
   -0.2182   -0.7621   -0.8705 C   0  0  0  0  0  0  0  0  0  0  0  0
   -1.0170   -1.3067    0.2779 C   0  0  0  0  0  0  0  0  0  0  0  0
   -0.7916   -0.1668    1.2939 C   0  0  0  0  0  0  0  0  0  0  0  0
    0.0094   -0.6252    2.3286 O   0  0  0  0  0  0  0  0  0  0  0  0
    0.0369    0.7529    0.4433 C   0  0  0  0  0  0  0  0  0  0  0  0
   -0.7014    0.6947   -0.8855 C   0  0  0  0  0  0  0  0  0  0  0  0
   -2.0672    0.7025   -0.6810 O   0  0  0  0  0  0  0  0  0  0  0  0
    1.9646    1.4496   -1.0546 H   0  0  0  0  0  0  0  0  0  0  0  0
    2.0690   -0.0609   -2.0904 H   0  0  0  0  0  0  0  0  0  0  0  0
    3.0637    0.1207   -0.5569 H   0  0  0  0  0  0  0  0  0  0  0  0
    1.3433   -0.9439    0.5966 H   0  0  0  0  0  0  0  0  0  0  0  0
   -0.1396   -1.2751   -1.7830 H   0  0  0  0  0  0  0  0  0  0  0  0
   -2.0933   -1.3032   -0.0006 H   0  0  0  0  0  0  0  0  0  0  0  0
   -0.6555   -2.2634    0.6624 H   0  0  0  0  0  0  0  0  0  0  0  0
   -1.7256    0.2912    1.6058 H   0  0  0  0  0  0  0  0  0  0  0  0
    0.1589    0.1528    2.9310 H   0  0  0  0  0  0  0  0  0  0  0  0
    0.3774    1.6796    0.8080 H   0  0  0  0  0  0  0  0  0  0  0  0
   -0.2986    1.3098   -1.6826 H   0  0  0  0  0  0  0  0  0  0  0  0
   -2.3972    1.4282   -0.1217 H   0  0  0  0  0  0  0  0  0  0  0  0
  1  2  1  0
  2  3  1  0
  3  4  1  0
  4  5  1  0
  5  6  1  0
  5  7  1  0
  7  8  1  0
  8  9  1  0
  7  2  1  0
  8  3  1  0
  1 10  1  0
  1 11  1  0
  1 12  1  0
  2 13  1  0
  3 14  1  0
  4 15  1  0
  4 16  1  0
  5 17  1  0
  6 18  1  0
  7 19  1  0
  8 20  1  0
  9 21  1  0
M  END
