
     RDKit          3D

 21 22  0  0  0  0  0  0  0  0999 V2000
    2.4954    0.2487    0.4896 C   0  0  0  0  0  0  0  0  0  0  0  0
    1.5718   -0.8230   -0.1132 C   0  0  0  0  0  0  0  0  0  0  0  0
    0.4653   -1.2949    0.6136 C   0  0  0  0  0  0  0  0  0  0  0  0
   -0.7050   -1.9228    0.3187 O   0  0  0  0  0  0  0  0  0  0  0  0
   -1.6005   -0.8212    0.4060 C   0  0  0  0  0  0  0  0  0  0  0  0
   -0.7952    0.3849   -0.1188 C   0  0  0  0  0  0  0  0  0  0  0  0
   -1.5301    1.1060   -1.2014 C   0  0  0  0  0  0  0  0  0  0  0  0
   -0.3786    1.1919    0.9141 O   0  0  0  0  0  0  0  0  0  0  0  0
    0.3653   -0.3543   -0.6590 C   0  0  0  0  0  0  0  0  0  0  0  0
    1.9522    0.6574    1.3703 H   0  0  0  0  0  0  0  0  0  0  0  0
    3.4835   -0.1410    0.7229 H   0  0  0  0  0  0  0  0  0  0  0  0
    2.5570    1.0696   -0.2630 H   0  0  0  0  0  0  0  0  0  0  0  0
    2.1955   -1.5617   -0.6713 H   0  0  0  0  0  0  0  0  0  0  0  0
    0.3196   -0.7749    1.6131 H   0  0  0  0  0  0  0  0  0  0  0  0
   -2.5053   -0.9810   -0.1672 H   0  0  0  0  0  0  0  0  0  0  0  0
   -1.7841   -0.6701    1.4667 H   0  0  0  0  0  0  0  0  0  0  0  0
   -0.9011    1.1187   -2.1264 H   0  0  0  0  0  0  0  0  0  0  0  0
   -2.4832    0.6492   -1.4769 H   0  0  0  0  0  0  0  0  0  0  0  0
   -1.6424    2.1785   -0.9069 H   0  0  0  0  0  0  0  0  0  0  0  0
   -1.1187    1.6192    1.4004 H   0  0  0  0  0  0  0  0  0  0  0  0
    0.0386   -0.8791   -1.6113 H   0  0  0  0  0  0  0  0  0  0  0  0
  1  2  1  0
  2  3  1  0
  3  4  1  0
  4  5  1  0
  5  6  1  0
  6  7  1  0
  6  8  1  0
  6  9  1  0
  9  2  1  0
  9  3  1  0
  1 10  1  0
  1 11  1  0
  1 12  1  0
  2 13  1  0
  3 14  1  0
  5 15  1  0
  5 16  1  0
  7 17  1  0
  7 18  1  0
  7 19  1  0
  8 20  1  0
  9 21  1  0
M  END
