
     RDKit          3D

 19 20  0  0  0  0  0  0  0  0999 V2000
    2.2082    0.3320    0.4585 C   0  0  0  0  0  0  0  0  0  0  0  0
    1.0602    0.2814   -0.5190 C   0  0  0  0  0  0  0  0  0  0  0  0
    0.6320   -1.1081   -1.0168 C   0  0  0  0  0  0  0  0  0  0  0  0
   -0.2340   -0.2836   -0.2123 C   0  0  0  0  0  0  0  0  0  0  0  0
   -0.7462   -0.6074    1.1393 C   0  0  0  0  0  0  0  0  0  0  0  0
   -2.0395    0.0550    0.7572 C   0  0  0  0  0  0  0  0  0  0  0  0
   -3.1059    0.3385    1.2475 O   0  0  0  0  0  0  0  0  0  0  0  0
   -1.5327    0.3015   -0.6438 C   0  0  0  0  0  0  0  0  0  0  0  0
   -1.5240    1.6527   -0.9628 O   0  0  0  0  0  0  0  0  0  0  0  0
    2.0429   -0.2342    1.3739 H   0  0  0  0  0  0  0  0  0  0  0  0
    2.3725    1.3992    0.7062 H   0  0  0  0  0  0  0  0  0  0  0  0
    3.1311    0.0075   -0.0858 H   0  0  0  0  0  0  0  0  0  0  0  0
    1.1678    1.0376   -1.3445 H   0  0  0  0  0  0  0  0  0  0  0  0
    0.4017   -1.1993   -2.1155 H   0  0  0  0  0  0  0  0  0  0  0  0
    1.1513   -1.9800   -0.5455 H   0  0  0  0  0  0  0  0  0  0  0  0
   -0.9657   -1.7049    1.2737 H   0  0  0  0  0  0  0  0  0  0  0  0
   -0.2484   -0.1327    1.9897 H   0  0  0  0  0  0  0  0  0  0  0  0
   -2.0833   -0.3410   -1.3475 H   0  0  0  0  0  0  0  0  0  0  0  0
   -1.6881    2.1857   -0.1526 H   0  0  0  0  0  0  0  0  0  0  0  0
  1  2  1  0
  2  3  1  0
  3  4  1  0
  4  5  1  0
  5  6  1  0
  6  7  2  0
  6  8  1  0
  8  9  1  0
  4  2  1  0
  8  4  1  0
  1 10  1  0
  1 11  1  0
  1 12  1  0
  2 13  1  0
  3 14  1  0
  3 15  1  0
  5 16  1  0
  5 17  1  0
  8 18  1  0
  9 19  1  0
M  END
