
     RDKit          3D

 18 18  0  0  0  0  0  0  0  0999 V2000
    2.3329    0.4113    0.3854 C   0  0  0  0  0  0  0  0  0  0  0  0
    0.9615    0.1537   -0.1937 C   0  0  0  0  0  0  0  0  0  0  0  0
    0.1967   -0.8938    0.5575 C   0  0  0  0  0  0  0  0  0  0  0  0
   -1.1506   -1.0508   -0.1083 C   0  0  0  0  0  0  0  0  0  0  0  0
   -1.9325    0.2370   -0.1305 C   0  0  0  0  0  0  0  0  0  0  0  0
   -1.0703    1.3577   -0.5836 C   0  0  0  0  0  0  0  0  0  0  0  0
   -1.6336    2.2740   -1.2523 O   0  0  0  0  0  0  0  0  0  0  0  0
    0.2588    1.3501   -0.2665 O   0  0  0  0  0  0  0  0  0  0  0  0
    2.7623    1.2653   -0.1819 H   0  0  0  0  0  0  0  0  0  0  0  0
    3.0018   -0.4649    0.1619 H   0  0  0  0  0  0  0  0  0  0  0  0
    2.3282    0.6842    1.4383 H   0  0  0  0  0  0  0  0  0  0  0  0
    1.1360   -0.2250   -1.2369 H   0  0  0  0  0  0  0  0  0  0  0  0
    0.0278   -0.6223    1.5982 H   0  0  0  0  0  0  0  0  0  0  0  0
    0.6963   -1.8818    0.5008 H   0  0  0  0  0  0  0  0  0  0  0  0
   -1.7595   -1.7946    0.4446 H   0  0  0  0  0  0  0  0  0  0  0  0
   -1.0782   -1.4110   -1.1500 H   0  0  0  0  0  0  0  0  0  0  0  0
   -2.3152    0.5150    0.8737 H   0  0  0  0  0  0  0  0  0  0  0  0
   -2.7625    0.0958   -0.8564 H   0  0  0  0  0  0  0  0  0  0  0  0
  1  2  1  0
  2  3  1  0
  3  4  1  0
  4  5  1  0
  5  6  1  0
  6  7  2  0
  6  8  1  0
  8  2  1  0
  1  9  1  0
  1 10  1  0
  1 11  1  0
  2 12  1  0
  3 13  1  0
  3 14  1  0
  4 15  1  0
  4 16  1  0
  5 17  1  0
  5 18  1  0
M  END
