
     RDKit          3D

 25 25  0  0  0  0  0  0  0  0999 V2000
    2.7511    0.1049    0.2497 C   0  0  0  0  0  0  0  0  0  0  0  0
    1.3651    0.0767   -0.3296 C   0  0  0  0  0  0  0  0  0  0  0  0
    0.6943   -1.1953    0.1916 C   0  0  0  0  0  0  0  0  0  0  0  0
   -0.6113   -1.3254   -0.5453 C   0  0  0  0  0  0  0  0  0  0  0  0
   -1.5066   -0.1531   -0.1868 C   0  0  0  0  0  0  0  0  0  0  0  0
   -1.7870   -0.0679    1.2849 C   0  0  0  0  0  0  0  0  0  0  0  0
   -2.6828   -0.3015   -0.8931 O   0  0  0  0  0  0  0  0  0  0  0  0
   -0.8192    1.1127   -0.6187 C   0  0  0  0  0  0  0  0  0  0  0  0
    0.5386    1.2718    0.0178 C   0  0  0  0  0  0  0  0  0  0  0  0
    2.7914   -0.4679    1.2062 H   0  0  0  0  0  0  0  0  0  0  0  0
    3.4028   -0.4862   -0.4569 H   0  0  0  0  0  0  0  0  0  0  0  0
    3.1979    1.1003    0.3095 H   0  0  0  0  0  0  0  0  0  0  0  0
    1.3868   -0.0045   -1.4405 H   0  0  0  0  0  0  0  0  0  0  0  0
    1.3636   -2.0434   -0.0975 H   0  0  0  0  0  0  0  0  0  0  0  0
    0.5916   -1.1736    1.2830 H   0  0  0  0  0  0  0  0  0  0  0  0
   -1.0909   -2.3020   -0.3503 H   0  0  0  0  0  0  0  0  0  0  0  0
   -0.3665   -1.1872   -1.6386 H   0  0  0  0  0  0  0  0  0  0  0  0
   -2.8907   -0.0591    1.4512 H   0  0  0  0  0  0  0  0  0  0  0  0
   -1.4038   -0.9554    1.8292 H   0  0  0  0  0  0  0  0  0  0  0  0
   -1.4197    0.8926    1.7206 H   0  0  0  0  0  0  0  0  0  0  0  0
   -2.8027    0.3299   -1.6278 H   0  0  0  0  0  0  0  0  0  0  0  0
   -1.4456    1.9863   -0.2919 H   0  0  0  0  0  0  0  0  0  0  0  0
   -0.7236    1.2124   -1.7133 H   0  0  0  0  0  0  0  0  0  0  0  0
    0.4599    1.4688    1.0938 H   0  0  0  0  0  0  0  0  0  0  0  0
    1.0072    2.1660   -0.4474 H   0  0  0  0  0  0  0  0  0  0  0  0
  1  2  1  0
  2  3  1  0
  3  4  1  0
  4  5  1  0
  5  6  1  0
  5  7  1  0
  5  8  1  0
  8  9  1  0
  9  2  1  0
  1 10  1  0
  1 11  1  0
  1 12  1  0
  2 13  1  0
  3 14  1  0
  3 15  1  0
  4 16  1  0
  4 17  1  0
  6 18  1  0
  6 19  1  0
  6 20  1  0
  7 21  1  0
  8 22  1  0
  8 23  1  0
  9 24  1  0
  9 25  1  0
M  END
