
     RDKit          3D

 23 24  0  0  0  0  0  0  0  0999 V2000
   -0.0524    1.7408    0.2910 C   0  0  0  0  0  0  0  0  0  0  0  0
   -0.2306    0.3324    0.8513 C   0  0  0  0  0  0  0  0  0  0  0  0
    0.9463   -0.5700    0.5374 C   0  0  0  0  0  0  0  0  0  0  0  0
    2.2260    0.1951    0.3273 C   0  0  0  0  0  0  0  0  0  0  0  0
    3.2669   -0.6650    0.0450 O   0  0  0  0  0  0  0  0  0  0  0  0
    0.2185   -0.9418   -0.7595 C   0  0  0  0  0  0  0  0  0  0  0  0
   -1.0251   -0.4688   -0.1295 C   0  0  0  0  0  0  0  0  0  0  0  0
   -2.2166    0.0081   -0.7953 C   0  0  0  0  0  0  0  0  0  0  0  0
   -2.2114   -1.2184    0.1572 C   0  0  0  0  0  0  0  0  0  0  0  0
    0.1874    1.6155   -0.7982 H   0  0  0  0  0  0  0  0  0  0  0  0
    0.6955    2.3224    0.8366 H   0  0  0  0  0  0  0  0  0  0  0  0
   -1.0701    2.2192    0.2944 H   0  0  0  0  0  0  0  0  0  0  0  0
   -0.5706    0.3119    1.8965 H   0  0  0  0  0  0  0  0  0  0  0  0
    1.0400   -1.4494    1.1702 H   0  0  0  0  0  0  0  0  0  0  0  0
    2.0921    0.9823   -0.4335 H   0  0  0  0  0  0  0  0  0  0  0  0
    2.4382    0.7326    1.2944 H   0  0  0  0  0  0  0  0  0  0  0  0
    3.7337   -0.3166   -0.7561 H   0  0  0  0  0  0  0  0  0  0  0  0
    0.2339   -2.0233   -0.9894 H   0  0  0  0  0  0  0  0  0  0  0  0
    0.5312   -0.3063   -1.6113 H   0  0  0  0  0  0  0  0  0  0  0  0
   -2.7220    0.9110   -0.3586 H   0  0  0  0  0  0  0  0  0  0  0  0
   -2.3271   -0.1860   -1.8659 H   0  0  0  0  0  0  0  0  0  0  0  0
   -2.4768   -2.1522   -0.3469 H   0  0  0  0  0  0  0  0  0  0  0  0
   -2.7069   -1.0734    1.1427 H   0  0  0  0  0  0  0  0  0  0  0  0
  1  2  1  0
  2  3  1  0
  3  4  1  0
  4  5  1  0
  3  6  1  0
  6  7  1  0
  7  8  1  0
  8  9  1  0
  7  2  1  0
  9  7  1  0
  1 10  1  0
  1 11  1  0
  1 12  1  0
  2 13  1  0
  3 14  1  0
  4 15  1  0
  4 16  1  0
  5 17  1  0
  6 18  1  0
  6 19  1  0
  8 20  1  0
  8 21  1  0
  9 22  1  0
  9 23  1  0
M  END
