
     RDKit          3D

 23 24  0  0  0  0  0  0  0  0999 V2000
    2.3670    0.6294   -0.3113 C   0  0  0  0  0  0  0  0  0  0  0  0
    1.7234   -0.6573    0.1267 C   0  0  0  0  0  0  0  0  0  0  0  0
    0.7760   -1.2726   -0.8238 C   0  0  0  0  0  0  0  0  0  0  0  0
    0.0432   -0.5143   -1.7113 O   0  0  0  0  0  0  0  0  0  0  0  0
   -1.2111   -0.4796   -1.1024 C   0  0  0  0  0  0  0  0  0  0  0  0
   -0.7870    0.0926    0.2582 C   0  0  0  0  0  0  0  0  0  0  0  0
   -1.9669   -0.1315    1.1826 C   0  0  0  0  0  0  0  0  0  0  0  0
   -0.5246    1.5446    0.1380 C   0  0  0  0  0  0  0  0  0  0  0  0
    0.3543   -0.7675    0.5948 C   0  0  0  0  0  0  0  0  0  0  0  0
    3.3423    0.3472   -0.8103 H   0  0  0  0  0  0  0  0  0  0  0  0
    1.8019    1.1779   -1.0763 H   0  0  0  0  0  0  0  0  0  0  0  0
    2.6539    1.2216    0.5681 H   0  0  0  0  0  0  0  0  0  0  0  0
    2.4598   -1.3547    0.5811 H   0  0  0  0  0  0  0  0  0  0  0  0
    0.6966   -2.3543   -0.9707 H   0  0  0  0  0  0  0  0  0  0  0  0
   -1.5269   -1.5122   -0.9313 H   0  0  0  0  0  0  0  0  0  0  0  0
   -1.9344    0.1571   -1.6111 H   0  0  0  0  0  0  0  0  0  0  0  0
   -2.7548    0.6026    0.8878 H   0  0  0  0  0  0  0  0  0  0  0  0
   -2.3732   -1.1403    1.1300 H   0  0  0  0  0  0  0  0  0  0  0  0
   -1.7019    0.1457    2.2431 H   0  0  0  0  0  0  0  0  0  0  0  0
   -1.3952    2.1324    0.5559 H   0  0  0  0  0  0  0  0  0  0  0  0
    0.3533    1.8909    0.6988 H   0  0  0  0  0  0  0  0  0  0  0  0
   -0.5030    1.8289   -0.9427 H   0  0  0  0  0  0  0  0  0  0  0  0
    0.1074   -1.5864    1.3263 H   0  0  0  0  0  0  0  0  0  0  0  0
  1  2  1  0
  2  3  1  0
  3  4  1  0
  4  5  1  0
  5  6  1  0
  6  7  1  0
  6  8  1  0
  6  9  1  0
  9  2  1  0
  9  3  1  0
  1 10  1  0
  1 11  1  0
  1 12  1  0
  2 13  1  0
  3 14  1  0
  5 15  1  0
  5 16  1  0
  7 17  1  0
  7 18  1  0
  7 19  1  0
  8 20  1  0
  8 21  1  0
  8 22  1  0
  9 23  1  0
M  END
