
     RDKit          3D

 23 24  0  0  0  0  0  0  0  0999 V2000
   -2.8277    0.6081    0.7024 C   0  0  0  0  0  0  0  0  0  0  0  0
   -1.9836    0.0966   -0.4365 C   0  0  0  0  0  0  0  0  0  0  0  0
   -1.6126   -1.3165   -0.5705 C   0  0  0  0  0  0  0  0  0  0  0  0
   -0.5683   -0.3538   -0.0898 C   0  0  0  0  0  0  0  0  0  0  0  0
   -0.3044   -0.4368    1.2751 O   0  0  0  0  0  0  0  0  0  0  0  0
    0.4751    0.1821   -1.0138 C   0  0  0  0  0  0  0  0  0  0  0  0
    1.8636   -0.2460   -0.6923 C   0  0  0  0  0  0  0  0  0  0  0  0
    2.4992    0.0663    0.5998 C   0  0  0  0  0  0  0  0  0  0  0  0
    2.8615    0.9276   -0.5662 C   0  0  0  0  0  0  0  0  0  0  0  0
   -2.4157    1.6144    1.0047 H   0  0  0  0  0  0  0  0  0  0  0  0
   -3.8590    0.7396    0.3161 H   0  0  0  0  0  0  0  0  0  0  0  0
   -2.8251   -0.0806    1.5603 H   0  0  0  0  0  0  0  0  0  0  0  0
   -2.1460    0.6525   -1.3839 H   0  0  0  0  0  0  0  0  0  0  0  0
   -2.0258   -2.0724    0.1370 H   0  0  0  0  0  0  0  0  0  0  0  0
   -1.4380   -1.7304   -1.5750 H   0  0  0  0  0  0  0  0  0  0  0  0
   -0.0180   -1.3486    1.5450 H   0  0  0  0  0  0  0  0  0  0  0  0
    0.2084   -0.1543   -2.0441 H   0  0  0  0  0  0  0  0  0  0  0  0
    0.3528    1.3006   -1.0334 H   0  0  0  0  0  0  0  0  0  0  0  0
    2.2668   -1.0969   -1.2991 H   0  0  0  0  0  0  0  0  0  0  0  0
    3.3136   -0.5974    0.9493 H   0  0  0  0  0  0  0  0  0  0  0  0
    1.8953    0.4854    1.4310 H   0  0  0  0  0  0  0  0  0  0  0  0
    3.8419    0.8132   -1.0690 H   0  0  0  0  0  0  0  0  0  0  0  0
    2.4463    1.9471   -0.5317 H   0  0  0  0  0  0  0  0  0  0  0  0
  1  2  1  0
  2  3  1  0
  3  4  1  0
  4  5  1  0
  4  6  1  0
  6  7  1  0
  7  8  1  0
  8  9  1  0
  4  2  1  0
  9  7  1  0
  1 10  1  0
  1 11  1  0
  1 12  1  0
  2 13  1  0
  3 14  1  0
  3 15  1  0
  5 16  1  0
  6 17  1  0
  6 18  1  0
  7 19  1  0
  8 20  1  0
  8 21  1  0
  9 22  1  0
  9 23  1  0
M  END
