
     RDKit          3D

 21 22  0  0  0  0  0  0  0  0999 V2000
    1.8490   -0.7496    0.8338 C   0  0  0  0  0  0  0  0  0  0  0  0
    1.4830    0.4341    0.0002 C   0  0  0  0  0  0  0  0  0  0  0  0
    1.1889    0.2100   -1.4667 C   0  0  0  0  0  0  0  0  0  0  0  0
    0.1729    0.8191   -0.4449 C   0  0  0  0  0  0  0  0  0  0  0  0
   -0.0186    2.2215   -0.6061 O   0  0  0  0  0  0  0  0  0  0  0  0
   -1.0989    0.0927   -0.4334 C   0  0  0  0  0  0  0  0  0  0  0  0
   -1.8589    0.2389   -1.6173 O   0  0  0  0  0  0  0  0  0  0  0  0
   -1.9650    0.1744    0.8326 C   0  0  0  0  0  0  0  0  0  0  0  0
   -1.4148   -1.1188    0.3153 C   0  0  0  0  0  0  0  0  0  0  0  0
    1.3763   -0.8324    1.7942 H   0  0  0  0  0  0  0  0  0  0  0  0
    2.9459   -0.8182    0.9807 H   0  0  0  0  0  0  0  0  0  0  0  0
    1.6083   -1.6755    0.2296 H   0  0  0  0  0  0  0  0  0  0  0  0
    2.2499    1.2361    0.1278 H   0  0  0  0  0  0  0  0  0  0  0  0
    1.5514    0.8990   -2.2310 H   0  0  0  0  0  0  0  0  0  0  0  0
    1.0429   -0.8257   -1.7654 H   0  0  0  0  0  0  0  0  0  0  0  0
   -0.1215    2.5526    0.3289 H   0  0  0  0  0  0  0  0  0  0  0  0
   -1.5372   -0.4486   -2.2473 H   0  0  0  0  0  0  0  0  0  0  0  0
   -3.0375    0.4279    0.7067 H   0  0  0  0  0  0  0  0  0  0  0  0
   -1.5188    0.6740    1.7074 H   0  0  0  0  0  0  0  0  0  0  0  0
   -2.2150   -1.8145   -0.0489 H   0  0  0  0  0  0  0  0  0  0  0  0
   -0.6824   -1.6971    0.9152 H   0  0  0  0  0  0  0  0  0  0  0  0
  1  2  1  0
  2  3  1  0
  3  4  1  0
  4  5  1  0
  4  6  1  0
  6  7  1  0
  6  8  1  0
  8  9  1  0
  4  2  1  0
  9  6  1  0
  1 10  1  0
  1 11  1  0
  1 12  1  0
  2 13  1  0
  3 14  1  0
  3 15  1  0
  5 16  1  0
  7 17  1  0
  8 18  1  0
  8 19  1  0
  9 20  1  0
  9 21  1  0
M  END
