
     RDKit          3D

 20 21  0  0  0  0  0  0  0  0999 V2000
    2.3644    0.4052   -0.1647 C   0  0  0  0  0  0  0  0  0  0  0  0
    1.0148    0.4587    0.4163 C   0  0  0  0  0  0  0  0  0  0  0  0
   -0.1134    0.9676   -0.4408 C   0  0  0  0  0  0  0  0  0  0  0  0
   -0.0048   -0.3082   -1.1968 C   0  0  0  0  0  0  0  0  0  0  0  0
    0.1169   -0.7425    0.2238 C   0  0  0  0  0  0  0  0  0  0  0  0
    0.2871   -1.8967    0.6890 O   0  0  0  0  0  0  0  0  0  0  0  0
   -0.9730    0.2353    0.5578 C   0  0  0  0  0  0  0  0  0  0  0  0
   -2.3556   -0.0907    0.1694 C   0  0  0  0  0  0  0  0  0  0  0  0
    3.1020    0.4039    0.6832 H   0  0  0  0  0  0  0  0  0  0  0  0
    2.5734    1.2884   -0.7804 H   0  0  0  0  0  0  0  0  0  0  0  0
    2.5956   -0.5164   -0.7435 H   0  0  0  0  0  0  0  0  0  0  0  0
    0.9826    0.9291    1.4042 H   0  0  0  0  0  0  0  0  0  0  0  0
   -0.2432    1.8998   -0.7781 H   0  0  0  0  0  0  0  0  0  0  0  0
    0.8684   -0.4436   -1.8459 H   0  0  0  0  0  0  0  0  0  0  0  0
   -0.8988   -0.7132   -1.6706 H   0  0  0  0  0  0  0  0  0  0  0  0
   -0.1559   -2.0839    1.5488 H   0  0  0  0  0  0  0  0  0  0  0  0
   -0.8918    0.6596    1.5790 H   0  0  0  0  0  0  0  0  0  0  0  0
   -2.6080    0.0918   -0.8939 H   0  0  0  0  0  0  0  0  0  0  0  0
   -2.6224   -1.1233    0.4886 H   0  0  0  0  0  0  0  0  0  0  0  0
   -3.0382    0.5792    0.7547 H   0  0  0  0  0  0  0  0  0  0  0  0
  1  2  1  0
  2  3  1  0
  3  4  1  0
  4  5  1  0
  5  6  1  0
  5  7  1  0
  7  8  1  0
  5  2  1  0
  7  3  1  0
  1  9  1  0
  1 10  1  0
  1 11  1  0
  2 12  1  0
  3 13  1  0
  4 14  1  0
  4 15  1  0
  6 16  1  0
  7 17  1  0
  8 18  1  0
  8 19  1  0
  8 20  1  0
M  END
