
     RDKit          3D

 19 21  0  0  0  0  0  0  0  0999 V2000
    2.4409    0.0336   -0.5684 C   0  0  0  0  0  0  0  0  0  0  0  0
    1.1319   -0.6882   -0.5855 C   0  0  0  0  0  0  0  0  0  0  0  0
   -0.1358   -0.0379   -0.9704 C   0  0  0  0  0  0  0  0  0  0  0  0
   -1.4897   -0.2763   -0.4672 C   0  0  0  0  0  0  0  0  0  0  0  0
   -2.0995    0.9394    0.2777 C   0  0  0  0  0  0  0  0  0  0  0  0
   -2.1884   -1.3257   -0.2479 O   0  0  0  0  0  0  0  0  0  0  0  0
   -1.0453   -1.3279    0.5368 C   0  0  0  0  0  0  0  0  0  0  0  0
    0.1573   -0.4353    0.4930 C   0  0  0  0  0  0  0  0  0  0  0  0
    0.3222    0.5595    1.4208 O   0  0  0  0  0  0  0  0  0  0  0  0
    3.2471   -0.5232   -1.1253 H   0  0  0  0  0  0  0  0  0  0  0  0
    2.3075    1.0071   -1.0892 H   0  0  0  0  0  0  0  0  0  0  0  0
    2.8504    0.1600    0.4613 H   0  0  0  0  0  0  0  0  0  0  0  0
    1.2276   -1.7576   -0.9383 H   0  0  0  0  0  0  0  0  0  0  0  0
    0.0522    1.0387   -1.2674 H   0  0  0  0  0  0  0  0  0  0  0  0
   -1.4300    1.7958    0.2696 H   0  0  0  0  0  0  0  0  0  0  0  0
   -2.9860    1.2152   -0.3653 H   0  0  0  0  0  0  0  0  0  0  0  0
   -2.5102    0.6533    1.2483 H   0  0  0  0  0  0  0  0  0  0  0  0
   -0.7000   -2.3560    0.3237 H   0  0  0  0  0  0  0  0  0  0  0  0
    0.8479    1.3256    1.1133 H   0  0  0  0  0  0  0  0  0  0  0  0
  1  2  1  0
  2  3  1  0
  3  4  1  0
  4  5  1  0
  4  6  1  0
  6  7  1  0
  7  8  1  0
  8  9  1  0
  8  2  1  0
  8  3  1  0
  7  4  1  0
  1 10  1  0
  1 11  1  0
  1 12  1  0
  2 13  1  0
  3 14  1  0
  5 15  1  0
  5 16  1  0
  5 17  1  0
  7 18  1  0
  9 19  1  0
M  END
