
     RDKit          3D

 13 13  0  0  0  0  0  0  0  0999 V2000
   -1.4771   -0.4366    1.0044 C   0  0  0  0  0  0  0  0  0  0  0  0
   -0.5186   -0.3863   -0.1621 C   0  0  0  0  0  0  0  0  0  0  0  0
    0.0484    0.9620   -0.3772 C   0  0  0  0  0  0  0  0  0  0  0  0
    1.3597    0.8840   -0.3210 C   0  0  0  0  0  0  0  0  0  0  0  0
    1.7562   -0.4915   -0.0697 C   0  0  0  0  0  0  0  0  0  0  0  0
    2.9232   -0.9331    0.0449 O   0  0  0  0  0  0  0  0  0  0  0  0
    0.5972   -1.2384    0.0219 O   0  0  0  0  0  0  0  0  0  0  0  0
   -2.4926   -0.6582    0.5874 H   0  0  0  0  0  0  0  0  0  0  0  0
   -1.2228   -1.1848    1.7576 H   0  0  0  0  0  0  0  0  0  0  0  0
   -1.4963    0.5900    1.4647 H   0  0  0  0  0  0  0  0  0  0  0  0
   -1.0136   -0.6795   -1.1176 H   0  0  0  0  0  0  0  0  0  0  0  0
   -0.5131    1.8545   -0.5501 H   0  0  0  0  0  0  0  0  0  0  0  0
    2.0492    1.7178   -0.4429 H   0  0  0  0  0  0  0  0  0  0  0  0
  1  2  1  0
  2  3  1  0
  3  4  2  0
  4  5  1  0
  5  6  2  0
  5  7  1  0
  7  2  1  0
  1  8  1  0
  1  9  1  0
  1 10  1  0
  2 11  1  0
  3 12  1  0
  4 13  1  0
M  END
