
     RDKit          3D

 21 22  0  0  0  0  0  0  0  0999 V2000
    2.0467    0.5340    0.6029 C   0  0  0  0  0  0  0  0  0  0  0  0
    1.0257   -0.4131    0.1021 C   0  0  0  0  0  0  0  0  0  0  0  0
    0.6874   -0.1874   -1.3839 C   0  0  0  0  0  0  0  0  0  0  0  0
   -0.7997   -0.1103   -1.2794 C   0  0  0  0  0  0  0  0  0  0  0  0
   -1.1604   -1.1492   -0.2192 C   0  0  0  0  0  0  0  0  0  0  0  0
   -0.3427   -0.2233    0.6906 C   0  0  0  0  0  0  0  0  0  0  0  0
   -0.5443   -0.2634    1.9950 O   0  0  0  0  0  0  0  0  0  0  0  0
   -0.9588    0.8978   -0.1353 C   0  0  0  0  0  0  0  0  0  0  0  0
   -2.2722    1.1610    0.1633 O   0  0  0  0  0  0  0  0  0  0  0  0
    2.5004    1.1946   -0.1417 H   0  0  0  0  0  0  0  0  0  0  0  0
    1.5796    1.1462    1.4299 H   0  0  0  0  0  0  0  0  0  0  0  0
    2.8439   -0.0642    1.1246 H   0  0  0  0  0  0  0  0  0  0  0  0
    1.3077   -1.4860    0.1694 H   0  0  0  0  0  0  0  0  0  0  0  0
    1.0738   -0.9839   -2.0168 H   0  0  0  0  0  0  0  0  0  0  0  0
    1.0515    0.8309   -1.6902 H   0  0  0  0  0  0  0  0  0  0  0  0
   -1.4175   -0.0094   -2.1260 H   0  0  0  0  0  0  0  0  0  0  0  0
   -0.6065   -2.0852   -0.3447 H   0  0  0  0  0  0  0  0  0  0  0  0
   -2.2201   -1.1987    0.0162 H   0  0  0  0  0  0  0  0  0  0  0  0
   -1.1596   -0.9692    2.2860 H   0  0  0  0  0  0  0  0  0  0  0  0
   -0.3088    1.7599   -0.2648 H   0  0  0  0  0  0  0  0  0  0  0  0
   -2.3260    1.6188    1.0219 H   0  0  0  0  0  0  0  0  0  0  0  0
  1  2  1  0
  2  3  1  0
  3  4  1  0
  4  5  1  0
  5  6  1  0
  6  7  1  0
  6  8  1  0
  8  9  1  0
  6  2  1  0
  8  4  1  0
  1 10  1  0
  1 11  1  0
  1 12  1  0
  2 13  1  0
  3 14  1  0
  3 15  1  0
  4 16  1  0
  5 17  1  0
  5 18  1  0
  7 19  1  0
  8 20  1  0
  9 21  1  0
M  END
