
     RDKit          3D

 23 23  0  0  0  0  0  0  0  0999 V2000
   -2.3815    0.9571    0.4044 C   0  0  0  0  0  0  0  0  0  0  0  0
   -1.3203   -0.0541    0.7370 C   0  0  0  0  0  0  0  0  0  0  0  0
   -1.2707   -1.0478   -0.3866 C   0  0  0  0  0  0  0  0  0  0  0  0
    0.1978   -1.3016   -0.5439 C   0  0  0  0  0  0  0  0  0  0  0  0
    0.7781    0.0107   -0.0378 C   0  0  0  0  0  0  0  0  0  0  0  0
    0.8602    1.0305   -1.1318 C   0  0  0  0  0  0  0  0  0  0  0  0
    2.1661   -0.3192    0.4914 C   0  0  0  0  0  0  0  0  0  0  0  0
    2.7814    0.7849    1.0633 O   0  0  0  0  0  0  0  0  0  0  0  0
   -0.0769    0.4625    0.9316 O   0  0  0  0  0  0  0  0  0  0  0  0
   -3.3682    0.4716    0.6540 H   0  0  0  0  0  0  0  0  0  0  0  0
   -2.4473    1.1515   -0.7018 H   0  0  0  0  0  0  0  0  0  0  0  0
   -2.3037    1.8930    0.9569 H   0  0  0  0  0  0  0  0  0  0  0  0
   -1.6253   -0.5686    1.6950 H   0  0  0  0  0  0  0  0  0  0  0  0
   -1.8350   -1.9445   -0.0798 H   0  0  0  0  0  0  0  0  0  0  0  0
   -1.6856   -0.6024   -1.3334 H   0  0  0  0  0  0  0  0  0  0  0  0
    0.5214   -1.5528   -1.5497 H   0  0  0  0  0  0  0  0  0  0  0  0
    0.4734   -2.1105    0.1631 H   0  0  0  0  0  0  0  0  0  0  0  0
   -0.1728    1.2333   -1.4781 H   0  0  0  0  0  0  0  0  0  0  0  0
    1.5526    0.7566   -1.9516 H   0  0  0  0  0  0  0  0  0  0  0  0
    1.2295    1.9753   -0.6879 H   0  0  0  0  0  0  0  0  0  0  0  0
    2.1455   -1.1835    1.1641 H   0  0  0  0  0  0  0  0  0  0  0  0
    2.7683   -0.6147   -0.3968 H   0  0  0  0  0  0  0  0  0  0  0  0
    3.0129    0.5726    2.0184 H   0  0  0  0  0  0  0  0  0  0  0  0
  1  2  1  0
  2  3  1  0
  3  4  1  0
  4  5  1  0
  5  6  1  0
  5  7  1  0
  7  8  1  0
  5  9  1  0
  9  2  1  0
  1 10  1  0
  1 11  1  0
  1 12  1  0
  2 13  1  0
  3 14  1  0
  3 15  1  0
  4 16  1  0
  4 17  1  0
  6 18  1  0
  6 19  1  0
  6 20  1  0
  7 21  1  0
  7 22  1  0
  8 23  1  0
M  END
