
     RDKit          3D

 19 19  0  0  0  0  0  0  0  0999 V2000
    2.0067    1.0220   -0.1276 C   0  0  0  0  0  0  0  0  0  0  0  0
    0.6717    0.4198    0.2496 C   0  0  0  0  0  0  0  0  0  0  0  0
    0.7662   -1.0833    0.0629 C   0  0  0  0  0  0  0  0  0  0  0  0
   -0.6306   -1.5086   -0.3010 C   0  0  0  0  0  0  0  0  0  0  0  0
   -0.9661   -2.6577   -0.4122 O   0  0  0  0  0  0  0  0  0  0  0  0
   -1.4497   -0.2662   -0.4804 C   0  0  0  0  0  0  0  0  0  0  0  0
   -2.1501   -0.0211    0.8010 C   0  0  0  0  0  0  0  0  0  0  0  0
   -3.2829    0.3684    0.9067 O   0  0  0  0  0  0  0  0  0  0  0  0
   -0.4054    0.7671   -0.7764 C   0  0  0  0  0  0  0  0  0  0  0  0
    2.1264    0.9194   -1.2147 H   0  0  0  0  0  0  0  0  0  0  0  0
    2.7824    0.4248    0.4090 H   0  0  0  0  0  0  0  0  0  0  0  0
    2.0942    2.0645    0.2122 H   0  0  0  0  0  0  0  0  0  0  0  0
    0.3522    0.6937    1.2757 H   0  0  0  0  0  0  0  0  0  0  0  0
    1.3850   -1.2601   -0.8286 H   0  0  0  0  0  0  0  0  0  0  0  0
    1.1258   -1.5924    0.9749 H   0  0  0  0  0  0  0  0  0  0  0  0
   -2.1336   -0.3906   -1.3279 H   0  0  0  0  0  0  0  0  0  0  0  0
   -1.5888   -0.2108    1.7122 H   0  0  0  0  0  0  0  0  0  0  0  0
    0.0381    0.5118   -1.7669 H   0  0  0  0  0  0  0  0  0  0  0  0
   -0.7416    1.7994   -0.7056 H   0  0  0  0  0  0  0  0  0  0  0  0
  1  2  1  0
  2  3  1  0
  3  4  1  0
  4  5  2  0
  4  6  1  0
  6  7  1  0
  7  8  2  0
  6  9  1  0
  9  2  1  0
  1 10  1  0
  1 11  1  0
  1 12  1  0
  2 13  1  0
  3 14  1  0
  3 15  1  0
  6 16  1  0
  7 17  1  0
  9 18  1  0
  9 19  1  0
M  END
