
     RDKit          3D

 23 24  0  0  0  0  0  0  0  0999 V2000
    2.0695   -0.3362    0.4888 C   0  0  0  0  0  0  0  0  0  0  0  0
    1.1521   -0.0436   -0.6680 C   0  0  0  0  0  0  0  0  0  0  0  0
    0.9169    1.4259   -0.7115 C   0  0  0  0  0  0  0  0  0  0  0  0
   -0.2158    1.9912   -0.2191 C   0  0  0  0  0  0  0  0  0  0  0  0
   -1.1237    0.9875    0.3321 C   0  0  0  0  0  0  0  0  0  0  0  0
   -2.3291    0.4097   -0.1054 C   0  0  0  0  0  0  0  0  0  0  0  0
   -1.2324    0.0029   -0.8915 C   0  0  0  0  0  0  0  0  0  0  0  0
   -0.0905   -0.8870   -0.6718 C   0  0  0  0  0  0  0  0  0  0  0  0
   -0.2728   -1.6926    0.5834 C   0  0  0  0  0  0  0  0  0  0  0  0
    2.1637   -1.3886    0.7414 H   0  0  0  0  0  0  0  0  0  0  0  0
    3.0871    0.0339    0.2207 H   0  0  0  0  0  0  0  0  0  0  0  0
    1.7586    0.2932    1.3642 H   0  0  0  0  0  0  0  0  0  0  0  0
    1.7429   -0.2862   -1.5995 H   0  0  0  0  0  0  0  0  0  0  0  0
    1.6742    2.0921   -1.1545 H   0  0  0  0  0  0  0  0  0  0  0  0
   -0.3619    3.0598   -0.2625 H   0  0  0  0  0  0  0  0  0  0  0  0
   -0.6715    0.5612    1.2738 H   0  0  0  0  0  0  0  0  0  0  0  0
   -3.1116    1.0757   -0.5688 H   0  0  0  0  0  0  0  0  0  0  0  0
   -2.8413   -0.3355    0.5456 H   0  0  0  0  0  0  0  0  0  0  0  0
   -1.1590    0.4740   -1.9190 H   0  0  0  0  0  0  0  0  0  0  0  0
   -0.0588   -1.6382   -1.5171 H   0  0  0  0  0  0  0  0  0  0  0  0
    0.0112   -2.7745    0.4297 H   0  0  0  0  0  0  0  0  0  0  0  0
   -1.3582   -1.7173    0.8149 H   0  0  0  0  0  0  0  0  0  0  0  0
    0.2507   -1.3074    1.4523 H   0  0  0  0  0  0  0  0  0  0  0  0
  1  2  1  0
  2  3  1  0
  3  4  2  0
  4  5  1  0
  5  6  1  0
  6  7  1  0
  7  8  1  0
  8  9  1  0
  8  2  1  0
  7  5  1  0
  1 10  1  0
  1 11  1  0
  1 12  1  0
  2 13  1  0
  3 14  1  0
  4 15  1  0
  5 16  1  0
  6 17  1  0
  6 18  1  0
  7 19  1  0
  8 20  1  0
  9 21  1  0
  9 22  1  0
  9 23  1  0
M  END
