
     RDKit          3D

 16 16  0  0  0  0  0  0  0  0999 V2000
    2.0551   -0.3724   -0.0964 C   0  0  0  0  0  0  0  0  0  0  0  0
    0.6162   -0.1982   -0.4811 C   0  0  0  0  0  0  0  0  0  0  0  0
   -0.4418   -0.4487    0.5134 C   0  0  0  0  0  0  0  0  0  0  0  0
   -1.8485   -0.8091    0.1105 C   0  0  0  0  0  0  0  0  0  0  0  0
   -0.0652    0.9813    0.1540 C   0  0  0  0  0  0  0  0  0  0  0  0
   -0.8900    1.6931   -0.6903 O   0  0  0  0  0  0  0  0  0  0  0  0
    2.4012   -1.4208   -0.1283 H   0  0  0  0  0  0  0  0  0  0  0  0
    2.3183    0.1014    0.8721 H   0  0  0  0  0  0  0  0  0  0  0  0
    2.6735    0.1736   -0.8624 H   0  0  0  0  0  0  0  0  0  0  0  0
    0.4004   -0.4280   -1.5391 H   0  0  0  0  0  0  0  0  0  0  0  0
   -0.0948   -0.8565    1.4888 H   0  0  0  0  0  0  0  0  0  0  0  0
   -2.5236   -0.2518    0.8260 H   0  0  0  0  0  0  0  0  0  0  0  0
   -2.0450   -0.4659   -0.9274 H   0  0  0  0  0  0  0  0  0  0  0  0
   -2.0735   -1.8865    0.2163 H   0  0  0  0  0  0  0  0  0  0  0  0
    0.3944    1.5275    0.9782 H   0  0  0  0  0  0  0  0  0  0  0  0
   -0.8769    2.6611   -0.4341 H   0  0  0  0  0  0  0  0  0  0  0  0
  1  2  1  0
  2  3  1  0
  3  4  1  0
  3  5  1  0
  5  6  1  0
  5  2  1  0
  1  7  1  0
  1  8  1  0
  1  9  1  0
  2 10  1  0
  3 11  1  0
  4 12  1  0
  4 13  1  0
  4 14  1  0
  5 15  1  0
  6 16  1  0
M  END
