
     RDKit          3D

 21 23  0  0  0  0  0  0  0  0999 V2000
   -2.0035    1.0597   -0.8337 C   0  0  0  0  0  0  0  0  0  0  0  0
   -1.0119   -0.0659   -0.6375 C   0  0  0  0  0  0  0  0  0  0  0  0
   -1.6165   -1.0531    0.3893 C   0  0  0  0  0  0  0  0  0  0  0  0
   -0.3622   -1.5411    1.0789 C   0  0  0  0  0  0  0  0  0  0  0  0
    0.6541   -0.7460    0.9120 C   0  0  0  0  0  0  0  0  0  0  0  0
    1.9710    0.0014    0.8671 C   0  0  0  0  0  0  0  0  0  0  0  0
    2.6524   -0.2042   -0.4264 C   0  0  0  0  0  0  0  0  0  0  0  0
    1.4725    0.6714   -0.4702 C   0  0  0  0  0  0  0  0  0  0  0  0
    0.1537    0.4451    0.1241 C   0  0  0  0  0  0  0  0  0  0  0  0
   -2.4034    1.4063    0.1432 H   0  0  0  0  0  0  0  0  0  0  0  0
   -2.7896    0.8272   -1.5640 H   0  0  0  0  0  0  0  0  0  0  0  0
   -1.4168    1.9346   -1.2319 H   0  0  0  0  0  0  0  0  0  0  0  0
   -0.7844   -0.5421   -1.5869 H   0  0  0  0  0  0  0  0  0  0  0  0
   -2.0766   -1.8702   -0.1656 H   0  0  0  0  0  0  0  0  0  0  0  0
   -2.2824   -0.5383    1.0930 H   0  0  0  0  0  0  0  0  0  0  0  0
   -0.2972   -2.4731    1.6673 H   0  0  0  0  0  0  0  0  0  0  0  0
    2.2342    0.7110    1.6338 H   0  0  0  0  0  0  0  0  0  0  0  0
    3.6445    0.2340   -0.5292 H   0  0  0  0  0  0  0  0  0  0  0  0
    2.6272   -1.2661   -0.7931 H   0  0  0  0  0  0  0  0  0  0  0  0
    1.7409    1.7754   -0.5620 H   0  0  0  0  0  0  0  0  0  0  0  0
   -0.1060    1.2341    0.8919 H   0  0  0  0  0  0  0  0  0  0  0  0
  1  2  1  0
  2  3  1  0
  3  4  1  0
  4  5  2  0
  5  6  1  0
  6  7  1  0
  7  8  1  0
  8  9  1  0
  9  2  1  0
  9  5  1  0
  8  6  1  0
  1 10  1  0
  1 11  1  0
  1 12  1  0
  2 13  1  0
  3 14  1  0
  3 15  1  0
  4 16  1  0
  6 17  1  0
  7 18  1  0
  7 19  1  0
  8 20  1  0
  9 21  1  0
M  END
