
     RDKit          3D

 23 24  0  0  0  0  0  0  0  0999 V2000
   -2.7558    0.1026    0.7382 C   0  0  0  0  0  0  0  0  0  0  0  0
   -1.5064    0.8391    0.3381 C   0  0  0  0  0  0  0  0  0  0  0  0
   -1.1219    0.9990   -1.0808 C   0  0  0  0  0  0  0  0  0  0  0  0
   -0.3502    0.0390   -0.2404 C   0  0  0  0  0  0  0  0  0  0  0  0
   -0.6239   -1.4323   -0.5389 C   0  0  0  0  0  0  0  0  0  0  0  0
    0.9759    0.3936    0.3311 C   0  0  0  0  0  0  0  0  0  0  0  0
    2.1305   -0.3711   -0.2130 C   0  0  0  0  0  0  0  0  0  0  0  0
    3.4713    0.0059    0.3826 C   0  0  0  0  0  0  0  0  0  0  0  0
    3.1290    0.2476   -0.9425 O   0  0  0  0  0  0  0  0  0  0  0  0
   -3.5492    0.8819    0.9151 H   0  0  0  0  0  0  0  0  0  0  0  0
   -3.1486   -0.5716   -0.0225 H   0  0  0  0  0  0  0  0  0  0  0  0
   -2.6486   -0.4370    1.7064 H   0  0  0  0  0  0  0  0  0  0  0  0
   -1.2760    1.7109    0.9941 H   0  0  0  0  0  0  0  0  0  0  0  0
   -0.6592    1.9618   -1.4087 H   0  0  0  0  0  0  0  0  0  0  0  0
   -1.8345    0.6012   -1.8198 H   0  0  0  0  0  0  0  0  0  0  0  0
    0.1625   -1.8033   -1.2457 H   0  0  0  0  0  0  0  0  0  0  0  0
   -0.6649   -2.0335    0.3903 H   0  0  0  0  0  0  0  0  0  0  0  0
   -1.5806   -1.5328   -1.0758 H   0  0  0  0  0  0  0  0  0  0  0  0
    0.9551    0.2502    1.4392 H   0  0  0  0  0  0  0  0  0  0  0  0
    1.1644    1.4802    0.1232 H   0  0  0  0  0  0  0  0  0  0  0  0
    1.9977   -1.4651   -0.3950 H   0  0  0  0  0  0  0  0  0  0  0  0
    3.5385    0.9304    1.0000 H   0  0  0  0  0  0  0  0  0  0  0  0
    4.1950   -0.7968    0.6248 H   0  0  0  0  0  0  0  0  0  0  0  0
  1  2  1  0
  2  3  1  0
  3  4  1  0
  4  5  1  0
  4  6  1  0
  6  7  1  0
  7  8  1  0
  8  9  1  0
  4  2  1  0
  9  7  1  0
  1 10  1  0
  1 11  1  0
  1 12  1  0
  2 13  1  0
  3 14  1  0
  3 15  1  0
  5 16  1  0
  5 17  1  0
  5 18  1  0
  6 19  1  0
  6 20  1  0
  7 21  1  0
  8 22  1  0
  8 23  1  0
M  END
