
     RDKit          3D

 18 18  0  0  0  0  0  0  0  0999 V2000
   -1.5634   -0.9116    0.5491 C   0  0  0  0  0  0  0  0  0  0  0  0
   -0.4678   -0.3362   -0.2755 C   0  0  0  0  0  0  0  0  0  0  0  0
    0.9208   -0.7763    0.2009 C   0  0  0  0  0  0  0  0  0  0  0  0
    1.2414   -2.0425   -0.2217 O   0  0  0  0  0  0  0  0  0  0  0  0
    1.7661    0.2805   -0.4758 C   0  0  0  0  0  0  0  0  0  0  0  0
    1.0412    1.3792   -0.6280 C   0  0  0  0  0  0  0  0  0  0  0  0
   -0.3251    1.1798   -0.0855 C   0  0  0  0  0  0  0  0  0  0  0  0
   -1.2968    1.8816   -0.7522 O   0  0  0  0  0  0  0  0  0  0  0  0
   -2.2981   -0.1287    0.8996 H   0  0  0  0  0  0  0  0  0  0  0  0
   -1.2349   -1.4783    1.4259 H   0  0  0  0  0  0  0  0  0  0  0  0
   -2.1818   -1.5680   -0.1310 H   0  0  0  0  0  0  0  0  0  0  0  0
   -0.5104   -0.5896   -1.3489 H   0  0  0  0  0  0  0  0  0  0  0  0
    0.9598   -0.6212    1.2858 H   0  0  0  0  0  0  0  0  0  0  0  0
    1.8180   -2.4920    0.4724 H   0  0  0  0  0  0  0  0  0  0  0  0
    2.7997    0.0949   -0.7633 H   0  0  0  0  0  0  0  0  0  0  0  0
    1.4133    2.2776   -1.0842 H   0  0  0  0  0  0  0  0  0  0  0  0
   -0.3599    1.3364    1.0210 H   0  0  0  0  0  0  0  0  0  0  0  0
   -1.7222    2.5144   -0.0885 H   0  0  0  0  0  0  0  0  0  0  0  0
  1  2  1  0
  2  3  1  0
  3  4  1  0
  3  5  1  0
  5  6  2  0
  6  7  1  0
  7  8  1  0
  7  2  1  0
  1  9  1  0
  1 10  1  0
  1 11  1  0
  2 12  1  0
  3 13  1  0
  4 14  1  0
  5 15  1  0
  6 16  1  0
  7 17  1  0
  8 18  1  0
M  END
