
     RDKit          3D

 21 22  0  0  0  0  0  0  0  0999 V2000
    1.8054    0.2518    1.0882 C   0  0  0  0  0  0  0  0  0  0  0  0
    1.1196    0.5345   -0.2230 C   0  0  0  0  0  0  0  0  0  0  0  0
    0.4397   -0.5623   -0.9700 C   0  0  0  0  0  0  0  0  0  0  0  0
    0.3290   -1.8681   -0.2201 C   0  0  0  0  0  0  0  0  0  0  0  0
   -0.7178   -1.5987    0.7851 C   0  0  0  0  0  0  0  0  0  0  0  0
   -1.0963   -0.3314    0.7584 C   0  0  0  0  0  0  0  0  0  0  0  0
   -0.3744    0.4476   -0.2566 C   0  0  0  0  0  0  0  0  0  0  0  0
   -1.0781    1.5518   -1.0038 C   0  0  0  0  0  0  0  0  0  0  0  0
   -2.4612    1.3661   -0.9676 O   0  0  0  0  0  0  0  0  0  0  0  0
    2.1084    1.2557    1.5057 H   0  0  0  0  0  0  0  0  0  0  0  0
    1.1207   -0.2259    1.8172 H   0  0  0  0  0  0  0  0  0  0  0  0
    2.7218   -0.3299    0.8947 H   0  0  0  0  0  0  0  0  0  0  0  0
    1.6008    1.3174   -0.8226 H   0  0  0  0  0  0  0  0  0  0  0  0
    0.3832   -0.5483   -2.0627 H   0  0  0  0  0  0  0  0  0  0  0  0
    1.2946   -2.0132    0.3362 H   0  0  0  0  0  0  0  0  0  0  0  0
    0.1318   -2.7243   -0.8639 H   0  0  0  0  0  0  0  0  0  0  0  0
   -1.1102   -2.3797    1.4560 H   0  0  0  0  0  0  0  0  0  0  0  0
   -1.8546    0.0813    1.4140 H   0  0  0  0  0  0  0  0  0  0  0  0
   -0.7340    1.6322   -2.0672 H   0  0  0  0  0  0  0  0  0  0  0  0
   -0.8803    2.5503   -0.5524 H   0  0  0  0  0  0  0  0  0  0  0  0
   -2.7481    1.5932   -0.0458 H   0  0  0  0  0  0  0  0  0  0  0  0
  1  2  1  0
  2  3  1  0
  3  4  1  0
  4  5  1  0
  5  6  2  0
  6  7  1  0
  7  8  1  0
  8  9  1  0
  7  2  1  0
  7  3  1  0
  1 10  1  0
  1 11  1  0
  1 12  1  0
  2 13  1  0
  3 14  1  0
  4 15  1  0
  4 16  1  0
  5 17  1  0
  6 18  1  0
  8 19  1  0
  8 20  1  0
  9 21  1  0
M  END
