
     RDKit          3D

 25 26  0  0  0  0  0  0  0  0999 V2000
   -2.7055   -0.1057    0.4329 C   0  0  0  0  0  0  0  0  0  0  0  0
   -1.3333    0.5305    0.2956 C   0  0  0  0  0  0  0  0  0  0  0  0
   -0.4404   -0.0522    1.3552 C   0  0  0  0  0  0  0  0  0  0  0  0
    0.9294   -0.1673    0.7721 C   0  0  0  0  0  0  0  0  0  0  0  0
    1.8494    0.9608    1.1629 C   0  0  0  0  0  0  0  0  0  0  0  0
    0.7212   -0.2743   -0.7110 C   0  0  0  0  0  0  0  0  0  0  0  0
    1.2349   -1.5220   -1.4158 C   0  0  0  0  0  0  0  0  0  0  0  0
    0.4622    0.9424   -1.5155 C   0  0  0  0  0  0  0  0  0  0  0  0
   -0.6742    0.1564   -1.0043 C   0  0  0  0  0  0  0  0  0  0  0  0
   -2.7249   -0.9082    1.1952 H   0  0  0  0  0  0  0  0  0  0  0  0
   -3.4770    0.6498    0.7343 H   0  0  0  0  0  0  0  0  0  0  0  0
   -3.0012   -0.4909   -0.5735 H   0  0  0  0  0  0  0  0  0  0  0  0
   -1.4708    1.6178    0.3715 H   0  0  0  0  0  0  0  0  0  0  0  0
   -0.7994   -1.0931    1.5714 H   0  0  0  0  0  0  0  0  0  0  0  0
   -0.4765    0.5029    2.3018 H   0  0  0  0  0  0  0  0  0  0  0  0
    1.4153   -1.1107    1.1428 H   0  0  0  0  0  0  0  0  0  0  0  0
    1.9501    0.9299    2.2661 H   0  0  0  0  0  0  0  0  0  0  0  0
    2.8589    0.7018    0.7451 H   0  0  0  0  0  0  0  0  0  0  0  0
    1.5209    1.9432    0.8139 H   0  0  0  0  0  0  0  0  0  0  0  0
    0.3989   -2.1815   -1.7377 H   0  0  0  0  0  0  0  0  0  0  0  0
    1.8157   -2.1080   -0.6591 H   0  0  0  0  0  0  0  0  0  0  0  0
    1.9126   -1.2765   -2.2580 H   0  0  0  0  0  0  0  0  0  0  0  0
    0.6103    1.9513   -1.0548 H   0  0  0  0  0  0  0  0  0  0  0  0
    0.7127    0.9039   -2.5897 H   0  0  0  0  0  0  0  0  0  0  0  0
   -1.2892   -0.5004   -1.6416 H   0  0  0  0  0  0  0  0  0  0  0  0
  1  2  1  0
  2  3  1  0
  3  4  1  0
  4  5  1  0
  4  6  1  0
  6  7  1  0
  6  8  1  0
  8  9  1  0
  9  2  1  0
  9  6  1  0
  1 10  1  0
  1 11  1  0
  1 12  1  0
  2 13  1  0
  3 14  1  0
  3 15  1  0
  4 16  1  0
  5 17  1  0
  5 18  1  0
  5 19  1  0
  7 20  1  0
  7 21  1  0
  7 22  1  0
  8 23  1  0
  8 24  1  0
  9 25  1  0
M  END
