
     RDKit          3D

 21 22  0  0  0  0  0  0  0  0999 V2000
   -1.7778    1.4277    0.4098 C   0  0  0  0  0  0  0  0  0  0  0  0
   -1.7551   -0.0260   -0.0507 C   0  0  0  0  0  0  0  0  0  0  0  0
   -1.2268   -0.2819   -1.4806 C   0  0  0  0  0  0  0  0  0  0  0  0
   -0.4192   -0.5405   -0.3546 C   0  0  0  0  0  0  0  0  0  0  0  0
    0.1799   -1.7658    0.1526 C   0  0  0  0  0  0  0  0  0  0  0  0
    0.9116   -0.9724    1.0707 O   0  0  0  0  0  0  0  0  0  0  0  0
    0.7628    0.1197    0.1793 C   0  0  0  0  0  0  0  0  0  0  0  0
    1.9953    0.2171   -0.6707 C   0  0  0  0  0  0  0  0  0  0  0  0
    3.0746    0.4194    0.2060 O   0  0  0  0  0  0  0  0  0  0  0  0
   -2.8110    1.7886    0.5255 H   0  0  0  0  0  0  0  0  0  0  0  0
   -1.3226    1.4941    1.4417 H   0  0  0  0  0  0  0  0  0  0  0  0
   -1.1958    2.0438   -0.2866 H   0  0  0  0  0  0  0  0  0  0  0  0
   -2.4985   -0.7222    0.3498 H   0  0  0  0  0  0  0  0  0  0  0  0
   -1.7282   -1.1185   -2.0306 H   0  0  0  0  0  0  0  0  0  0  0  0
   -1.1674    0.6351   -2.0944 H   0  0  0  0  0  0  0  0  0  0  0  0
   -0.5143   -2.4557    0.6535 H   0  0  0  0  0  0  0  0  0  0  0  0
    0.8960   -2.2371   -0.5616 H   0  0  0  0  0  0  0  0  0  0  0  0
    0.5538    1.0811    0.6989 H   0  0  0  0  0  0  0  0  0  0  0  0
    2.1876   -0.7442   -1.1829 H   0  0  0  0  0  0  0  0  0  0  0  0
    1.9373    1.0741   -1.3408 H   0  0  0  0  0  0  0  0  0  0  0  0
    3.9175    0.5635   -0.2476 H   0  0  0  0  0  0  0  0  0  0  0  0
  1  2  1  0
  2  3  1  0
  3  4  1  0
  4  5  1  0
  5  6  1  0
  6  7  1  0
  7  8  1  0
  8  9  1  0
  4  2  1  0
  7  4  1  0
  1 10  1  0
  1 11  1  0
  1 12  1  0
  2 13  1  0
  3 14  1  0
  3 15  1  0
  5 16  1  0
  5 17  1  0
  7 18  1  0
  8 19  1  0
  8 20  1  0
  9 21  1  0
M  END
