
     RDKit          3D

 21 22  0  0  0  0  0  0  0  0999 V2000
    2.4248   -0.5220    0.3917 C   0  0  0  0  0  0  0  0  0  0  0  0
    1.1359   -0.3511   -0.3275 C   0  0  0  0  0  0  0  0  0  0  0  0
    0.8164    1.0974   -0.5823 C   0  0  0  0  0  0  0  0  0  0  0  0
   -0.2597    1.6731   -0.0806 C   0  0  0  0  0  0  0  0  0  0  0  0
   -1.1858    0.9294    0.7828 C   0  0  0  0  0  0  0  0  0  0  0  0
   -2.1574    0.0934   -0.0462 C   0  0  0  0  0  0  0  0  0  0  0  0
   -1.2163   -0.9723   -0.5908 C   0  0  0  0  0  0  0  0  0  0  0  0
   -0.0554   -0.9277    0.3958 C   0  0  0  0  0  0  0  0  0  0  0  0
   -0.4691   -0.0997    1.4313 O   0  0  0  0  0  0  0  0  0  0  0  0
    2.3916   -0.3906    1.4713 H   0  0  0  0  0  0  0  0  0  0  0  0
    3.1468    0.2392   -0.0207 H   0  0  0  0  0  0  0  0  0  0  0  0
    2.8658   -1.5079    0.0734 H   0  0  0  0  0  0  0  0  0  0  0  0
    1.1967   -0.8327   -1.3273 H   0  0  0  0  0  0  0  0  0  0  0  0
    1.5244    1.6311   -1.2008 H   0  0  0  0  0  0  0  0  0  0  0  0
   -0.4566    2.7120   -0.3139 H   0  0  0  0  0  0  0  0  0  0  0  0
   -1.7659    1.5352    1.4782 H   0  0  0  0  0  0  0  0  0  0  0  0
   -2.8761   -0.3861    0.6207 H   0  0  0  0  0  0  0  0  0  0  0  0
   -2.6259    0.6854   -0.8439 H   0  0  0  0  0  0  0  0  0  0  0  0
   -0.8925   -0.7068   -1.6168 H   0  0  0  0  0  0  0  0  0  0  0  0
   -1.6841   -1.9729   -0.5213 H   0  0  0  0  0  0  0  0  0  0  0  0
    0.1425   -1.9266    0.8270 H   0  0  0  0  0  0  0  0  0  0  0  0
  1  2  1  0
  2  3  1  0
  3  4  2  0
  4  5  1  0
  5  6  1  0
  6  7  1  0
  7  8  1  0
  8  9  1  0
  8  2  1  0
  9  5  1  0
  1 10  1  0
  1 11  1  0
  1 12  1  0
  2 13  1  0
  3 14  1  0
  4 15  1  0
  5 16  1  0
  6 17  1  0
  6 18  1  0
  7 19  1  0
  7 20  1  0
  8 21  1  0
M  END
