
     RDKit          3D

 21 22  0  0  0  0  0  0  0  0999 V2000
    2.2433    0.6292   -0.6599 C   0  0  0  0  0  0  0  0  0  0  0  0
    1.3640    0.2852    0.5038 C   0  0  0  0  0  0  0  0  0  0  0  0
    1.0602   -1.1919    0.7840 C   0  0  0  0  0  0  0  0  0  0  0  0
    0.0222   -0.2731    0.3499 C   0  0  0  0  0  0  0  0  0  0  0  0
   -1.1229    0.0713    1.2583 C   0  0  0  0  0  0  0  0  0  0  0  0
   -1.9152    1.0112    0.3800 C   0  0  0  0  0  0  0  0  0  0  0  0
   -1.6410    0.7432   -0.8914 C   0  0  0  0  0  0  0  0  0  0  0  0
   -0.6643   -0.3724   -0.9925 C   0  0  0  0  0  0  0  0  0  0  0  0
   -1.3521   -1.6081   -0.9895 O   0  0  0  0  0  0  0  0  0  0  0  0
    3.2487    0.9117   -0.3151 H   0  0  0  0  0  0  0  0  0  0  0  0
    1.7893    1.5409   -1.1461 H   0  0  0  0  0  0  0  0  0  0  0  0
    2.2699   -0.1605   -1.4134 H   0  0  0  0  0  0  0  0  0  0  0  0
    1.5646    0.8685    1.4158 H   0  0  0  0  0  0  0  0  0  0  0  0
    1.5666   -1.8933    0.1085 H   0  0  0  0  0  0  0  0  0  0  0  0
    1.0392   -1.5270    1.8398 H   0  0  0  0  0  0  0  0  0  0  0  0
   -0.7904    0.5434    2.1797 H   0  0  0  0  0  0  0  0  0  0  0  0
   -1.7099   -0.8595    1.4464 H   0  0  0  0  0  0  0  0  0  0  0  0
   -2.5838    1.7625    0.7853 H   0  0  0  0  0  0  0  0  0  0  0  0
   -2.0687    1.2639   -1.7326 H   0  0  0  0  0  0  0  0  0  0  0  0
    0.0144   -0.2922   -1.8433 H   0  0  0  0  0  0  0  0  0  0  0  0
   -2.3343   -1.4529   -1.0679 H   0  0  0  0  0  0  0  0  0  0  0  0
  1  2  1  0
  2  3  1  0
  3  4  1  0
  4  5  1  0
  5  6  1  0
  6  7  2  0
  7  8  1  0
  8  9  1  0
  4  2  1  0
  8  4  1  0
  1 10  1  0
  1 11  1  0
  1 12  1  0
  2 13  1  0
  3 14  1  0
  3 15  1  0
  5 16  1  0
  5 17  1  0
  6 18  1  0
  7 19  1  0
  8 20  1  0
  9 21  1  0
M  END
