
     RDKit          3D

 17 19  0  0  0  0  0  0  0  0999 V2000
    2.0144    0.2549    0.5322 C   0  0  0  0  0  0  0  0  0  0  0  0
    1.1440   -0.1350   -0.6017 C   0  0  0  0  0  0  0  0  0  0  0  0
   -0.1200    0.4802   -0.9629 C   0  0  0  0  0  0  0  0  0  0  0  0
   -1.1136    1.0324    0.0062 C   0  0  0  0  0  0  0  0  0  0  0  0
   -0.7078    0.5848    1.2857 O   0  0  0  0  0  0  0  0  0  0  0  0
   -0.9904   -0.7001    0.7965 C   0  0  0  0  0  0  0  0  0  0  0  0
   -2.1340   -0.0350    0.0790 C   0  0  0  0  0  0  0  0  0  0  0  0
   -3.2473   -0.3503   -0.2061 O   0  0  0  0  0  0  0  0  0  0  0  0
   -0.0456   -0.9614   -0.3318 C   0  0  0  0  0  0  0  0  0  0  0  0
    2.3632   -0.6659    1.0861 H   0  0  0  0  0  0  0  0  0  0  0  0
    2.9273    0.7739    0.1164 H   0  0  0  0  0  0  0  0  0  0  0  0
    1.5990    0.9257    1.2720 H   0  0  0  0  0  0  0  0  0  0  0  0
    1.7505   -0.5092   -1.4818 H   0  0  0  0  0  0  0  0  0  0  0  0
   -0.4537    0.4978   -2.0193 H   0  0  0  0  0  0  0  0  0  0  0  0
   -1.4293    2.0533   -0.0712 H   0  0  0  0  0  0  0  0  0  0  0  0
   -1.2276   -1.4688    1.4969 H   0  0  0  0  0  0  0  0  0  0  0  0
   -0.3290   -1.7773   -0.9962 H   0  0  0  0  0  0  0  0  0  0  0  0
  1  2  1  0
  2  3  1  0
  3  4  1  0
  4  5  1  0
  5  6  1  0
  6  7  1  0
  7  8  2  0
  6  9  1  0
  9  2  1  0
  9  3  1  0
  7  4  1  0
  1 10  1  0
  1 11  1  0
  1 12  1  0
  2 13  1  0
  3 14  1  0
  4 15  1  0
  6 16  1  0
  9 17  1  0
M  END
