
     RDKit          3D

 23 24  0  0  0  0  0  0  0  0999 V2000
    2.1464    0.5791    0.3059 C   0  0  0  0  0  0  0  0  0  0  0  0
    0.8843   -0.2675    0.4686 C   0  0  0  0  0  0  0  0  0  0  0  0
    0.7463   -1.1501   -0.7797 C   0  0  0  0  0  0  0  0  0  0  0  0
   -0.7067   -0.7755   -0.8056 C   0  0  0  0  0  0  0  0  0  0  0  0
   -1.5117   -1.6148    0.1665 C   0  0  0  0  0  0  0  0  0  0  0  0
   -2.2155   -0.7110    0.9312 O   0  0  0  0  0  0  0  0  0  0  0  0
   -1.4978    0.4475    1.0331 C   0  0  0  0  0  0  0  0  0  0  0  0
   -0.3731    0.4197    0.0549 C   0  0  0  0  0  0  0  0  0  0  0  0
   -0.1207    1.7022   -0.6483 C   0  0  0  0  0  0  0  0  0  0  0  0
    2.1543    0.9979   -0.7182 H   0  0  0  0  0  0  0  0  0  0  0  0
    2.1798    1.3330    1.0979 H   0  0  0  0  0  0  0  0  0  0  0  0
    2.9958   -0.1455    0.4250 H   0  0  0  0  0  0  0  0  0  0  0  0
    0.8563   -0.8546    1.3952 H   0  0  0  0  0  0  0  0  0  0  0  0
    1.3290   -0.7957   -1.6477 H   0  0  0  0  0  0  0  0  0  0  0  0
    0.8895   -2.2352   -0.5646 H   0  0  0  0  0  0  0  0  0  0  0  0
   -1.1630   -0.5779   -1.7725 H   0  0  0  0  0  0  0  0  0  0  0  0
   -0.8165   -2.1579    0.8687 H   0  0  0  0  0  0  0  0  0  0  0  0
   -2.1483   -2.3541   -0.3079 H   0  0  0  0  0  0  0  0  0  0  0  0
   -1.1889    0.7123    2.0679 H   0  0  0  0  0  0  0  0  0  0  0  0
   -2.1819    1.2914    0.7209 H   0  0  0  0  0  0  0  0  0  0  0  0
   -1.1055    2.2468   -0.7228 H   0  0  0  0  0  0  0  0  0  0  0  0
    0.4867    2.3519    0.0483 H   0  0  0  0  0  0  0  0  0  0  0  0
    0.3610    1.5579   -1.6169 H   0  0  0  0  0  0  0  0  0  0  0  0
  1  2  1  0
  2  3  1  0
  3  4  1  0
  4  5  1  0
  5  6  1  0
  6  7  1  0
  7  8  1  0
  8  9  1  0
  8  2  1  0
  8  4  1  0
  1 10  1  0
  1 11  1  0
  1 12  1  0
  2 13  1  0
  3 14  1  0
  3 15  1  0
  4 16  1  0
  5 17  1  0
  5 18  1  0
  7 19  1  0
  7 20  1  0
  9 21  1  0
  9 22  1  0
  9 23  1  0
M  END
