
     RDKit          3D

 25 26  0  0  0  0  0  0  0  0999 V2000
   -2.3137    1.7004    0.3112 C   0  0  0  0  0  0  0  0  0  0  0  0
   -1.6150    0.4051    0.6602 C   0  0  0  0  0  0  0  0  0  0  0  0
   -2.2763   -0.8274    0.0473 C   0  0  0  0  0  0  0  0  0  0  0  0
   -1.2140   -0.7682   -1.0415 C   0  0  0  0  0  0  0  0  0  0  0  0
   -0.3826    0.1813   -0.1802 C   0  0  0  0  0  0  0  0  0  0  0  0
    0.6875   -0.5307    0.6134 C   0  0  0  0  0  0  0  0  0  0  0  0
    1.9342   -0.7727   -0.1912 C   0  0  0  0  0  0  0  0  0  0  0  0
    2.7069    0.3408   -0.7757 C   0  0  0  0  0  0  0  0  0  0  0  0
    3.2323   -0.3004    0.4982 C   0  0  0  0  0  0  0  0  0  0  0  0
   -3.1980    1.5402   -0.3332 H   0  0  0  0  0  0  0  0  0  0  0  0
   -1.5792    2.3516   -0.2204 H   0  0  0  0  0  0  0  0  0  0  0  0
   -2.5744    2.2345    1.2581 H   0  0  0  0  0  0  0  0  0  0  0  0
   -1.5013    0.2390    1.7434 H   0  0  0  0  0  0  0  0  0  0  0  0
   -2.1703   -1.7506    0.6409 H   0  0  0  0  0  0  0  0  0  0  0  0
   -3.3064   -0.6798   -0.2988 H   0  0  0  0  0  0  0  0  0  0  0  0
   -0.7280   -1.7319   -1.2376 H   0  0  0  0  0  0  0  0  0  0  0  0
   -1.6407   -0.3017   -1.9438 H   0  0  0  0  0  0  0  0  0  0  0  0
   -0.0236    1.0563   -0.7413 H   0  0  0  0  0  0  0  0  0  0  0  0
    0.2665   -1.5157    0.9221 H   0  0  0  0  0  0  0  0  0  0  0  0
    0.8874    0.0207    1.5549 H   0  0  0  0  0  0  0  0  0  0  0  0
    1.9735   -1.7534   -0.7065 H   0  0  0  0  0  0  0  0  0  0  0  0
    3.3315    0.1367   -1.6602 H   0  0  0  0  0  0  0  0  0  0  0  0
    2.2898    1.3619   -0.7333 H   0  0  0  0  0  0  0  0  0  0  0  0
    4.0957   -0.9876    0.4301 H   0  0  0  0  0  0  0  0  0  0  0  0
    3.1181    0.3515    1.3838 H   0  0  0  0  0  0  0  0  0  0  0  0
  1  2  1  0
  2  3  1  0
  3  4  1  0
  4  5  1  0
  5  6  1  0
  6  7  1  0
  7  8  1  0
  8  9  1  0
  5  2  1  0
  9  7  1  0
  1 10  1  0
  1 11  1  0
  1 12  1  0
  2 13  1  0
  3 14  1  0
  3 15  1  0
  4 16  1  0
  4 17  1  0
  5 18  1  0
  6 19  1  0
  6 20  1  0
  7 21  1  0
  8 22  1  0
  8 23  1  0
  9 24  1  0
  9 25  1  0
M  END
