
     RDKit          3D

 17 18  0  0  0  0  0  0  0  0999 V2000
   -2.2246   -0.6339    0.2680 C   0  0  0  0  0  0  0  0  0  0  0  0
   -0.8099   -0.4517   -0.1813 C   0  0  0  0  0  0  0  0  0  0  0  0
   -0.2065    0.8498   -0.4546 C   0  0  0  0  0  0  0  0  0  0  0  0
    1.1027    0.8806   -1.1221 C   0  0  0  0  0  0  0  0  0  0  0  0
    2.0387    0.2845   -0.3825 C   0  0  0  0  0  0  0  0  0  0  0  0
    1.4952   -0.2283    0.8789 C   0  0  0  0  0  0  0  0  0  0  0  0
    0.0722    0.2485    0.8660 C   0  0  0  0  0  0  0  0  0  0  0  0
   -2.9030    0.1676   -0.0145 H   0  0  0  0  0  0  0  0  0  0  0  0
   -2.6569   -1.5876   -0.1454 H   0  0  0  0  0  0  0  0  0  0  0  0
   -2.2136   -0.8060    1.3838 H   0  0  0  0  0  0  0  0  0  0  0  0
   -0.3706   -1.3231   -0.7178 H   0  0  0  0  0  0  0  0  0  0  0  0
   -0.8721    1.7402   -0.5218 H   0  0  0  0  0  0  0  0  0  0  0  0
    1.3334    1.3170   -2.0881 H   0  0  0  0  0  0  0  0  0  0  0  0
    3.1020    0.1751   -0.6601 H   0  0  0  0  0  0  0  0  0  0  0  0
    2.0574    0.0275    1.7748 H   0  0  0  0  0  0  0  0  0  0  0  0
    1.4548   -1.3519    0.8400 H   0  0  0  0  0  0  0  0  0  0  0  0
   -0.3990    0.6919    1.7384 H   0  0  0  0  0  0  0  0  0  0  0  0
  1  2  1  0
  2  3  1  0
  3  4  1  0
  4  5  2  0
  5  6  1  0
  6  7  1  0
  7  2  1  0
  7  3  1  0
  1  8  1  0
  1  9  1  0
  1 10  1  0
  2 11  1  0
  3 12  1  0
  4 13  1  0
  5 14  1  0
  6 15  1  0
  6 16  1  0
  7 17  1  0
M  END
