
     RDKit          3D

 21 22  0  0  0  0  0  0  0  0999 V2000
    1.5642   -0.7442   -1.0259 C   0  0  0  0  0  0  0  0  0  0  0  0
    0.6903   -0.5598    0.1841 C   0  0  0  0  0  0  0  0  0  0  0  0
    1.3981    0.1206    1.3248 C   0  0  0  0  0  0  0  0  0  0  0  0
    0.9167    1.4053    1.3704 O   0  0  0  0  0  0  0  0  0  0  0  0
   -0.3658    1.4192    0.8703 C   0  0  0  0  0  0  0  0  0  0  0  0
   -0.4638    1.6258   -0.6223 C   0  0  0  0  0  0  0  0  0  0  0  0
   -0.5240    0.2670   -0.0655 C   0  0  0  0  0  0  0  0  0  0  0  0
   -1.8570   -0.4599   -0.0958 C   0  0  0  0  0  0  0  0  0  0  0  0
   -1.7903   -1.4121   -1.1296 O   0  0  0  0  0  0  0  0  0  0  0  0
    0.9973   -1.3365   -1.7610 H   0  0  0  0  0  0  0  0  0  0  0  0
    1.9715    0.1861   -1.4316 H   0  0  0  0  0  0  0  0  0  0  0  0
    2.4387   -1.3623   -0.6949 H   0  0  0  0  0  0  0  0  0  0  0  0
    0.3813   -1.5626    0.5340 H   0  0  0  0  0  0  0  0  0  0  0  0
    2.4939    0.0559    1.1377 H   0  0  0  0  0  0  0  0  0  0  0  0
    1.2033   -0.3844    2.3030 H   0  0  0  0  0  0  0  0  0  0  0  0
   -1.2210    1.6734    1.5188 H   0  0  0  0  0  0  0  0  0  0  0  0
   -1.4325    2.0602   -0.9490 H   0  0  0  0  0  0  0  0  0  0  0  0
    0.4014    2.0445   -1.1428 H   0  0  0  0  0  0  0  0  0  0  0  0
   -2.0530   -1.0124    0.8427 H   0  0  0  0  0  0  0  0  0  0  0  0
   -2.6295    0.2741   -0.3501 H   0  0  0  0  0  0  0  0  0  0  0  0
   -2.1198   -2.2980   -0.8174 H   0  0  0  0  0  0  0  0  0  0  0  0
  1  2  1  0
  2  3  1  0
  3  4  1  0
  4  5  1  0
  5  6  1  0
  6  7  1  0
  7  8  1  0
  8  9  1  0
  7  2  1  0
  7  5  1  0
  1 10  1  0
  1 11  1  0
  1 12  1  0
  2 13  1  0
  3 14  1  0
  3 15  1  0
  5 16  1  0
  6 17  1  0
  6 18  1  0
  8 19  1  0
  8 20  1  0
  9 21  1  0
M  END
