
     RDKit          3D

 23 24  0  0  0  0  0  0  0  0999 V2000
    1.7580   -0.2899   -1.0655 C   0  0  0  0  0  0  0  0  0  0  0  0
    1.5513   -0.0169    0.4058 C   0  0  0  0  0  0  0  0  0  0  0  0
    0.3360   -0.5843    1.0833 C   0  0  0  0  0  0  0  0  0  0  0  0
   -0.5211   -1.4539    0.2426 C   0  0  0  0  0  0  0  0  0  0  0  0
   -1.7797   -0.7391   -0.1071 C   0  0  0  0  0  0  0  0  0  0  0  0
   -1.5877    0.5764   -0.7638 C   0  0  0  0  0  0  0  0  0  0  0  0
   -0.4486    1.3857   -0.2797 C   0  0  0  0  0  0  0  0  0  0  0  0
    0.3512    0.8344    0.8213 C   0  0  0  0  0  0  0  0  0  0  0  0
    0.6664    1.6986    1.8947 O   0  0  0  0  0  0  0  0  0  0  0  0
    2.4173    0.4814   -1.5277 H   0  0  0  0  0  0  0  0  0  0  0  0
    0.8234   -0.2841   -1.6481 H   0  0  0  0  0  0  0  0  0  0  0  0
    2.3064   -1.2639   -1.1281 H   0  0  0  0  0  0  0  0  0  0  0  0
    2.4736    0.0292    0.9846 H   0  0  0  0  0  0  0  0  0  0  0  0
    0.4893   -0.9057    2.1555 H   0  0  0  0  0  0  0  0  0  0  0  0
   -0.8164   -2.3732    0.8277 H   0  0  0  0  0  0  0  0  0  0  0  0
   -0.0056   -1.8675   -0.6645 H   0  0  0  0  0  0  0  0  0  0  0  0
   -2.3507   -1.4038   -0.8182 H   0  0  0  0  0  0  0  0  0  0  0  0
   -2.4179   -0.7068    0.8118 H   0  0  0  0  0  0  0  0  0  0  0  0
   -1.4703    0.3854   -1.8710 H   0  0  0  0  0  0  0  0  0  0  0  0
   -2.5714    1.1292   -0.6994 H   0  0  0  0  0  0  0  0  0  0  0  0
   -0.8545    2.3937    0.0323 H   0  0  0  0  0  0  0  0  0  0  0  0
    0.2497    1.6414   -1.1310 H   0  0  0  0  0  0  0  0  0  0  0  0
    1.4014    1.3335    2.4445 H   0  0  0  0  0  0  0  0  0  0  0  0
  1  2  1  0
  2  3  1  0
  3  4  1  0
  4  5  1  0
  5  6  1  0
  6  7  1  0
  7  8  1  0
  8  9  1  0
  8  2  1  0
  8  3  1  0
  1 10  1  0
  1 11  1  0
  1 12  1  0
  2 13  1  0
  3 14  1  0
  4 15  1  0
  4 16  1  0
  5 17  1  0
  5 18  1  0
  6 19  1  0
  6 20  1  0
  7 21  1  0
  7 22  1  0
  9 23  1  0
M  END
