
     RDKit          3D

 19 19  0  0  0  0  0  0  0  0999 V2000
    2.1825   -0.5341   -0.1979 C   0  0  0  0  0  0  0  0  0  0  0  0
    0.6703   -0.6983   -0.0622 C   0  0  0  0  0  0  0  0  0  0  0  0
    0.2396    0.1985    1.0853 C   0  0  0  0  0  0  0  0  0  0  0  0
   -1.1256    0.6636    0.6030 C   0  0  0  0  0  0  0  0  0  0  0  0
   -2.1375   -0.3943    0.6604 C   0  0  0  0  0  0  0  0  0  0  0  0
   -1.9948   -1.3958    0.0032 O   0  0  0  0  0  0  0  0  0  0  0  0
   -0.8039    0.9990   -0.8555 C   0  0  0  0  0  0  0  0  0  0  0  0
   -0.0252   -0.1787   -1.2656 C   0  0  0  0  0  0  0  0  0  0  0  0
    0.0440   -0.6502   -2.3830 O   0  0  0  0  0  0  0  0  0  0  0  0
    2.6797   -1.4079    0.2419 H   0  0  0  0  0  0  0  0  0  0  0  0
    2.5450    0.3660    0.3470 H   0  0  0  0  0  0  0  0  0  0  0  0
    2.4766   -0.3860   -1.2561 H   0  0  0  0  0  0  0  0  0  0  0  0
    0.4002   -1.7389    0.1852 H   0  0  0  0  0  0  0  0  0  0  0  0
    0.1883   -0.3253    2.0430 H   0  0  0  0  0  0  0  0  0  0  0  0
    0.9039    1.0774    1.0811 H   0  0  0  0  0  0  0  0  0  0  0  0
   -1.4463    1.5809    1.1532 H   0  0  0  0  0  0  0  0  0  0  0  0
   -3.0017   -0.2574    1.2964 H   0  0  0  0  0  0  0  0  0  0  0  0
   -1.6932    1.2001   -1.4483 H   0  0  0  0  0  0  0  0  0  0  0  0
   -0.1020    1.8813   -0.7948 H   0  0  0  0  0  0  0  0  0  0  0  0
  1  2  1  0
  2  3  1  0
  3  4  1  0
  4  5  1  0
  5  6  2  0
  4  7  1  0
  7  8  1  0
  8  9  2  0
  8  2  1  0
  1 10  1  0
  1 11  1  0
  1 12  1  0
  2 13  1  0
  3 14  1  0
  3 15  1  0
  4 16  1  0
  5 17  1  0
  7 18  1  0
  7 19  1  0
M  END
