
     RDKit          3D

 21 22  0  0  0  0  0  0  0  0999 V2000
    2.4343    0.1254   -0.0455 C   0  0  0  0  0  0  0  0  0  0  0  0
    1.0443    0.3292    0.4473 C   0  0  0  0  0  0  0  0  0  0  0  0
    0.4049   -0.9785    0.9398 C   0  0  0  0  0  0  0  0  0  0  0  0
   -0.5285   -1.3525   -0.1791 C   0  0  0  0  0  0  0  0  0  0  0  0
   -1.8262   -0.5468   -0.1287 C   0  0  0  0  0  0  0  0  0  0  0  0
   -1.2313    0.8675   -0.1751 C   0  0  0  0  0  0  0  0  0  0  0  0
   -2.0045    1.7381   -0.8887 O   0  0  0  0  0  0  0  0  0  0  0  0
    0.1213    0.5985   -0.7470 C   0  0  0  0  0  0  0  0  0  0  0  0
    0.0848   -0.7094   -1.2819 O   0  0  0  0  0  0  0  0  0  0  0  0
    2.7102   -0.9350   -0.0526 H   0  0  0  0  0  0  0  0  0  0  0  0
    2.5349    0.5619   -1.0809 H   0  0  0  0  0  0  0  0  0  0  0  0
    3.1204    0.7495    0.5836 H   0  0  0  0  0  0  0  0  0  0  0  0
    0.9093    1.1475    1.1506 H   0  0  0  0  0  0  0  0  0  0  0  0
    1.1490   -1.7600    1.0923 H   0  0  0  0  0  0  0  0  0  0  0  0
   -0.1448   -0.7136    1.8624 H   0  0  0  0  0  0  0  0  0  0  0  0
   -0.6773   -2.4070   -0.3281 H   0  0  0  0  0  0  0  0  0  0  0  0
   -2.4087   -0.7272    0.7651 H   0  0  0  0  0  0  0  0  0  0  0  0
   -2.3465   -0.6823   -1.0853 H   0  0  0  0  0  0  0  0  0  0  0  0
   -1.1810    1.1791    0.9097 H   0  0  0  0  0  0  0  0  0  0  0  0
   -2.6731    2.1829   -0.3279 H   0  0  0  0  0  0  0  0  0  0  0  0
    0.5086    1.3329   -1.4301 H   0  0  0  0  0  0  0  0  0  0  0  0
  1  2  1  0
  2  3  1  0
  3  4  1  0
  4  5  1  0
  5  6  1  0
  6  7  1  0
  6  8  1  0
  8  9  1  0
  8  2  1  0
  9  4  1  0
  1 10  1  0
  1 11  1  0
  1 12  1  0
  2 13  1  0
  3 14  1  0
  3 15  1  0
  4 16  1  0
  5 17  1  0
  5 18  1  0
  6 19  1  0
  7 20  1  0
  8 21  1  0
M  END
