
     RDKit          3D

 21 21  0  0  0  0  0  0  0  0999 V2000
    2.2989   -0.1042   -0.5692 C   0  0  0  0  0  0  0  0  0  0  0  0
    1.0404    0.0793    0.2848 C   0  0  0  0  0  0  0  0  0  0  0  0
    0.7179   -1.1420    1.0705 C   0  0  0  0  0  0  0  0  0  0  0  0
   -0.7494   -1.1956    1.1449 C   0  0  0  0  0  0  0  0  0  0  0  0
   -1.2624   -0.4345    0.1974 C   0  0  0  0  0  0  0  0  0  0  0  0
   -2.7069   -0.2349   -0.0449 C   0  0  0  0  0  0  0  0  0  0  0  0
   -3.5682   -0.7866    0.6477 O   0  0  0  0  0  0  0  0  0  0  0  0
   -0.1876    0.2178   -0.6166 C   0  0  0  0  0  0  0  0  0  0  0  0
   -0.4989    1.6828   -0.6954 C   0  0  0  0  0  0  0  0  0  0  0  0
    2.3592    0.7328   -1.2793 H   0  0  0  0  0  0  0  0  0  0  0  0
    3.1558   -0.0656    0.1361 H   0  0  0  0  0  0  0  0  0  0  0  0
    2.2389   -1.0967   -1.0558 H   0  0  0  0  0  0  0  0  0  0  0  0
    1.1672    0.9347    0.9540 H   0  0  0  0  0  0  0  0  0  0  0  0
    1.0478   -2.0433    0.4953 H   0  0  0  0  0  0  0  0  0  0  0  0
    1.2131   -1.1949    2.0561 H   0  0  0  0  0  0  0  0  0  0  0  0
   -1.3912   -1.7483    1.8383 H   0  0  0  0  0  0  0  0  0  0  0  0
   -3.0361    0.4090   -0.8469 H   0  0  0  0  0  0  0  0  0  0  0  0
   -0.0494   -0.2451   -1.5925 H   0  0  0  0  0  0  0  0  0  0  0  0
   -1.5646    1.8234   -0.9424 H   0  0  0  0  0  0  0  0  0  0  0  0
   -0.3134    2.1852    0.2735 H   0  0  0  0  0  0  0  0  0  0  0  0
    0.0890    2.2267   -1.4558 H   0  0  0  0  0  0  0  0  0  0  0  0
  1  2  1  0
  2  3  1  0
  3  4  1  0
  4  5  2  0
  5  6  1  0
  6  7  2  0
  5  8  1  0
  8  9  1  0
  8  2  1  0
  1 10  1  0
  1 11  1  0
  1 12  1  0
  2 13  1  0
  3 14  1  0
  3 15  1  0
  4 16  1  0
  6 17  1  0
  8 18  1  0
  9 19  1  0
  9 20  1  0
  9 21  1  0
M  END
