
     RDKit          3D

 21 21  0  0  0  0  0  0  0  0999 V2000
   -0.9429    1.6389   -0.4157 C   0  0  0  0  0  0  0  0  0  0  0  0
    0.1934    0.8631    0.1387 C   0  0  0  0  0  0  0  0  0  0  0  0
    1.4848    1.1647   -0.6072 C   0  0  0  0  0  0  0  0  0  0  0  0
    2.2718    0.0971   -0.4870 C   0  0  0  0  0  0  0  0  0  0  0  0
    1.5847   -0.9597    0.3175 C   0  0  0  0  0  0  0  0  0  0  0  0
    0.1452   -0.6218   -0.0668 C   0  0  0  0  0  0  0  0  0  0  0  0
   -0.8856   -1.3714    0.6710 C   0  0  0  0  0  0  0  0  0  0  0  0
   -2.2350   -0.8899    0.2701 C   0  0  0  0  0  0  0  0  0  0  0  0
   -2.9227   -0.2042    0.9806 O   0  0  0  0  0  0  0  0  0  0  0  0
   -1.6140    2.0594    0.3713 H   0  0  0  0  0  0  0  0  0  0  0  0
   -1.5268    1.0176   -1.1124 H   0  0  0  0  0  0  0  0  0  0  0  0
   -0.5178    2.5601   -0.9036 H   0  0  0  0  0  0  0  0  0  0  0  0
    0.4491    1.1129    1.2028 H   0  0  0  0  0  0  0  0  0  0  0  0
    1.7146    2.0669   -1.1305 H   0  0  0  0  0  0  0  0  0  0  0  0
    3.2628    0.0092   -0.9053 H   0  0  0  0  0  0  0  0  0  0  0  0
    1.8668   -1.9807   -0.0081 H   0  0  0  0  0  0  0  0  0  0  0  0
    1.7564   -0.7805    1.3820 H   0  0  0  0  0  0  0  0  0  0  0  0
    0.0555   -0.8223   -1.1619 H   0  0  0  0  0  0  0  0  0  0  0  0
   -0.7461   -1.3238    1.7738 H   0  0  0  0  0  0  0  0  0  0  0  0
   -0.8158   -2.4415    0.4090 H   0  0  0  0  0  0  0  0  0  0  0  0
   -2.5785   -1.1939   -0.7183 H   0  0  0  0  0  0  0  0  0  0  0  0
  1  2  1  0
  2  3  1  0
  3  4  2  0
  4  5  1  0
  5  6  1  0
  6  7  1  0
  7  8  1  0
  8  9  2  0
  6  2  1  0
  1 10  1  0
  1 11  1  0
  1 12  1  0
  2 13  1  0
  3 14  1  0
  4 15  1  0
  5 16  1  0
  5 17  1  0
  6 18  1  0
  7 19  1  0
  7 20  1  0
  8 21  1  0
M  END
