
     RDKit          3D

 25 26  0  0  0  0  0  0  0  0999 V2000
    0.0245    1.9132   -0.7875 C   0  0  0  0  0  0  0  0  0  0  0  0
    0.0493    0.8531    0.2523 C   0  0  0  0  0  0  0  0  0  0  0  0
   -1.0160   -0.2032    0.1836 C   0  0  0  0  0  0  0  0  0  0  0  0
   -2.3667    0.1332   -0.1923 C   0  0  0  0  0  0  0  0  0  0  0  0
   -0.7255   -1.0365    1.3944 C   0  0  0  0  0  0  0  0  0  0  0  0
    0.8119   -1.1171    1.2668 C   0  0  0  0  0  0  0  0  0  0  0  0
    0.9942   -0.3039    0.0230 C   0  0  0  0  0  0  0  0  0  0  0  0
    2.2920   -0.0840   -0.5532 C   0  0  0  0  0  0  0  0  0  0  0  0
   -0.1201   -0.8837   -0.8616 C   0  0  0  0  0  0  0  0  0  0  0  0
    0.1237    1.5801   -1.8177 H   0  0  0  0  0  0  0  0  0  0  0  0
   -0.9020    2.5158   -0.6637 H   0  0  0  0  0  0  0  0  0  0  0  0
    0.8716    2.6178   -0.5557 H   0  0  0  0  0  0  0  0  0  0  0  0
    0.1825    1.2473    1.2642 H   0  0  0  0  0  0  0  0  0  0  0  0
   -2.3837    1.1159   -0.7189 H   0  0  0  0  0  0  0  0  0  0  0  0
   -2.7575   -0.6002   -0.9477 H   0  0  0  0  0  0  0  0  0  0  0  0
   -3.0282    0.1920    0.6916 H   0  0  0  0  0  0  0  0  0  0  0  0
   -0.9560   -0.4913    2.3152 H   0  0  0  0  0  0  0  0  0  0  0  0
   -1.1684   -2.0353    1.3727 H   0  0  0  0  0  0  0  0  0  0  0  0
    1.3081   -0.7005    2.1487 H   0  0  0  0  0  0  0  0  0  0  0  0
    1.1277   -2.1720    1.1095 H   0  0  0  0  0  0  0  0  0  0  0  0
    2.5664    0.9937   -0.7474 H   0  0  0  0  0  0  0  0  0  0  0  0
    3.0993   -0.5433    0.0526 H   0  0  0  0  0  0  0  0  0  0  0  0
    2.3691   -0.5745   -1.5659 H   0  0  0  0  0  0  0  0  0  0  0  0
   -0.2130   -0.4299   -1.8461 H   0  0  0  0  0  0  0  0  0  0  0  0
   -0.1831   -1.9865   -0.8170 H   0  0  0  0  0  0  0  0  0  0  0  0
  1  2  1  0
  2  3  1  0
  3  4  1  0
  3  5  1  0
  5  6  1  0
  6  7  1  0
  7  8  1  0
  7  9  1  0
  7  2  1  0
  9  3  1  0
  1 10  1  0
  1 11  1  0
  1 12  1  0
  2 13  1  0
  4 14  1  0
  4 15  1  0
  4 16  1  0
  5 17  1  0
  5 18  1  0
  6 19  1  0
  6 20  1  0
  8 21  1  0
  8 22  1  0
  8 23  1  0
  9 24  1  0
  9 25  1  0
M  END
