
     RDKit          3D

 23 25  0  0  0  0  0  0  0  0999 V2000
   -2.3260   -1.0194    0.3299 C   0  0  0  0  0  0  0  0  0  0  0  0
   -1.0637   -0.4530   -0.2468 C   0  0  0  0  0  0  0  0  0  0  0  0
   -1.2929    0.9541   -0.8110 C   0  0  0  0  0  0  0  0  0  0  0  0
    0.1692    1.3858   -0.9913 C   0  0  0  0  0  0  0  0  0  0  0  0
    0.7065    1.0825    0.3832 C   0  0  0  0  0  0  0  0  0  0  0  0
    1.9991    0.3517    0.4532 C   0  0  0  0  0  0  0  0  0  0  0  0
    2.2455   -0.8420   -0.3710 C   0  0  0  0  0  0  0  0  0  0  0  0
    1.2450   -0.9985    0.6901 C   0  0  0  0  0  0  0  0  0  0  0  0
   -0.0019   -0.2003    0.7748 C   0  0  0  0  0  0  0  0  0  0  0  0
   -2.3557   -0.7562    1.4053 H   0  0  0  0  0  0  0  0  0  0  0  0
   -3.2387   -0.7184   -0.2116 H   0  0  0  0  0  0  0  0  0  0  0  0
   -2.2263   -2.1357    0.2980 H   0  0  0  0  0  0  0  0  0  0  0  0
   -0.6787   -1.0982   -1.0697 H   0  0  0  0  0  0  0  0  0  0  0  0
   -1.8470    0.9499   -1.7415 H   0  0  0  0  0  0  0  0  0  0  0  0
   -1.7324    1.5641    0.0015 H   0  0  0  0  0  0  0  0  0  0  0  0
    0.2190    2.4341   -1.2753 H   0  0  0  0  0  0  0  0  0  0  0  0
    0.5888    0.6838   -1.7388 H   0  0  0  0  0  0  0  0  0  0  0  0
    0.6118    1.9166    1.0900 H   0  0  0  0  0  0  0  0  0  0  0  0
    2.6767    0.6690    1.2696 H   0  0  0  0  0  0  0  0  0  0  0  0
    2.0023   -0.7583   -1.4411 H   0  0  0  0  0  0  0  0  0  0  0  0
    3.2220   -1.3516   -0.1955 H   0  0  0  0  0  0  0  0  0  0  0  0
    1.5263   -1.5339    1.6139 H   0  0  0  0  0  0  0  0  0  0  0  0
   -0.4490   -0.1262    1.7841 H   0  0  0  0  0  0  0  0  0  0  0  0
  1  2  1  0
  2  3  1  0
  3  4  1  0
  4  5  1  0
  5  6  1  0
  6  7  1  0
  7  8  1  0
  8  9  1  0
  9  2  1  0
  9  5  1  0
  8  6  1  0
  1 10  1  0
  1 11  1  0
  1 12  1  0
  2 13  1  0
  3 14  1  0
  3 15  1  0
  4 16  1  0
  4 17  1  0
  5 18  1  0
  6 19  1  0
  7 20  1  0
  7 21  1  0
  8 22  1  0
  9 23  1  0
M  END
