
     RDKit          3D

 23 23  0  0  0  0  0  0  0  0999 V2000
   -2.4179    0.9276    0.2936 C   0  0  0  0  0  0  0  0  0  0  0  0
   -1.4042    0.1219   -0.4837 C   0  0  0  0  0  0  0  0  0  0  0  0
   -1.0660   -1.0921    0.3924 C   0  0  0  0  0  0  0  0  0  0  0  0
    0.3577   -1.3688   -0.0654 C   0  0  0  0  0  0  0  0  0  0  0  0
    0.9852   -0.0030   -0.0732 C   0  0  0  0  0  0  0  0  0  0  0  0
    1.3155    0.4875    1.3180 C   0  0  0  0  0  0  0  0  0  0  0  0
    2.1834   -0.0337   -0.9805 C   0  0  0  0  0  0  0  0  0  0  0  0
   -0.1096    0.8443   -0.6204 C   0  0  0  0  0  0  0  0  0  0  0  0
    0.0820    1.9490   -1.0940 O   0  0  0  0  0  0  0  0  0  0  0  0
   -3.2114    0.2397    0.6344 H   0  0  0  0  0  0  0  0  0  0  0  0
   -2.8427    1.6826   -0.3747 H   0  0  0  0  0  0  0  0  0  0  0  0
   -1.9138    1.3398    1.1750 H   0  0  0  0  0  0  0  0  0  0  0  0
   -1.7791   -0.2278   -1.4595 H   0  0  0  0  0  0  0  0  0  0  0  0
   -1.1129   -0.8137    1.4506 H   0  0  0  0  0  0  0  0  0  0  0  0
   -1.7456   -1.9264    0.2095 H   0  0  0  0  0  0  0  0  0  0  0  0
    0.8756   -2.0998    0.5544 H   0  0  0  0  0  0  0  0  0  0  0  0
    0.2777   -1.6942   -1.1283 H   0  0  0  0  0  0  0  0  0  0  0  0
    1.1315    1.5988    1.3294 H   0  0  0  0  0  0  0  0  0  0  0  0
    2.3594    0.2442    1.6104 H   0  0  0  0  0  0  0  0  0  0  0  0
    0.6504    0.0464    2.0934 H   0  0  0  0  0  0  0  0  0  0  0  0
    2.7152    0.9325   -1.0441 H   0  0  0  0  0  0  0  0  0  0  0  0
    1.8250   -0.2906   -1.9927 H   0  0  0  0  0  0  0  0  0  0  0  0
    2.8447   -0.8641   -0.6468 H   0  0  0  0  0  0  0  0  0  0  0  0
  1  2  1  0
  2  3  1  0
  3  4  1  0
  4  5  1  0
  5  6  1  0
  5  7  1  0
  5  8  1  0
  8  9  2  0
  8  2  1  0
  1 10  1  0
  1 11  1  0
  1 12  1  0
  2 13  1  0
  3 14  1  0
  3 15  1  0
  4 16  1  0
  4 17  1  0
  6 18  1  0
  6 19  1  0
  6 20  1  0
  7 21  1  0
  7 22  1  0
  7 23  1  0
M  END
