
     RDKit          3D

 22 22  0  0  0  0  0  0  0  0999 V2000
   -1.9058   -1.0376    0.4071 C   0  0  0  0  0  0  0  0  0  0  0  0
   -1.0243   -0.5045   -0.6581 C   0  0  0  0  0  0  0  0  0  0  0  0
    0.3527   -1.1796   -0.5549 C   0  0  0  0  0  0  0  0  0  0  0  0
    0.7278   -0.0095    0.3675 C   0  0  0  0  0  0  0  0  0  0  0  0
    2.1594    0.3688    0.0818 C   0  0  0  0  0  0  0  0  0  0  0  0
    3.0323   -0.7007    0.3177 O   0  0  0  0  0  0  0  0  0  0  0  0
   -0.3093    0.7855   -0.3891 C   0  0  0  0  0  0  0  0  0  0  0  0
   -1.0196    1.8481    0.3320 C   0  0  0  0  0  0  0  0  0  0  0  0
   -2.6883   -1.6796   -0.0803 H   0  0  0  0  0  0  0  0  0  0  0  0
   -2.4316   -0.3099    1.0158 H   0  0  0  0  0  0  0  0  0  0  0  0
   -1.3861   -1.7366    1.1207 H   0  0  0  0  0  0  0  0  0  0  0  0
   -1.4326   -0.5804   -1.6778 H   0  0  0  0  0  0  0  0  0  0  0  0
    0.8460   -1.1347   -1.5268 H   0  0  0  0  0  0  0  0  0  0  0  0
    0.3542   -2.1237   -0.0093 H   0  0  0  0  0  0  0  0  0  0  0  0
    0.5366   -0.1900    1.4247 H   0  0  0  0  0  0  0  0  0  0  0  0
    2.4579    1.1616    0.8181 H   0  0  0  0  0  0  0  0  0  0  0  0
    2.3137    0.7323   -0.9363 H   0  0  0  0  0  0  0  0  0  0  0  0
    2.8947   -1.4438   -0.3186 H   0  0  0  0  0  0  0  0  0  0  0  0
    0.1523    1.1549   -1.3424 H   0  0  0  0  0  0  0  0  0  0  0  0
   -1.0418    2.8036   -0.2722 H   0  0  0  0  0  0  0  0  0  0  0  0
   -2.0758    1.6519    0.5854 H   0  0  0  0  0  0  0  0  0  0  0  0
   -0.5126    2.1240    1.2948 H   0  0  0  0  0  0  0  0  0  0  0  0
  1  2  1  0
  2  3  1  0
  3  4  1  0
  4  5  1  0
  5  6  1  0
  4  7  1  0
  7  8  1  0
  7  2  1  0
  1  9  1  0
  1 10  1  0
  1 11  1  0
  2 12  1  0
  3 13  1  0
  3 14  1  0
  4 15  1  0
  5 16  1  0
  5 17  1  0
  6 18  1  0
  7 19  1  0
  8 20  1  0
  8 21  1  0
  8 22  1  0
M  END
