
     RDKit          3D

 17 17  0  0  0  0  0  0  0  0999 V2000
   -2.1790   -0.1639    0.2570 C   0  0  0  0  0  0  0  0  0  0  0  0
   -0.7064    0.1183    0.4701 C   0  0  0  0  0  0  0  0  0  0  0  0
   -0.2602    1.2391   -0.3723 C   0  0  0  0  0  0  0  0  0  0  0  0
    1.0214    1.3548   -0.6757 C   0  0  0  0  0  0  0  0  0  0  0  0
    1.9521    0.3598   -0.1610 C   0  0  0  0  0  0  0  0  0  0  0  0
    3.1061    0.7055    0.2234 O   0  0  0  0  0  0  0  0  0  0  0  0
    1.4879   -1.0509   -0.1116 C   0  0  0  0  0  0  0  0  0  0  0  0
    0.0675   -1.1179    0.2843 C   0  0  0  0  0  0  0  0  0  0  0  0
   -0.4624   -2.1887    0.4565 O   0  0  0  0  0  0  0  0  0  0  0  0
   -2.7525    0.7887    0.2545 H   0  0  0  0  0  0  0  0  0  0  0  0
   -2.3751   -0.7781   -0.6214 H   0  0  0  0  0  0  0  0  0  0  0  0
   -2.5658   -0.7449    1.1404 H   0  0  0  0  0  0  0  0  0  0  0  0
   -0.6147    0.4499    1.5402 H   0  0  0  0  0  0  0  0  0  0  0  0
   -0.9170    1.9982   -0.7751 H   0  0  0  0  0  0  0  0  0  0  0  0
    1.4041    2.1647   -1.2913 H   0  0  0  0  0  0  0  0  0  0  0  0
    2.1388   -1.6810    0.5341 H   0  0  0  0  0  0  0  0  0  0  0  0
    1.6551   -1.4536   -1.1519 H   0  0  0  0  0  0  0  0  0  0  0  0
  1  2  1  0
  2  3  1  0
  3  4  2  0
  4  5  1  0
  5  6  2  0
  5  7  1  0
  7  8  1  0
  8  9  2  0
  8  2  1  0
  1 10  1  0
  1 11  1  0
  1 12  1  0
  2 13  1  0
  3 14  1  0
  4 15  1  0
  7 16  1  0
  7 17  1  0
M  END
