
     RDKit          3D

 19 19  0  0  0  0  0  0  0  0999 V2000
    2.3958    0.8531    0.6262 C   0  0  0  0  0  0  0  0  0  0  0  0
    0.9557    0.7992    0.2118 C   0  0  0  0  0  0  0  0  0  0  0  0
    0.6531   -0.3796   -0.6567 C   0  0  0  0  0  0  0  0  0  0  0  0
   -0.0757   -0.9008    0.5615 C   0  0  0  0  0  0  0  0  0  0  0  0
   -1.4668   -1.3267    0.2426 C   0  0  0  0  0  0  0  0  0  0  0  0
   -2.2075   -0.4681   -0.5586 O   0  0  0  0  0  0  0  0  0  0  0  0
   -2.5511    0.8329   -0.2652 C   0  0  0  0  0  0  0  0  0  0  0  0
   -2.1949    1.3475    0.8089 O   0  0  0  0  0  0  0  0  0  0  0  0
    0.1320    0.2727    1.2313 O   0  0  0  0  0  0  0  0  0  0  0  0
    2.6177    1.6724    1.3283 H   0  0  0  0  0  0  0  0  0  0  0  0
    2.6849   -0.0979    1.1082 H   0  0  0  0  0  0  0  0  0  0  0  0
    3.0343    1.0197   -0.2732 H   0  0  0  0  0  0  0  0  0  0  0  0
    0.5374    1.7730   -0.0996 H   0  0  0  0  0  0  0  0  0  0  0  0
    1.5375   -0.9751   -0.9571 H   0  0  0  0  0  0  0  0  0  0  0  0
   -0.0282   -0.1140   -1.5070 H   0  0  0  0  0  0  0  0  0  0  0  0
    0.5020   -1.7547    0.9977 H   0  0  0  0  0  0  0  0  0  0  0  0
   -2.0261   -1.6349    1.1757 H   0  0  0  0  0  0  0  0  0  0  0  0
   -1.3717   -2.3021   -0.3200 H   0  0  0  0  0  0  0  0  0  0  0  0
   -3.1285    1.3836   -0.9819 H   0  0  0  0  0  0  0  0  0  0  0  0
  1  2  1  0
  2  3  1  0
  3  4  1  0
  4  5  1  0
  5  6  1  0
  6  7  1  0
  7  8  2  0
  4  9  1  0
  9  2  1  0
  1 10  1  0
  1 11  1  0
  1 12  1  0
  2 13  1  0
  3 14  1  0
  3 15  1  0
  4 16  1  0
  5 17  1  0
  5 18  1  0
  7 19  1  0
M  END
