
     RDKit          3D

 23 24  0  0  0  0  0  0  0  0999 V2000
   -2.3312    0.5779    0.3849 C   0  0  0  0  0  0  0  0  0  0  0  0
   -0.9552    0.4428   -0.2822 C   0  0  0  0  0  0  0  0  0  0  0  0
   -0.7782   -0.9401   -0.7417 C   0  0  0  0  0  0  0  0  0  0  0  0
    0.5614   -1.5417   -0.6158 C   0  0  0  0  0  0  0  0  0  0  0  0
    1.5853   -0.6891    0.0763 C   0  0  0  0  0  0  0  0  0  0  0  0
    1.8639    0.5508   -0.6888 C   0  0  0  0  0  0  0  0  0  0  0  0
    1.1713    1.5788   -0.2066 C   0  0  0  0  0  0  0  0  0  0  0  0
    0.0874    0.9863    0.6335 C   0  0  0  0  0  0  0  0  0  0  0  0
    0.8932   -0.1167    1.3199 C   0  0  0  0  0  0  0  0  0  0  0  0
   -2.5271    1.6105    0.6948 H   0  0  0  0  0  0  0  0  0  0  0  0
   -3.0678    0.3092   -0.4207 H   0  0  0  0  0  0  0  0  0  0  0  0
   -2.4475   -0.1516    1.2040 H   0  0  0  0  0  0  0  0  0  0  0  0
   -1.0147    1.1549   -1.1588 H   0  0  0  0  0  0  0  0  0  0  0  0
   -1.5144   -1.6186   -0.2179 H   0  0  0  0  0  0  0  0  0  0  0  0
   -1.0996   -0.9977   -1.8239 H   0  0  0  0  0  0  0  0  0  0  0  0
    0.9926   -1.8152   -1.6205 H   0  0  0  0  0  0  0  0  0  0  0  0
    0.5436   -2.5258   -0.0606 H   0  0  0  0  0  0  0  0  0  0  0  0
    2.4654   -1.2756    0.3223 H   0  0  0  0  0  0  0  0  0  0  0  0
    2.5410    0.6014   -1.5249 H   0  0  0  0  0  0  0  0  0  0  0  0
    1.3680    2.6377   -0.3960 H   0  0  0  0  0  0  0  0  0  0  0  0
   -0.2762    1.6948    1.3831 H   0  0  0  0  0  0  0  0  0  0  0  0
    1.6656    0.3722    1.9107 H   0  0  0  0  0  0  0  0  0  0  0  0
    0.2731   -0.8450    1.8287 H   0  0  0  0  0  0  0  0  0  0  0  0
  1  2  1  0
  2  3  1  0
  3  4  1  0
  4  5  1  0
  5  6  1  0
  6  7  2  0
  7  8  1  0
  8  9  1  0
  8  2  1  0
  9  5  1  0
  1 10  1  0
  1 11  1  0
  1 12  1  0
  2 13  1  0
  3 14  1  0
  3 15  1  0
  4 16  1  0
  4 17  1  0
  5 18  1  0
  6 19  1  0
  7 20  1  0
  8 21  1  0
  9 22  1  0
  9 23  1  0
M  END
