
     RDKit          3D

 21 22  0  0  0  0  0  0  0  0999 V2000
    2.5930   -0.3133    0.1205 C   0  0  0  0  0  0  0  0  0  0  0  0
    1.1664   -0.2369    0.4529 C   0  0  0  0  0  0  0  0  0  0  0  0
    0.3432    0.8676   -0.1463 C   0  0  0  0  0  0  0  0  0  0  0  0
    0.4686    0.1291   -1.4362 C   0  0  0  0  0  0  0  0  0  0  0  0
    0.1848   -0.9513   -0.4345 C   0  0  0  0  0  0  0  0  0  0  0  0
   -0.8162   -0.0249    0.1680 C   0  0  0  0  0  0  0  0  0  0  0  0
   -0.9759   -0.2084    1.5562 O   0  0  0  0  0  0  0  0  0  0  0  0
   -2.1078    0.2038   -0.4751 C   0  0  0  0  0  0  0  0  0  0  0  0
   -2.6944    1.3628    0.0814 O   0  0  0  0  0  0  0  0  0  0  0  0
    3.1880   -0.1927    1.0749 H   0  0  0  0  0  0  0  0  0  0  0  0
    2.8912   -1.3397   -0.2454 H   0  0  0  0  0  0  0  0  0  0  0  0
    2.9862    0.4681   -0.5507 H   0  0  0  0  0  0  0  0  0  0  0  0
    0.9398   -0.3941    1.5282 H   0  0  0  0  0  0  0  0  0  0  0  0
    0.4293    1.8505    0.0242 H   0  0  0  0  0  0  0  0  0  0  0  0
    1.4855    0.0228   -1.8596 H   0  0  0  0  0  0  0  0  0  0  0  0
   -0.2495    0.3141   -2.2315 H   0  0  0  0  0  0  0  0  0  0  0  0
    0.1147   -1.9341   -0.5938 H   0  0  0  0  0  0  0  0  0  0  0  0
   -1.9199   -0.3504    1.7995 H   0  0  0  0  0  0  0  0  0  0  0  0
   -2.7933   -0.6440   -0.1736 H   0  0  0  0  0  0  0  0  0  0  0  0
   -2.1621    0.2555   -1.5579 H   0  0  0  0  0  0  0  0  0  0  0  0
   -3.0717    1.1156    0.9599 H   0  0  0  0  0  0  0  0  0  0  0  0
  1  2  1  0
  2  3  1  0
  3  4  1  0
  4  5  1  0
  5  6  1  0
  6  7  1  0
  6  8  1  0
  8  9  1  0
  5  2  1  0
  6  3  1  0
  1 10  1  0
  1 11  1  0
  1 12  1  0
  2 13  1  0
  3 14  1  0
  4 15  1  0
  4 16  1  0
  5 17  1  0
  7 18  1  0
  8 19  1  0
  8 20  1  0
  9 21  1  0
M  END
