
     RDKit          3D

 19 19  0  0  0  0  0  0  0  0999 V2000
   -2.3544   -0.2208    0.3783 C   0  0  0  0  0  0  0  0  0  0  0  0
   -0.9343   -0.1661   -0.1984 C   0  0  0  0  0  0  0  0  0  0  0  0
   -0.4749    1.2301   -0.1557 C   0  0  0  0  0  0  0  0  0  0  0  0
    0.9227    1.4477    0.2086 C   0  0  0  0  0  0  0  0  0  0  0  0
    1.1710    2.6379    0.5486 O   0  0  0  0  0  0  0  0  0  0  0  0
    2.0767    0.5224    0.2453 C   0  0  0  0  0  0  0  0  0  0  0  0
    2.0602   -0.7818    0.0234 C   0  0  0  0  0  0  0  0  0  0  0  0
    0.8762   -1.6067   -0.3125 C   0  0  0  0  0  0  0  0  0  0  0  0
   -0.1890   -1.0925    0.4644 O   0  0  0  0  0  0  0  0  0  0  0  0
   -2.8273    0.7859    0.2836 H   0  0  0  0  0  0  0  0  0  0  0  0
   -2.9655   -0.9810   -0.1081 H   0  0  0  0  0  0  0  0  0  0  0  0
   -2.2300   -0.4048    1.4805 H   0  0  0  0  0  0  0  0  0  0  0  0
   -1.0536   -0.5192   -1.2638 H   0  0  0  0  0  0  0  0  0  0  0  0
   -0.6362    1.7039   -1.1682 H   0  0  0  0  0  0  0  0  0  0  0  0
   -1.1018    1.8562    0.5347 H   0  0  0  0  0  0  0  0  0  0  0  0
    3.0460    0.9619    0.4807 H   0  0  0  0  0  0  0  0  0  0  0  0
    2.9915   -1.3245    0.0873 H   0  0  0  0  0  0  0  0  0  0  0  0
    0.6054   -1.3743   -1.3614 H   0  0  0  0  0  0  0  0  0  0  0  0
    1.0171   -2.6742   -0.1672 H   0  0  0  0  0  0  0  0  0  0  0  0
  1  2  1  0
  2  3  1  0
  3  4  1  0
  4  5  2  0
  4  6  1  0
  6  7  2  0
  7  8  1  0
  8  9  1  0
  9  2  1  0
  1 10  1  0
  1 11  1  0
  1 12  1  0
  2 13  1  0
  3 14  1  0
  3 15  1  0
  6 16  1  0
  7 17  1  0
  8 18  1  0
  8 19  1  0
M  END
