
     RDKit          3D

 23 23  0  0  0  0  0  0  0  0999 V2000
   -2.3769   -1.1783   -0.3491 C   0  0  0  0  0  0  0  0  0  0  0  0
   -1.1377   -0.3619   -0.1675 C   0  0  0  0  0  0  0  0  0  0  0  0
    0.1342   -1.1729   -0.2644 C   0  0  0  0  0  0  0  0  0  0  0  0
    1.2845   -0.1863   -0.1720 C   0  0  0  0  0  0  0  0  0  0  0  0
    2.6244   -0.8721   -0.1627 C   0  0  0  0  0  0  0  0  0  0  0  0
    1.1578    0.6075    0.9385 O   0  0  0  0  0  0  0  0  0  0  0  0
   -0.0728    1.1727    1.1209 C   0  0  0  0  0  0  0  0  0  0  0  0
   -0.3860    2.2912    0.1531 C   0  0  0  0  0  0  0  0  0  0  0  0
   -1.1248    0.2455    1.0993 O   0  0  0  0  0  0  0  0  0  0  0  0
   -3.1617   -0.7616    0.3312 H   0  0  0  0  0  0  0  0  0  0  0  0
   -2.7717   -1.0453   -1.3751 H   0  0  0  0  0  0  0  0  0  0  0  0
   -2.2612   -2.2461   -0.1081 H   0  0  0  0  0  0  0  0  0  0  0  0
   -1.0900    0.4045   -0.9788 H   0  0  0  0  0  0  0  0  0  0  0  0
    0.2198   -1.7348   -1.2000 H   0  0  0  0  0  0  0  0  0  0  0  0
    0.1829   -1.8448    0.6194 H   0  0  0  0  0  0  0  0  0  0  0  0
    1.2537    0.4565   -1.0744 H   0  0  0  0  0  0  0  0  0  0  0  0
    2.5575   -1.9646   -0.0508 H   0  0  0  0  0  0  0  0  0  0  0  0
    3.2319   -0.5054    0.7048 H   0  0  0  0  0  0  0  0  0  0  0  0
    3.2425   -0.6068   -1.0644 H   0  0  0  0  0  0  0  0  0  0  0  0
   -0.0886    1.6002    2.1651 H   0  0  0  0  0  0  0  0  0  0  0  0
    0.0464    3.2293    0.5778 H   0  0  0  0  0  0  0  0  0  0  0  0
    0.0395    2.1112   -0.8572 H   0  0  0  0  0  0  0  0  0  0  0  0
   -1.5038    2.3622    0.1145 H   0  0  0  0  0  0  0  0  0  0  0  0
  1  2  1  0
  2  3  1  0
  3  4  1  0
  4  5  1  0
  4  6  1  0
  6  7  1  0
  7  8  1  0
  7  9  1  0
  9  2  1  0
  1 10  1  0
  1 11  1  0
  1 12  1  0
  2 13  1  0
  3 14  1  0
  3 15  1  0
  4 16  1  0
  5 17  1  0
  5 18  1  0
  5 19  1  0
  7 20  1  0
  8 21  1  0
  8 22  1  0
  8 23  1  0
M  END
