
     RDKit          3D

 21 22  0  0  0  0  0  0  0  0999 V2000
    2.1937   -0.7499    0.1656 C   0  0  0  0  0  0  0  0  0  0  0  0
    1.0457   -0.1712    0.9673 C   0  0  0  0  0  0  0  0  0  0  0  0
   -0.1798   -0.8023    0.6978 C   0  0  0  0  0  0  0  0  0  0  0  0
   -1.2478   -0.8203   -0.3225 C   0  0  0  0  0  0  0  0  0  0  0  0
   -0.9379   -0.5774   -1.6109 O   0  0  0  0  0  0  0  0  0  0  0  0
   -2.1089    0.2264    0.3511 C   0  0  0  0  0  0  0  0  0  0  0  0
   -1.2651    1.1339    0.8161 C   0  0  0  0  0  0  0  0  0  0  0  0
    0.0650    0.7165    0.4626 C   0  0  0  0  0  0  0  0  0  0  0  0
    0.4209    1.2270   -0.9103 C   0  0  0  0  0  0  0  0  0  0  0  0
    3.0804   -0.0757    0.1489 H   0  0  0  0  0  0  0  0  0  0  0  0
    2.5374   -1.6434    0.7673 H   0  0  0  0  0  0  0  0  0  0  0  0
    1.9044   -1.1462   -0.8005 H   0  0  0  0  0  0  0  0  0  0  0  0
    1.4127    0.0749    1.9975 H   0  0  0  0  0  0  0  0  0  0  0  0
   -0.6907   -1.0965    1.6781 H   0  0  0  0  0  0  0  0  0  0  0  0
   -1.7614   -1.8240   -0.2900 H   0  0  0  0  0  0  0  0  0  0  0  0
   -1.4671   -1.1293   -2.2486 H   0  0  0  0  0  0  0  0  0  0  0  0
   -3.1641    0.2368    0.4361 H   0  0  0  0  0  0  0  0  0  0  0  0
   -1.5803    2.0461    1.3780 H   0  0  0  0  0  0  0  0  0  0  0  0
    1.0655    0.5775   -1.4995 H   0  0  0  0  0  0  0  0  0  0  0  0
   -0.4052    1.6686   -1.4882 H   0  0  0  0  0  0  0  0  0  0  0  0
    1.0825    2.1286   -0.6958 H   0  0  0  0  0  0  0  0  0  0  0  0
  1  2  1  0
  2  3  1  0
  3  4  1  0
  4  5  1  0
  4  6  1  0
  6  7  2  0
  7  8  1  0
  8  9  1  0
  8  2  1  0
  8  3  1  0
  1 10  1  0
  1 11  1  0
  1 12  1  0
  2 13  1  0
  3 14  1  0
  4 15  1  0
  5 16  1  0
  6 17  1  0
  7 18  1  0
  9 19  1  0
  9 20  1  0
  9 21  1  0
M  END
