
     RDKit          3D

 17 17  0  0  0  0  0  0  0  0999 V2000
   -1.8734    0.2390    0.3963 C   0  0  0  0  0  0  0  0  0  0  0  0
   -0.7483    0.1015   -0.6100 C   0  0  0  0  0  0  0  0  0  0  0  0
    0.2197    1.2087   -0.3109 C   0  0  0  0  0  0  0  0  0  0  0  0
    1.4214    0.9956    0.1795 C   0  0  0  0  0  0  0  0  0  0  0  0
    1.8165   -0.4072    0.4406 C   0  0  0  0  0  0  0  0  0  0  0  0
    1.2988   -1.1811   -0.6022 O   0  0  0  0  0  0  0  0  0  0  0  0
   -0.0779   -1.2513   -0.5086 C   0  0  0  0  0  0  0  0  0  0  0  0
   -2.3551    1.2217    0.2166 H   0  0  0  0  0  0  0  0  0  0  0  0
   -2.6437   -0.5373    0.2784 H   0  0  0  0  0  0  0  0  0  0  0  0
   -1.4179    0.2259    1.4175 H   0  0  0  0  0  0  0  0  0  0  0  0
   -1.1730    0.2599   -1.6231 H   0  0  0  0  0  0  0  0  0  0  0  0
   -0.1191    2.2107   -0.5198 H   0  0  0  0  0  0  0  0  0  0  0  0
    2.0720    1.8315    0.3736 H   0  0  0  0  0  0  0  0  0  0  0  0
    1.4285   -0.7338    1.4271 H   0  0  0  0  0  0  0  0  0  0  0  0
    2.9246   -0.5355    0.4145 H   0  0  0  0  0  0  0  0  0  0  0  0
   -0.3428   -1.7789    0.4147 H   0  0  0  0  0  0  0  0  0  0  0  0
   -0.4304   -1.8693   -1.3843 H   0  0  0  0  0  0  0  0  0  0  0  0
  1  2  1  0
  2  3  1  0
  3  4  2  0
  4  5  1  0
  5  6  1  0
  6  7  1  0
  7  2  1  0
  1  8  1  0
  1  9  1  0
  1 10  1  0
  2 11  1  0
  3 12  1  0
  4 13  1  0
  5 14  1  0
  5 15  1  0
  7 16  1  0
  7 17  1  0
M  END
