
     RDKit          3D

 21 22  0  0  0  0  0  0  0  0999 V2000
   -1.2132   -1.3110    0.5665 C   0  0  0  0  0  0  0  0  0  0  0  0
   -0.7345   -0.4692   -0.5961 C   0  0  0  0  0  0  0  0  0  0  0  0
   -1.5789    0.7871   -0.7616 C   0  0  0  0  0  0  0  0  0  0  0  0
   -0.5816    1.4590    0.1932 C   0  0  0  0  0  0  0  0  0  0  0  0
   -0.2624    2.7551   -0.1246 O   0  0  0  0  0  0  0  0  0  0  0  0
    0.4170    0.4304   -0.3323 C   0  0  0  0  0  0  0  0  0  0  0  0
    1.4654    0.0016    0.6087 C   0  0  0  0  0  0  0  0  0  0  0  0
    2.1685   -1.2910    0.1939 C   0  0  0  0  0  0  0  0  0  0  0  0
    1.4128   -1.1487    1.3404 O   0  0  0  0  0  0  0  0  0  0  0  0
   -0.5741   -2.1952    0.6918 H   0  0  0  0  0  0  0  0  0  0  0  0
   -2.2221   -1.6969    0.2729 H   0  0  0  0  0  0  0  0  0  0  0  0
   -1.3524   -0.7129    1.4839 H   0  0  0  0  0  0  0  0  0  0  0  0
   -0.6676   -1.0933   -1.5061 H   0  0  0  0  0  0  0  0  0  0  0  0
   -1.4482    1.2668   -1.7626 H   0  0  0  0  0  0  0  0  0  0  0  0
   -2.6004    0.7217   -0.3821 H   0  0  0  0  0  0  0  0  0  0  0  0
   -0.8337    1.2780    1.2519 H   0  0  0  0  0  0  0  0  0  0  0  0
    0.6685    2.7948   -0.4878 H   0  0  0  0  0  0  0  0  0  0  0  0
    0.8508    0.8023   -1.2852 H   0  0  0  0  0  0  0  0  0  0  0  0
    2.1275    0.8142    0.9920 H   0  0  0  0  0  0  0  0  0  0  0  0
    1.6999   -1.9198   -0.5856 H   0  0  0  0  0  0  0  0  0  0  0  0
    3.2587   -1.2728    0.2286 H   0  0  0  0  0  0  0  0  0  0  0  0
  1  2  1  0
  2  3  1  0
  3  4  1  0
  4  5  1  0
  4  6  1  0
  6  7  1  0
  7  8  1  0
  8  9  1  0
  6  2  1  0
  9  7  1  0
  1 10  1  0
  1 11  1  0
  1 12  1  0
  2 13  1  0
  3 14  1  0
  3 15  1  0
  4 16  1  0
  5 17  1  0
  6 18  1  0
  7 19  1  0
  8 20  1  0
  8 21  1  0
M  END
