
     RDKit          3D

 19 19  0  0  0  0  0  0  0  0999 V2000
    1.7832   -0.9551   -0.1256 C   0  0  0  0  0  0  0  0  0  0  0  0
    0.3094   -0.8047   -0.2888 C   0  0  0  0  0  0  0  0  0  0  0  0
   -0.4568   -1.0013    0.9509 C   0  0  0  0  0  0  0  0  0  0  0  0
   -0.0502   -1.4534    1.9806 O   0  0  0  0  0  0  0  0  0  0  0  0
   -1.8205   -0.5275    0.6597 C   0  0  0  0  0  0  0  0  0  0  0  0
   -1.5644    0.5681   -0.3162 C   0  0  0  0  0  0  0  0  0  0  0  0
   -2.3749    1.3785   -0.7258 O   0  0  0  0  0  0  0  0  0  0  0  0
   -0.1368    0.5480   -0.7454 C   0  0  0  0  0  0  0  0  0  0  0  0
    0.5581    1.6862   -0.0911 C   0  0  0  0  0  0  0  0  0  0  0  0
    2.2176   -0.3580    0.6850 H   0  0  0  0  0  0  0  0  0  0  0  0
    1.9930   -2.0200    0.1019 H   0  0  0  0  0  0  0  0  0  0  0  0
    2.2626   -0.7349   -1.0985 H   0  0  0  0  0  0  0  0  0  0  0  0
   -0.0391   -1.5468   -1.0306 H   0  0  0  0  0  0  0  0  0  0  0  0
   -2.3858   -1.3448    0.1310 H   0  0  0  0  0  0  0  0  0  0  0  0
   -2.3646   -0.1753    1.5549 H   0  0  0  0  0  0  0  0  0  0  0  0
   -0.0647    0.6262   -1.8491 H   0  0  0  0  0  0  0  0  0  0  0  0
    0.5155    2.5626   -0.7972 H   0  0  0  0  0  0  0  0  0  0  0  0
    0.0208    2.0244    0.8331 H   0  0  0  0  0  0  0  0  0  0  0  0
    1.5978    1.5279    0.1710 H   0  0  0  0  0  0  0  0  0  0  0  0
  1  2  1  0
  2  3  1  0
  3  4  2  0
  3  5  1  0
  5  6  1  0
  6  7  2  0
  6  8  1  0
  8  9  1  0
  8  2  1  0
  1 10  1  0
  1 11  1  0
  1 12  1  0
  2 13  1  0
  5 14  1  0
  5 15  1  0
  8 16  1  0
  9 17  1  0
  9 18  1  0
  9 19  1  0
M  END
