
     RDKit          3D

 18 20  0  0  0  0  0  0  0  0999 V2000
    2.0205    0.6404    0.2526 C   0  0  0  0  0  0  0  0  0  0  0  0
    1.0120   -0.2350   -0.4096 C   0  0  0  0  0  0  0  0  0  0  0  0
    0.4926   -1.4712    0.3564 C   0  0  0  0  0  0  0  0  0  0  0  0
   -0.3309   -0.3418    0.0982 C   0  0  0  0  0  0  0  0  0  0  0  0
   -1.5014   -0.4376   -0.8404 C   0  0  0  0  0  0  0  0  0  0  0  0
   -1.9948    0.8424   -0.1799 C   0  0  0  0  0  0  0  0  0  0  0  0
   -2.3717    0.6996    1.1161 O   0  0  0  0  0  0  0  0  0  0  0  0
   -1.0286    0.5673    0.9886 C   0  0  0  0  0  0  0  0  0  0  0  0
    1.7458    1.6938    0.0742 H   0  0  0  0  0  0  0  0  0  0  0  0
    3.0414    0.4086   -0.1303 H   0  0  0  0  0  0  0  0  0  0  0  0
    2.0036    0.4581    1.3345 H   0  0  0  0  0  0  0  0  0  0  0  0
    1.1754   -0.3797   -1.4973 H   0  0  0  0  0  0  0  0  0  0  0  0
    1.1017   -1.6854    1.2388 H   0  0  0  0  0  0  0  0  0  0  0  0
    0.3359   -2.3938   -0.2784 H   0  0  0  0  0  0  0  0  0  0  0  0
   -2.1897   -1.2609   -0.5666 H   0  0  0  0  0  0  0  0  0  0  0  0
   -1.2455   -0.3548   -1.9006 H   0  0  0  0  0  0  0  0  0  0  0  0
   -1.8298    1.7998   -0.6687 H   0  0  0  0  0  0  0  0  0  0  0  0
   -0.4366    1.4500    1.3615 H   0  0  0  0  0  0  0  0  0  0  0  0
  1  2  1  0
  2  3  1  0
  3  4  1  0
  4  5  1  0
  5  6  1  0
  6  7  1  0
  7  8  1  0
  4  2  1  0
  8  6  1  0
  8  4  1  0
  1  9  1  0
  1 10  1  0
  1 11  1  0
  2 12  1  0
  3 13  1  0
  3 14  1  0
  5 15  1  0
  5 16  1  0
  6 17  1  0
  8 18  1  0
M  END
