
     RDKit          3D

 21 22  0  0  0  0  0  0  0  0999 V2000
    2.3842    0.6873   -0.9522 C   0  0  0  0  0  0  0  0  0  0  0  0
    1.7262   -0.0115    0.2145 C   0  0  0  0  0  0  0  0  0  0  0  0
    0.5761    0.8347    0.6638 C   0  0  0  0  0  0  0  0  0  0  0  0
   -0.5526    0.3953    0.1676 C   0  0  0  0  0  0  0  0  0  0  0  0
   -1.8934    0.0202   -0.3130 C   0  0  0  0  0  0  0  0  0  0  0  0
   -3.0349    0.2872    0.6251 C   0  0  0  0  0  0  0  0  0  0  0  0
   -1.4127   -1.3248   -0.2336 O   0  0  0  0  0  0  0  0  0  0  0  0
   -0.2389   -0.7909   -0.7405 C   0  0  0  0  0  0  0  0  0  0  0  0
    1.0686   -1.3176   -0.2149 C   0  0  0  0  0  0  0  0  0  0  0  0
    3.1917    0.0103   -1.3429 H   0  0  0  0  0  0  0  0  0  0  0  0
    2.8821    1.5897   -0.5377 H   0  0  0  0  0  0  0  0  0  0  0  0
    1.6662    0.9590   -1.7439 H   0  0  0  0  0  0  0  0  0  0  0  0
    2.4628   -0.2179    0.9837 H   0  0  0  0  0  0  0  0  0  0  0  0
    0.6856    1.7061    1.3237 H   0  0  0  0  0  0  0  0  0  0  0  0
   -2.0595    0.2420   -1.3706 H   0  0  0  0  0  0  0  0  0  0  0  0
   -3.6415   -0.6113    0.8274 H   0  0  0  0  0  0  0  0  0  0  0  0
   -2.5829    0.6498    1.5899 H   0  0  0  0  0  0  0  0  0  0  0  0
   -3.6272    1.1289    0.2176 H   0  0  0  0  0  0  0  0  0  0  0  0
   -0.2621   -0.5235   -1.7968 H   0  0  0  0  0  0  0  0  0  0  0  0
    0.9438   -1.9545    0.6798 H   0  0  0  0  0  0  0  0  0  0  0  0
    1.7185   -1.7586   -0.9971 H   0  0  0  0  0  0  0  0  0  0  0  0
  1  2  1  0
  2  3  1  0
  3  4  2  0
  4  5  1  0
  5  6  1  0
  5  7  1  0
  7  8  1  0
  8  9  1  0
  9  2  1  0
  8  4  1  0
  1 10  1  0
  1 11  1  0
  1 12  1  0
  2 13  1  0
  3 14  1  0
  5 15  1  0
  6 16  1  0
  6 17  1  0
  6 18  1  0
  8 19  1  0
  9 20  1  0
  9 21  1  0
M  END
