
     RDKit          3D

 17 18  0  0  0  0  0  0  0  0999 V2000
   -1.8069   -0.3699    0.6915 C   0  0  0  0  0  0  0  0  0  0  0  0
   -0.9273   -0.3504   -0.5400 C   0  0  0  0  0  0  0  0  0  0  0  0
   -0.4627    1.0361   -0.8120 C   0  0  0  0  0  0  0  0  0  0  0  0
    0.7409    1.4849   -0.4692 C   0  0  0  0  0  0  0  0  0  0  0  0
    1.7589    0.6530    0.2245 C   0  0  0  0  0  0  0  0  0  0  0  0
    2.4957   -0.2627   -0.5292 O   0  0  0  0  0  0  0  0  0  0  0  0
    1.5057   -0.7490    0.3029 C   0  0  0  0  0  0  0  0  0  0  0  0
    0.2270   -1.2434   -0.2674 C   0  0  0  0  0  0  0  0  0  0  0  0
    0.0846   -2.4229   -0.5341 O   0  0  0  0  0  0  0  0  0  0  0  0
   -1.6862    0.5774    1.2748 H   0  0  0  0  0  0  0  0  0  0  0  0
   -2.8663   -0.5339    0.4262 H   0  0  0  0  0  0  0  0  0  0  0  0
   -1.5056   -1.1805    1.4039 H   0  0  0  0  0  0  0  0  0  0  0  0
   -1.4371   -0.7061   -1.4459 H   0  0  0  0  0  0  0  0  0  0  0  0
   -1.1838    1.6866   -1.3237 H   0  0  0  0  0  0  0  0  0  0  0  0
    0.9595    2.5181   -0.7240 H   0  0  0  0  0  0  0  0  0  0  0  0
    2.2740    1.1543    1.0809 H   0  0  0  0  0  0  0  0  0  0  0  0
    1.8296   -1.2915    1.2407 H   0  0  0  0  0  0  0  0  0  0  0  0
  1  2  1  0
  2  3  1  0
  3  4  2  0
  4  5  1  0
  5  6  1  0
  6  7  1  0
  7  8  1  0
  8  9  2  0
  8  2  1  0
  7  5  1  0
  1 10  1  0
  1 11  1  0
  1 12  1  0
  2 13  1  0
  3 14  1  0
  4 15  1  0
  5 16  1  0
  7 17  1  0
M  END
