
     RDKit          3D

 25 26  0  0  0  0  0  0  0  0999 V2000
   -1.1411    1.9205    0.2009 C   0  0  0  0  0  0  0  0  0  0  0  0
   -0.1750    0.8269   -0.2105 C   0  0  0  0  0  0  0  0  0  0  0  0
    1.1729    1.1727    0.3410 C   0  0  0  0  0  0  0  0  0  0  0  0
    2.2356    0.1957   -0.0551 C   0  0  0  0  0  0  0  0  0  0  0  0
    1.6197   -1.0896   -0.6093 C   0  0  0  0  0  0  0  0  0  0  0  0
    0.5041   -1.4889    0.3119 C   0  0  0  0  0  0  0  0  0  0  0  0
   -0.6546   -0.5368    0.1290 C   0  0  0  0  0  0  0  0  0  0  0  0
   -1.8263   -1.0113   -0.7545 C   0  0  0  0  0  0  0  0  0  0  0  0
   -1.9636   -0.8123    0.7359 C   0  0  0  0  0  0  0  0  0  0  0  0
   -2.0381    1.9256   -0.4347 H   0  0  0  0  0  0  0  0  0  0  0  0
   -0.6040    2.8904    0.0417 H   0  0  0  0  0  0  0  0  0  0  0  0
   -1.3631    1.8694    1.2808 H   0  0  0  0  0  0  0  0  0  0  0  0
   -0.0850    0.8811   -1.3345 H   0  0  0  0  0  0  0  0  0  0  0  0
    1.4558    2.1687   -0.1044 H   0  0  0  0  0  0  0  0  0  0  0  0
    1.0936    1.3467    1.4231 H   0  0  0  0  0  0  0  0  0  0  0  0
    2.8759    0.5923   -0.8894 H   0  0  0  0  0  0  0  0  0  0  0  0
    2.8671   -0.0974    0.8158 H   0  0  0  0  0  0  0  0  0  0  0  0
    1.2828   -0.8520   -1.6352 H   0  0  0  0  0  0  0  0  0  0  0  0
    2.4272   -1.8498   -0.6477 H   0  0  0  0  0  0  0  0  0  0  0  0
    0.9125   -1.4322    1.3571 H   0  0  0  0  0  0  0  0  0  0  0  0
    0.1522   -2.5207    0.1518 H   0  0  0  0  0  0  0  0  0  0  0  0
   -1.7047   -2.0327   -1.1646 H   0  0  0  0  0  0  0  0  0  0  0  0
   -2.3536   -0.2528   -1.3574 H   0  0  0  0  0  0  0  0  0  0  0  0
   -2.0561   -1.7902    1.2861 H   0  0  0  0  0  0  0  0  0  0  0  0
   -2.6340   -0.0232    1.1220 H   0  0  0  0  0  0  0  0  0  0  0  0
  1  2  1  0
  2  3  1  0
  3  4  1  0
  4  5  1  0
  5  6  1  0
  6  7  1  0
  7  8  1  0
  8  9  1  0
  7  2  1  0
  9  7  1  0
  1 10  1  0
  1 11  1  0
  1 12  1  0
  2 13  1  0
  3 14  1  0
  3 15  1  0
  4 16  1  0
  4 17  1  0
  5 18  1  0
  5 19  1  0
  6 20  1  0
  6 21  1  0
  8 22  1  0
  8 23  1  0
  9 24  1  0
  9 25  1  0
M  END
