
     RDKit          3D

 21 22  0  0  0  0  0  0  0  0999 V2000
    2.4000    0.2615   -0.0548 C   0  0  0  0  0  0  0  0  0  0  0  0
    0.9326    0.5213   -0.0952 C   0  0  0  0  0  0  0  0  0  0  0  0
    0.4082    0.8446   -1.4719 C   0  0  0  0  0  0  0  0  0  0  0  0
   -0.9765    0.6384   -1.2848 O   0  0  0  0  0  0  0  0  0  0  0  0
   -1.0688   -0.5822   -0.6472 C   0  0  0  0  0  0  0  0  0  0  0  0
   -1.9612   -0.6373    0.5614 C   0  0  0  0  0  0  0  0  0  0  0  0
   -2.8741    0.4022    0.6077 O   0  0  0  0  0  0  0  0  0  0  0  0
   -0.7485   -0.4846    1.4457 C   0  0  0  0  0  0  0  0  0  0  0  0
    0.1308   -0.7031    0.2693 C   0  0  0  0  0  0  0  0  0  0  0  0
    2.7782   -0.4009   -0.8426 H   0  0  0  0  0  0  0  0  0  0  0  0
    2.6115   -0.2667    0.9213 H   0  0  0  0  0  0  0  0  0  0  0  0
    2.9696    1.2222    0.0223 H   0  0  0  0  0  0  0  0  0  0  0  0
    0.6845    1.3576    0.5635 H   0  0  0  0  0  0  0  0  0  0  0  0
    0.6172    1.8876   -1.7375 H   0  0  0  0  0  0  0  0  0  0  0  0
    0.8215    0.1558   -2.2332 H   0  0  0  0  0  0  0  0  0  0  0  0
   -1.2543   -1.4446   -1.3076 H   0  0  0  0  0  0  0  0  0  0  0  0
   -2.4340   -1.6364    0.7111 H   0  0  0  0  0  0  0  0  0  0  0  0
   -2.3833    1.2195    0.3024 H   0  0  0  0  0  0  0  0  0  0  0  0
   -0.6752    0.5537    1.8642 H   0  0  0  0  0  0  0  0  0  0  0  0
   -0.6259   -1.2486    2.2331 H   0  0  0  0  0  0  0  0  0  0  0  0
    0.6477   -1.6598    0.1727 H   0  0  0  0  0  0  0  0  0  0  0  0
  1  2  1  0
  2  3  1  0
  3  4  1  0
  4  5  1  0
  5  6  1  0
  6  7  1  0
  6  8  1  0
  8  9  1  0
  9  2  1  0
  9  5  1  0
  1 10  1  0
  1 11  1  0
  1 12  1  0
  2 13  1  0
  3 14  1  0
  3 15  1  0
  5 16  1  0
  6 17  1  0
  7 18  1  0
  8 19  1  0
  8 20  1  0
  9 21  1  0
M  END
