
     RDKit          3D

 17 18  0  0  0  0  0  0  0  0999 V2000
   -2.0949    0.1055    0.1007 C   0  0  0  0  0  0  0  0  0  0  0  0
   -0.7637   -0.5461    0.3460 C   0  0  0  0  0  0  0  0  0  0  0  0
   -0.1725   -1.1091   -0.9029 C   0  0  0  0  0  0  0  0  0  0  0  0
    0.8903   -0.4009   -1.2568 C   0  0  0  0  0  0  0  0  0  0  0  0
    1.1498    0.6954   -0.3278 C   0  0  0  0  0  0  0  0  0  0  0  0
    2.2242    0.4945    0.6597 C   0  0  0  0  0  0  0  0  0  0  0  0
    3.4153    0.8515    0.7690 O   0  0  0  0  0  0  0  0  0  0  0  0
    1.3790   -0.2652    1.4432 O   0  0  0  0  0  0  0  0  0  0  0  0
    0.2719    0.4012    0.8530 C   0  0  0  0  0  0  0  0  0  0  0  0
   -2.8833   -0.2293    0.8154 H   0  0  0  0  0  0  0  0  0  0  0  0
   -2.4217   -0.1875   -0.9181 H   0  0  0  0  0  0  0  0  0  0  0  0
   -2.0289    1.2155    0.1931 H   0  0  0  0  0  0  0  0  0  0  0  0
   -0.8835   -1.3678    1.0891 H   0  0  0  0  0  0  0  0  0  0  0  0
   -0.5657   -1.9690   -1.4294 H   0  0  0  0  0  0  0  0  0  0  0  0
    1.4772   -0.6315   -2.1358 H   0  0  0  0  0  0  0  0  0  0  0  0
    1.0594    1.7023   -0.7632 H   0  0  0  0  0  0  0  0  0  0  0  0
   -0.0531    1.2404    1.4646 H   0  0  0  0  0  0  0  0  0  0  0  0
  1  2  1  0
  2  3  1  0
  3  4  2  0
  4  5  1  0
  5  6  1  0
  6  7  2  0
  6  8  1  0
  8  9  1  0
  9  2  1  0
  9  5  1  0
  1 10  1  0
  1 11  1  0
  1 12  1  0
  2 13  1  0
  3 14  1  0
  4 15  1  0
  5 16  1  0
  9 17  1  0
M  END
