
     RDKit          3D

 23 24  0  0  0  0  0  0  0  0999 V2000
    0.6695    1.9655    0.1331 C   0  0  0  0  0  0  0  0  0  0  0  0
    0.0672    0.7582   -0.4988 C   0  0  0  0  0  0  0  0  0  0  0  0
    0.9476   -0.4551   -0.6276 C   0  0  0  0  0  0  0  0  0  0  0  0
    1.9169   -0.5939    0.5340 C   0  0  0  0  0  0  0  0  0  0  0  0
    1.4704   -0.7118   -1.8703 O   0  0  0  0  0  0  0  0  0  0  0  0
   -0.3148   -1.2638   -0.2858 C   0  0  0  0  0  0  0  0  0  0  0  0
   -0.7087   -1.1477    1.1140 C   0  0  0  0  0  0  0  0  0  0  0  0
   -0.9631    0.0239    0.2698 C   0  0  0  0  0  0  0  0  0  0  0  0
   -2.3883    0.3092   -0.1001 C   0  0  0  0  0  0  0  0  0  0  0  0
   -0.0088    2.8338   -0.1199 H   0  0  0  0  0  0  0  0  0  0  0  0
    0.7448    1.9252    1.2222 H   0  0  0  0  0  0  0  0  0  0  0  0
    1.6432    2.2235   -0.3334 H   0  0  0  0  0  0  0  0  0  0  0  0
   -0.3181    1.0276   -1.5257 H   0  0  0  0  0  0  0  0  0  0  0  0
    1.7528    0.1544    1.3175 H   0  0  0  0  0  0  0  0  0  0  0  0
    2.9642   -0.4444    0.1652 H   0  0  0  0  0  0  0  0  0  0  0  0
    1.9050   -1.6426    0.9332 H   0  0  0  0  0  0  0  0  0  0  0  0
    1.2352   -1.6343   -2.1916 H   0  0  0  0  0  0  0  0  0  0  0  0
   -0.8996   -1.7028   -1.0843 H   0  0  0  0  0  0  0  0  0  0  0  0
    0.1408   -1.1725    1.8591 H   0  0  0  0  0  0  0  0  0  0  0  0
   -1.5690   -1.7246    1.4556 H   0  0  0  0  0  0  0  0  0  0  0  0
   -2.4465    1.3104   -0.5937 H   0  0  0  0  0  0  0  0  0  0  0  0
   -2.8934   -0.4833   -0.6439 H   0  0  0  0  0  0  0  0  0  0  0  0
   -2.9474    0.4452    0.8711 H   0  0  0  0  0  0  0  0  0  0  0  0
  1  2  1  0
  2  3  1  0
  3  4  1  0
  3  5  1  0
  3  6  1  0
  6  7  1  0
  7  8  1  0
  8  9  1  0
  8  2  1  0
  8  6  1  0
  1 10  1  0
  1 11  1  0
  1 12  1  0
  2 13  1  0
  4 14  1  0
  4 15  1  0
  4 16  1  0
  5 17  1  0
  6 18  1  0
  7 19  1  0
  7 20  1  0
  9 21  1  0
  9 22  1  0
  9 23  1  0
M  END
