
     RDKit          3D

 21 23  0  0  0  0  0  0  0  0999 V2000
   -1.7857    0.8366    0.7526 C   0  0  0  0  0  0  0  0  0  0  0  0
   -1.3272   -0.4337    0.1320 C   0  0  0  0  0  0  0  0  0  0  0  0
   -0.6274   -0.2227   -1.1988 C   0  0  0  0  0  0  0  0  0  0  0  0
    0.1124   -1.5227   -0.8450 C   0  0  0  0  0  0  0  0  0  0  0  0
    0.0570   -0.9177    0.5665 C   0  0  0  0  0  0  0  0  0  0  0  0
    0.9712    0.2457    0.4033 C   0  0  0  0  0  0  0  0  0  0  0  0
    2.3028    0.3634    0.7344 C   0  0  0  0  0  0  0  0  0  0  0  0
    1.2844    1.0948    1.4217 O   0  0  0  0  0  0  0  0  0  0  0  0
    0.4089    0.8228   -0.9124 C   0  0  0  0  0  0  0  0  0  0  0  0
   -2.7062    0.5971    1.3612 H   0  0  0  0  0  0  0  0  0  0  0  0
   -2.1702    1.4984   -0.0777 H   0  0  0  0  0  0  0  0  0  0  0  0
   -1.0319    1.3857    1.3241 H   0  0  0  0  0  0  0  0  0  0  0  0
   -2.0191   -1.2938    0.1544 H   0  0  0  0  0  0  0  0  0  0  0  0
   -1.1949   -0.2041   -2.0879 H   0  0  0  0  0  0  0  0  0  0  0  0
   -0.5598   -2.3638   -1.0046 H   0  0  0  0  0  0  0  0  0  0  0  0
    1.1355   -1.5816   -1.2148 H   0  0  0  0  0  0  0  0  0  0  0  0
    0.1255   -1.5771    1.3884 H   0  0  0  0  0  0  0  0  0  0  0  0
    3.0084    1.0340    0.1914 H   0  0  0  0  0  0  0  0  0  0  0  0
    2.8510   -0.4013    1.3342 H   0  0  0  0  0  0  0  0  0  0  0  0
    1.1704    0.8135   -1.6913 H   0  0  0  0  0  0  0  0  0  0  0  0
   -0.0052    1.8264   -0.7317 H   0  0  0  0  0  0  0  0  0  0  0  0
  1  2  1  0
  2  3  1  0
  3  4  1  0
  4  5  1  0
  5  6  1  0
  6  7  1  0
  7  8  1  0
  6  9  1  0
  5  2  1  0
  8  6  1  0
  9  3  1  0
  1 10  1  0
  1 11  1  0
  1 12  1  0
  2 13  1  0
  3 14  1  0
  4 15  1  0
  4 16  1  0
  5 17  1  0
  7 18  1  0
  7 19  1  0
  9 20  1  0
  9 21  1  0
M  END
