
     RDKit          3D

 21 22  0  0  0  0  0  0  0  0999 V2000
    2.8117   -0.3266    0.5331 C   0  0  0  0  0  0  0  0  0  0  0  0
    1.8473   -0.5242   -0.5767 C   0  0  0  0  0  0  0  0  0  0  0  0
    0.6525   -1.2461   -0.0458 C   0  0  0  0  0  0  0  0  0  0  0  0
   -0.3302   -0.4000    0.1590 C   0  0  0  0  0  0  0  0  0  0  0  0
   -1.5534    0.3726    0.4583 C   0  0  0  0  0  0  0  0  0  0  0  0
   -2.8586   -0.3343    0.1819 C   0  0  0  0  0  0  0  0  0  0  0  0
   -1.1036    1.2629   -0.7330 C   0  0  0  0  0  0  0  0  0  0  0  0
    0.2673    0.9666   -0.1863 C   0  0  0  0  0  0  0  0  0  0  0  0
    1.2832    0.6649   -1.0736 O   0  0  0  0  0  0  0  0  0  0  0  0
    2.7564    0.6428    1.0437 H   0  0  0  0  0  0  0  0  0  0  0  0
    2.6924   -1.1860    1.2567 H   0  0  0  0  0  0  0  0  0  0  0  0
    3.8478   -0.4803    0.1135 H   0  0  0  0  0  0  0  0  0  0  0  0
    2.2377   -1.0801   -1.4480 H   0  0  0  0  0  0  0  0  0  0  0  0
    0.6453   -2.3142    0.1288 H   0  0  0  0  0  0  0  0  0  0  0  0
   -1.4870    0.9398    1.3823 H   0  0  0  0  0  0  0  0  0  0  0  0
   -3.6581    0.4018    0.2418 H   0  0  0  0  0  0  0  0  0  0  0  0
   -2.7748   -0.8433   -0.7973 H   0  0  0  0  0  0  0  0  0  0  0  0
   -2.9588   -1.1377    0.9408 H   0  0  0  0  0  0  0  0  0  0  0  0
   -1.3751    0.7461   -1.6590 H   0  0  0  0  0  0  0  0  0  0  0  0
   -1.4552    2.3066   -0.6263 H   0  0  0  0  0  0  0  0  0  0  0  0
    0.5132    1.5686    0.6869 H   0  0  0  0  0  0  0  0  0  0  0  0
  1  2  1  0
  2  3  1  0
  3  4  2  0
  4  5  1  0
  5  6  1  0
  5  7  1  0
  7  8  1  0
  8  9  1  0
  9  2  1  0
  8  4  1  0
  1 10  1  0
  1 11  1  0
  1 12  1  0
  2 13  1  0
  3 14  1  0
  5 15  1  0
  6 16  1  0
  6 17  1  0
  6 18  1  0
  7 19  1  0
  7 20  1  0
  8 21  1  0
M  END
