
     RDKit          3D

 21 22  0  0  0  0  0  0  0  0999 V2000
    2.3837   -0.0099    0.2648 C   0  0  0  0  0  0  0  0  0  0  0  0
    1.1874   -0.1417   -0.6765 C   0  0  0  0  0  0  0  0  0  0  0  0
    0.2743   -1.1742   -0.1312 C   0  0  0  0  0  0  0  0  0  0  0  0
   -1.1680   -0.9779   -0.4086 C   0  0  0  0  0  0  0  0  0  0  0  0
   -1.9003   -0.2161    0.6811 C   0  0  0  0  0  0  0  0  0  0  0  0
   -1.6014    0.9008   -0.2986 C   0  0  0  0  0  0  0  0  0  0  0  0
   -0.2718    1.4888    0.0815 C   0  0  0  0  0  0  0  0  0  0  0  0
    0.6548    1.0949   -0.8709 O   0  0  0  0  0  0  0  0  0  0  0  0
   -1.4637   -0.0250   -1.3538 O   0  0  0  0  0  0  0  0  0  0  0  0
    2.7018   -0.9854    0.6591 H   0  0  0  0  0  0  0  0  0  0  0  0
    3.1748    0.5045   -0.3340 H   0  0  0  0  0  0  0  0  0  0  0  0
    2.1092    0.7066    1.0675 H   0  0  0  0  0  0  0  0  0  0  0  0
    1.6270   -0.4807   -1.6559 H   0  0  0  0  0  0  0  0  0  0  0  0
    0.5741   -2.1640   -0.5876 H   0  0  0  0  0  0  0  0  0  0  0  0
    0.4484   -1.3320    0.9718 H   0  0  0  0  0  0  0  0  0  0  0  0
   -1.7156   -1.9475   -0.5744 H   0  0  0  0  0  0  0  0  0  0  0  0
   -2.9773   -0.4200    0.7567 H   0  0  0  0  0  0  0  0  0  0  0  0
   -1.3623   -0.1131    1.6339 H   0  0  0  0  0  0  0  0  0  0  0  0
   -2.4248    1.5930   -0.4766 H   0  0  0  0  0  0  0  0  0  0  0  0
    0.0969    1.1124    1.0696 H   0  0  0  0  0  0  0  0  0  0  0  0
   -0.3472    2.5867    0.1822 H   0  0  0  0  0  0  0  0  0  0  0  0
  1  2  1  0
  2  3  1  0
  3  4  1  0
  4  5  1  0
  5  6  1  0
  6  7  1  0
  7  8  1  0
  6  9  1  0
  8  2  1  0
  9  4  1  0
  1 10  1  0
  1 11  1  0
  1 12  1  0
  2 13  1  0
  3 14  1  0
  3 15  1  0
  4 16  1  0
  5 17  1  0
  5 18  1  0
  6 19  1  0
  7 20  1  0
  7 21  1  0
M  END
