
     RDKit          3D

 23 23  0  0  0  0  0  0  0  0999 V2000
    0.2226    2.1895   -0.1865 C   0  0  0  0  0  0  0  0  0  0  0  0
   -0.1250    0.8548    0.4246 C   0  0  0  0  0  0  0  0  0  0  0  0
   -1.5842    0.7456    0.4463 C   0  0  0  0  0  0  0  0  0  0  0  0
   -2.3038   -0.3367    0.2328 C   0  0  0  0  0  0  0  0  0  0  0  0
   -1.6143   -1.6164   -0.0677 C   0  0  0  0  0  0  0  0  0  0  0  0
   -0.1569   -1.5882    0.1912 C   0  0  0  0  0  0  0  0  0  0  0  0
    0.5112   -0.2975   -0.2741 C   0  0  0  0  0  0  0  0  0  0  0  0
    1.9816   -0.4632    0.1167 C   0  0  0  0  0  0  0  0  0  0  0  0
    2.7529    0.6297   -0.1786 O   0  0  0  0  0  0  0  0  0  0  0  0
    1.1424    2.2086   -0.7628 H   0  0  0  0  0  0  0  0  0  0  0  0
    0.2678    2.9330    0.6355 H   0  0  0  0  0  0  0  0  0  0  0  0
   -0.6310    2.5427   -0.8364 H   0  0  0  0  0  0  0  0  0  0  0  0
    0.2730    0.8509    1.4763 H   0  0  0  0  0  0  0  0  0  0  0  0
   -2.1715    1.6576    0.6635 H   0  0  0  0  0  0  0  0  0  0  0  0
   -3.3881   -0.3557    0.2625 H   0  0  0  0  0  0  0  0  0  0  0  0
   -2.0683   -2.3827    0.6266 H   0  0  0  0  0  0  0  0  0  0  0  0
   -1.8496   -1.9893   -1.0870 H   0  0  0  0  0  0  0  0  0  0  0  0
    0.0745   -1.6573    1.2885 H   0  0  0  0  0  0  0  0  0  0  0  0
    0.4016   -2.4025   -0.3145 H   0  0  0  0  0  0  0  0  0  0  0  0
    0.4101   -0.2855   -1.3752 H   0  0  0  0  0  0  0  0  0  0  0  0
    2.3708   -1.3793   -0.4001 H   0  0  0  0  0  0  0  0  0  0  0  0
    2.0831   -0.6784    1.1995 H   0  0  0  0  0  0  0  0  0  0  0  0
    3.4012    0.8201    0.5444 H   0  0  0  0  0  0  0  0  0  0  0  0
  1  2  1  0
  2  3  1  0
  3  4  2  0
  4  5  1  0
  5  6  1  0
  6  7  1  0
  7  8  1  0
  8  9  1  0
  7  2  1  0
  1 10  1  0
  1 11  1  0
  1 12  1  0
  2 13  1  0
  3 14  1  0
  4 15  1  0
  5 16  1  0
  5 17  1  0
  6 18  1  0
  6 19  1  0
  7 20  1  0
  8 21  1  0
  8 22  1  0
  9 23  1  0
M  END
