
     RDKit          3D

 23 23  0  0  0  0  0  0  0  0999 V2000
   -1.5955    1.2180   -0.6811 C   0  0  0  0  0  0  0  0  0  0  0  0
   -0.7390    0.6455    0.3986 C   0  0  0  0  0  0  0  0  0  0  0  0
    0.5816    1.3845    0.4302 C   0  0  0  0  0  0  0  0  0  0  0  0
    1.3668    1.1475   -0.6731 O   0  0  0  0  0  0  0  0  0  0  0  0
    2.3664    0.2138   -0.4635 C   0  0  0  0  0  0  0  0  0  0  0  0
    1.7462   -0.9683    0.2949 C   0  0  0  0  0  0  0  0  0  0  0  0
    0.5478   -1.2458   -0.3780 O   0  0  0  0  0  0  0  0  0  0  0  0
   -0.5656   -0.8307    0.3496 C   0  0  0  0  0  0  0  0  0  0  0  0
   -1.7514   -1.5689   -0.1680 C   0  0  0  0  0  0  0  0  0  0  0  0
   -1.2261    2.2514   -0.9545 H   0  0  0  0  0  0  0  0  0  0  0  0
   -2.6583    1.3721   -0.3633 H   0  0  0  0  0  0  0  0  0  0  0  0
   -1.5366    0.6556   -1.6465 H   0  0  0  0  0  0  0  0  0  0  0  0
   -1.2379    0.9024    1.3795 H   0  0  0  0  0  0  0  0  0  0  0  0
    1.1127    1.2352    1.3987 H   0  0  0  0  0  0  0  0  0  0  0  0
    0.3154    2.4820    0.4246 H   0  0  0  0  0  0  0  0  0  0  0  0
    3.2468    0.5879    0.0509 H   0  0  0  0  0  0  0  0  0  0  0  0
    2.6517   -0.2160   -1.4623 H   0  0  0  0  0  0  0  0  0  0  0  0
    2.3753   -1.8653    0.1900 H   0  0  0  0  0  0  0  0  0  0  0  0
    1.5971   -0.7469    1.3536 H   0  0  0  0  0  0  0  0  0  0  0  0
   -0.3842   -1.1985    1.4032 H   0  0  0  0  0  0  0  0  0  0  0  0
   -1.4339   -2.5145   -0.6919 H   0  0  0  0  0  0  0  0  0  0  0  0
   -2.3965   -1.9129    0.6741 H   0  0  0  0  0  0  0  0  0  0  0  0
   -2.3829   -1.0283   -0.8656 H   0  0  0  0  0  0  0  0  0  0  0  0
  1  2  1  0
  2  3  1  0
  3  4  1  0
  4  5  1  0
  5  6  1  0
  6  7  1  0
  7  8  1  0
  8  9  1  0
  8  2  1  0
  1 10  1  0
  1 11  1  0
  1 12  1  0
  2 13  1  0
  3 14  1  0
  3 15  1  0
  5 16  1  0
  5 17  1  0
  6 18  1  0
  6 19  1  0
  8 20  1  0
  9 21  1  0
  9 22  1  0
  9 23  1  0
M  END
