
     RDKit          3D

 23 24  0  0  0  0  0  0  0  0999 V2000
    0.5160    1.8264   -0.1005 C   0  0  0  0  0  0  0  0  0  0  0  0
    0.2893    0.5546    0.6272 C   0  0  0  0  0  0  0  0  0  0  0  0
    0.8048   -0.7040    0.0057 C   0  0  0  0  0  0  0  0  0  0  0  0
    2.1547   -1.1625    0.2805 C   0  0  0  0  0  0  0  0  0  0  0  0
    0.3288   -0.6224   -1.4311 C   0  0  0  0  0  0  0  0  0  0  0  0
   -1.1448   -0.2854   -1.1197 C   0  0  0  0  0  0  0  0  0  0  0  0
   -0.9912   -0.1757    0.3829 C   0  0  0  0  0  0  0  0  0  0  0  0
   -2.1624    0.1013    1.1979 C   0  0  0  0  0  0  0  0  0  0  0  0
   -0.2694   -1.3666    0.6441 O   0  0  0  0  0  0  0  0  0  0  0  0
   -0.0520    1.9743   -1.0136 H   0  0  0  0  0  0  0  0  0  0  0  0
    1.6024    1.9726   -0.3721 H   0  0  0  0  0  0  0  0  0  0  0  0
    0.2637    2.6690    0.5888 H   0  0  0  0  0  0  0  0  0  0  0  0
    0.4742    0.6488    1.7138 H   0  0  0  0  0  0  0  0  0  0  0  0
    2.1261   -1.9651    1.0723 H   0  0  0  0  0  0  0  0  0  0  0  0
    2.8505   -0.3951    0.6609 H   0  0  0  0  0  0  0  0  0  0  0  0
    2.5760   -1.6910   -0.6216 H   0  0  0  0  0  0  0  0  0  0  0  0
    0.4239   -1.5864   -1.9354 H   0  0  0  0  0  0  0  0  0  0  0  0
    0.8194    0.2190   -1.9489 H   0  0  0  0  0  0  0  0  0  0  0  0
   -1.4670    0.6301   -1.6041 H   0  0  0  0  0  0  0  0  0  0  0  0
   -1.7450   -1.1312   -1.4426 H   0  0  0  0  0  0  0  0  0  0  0  0
   -3.0727   -0.2828    0.7379 H   0  0  0  0  0  0  0  0  0  0  0  0
   -2.0534   -0.4172    2.1960 H   0  0  0  0  0  0  0  0  0  0  0  0
   -2.2718    1.1893    1.4813 H   0  0  0  0  0  0  0  0  0  0  0  0
  1  2  1  0
  2  3  1  0
  3  4  1  0
  3  5  1  0
  5  6  1  0
  6  7  1  0
  7  8  1  0
  7  9  1  0
  7  2  1  0
  9  3  1  0
  1 10  1  0
  1 11  1  0
  1 12  1  0
  2 13  1  0
  4 14  1  0
  4 15  1  0
  4 16  1  0
  5 17  1  0
  5 18  1  0
  6 19  1  0
  6 20  1  0
  8 21  1  0
  8 22  1  0
  8 23  1  0
M  END
