
     RDKit          3D

 21 21  0  0  0  0  0  0  0  0999 V2000
   -0.1247   -1.8665   -0.7852 C   0  0  0  0  0  0  0  0  0  0  0  0
   -0.2588   -0.8705    0.3646 C   0  0  0  0  0  0  0  0  0  0  0  0
    1.0690   -0.4955    0.9266 C   0  0  0  0  0  0  0  0  0  0  0  0
    1.4375    0.9407    0.8036 C   0  0  0  0  0  0  0  0  0  0  0  0
    0.9752    1.4413   -0.5705 C   0  0  0  0  0  0  0  0  0  0  0  0
   -0.4977    1.4163   -0.5251 C   0  0  0  0  0  0  0  0  0  0  0  0
   -1.0647    0.3193   -0.0819 C   0  0  0  0  0  0  0  0  0  0  0  0
   -2.5272    0.2901   -0.0351 C   0  0  0  0  0  0  0  0  0  0  0  0
   -3.0619   -0.7611    0.3895 O   0  0  0  0  0  0  0  0  0  0  0  0
   -0.3451   -1.3786   -1.7668 H   0  0  0  0  0  0  0  0  0  0  0  0
   -0.7155   -2.7784   -0.6228 H   0  0  0  0  0  0  0  0  0  0  0  0
    0.9467   -2.1753   -0.8144 H   0  0  0  0  0  0  0  0  0  0  0  0
   -0.9041   -1.3754    1.1309 H   0  0  0  0  0  0  0  0  0  0  0  0
    1.8517   -1.0995    0.3815 H   0  0  0  0  0  0  0  0  0  0  0  0
    1.0885   -0.7831    2.0034 H   0  0  0  0  0  0  0  0  0  0  0  0
    2.5561    1.0292    0.8511 H   0  0  0  0  0  0  0  0  0  0  0  0
    1.0157    1.5862    1.6041 H   0  0  0  0  0  0  0  0  0  0  0  0
    1.3808    0.6974   -1.2951 H   0  0  0  0  0  0  0  0  0  0  0  0
    1.3483    2.4631   -0.7625 H   0  0  0  0  0  0  0  0  0  0  0  0
   -1.0421    2.2736   -0.8477 H   0  0  0  0  0  0  0  0  0  0  0  0
   -3.1277    1.1267   -0.3483 H   0  0  0  0  0  0  0  0  0  0  0  0
  1  2  1  0
  2  3  1  0
  3  4  1  0
  4  5  1  0
  5  6  1  0
  6  7  2  0
  7  8  1  0
  8  9  2  0
  7  2  1  0
  1 10  1  0
  1 11  1  0
  1 12  1  0
  2 13  1  0
  3 14  1  0
  3 15  1  0
  4 16  1  0
  4 17  1  0
  5 18  1  0
  5 19  1  0
  6 20  1  0
  8 21  1  0
M  END
