
     RDKit          3D

 23 24  0  0  0  0  0  0  0  0999 V2000
    2.8378   -0.0234   -0.1186 C   0  0  0  0  0  0  0  0  0  0  0  0
    1.4092    0.3522    0.0693 C   0  0  0  0  0  0  0  0  0  0  0  0
    0.4707   -0.7103   -0.4616 C   0  0  0  0  0  0  0  0  0  0  0  0
   -0.9546   -0.3866   -0.0881 C   0  0  0  0  0  0  0  0  0  0  0  0
   -1.2857    1.0668   -0.3013 C   0  0  0  0  0  0  0  0  0  0  0  0
   -0.1372    1.9587    0.1354 C   0  0  0  0  0  0  0  0  0  0  0  0
    1.0662    1.5779   -0.4844 O   0  0  0  0  0  0  0  0  0  0  0  0
   -1.9934   -1.3865   -0.4427 C   0  0  0  0  0  0  0  0  0  0  0  0
   -1.6253   -1.1835    0.9718 C   0  0  0  0  0  0  0  0  0  0  0  0
    3.2306    0.2392   -1.1082 H   0  0  0  0  0  0  0  0  0  0  0  0
    3.5020    0.3535    0.6946 H   0  0  0  0  0  0  0  0  0  0  0  0
    2.8980   -1.1474   -0.0317 H   0  0  0  0  0  0  0  0  0  0  0  0
    1.1973    0.4378    1.1668 H   0  0  0  0  0  0  0  0  0  0  0  0
    0.5779   -0.8616   -1.5500 H   0  0  0  0  0  0  0  0  0  0  0  0
    0.7637   -1.6621    0.0586 H   0  0  0  0  0  0  0  0  0  0  0  0
   -2.1594    1.3653    0.3128 H   0  0  0  0  0  0  0  0  0  0  0  0
   -1.4734    1.2116   -1.3819 H   0  0  0  0  0  0  0  0  0  0  0  0
   -0.3812    3.0041   -0.0419 H   0  0  0  0  0  0  0  0  0  0  0  0
    0.0187    1.7345    1.2248 H   0  0  0  0  0  0  0  0  0  0  0  0
   -2.9918   -1.0345   -0.7750 H   0  0  0  0  0  0  0  0  0  0  0  0
   -1.6495   -2.2813   -1.0123 H   0  0  0  0  0  0  0  0  0  0  0  0
   -2.3691   -0.7271    1.6537 H   0  0  0  0  0  0  0  0  0  0  0  0
   -0.9516   -1.8971    1.5101 H   0  0  0  0  0  0  0  0  0  0  0  0
  1  2  1  0
  2  3  1  0
  3  4  1  0
  4  5  1  0
  5  6  1  0
  6  7  1  0
  4  8  1  0
  8  9  1  0
  7  2  1  0
  9  4  1  0
  1 10  1  0
  1 11  1  0
  1 12  1  0
  2 13  1  0
  3 14  1  0
  3 15  1  0
  5 16  1  0
  5 17  1  0
  6 18  1  0
  6 19  1  0
  8 20  1  0
  8 21  1  0
  9 22  1  0
  9 23  1  0
M  END
