
     RDKit          3D

 21 22  0  0  0  0  0  0  0  0999 V2000
    1.7428   -0.4383   -0.8372 C   0  0  0  0  0  0  0  0  0  0  0  0
    0.9823   -0.0476    0.3698 C   0  0  0  0  0  0  0  0  0  0  0  0
   -0.0806   -1.0974    0.7448 C   0  0  0  0  0  0  0  0  0  0  0  0
   -0.8400   -0.2742    1.7464 C   0  0  0  0  0  0  0  0  0  0  0  0
   -0.7767    1.0063    1.4030 C   0  0  0  0  0  0  0  0  0  0  0  0
   -0.0560    1.0492    0.1026 C   0  0  0  0  0  0  0  0  0  0  0  0
    0.4479    2.2284   -0.2642 O   0  0  0  0  0  0  0  0  0  0  0  0
   -0.9417    0.3452   -0.8933 C   0  0  0  0  0  0  0  0  0  0  0  0
   -0.8901   -1.1327   -0.5051 C   0  0  0  0  0  0  0  0  0  0  0  0
    2.1334   -1.4854   -0.6661 H   0  0  0  0  0  0  0  0  0  0  0  0
    1.1426   -0.3618   -1.7503 H   0  0  0  0  0  0  0  0  0  0  0  0
    2.6340    0.1940   -0.9274 H   0  0  0  0  0  0  0  0  0  0  0  0
    1.5708    0.2667    1.2248 H   0  0  0  0  0  0  0  0  0  0  0  0
    0.3177   -2.0085    1.1139 H   0  0  0  0  0  0  0  0  0  0  0  0
   -1.3430   -0.6843    2.5940 H   0  0  0  0  0  0  0  0  0  0  0  0
   -1.1501    1.8727    1.9172 H   0  0  0  0  0  0  0  0  0  0  0  0
    0.0714    2.6176   -1.1003 H   0  0  0  0  0  0  0  0  0  0  0  0
   -0.6868    0.5222   -1.9332 H   0  0  0  0  0  0  0  0  0  0  0  0
   -1.9946    0.6670   -0.6994 H   0  0  0  0  0  0  0  0  0  0  0  0
   -0.4033   -1.6885   -1.3323 H   0  0  0  0  0  0  0  0  0  0  0  0
   -1.8802   -1.5506   -0.3075 H   0  0  0  0  0  0  0  0  0  0  0  0
  1  2  1  0
  2  3  1  0
  3  4  1  0
  4  5  2  0
  5  6  1  0
  6  7  1  0
  6  8  1  0
  8  9  1  0
  6  2  1  0
  9  3  1  0
  1 10  1  0
  1 11  1  0
  1 12  1  0
  2 13  1  0
  3 14  1  0
  4 15  1  0
  5 16  1  0
  7 17  1  0
  8 18  1  0
  8 19  1  0
  9 20  1  0
  9 21  1  0
M  END
