
     RDKit          3D

 21 22  0  0  0  0  0  0  0  0999 V2000
   -1.9970   -0.0848   -0.9913 C   0  0  0  0  0  0  0  0  0  0  0  0
   -0.9035    0.6844   -0.3382 C   0  0  0  0  0  0  0  0  0  0  0  0
    0.4127    0.7377   -1.0643 C   0  0  0  0  0  0  0  0  0  0  0  0
    0.5766   -0.7093   -0.7069 C   0  0  0  0  0  0  0  0  0  0  0  0
    1.8717   -1.1701   -0.5900 O   0  0  0  0  0  0  0  0  0  0  0  0
    0.0338   -0.0986    0.5520 C   0  0  0  0  0  0  0  0  0  0  0  0
   -0.2403   -0.6912    1.7453 C   0  0  0  0  0  0  0  0  0  0  0  0
    1.0116    1.0311    0.2877 C   0  0  0  0  0  0  0  0  0  0  0  0
    2.3373    0.7236    0.4416 O   0  0  0  0  0  0  0  0  0  0  0  0
   -2.9760    0.3255   -0.6078 H   0  0  0  0  0  0  0  0  0  0  0  0
   -2.0190   -1.1610   -0.7344 H   0  0  0  0  0  0  0  0  0  0  0  0
   -2.0423    0.0454   -2.0879 H   0  0  0  0  0  0  0  0  0  0  0  0
   -1.1887    1.6786    0.0254 H   0  0  0  0  0  0  0  0  0  0  0  0
    0.6176    1.1904   -1.9293 H   0  0  0  0  0  0  0  0  0  0  0  0
   -0.0591   -1.4113   -1.2438 H   0  0  0  0  0  0  0  0  0  0  0  0
    2.3760   -1.1548   -1.4442 H   0  0  0  0  0  0  0  0  0  0  0  0
    0.5352   -0.5398    2.5539 H   0  0  0  0  0  0  0  0  0  0  0  0
   -1.1959   -0.3503    2.2451 H   0  0  0  0  0  0  0  0  0  0  0  0
   -0.3580   -1.8149    1.7148 H   0  0  0  0  0  0  0  0  0  0  0  0
    0.6452    1.9592    0.7704 H   0  0  0  0  0  0  0  0  0  0  0  0
    2.5622    0.8102    1.4018 H   0  0  0  0  0  0  0  0  0  0  0  0
  1  2  1  0
  2  3  1  0
  3  4  1  0
  4  5  1  0
  4  6  1  0
  6  7  1  0
  6  8  1  0
  8  9  1  0
  6  2  1  0
  8  3  1  0
  1 10  1  0
  1 11  1  0
  1 12  1  0
  2 13  1  0
  3 14  1  0
  4 15  1  0
  5 16  1  0
  7 17  1  0
  7 18  1  0
  7 19  1  0
  8 20  1  0
  9 21  1  0
M  END
