
     RDKit          3D

 19 20  0  0  0  0  0  0  0  0999 V2000
   -2.2569    0.0754    0.3348 C   0  0  0  0  0  0  0  0  0  0  0  0
   -1.0339   -0.1755   -0.5491 C   0  0  0  0  0  0  0  0  0  0  0  0
   -0.2852    1.0850   -0.6822 C   0  0  0  0  0  0  0  0  0  0  0  0
    1.0311    1.3936   -0.6076 C   0  0  0  0  0  0  0  0  0  0  0  0
    2.0674    0.4060   -0.3496 C   0  0  0  0  0  0  0  0  0  0  0  0
    2.8655    0.2373    0.6958 O   0  0  0  0  0  0  0  0  0  0  0  0
    1.6645   -0.1931    1.0195 C   0  0  0  0  0  0  0  0  0  0  0  0
    0.9286   -1.3890    0.6335 C   0  0  0  0  0  0  0  0  0  0  0  0
   -0.2325   -1.3162   -0.0438 C   0  0  0  0  0  0  0  0  0  0  0  0
   -2.7066    1.0257   -0.0182 H   0  0  0  0  0  0  0  0  0  0  0  0
   -2.9643   -0.7741    0.2362 H   0  0  0  0  0  0  0  0  0  0  0  0
   -1.9136    0.2378    1.3772 H   0  0  0  0  0  0  0  0  0  0  0  0
   -1.4571   -0.4730   -1.5447 H   0  0  0  0  0  0  0  0  0  0  0  0
   -0.9417    1.9356   -0.8818 H   0  0  0  0  0  0  0  0  0  0  0  0
    1.2902    2.4372   -0.7520 H   0  0  0  0  0  0  0  0  0  0  0  0
    2.2410   -0.2950   -1.1958 H   0  0  0  0  0  0  0  0  0  0  0  0
    1.0894    0.4623    1.7177 H   0  0  0  0  0  0  0  0  0  0  0  0
    1.2938   -2.3807    0.8803 H   0  0  0  0  0  0  0  0  0  0  0  0
   -0.6796   -2.2993   -0.2700 H   0  0  0  0  0  0  0  0  0  0  0  0
  1  2  1  0
  2  3  1  0
  3  4  2  0
  4  5  1  0
  5  6  1  0
  6  7  1  0
  7  8  1  0
  8  9  2  0
  9  2  1  0
  7  5  1  0
  1 10  1  0
  1 11  1  0
  1 12  1  0
  2 13  1  0
  3 14  1  0
  4 15  1  0
  5 16  1  0
  7 17  1  0
  8 18  1  0
  9 19  1  0
M  END
