
     RDKit          3D

 25 26  0  0  0  0  0  0  0  0999 V2000
   -2.0543    1.5833   -1.2514 C   0  0  0  0  0  0  0  0  0  0  0  0
   -0.9386    1.0763   -0.3871 C   0  0  0  0  0  0  0  0  0  0  0  0
   -1.1699    0.1260    0.7202 C   0  0  0  0  0  0  0  0  0  0  0  0
   -2.5446   -0.4482    0.9804 C   0  0  0  0  0  0  0  0  0  0  0  0
   -0.5463   -0.3396   -0.5704 C   0  0  0  0  0  0  0  0  0  0  0  0
    0.8555   -0.8024   -0.5225 C   0  0  0  0  0  0  0  0  0  0  0  0
    1.6066   -0.5718    0.7454 C   0  0  0  0  0  0  0  0  0  0  0  0
    3.0829   -1.0857    0.6953 C   0  0  0  0  0  0  0  0  0  0  0  0
    2.7894    0.3642    0.6362 C   0  0  0  0  0  0  0  0  0  0  0  0
   -2.6365    2.3979   -0.7937 H   0  0  0  0  0  0  0  0  0  0  0  0
   -1.5671    2.0417   -2.1613 H   0  0  0  0  0  0  0  0  0  0  0  0
   -2.6944    0.7731   -1.6508 H   0  0  0  0  0  0  0  0  0  0  0  0
   -0.1326    1.8345   -0.2271 H   0  0  0  0  0  0  0  0  0  0  0  0
   -0.5927    0.2696    1.6396 H   0  0  0  0  0  0  0  0  0  0  0  0
   -3.1341   -0.3870    0.0457 H   0  0  0  0  0  0  0  0  0  0  0  0
   -2.3895   -1.5467    1.1684 H   0  0  0  0  0  0  0  0  0  0  0  0
   -3.0373   -0.0339    1.8604 H   0  0  0  0  0  0  0  0  0  0  0  0
   -1.1820   -0.9346   -1.2787 H   0  0  0  0  0  0  0  0  0  0  0  0
    1.4603   -0.4399   -1.4076 H   0  0  0  0  0  0  0  0  0  0  0  0
    0.8550   -1.9268   -0.6731 H   0  0  0  0  0  0  0  0  0  0  0  0
    1.1141   -0.7063    1.7263 H   0  0  0  0  0  0  0  0  0  0  0  0
    3.4037   -1.5756   -0.2415 H   0  0  0  0  0  0  0  0  0  0  0  0
    3.4634   -1.5575    1.6137 H   0  0  0  0  0  0  0  0  0  0  0  0
    3.0451    0.9732    1.5495 H   0  0  0  0  0  0  0  0  0  0  0  0
    2.9438    0.9162   -0.3197 H   0  0  0  0  0  0  0  0  0  0  0  0
  1  2  1  0
  2  3  1  0
  3  4  1  0
  3  5  1  0
  5  6  1  0
  6  7  1  0
  7  8  1  0
  8  9  1  0
  5  2  1  0
  9  7  1  0
  1 10  1  0
  1 11  1  0
  1 12  1  0
  2 13  1  0
  3 14  1  0
  4 15  1  0
  4 16  1  0
  4 17  1  0
  5 18  1  0
  6 19  1  0
  6 20  1  0
  7 21  1  0
  8 22  1  0
  8 23  1  0
  9 24  1  0
  9 25  1  0
M  END
