
     RDKit          3D

 19 20  0  0  0  0  0  0  0  0999 V2000
   -1.9174   -0.3342    0.0978 C   0  0  0  0  0  0  0  0  0  0  0  0
   -0.7935    0.4571   -0.5281 C   0  0  0  0  0  0  0  0  0  0  0  0
   -0.1967    1.4382    0.4872 C   0  0  0  0  0  0  0  0  0  0  0  0
    0.9997    0.7512    1.0429 C   0  0  0  0  0  0  0  0  0  0  0  0
    1.3449    0.9019    2.2000 O   0  0  0  0  0  0  0  0  0  0  0  0
    1.7537   -0.1275    0.1202 C   0  0  0  0  0  0  0  0  0  0  0  0
    0.9084   -1.3581   -0.1438 C   0  0  0  0  0  0  0  0  0  0  0  0
    0.2620   -0.4212   -1.0785 C   0  0  0  0  0  0  0  0  0  0  0  0
    1.4944    0.2567   -1.2024 O   0  0  0  0  0  0  0  0  0  0  0  0
   -1.5789   -1.3438    0.3946 H   0  0  0  0  0  0  0  0  0  0  0  0
   -2.2516    0.1696    1.0388 H   0  0  0  0  0  0  0  0  0  0  0  0
   -2.7467   -0.4721   -0.6134 H   0  0  0  0  0  0  0  0  0  0  0  0
   -1.1982    1.0763   -1.3552 H   0  0  0  0  0  0  0  0  0  0  0  0
    0.1999    2.3295   -0.0781 H   0  0  0  0  0  0  0  0  0  0  0  0
   -0.9151    1.7572    1.2363 H   0  0  0  0  0  0  0  0  0  0  0  0
    2.7893   -0.3427    0.3673 H   0  0  0  0  0  0  0  0  0  0  0  0
    1.4566   -2.1639   -0.7001 H   0  0  0  0  0  0  0  0  0  0  0  0
    0.4010   -1.6781    0.7543 H   0  0  0  0  0  0  0  0  0  0  0  0
   -0.0118   -0.8962   -2.0398 H   0  0  0  0  0  0  0  0  0  0  0  0
  1  2  1  0
  2  3  1  0
  3  4  1  0
  4  5  2  0
  4  6  1  0
  6  7  1  0
  7  8  1  0
  8  9  1  0
  8  2  1  0
  9  6  1  0
  1 10  1  0
  1 11  1  0
  1 12  1  0
  2 13  1  0
  3 14  1  0
  3 15  1  0
  6 16  1  0
  7 17  1  0
  7 18  1  0
  8 19  1  0
M  END
