
     RDKit          3D

 18 18  0  0  0  0  0  0  0  0999 V2000
    2.1781   -0.2823   -0.2150 C   0  0  0  0  0  0  0  0  0  0  0  0
    0.8678    0.2906    0.2827 C   0  0  0  0  0  0  0  0  0  0  0  0
    0.0957    0.8147   -0.9120 C   0  0  0  0  0  0  0  0  0  0  0  0
   -1.3143    1.1401   -0.5739 C   0  0  0  0  0  0  0  0  0  0  0  0
   -2.0040    0.2927    0.1642 C   0  0  0  0  0  0  0  0  0  0  0  0
   -1.3868   -0.9653    0.6511 C   0  0  0  0  0  0  0  0  0  0  0  0
    0.0556   -0.7819    0.9393 C   0  0  0  0  0  0  0  0  0  0  0  0
    0.5986   -1.5195    1.7292 O   0  0  0  0  0  0  0  0  0  0  0  0
    1.9778   -1.3142   -0.5679 H   0  0  0  0  0  0  0  0  0  0  0  0
    2.5607    0.3771   -1.0200 H   0  0  0  0  0  0  0  0  0  0  0  0
    2.9215   -0.3786    0.6054 H   0  0  0  0  0  0  0  0  0  0  0  0
    1.0200    1.1510    0.9628 H   0  0  0  0  0  0  0  0  0  0  0  0
    0.1304    0.0079   -1.6965 H   0  0  0  0  0  0  0  0  0  0  0  0
    0.5541    1.7043   -1.3515 H   0  0  0  0  0  0  0  0  0  0  0  0
   -1.7905    2.0606   -0.9208 H   0  0  0  0  0  0  0  0  0  0  0  0
   -3.0414    0.4713    0.4473 H   0  0  0  0  0  0  0  0  0  0  0  0
   -1.5340   -1.7461   -0.1044 H   0  0  0  0  0  0  0  0  0  0  0  0
   -1.8893   -1.3223    1.5802 H   0  0  0  0  0  0  0  0  0  0  0  0
  1  2  1  0
  2  3  1  0
  3  4  1  0
  4  5  2  0
  5  6  1  0
  6  7  1  0
  7  8  2  0
  7  2  1  0
  1  9  1  0
  1 10  1  0
  1 11  1  0
  2 12  1  0
  3 13  1  0
  3 14  1  0
  4 15  1  0
  5 16  1  0
  6 17  1  0
  6 18  1  0
M  END
