
     RDKit          3D

 17 18  0  0  0  0  0  0  0  0999 V2000
    3.0661    0.4689    0.0262 C   0  0  0  0  0  0  0  0  0  0  0  0
    1.5965    0.1967    0.0172 C   0  0  0  0  0  0  0  0  0  0  0  0
    0.9922   -1.0429    0.1403 C   0  0  0  0  0  0  0  0  0  0  0  0
   -0.3797   -0.8550    0.0823 C   0  0  0  0  0  0  0  0  0  0  0  0
   -0.5424    0.4997   -0.0745 C   0  0  0  0  0  0  0  0  0  0  0  0
    0.6453    1.0905   -0.1089 O   0  0  0  0  0  0  0  0  0  0  0  0
   -2.0006    0.7515   -0.1421 C   0  0  0  0  0  0  0  0  0  0  0  0
   -2.6129   -0.5565    0.3124 C   0  0  0  0  0  0  0  0  0  0  0  0
   -1.5961   -1.5226    0.1245 O   0  0  0  0  0  0  0  0  0  0  0  0
    3.3607    0.7224   -0.9973 H   0  0  0  0  0  0  0  0  0  0  0  0
    3.6139   -0.3992    0.4526 H   0  0  0  0  0  0  0  0  0  0  0  0
    3.2256    1.3649    0.6852 H   0  0  0  0  0  0  0  0  0  0  0  0
    1.5023   -1.9878    0.2603 H   0  0  0  0  0  0  0  0  0  0  0  0
   -2.2609    0.9819   -1.1961 H   0  0  0  0  0  0  0  0  0  0  0  0
   -2.2772    1.5892    0.5302 H   0  0  0  0  0  0  0  0  0  0  0  0
   -3.4597   -0.8404   -0.3259 H   0  0  0  0  0  0  0  0  0  0  0  0
   -2.8729   -0.4614    1.3793 H   0  0  0  0  0  0  0  0  0  0  0  0
  1  2  1  0
  2  3  2  0
  3  4  1  0
  4  5  2  0
  5  6  1  0
  5  7  1  0
  7  8  1  0
  8  9  1  0
  6  2  1  0
  9  4  1  0
  1 10  1  0
  1 11  1  0
  1 12  1  0
  3 13  1  0
  7 14  1  0
  7 15  1  0
  8 16  1  0
  8 17  1  0
M  END
