
     RDKit          3D

 23 24  0  0  0  0  0  0  0  0999 V2000
    2.3832   -0.1033   -0.0909 C   0  0  0  0  0  0  0  0  0  0  0  0
    1.0124    0.0191   -0.6882 C   0  0  0  0  0  0  0  0  0  0  0  0
    0.2172   -1.2441   -0.6285 C   0  0  0  0  0  0  0  0  0  0  0  0
   -0.6404   -1.1826    0.6233 C   0  0  0  0  0  0  0  0  0  0  0  0
   -0.0305   -0.0031    1.3891 C   0  0  0  0  0  0  0  0  0  0  0  0
    0.1776    0.9412    0.2150 C   0  0  0  0  0  0  0  0  0  0  0  0
   -1.0941    1.2215   -0.5085 C   0  0  0  0  0  0  0  0  0  0  0  0
   -2.1977    0.2794   -0.2787 C   0  0  0  0  0  0  0  0  0  0  0  0
   -1.9384   -0.8766    0.3661 O   0  0  0  0  0  0  0  0  0  0  0  0
    3.1635    0.2443   -0.8175 H   0  0  0  0  0  0  0  0  0  0  0  0
    2.5041    0.5717    0.7943 H   0  0  0  0  0  0  0  0  0  0  0  0
    2.6378   -1.1467    0.1851 H   0  0  0  0  0  0  0  0  0  0  0  0
    1.0075    0.5088   -1.6819 H   0  0  0  0  0  0  0  0  0  0  0  0
    0.8066   -2.1571   -0.7017 H   0  0  0  0  0  0  0  0  0  0  0  0
   -0.5117   -1.2081   -1.4907 H   0  0  0  0  0  0  0  0  0  0  0  0
   -0.5920   -2.1112    1.2157 H   0  0  0  0  0  0  0  0  0  0  0  0
   -0.6943    0.3922    2.1495 H   0  0  0  0  0  0  0  0  0  0  0  0
    0.9502   -0.3571    1.7483 H   0  0  0  0  0  0  0  0  0  0  0  0
    0.7770    1.8123    0.4702 H   0  0  0  0  0  0  0  0  0  0  0  0
   -0.8451    1.2671   -1.6093 H   0  0  0  0  0  0  0  0  0  0  0  0
   -1.3870    2.2842   -0.2608 H   0  0  0  0  0  0  0  0  0  0  0  0
   -3.0100    0.8199    0.2918 H   0  0  0  0  0  0  0  0  0  0  0  0
   -2.6959    0.0281   -1.2615 H   0  0  0  0  0  0  0  0  0  0  0  0
  1  2  1  0
  2  3  1  0
  3  4  1  0
  4  5  1  0
  5  6  1  0
  6  7  1  0
  7  8  1  0
  8  9  1  0
  6  2  1  0
  9  4  1  0
  1 10  1  0
  1 11  1  0
  1 12  1  0
  2 13  1  0
  3 14  1  0
  3 15  1  0
  4 16  1  0
  5 17  1  0
  5 18  1  0
  6 19  1  0
  7 20  1  0
  7 21  1  0
  8 22  1  0
  8 23  1  0
M  END
