
     RDKit          3D

 23 24  0  0  0  0  0  0  0  0999 V2000
    2.2906   -0.0932   -0.8496 C   0  0  0  0  0  0  0  0  0  0  0  0
    1.6400   -0.0252    0.5009 C   0  0  0  0  0  0  0  0  0  0  0  0
    0.5334   -1.0857    0.5793 C   0  0  0  0  0  0  0  0  0  0  0  0
   -0.4383    0.0024    0.3272 C   0  0  0  0  0  0  0  0  0  0  0  0
   -1.7443   -0.0310    1.0100 C   0  0  0  0  0  0  0  0  0  0  0  0
   -2.2825   -0.7240   -0.2518 C   0  0  0  0  0  0  0  0  0  0  0  0
   -1.1487    0.0030   -0.9940 C   0  0  0  0  0  0  0  0  0  0  0  0
    0.5421    1.0444    0.6073 C   0  0  0  0  0  0  0  0  0  0  0  0
    0.7714    1.9833   -0.4141 O   0  0  0  0  0  0  0  0  0  0  0  0
    2.0980    0.8503   -1.3698 H   0  0  0  0  0  0  0  0  0  0  0  0
    3.3728   -0.1920   -0.7093 H   0  0  0  0  0  0  0  0  0  0  0  0
    1.8981   -0.9253   -1.4824 H   0  0  0  0  0  0  0  0  0  0  0  0
    2.2994   -0.0939    1.3642 H   0  0  0  0  0  0  0  0  0  0  0  0
    0.4399   -1.5560    1.5701 H   0  0  0  0  0  0  0  0  0  0  0  0
    0.5477   -1.8168   -0.2440 H   0  0  0  0  0  0  0  0  0  0  0  0
   -2.2176    0.9495    1.1970 H   0  0  0  0  0  0  0  0  0  0  0  0
   -1.7468   -0.6531    1.9083 H   0  0  0  0  0  0  0  0  0  0  0  0
   -3.2845   -0.4214   -0.5497 H   0  0  0  0  0  0  0  0  0  0  0  0
   -2.0432   -1.7995   -0.2461 H   0  0  0  0  0  0  0  0  0  0  0  0
   -0.6287   -0.5967   -1.7373 H   0  0  0  0  0  0  0  0  0  0  0  0
   -1.4715    1.0220   -1.2911 H   0  0  0  0  0  0  0  0  0  0  0  0
    0.5396    1.5479    1.5971 H   0  0  0  0  0  0  0  0  0  0  0  0
    0.0331    2.6110   -0.5220 H   0  0  0  0  0  0  0  0  0  0  0  0
  1  2  1  0
  2  3  1  0
  3  4  1  0
  4  5  1  0
  5  6  1  0
  6  7  1  0
  4  8  1  0
  8  9  1  0
  8  2  1  0
  7  4  1  0
  1 10  1  0
  1 11  1  0
  1 12  1  0
  2 13  1  0
  3 14  1  0
  3 15  1  0
  5 16  1  0
  5 17  1  0
  6 18  1  0
  6 19  1  0
  7 20  1  0
  7 21  1  0
  8 22  1  0
  9 23  1  0
M  END
