
     RDKit          3D

 19 21  0  0  0  0  0  0  0  0999 V2000
   -2.6304    0.2060   -0.0862 C   0  0  0  0  0  0  0  0  0  0  0  0
   -1.2500    0.1124   -0.6601 C   0  0  0  0  0  0  0  0  0  0  0  0
   -0.3079   -0.8646   -0.0231 C   0  0  0  0  0  0  0  0  0  0  0  0
    1.0646   -1.0686   -0.5775 C   0  0  0  0  0  0  0  0  0  0  0  0
    1.1381   -0.0567   -1.5489 O   0  0  0  0  0  0  0  0  0  0  0  0
    1.1774    0.8323   -0.4633 C   0  0  0  0  0  0  0  0  0  0  0  0
    1.9727   -0.1934    0.2722 C   0  0  0  0  0  0  0  0  0  0  0  0
    1.6627   -0.1832    1.6246 O   0  0  0  0  0  0  0  0  0  0  0  0
   -0.1850    0.6901    0.1763 C   0  0  0  0  0  0  0  0  0  0  0  0
   -2.8170    1.3010    0.1190 H   0  0  0  0  0  0  0  0  0  0  0  0
   -2.6254   -0.2735    0.9110 H   0  0  0  0  0  0  0  0  0  0  0  0
   -3.4244   -0.1551   -0.7452 H   0  0  0  0  0  0  0  0  0  0  0  0
   -1.1681    0.3302   -1.7531 H   0  0  0  0  0  0  0  0  0  0  0  0
   -0.6966   -1.4270    0.8176 H   0  0  0  0  0  0  0  0  0  0  0  0
    1.4047   -2.0442   -0.8397 H   0  0  0  0  0  0  0  0  0  0  0  0
    1.5716    1.8088   -0.6263 H   0  0  0  0  0  0  0  0  0  0  0  0
    3.0292   -0.2844    0.0331 H   0  0  0  0  0  0  0  0  0  0  0  0
    2.4260    0.0926    2.1549 H   0  0  0  0  0  0  0  0  0  0  0  0
   -0.3422    1.0054    1.2147 H   0  0  0  0  0  0  0  0  0  0  0  0
  1  2  1  0
  2  3  1  0
  3  4  1  0
  4  5  1  0
  5  6  1  0
  6  7  1  0
  7  8  1  0
  6  9  1  0
  9  2  1  0
  9  3  1  0
  7  4  1  0
  1 10  1  0
  1 11  1  0
  1 12  1  0
  2 13  1  0
  3 14  1  0
  4 15  1  0
  6 16  1  0
  7 17  1  0
  8 18  1  0
  9 19  1  0
M  END
