
     RDKit          3D

 17 17  0  0  0  0  0  0  0  0999 V2000
    1.9679    0.2804   -0.2572 C   0  0  0  0  0  0  0  0  0  0  0  0
    0.6824   -0.1733    0.3461 C   0  0  0  0  0  0  0  0  0  0  0  0
    0.0475   -1.2879   -0.4085 C   0  0  0  0  0  0  0  0  0  0  0  0
    0.5069   -2.0340   -1.2473 O   0  0  0  0  0  0  0  0  0  0  0  0
   -1.3624   -1.3067    0.1067 C   0  0  0  0  0  0  0  0  0  0  0  0
   -1.6784    0.1624    0.0322 C   0  0  0  0  0  0  0  0  0  0  0  0
   -2.7138    0.7040   -0.2321 O   0  0  0  0  0  0  0  0  0  0  0  0
   -0.3946    0.8603    0.3663 C   0  0  0  0  0  0  0  0  0  0  0  0
   -0.1892    1.8865   -0.5516 O   0  0  0  0  0  0  0  0  0  0  0  0
    1.8418    0.8656   -1.1700 H   0  0  0  0  0  0  0  0  0  0  0  0
    2.5337   -0.6515   -0.5478 H   0  0  0  0  0  0  0  0  0  0  0  0
    2.6136    0.7737    0.5067 H   0  0  0  0  0  0  0  0  0  0  0  0
    0.8399   -0.5273    1.3824 H   0  0  0  0  0  0  0  0  0  0  0  0
   -1.3799   -1.5797    1.1725 H   0  0  0  0  0  0  0  0  0  0  0  0
   -2.0118   -1.9042   -0.5290 H   0  0  0  0  0  0  0  0  0  0  0  0
   -0.4454    1.3404    1.3673 H   0  0  0  0  0  0  0  0  0  0  0  0
   -0.8583    2.5913   -0.3369 H   0  0  0  0  0  0  0  0  0  0  0  0
  1  2  1  0
  2  3  1  0
  3  4  2  0
  3  5  1  0
  5  6  1  0
  6  7  2  0
  6  8  1  0
  8  9  1  0
  8  2  1  0
  1 10  1  0
  1 11  1  0
  1 12  1  0
  2 13  1  0
  5 14  1  0
  5 15  1  0
  8 16  1  0
  9 17  1  0
M  END
