
     RDKit          3D

 21 22  0  0  0  0  0  0  0  0999 V2000
    2.2217   -0.2572    0.3678 C   0  0  0  0  0  0  0  0  0  0  0  0
    0.8937   -0.2929   -0.3378 C   0  0  0  0  0  0  0  0  0  0  0  0
    0.4214    1.0714   -0.7701 C   0  0  0  0  0  0  0  0  0  0  0  0
   -1.1021    1.0322   -0.7459 C   0  0  0  0  0  0  0  0  0  0  0  0
   -1.4437    1.0648    0.7050 C   0  0  0  0  0  0  0  0  0  0  0  0
   -0.8619    0.0993    1.3894 C   0  0  0  0  0  0  0  0  0  0  0  0
   -0.1967   -0.9096    0.5106 C   0  0  0  0  0  0  0  0  0  0  0  0
   -1.2944   -1.2809   -0.5031 C   0  0  0  0  0  0  0  0  0  0  0  0
   -1.5890   -0.1586   -1.2510 O   0  0  0  0  0  0  0  0  0  0  0  0
    2.0875    0.0453    1.4090 H   0  0  0  0  0  0  0  0  0  0  0  0
    2.8728    0.4442   -0.1785 H   0  0  0  0  0  0  0  0  0  0  0  0
    2.6701   -1.2860    0.2674 H   0  0  0  0  0  0  0  0  0  0  0  0
    1.0425   -0.9252   -1.2562 H   0  0  0  0  0  0  0  0  0  0  0  0
    0.8170    1.3845   -1.7517 H   0  0  0  0  0  0  0  0  0  0  0  0
    0.7996    1.7897    0.0151 H   0  0  0  0  0  0  0  0  0  0  0  0
   -1.5481    1.8523   -1.3168 H   0  0  0  0  0  0  0  0  0  0  0  0
   -2.0968    1.8220    1.0698 H   0  0  0  0  0  0  0  0  0  0  0  0
   -0.8460    0.0127    2.4556 H   0  0  0  0  0  0  0  0  0  0  0  0
    0.1389   -1.7818    1.0753 H   0  0  0  0  0  0  0  0  0  0  0  0
   -2.1708   -1.7017    0.0313 H   0  0  0  0  0  0  0  0  0  0  0  0
   -0.8156   -2.0244   -1.1850 H   0  0  0  0  0  0  0  0  0  0  0  0
  1  2  1  0
  2  3  1  0
  3  4  1  0
  4  5  1  0
  5  6  2  0
  6  7  1  0
  7  8  1  0
  8  9  1  0
  7  2  1  0
  9  4  1  0
  1 10  1  0
  1 11  1  0
  1 12  1  0
  2 13  1  0
  3 14  1  0
  3 15  1  0
  4 16  1  0
  5 17  1  0
  6 18  1  0
  7 19  1  0
  8 20  1  0
  8 21  1  0
M  END
