
     RDKit          3D

 21 22  0  0  0  0  0  0  0  0999 V2000
   -0.8638    1.7251    0.1692 C   0  0  0  0  0  0  0  0  0  0  0  0
   -0.6536    0.3047    0.5559 C   0  0  0  0  0  0  0  0  0  0  0  0
   -1.3592   -0.7342   -0.2905 C   0  0  0  0  0  0  0  0  0  0  0  0
   -0.8579   -1.9764    0.3897 C   0  0  0  0  0  0  0  0  0  0  0  0
    0.5147   -1.6323    0.5091 O   0  0  0  0  0  0  0  0  0  0  0  0
    0.5775   -0.3689   -0.0157 C   0  0  0  0  0  0  0  0  0  0  0  0
    1.8215    0.3696   -0.0583 C   0  0  0  0  0  0  0  0  0  0  0  0
    2.3160    0.5460    1.2253 O   0  0  0  0  0  0  0  0  0  0  0  0
   -0.2276   -0.5108   -1.3022 C   0  0  0  0  0  0  0  0  0  0  0  0
   -1.6405    2.1517    0.8437 H   0  0  0  0  0  0  0  0  0  0  0  0
   -1.2293    1.8746   -0.8577 H   0  0  0  0  0  0  0  0  0  0  0  0
    0.0773    2.2877    0.3257 H   0  0  0  0  0  0  0  0  0  0  0  0
   -0.8204    0.1149    1.6136 H   0  0  0  0  0  0  0  0  0  0  0  0
   -2.3500   -0.6118   -0.5884 H   0  0  0  0  0  0  0  0  0  0  0  0
   -1.2558   -2.0085    1.4274 H   0  0  0  0  0  0  0  0  0  0  0  0
   -1.0052   -2.8963   -0.1653 H   0  0  0  0  0  0  0  0  0  0  0  0
    2.5809   -0.1806   -0.6295 H   0  0  0  0  0  0  0  0  0  0  0  0
    1.6712    1.3360   -0.5825 H   0  0  0  0  0  0  0  0  0  0  0  0
    3.0112    1.2575    1.2258 H   0  0  0  0  0  0  0  0  0  0  0  0
    0.0087   -1.4311   -1.8859 H   0  0  0  0  0  0  0  0  0  0  0  0
   -0.3158    0.3833   -1.9092 H   0  0  0  0  0  0  0  0  0  0  0  0
  1  2  1  0
  2  3  1  0
  3  4  1  0
  4  5  1  0
  5  6  1  0
  6  7  1  0
  7  8  1  0
  6  9  1  0
  6  2  1  0
  9  3  1  0
  1 10  1  0
  1 11  1  0
  1 12  1  0
  2 13  1  0
  3 14  1  0
  4 15  1  0
  4 16  1  0
  7 17  1  0
  7 18  1  0
  8 19  1  0
  9 20  1  0
  9 21  1  0
M  END
