
     RDKit          3D

 23 24  0  0  0  0  0  0  0  0999 V2000
    2.8518    0.0669   -0.1015 C   0  0  0  0  0  0  0  0  0  0  0  0
    1.3879    0.1782    0.2919 C   0  0  0  0  0  0  0  0  0  0  0  0
    0.5636   -0.8428   -0.4797 C   0  0  0  0  0  0  0  0  0  0  0  0
   -0.8345   -0.7012    0.1443 C   0  0  0  0  0  0  0  0  0  0  0  0
   -1.7517   -1.7966   -0.2632 C   0  0  0  0  0  0  0  0  0  0  0  0
   -1.2929    0.6745   -0.2736 C   0  0  0  0  0  0  0  0  0  0  0  0
   -1.4356    1.6561    0.8402 C   0  0  0  0  0  0  0  0  0  0  0  0
   -0.2935    1.7145   -0.1998 C   0  0  0  0  0  0  0  0  0  0  0  0
    0.9636    1.4489    0.1746 O   0  0  0  0  0  0  0  0  0  0  0  0
    3.4290    0.5893    0.6805 H   0  0  0  0  0  0  0  0  0  0  0  0
    3.0482    0.6080   -1.0519 H   0  0  0  0  0  0  0  0  0  0  0  0
    3.1289   -1.0031   -0.2150 H   0  0  0  0  0  0  0  0  0  0  0  0
    1.3385   -0.1657    1.3670 H   0  0  0  0  0  0  0  0  0  0  0  0
    0.5556   -0.5813   -1.5505 H   0  0  0  0  0  0  0  0  0  0  0  0
    0.9641   -1.8378   -0.2535 H   0  0  0  0  0  0  0  0  0  0  0  0
   -0.6465   -0.7546    1.2545 H   0  0  0  0  0  0  0  0  0  0  0  0
   -1.2493   -2.7565   -0.4988 H   0  0  0  0  0  0  0  0  0  0  0  0
   -2.4089   -2.0287    0.6259 H   0  0  0  0  0  0  0  0  0  0  0  0
   -2.4498   -1.4976   -1.0747 H   0  0  0  0  0  0  0  0  0  0  0  0
   -2.0333    0.7168   -1.1250 H   0  0  0  0  0  0  0  0  0  0  0  0
   -1.1657    1.3555    1.8672 H   0  0  0  0  0  0  0  0  0  0  0  0
   -2.2573    2.3679    0.7463 H   0  0  0  0  0  0  0  0  0  0  0  0
   -0.4120    2.5891   -0.9054 H   0  0  0  0  0  0  0  0  0  0  0  0
  1  2  1  0
  2  3  1  0
  3  4  1  0
  4  5  1  0
  4  6  1  0
  6  7  1  0
  7  8  1  0
  8  9  1  0
  9  2  1  0
  8  6  1  0
  1 10  1  0
  1 11  1  0
  1 12  1  0
  2 13  1  0
  3 14  1  0
  3 15  1  0
  4 16  1  0
  5 17  1  0
  5 18  1  0
  5 19  1  0
  6 20  1  0
  7 21  1  0
  7 22  1  0
  8 23  1  0
M  END
