
     RDKit          3D

 19 20  0  0  0  0  0  0  0  0999 V2000
   -2.2362   -0.3829   -0.1247 C   0  0  0  0  0  0  0  0  0  0  0  0
   -0.7739   -0.5950   -0.2205 C   0  0  0  0  0  0  0  0  0  0  0  0
    0.0165   -0.3631    1.0606 C   0  0  0  0  0  0  0  0  0  0  0  0
   -0.0733    1.1256    0.6839 C   0  0  0  0  0  0  0  0  0  0  0  0
    0.0456    0.5837   -0.7252 C   0  0  0  0  0  0  0  0  0  0  0  0
    1.4269   -0.0494   -0.7376 C   0  0  0  0  0  0  0  0  0  0  0  0
    2.4017    0.9174   -0.8470 O   0  0  0  0  0  0  0  0  0  0  0  0
    1.3727   -0.6631    0.6217 C   0  0  0  0  0  0  0  0  0  0  0  0
    2.2381   -1.2540    1.1983 O   0  0  0  0  0  0  0  0  0  0  0  0
   -2.5369    0.6582   -0.0481 H   0  0  0  0  0  0  0  0  0  0  0  0
   -2.7112   -0.9001   -1.0101 H   0  0  0  0  0  0  0  0  0  0  0  0
   -2.6708   -0.9299    0.7610 H   0  0  0  0  0  0  0  0  0  0  0  0
   -0.4368   -1.5191   -0.7101 H   0  0  0  0  0  0  0  0  0  0  0  0
   -0.3807   -0.6702    1.9799 H   0  0  0  0  0  0  0  0  0  0  0  0
    0.8445    1.6247    1.0696 H   0  0  0  0  0  0  0  0  0  0  0  0
   -1.0197    1.6020    0.9360 H   0  0  0  0  0  0  0  0  0  0  0  0
   -0.2921    1.1447   -1.5466 H   0  0  0  0  0  0  0  0  0  0  0  0
    1.4984   -0.8400   -1.5122 H   0  0  0  0  0  0  0  0  0  0  0  0
    3.2872    0.5106   -0.8290 H   0  0  0  0  0  0  0  0  0  0  0  0
  1  2  1  0
  2  3  1  0
  3  4  1  0
  4  5  1  0
  5  6  1  0
  6  7  1  0
  6  8  1  0
  8  9  2  0
  5  2  1  0
  8  3  1  0
  1 10  1  0
  1 11  1  0
  1 12  1  0
  2 13  1  0
  3 14  1  0
  4 15  1  0
  4 16  1  0
  5 17  1  0
  6 18  1  0
  7 19  1  0
M  END
