
     RDKit          3D

 19 21  0  0  0  0  0  0  0  0999 V2000
   -2.3610   -0.1290   -0.2221 C   0  0  0  0  0  0  0  0  0  0  0  0
   -1.0416    0.5094   -0.0066 C   0  0  0  0  0  0  0  0  0  0  0  0
    0.0778    0.1238   -0.9241 C   0  0  0  0  0  0  0  0  0  0  0  0
    0.1284   -1.1830   -0.1984 C   0  0  0  0  0  0  0  0  0  0  0  0
    1.4445   -1.5787   -0.1740 O   0  0  0  0  0  0  0  0  0  0  0  0
    2.1208   -0.3782    0.1578 C   0  0  0  0  0  0  0  0  0  0  0  0
    0.9949    0.5856    0.1726 C   0  0  0  0  0  0  0  0  0  0  0  0
    1.1820    1.8842    0.3886 O   0  0  0  0  0  0  0  0  0  0  0  0
   -0.0719   -0.1661    0.9011 C   0  0  0  0  0  0  0  0  0  0  0  0
   -2.5295   -0.9549    0.5069 H   0  0  0  0  0  0  0  0  0  0  0  0
   -3.1760    0.6184    0.0098 H   0  0  0  0  0  0  0  0  0  0  0  0
   -2.5241   -0.4436   -1.2730 H   0  0  0  0  0  0  0  0  0  0  0  0
   -1.0962    1.5910    0.1474 H   0  0  0  0  0  0  0  0  0  0  0  0
    0.1643    0.2952   -1.9048 H   0  0  0  0  0  0  0  0  0  0  0  0
   -0.6451   -1.9084   -0.3643 H   0  0  0  0  0  0  0  0  0  0  0  0
    2.4430   -0.5386    1.2283 H   0  0  0  0  0  0  0  0  0  0  0  0
    2.9420   -0.1597   -0.5138 H   0  0  0  0  0  0  0  0  0  0  0  0
    2.0923    2.1844    0.1884 H   0  0  0  0  0  0  0  0  0  0  0  0
   -0.1449   -0.3517    1.8802 H   0  0  0  0  0  0  0  0  0  0  0  0
  1  2  1  0
  2  3  1  0
  3  4  1  0
  4  5  1  0
  5  6  1  0
  6  7  1  0
  7  8  1  0
  7  9  1  0
  9  2  1  0
  7  3  1  0
  9  4  1  0
  1 10  1  0
  1 11  1  0
  1 12  1  0
  2 13  1  0
  3 14  1  0
  4 15  1  0
  6 16  1  0
  6 17  1  0
  8 18  1  0
  9 19  1  0
M  END
