
     RDKit          3D

 21 22  0  0  0  0  0  0  0  0999 V2000
   -2.2544   -0.2282    0.3446 C   0  0  0  0  0  0  0  0  0  0  0  0
   -0.8100   -0.3950    0.6803 C   0  0  0  0  0  0  0  0  0  0  0  0
   -0.1101   -1.2341   -0.3510 C   0  0  0  0  0  0  0  0  0  0  0  0
   -0.1688   -0.0863   -1.1782 O   0  0  0  0  0  0  0  0  0  0  0  0
    0.0400    0.6265   -0.0215 C   0  0  0  0  0  0  0  0  0  0  0  0
   -0.2568    2.0333    0.0732 C   0  0  0  0  0  0  0  0  0  0  0  0
    1.4888    0.2520    0.2992 C   0  0  0  0  0  0  0  0  0  0  0  0
    1.3335   -1.2701    0.1146 C   0  0  0  0  0  0  0  0  0  0  0  0
    2.1964   -1.7095   -0.8567 O   0  0  0  0  0  0  0  0  0  0  0  0
   -2.9287   -0.3958    1.2192 H   0  0  0  0  0  0  0  0  0  0  0  0
   -2.4614    0.7464   -0.0910 H   0  0  0  0  0  0  0  0  0  0  0  0
   -2.5972   -0.9904   -0.4167 H   0  0  0  0  0  0  0  0  0  0  0  0
   -0.5538   -0.5938    1.7346 H   0  0  0  0  0  0  0  0  0  0  0  0
   -0.5599   -2.1252   -0.7102 H   0  0  0  0  0  0  0  0  0  0  0  0
    0.4166    2.5101    0.8479 H   0  0  0  0  0  0  0  0  0  0  0  0
   -1.2728    2.3426    0.3569 H   0  0  0  0  0  0  0  0  0  0  0  0
    0.0421    2.5581   -0.8832 H   0  0  0  0  0  0  0  0  0  0  0  0
    1.7708    0.5106    1.3145 H   0  0  0  0  0  0  0  0  0  0  0  0
    2.1100    0.6552   -0.4972 H   0  0  0  0  0  0  0  0  0  0  0  0
    1.4606   -1.7281    1.0915 H   0  0  0  0  0  0  0  0  0  0  0  0
    3.1152   -1.4786   -0.6042 H   0  0  0  0  0  0  0  0  0  0  0  0
  1  2  1  0
  2  3  1  0
  3  4  1  0
  4  5  1  0
  5  6  1  0
  5  7  1  0
  7  8  1  0
  8  9  1  0
  5  2  1  0
  8  3  1  0
  1 10  1  0
  1 11  1  0
  1 12  1  0
  2 13  1  0
  3 14  1  0
  6 15  1  0
  6 16  1  0
  6 17  1  0
  7 18  1  0
  7 19  1  0
  8 20  1  0
  9 21  1  0
M  END
