
     RDKit          3D

 23 24  0  0  0  0  0  0  0  0999 V2000
    1.1606    1.3894    1.7845 C   0  0  0  0  0  0  0  0  0  0  0  0
    0.8425    0.1038    1.0591 C   0  0  0  0  0  0  0  0  0  0  0  0
   -0.6540   -0.0362    0.8310 C   0  0  0  0  0  0  0  0  0  0  0  0
   -1.9682   -0.0794    0.8828 C   0  0  0  0  0  0  0  0  0  0  0  0
   -2.5495   -0.5185   -0.4444 C   0  0  0  0  0  0  0  0  0  0  0  0
   -1.3876   -0.0575   -1.3760 C   0  0  0  0  0  0  0  0  0  0  0  0
   -0.2598   -0.5600   -0.5266 C   0  0  0  0  0  0  0  0  0  0  0  0
    1.0236    0.1914   -0.4746 C   0  0  0  0  0  0  0  0  0  0  0  0
    2.1545   -0.6330   -1.0018 C   0  0  0  0  0  0  0  0  0  0  0  0
    0.4778    1.4665    2.6566 H   0  0  0  0  0  0  0  0  0  0  0  0
    0.9401    2.2198    1.0775 H   0  0  0  0  0  0  0  0  0  0  0  0
    2.1796    1.3907    2.1689 H   0  0  0  0  0  0  0  0  0  0  0  0
    1.3020   -0.7616    1.5272 H   0  0  0  0  0  0  0  0  0  0  0  0
   -2.5508    0.1714    1.7737 H   0  0  0  0  0  0  0  0  0  0  0  0
   -2.5676   -1.6020   -0.4514 H   0  0  0  0  0  0  0  0  0  0  0  0
   -3.4453    0.0197   -0.7236 H   0  0  0  0  0  0  0  0  0  0  0  0
   -1.4001    1.0285   -1.4940 H   0  0  0  0  0  0  0  0  0  0  0  0
   -1.3995   -0.6339   -2.3093 H   0  0  0  0  0  0  0  0  0  0  0  0
   -0.1736   -1.6645   -0.5637 H   0  0  0  0  0  0  0  0  0  0  0  0
    1.0294    1.2060   -0.8706 H   0  0  0  0  0  0  0  0  0  0  0  0
    1.8714   -0.9906   -2.0222 H   0  0  0  0  0  0  0  0  0  0  0  0
    3.1064   -0.0861   -1.1096 H   0  0  0  0  0  0  0  0  0  0  0  0
    2.2679   -1.5638   -0.3935 H   0  0  0  0  0  0  0  0  0  0  0  0
  1  2  1  0
  2  3  1  0
  3  4  2  0
  4  5  1  0
  5  6  1  0
  6  7  1  0
  7  8  1  0
  8  9  1  0
  8  2  1  0
  7  3  1  0
  1 10  1  0
  1 11  1  0
  1 12  1  0
  2 13  1  0
  4 14  1  0
  5 15  1  0
  5 16  1  0
  6 17  1  0
  6 18  1  0
  7 19  1  0
  8 20  1  0
  9 21  1  0
  9 22  1  0
  9 23  1  0
M  END
