
     RDKit          3D

 17 18  0  0  0  0  0  0  0  0999 V2000
    1.9058   -0.5651   -0.0392 C   0  0  0  0  0  0  0  0  0  0  0  0
    0.8551    0.4175    0.4764 C   0  0  0  0  0  0  0  0  0  0  0  0
    0.2136    1.3314   -0.5941 C   0  0  0  0  0  0  0  0  0  0  0  0
   -0.4898    0.2230   -0.0111 C   0  0  0  0  0  0  0  0  0  0  0  0
   -0.9949   -0.9800   -0.7175 C   0  0  0  0  0  0  0  0  0  0  0  0
   -2.2695   -0.6769   -0.1953 O   0  0  0  0  0  0  0  0  0  0  0  0
   -1.7393    0.2403    0.7462 C   0  0  0  0  0  0  0  0  0  0  0  0
    1.9704   -1.3772    0.7150 H   0  0  0  0  0  0  0  0  0  0  0  0
    2.8864   -0.1130   -0.1643 H   0  0  0  0  0  0  0  0  0  0  0  0
    1.5480   -0.9786   -1.0119 H   0  0  0  0  0  0  0  0  0  0  0  0
    1.1075    0.8712    1.4466 H   0  0  0  0  0  0  0  0  0  0  0  0
    0.5953    1.1983   -1.6446 H   0  0  0  0  0  0  0  0  0  0  0  0
    0.0803    2.3778   -0.2445 H   0  0  0  0  0  0  0  0  0  0  0  0
   -0.9343   -0.9986   -1.8108 H   0  0  0  0  0  0  0  0  0  0  0  0
   -0.6133   -1.9109   -0.2109 H   0  0  0  0  0  0  0  0  0  0  0  0
   -2.3410    1.1669    0.6784 H   0  0  0  0  0  0  0  0  0  0  0  0
   -1.7802   -0.2262    1.7450 H   0  0  0  0  0  0  0  0  0  0  0  0
  1  2  1  0
  2  3  1  0
  3  4  1  0
  4  5  1  0
  5  6  1  0
  6  7  1  0
  4  2  1  0
  7  4  1  0
  1  8  1  0
  1  9  1  0
  1 10  1  0
  2 11  1  0
  3 12  1  0
  3 13  1  0
  5 14  1  0
  5 15  1  0
  7 16  1  0
  7 17  1  0
M  END
