
     RDKit          3D

 21 23  0  0  0  0  0  0  0  0999 V2000
    2.0528    0.8692   -0.5412 C   0  0  0  0  0  0  0  0  0  0  0  0
    1.2837   -0.3901   -0.4570 C   0  0  0  0  0  0  0  0  0  0  0  0
    1.0211   -0.7656    1.0878 C   0  0  0  0  0  0  0  0  0  0  0  0
   -0.2114    0.0186    1.0719 C   0  0  0  0  0  0  0  0  0  0  0  0
   -1.1944    0.7870    1.2931 C   0  0  0  0  0  0  0  0  0  0  0  0
   -2.1867    0.7701    0.1367 C   0  0  0  0  0  0  0  0  0  0  0  0
   -1.3706    0.0345   -0.9019 C   0  0  0  0  0  0  0  0  0  0  0  0
   -0.8733   -0.9864   -0.0256 C   0  0  0  0  0  0  0  0  0  0  0  0
   -0.0484   -0.4233   -1.1242 C   0  0  0  0  0  0  0  0  0  0  0  0
    2.7021    0.9804    0.3758 H   0  0  0  0  0  0  0  0  0  0  0  0
    2.7720    0.8528   -1.3902 H   0  0  0  0  0  0  0  0  0  0  0  0
    1.4408    1.7819   -0.6517 H   0  0  0  0  0  0  0  0  0  0  0  0
    1.9216   -1.2301   -0.7565 H   0  0  0  0  0  0  0  0  0  0  0  0
    0.8816   -1.8303    1.1466 H   0  0  0  0  0  0  0  0  0  0  0  0
    1.8417   -0.3522    1.6586 H   0  0  0  0  0  0  0  0  0  0  0  0
   -1.2862    1.3800    2.2209 H   0  0  0  0  0  0  0  0  0  0  0  0
   -2.5250    1.7582   -0.1435 H   0  0  0  0  0  0  0  0  0  0  0  0
   -3.0342    0.1584    0.4735 H   0  0  0  0  0  0  0  0  0  0  0  0
   -2.1336   -0.3124   -1.7066 H   0  0  0  0  0  0  0  0  0  0  0  0
   -1.0687   -1.9453    0.2631 H   0  0  0  0  0  0  0  0  0  0  0  0
    0.0153   -1.1552   -2.0296 H   0  0  0  0  0  0  0  0  0  0  0  0
  1  2  1  0
  2  3  1  0
  3  4  1  0
  4  5  2  0
  5  6  1  0
  6  7  1  0
  7  8  1  0
  8  9  1  0
  9  2  1  0
  8  4  1  0
  9  7  1  0
  1 10  1  0
  1 11  1  0
  1 12  1  0
  2 13  1  0
  3 14  1  0
  3 15  1  0
  5 16  1  0
  6 17  1  0
  6 18  1  0
  7 19  1  0
  8 20  1  0
  9 21  1  0
M  END
