
     RDKit          3D

 19 19  0  0  0  0  0  0  0  0999 V2000
   -2.3486    0.7230    0.5455 C   0  0  0  0  0  0  0  0  0  0  0  0
   -1.0175    0.4383   -0.1306 C   0  0  0  0  0  0  0  0  0  0  0  0
   -1.0678   -0.9646   -0.5999 C   0  0  0  0  0  0  0  0  0  0  0  0
    0.0849   -1.5832   -0.8642 C   0  0  0  0  0  0  0  0  0  0  0  0
    1.3078   -0.7309   -0.6371 C   0  0  0  0  0  0  0  0  0  0  0  0
    1.1612    0.1035    0.6042 C   0  0  0  0  0  0  0  0  0  0  0  0
    2.2759    1.0894    0.6066 C   0  0  0  0  0  0  0  0  0  0  0  0
    3.4481    0.7888    0.4700 O   0  0  0  0  0  0  0  0  0  0  0  0
   -0.0362    0.6998    0.7739 O   0  0  0  0  0  0  0  0  0  0  0  0
   -2.3730    0.1919    1.5030 H   0  0  0  0  0  0  0  0  0  0  0  0
   -3.1278    0.2802   -0.1157 H   0  0  0  0  0  0  0  0  0  0  0  0
   -2.4986    1.8196    0.6816 H   0  0  0  0  0  0  0  0  0  0  0  0
   -0.9866    1.1425   -1.0139 H   0  0  0  0  0  0  0  0  0  0  0  0
   -1.9761   -1.5344   -0.7473 H   0  0  0  0  0  0  0  0  0  0  0  0
    0.1684   -2.5936   -1.2081 H   0  0  0  0  0  0  0  0  0  0  0  0
    1.4170   -0.0606   -1.5122 H   0  0  0  0  0  0  0  0  0  0  0  0
    2.1916   -1.3646   -0.5773 H   0  0  0  0  0  0  0  0  0  0  0  0
    1.3419   -0.5805    1.4844 H   0  0  0  0  0  0  0  0  0  0  0  0
    2.0354    2.1355    0.7371 H   0  0  0  0  0  0  0  0  0  0  0  0
  1  2  1  0
  2  3  1  0
  3  4  2  0
  4  5  1  0
  5  6  1  0
  6  7  1  0
  7  8  2  0
  6  9  1  0
  9  2  1  0
  1 10  1  0
  1 11  1  0
  1 12  1  0
  2 13  1  0
  3 14  1  0
  4 15  1  0
  5 16  1  0
  5 17  1  0
  6 18  1  0
  7 19  1  0
M  END
