
     RDKit          3D

 19 20  0  0  0  0  0  0  0  0999 V2000
   -1.1520    1.7228   -0.2933 C   0  0  0  0  0  0  0  0  0  0  0  0
   -0.9115    0.4850    0.5085 C   0  0  0  0  0  0  0  0  0  0  0  0
   -0.4016   -0.6359   -0.3773 C   0  0  0  0  0  0  0  0  0  0  0  0
   -1.3256   -1.7822   -0.3208 C   0  0  0  0  0  0  0  0  0  0  0  0
   -2.4752   -1.5968   -0.6751 O   0  0  0  0  0  0  0  0  0  0  0  0
    0.8675   -0.7494    0.4012 C   0  0  0  0  0  0  0  0  0  0  0  0
    2.1811   -0.5219   -0.3189 C   0  0  0  0  0  0  0  0  0  0  0  0
    0.8607   -0.7116    1.7871 O   0  0  0  0  0  0  0  0  0  0  0  0
    0.4227    0.4570    1.2107 C   0  0  0  0  0  0  0  0  0  0  0  0
   -0.7261    2.5985    0.2614 H   0  0  0  0  0  0  0  0  0  0  0  0
   -2.2509    1.8293   -0.4258 H   0  0  0  0  0  0  0  0  0  0  0  0
   -0.6255    1.6919   -1.2721 H   0  0  0  0  0  0  0  0  0  0  0  0
   -1.7194    0.1815    1.1978 H   0  0  0  0  0  0  0  0  0  0  0  0
   -0.2021   -0.3469   -1.4289 H   0  0  0  0  0  0  0  0  0  0  0  0
   -1.0553   -2.7744    0.0124 H   0  0  0  0  0  0  0  0  0  0  0  0
    2.8375    0.0981    0.3338 H   0  0  0  0  0  0  0  0  0  0  0  0
    1.9744    0.1343   -1.2135 H   0  0  0  0  0  0  0  0  0  0  0  0
    2.6787   -1.4497   -0.5976 H   0  0  0  0  0  0  0  0  0  0  0  0
    1.0224    1.3704    1.2105 H   0  0  0  0  0  0  0  0  0  0  0  0
  1  2  1  0
  2  3  1  0
  3  4  1  0
  4  5  2  0
  3  6  1  0
  6  7  1  0
  6  8  1  0
  8  9  1  0
  9  2  1  0
  9  6  1  0
  1 10  1  0
  1 11  1  0
  1 12  1  0
  2 13  1  0
  3 14  1  0
  4 15  1  0
  7 16  1  0
  7 17  1  0
  7 18  1  0
  9 19  1  0
M  END
