
     RDKit          3D

 23 23  0  0  0  0  0  0  0  0999 V2000
   -1.9479   -1.6973   -0.0898 C   0  0  0  0  0  0  0  0  0  0  0  0
   -0.9520   -0.5820   -0.2119 C   0  0  0  0  0  0  0  0  0  0  0  0
   -1.6429    0.6879    0.2969 C   0  0  0  0  0  0  0  0  0  0  0  0
   -0.7875    1.9124    0.0397 C   0  0  0  0  0  0  0  0  0  0  0  0
    0.1271    1.5987   -0.9283 O   0  0  0  0  0  0  0  0  0  0  0  0
    1.3160    1.0918   -0.4693 C   0  0  0  0  0  0  0  0  0  0  0  0
    1.2875   -0.3955   -0.2271 C   0  0  0  0  0  0  0  0  0  0  0  0
    2.5293   -0.7926    0.5530 C   0  0  0  0  0  0  0  0  0  0  0  0
    0.1926   -0.7976    0.5301 O   0  0  0  0  0  0  0  0  0  0  0  0
   -1.5656   -2.4715    0.6187 H   0  0  0  0  0  0  0  0  0  0  0  0
   -2.9242   -1.3653    0.3478 H   0  0  0  0  0  0  0  0  0  0  0  0
   -2.1974   -2.1525   -1.0697 H   0  0  0  0  0  0  0  0  0  0  0  0
   -0.7094   -0.4054   -1.2799 H   0  0  0  0  0  0  0  0  0  0  0  0
   -2.5923    0.7736   -0.2781 H   0  0  0  0  0  0  0  0  0  0  0  0
   -1.8052    0.5201    1.3790 H   0  0  0  0  0  0  0  0  0  0  0  0
   -1.4158    2.7610   -0.3577 H   0  0  0  0  0  0  0  0  0  0  0  0
   -0.3787    2.2489    0.9926 H   0  0  0  0  0  0  0  0  0  0  0  0
    2.0775    1.2551   -1.2881 H   0  0  0  0  0  0  0  0  0  0  0  0
    1.6975    1.6534    0.3967 H   0  0  0  0  0  0  0  0  0  0  0  0
    1.2583   -0.9520   -1.1722 H   0  0  0  0  0  0  0  0  0  0  0  0
    2.5867   -1.9127    0.4731 H   0  0  0  0  0  0  0  0  0  0  0  0
    2.3942   -0.5790    1.6240 H   0  0  0  0  0  0  0  0  0  0  0  0
    3.4523   -0.3995    0.1207 H   0  0  0  0  0  0  0  0  0  0  0  0
  1  2  1  0
  2  3  1  0
  3  4  1  0
  4  5  1  0
  5  6  1  0
  6  7  1  0
  7  8  1  0
  7  9  1  0
  9  2  1  0
  1 10  1  0
  1 11  1  0
  1 12  1  0
  2 13  1  0
  3 14  1  0
  3 15  1  0
  4 16  1  0
  4 17  1  0
  6 18  1  0
  6 19  1  0
  7 20  1  0
  8 21  1  0
  8 22  1  0
  8 23  1  0
M  END
