
     RDKit          3D

 19 19  0  0  0  0  0  0  0  0999 V2000
    2.1444   -0.3410   -0.3719 C   0  0  0  0  0  0  0  0  0  0  0  0
    1.0281    0.1219    0.5293 C   0  0  0  0  0  0  0  0  0  0  0  0
    0.0333   -0.9597    0.8502 C   0  0  0  0  0  0  0  0  0  0  0  0
   -1.0489   -0.0899    0.2064 C   0  0  0  0  0  0  0  0  0  0  0  0
   -1.9868    0.3719    1.0939 O   0  0  0  0  0  0  0  0  0  0  0  0
   -1.6631   -0.8544   -0.9065 C   0  0  0  0  0  0  0  0  0  0  0  0
   -2.8719   -0.9826   -0.9111 O   0  0  0  0  0  0  0  0  0  0  0  0
   -0.0021    0.9129   -0.2235 C   0  0  0  0  0  0  0  0  0  0  0  0
   -0.1314    2.1794    0.3280 O   0  0  0  0  0  0  0  0  0  0  0  0
    3.0965   -0.1473    0.1523 H   0  0  0  0  0  0  0  0  0  0  0  0
    2.1644    0.2247   -1.3227 H   0  0  0  0  0  0  0  0  0  0  0  0
    1.9863   -1.4132   -0.6166 H   0  0  0  0  0  0  0  0  0  0  0  0
    1.3769    0.5906    1.4919 H   0  0  0  0  0  0  0  0  0  0  0  0
    0.2699   -1.8848    0.3187 H   0  0  0  0  0  0  0  0  0  0  0  0
   -0.1337   -1.1573    1.9245 H   0  0  0  0  0  0  0  0  0  0  0  0
   -2.5303    1.0669    0.6701 H   0  0  0  0  0  0  0  0  0  0  0  0
   -1.0954   -1.3015   -1.7098 H   0  0  0  0  0  0  0  0  0  0  0  0
    0.1031    0.8922   -1.3395 H   0  0  0  0  0  0  0  0  0  0  0  0
   -0.7393    2.7714   -0.1639 H   0  0  0  0  0  0  0  0  0  0  0  0
  1  2  1  0
  2  3  1  0
  3  4  1  0
  4  5  1  0
  4  6  1  0
  6  7  2  0
  4  8  1  0
  8  9  1  0
  8  2  1  0
  1 10  1  0
  1 11  1  0
  1 12  1  0
  2 13  1  0
  3 14  1  0
  3 15  1  0
  5 16  1  0
  6 17  1  0
  8 18  1  0
  9 19  1  0
M  END
