
     RDKit          3D

 22 23  0  0  0  0  0  0  0  0999 V2000
   -2.4369   -0.2778    0.2411 C   0  0  0  0  0  0  0  0  0  0  0  0
   -0.9725   -0.4392    0.0063 C   0  0  0  0  0  0  0  0  0  0  0  0
   -0.0801    0.1463    1.1113 C   0  0  0  0  0  0  0  0  0  0  0  0
    1.2213   -0.6077    1.0295 C   0  0  0  0  0  0  0  0  0  0  0  0
    1.8616   -0.4615   -0.2976 C   0  0  0  0  0  0  0  0  0  0  0  0
    0.9852   -0.0098   -1.4008 C   0  0  0  0  0  0  0  0  0  0  0  0
   -0.3317    0.5414   -0.9256 C   0  0  0  0  0  0  0  0  0  0  0  0
   -0.0191    1.4099    0.2972 C   0  0  0  0  0  0  0  0  0  0  0  0
   -2.9034    0.5037   -0.3843 H   0  0  0  0  0  0  0  0  0  0  0  0
   -2.5723   -0.0788    1.3422 H   0  0  0  0  0  0  0  0  0  0  0  0
   -2.9853   -1.2262   -0.0056 H   0  0  0  0  0  0  0  0  0  0  0  0
   -0.6976   -1.4858   -0.2650 H   0  0  0  0  0  0  0  0  0  0  0  0
   -0.5608    0.1948    2.0825 H   0  0  0  0  0  0  0  0  0  0  0  0
    0.9599   -1.6932    1.1950 H   0  0  0  0  0  0  0  0  0  0  0  0
    1.9213   -0.3497    1.8616 H   0  0  0  0  0  0  0  0  0  0  0  0
    2.3045   -1.4554   -0.5992 H   0  0  0  0  0  0  0  0  0  0  0  0
    2.7645    0.2011   -0.1695 H   0  0  0  0  0  0  0  0  0  0  0  0
    1.5045    0.8481   -1.9236 H   0  0  0  0  0  0  0  0  0  0  0  0
    0.8016   -0.7738   -2.1746 H   0  0  0  0  0  0  0  0  0  0  0  0
   -0.9449    1.0063   -1.6874 H   0  0  0  0  0  0  0  0  0  0  0  0
    0.9896    1.8714    0.1957 H   0  0  0  0  0  0  0  0  0  0  0  0
   -0.8093    2.1358    0.4710 H   0  0  0  0  0  0  0  0  0  0  0  0
  1  2  1  0
  2  3  1  0
  3  4  1  0
  4  5  1  0
  5  6  1  0
  6  7  1  0
  7  8  1  0
  7  2  1  0
  8  3  1  0
  1  9  1  0
  1 10  1  0
  1 11  1  0
  2 12  1  0
  3 13  1  0
  4 14  1  0
  4 15  1  0
  5 16  1  0
  5 17  1  0
  6 18  1  0
  6 19  1  0
  7 20  1  0
  8 21  1  0
  8 22  1  0
M  END
