
     RDKit          3D

 23 23  0  0  0  0  0  0  0  0999 V2000
    2.2936   -0.0413    0.5771 C   0  0  0  0  0  0  0  0  0  0  0  0
    1.1330    0.0774   -0.3522 C   0  0  0  0  0  0  0  0  0  0  0  0
    0.4950   -1.1936   -0.8136 C   0  0  0  0  0  0  0  0  0  0  0  0
   -0.8226   -0.4048   -0.8554 C   0  0  0  0  0  0  0  0  0  0  0  0
   -1.9474   -1.2145   -0.3219 C   0  0  0  0  0  0  0  0  0  0  0  0
   -0.1625    0.5407    0.1574 C   0  0  0  0  0  0  0  0  0  0  0  0
   -0.4013    2.0028   -0.1447 C   0  0  0  0  0  0  0  0  0  0  0  0
   -0.5615    0.2230    1.5311 C   0  0  0  0  0  0  0  0  0  0  0  0
    0.0862   -0.3750    2.3497 O   0  0  0  0  0  0  0  0  0  0  0  0
    2.5768    0.9638    0.9215 H   0  0  0  0  0  0  0  0  0  0  0  0
    3.1677   -0.4032   -0.0409 H   0  0  0  0  0  0  0  0  0  0  0  0
    2.1783   -0.7679    1.3839 H   0  0  0  0  0  0  0  0  0  0  0  0
    1.4478    0.6779   -1.2537 H   0  0  0  0  0  0  0  0  0  0  0  0
    0.7543   -1.5523   -1.8139 H   0  0  0  0  0  0  0  0  0  0  0  0
    0.4760   -2.0130   -0.0644 H   0  0  0  0  0  0  0  0  0  0  0  0
   -0.9728    0.1395   -1.7966 H   0  0  0  0  0  0  0  0  0  0  0  0
   -2.7913   -1.1633   -1.0699 H   0  0  0  0  0  0  0  0  0  0  0  0
   -2.3653   -0.8606    0.6344 H   0  0  0  0  0  0  0  0  0  0  0  0
   -1.7088   -2.2992   -0.2292 H   0  0  0  0  0  0  0  0  0  0  0  0
   -0.0542    2.5719    0.7439 H   0  0  0  0  0  0  0  0  0  0  0  0
   -1.4722    2.1881   -0.3808 H   0  0  0  0  0  0  0  0  0  0  0  0
    0.1969    2.3425   -1.0102 H   0  0  0  0  0  0  0  0  0  0  0  0
   -1.5455    0.5613    1.8484 H   0  0  0  0  0  0  0  0  0  0  0  0
  1  2  1  0
  2  3  1  0
  3  4  1  0
  4  5  1  0
  4  6  1  0
  6  7  1  0
  6  8  1  0
  8  9  2  0
  6  2  1  0
  1 10  1  0
  1 11  1  0
  1 12  1  0
  2 13  1  0
  3 14  1  0
  3 15  1  0
  4 16  1  0
  5 17  1  0
  5 18  1  0
  5 19  1  0
  7 20  1  0
  7 21  1  0
  7 22  1  0
  8 23  1  0
M  END
