
     RDKit          3D

 21 22  0  0  0  0  0  0  0  0999 V2000
   -1.2670    1.9509    0.4227 C   0  0  0  0  0  0  0  0  0  0  0  0
   -0.6368    0.8469   -0.4135 C   0  0  0  0  0  0  0  0  0  0  0  0
   -0.4949   -0.5195    0.1029 C   0  0  0  0  0  0  0  0  0  0  0  0
   -0.8074   -1.6689   -0.8047 C   0  0  0  0  0  0  0  0  0  0  0  0
    0.0126   -0.8275    1.4694 C   0  0  0  0  0  0  0  0  0  0  0  0
    1.0270    0.2437    1.3597 C   0  0  0  0  0  0  0  0  0  0  0  0
    1.7661    0.7659    2.1789 O   0  0  0  0  0  0  0  0  0  0  0  0
    0.7017    0.3263   -0.0883 C   0  0  0  0  0  0  0  0  0  0  0  0
    1.7269    0.0037   -1.1160 C   0  0  0  0  0  0  0  0  0  0  0  0
   -0.6088    2.1405    1.2972 H   0  0  0  0  0  0  0  0  0  0  0  0
   -2.3112    1.7465    0.6841 H   0  0  0  0  0  0  0  0  0  0  0  0
   -1.2192    2.8964   -0.1873 H   0  0  0  0  0  0  0  0  0  0  0  0
   -0.8669    0.9374   -1.4942 H   0  0  0  0  0  0  0  0  0  0  0  0
   -1.1657   -1.2992   -1.7976 H   0  0  0  0  0  0  0  0  0  0  0  0
   -0.0174   -2.4196   -0.8808 H   0  0  0  0  0  0  0  0  0  0  0  0
   -1.7061   -2.1915   -0.3650 H   0  0  0  0  0  0  0  0  0  0  0  0
   -0.6840   -0.7751    2.3043 H   0  0  0  0  0  0  0  0  0  0  0  0
    0.5114   -1.8407    1.4626 H   0  0  0  0  0  0  0  0  0  0  0  0
    2.4084   -0.8132   -0.7608 H   0  0  0  0  0  0  0  0  0  0  0  0
    1.2462   -0.3767   -2.0450 H   0  0  0  0  0  0  0  0  0  0  0  0
    2.3851    0.8738   -1.3286 H   0  0  0  0  0  0  0  0  0  0  0  0
  1  2  1  0
  2  3  1  0
  3  4  1  0
  3  5  1  0
  5  6  1  0
  6  7  2  0
  6  8  1  0
  8  9  1  0
  8  2  1  0
  8  3  1  0
  1 10  1  0
  1 11  1  0
  1 12  1  0
  2 13  1  0
  4 14  1  0
  4 15  1  0
  4 16  1  0
  5 17  1  0
  5 18  1  0
  9 19  1  0
  9 20  1  0
  9 21  1  0
M  END
