
     RDKit          3D

 20 21  0  0  0  0  0  0  0  0999 V2000
    2.2313   -0.3733   -0.0036 C   0  0  0  0  0  0  0  0  0  0  0  0
    0.9002    0.2810   -0.2315 C   0  0  0  0  0  0  0  0  0  0  0  0
   -0.0641   -0.7032   -0.8827 C   0  0  0  0  0  0  0  0  0  0  0  0
   -1.3028   -0.0276   -1.3232 C   0  0  0  0  0  0  0  0  0  0  0  0
   -1.8587    0.8216   -0.4899 C   0  0  0  0  0  0  0  0  0  0  0  0
   -1.1041    1.2402    0.7519 C   0  0  0  0  0  0  0  0  0  0  0  0
   -0.0192    0.2384    0.9765 C   0  0  0  0  0  0  0  0  0  0  0  0
   -0.3743   -1.1665    0.5518 C   0  0  0  0  0  0  0  0  0  0  0  0
    2.5120   -0.3436    1.0722 H   0  0  0  0  0  0  0  0  0  0  0  0
    3.0484    0.1223   -0.5605 H   0  0  0  0  0  0  0  0  0  0  0  0
    2.2334   -1.4484   -0.3031 H   0  0  0  0  0  0  0  0  0  0  0  0
    0.9706    1.2519   -0.7374 H   0  0  0  0  0  0  0  0  0  0  0  0
    0.3698   -1.4509   -1.5282 H   0  0  0  0  0  0  0  0  0  0  0  0
   -1.7190   -0.2279   -2.2780 H   0  0  0  0  0  0  0  0  0  0  0  0
   -2.8353    1.2654   -0.6086 H   0  0  0  0  0  0  0  0  0  0  0  0
   -0.5986    2.2040    0.4504 H   0  0  0  0  0  0  0  0  0  0  0  0
   -1.7740    1.3789    1.6032 H   0  0  0  0  0  0  0  0  0  0  0  0
    0.4940    0.2714    1.9525 H   0  0  0  0  0  0  0  0  0  0  0  0
    0.3404   -1.9018    0.9045 H   0  0  0  0  0  0  0  0  0  0  0  0
   -1.4501   -1.4319    0.6836 H   0  0  0  0  0  0  0  0  0  0  0  0
  1  2  1  0
  2  3  1  0
  3  4  1  0
  4  5  2  0
  5  6  1  0
  6  7  1  0
  7  8  1  0
  7  2  1  0
  8  3  1  0
  1  9  1  0
  1 10  1  0
  1 11  1  0
  2 12  1  0
  3 13  1  0
  4 14  1  0
  5 15  1  0
  6 16  1  0
  6 17  1  0
  7 18  1  0
  8 19  1  0
  8 20  1  0
M  END
