
     RDKit          3D

 21 22  0  0  0  0  0  0  0  0999 V2000
    1.4854   -1.3465   -0.1885 C   0  0  0  0  0  0  0  0  0  0  0  0
    0.6112   -0.2087   -0.6336 C   0  0  0  0  0  0  0  0  0  0  0  0
    1.5279    0.9460   -0.9585 C   0  0  0  0  0  0  0  0  0  0  0  0
    1.0211    2.0781   -0.5097 C   0  0  0  0  0  0  0  0  0  0  0  0
   -0.2551    1.7936    0.1429 C   0  0  0  0  0  0  0  0  0  0  0  0
   -0.2345    0.3355    0.5262 C   0  0  0  0  0  0  0  0  0  0  0  0
   -1.6367   -0.2092    0.4793 C   0  0  0  0  0  0  0  0  0  0  0  0
   -1.8605   -1.6504    0.5590 C   0  0  0  0  0  0  0  0  0  0  0  0
   -2.2522   -0.6783    1.6152 O   0  0  0  0  0  0  0  0  0  0  0  0
    2.5466   -1.0160    0.0085 H   0  0  0  0  0  0  0  0  0  0  0  0
    1.1424   -1.7495    0.8020 H   0  0  0  0  0  0  0  0  0  0  0  0
    1.4775   -2.1599   -0.9491 H   0  0  0  0  0  0  0  0  0  0  0  0
    0.0162   -0.4107   -1.5228 H   0  0  0  0  0  0  0  0  0  0  0  0
    2.4521    0.8272   -1.4811 H   0  0  0  0  0  0  0  0  0  0  0  0
    1.4615    3.0677   -0.5991 H   0  0  0  0  0  0  0  0  0  0  0  0
   -1.0931    1.8915   -0.6106 H   0  0  0  0  0  0  0  0  0  0  0  0
   -0.4821    2.4561    1.0007 H   0  0  0  0  0  0  0  0  0  0  0  0
    0.2960    0.1304    1.4610 H   0  0  0  0  0  0  0  0  0  0  0  0
   -2.3233    0.3548   -0.1985 H   0  0  0  0  0  0  0  0  0  0  0  0
   -1.1692   -2.3597    1.0122 H   0  0  0  0  0  0  0  0  0  0  0  0
   -2.7313   -2.0920    0.0446 H   0  0  0  0  0  0  0  0  0  0  0  0
  1  2  1  0
  2  3  1  0
  3  4  2  0
  4  5  1  0
  5  6  1  0
  6  7  1  0
  7  8  1  0
  8  9  1  0
  6  2  1  0
  9  7  1  0
  1 10  1  0
  1 11  1  0
  1 12  1  0
  2 13  1  0
  3 14  1  0
  4 15  1  0
  5 16  1  0
  5 17  1  0
  6 18  1  0
  7 19  1  0
  8 20  1  0
  8 21  1  0
M  END
