
     RDKit          3D

 23 24  0  0  0  0  0  0  0  0999 V2000
    0.6322    1.8266    0.7363 C   0  0  0  0  0  0  0  0  0  0  0  0
    0.6474    0.8107   -0.3315 C   0  0  0  0  0  0  0  0  0  0  0  0
    0.8681   -0.5853    0.2544 C   0  0  0  0  0  0  0  0  0  0  0  0
    2.2144   -1.1822   -0.0757 C   0  0  0  0  0  0  0  0  0  0  0  0
   -0.2111   -1.1038   -0.6587 C   0  0  0  0  0  0  0  0  0  0  0  0
   -1.2817   -1.7157   -0.0629 O   0  0  0  0  0  0  0  0  0  0  0  0
   -2.0609   -0.7436    0.5458 C   0  0  0  0  0  0  0  0  0  0  0  0
   -1.8913    0.5231   -0.2743 C   0  0  0  0  0  0  0  0  0  0  0  0
   -0.5940    0.3311   -0.9451 C   0  0  0  0  0  0  0  0  0  0  0  0
    0.8259    1.3838    1.7574 H   0  0  0  0  0  0  0  0  0  0  0  0
   -0.2820    2.4182    0.8392 H   0  0  0  0  0  0  0  0  0  0  0  0
    1.4685    2.5729    0.6113 H   0  0  0  0  0  0  0  0  0  0  0  0
    1.4567    1.0045   -1.0859 H   0  0  0  0  0  0  0  0  0  0  0  0
    0.5749   -0.6565    1.3091 H   0  0  0  0  0  0  0  0  0  0  0  0
    2.5423   -0.7266   -1.0309 H   0  0  0  0  0  0  0  0  0  0  0  0
    2.0612   -2.2570   -0.2775 H   0  0  0  0  0  0  0  0  0  0  0  0
    2.9467   -1.0764    0.7412 H   0  0  0  0  0  0  0  0  0  0  0  0
    0.1733   -1.6830   -1.5038 H   0  0  0  0  0  0  0  0  0  0  0  0
   -1.6208   -0.5524    1.5396 H   0  0  0  0  0  0  0  0  0  0  0  0
   -3.1332   -1.0145    0.5783 H   0  0  0  0  0  0  0  0  0  0  0  0
   -2.7240    0.5460   -1.0283 H   0  0  0  0  0  0  0  0  0  0  0  0
   -1.9766    1.3665    0.4092 H   0  0  0  0  0  0  0  0  0  0  0  0
   -0.6362    0.5136   -2.0475 H   0  0  0  0  0  0  0  0  0  0  0  0
  1  2  1  0
  2  3  1  0
  3  4  1  0
  3  5  1  0
  5  6  1  0
  6  7  1  0
  7  8  1  0
  8  9  1  0
  9  2  1  0
  9  5  1  0
  1 10  1  0
  1 11  1  0
  1 12  1  0
  2 13  1  0
  3 14  1  0
  4 15  1  0
  4 16  1  0
  4 17  1  0
  5 18  1  0
  7 19  1  0
  7 20  1  0
  8 21  1  0
  8 22  1  0
  9 23  1  0
M  END
