
     RDKit          3D

 23 24  0  0  0  0  0  0  0  0999 V2000
   -2.5659   -0.7014    0.5422 C   0  0  0  0  0  0  0  0  0  0  0  0
   -1.3582    0.2449    0.5723 C   0  0  0  0  0  0  0  0  0  0  0  0
   -1.4528    1.0739   -0.6546 C   0  0  0  0  0  0  0  0  0  0  0  0
   -0.5307    0.6779   -1.5146 C   0  0  0  0  0  0  0  0  0  0  0  0
    0.2680   -0.4425   -0.9622 C   0  0  0  0  0  0  0  0  0  0  0  0
   -0.1270   -0.5631    0.4964 C   0  0  0  0  0  0  0  0  0  0  0  0
    1.1968   -0.0635    0.1430 C   0  0  0  0  0  0  0  0  0  0  0  0
    1.5973    1.3744    0.2334 C   0  0  0  0  0  0  0  0  0  0  0  0
    2.3453   -1.0562    0.3095 C   0  0  0  0  0  0  0  0  0  0  0  0
   -2.3120   -1.6757    1.0175 H   0  0  0  0  0  0  0  0  0  0  0  0
   -2.8457   -0.9159   -0.5121 H   0  0  0  0  0  0  0  0  0  0  0  0
   -3.4244   -0.2828    1.0920 H   0  0  0  0  0  0  0  0  0  0  0  0
   -1.4775    0.8400    1.4972 H   0  0  0  0  0  0  0  0  0  0  0  0
   -2.1881    1.8659   -0.7634 H   0  0  0  0  0  0  0  0  0  0  0  0
   -0.3800    1.1094   -2.4830 H   0  0  0  0  0  0  0  0  0  0  0  0
    0.3691   -1.3826   -1.5077 H   0  0  0  0  0  0  0  0  0  0  0  0
   -0.2169   -1.6011    0.9156 H   0  0  0  0  0  0  0  0  0  0  0  0
    2.6988    1.4819    0.1542 H   0  0  0  0  0  0  0  0  0  0  0  0
    1.2873    1.8786    1.1611 H   0  0  0  0  0  0  0  0  0  0  0  0
    1.1837    1.9381   -0.6455 H   0  0  0  0  0  0  0  0  0  0  0  0
    2.9408   -0.9808   -0.6411 H   0  0  0  0  0  0  0  0  0  0  0  0
    1.9760   -2.0856    0.4339 H   0  0  0  0  0  0  0  0  0  0  0  0
    3.0160   -0.7336    1.1157 H   0  0  0  0  0  0  0  0  0  0  0  0
  1  2  1  0
  2  3  1  0
  3  4  2  0
  4  5  1  0
  5  6  1  0
  6  7  1  0
  7  8  1  0
  7  9  1  0
  6  2  1  0
  7  5  1  0
  1 10  1  0
  1 11  1  0
  1 12  1  0
  2 13  1  0
  3 14  1  0
  4 15  1  0
  5 16  1  0
  6 17  1  0
  8 18  1  0
  8 19  1  0
  8 20  1  0
  9 21  1  0
  9 22  1  0
  9 23  1  0
M  END
