
     RDKit          3D

 19 20  0  0  0  0  0  0  0  0999 V2000
    2.0672    0.9148    0.1521 C   0  0  0  0  0  0  0  0  0  0  0  0
    1.0195    0.0208    0.7864 C   0  0  0  0  0  0  0  0  0  0  0  0
    1.2131   -1.4129    0.2826 C   0  0  0  0  0  0  0  0  0  0  0  0
    0.3761   -1.0844   -0.8031 O   0  0  0  0  0  0  0  0  0  0  0  0
   -0.2275   -0.1731    0.0192 C   0  0  0  0  0  0  0  0  0  0  0  0
   -1.5584   -0.3255    0.5987 C   0  0  0  0  0  0  0  0  0  0  0  0
   -2.3760   -1.3233    0.0700 O   0  0  0  0  0  0  0  0  0  0  0  0
   -1.1783    0.8326   -0.3635 C   0  0  0  0  0  0  0  0  0  0  0  0
   -1.8549    0.8026   -1.5956 O   0  0  0  0  0  0  0  0  0  0  0  0
    2.0957    0.7170   -0.9373 H   0  0  0  0  0  0  0  0  0  0  0  0
    3.0696    0.7519    0.5505 H   0  0  0  0  0  0  0  0  0  0  0  0
    1.7276    1.9664    0.2644 H   0  0  0  0  0  0  0  0  0  0  0  0
    0.9638    0.1037    1.8796 H   0  0  0  0  0  0  0  0  0  0  0  0
    2.2377   -1.6762    0.0237 H   0  0  0  0  0  0  0  0  0  0  0  0
    0.6677   -2.1472    0.9188 H   0  0  0  0  0  0  0  0  0  0  0  0
   -1.7795   -0.0157    1.6527 H   0  0  0  0  0  0  0  0  0  0  0  0
   -2.6273   -1.0879   -0.8507 H   0  0  0  0  0  0  0  0  0  0  0  0
   -1.1291    1.8315    0.1202 H   0  0  0  0  0  0  0  0  0  0  0  0
   -2.7070    1.3049   -1.4567 H   0  0  0  0  0  0  0  0  0  0  0  0
  1  2  1  0
  2  3  1  0
  3  4  1  0
  4  5  1  0
  5  6  1  0
  6  7  1  0
  6  8  1  0
  8  9  1  0
  5  2  1  0
  8  5  1  0
  1 10  1  0
  1 11  1  0
  1 12  1  0
  2 13  1  0
  3 14  1  0
  3 15  1  0
  6 16  1  0
  7 17  1  0
  8 18  1  0
  9 19  1  0
M  END
