
     RDKit          3D

 19 20  0  0  0  0  0  0  0  0999 V2000
    1.8174    0.8450    0.8332 C   0  0  0  0  0  0  0  0  0  0  0  0
    0.7452    0.6476   -0.1842 C   0  0  0  0  0  0  0  0  0  0  0  0
    0.9047   -0.6919   -0.8666 C   0  0  0  0  0  0  0  0  0  0  0  0
   -0.2678   -1.5056   -0.4675 C   0  0  0  0  0  0  0  0  0  0  0  0
   -0.3202   -2.7200   -0.5713 O   0  0  0  0  0  0  0  0  0  0  0  0
   -1.3121   -0.6182    0.0545 C   0  0  0  0  0  0  0  0  0  0  0  0
   -2.2771   -1.1767    0.8758 O   0  0  0  0  0  0  0  0  0  0  0  0
   -1.7294    0.6004   -0.6953 C   0  0  0  0  0  0  0  0  0  0  0  0
   -0.6428    0.6563    0.3733 C   0  0  0  0  0  0  0  0  0  0  0  0
    1.4646    0.8585    1.8792 H   0  0  0  0  0  0  0  0  0  0  0  0
    2.6279    0.0706    0.6922 H   0  0  0  0  0  0  0  0  0  0  0  0
    2.3562    1.8213    0.6541 H   0  0  0  0  0  0  0  0  0  0  0  0
    0.7990    1.4803   -0.9415 H   0  0  0  0  0  0  0  0  0  0  0  0
    1.8737   -1.1819   -0.6137 H   0  0  0  0  0  0  0  0  0  0  0  0
    0.8625   -0.5605   -1.9599 H   0  0  0  0  0  0  0  0  0  0  0  0
   -1.9357   -1.4048    1.7688 H   0  0  0  0  0  0  0  0  0  0  0  0
   -1.4340    0.6623   -1.7596 H   0  0  0  0  0  0  0  0  0  0  0  0
   -2.6607    1.0837   -0.4014 H   0  0  0  0  0  0  0  0  0  0  0  0
   -0.8714    1.1337    1.3299 H   0  0  0  0  0  0  0  0  0  0  0  0
  1  2  1  0
  2  3  1  0
  3  4  1  0
  4  5  2  0
  4  6  1  0
  6  7  1  0
  6  8  1  0
  8  9  1  0
  9  2  1  0
  9  6  1  0
  1 10  1  0
  1 11  1  0
  1 12  1  0
  2 13  1  0
  3 14  1  0
  3 15  1  0
  7 16  1  0
  8 17  1  0
  8 18  1  0
  9 19  1  0
M  END
