
     RDKit          3D

 25 25  0  0  0  0  0  0  0  0999 V2000
   -1.5830    1.3141   -1.0229 C   0  0  0  0  0  0  0  0  0  0  0  0
   -0.9387    0.8989    0.2605 C   0  0  0  0  0  0  0  0  0  0  0  0
    0.1964    1.8440    0.6269 C   0  0  0  0  0  0  0  0  0  0  0  0
    1.2721    1.0329    0.9966 O   0  0  0  0  0  0  0  0  0  0  0  0
    1.2022    0.0622    0.0141 C   0  0  0  0  0  0  0  0  0  0  0  0
    2.2370   -0.9791    0.0665 C   0  0  0  0  0  0  0  0  0  0  0  0
   -0.2123   -0.4205    0.1702 C   0  0  0  0  0  0  0  0  0  0  0  0
   -0.5647   -1.2077   -1.0614 C   0  0  0  0  0  0  0  0  0  0  0  0
   -0.4667   -1.1772    1.4272 C   0  0  0  0  0  0  0  0  0  0  0  0
   -1.2297    0.7774   -1.9081 H   0  0  0  0  0  0  0  0  0  0  0  0
   -1.3109    2.3972   -1.1915 H   0  0  0  0  0  0  0  0  0  0  0  0
   -2.6906    1.2053   -0.9780 H   0  0  0  0  0  0  0  0  0  0  0  0
   -1.6725    0.9402    1.0673 H   0  0  0  0  0  0  0  0  0  0  0  0
   -0.1027    2.5374    1.4362 H   0  0  0  0  0  0  0  0  0  0  0  0
    0.5366    2.4076   -0.2726 H   0  0  0  0  0  0  0  0  0  0  0  0
    1.2601    0.5881   -0.9649 H   0  0  0  0  0  0  0  0  0  0  0  0
    2.0659   -1.8248    0.7322 H   0  0  0  0  0  0  0  0  0  0  0  0
    2.3713   -1.3962   -0.9750 H   0  0  0  0  0  0  0  0  0  0  0  0
    3.2241   -0.4926    0.2903 H   0  0  0  0  0  0  0  0  0  0  0  0
    0.0187   -0.8395   -1.9291 H   0  0  0  0  0  0  0  0  0  0  0  0
   -1.6350   -1.2889   -1.2572 H   0  0  0  0  0  0  0  0  0  0  0  0
   -0.1919   -2.2514   -0.8766 H   0  0  0  0  0  0  0  0  0  0  0  0
   -1.2451   -1.9685    1.2377 H   0  0  0  0  0  0  0  0  0  0  0  0
    0.4005   -1.6350    1.8939 H   0  0  0  0  0  0  0  0  0  0  0  0
   -0.9409   -0.5239    2.2178 H   0  0  0  0  0  0  0  0  0  0  0  0
  1  2  1  0
  2  3  1  0
  3  4  1  0
  4  5  1  0
  5  6  1  0
  5  7  1  0
  7  8  1  0
  7  9  1  0
  7  2  1  0
  1 10  1  0
  1 11  1  0
  1 12  1  0
  2 13  1  0
  3 14  1  0
  3 15  1  0
  5 16  1  0
  6 17  1  0
  6 18  1  0
  6 19  1  0
  8 20  1  0
  8 21  1  0
  8 22  1  0
  9 23  1  0
  9 24  1  0
  9 25  1  0
M  END
