
     RDKit          3D

 16 16  0  0  0  0  0  0  0  0999 V2000
    2.0323    0.5690   -0.1868 C   0  0  0  0  0  0  0  0  0  0  0  0
    0.6474    0.0768   -0.2152 C   0  0  0  0  0  0  0  0  0  0  0  0
    0.3979   -1.1911    0.5673 C   0  0  0  0  0  0  0  0  0  0  0  0
   -0.9999   -1.2101    0.4944 O   0  0  0  0  0  0  0  0  0  0  0  0
   -1.4122    0.1081    0.4847 C   0  0  0  0  0  0  0  0  0  0  0  0
   -2.2695    0.4039   -0.6698 C   0  0  0  0  0  0  0  0  0  0  0  0
   -2.7244    1.5229   -0.8359 O   0  0  0  0  0  0  0  0  0  0  0  0
   -0.2818    0.9122    0.4146 O   0  0  0  0  0  0  0  0  0  0  0  0
    2.3410    1.1346    0.6963 H   0  0  0  0  0  0  0  0  0  0  0  0
    2.7276   -0.2822   -0.3510 H   0  0  0  0  0  0  0  0  0  0  0  0
    2.1889    1.2441   -1.0724 H   0  0  0  0  0  0  0  0  0  0  0  0
    0.2844   -0.0870   -1.2363 H   0  0  0  0  0  0  0  0  0  0  0  0
    0.6167   -1.0505    1.6646 H   0  0  0  0  0  0  0  0  0  0  0  0
    0.8721   -2.0750    0.1523 H   0  0  0  0  0  0  0  0  0  0  0  0
   -1.9315    0.3191    1.4647 H   0  0  0  0  0  0  0  0  0  0  0  0
   -2.4891   -0.3948   -1.3713 H   0  0  0  0  0  0  0  0  0  0  0  0
  1  2  1  0
  2  3  1  0
  3  4  1  0
  4  5  1  0
  5  6  1  0
  6  7  2  0
  5  8  1  0
  8  2  1  0
  1  9  1  0
  1 10  1  0
  1 11  1  0
  2 12  1  0
  3 13  1  0
  3 14  1  0
  5 15  1  0
  6 16  1  0
M  END
