
     RDKit          3D

 23 25  0  0  0  0  0  0  0  0999 V2000
    3.2183    0.4820    0.2486 C   0  0  0  0  0  0  0  0  0  0  0  0
    1.8352    0.3877   -0.3395 C   0  0  0  0  0  0  0  0  0  0  0  0
    1.3445   -0.9819   -0.5873 C   0  0  0  0  0  0  0  0  0  0  0  0
   -0.0132   -1.0481   -1.2769 C   0  0  0  0  0  0  0  0  0  0  0  0
   -0.5836   -0.5160    0.0235 C   0  0  0  0  0  0  0  0  0  0  0  0
   -1.6559    0.4998   -0.1551 C   0  0  0  0  0  0  0  0  0  0  0  0
   -2.3263    1.1275    0.9794 C   0  0  0  0  0  0  0  0  0  0  0  0
   -3.0833    0.0378    0.2849 C   0  0  0  0  0  0  0  0  0  0  0  0
    0.7388   -0.0599    0.5164 C   0  0  0  0  0  0  0  0  0  0  0  0
    3.9307    0.2598   -0.5997 H   0  0  0  0  0  0  0  0  0  0  0  0
    3.4101   -0.2969    1.0087 H   0  0  0  0  0  0  0  0  0  0  0  0
    3.4772    1.5003    0.5814 H   0  0  0  0  0  0  0  0  0  0  0  0
    1.6845    1.1011   -1.1952 H   0  0  0  0  0  0  0  0  0  0  0  0
    1.8132   -1.8834   -0.2085 H   0  0  0  0  0  0  0  0  0  0  0  0
   -0.3450   -2.0425   -1.5752 H   0  0  0  0  0  0  0  0  0  0  0  0
   -0.1388   -0.2661   -2.0623 H   0  0  0  0  0  0  0  0  0  0  0  0
   -0.9293   -1.4032    0.6317 H   0  0  0  0  0  0  0  0  0  0  0  0
   -1.6607    1.0457   -1.1309 H   0  0  0  0  0  0  0  0  0  0  0  0
   -2.7986    2.1271    0.8983 H   0  0  0  0  0  0  0  0  0  0  0  0
   -1.9004    0.9349    1.9981 H   0  0  0  0  0  0  0  0  0  0  0  0
   -3.1327   -0.9558    0.7736 H   0  0  0  0  0  0  0  0  0  0  0  0
   -3.9090    0.2847   -0.3843 H   0  0  0  0  0  0  0  0  0  0  0  0
    1.0244   -0.3347    1.5702 H   0  0  0  0  0  0  0  0  0  0  0  0
  1  2  1  0
  2  3  1  0
  3  4  1  0
  4  5  1  0
  5  6  1  0
  6  7  1  0
  7  8  1  0
  5  9  1  0
  9  2  1  0
  9  3  1  0
  8  6  1  0
  1 10  1  0
  1 11  1  0
  1 12  1  0
  2 13  1  0
  3 14  1  0
  4 15  1  0
  4 16  1  0
  5 17  1  0
  6 18  1  0
  7 19  1  0
  7 20  1  0
  8 21  1  0
  8 22  1  0
  9 23  1  0
M  END
