
     RDKit          3D

 21 21  0  0  0  0  0  0  0  0999 V2000
   -2.4060   -0.4760   -0.1260 C   0  0  0  0  0  0  0  0  0  0  0  0
   -0.9703   -0.1811   -0.5836 C   0  0  0  0  0  0  0  0  0  0  0  0
   -0.5811    1.1834   -0.1890 C   0  0  0  0  0  0  0  0  0  0  0  0
    0.6709    1.3321    0.5798 C   0  0  0  0  0  0  0  0  0  0  0  0
    1.7249    0.3147    0.3110 C   0  0  0  0  0  0  0  0  0  0  0  0
    2.3799    0.5526   -0.8883 O   0  0  0  0  0  0  0  0  0  0  0  0
    1.2482   -1.1012    0.3857 C   0  0  0  0  0  0  0  0  0  0  0  0
   -0.1370   -1.2716   -0.0769 C   0  0  0  0  0  0  0  0  0  0  0  0
   -0.6158   -2.3955   -0.0328 O   0  0  0  0  0  0  0  0  0  0  0  0
   -2.7950   -1.3992   -0.6081 H   0  0  0  0  0  0  0  0  0  0  0  0
   -3.0615    0.4012   -0.2915 H   0  0  0  0  0  0  0  0  0  0  0  0
   -2.3149   -0.7269    0.9538 H   0  0  0  0  0  0  0  0  0  0  0  0
   -1.0013   -0.2757   -1.7000 H   0  0  0  0  0  0  0  0  0  0  0  0
   -1.4089    1.6591    0.4168 H   0  0  0  0  0  0  0  0  0  0  0  0
   -0.5243    1.8443   -1.1048 H   0  0  0  0  0  0  0  0  0  0  0  0
    1.1111    2.3366    0.3666 H   0  0  0  0  0  0  0  0  0  0  0  0
    0.4440    1.3554    1.6849 H   0  0  0  0  0  0  0  0  0  0  0  0
    2.5091    0.4334    1.1145 H   0  0  0  0  0  0  0  0  0  0  0  0
    2.5061   -0.3177   -1.3553 H   0  0  0  0  0  0  0  0  0  0  0  0
    1.3191   -1.5407    1.4036 H   0  0  0  0  0  0  0  0  0  0  0  0
    1.9029   -1.7273   -0.2603 H   0  0  0  0  0  0  0  0  0  0  0  0
  1  2  1  0
  2  3  1  0
  3  4  1  0
  4  5  1  0
  5  6  1  0
  5  7  1  0
  7  8  1  0
  8  9  2  0
  8  2  1  0
  1 10  1  0
  1 11  1  0
  1 12  1  0
  2 13  1  0
  3 14  1  0
  3 15  1  0
  4 16  1  0
  4 17  1  0
  5 18  1  0
  6 19  1  0
  7 20  1  0
  7 21  1  0
M  END
