
     RDKit          3D

 21 22  0  0  0  0  0  0  0  0999 V2000
    2.6911    1.1379    0.0514 C   0  0  0  0  0  0  0  0  0  0  0  0
    1.3015    0.5924    0.4292 C   0  0  0  0  0  0  0  0  0  0  0  0
    1.3889   -0.7576    1.0827 C   0  0  0  0  0  0  0  0  0  0  0  0
    0.8115   -0.5419   -0.3229 C   0  0  0  0  0  0  0  0  0  0  0  0
   -0.5617   -1.0429   -0.4924 C   0  0  0  0  0  0  0  0  0  0  0  0
   -1.2675   -1.4028    0.7365 O   0  0  0  0  0  0  0  0  0  0  0  0
   -1.8195   -0.4684   -0.3058 C   0  0  0  0  0  0  0  0  0  0  0  0
   -2.2702    0.7618    0.3648 C   0  0  0  0  0  0  0  0  0  0  0  0
   -3.2749    0.4061    1.2981 O   0  0  0  0  0  0  0  0  0  0  0  0
    3.0008    0.6817   -0.9308 H   0  0  0  0  0  0  0  0  0  0  0  0
    2.7082    2.2240    0.0109 H   0  0  0  0  0  0  0  0  0  0  0  0
    3.4297    0.7809    0.7959 H   0  0  0  0  0  0  0  0  0  0  0  0
    0.7567    1.3235    1.0134 H   0  0  0  0  0  0  0  0  0  0  0  0
    0.6962   -0.9865    1.9021 H   0  0  0  0  0  0  0  0  0  0  0  0
    2.3611   -1.2775    1.1805 H   0  0  0  0  0  0  0  0  0  0  0  0
    1.5329   -0.9099   -1.1288 H   0  0  0  0  0  0  0  0  0  0  0  0
   -0.5560   -2.0190   -1.1049 H   0  0  0  0  0  0  0  0  0  0  0  0
   -2.7126   -1.0195   -0.7613 H   0  0  0  0  0  0  0  0  0  0  0  0
   -2.7735    1.4270   -0.3904 H   0  0  0  0  0  0  0  0  0  0  0  0
   -1.5707    1.3753    0.9017 H   0  0  0  0  0  0  0  0  0  0  0  0
   -3.8720   -0.2844    0.9342 H   0  0  0  0  0  0  0  0  0  0  0  0
  1  2  1  0
  2  3  1  0
  3  4  1  0
  4  5  1  0
  5  6  1  0
  6  7  1  0
  7  8  1  0
  8  9  1  0
  4  2  1  0
  7  5  1  0
  1 10  1  0
  1 11  1  0
  1 12  1  0
  2 13  1  0
  3 14  1  0
  3 15  1  0
  4 16  1  0
  5 17  1  0
  7 18  1  0
  8 19  1  0
  8 20  1  0
  9 21  1  0
M  END
