
     RDKit          3D

 21 21  0  0  0  0  0  0  0  0999 V2000
    2.6008   -0.4970    0.3819 C   0  0  0  0  0  0  0  0  0  0  0  0
    1.5683    0.1769   -0.4855 C   0  0  0  0  0  0  0  0  0  0  0  0
    0.5026   -0.7650   -1.0412 C   0  0  0  0  0  0  0  0  0  0  0  0
   -0.5187    0.2564   -0.6432 C   0  0  0  0  0  0  0  0  0  0  0  0
   -1.7829   -0.2787   -0.0190 C   0  0  0  0  0  0  0  0  0  0  0  0
   -1.5162   -0.9901    1.1485 O   0  0  0  0  0  0  0  0  0  0  0  0
   -2.6721    0.8642    0.2589 C   0  0  0  0  0  0  0  0  0  0  0  0
   -3.0100    1.5940   -0.6379 O   0  0  0  0  0  0  0  0  0  0  0  0
    0.4612    0.7624    0.4013 C   0  0  0  0  0  0  0  0  0  0  0  0
    2.6364   -1.5815    0.2649 H   0  0  0  0  0  0  0  0  0  0  0  0
    2.4889   -0.2009    1.4587 H   0  0  0  0  0  0  0  0  0  0  0  0
    3.5967   -0.0739    0.0579 H   0  0  0  0  0  0  0  0  0  0  0  0
    1.9480    0.8885   -1.2311 H   0  0  0  0  0  0  0  0  0  0  0  0
    0.6156   -0.8230   -2.1387 H   0  0  0  0  0  0  0  0  0  0  0  0
    0.4430   -1.7306   -0.5308 H   0  0  0  0  0  0  0  0  0  0  0  0
   -0.6969    1.0196   -1.4039 H   0  0  0  0  0  0  0  0  0  0  0  0
   -2.2977   -0.9159   -0.7876 H   0  0  0  0  0  0  0  0  0  0  0  0
   -2.2407   -0.8202    1.8263 H   0  0  0  0  0  0  0  0  0  0  0  0
   -3.0151    1.0429    1.2560 H   0  0  0  0  0  0  0  0  0  0  0  0
    0.3802    0.2109    1.3686 H   0  0  0  0  0  0  0  0  0  0  0  0
    0.5087    1.8609    0.4958 H   0  0  0  0  0  0  0  0  0  0  0  0
  1  2  1  0
  2  3  1  0
  3  4  1  0
  4  5  1  0
  5  6  1  0
  5  7  1  0
  7  8  2  0
  4  9  1  0
  9  2  1  0
  1 10  1  0
  1 11  1  0
  1 12  1  0
  2 13  1  0
  3 14  1  0
  3 15  1  0
  4 16  1  0
  5 17  1  0
  6 18  1  0
  7 19  1  0
  9 20  1  0
  9 21  1  0
M  END
