
     RDKit          3D

 21 22  0  0  0  0  0  0  0  0999 V2000
    2.5972    0.7021    0.1635 C   0  0  0  0  0  0  0  0  0  0  0  0
    1.8605   -0.6065    0.2243 C   0  0  0  0  0  0  0  0  0  0  0  0
    0.6024   -0.7062   -0.6441 C   0  0  0  0  0  0  0  0  0  0  0  0
    0.1033    0.4963   -1.0735 O   0  0  0  0  0  0  0  0  0  0  0  0
   -1.2380    0.5247   -1.3078 C   0  0  0  0  0  0  0  0  0  0  0  0
   -2.1256    0.4216   -0.1343 C   0  0  0  0  0  0  0  0  0  0  0  0
   -1.5328   -0.0563    1.1259 C   0  0  0  0  0  0  0  0  0  0  0  0
   -0.2168    0.2480    1.3373 O   0  0  0  0  0  0  0  0  0  0  0  0
    0.5607   -0.7729    0.8528 C   0  0  0  0  0  0  0  0  0  0  0  0
    2.1880    1.4768    0.8266 H   0  0  0  0  0  0  0  0  0  0  0  0
    3.7048    0.5568    0.3098 H   0  0  0  0  0  0  0  0  0  0  0  0
    2.5014    1.0664   -0.9008 H   0  0  0  0  0  0  0  0  0  0  0  0
    2.5208   -1.4992    0.1831 H   0  0  0  0  0  0  0  0  0  0  0  0
    0.4731   -1.6264   -1.2439 H   0  0  0  0  0  0  0  0  0  0  0  0
   -1.4628    1.4929   -1.8436 H   0  0  0  0  0  0  0  0  0  0  0  0
   -1.4609   -0.2625   -2.0870 H   0  0  0  0  0  0  0  0  0  0  0  0
   -2.9749   -0.2737   -0.4060 H   0  0  0  0  0  0  0  0  0  0  0  0
   -2.6482    1.4011    0.0729 H   0  0  0  0  0  0  0  0  0  0  0  0
   -2.1117    0.3622    2.0010 H   0  0  0  0  0  0  0  0  0  0  0  0
   -1.6501   -1.1717    1.2415 H   0  0  0  0  0  0  0  0  0  0  0  0
    0.3098   -1.7734    1.3022 H   0  0  0  0  0  0  0  0  0  0  0  0
  1  2  1  0
  2  3  1  0
  3  4  1  0
  4  5  1  0
  5  6  1  0
  6  7  1  0
  7  8  1  0
  8  9  1  0
  9  2  1  0
  9  3  1  0
  1 10  1  0
  1 11  1  0
  1 12  1  0
  2 13  1  0
  3 14  1  0
  5 15  1  0
  5 16  1  0
  6 17  1  0
  6 18  1  0
  7 19  1  0
  7 20  1  0
  9 21  1  0
M  END
