
     RDKit          3D

 21 22  0  0  0  0  0  0  0  0999 V2000
    2.2751    0.3521    0.3608 C   0  0  0  0  0  0  0  0  0  0  0  0
    0.7721    0.3581    0.3847 C   0  0  0  0  0  0  0  0  0  0  0  0
    0.2419    1.2299   -0.7069 C   0  0  0  0  0  0  0  0  0  0  0  0
   -1.1058    1.0928   -0.9445 O   0  0  0  0  0  0  0  0  0  0  0  0
   -1.8254    0.6096    0.1325 C   0  0  0  0  0  0  0  0  0  0  0  0
   -1.6383   -0.8804    0.3053 C   0  0  0  0  0  0  0  0  0  0  0  0
   -0.6731   -1.3505   -0.7552 C   0  0  0  0  0  0  0  0  0  0  0  0
    0.2856   -1.0490    0.3479 C   0  0  0  0  0  0  0  0  0  0  0  0
   -0.7224   -1.1968    1.2952 O   0  0  0  0  0  0  0  0  0  0  0  0
    2.6687    1.3246    0.0516 H   0  0  0  0  0  0  0  0  0  0  0  0
    2.7006   -0.4187   -0.3178 H   0  0  0  0  0  0  0  0  0  0  0  0
    2.6477    0.1330    1.3998 H   0  0  0  0  0  0  0  0  0  0  0  0
    0.4730    0.8423    1.3599 H   0  0  0  0  0  0  0  0  0  0  0  0
    0.7983    1.1289   -1.6622 H   0  0  0  0  0  0  0  0  0  0  0  0
    0.4006    2.2975   -0.3753 H   0  0  0  0  0  0  0  0  0  0  0  0
   -2.9086    0.7683   -0.1125 H   0  0  0  0  0  0  0  0  0  0  0  0
   -1.5646    1.1391    1.0828 H   0  0  0  0  0  0  0  0  0  0  0  0
   -2.5537   -1.4698    0.4298 H   0  0  0  0  0  0  0  0  0  0  0  0
   -0.6127   -0.6714   -1.6505 H   0  0  0  0  0  0  0  0  0  0  0  0
   -0.7352   -2.3984   -1.0492 H   0  0  0  0  0  0  0  0  0  0  0  0
    1.0761   -1.8411    0.4238 H   0  0  0  0  0  0  0  0  0  0  0  0
  1  2  1  0
  2  3  1  0
  3  4  1  0
  4  5  1  0
  5  6  1  0
  6  7  1  0
  7  8  1  0
  8  9  1  0
  8  2  1  0
  9  6  1  0
  1 10  1  0
  1 11  1  0
  1 12  1  0
  2 13  1  0
  3 14  1  0
  3 15  1  0
  5 16  1  0
  5 17  1  0
  6 18  1  0
  7 19  1  0
  7 20  1  0
  8 21  1  0
M  END
