
     RDKit          3D

 19 20  0  0  0  0  0  0  0  0999 V2000
   -1.5397    0.0262    0.7980 C   0  0  0  0  0  0  0  0  0  0  0  0
   -1.5697   -0.0008   -0.7076 C   0  0  0  0  0  0  0  0  0  0  0  0
   -0.9264    1.1908   -1.3279 C   0  0  0  0  0  0  0  0  0  0  0  0
    0.4058    1.3006   -0.6384 C   0  0  0  0  0  0  0  0  0  0  0  0
    0.8129    0.0080   -0.6955 C   0  0  0  0  0  0  0  0  0  0  0  0
    2.0669   -0.6125   -0.2251 C   0  0  0  0  0  0  0  0  0  0  0  0
    1.8460   -1.5965    0.7272 O   0  0  0  0  0  0  0  0  0  0  0  0
   -0.3614   -0.6118   -1.3677 C   0  0  0  0  0  0  0  0  0  0  0  0
   -0.5828    0.3329   -2.3991 O   0  0  0  0  0  0  0  0  0  0  0  0
   -1.7145   -0.9606    1.2614 H   0  0  0  0  0  0  0  0  0  0  0  0
   -2.3630    0.6946    1.1253 H   0  0  0  0  0  0  0  0  0  0  0  0
   -0.5772    0.4545    1.1163 H   0  0  0  0  0  0  0  0  0  0  0  0
   -2.4839   -0.3601   -1.1774 H   0  0  0  0  0  0  0  0  0  0  0  0
   -1.4644    2.0715   -1.5416 H   0  0  0  0  0  0  0  0  0  0  0  0
    0.9028    2.1571   -0.2164 H   0  0  0  0  0  0  0  0  0  0  0  0
    2.5206   -1.1272   -1.1075 H   0  0  0  0  0  0  0  0  0  0  0  0
    2.8118    0.1468    0.0879 H   0  0  0  0  0  0  0  0  0  0  0  0
    2.5651   -1.4772    1.4174 H   0  0  0  0  0  0  0  0  0  0  0  0
   -0.3488   -1.6362   -1.6216 H   0  0  0  0  0  0  0  0  0  0  0  0
  1  2  1  0
  2  3  1  0
  3  4  1  0
  4  5  2  0
  5  6  1  0
  6  7  1  0
  5  8  1  0
  8  9  1  0
  8  2  1  0
  9  3  1  0
  1 10  1  0
  1 11  1  0
  1 12  1  0
  2 13  1  0
  3 14  1  0
  4 15  1  0
  6 16  1  0
  6 17  1  0
  7 18  1  0
  8 19  1  0
M  END
