
     RDKit          3D

 22 22  0  0  0  0  0  0  0  0999 V2000
   -1.7964   -1.3739   -0.0314 C   0  0  0  0  0  0  0  0  0  0  0  0
   -0.5923   -0.5497   -0.4301 C   0  0  0  0  0  0  0  0  0  0  0  0
    0.6417   -1.3229    0.0246 C   0  0  0  0  0  0  0  0  0  0  0  0
    1.6392   -0.2866    0.4374 C   0  0  0  0  0  0  0  0  0  0  0  0
    2.5938   -0.0505   -0.5400 O   0  0  0  0  0  0  0  0  0  0  0  0
    0.8906    0.9734    0.7357 C   0  0  0  0  0  0  0  0  0  0  0  0
   -0.5350    0.7765    0.2616 C   0  0  0  0  0  0  0  0  0  0  0  0
   -0.9040    1.9355   -0.6100 C   0  0  0  0  0  0  0  0  0  0  0  0
   -2.2392   -1.8267   -0.9569 H   0  0  0  0  0  0  0  0  0  0  0  0
   -1.5230   -2.1954    0.6843 H   0  0  0  0  0  0  0  0  0  0  0  0
   -2.5507   -0.7609    0.5246 H   0  0  0  0  0  0  0  0  0  0  0  0
   -0.5077   -0.4699   -1.5396 H   0  0  0  0  0  0  0  0  0  0  0  0
    1.0328   -1.9797   -0.7854 H   0  0  0  0  0  0  0  0  0  0  0  0
    0.4216   -1.9541    0.9186 H   0  0  0  0  0  0  0  0  0  0  0  0
    2.1974   -0.6221    1.3484 H   0  0  0  0  0  0  0  0  0  0  0  0
    3.1489   -0.8507   -0.7075 H   0  0  0  0  0  0  0  0  0  0  0  0
    0.8982    1.1644    1.8406 H   0  0  0  0  0  0  0  0  0  0  0  0
    1.3661    1.8217    0.2220 H   0  0  0  0  0  0  0  0  0  0  0  0
   -1.2499    0.7487    1.1231 H   0  0  0  0  0  0  0  0  0  0  0  0
   -1.5492    2.6603   -0.0492 H   0  0  0  0  0  0  0  0  0  0  0  0
   -1.3909    1.6459   -1.5622 H   0  0  0  0  0  0  0  0  0  0  0  0
    0.0080    2.5168   -0.9087 H   0  0  0  0  0  0  0  0  0  0  0  0
  1  2  1  0
  2  3  1  0
  3  4  1  0
  4  5  1  0
  4  6  1  0
  6  7  1  0
  7  8  1  0
  7  2  1  0
  1  9  1  0
  1 10  1  0
  1 11  1  0
  2 12  1  0
  3 13  1  0
  3 14  1  0
  4 15  1  0
  5 16  1  0
  6 17  1  0
  6 18  1  0
  7 19  1  0
  8 20  1  0
  8 21  1  0
  8 22  1  0
M  END
