
     RDKit          3D

 23 24  0  0  0  0  0  0  0  0999 V2000
   -1.7419   -1.5275    0.5405 C   0  0  0  0  0  0  0  0  0  0  0  0
   -1.2181   -0.5504   -0.4670 C   0  0  0  0  0  0  0  0  0  0  0  0
   -1.7132    0.8803   -0.1773 C   0  0  0  0  0  0  0  0  0  0  0  0
   -0.7825    1.8373   -0.6201 O   0  0  0  0  0  0  0  0  0  0  0  0
    0.3847    1.8425    0.1846 C   0  0  0  0  0  0  0  0  0  0  0  0
    0.5021    0.5003    0.7514 C   0  0  0  0  0  0  0  0  0  0  0  0
    1.2859   -0.6330    0.4352 C   0  0  0  0  0  0  0  0  0  0  0  0
    2.7284   -0.4137   -0.0023 C   0  0  0  0  0  0  0  0  0  0  0  0
    0.2526   -0.4150   -0.4996 C   0  0  0  0  0  0  0  0  0  0  0  0
   -2.1812   -2.4344    0.0517 H   0  0  0  0  0  0  0  0  0  0  0  0
   -0.9475   -1.9164    1.2224 H   0  0  0  0  0  0  0  0  0  0  0  0
   -2.5779   -1.0617    1.1155 H   0  0  0  0  0  0  0  0  0  0  0  0
   -1.6439   -0.8290   -1.4531 H   0  0  0  0  0  0  0  0  0  0  0  0
   -2.0013    1.0104    0.8653 H   0  0  0  0  0  0  0  0  0  0  0  0
   -2.6288    1.0851   -0.7860 H   0  0  0  0  0  0  0  0  0  0  0  0
    0.2262    2.6590    0.9366 H   0  0  0  0  0  0  0  0  0  0  0  0
    1.2159    2.1338   -0.5075 H   0  0  0  0  0  0  0  0  0  0  0  0
   -0.2167    0.3751    1.6165 H   0  0  0  0  0  0  0  0  0  0  0  0
    1.2273   -1.5398    1.0987 H   0  0  0  0  0  0  0  0  0  0  0  0
    2.7251   -0.0019   -1.0545 H   0  0  0  0  0  0  0  0  0  0  0  0
    3.3107   -1.3542   -0.0164 H   0  0  0  0  0  0  0  0  0  0  0  0
    3.2248    0.3374    0.6574 H   0  0  0  0  0  0  0  0  0  0  0  0
    0.5696    0.0157   -1.4978 H   0  0  0  0  0  0  0  0  0  0  0  0
  1  2  1  0
  2  3  1  0
  3  4  1  0
  4  5  1  0
  5  6  1  0
  6  7  1  0
  7  8  1  0
  7  9  1  0
  9  2  1  0
  9  6  1  0
  1 10  1  0
  1 11  1  0
  1 12  1  0
  2 13  1  0
  3 14  1  0
  3 15  1  0
  5 16  1  0
  5 17  1  0
  6 18  1  0
  7 19  1  0
  8 20  1  0
  8 21  1  0
  8 22  1  0
  9 23  1  0
M  END
