
     RDKit          3D

 25 26  0  0  0  0  0  0  0  0999 V2000
   -2.5671   -0.8297    0.2173 C   0  0  0  0  0  0  0  0  0  0  0  0
   -1.1674   -0.3259    0.3917 C   0  0  0  0  0  0  0  0  0  0  0  0
   -0.1308   -1.4274    0.2326 C   0  0  0  0  0  0  0  0  0  0  0  0
    1.1304   -0.5561    0.3229 C   0  0  0  0  0  0  0  0  0  0  0  0
    2.3687   -1.3090    0.0032 C   0  0  0  0  0  0  0  0  0  0  0  0
    0.7930    0.5400   -0.6381 C   0  0  0  0  0  0  0  0  0  0  0  0
    0.8921    1.9302   -0.0340 C   0  0  0  0  0  0  0  0  0  0  0  0
   -0.5997    2.0848   -0.2090 C   0  0  0  0  0  0  0  0  0  0  0  0
   -0.7374    0.6564   -0.6427 C   0  0  0  0  0  0  0  0  0  0  0  0
   -2.7048   -1.4011   -0.7122 H   0  0  0  0  0  0  0  0  0  0  0  0
   -3.2564    0.0031    0.3434 H   0  0  0  0  0  0  0  0  0  0  0  0
   -2.7645   -1.5442    1.0530 H   0  0  0  0  0  0  0  0  0  0  0  0
   -1.0453    0.1193    1.3813 H   0  0  0  0  0  0  0  0  0  0  0  0
   -0.1987   -1.8026   -0.7932 H   0  0  0  0  0  0  0  0  0  0  0  0
   -0.1776   -2.1745    1.0204 H   0  0  0  0  0  0  0  0  0  0  0  0
    1.1225   -0.1378    1.3580 H   0  0  0  0  0  0  0  0  0  0  0  0
    3.2160   -0.8157    0.5638 H   0  0  0  0  0  0  0  0  0  0  0  0
    2.6515   -1.2521   -1.0581 H   0  0  0  0  0  0  0  0  0  0  0  0
    2.3393   -2.3511    0.3939 H   0  0  0  0  0  0  0  0  0  0  0  0
    1.2401    0.4523   -1.6293 H   0  0  0  0  0  0  0  0  0  0  0  0
    1.5055    2.5957   -0.6706 H   0  0  0  0  0  0  0  0  0  0  0  0
    1.2326    1.9128    1.0296 H   0  0  0  0  0  0  0  0  0  0  0  0
   -0.8516    2.8177   -1.0211 H   0  0  0  0  0  0  0  0  0  0  0  0
   -1.1398    2.2816    0.7564 H   0  0  0  0  0  0  0  0  0  0  0  0
   -1.1506    0.5334   -1.6592 H   0  0  0  0  0  0  0  0  0  0  0  0
  1  2  1  0
  2  3  1  0
  3  4  1  0
  4  5  1  0
  4  6  1  0
  6  7  1  0
  7  8  1  0
  8  9  1  0
  9  2  1  0
  9  6  1  0
  1 10  1  0
  1 11  1  0
  1 12  1  0
  2 13  1  0
  3 14  1  0
  3 15  1  0
  4 16  1  0
  5 17  1  0
  5 18  1  0
  5 19  1  0
  6 20  1  0
  7 21  1  0
  7 22  1  0
  8 23  1  0
  8 24  1  0
  9 25  1  0
M  END
