
     RDKit          3D

 19 19  0  0  0  0  0  0  0  0999 V2000
    2.4961   -0.4325   -0.5415 C   0  0  0  0  0  0  0  0  0  0  0  0
    1.0195   -0.5672   -0.3671 C   0  0  0  0  0  0  0  0  0  0  0  0
    0.2867    0.7569   -0.5421 C   0  0  0  0  0  0  0  0  0  0  0  0
   -0.9921    0.4804    0.1967 C   0  0  0  0  0  0  0  0  0  0  0  0
   -1.2460    1.4753    1.1314 O   0  0  0  0  0  0  0  0  0  0  0  0
   -2.1469    0.2636   -0.6676 C   0  0  0  0  0  0  0  0  0  0  0  0
   -3.1519    0.9174   -0.5107 O   0  0  0  0  0  0  0  0  0  0  0  0
   -0.6824   -0.8314    0.9317 C   0  0  0  0  0  0  0  0  0  0  0  0
    0.7130   -0.8425    0.9861 O   0  0  0  0  0  0  0  0  0  0  0  0
    2.9885   -0.3636    0.4447 H   0  0  0  0  0  0  0  0  0  0  0  0
    2.7085    0.5238   -1.0667 H   0  0  0  0  0  0  0  0  0  0  0  0
    2.8841   -1.3030   -1.1399 H   0  0  0  0  0  0  0  0  0  0  0  0
    0.5464   -1.3034   -1.0373 H   0  0  0  0  0  0  0  0  0  0  0  0
    0.8604    1.5121    0.0432 H   0  0  0  0  0  0  0  0  0  0  0  0
    0.1547    1.0254   -1.5939 H   0  0  0  0  0  0  0  0  0  0  0  0
   -2.2001    1.7126    1.1017 H   0  0  0  0  0  0  0  0  0  0  0  0
   -2.1188   -0.4717   -1.4455 H   0  0  0  0  0  0  0  0  0  0  0  0
   -1.1475   -0.8506    1.9313 H   0  0  0  0  0  0  0  0  0  0  0  0
   -0.9723   -1.7014    0.3041 H   0  0  0  0  0  0  0  0  0  0  0  0
  1  2  1  0
  2  3  1  0
  3  4  1  0
  4  5  1  0
  4  6  1  0
  6  7  2  0
  4  8  1  0
  8  9  1  0
  9  2  1  0
  1 10  1  0
  1 11  1  0
  1 12  1  0
  2 13  1  0
  3 14  1  0
  3 15  1  0
  5 16  1  0
  6 17  1  0
  8 18  1  0
  8 19  1  0
M  END
