
     RDKit          3D

 21 23  0  0  0  0  0  0  0  0999 V2000
    2.6418    0.0181    0.7320 C   0  0  0  0  0  0  0  0  0  0  0  0
    1.1970   -0.4169    0.7322 C   0  0  0  0  0  0  0  0  0  0  0  0
    0.7108   -0.6178   -0.6711 C   0  0  0  0  0  0  0  0  0  0  0  0
    0.7083    0.7966   -0.7640 O   0  0  0  0  0  0  0  0  0  0  0  0
    0.2934    0.7586    0.5899 C   0  0  0  0  0  0  0  0  0  0  0  0
   -1.1157    0.2420    0.4082 C   0  0  0  0  0  0  0  0  0  0  0  0
   -2.0948    1.2216   -0.1665 C   0  0  0  0  0  0  0  0  0  0  0  0
   -1.4512   -1.1498    0.6862 C   0  0  0  0  0  0  0  0  0  0  0  0
   -0.7515   -0.9179   -0.5905 C   0  0  0  0  0  0  0  0  0  0  0  0
    3.1708   -0.5995   -0.0207 H   0  0  0  0  0  0  0  0  0  0  0  0
    3.0577   -0.2316    1.7333 H   0  0  0  0  0  0  0  0  0  0  0  0
    2.7759    1.0818    0.4943 H   0  0  0  0  0  0  0  0  0  0  0  0
    0.9680   -1.1749    1.4718 H   0  0  0  0  0  0  0  0  0  0  0  0
    1.3261   -1.1429   -1.3731 H   0  0  0  0  0  0  0  0  0  0  0  0
    0.4495    1.6406    1.1699 H   0  0  0  0  0  0  0  0  0  0  0  0
   -2.4790    0.8925   -1.1759 H   0  0  0  0  0  0  0  0  0  0  0  0
   -1.6149    2.1986   -0.3433 H   0  0  0  0  0  0  0  0  0  0  0  0
   -2.9588    1.4274    0.5167 H   0  0  0  0  0  0  0  0  0  0  0  0
   -1.0049   -1.6735    1.5426 H   0  0  0  0  0  0  0  0  0  0  0  0
   -2.5396   -1.4094    0.5672 H   0  0  0  0  0  0  0  0  0  0  0  0
   -1.2888   -0.9434   -1.5340 H   0  0  0  0  0  0  0  0  0  0  0  0
  1  2  1  0
  2  3  1  0
  3  4  1  0
  4  5  1  0
  5  6  1  0
  6  7  1  0
  6  8  1  0
  8  9  1  0
  5  2  1  0
  9  6  1  0
  9  3  1  0
  1 10  1  0
  1 11  1  0
  1 12  1  0
  2 13  1  0
  3 14  1  0
  5 15  1  0
  7 16  1  0
  7 17  1  0
  7 18  1  0
  8 19  1  0
  8 20  1  0
  9 21  1  0
M  END
