
     RDKit          3D

 25 26  0  0  0  0  0  0  0  0999 V2000
    2.9948   -0.1855    0.3506 C   0  0  0  0  0  0  0  0  0  0  0  0
    1.7101   -0.2650   -0.4345 C   0  0  0  0  0  0  0  0  0  0  0  0
    0.8728   -1.4504   -0.0915 C   0  0  0  0  0  0  0  0  0  0  0  0
   -0.5326   -0.9536   -0.3152 C   0  0  0  0  0  0  0  0  0  0  0  0
   -1.2008   -0.2686    0.8820 C   0  0  0  0  0  0  0  0  0  0  0  0
   -2.7200   -0.2416    0.9131 C   0  0  0  0  0  0  0  0  0  0  0  0
   -0.5480    0.5126   -0.1845 C   0  0  0  0  0  0  0  0  0  0  0  0
   -1.4594    1.3644   -1.0687 C   0  0  0  0  0  0  0  0  0  0  0  0
    0.8793    0.9447   -0.1118 C   0  0  0  0  0  0  0  0  0  0  0  0
    2.8488   -0.1838    1.4389 H   0  0  0  0  0  0  0  0  0  0  0  0
    3.6770   -0.9951    0.0300 H   0  0  0  0  0  0  0  0  0  0  0  0
    3.4544    0.8130    0.0998 H   0  0  0  0  0  0  0  0  0  0  0  0
    1.9848   -0.3391   -1.5075 H   0  0  0  0  0  0  0  0  0  0  0  0
    0.9631   -1.6994    0.9872 H   0  0  0  0  0  0  0  0  0  0  0  0
    1.1154   -2.3563   -0.6816 H   0  0  0  0  0  0  0  0  0  0  0  0
   -1.1857   -1.4279   -1.0613 H   0  0  0  0  0  0  0  0  0  0  0  0
   -0.7465   -0.5099    1.8383 H   0  0  0  0  0  0  0  0  0  0  0  0
   -3.0675    0.7464    1.2960 H   0  0  0  0  0  0  0  0  0  0  0  0
   -3.0831   -0.3914   -0.1176 H   0  0  0  0  0  0  0  0  0  0  0  0
   -3.1001   -1.0017    1.6049 H   0  0  0  0  0  0  0  0  0  0  0  0
   -2.1074    0.7381   -1.7130 H   0  0  0  0  0  0  0  0  0  0  0  0
   -2.1228    1.9545   -0.4010 H   0  0  0  0  0  0  0  0  0  0  0  0
   -0.8612    2.0645   -1.6991 H   0  0  0  0  0  0  0  0  0  0  0  0
    1.1540    1.4275    0.8482 H   0  0  0  0  0  0  0  0  0  0  0  0
    1.0805    1.7038   -0.9017 H   0  0  0  0  0  0  0  0  0  0  0  0
  1  2  1  0
  2  3  1  0
  3  4  1  0
  4  5  1  0
  5  6  1  0
  5  7  1  0
  7  8  1  0
  7  9  1  0
  9  2  1  0
  7  4  1  0
  1 10  1  0
  1 11  1  0
  1 12  1  0
  2 13  1  0
  3 14  1  0
  3 15  1  0
  4 16  1  0
  5 17  1  0
  6 18  1  0
  6 19  1  0
  6 20  1  0
  8 21  1  0
  8 22  1  0
  8 23  1  0
  9 24  1  0
  9 25  1  0
M  END
