
     RDKit          3D

 21 21  0  0  0  0  0  0  0  0999 V2000
   -1.1504    1.0303   -1.4179 C   0  0  0  0  0  0  0  0  0  0  0  0
   -0.6261   -0.2230   -0.7573 C   0  0  0  0  0  0  0  0  0  0  0  0
   -1.8032   -1.0608   -0.2452 C   0  0  0  0  0  0  0  0  0  0  0  0
   -0.9636   -1.3005    1.0128 C   0  0  0  0  0  0  0  0  0  0  0  0
   -0.2752    0.0197    0.6958 C   0  0  0  0  0  0  0  0  0  0  0  0
    1.1846    0.0179    0.9784 C   0  0  0  0  0  0  0  0  0  0  0  0
    1.5842   -0.8093    1.7667 O   0  0  0  0  0  0  0  0  0  0  0  0
    2.1374    0.9535    0.3572 C   0  0  0  0  0  0  0  0  0  0  0  0
    3.4110    0.6760    0.8411 O   0  0  0  0  0  0  0  0  0  0  0  0
   -1.9267    1.4476   -0.7322 H   0  0  0  0  0  0  0  0  0  0  0  0
   -0.3093    1.7482   -1.4639 H   0  0  0  0  0  0  0  0  0  0  0  0
   -1.5533    0.7638   -2.3966 H   0  0  0  0  0  0  0  0  0  0  0  0
    0.0967   -0.7945   -1.3428 H   0  0  0  0  0  0  0  0  0  0  0  0
   -2.0239   -1.9515   -0.8339 H   0  0  0  0  0  0  0  0  0  0  0  0
   -2.6739   -0.4145    0.0262 H   0  0  0  0  0  0  0  0  0  0  0  0
   -0.2856   -2.1618    0.8294 H   0  0  0  0  0  0  0  0  0  0  0  0
   -1.5520   -1.3135    1.9262 H   0  0  0  0  0  0  0  0  0  0  0  0
   -0.8264    0.8920    1.0839 H   0  0  0  0  0  0  0  0  0  0  0  0
    2.1889    0.7647   -0.7540 H   0  0  0  0  0  0  0  0  0  0  0  0
    1.8622    2.0160    0.5033 H   0  0  0  0  0  0  0  0  0  0  0  0
    3.5051   -0.3003    0.9756 H   0  0  0  0  0  0  0  0  0  0  0  0
  1  2  1  0
  2  3  1  0
  3  4  1  0
  4  5  1  0
  5  6  1  0
  6  7  2  0
  6  8  1  0
  8  9  1  0
  5  2  1  0
  1 10  1  0
  1 11  1  0
  1 12  1  0
  2 13  1  0
  3 14  1  0
  3 15  1  0
  4 16  1  0
  4 17  1  0
  5 18  1  0
  8 19  1  0
  8 20  1  0
  9 21  1  0
M  END
