
     RDKit          3D

 23 24  0  0  0  0  0  0  0  0999 V2000
   -1.5263   -1.3754    0.4449 C   0  0  0  0  0  0  0  0  0  0  0  0
   -0.9204   -0.2865   -0.3785 C   0  0  0  0  0  0  0  0  0  0  0  0
   -1.7293    0.9717   -0.3634 C   0  0  0  0  0  0  0  0  0  0  0  0
   -0.6801    2.0462   -0.3024 C   0  0  0  0  0  0  0  0  0  0  0  0
    0.4759    1.4925    0.1907 O   0  0  0  0  0  0  0  0  0  0  0  0
    0.4363    0.1361    0.0262 C   0  0  0  0  0  0  0  0  0  0  0  0
    1.1271   -0.6395    1.0989 C   0  0  0  0  0  0  0  0  0  0  0  0
    2.4209   -0.4898    0.2991 C   0  0  0  0  0  0  0  0  0  0  0  0
    1.5548   -0.2976   -0.9308 C   0  0  0  0  0  0  0  0  0  0  0  0
   -1.2059   -2.3863    0.1626 H   0  0  0  0  0  0  0  0  0  0  0  0
   -2.6425   -1.3575    0.3032 H   0  0  0  0  0  0  0  0  0  0  0  0
   -1.3804   -1.2370    1.5416 H   0  0  0  0  0  0  0  0  0  0  0  0
   -0.8808   -0.6443   -1.4337 H   0  0  0  0  0  0  0  0  0  0  0  0
   -2.3024    1.1082   -1.3186 H   0  0  0  0  0  0  0  0  0  0  0  0
   -2.4137    1.0148    0.4994 H   0  0  0  0  0  0  0  0  0  0  0  0
   -0.5557    2.5414   -1.2944 H   0  0  0  0  0  0  0  0  0  0  0  0
   -0.9944    2.8427    0.4306 H   0  0  0  0  0  0  0  0  0  0  0  0
    0.8293   -1.6826    1.2483 H   0  0  0  0  0  0  0  0  0  0  0  0
    1.2051   -0.0566    2.0413 H   0  0  0  0  0  0  0  0  0  0  0  0
    2.9683    0.4483    0.5504 H   0  0  0  0  0  0  0  0  0  0  0  0
    3.0176   -1.4044    0.2394 H   0  0  0  0  0  0  0  0  0  0  0  0
    1.3284   -1.2470   -1.4393 H   0  0  0  0  0  0  0  0  0  0  0  0
    1.8682    0.5027   -1.6155 H   0  0  0  0  0  0  0  0  0  0  0  0
  1  2  1  0
  2  3  1  0
  3  4  1  0
  4  5  1  0
  5  6  1  0
  6  7  1  0
  7  8  1  0
  8  9  1  0
  6  2  1  0
  9  6  1  0
  1 10  1  0
  1 11  1  0
  1 12  1  0
  2 13  1  0
  3 14  1  0
  3 15  1  0
  4 16  1  0
  4 17  1  0
  7 18  1  0
  7 19  1  0
  8 20  1  0
  8 21  1  0
  9 22  1  0
  9 23  1  0
M  END
