
     RDKit          3D

 21 21  0  0  0  0  0  0  0  0999 V2000
   -2.5858   -1.0375   -0.2626 C   0  0  0  0  0  0  0  0  0  0  0  0
   -1.3696   -0.1747   -0.3935 C   0  0  0  0  0  0  0  0  0  0  0  0
   -0.2047   -0.9002    0.2926 C   0  0  0  0  0  0  0  0  0  0  0  0
    0.9932   -0.0497    0.0872 C   0  0  0  0  0  0  0  0  0  0  0  0
    2.3333   -0.6397   -0.0480 C   0  0  0  0  0  0  0  0  0  0  0  0
    3.3335    0.2773   -0.2322 O   0  0  0  0  0  0  0  0  0  0  0  0
    0.8122    1.2542    0.0304 C   0  0  0  0  0  0  0  0  0  0  0  0
   -0.5203    1.9055    0.1609 C   0  0  0  0  0  0  0  0  0  0  0  0
   -1.5507    1.0033    0.2926 O   0  0  0  0  0  0  0  0  0  0  0  0
   -3.0023   -0.9551    0.7719 H   0  0  0  0  0  0  0  0  0  0  0  0
   -3.3754   -0.8012   -1.0188 H   0  0  0  0  0  0  0  0  0  0  0  0
   -2.2477   -2.1072   -0.3523 H   0  0  0  0  0  0  0  0  0  0  0  0
   -1.1001   -0.0451   -1.4594 H   0  0  0  0  0  0  0  0  0  0  0  0
   -0.4560   -0.8870    1.3803 H   0  0  0  0  0  0  0  0  0  0  0  0
   -0.0818   -1.9238   -0.0745 H   0  0  0  0  0  0  0  0  0  0  0  0
    2.3117   -1.2972   -0.9608 H   0  0  0  0  0  0  0  0  0  0  0  0
    2.4965   -1.3006    0.8328 H   0  0  0  0  0  0  0  0  0  0  0  0
    3.6528    0.6890    0.6083 H   0  0  0  0  0  0  0  0  0  0  0  0
    1.6595    1.8847   -0.1166 H   0  0  0  0  0  0  0  0  0  0  0  0
   -0.6239    2.6153   -0.6639 H   0  0  0  0  0  0  0  0  0  0  0  0
   -0.4744    2.4898    1.1256 H   0  0  0  0  0  0  0  0  0  0  0  0
  1  2  1  0
  2  3  1  0
  3  4  1  0
  4  5  1  0
  5  6  1  0
  4  7  2  0
  7  8  1  0
  8  9  1  0
  9  2  1  0
  1 10  1  0
  1 11  1  0
  1 12  1  0
  2 13  1  0
  3 14  1  0
  3 15  1  0
  5 16  1  0
  5 17  1  0
  6 18  1  0
  7 19  1  0
  8 20  1  0
  8 21  1  0
M  END
