
     RDKit          3D

 21 23  0  0  0  0  0  0  0  0999 V2000
    1.9337   -0.8722    0.9233 C   0  0  0  0  0  0  0  0  0  0  0  0
    1.1943    0.2361    0.2461 C   0  0  0  0  0  0  0  0  0  0  0  0
    0.1673   -0.0337   -0.7877 C   0  0  0  0  0  0  0  0  0  0  0  0
   -0.3586    1.1573   -1.5239 C   0  0  0  0  0  0  0  0  0  0  0  0
   -0.8005    1.7319   -0.1825 C   0  0  0  0  0  0  0  0  0  0  0  0
   -0.2157    0.5570    0.5502 C   0  0  0  0  0  0  0  0  0  0  0  0
   -1.1693   -0.4374    1.1073 C   0  0  0  0  0  0  0  0  0  0  0  0
   -1.6144   -1.2444    0.0635 O   0  0  0  0  0  0  0  0  0  0  0  0
   -0.5786   -1.3224   -0.8583 C   0  0  0  0  0  0  0  0  0  0  0  0
    1.5208   -1.8542    0.6515 H   0  0  0  0  0  0  0  0  0  0  0  0
    1.9186   -0.8135    2.0322 H   0  0  0  0  0  0  0  0  0  0  0  0
    2.9885   -0.8638    0.5835 H   0  0  0  0  0  0  0  0  0  0  0  0
    1.8365    1.1339    0.0308 H   0  0  0  0  0  0  0  0  0  0  0  0
    0.4080    1.8088   -2.0068 H   0  0  0  0  0  0  0  0  0  0  0  0
   -1.1878    0.8790   -2.1944 H   0  0  0  0  0  0  0  0  0  0  0  0
   -0.2853    2.6725    0.0604 H   0  0  0  0  0  0  0  0  0  0  0  0
   -1.9196    1.7736   -0.1270 H   0  0  0  0  0  0  0  0  0  0  0  0
   -0.8181   -1.0085    1.9665 H   0  0  0  0  0  0  0  0  0  0  0  0
   -2.0763    0.1341    1.4631 H   0  0  0  0  0  0  0  0  0  0  0  0
    0.0242   -2.2214   -0.6851 H   0  0  0  0  0  0  0  0  0  0  0  0
   -0.9677   -1.4125   -1.9143 H   0  0  0  0  0  0  0  0  0  0  0  0
  1  2  1  0
  2  3  1  0
  3  4  1  0
  4  5  1  0
  5  6  1  0
  6  7  1  0
  7  8  1  0
  8  9  1  0
  6  2  1  0
  6  3  1  0
  9  3  1  0
  1 10  1  0
  1 11  1  0
  1 12  1  0
  2 13  1  0
  4 14  1  0
  4 15  1  0
  5 16  1  0
  5 17  1  0
  7 18  1  0
  7 19  1  0
  9 20  1  0
  9 21  1  0
M  END
