
     RDKit          3D

 23 23  0  0  0  0  0  0  0  0999 V2000
    2.7833   -0.0976    0.0608 C   0  0  0  0  0  0  0  0  0  0  0  0
    1.2930    0.0304    0.3302 C   0  0  0  0  0  0  0  0  0  0  0  0
    0.6569   -1.2163   -0.1820 C   0  0  0  0  0  0  0  0  0  0  0  0
   -0.5953   -1.6595   -0.2372 C   0  0  0  0  0  0  0  0  0  0  0  0
   -1.8935   -1.0709    0.2024 C   0  0  0  0  0  0  0  0  0  0  0  0
   -1.9429    0.3345   -0.4132 C   0  0  0  0  0  0  0  0  0  0  0  0
   -1.4266    1.3228    0.5537 C   0  0  0  0  0  0  0  0  0  0  0  0
   -0.2424    1.8948    0.3390 O   0  0  0  0  0  0  0  0  0  0  0  0
    0.7316    1.2633   -0.3467 C   0  0  0  0  0  0  0  0  0  0  0  0
    3.3594    0.7238    0.4932 H   0  0  0  0  0  0  0  0  0  0  0  0
    3.0918   -1.0621    0.5504 H   0  0  0  0  0  0  0  0  0  0  0  0
    2.9266   -0.2345   -1.0164 H   0  0  0  0  0  0  0  0  0  0  0  0
    1.1579    0.1291    1.4164 H   0  0  0  0  0  0  0  0  0  0  0  0
    1.3286   -1.9478   -0.6118 H   0  0  0  0  0  0  0  0  0  0  0  0
   -0.7187   -2.6434   -0.6882 H   0  0  0  0  0  0  0  0  0  0  0  0
   -1.8250   -0.9837    1.3169 H   0  0  0  0  0  0  0  0  0  0  0  0
   -2.7451   -1.6794   -0.1101 H   0  0  0  0  0  0  0  0  0  0  0  0
   -3.0233    0.5106   -0.6909 H   0  0  0  0  0  0  0  0  0  0  0  0
   -1.3949    0.3331   -1.3664 H   0  0  0  0  0  0  0  0  0  0  0  0
   -2.2042    2.1429    0.6315 H   0  0  0  0  0  0  0  0  0  0  0  0
   -1.4357    0.8628    1.5859 H   0  0  0  0  0  0  0  0  0  0  0  0
    1.6132    1.9740   -0.3857 H   0  0  0  0  0  0  0  0  0  0  0  0
    0.5050    1.0731   -1.4314 H   0  0  0  0  0  0  0  0  0  0  0  0
  1  2  1  0
  2  3  1  0
  3  4  2  3
  4  5  1  0
  5  6  1  0
  6  7  1  0
  7  8  1  0
  8  9  1  0
  9  2  1  0
  1 10  1  0
  1 11  1  0
  1 12  1  0
  2 13  1  0
  3 14  1  0
  4 15  1  0
  5 16  1  0
  5 17  1  0
  6 18  1  0
  6 19  1  0
  7 20  1  0
  7 21  1  0
  9 22  1  0
  9 23  1  0
M  END
