
     RDKit          3D

 16 16  0  0  0  0  0  0  0  0999 V2000
    1.9053   -0.1392    0.0409 C   0  0  0  0  0  0  0  0  0  0  0  0
    0.4672   -0.1305    0.4191 C   0  0  0  0  0  0  0  0  0  0  0  0
   -0.3858   -1.0255   -0.4571 C   0  0  0  0  0  0  0  0  0  0  0  0
   -1.7412   -0.5063   -0.1325 C   0  0  0  0  0  0  0  0  0  0  0  0
   -1.6428    0.7753    0.1994 C   0  0  0  0  0  0  0  0  0  0  0  0
   -0.2119    1.2112    0.1220 C   0  0  0  0  0  0  0  0  0  0  0  0
    2.0186   -0.8670   -0.8104 H   0  0  0  0  0  0  0  0  0  0  0  0
    2.3202    0.8302   -0.2372 H   0  0  0  0  0  0  0  0  0  0  0  0
    2.4767   -0.5947    0.8984 H   0  0  0  0  0  0  0  0  0  0  0  0
    0.2816   -0.4403    1.4636 H   0  0  0  0  0  0  0  0  0  0  0  0
   -0.1453   -0.7648   -1.5075 H   0  0  0  0  0  0  0  0  0  0  0  0
   -0.2644   -2.0913   -0.2330 H   0  0  0  0  0  0  0  0  0  0  0  0
   -2.6384   -1.1086   -0.1726 H   0  0  0  0  0  0  0  0  0  0  0  0
   -2.4733    1.4067    0.4826 H   0  0  0  0  0  0  0  0  0  0  0  0
   -0.0133    1.4691   -0.9280 H   0  0  0  0  0  0  0  0  0  0  0  0
    0.0468    1.9757    0.8523 H   0  0  0  0  0  0  0  0  0  0  0  0
  1  2  1  0
  2  3  1  0
  3  4  1  0
  4  5  2  0
  5  6  1  0
  6  2  1  0
  1  7  1  0
  1  8  1  0
  1  9  1  0
  2 10  1  0
  3 11  1  0
  3 12  1  0
  4 13  1  0
  5 14  1  0
  6 15  1  0
  6 16  1  0
M  END
