
     RDKit          3D

 19 20  0  0  0  0  0  0  0  0999 V2000
    2.0496    0.0103    1.2027 C   0  0  0  0  0  0  0  0  0  0  0  0
    1.3134    0.5203    0.0051 C   0  0  0  0  0  0  0  0  0  0  0  0
    0.9544   -0.5472   -0.9660 C   0  0  0  0  0  0  0  0  0  0  0  0
    1.6513   -1.2918   -1.5696 O   0  0  0  0  0  0  0  0  0  0  0  0
   -0.5173   -0.4295   -0.9768 C   0  0  0  0  0  0  0  0  0  0  0  0
   -0.6997    0.9754   -0.9571 O   0  0  0  0  0  0  0  0  0  0  0  0
   -0.1191    0.9156    0.3258 C   0  0  0  0  0  0  0  0  0  0  0  0
   -0.8771   -0.3931    0.4830 C   0  0  0  0  0  0  0  0  0  0  0  0
   -2.3433   -0.1288    0.6597 C   0  0  0  0  0  0  0  0  0  0  0  0
    1.4946   -0.7740    1.7270 H   0  0  0  0  0  0  0  0  0  0  0  0
    2.3404    0.8586    1.8225 H   0  0  0  0  0  0  0  0  0  0  0  0
    2.9928   -0.4612    0.8324 H   0  0  0  0  0  0  0  0  0  0  0  0
    1.8044    1.3766   -0.4451 H   0  0  0  0  0  0  0  0  0  0  0  0
   -1.0998   -0.9936   -1.6566 H   0  0  0  0  0  0  0  0  0  0  0  0
   -0.3028    1.7059    1.0067 H   0  0  0  0  0  0  0  0  0  0  0  0
   -0.4216   -1.1392    1.1308 H   0  0  0  0  0  0  0  0  0  0  0  0
   -2.6160    0.8797    0.3066 H   0  0  0  0  0  0  0  0  0  0  0  0
   -2.9453   -0.8775    0.0715 H   0  0  0  0  0  0  0  0  0  0  0  0
   -2.6589   -0.2063    1.7282 H   0  0  0  0  0  0  0  0  0  0  0  0
  1  2  1  0
  2  3  1  0
  3  4  2  0
  3  5  1  0
  5  6  1  0
  6  7  1  0
  7  8  1  0
  8  9  1  0
  7  2  1  0
  8  5  1  0
  1 10  1  0
  1 11  1  0
  1 12  1  0
  2 13  1  0
  5 14  1  0
  7 15  1  0
  8 16  1  0
  9 17  1  0
  9 18  1  0
  9 19  1  0
M  END
