
     RDKit          3D

 21 22  0  0  0  0  0  0  0  0999 V2000
    2.4232   -0.1150    0.4090 C   0  0  0  0  0  0  0  0  0  0  0  0
    1.3323    0.4863   -0.3843 C   0  0  0  0  0  0  0  0  0  0  0  0
    0.1337    0.9179    0.4846 C   0  0  0  0  0  0  0  0  0  0  0  0
   -0.9292    0.1973   -0.3467 C   0  0  0  0  0  0  0  0  0  0  0  0
   -2.3217    0.4422   -0.0226 C   0  0  0  0  0  0  0  0  0  0  0  0
   -2.5624    0.2710    1.3186 O   0  0  0  0  0  0  0  0  0  0  0  0
   -0.3988   -1.2004   -0.3739 C   0  0  0  0  0  0  0  0  0  0  0  0
    0.5926   -0.4744   -1.2745 C   0  0  0  0  0  0  0  0  0  0  0  0
   -0.5053    0.3265   -1.6677 O   0  0  0  0  0  0  0  0  0  0  0  0
    3.1941    0.6834    0.6133 H   0  0  0  0  0  0  0  0  0  0  0  0
    2.1111   -0.4953    1.3832 H   0  0  0  0  0  0  0  0  0  0  0  0
    2.9696   -0.9015   -0.1778 H   0  0  0  0  0  0  0  0  0  0  0  0
    1.6663    1.3939   -0.9436 H   0  0  0  0  0  0  0  0  0  0  0  0
    0.1740    0.4477    1.4772 H   0  0  0  0  0  0  0  0  0  0  0  0
    0.0040    2.0003    0.4883 H   0  0  0  0  0  0  0  0  0  0  0  0
   -2.5883    1.4968   -0.3226 H   0  0  0  0  0  0  0  0  0  0  0  0
   -2.9734   -0.2060   -0.6148 H   0  0  0  0  0  0  0  0  0  0  0  0
   -2.4722   -0.7042    1.5120 H   0  0  0  0  0  0  0  0  0  0  0  0
   -0.9651   -1.9355   -0.9825 H   0  0  0  0  0  0  0  0  0  0  0  0
    0.0109   -1.6060    0.5505 H   0  0  0  0  0  0  0  0  0  0  0  0
    1.1044   -1.0250   -2.0228 H   0  0  0  0  0  0  0  0  0  0  0  0
  1  2  1  0
  2  3  1  0
  3  4  1  0
  4  5  1  0
  5  6  1  0
  4  7  1  0
  7  8  1  0
  8  9  1  0
  8  2  1  0
  9  4  1  0
  1 10  1  0
  1 11  1  0
  1 12  1  0
  2 13  1  0
  3 14  1  0
  3 15  1  0
  5 16  1  0
  5 17  1  0
  6 18  1  0
  7 19  1  0
  7 20  1  0
  8 21  1  0
M  END
