
     RDKit          3D

 15 15  0  0  0  0  0  0  0  0999 V2000
    1.5393    0.2068    0.2603 C   0  0  0  0  0  0  0  0  0  0  0  0
    0.3793   -0.0628   -0.6980 C   0  0  0  0  0  0  0  0  0  0  0  0
   -0.2701   -1.3782   -0.4824 C   0  0  0  0  0  0  0  0  0  0  0  0
   -0.1784   -2.4965   -0.9280 O   0  0  0  0  0  0  0  0  0  0  0  0
   -1.1143   -0.7292    0.5489 C   0  0  0  0  0  0  0  0  0  0  0  0
   -0.9175    0.5750   -0.2371 C   0  0  0  0  0  0  0  0  0  0  0  0
   -0.7796    1.6856    0.5658 O   0  0  0  0  0  0  0  0  0  0  0  0
    1.1216    0.5287    1.2498 H   0  0  0  0  0  0  0  0  0  0  0  0
    2.0459   -0.7790    0.4298 H   0  0  0  0  0  0  0  0  0  0  0  0
    2.2465    0.9244   -0.1598 H   0  0  0  0  0  0  0  0  0  0  0  0
    0.6906    0.1709   -1.7191 H   0  0  0  0  0  0  0  0  0  0  0  0
   -0.6668   -0.7065    1.5664 H   0  0  0  0  0  0  0  0  0  0  0  0
   -2.1743   -0.9808    0.5473 H   0  0  0  0  0  0  0  0  0  0  0  0
   -1.6198    0.6284   -1.0690 H   0  0  0  0  0  0  0  0  0  0  0  0
   -0.3026    2.4130    0.1254 H   0  0  0  0  0  0  0  0  0  0  0  0
  1  2  1  0
  2  3  1  0
  3  4  2  0
  3  5  1  0
  5  6  1  0
  6  7  1  0
  6  2  1  0
  1  8  1  0
  1  9  1  0
  1 10  1  0
  2 11  1  0
  5 12  1  0
  5 13  1  0
  6 14  1  0
  7 15  1  0
M  END
