
     RDKit          3D

 25 26  0  0  0  0  0  0  0  0999 V2000
    2.4924   -0.4655    0.5906 C   0  0  0  0  0  0  0  0  0  0  0  0
    1.3295    0.4133    0.1584 C   0  0  0  0  0  0  0  0  0  0  0  0
    0.2990    0.3875    1.2621 C   0  0  0  0  0  0  0  0  0  0  0  0
   -1.0793    0.7409    0.7939 C   0  0  0  0  0  0  0  0  0  0  0  0
   -0.9030    1.7020   -0.3934 C   0  0  0  0  0  0  0  0  0  0  0  0
   -0.7294    0.4326   -1.2361 C   0  0  0  0  0  0  0  0  0  0  0  0
    0.6506   -0.1297   -1.0853 C   0  0  0  0  0  0  0  0  0  0  0  0
   -1.6504   -0.2205   -0.1943 C   0  0  0  0  0  0  0  0  0  0  0  0
   -1.4592   -1.6637    0.0201 C   0  0  0  0  0  0  0  0  0  0  0  0
    3.1838    0.1794    1.2055 H   0  0  0  0  0  0  0  0  0  0  0  0
    2.0900   -1.2491    1.2313 H   0  0  0  0  0  0  0  0  0  0  0  0
    3.0099   -0.8916   -0.2789 H   0  0  0  0  0  0  0  0  0  0  0  0
    1.7526    1.4178   -0.0200 H   0  0  0  0  0  0  0  0  0  0  0  0
    0.3287   -0.5719    1.8331 H   0  0  0  0  0  0  0  0  0  0  0  0
    0.6068    1.1704    1.9960 H   0  0  0  0  0  0  0  0  0  0  0  0
   -1.7353    1.1025    1.5831 H   0  0  0  0  0  0  0  0  0  0  0  0
   -0.0342    2.3485   -0.3391 H   0  0  0  0  0  0  0  0  0  0  0  0
   -1.8368    2.2224   -0.5961 H   0  0  0  0  0  0  0  0  0  0  0  0
   -1.1416    0.4955   -2.2403 H   0  0  0  0  0  0  0  0  0  0  0  0
    1.2787    0.0252   -1.9789 H   0  0  0  0  0  0  0  0  0  0  0  0
    0.6170   -1.2481   -0.9388 H   0  0  0  0  0  0  0  0  0  0  0  0
   -2.6898    0.0441   -0.4432 H   0  0  0  0  0  0  0  0  0  0  0  0
   -2.4376   -2.1314    0.3122 H   0  0  0  0  0  0  0  0  0  0  0  0
   -1.2163   -2.1414   -0.9709 H   0  0  0  0  0  0  0  0  0  0  0  0
   -0.7260   -1.9694    0.7572 H   0  0  0  0  0  0  0  0  0  0  0  0
  1  2  1  0
  2  3  1  0
  3  4  1  0
  4  5  1  0
  5  6  1  0
  6  7  1  0
  6  8  1  0
  8  9  1  0
  7  2  1  0
  8  4  1  0
  1 10  1  0
  1 11  1  0
  1 12  1  0
  2 13  1  0
  3 14  1  0
  3 15  1  0
  4 16  1  0
  5 17  1  0
  5 18  1  0
  6 19  1  0
  7 20  1  0
  7 21  1  0
  8 22  1  0
  9 23  1  0
  9 24  1  0
  9 25  1  0
M  END
