
     RDKit          3D

 21 22  0  0  0  0  0  0  0  0999 V2000
   -1.6546   -1.5972   -0.7706 C   0  0  0  0  0  0  0  0  0  0  0  0
   -0.6208   -0.5123   -0.6707 C   0  0  0  0  0  0  0  0  0  0  0  0
   -1.1649    0.8096   -0.2476 C   0  0  0  0  0  0  0  0  0  0  0  0
    0.0867    1.5349    0.2339 C   0  0  0  0  0  0  0  0  0  0  0  0
    0.6816    2.2728   -0.7682 O   0  0  0  0  0  0  0  0  0  0  0  0
    0.9659    0.5090    0.8537 C   0  0  0  0  0  0  0  0  0  0  0  0
    1.7961   -0.4207    0.0697 C   0  0  0  0  0  0  0  0  0  0  0  0
    2.0882   -0.1696   -1.2802 O   0  0  0  0  0  0  0  0  0  0  0  0
    0.4051   -0.8127    0.3904 C   0  0  0  0  0  0  0  0  0  0  0  0
   -2.3675   -1.3715   -1.5661 H   0  0  0  0  0  0  0  0  0  0  0  0
   -2.1770   -1.8138    0.1632 H   0  0  0  0  0  0  0  0  0  0  0  0
   -1.1191   -2.5292   -1.0717 H   0  0  0  0  0  0  0  0  0  0  0  0
   -0.1046   -0.4602   -1.6572 H   0  0  0  0  0  0  0  0  0  0  0  0
   -1.7823    0.6405    0.6717 H   0  0  0  0  0  0  0  0  0  0  0  0
   -1.6962    1.3601   -1.0274 H   0  0  0  0  0  0  0  0  0  0  0  0
   -0.2209    2.2748    1.0292 H   0  0  0  0  0  0  0  0  0  0  0  0
   -0.0383    2.8133   -1.1999 H   0  0  0  0  0  0  0  0  0  0  0  0
    1.2222    0.6327    1.9461 H   0  0  0  0  0  0  0  0  0  0  0  0
    2.5901   -0.9636    0.6153 H   0  0  0  0  0  0  0  0  0  0  0  0
    2.9343   -0.6380   -1.5456 H   0  0  0  0  0  0  0  0  0  0  0  0
    0.1760   -1.5587    1.1729 H   0  0  0  0  0  0  0  0  0  0  0  0
  1  2  1  0
  2  3  1  0
  3  4  1  0
  4  5  1  0
  4  6  1  0
  6  7  1  0
  7  8  1  0
  7  9  1  0
  9  2  1  0
  9  6  1  0
  1 10  1  0
  1 11  1  0
  1 12  1  0
  2 13  1  0
  3 14  1  0
  3 15  1  0
  4 16  1  0
  5 17  1  0
  6 18  1  0
  7 19  1  0
  8 20  1  0
  9 21  1  0
M  END
