
     RDKit          3D

 25 26  0  0  0  0  0  0  0  0999 V2000
    0.2444    1.6433    1.1640 C   0  0  0  0  0  0  0  0  0  0  0  0
    0.2697    0.8697   -0.1462 C   0  0  0  0  0  0  0  0  0  0  0  0
    1.1588   -0.3348   -0.0354 C   0  0  0  0  0  0  0  0  0  0  0  0
    2.5223   -0.1413   -0.6125 C   0  0  0  0  0  0  0  0  0  0  0  0
    0.3893   -1.4576   -0.6615 C   0  0  0  0  0  0  0  0  0  0  0  0
   -0.6610   -2.0519    0.2518 C   0  0  0  0  0  0  0  0  0  0  0  0
   -1.0261   -1.0763   -0.7829 C   0  0  0  0  0  0  0  0  0  0  0  0
   -1.0957    0.3907   -0.5511 C   0  0  0  0  0  0  0  0  0  0  0  0
   -2.1830    0.8091    0.3946 C   0  0  0  0  0  0  0  0  0  0  0  0
   -0.1013    2.6844    1.0174 H   0  0  0  0  0  0  0  0  0  0  0  0
    1.3008    1.7217    1.5205 H   0  0  0  0  0  0  0  0  0  0  0  0
   -0.3009    1.0987    1.9527 H   0  0  0  0  0  0  0  0  0  0  0  0
    0.7252    1.5664   -0.8956 H   0  0  0  0  0  0  0  0  0  0  0  0
    1.2947   -0.5345    1.0644 H   0  0  0  0  0  0  0  0  0  0  0  0
    2.4195    0.3413   -1.5980 H   0  0  0  0  0  0  0  0  0  0  0  0
    2.9680   -1.1628   -0.7638 H   0  0  0  0  0  0  0  0  0  0  0  0
    3.2004    0.3779    0.0801 H   0  0  0  0  0  0  0  0  0  0  0  0
    0.8105   -2.0546   -1.4826 H   0  0  0  0  0  0  0  0  0  0  0  0
   -0.8770   -3.1044    0.0744 H   0  0  0  0  0  0  0  0  0  0  0  0
   -0.6436   -1.7839    1.3368 H   0  0  0  0  0  0  0  0  0  0  0  0
   -1.6073   -1.4757   -1.6600 H   0  0  0  0  0  0  0  0  0  0  0  0
   -1.3278    0.8757   -1.5387 H   0  0  0  0  0  0  0  0  0  0  0  0
   -1.9166    1.7489    0.8902 H   0  0  0  0  0  0  0  0  0  0  0  0
   -3.1347    1.0149   -0.1675 H   0  0  0  0  0  0  0  0  0  0  0  0
   -2.4288    0.0352    1.1491 H   0  0  0  0  0  0  0  0  0  0  0  0
  1  2  1  0
  2  3  1  0
  3  4  1  0
  3  5  1  0
  5  6  1  0
  6  7  1  0
  7  8  1  0
  8  9  1  0
  8  2  1  0
  7  5  1  0
  1 10  1  0
  1 11  1  0
  1 12  1  0
  2 13  1  0
  3 14  1  0
  4 15  1  0
  4 16  1  0
  4 17  1  0
  5 18  1  0
  6 19  1  0
  6 20  1  0
  7 21  1  0
  8 22  1  0
  9 23  1  0
  9 24  1  0
  9 25  1  0
M  END
