
     RDKit          3D

 23 23  0  0  0  0  0  0  0  0999 V2000
    2.2841   -0.0755   -0.0541 C   0  0  0  0  0  0  0  0  0  0  0  0
    0.8925   -0.0605    0.5406 C   0  0  0  0  0  0  0  0  0  0  0  0
    0.3267   -1.4624    0.5722 C   0  0  0  0  0  0  0  0  0  0  0  0
   -0.5492   -1.5296   -0.6501 C   0  0  0  0  0  0  0  0  0  0  0  0
   -1.1703   -0.1527   -0.7094 C   0  0  0  0  0  0  0  0  0  0  0  0
   -2.2976    0.0104    0.2111 C   0  0  0  0  0  0  0  0  0  0  0  0
   -2.4369   -0.7145    1.1754 O   0  0  0  0  0  0  0  0  0  0  0  0
    0.0060    0.7350   -0.3978 C   0  0  0  0  0  0  0  0  0  0  0  0
   -0.3562    2.0132    0.2704 C   0  0  0  0  0  0  0  0  0  0  0  0
    2.4613   -1.0557   -0.5225 H   0  0  0  0  0  0  0  0  0  0  0  0
    2.3994    0.7589   -0.7716 H   0  0  0  0  0  0  0  0  0  0  0  0
    2.9934    0.0449    0.7631 H   0  0  0  0  0  0  0  0  0  0  0  0
    0.8990    0.3771    1.5661 H   0  0  0  0  0  0  0  0  0  0  0  0
    1.1581   -2.1744    0.4313 H   0  0  0  0  0  0  0  0  0  0  0  0
   -0.2577   -1.6616    1.4957 H   0  0  0  0  0  0  0  0  0  0  0  0
    0.1453   -1.5933   -1.5386 H   0  0  0  0  0  0  0  0  0  0  0  0
   -1.2888   -2.3280   -0.6353 H   0  0  0  0  0  0  0  0  0  0  0  0
   -1.4738    0.0016   -1.7852 H   0  0  0  0  0  0  0  0  0  0  0  0
   -3.0369    0.7845    0.0532 H   0  0  0  0  0  0  0  0  0  0  0  0
    0.5242    0.9557   -1.3604 H   0  0  0  0  0  0  0  0  0  0  0  0
   -1.3614    2.3788    0.0235 H   0  0  0  0  0  0  0  0  0  0  0  0
   -0.2270    1.9357    1.3892 H   0  0  0  0  0  0  0  0  0  0  0  0
    0.3659    2.8123   -0.0670 H   0  0  0  0  0  0  0  0  0  0  0  0
  1  2  1  0
  2  3  1  0
  3  4  1  0
  4  5  1  0
  5  6  1  0
  6  7  2  0
  5  8  1  0
  8  9  1  0
  8  2  1  0
  1 10  1  0
  1 11  1  0
  1 12  1  0
  2 13  1  0
  3 14  1  0
  3 15  1  0
  4 16  1  0
  4 17  1  0
  5 18  1  0
  6 19  1  0
  8 20  1  0
  9 21  1  0
  9 22  1  0
  9 23  1  0
M  END
