
     RDKit          3D

 21 22  0  0  0  0  0  0  0  0999 V2000
   -0.5417   -0.1308    1.9014 C   0  0  0  0  0  0  0  0  0  0  0  0
   -0.4175    0.3368    0.4985 C   0  0  0  0  0  0  0  0  0  0  0  0
    0.9343    0.2859   -0.1372 C   0  0  0  0  0  0  0  0  0  0  0  0
    1.9616   -0.5814    0.5509 C   0  0  0  0  0  0  0  0  0  0  0  0
    3.1461   -0.4823   -0.2094 O   0  0  0  0  0  0  0  0  0  0  0  0
    0.3109   -0.5145   -1.2700 C   0  0  0  0  0  0  0  0  0  0  0  0
   -0.1639   -1.7446   -0.8748 O   0  0  0  0  0  0  0  0  0  0  0  0
   -0.9041   -0.6310   -0.5684 C   0  0  0  0  0  0  0  0  0  0  0  0
   -2.2422   -0.3983   -1.1989 C   0  0  0  0  0  0  0  0  0  0  0  0
    0.3432   -0.0225    2.5262 H   0  0  0  0  0  0  0  0  0  0  0  0
   -0.9059   -1.1924    1.9715 H   0  0  0  0  0  0  0  0  0  0  0  0
   -1.3520    0.4769    2.3997 H   0  0  0  0  0  0  0  0  0  0  0  0
   -0.8801    1.3452    0.3041 H   0  0  0  0  0  0  0  0  0  0  0  0
    1.3133    1.2407   -0.5373 H   0  0  0  0  0  0  0  0  0  0  0  0
    1.6311   -1.6393    0.4977 H   0  0  0  0  0  0  0  0  0  0  0  0
    2.1447   -0.2590    1.5997 H   0  0  0  0  0  0  0  0  0  0  0  0
    2.9002   -0.8325   -1.1100 H   0  0  0  0  0  0  0  0  0  0  0  0
    0.4969   -0.2523   -2.3022 H   0  0  0  0  0  0  0  0  0  0  0  0
   -2.7173    0.4780   -0.7333 H   0  0  0  0  0  0  0  0  0  0  0  0
   -2.9176   -1.2649   -1.0362 H   0  0  0  0  0  0  0  0  0  0  0  0
   -2.1400   -0.1910   -2.2722 H   0  0  0  0  0  0  0  0  0  0  0  0
  1  2  1  0
  2  3  1  0
  3  4  1  0
  4  5  1  0
  3  6  1  0
  6  7  1  0
  7  8  1  0
  8  9  1  0
  8  2  1  0
  8  6  1  0
  1 10  1  0
  1 11  1  0
  1 12  1  0
  2 13  1  0
  3 14  1  0
  4 15  1  0
  4 16  1  0
  5 17  1  0
  6 18  1  0
  9 19  1  0
  9 20  1  0
  9 21  1  0
M  END
