
     RDKit          3D

 21 21  0  0  0  0  0  0  0  0999 V2000
   -2.2525    0.1565   -0.4875 C   0  0  0  0  0  0  0  0  0  0  0  0
   -0.8657   -0.4149   -0.5114 C   0  0  0  0  0  0  0  0  0  0  0  0
   -0.3215   -0.7253    0.8605 C   0  0  0  0  0  0  0  0  0  0  0  0
    0.9927   -0.1052    0.4221 C   0  0  0  0  0  0  0  0  0  0  0  0
    1.9837   -1.1273   -0.0385 C   0  0  0  0  0  0  0  0  0  0  0  0
    1.4559    0.7504    1.4238 O   0  0  0  0  0  0  0  0  0  0  0  0
    0.2419    0.5976   -0.6995 C   0  0  0  0  0  0  0  0  0  0  0  0
   -0.1130    1.9910   -0.4190 C   0  0  0  0  0  0  0  0  0  0  0  0
    0.4294    2.8972   -1.0074 O   0  0  0  0  0  0  0  0  0  0  0  0
   -2.9354   -0.6358   -0.9103 H   0  0  0  0  0  0  0  0  0  0  0  0
   -2.6143    0.3067    0.5634 H   0  0  0  0  0  0  0  0  0  0  0  0
   -2.3804    1.0531   -1.1122 H   0  0  0  0  0  0  0  0  0  0  0  0
   -0.7490   -1.3036   -1.1832 H   0  0  0  0  0  0  0  0  0  0  0  0
   -0.2767   -1.8158    1.0639 H   0  0  0  0  0  0  0  0  0  0  0  0
   -0.8257   -0.2072    1.6940 H   0  0  0  0  0  0  0  0  0  0  0  0
    1.8407   -2.1255    0.4237 H   0  0  0  0  0  0  0  0  0  0  0  0
    1.9001   -1.2956   -1.1465 H   0  0  0  0  0  0  0  0  0  0  0  0
    3.0475   -0.8061    0.1542 H   0  0  0  0  0  0  0  0  0  0  0  0
    1.5226    0.1737    2.2501 H   0  0  0  0  0  0  0  0  0  0  0  0
    0.7813    0.4117   -1.6554 H   0  0  0  0  0  0  0  0  0  0  0  0
   -0.8616    2.2243    0.3151 H   0  0  0  0  0  0  0  0  0  0  0  0
  1  2  1  0
  2  3  1  0
  3  4  1  0
  4  5  1  0
  4  6  1  0
  4  7  1  0
  7  8  1  0
  8  9  2  0
  7  2  1  0
  1 10  1  0
  1 11  1  0
  1 12  1  0
  2 13  1  0
  3 14  1  0
  3 15  1  0
  5 16  1  0
  5 17  1  0
  5 18  1  0
  6 19  1  0
  7 20  1  0
  8 21  1  0
M  END
