
     RDKit          3D

 22 23  0  0  0  0  0  0  0  0999 V2000
   -1.9067   -1.1135   -0.4924 C   0  0  0  0  0  0  0  0  0  0  0  0
   -1.1473   -0.3617    0.5231 C   0  0  0  0  0  0  0  0  0  0  0  0
    0.1776   -0.9258    0.9582 C   0  0  0  0  0  0  0  0  0  0  0  0
    0.4677    0.4766    1.4055 C   0  0  0  0  0  0  0  0  0  0  0  0
   -0.1229    0.6468    0.0202 C   0  0  0  0  0  0  0  0  0  0  0  0
   -0.3838    1.8168   -0.6288 C   0  0  0  0  0  0  0  0  0  0  0  0
    0.6936   -0.5221   -0.3962 C   0  0  0  0  0  0  0  0  0  0  0  0
    2.1678   -0.3762   -0.4531 C   0  0  0  0  0  0  0  0  0  0  0  0
   -1.6802   -0.8835   -1.5415 H   0  0  0  0  0  0  0  0  0  0  0  0
   -3.0010   -0.8832   -0.3539 H   0  0  0  0  0  0  0  0  0  0  0  0
   -1.8240   -2.2076   -0.2567 H   0  0  0  0  0  0  0  0  0  0  0  0
   -1.7167    0.1040    1.3518 H   0  0  0  0  0  0  0  0  0  0  0  0
    0.3468   -1.7782    1.4494 H   0  0  0  0  0  0  0  0  0  0  0  0
    1.4943    0.7713    1.5447 H   0  0  0  0  0  0  0  0  0  0  0  0
   -0.2684    0.7919    2.1731 H   0  0  0  0  0  0  0  0  0  0  0  0
   -1.4622    2.1563   -0.6023 H   0  0  0  0  0  0  0  0  0  0  0  0
    0.1759    2.7206   -0.2434 H   0  0  0  0  0  0  0  0  0  0  0  0
   -0.1426    1.8174   -1.7312 H   0  0  0  0  0  0  0  0  0  0  0  0
    0.3239   -1.1283   -1.2460 H   0  0  0  0  0  0  0  0  0  0  0  0
    2.5575   -0.6115   -1.4871 H   0  0  0  0  0  0  0  0  0  0  0  0
    2.5613    0.6097   -0.2020 H   0  0  0  0  0  0  0  0  0  0  0  0
    2.6892   -1.1197    0.2086 H   0  0  0  0  0  0  0  0  0  0  0  0
  1  2  1  0
  2  3  1  0
  3  4  1  0
  4  5  1  0
  5  6  1  0
  5  7  1  0
  7  8  1  0
  5  2  1  0
  7  3  1  0
  1  9  1  0
  1 10  1  0
  1 11  1  0
  2 12  1  0
  3 13  1  0
  4 14  1  0
  4 15  1  0
  6 16  1  0
  6 17  1  0
  6 18  1  0
  7 19  1  0
  8 20  1  0
  8 21  1  0
  8 22  1  0
M  END
