
     RDKit          3D

 25 25  0  0  0  0  0  0  0  0999 V2000
    2.6198   -0.6572    0.3428 C   0  0  0  0  0  0  0  0  0  0  0  0
    1.2609   -0.1903   -0.1260 C   0  0  0  0  0  0  0  0  0  0  0  0
    0.3035   -1.3008   -0.3835 C   0  0  0  0  0  0  0  0  0  0  0  0
   -0.9936   -0.7263   -0.8662 C   0  0  0  0  0  0  0  0  0  0  0  0
   -2.1828   -1.1934   -0.0389 C   0  0  0  0  0  0  0  0  0  0  0  0
   -1.0229    0.7768   -0.8709 C   0  0  0  0  0  0  0  0  0  0  0  0
   -0.5520    1.3898    0.4119 C   0  0  0  0  0  0  0  0  0  0  0  0
   -0.4229    2.7784    0.1727 O   0  0  0  0  0  0  0  0  0  0  0  0
    0.7573    0.8070    0.8752 C   0  0  0  0  0  0  0  0  0  0  0  0
    3.2281    0.2845    0.4878 H   0  0  0  0  0  0  0  0  0  0  0  0
    2.5876   -1.1242    1.3515 H   0  0  0  0  0  0  0  0  0  0  0  0
    3.1015   -1.2812   -0.4207 H   0  0  0  0  0  0  0  0  0  0  0  0
    1.4246    0.3511   -1.0819 H   0  0  0  0  0  0  0  0  0  0  0  0
    0.1526   -1.9737    0.4727 H   0  0  0  0  0  0  0  0  0  0  0  0
    0.7363   -1.9351   -1.1999 H   0  0  0  0  0  0  0  0  0  0  0  0
   -1.2096   -1.0512   -1.9183 H   0  0  0  0  0  0  0  0  0  0  0  0
   -2.4155   -0.4561    0.7740 H   0  0  0  0  0  0  0  0  0  0  0  0
   -2.0307   -2.1834    0.4054 H   0  0  0  0  0  0  0  0  0  0  0  0
   -3.0984   -1.1940   -0.6933 H   0  0  0  0  0  0  0  0  0  0  0  0
   -0.4298    1.2216   -1.7027 H   0  0  0  0  0  0  0  0  0  0  0  0
   -2.1087    1.0684   -0.9834 H   0  0  0  0  0  0  0  0  0  0  0  0
   -1.3015    1.2251    1.2291 H   0  0  0  0  0  0  0  0  0  0  0  0
   -0.6488    3.3049    0.9588 H   0  0  0  0  0  0  0  0  0  0  0  0
    0.7243    0.4204    1.9115 H   0  0  0  0  0  0  0  0  0  0  0  0
    1.5208    1.6390    0.8920 H   0  0  0  0  0  0  0  0  0  0  0  0
  1  2  1  0
  2  3  1  0
  3  4  1  0
  4  5  1  0
  4  6  1  0
  6  7  1  0
  7  8  1  0
  7  9  1  0
  9  2  1  0
  1 10  1  0
  1 11  1  0
  1 12  1  0
  2 13  1  0
  3 14  1  0
  3 15  1  0
  4 16  1  0
  5 17  1  0
  5 18  1  0
  5 19  1  0
  6 20  1  0
  6 21  1  0
  7 22  1  0
  8 23  1  0
  9 24  1  0
  9 25  1  0
M  END
