
     RDKit          3D

 23 24  0  0  0  0  0  0  0  0999 V2000
   -2.6459    0.9467   -0.1773 C   0  0  0  0  0  0  0  0  0  0  0  0
   -1.9277   -0.3653   -0.2843 C   0  0  0  0  0  0  0  0  0  0  0  0
   -0.9264   -0.5787    0.8382 C   0  0  0  0  0  0  0  0  0  0  0  0
    0.2177    0.2912    0.3429 C   0  0  0  0  0  0  0  0  0  0  0  0
    1.5180   -0.4396    0.2636 C   0  0  0  0  0  0  0  0  0  0  0  0
    2.7519    0.4057    0.2030 C   0  0  0  0  0  0  0  0  0  0  0  0
    1.1190   -0.9423   -1.1018 C   0  0  0  0  0  0  0  0  0  0  0  0
    0.0712    0.1462   -1.1535 C   0  0  0  0  0  0  0  0  0  0  0  0
   -1.1641   -0.3629   -1.4205 O   0  0  0  0  0  0  0  0  0  0  0  0
   -2.7813    1.3528   -1.2232 H   0  0  0  0  0  0  0  0  0  0  0  0
   -3.6793    0.7789    0.1930 H   0  0  0  0  0  0  0  0  0  0  0  0
   -2.1001    1.7163    0.3899 H   0  0  0  0  0  0  0  0  0  0  0  0
   -2.6778   -1.1884   -0.3113 H   0  0  0  0  0  0  0  0  0  0  0  0
   -1.3032   -0.2828    1.8185 H   0  0  0  0  0  0  0  0  0  0  0  0
   -0.6209   -1.6314    0.8422 H   0  0  0  0  0  0  0  0  0  0  0  0
    0.2227    1.3069    0.7399 H   0  0  0  0  0  0  0  0  0  0  0  0
    1.6304   -1.2214    1.0412 H   0  0  0  0  0  0  0  0  0  0  0  0
    3.2748    0.3999    1.1879 H   0  0  0  0  0  0  0  0  0  0  0  0
    3.4450   -0.0377   -0.5555 H   0  0  0  0  0  0  0  0  0  0  0  0
    2.5751    1.4502   -0.0934 H   0  0  0  0  0  0  0  0  0  0  0  0
    1.9134   -0.8272   -1.8685 H   0  0  0  0  0  0  0  0  0  0  0  0
    0.6777   -1.9498   -1.0095 H   0  0  0  0  0  0  0  0  0  0  0  0
    0.4098    1.0326   -1.6931 H   0  0  0  0  0  0  0  0  0  0  0  0
  1  2  1  0
  2  3  1  0
  3  4  1  0
  4  5  1  0
  5  6  1  0
  5  7  1  0
  7  8  1  0
  8  9  1  0
  9  2  1  0
  8  4  1  0
  1 10  1  0
  1 11  1  0
  1 12  1  0
  2 13  1  0
  3 14  1  0
  3 15  1  0
  4 16  1  0
  5 17  1  0
  6 18  1  0
  6 19  1  0
  6 20  1  0
  7 21  1  0
  7 22  1  0
  8 23  1  0
M  END
