
     RDKit          3D

 20 20  0  0  0  0  0  0  0  0999 V2000
    2.3397   -0.5531    0.1538 C   0  0  0  0  0  0  0  0  0  0  0  0
    0.8399   -0.3113    0.2236 C   0  0  0  0  0  0  0  0  0  0  0  0
    0.5737    1.1111   -0.1358 C   0  0  0  0  0  0  0  0  0  0  0  0
   -0.8525    1.5209    0.0104 C   0  0  0  0  0  0  0  0  0  0  0  0
   -1.6129    0.7427    0.8240 O   0  0  0  0  0  0  0  0  0  0  0  0
   -1.7527   -0.5579    0.5214 C   0  0  0  0  0  0  0  0  0  0  0  0
   -1.1158   -1.0622   -0.7185 C   0  0  0  0  0  0  0  0  0  0  0  0
    0.2512   -1.2103   -0.6597 O   0  0  0  0  0  0  0  0  0  0  0  0
    2.4491   -1.6771    0.0990 H   0  0  0  0  0  0  0  0  0  0  0  0
    2.7977   -0.1825    1.0761 H   0  0  0  0  0  0  0  0  0  0  0  0
    2.7218   -0.0596   -0.7523 H   0  0  0  0  0  0  0  0  0  0  0  0
    0.5423   -0.4695    1.2692 H   0  0  0  0  0  0  0  0  0  0  0  0
    0.9072    1.3027   -1.1951 H   0  0  0  0  0  0  0  0  0  0  0  0
    1.2662    1.7482    0.4820 H   0  0  0  0  0  0  0  0  0  0  0  0
   -1.3137    1.6759   -1.0073 H   0  0  0  0  0  0  0  0  0  0  0  0
   -0.8434    2.5607    0.4540 H   0  0  0  0  0  0  0  0  0  0  0  0
   -2.8484   -0.8261    0.4715 H   0  0  0  0  0  0  0  0  0  0  0  0
   -1.3714   -1.1726    1.3871 H   0  0  0  0  0  0  0  0  0  0  0  0
   -1.4488   -0.4798   -1.6081 H   0  0  0  0  0  0  0  0  0  0  0  0
   -1.5288   -2.1002   -0.8952 H   0  0  0  0  0  0  0  0  0  0  0  0
  1  2  1  0
  2  3  1  0
  3  4  1  0
  4  5  1  0
  5  6  1  0
  6  7  1  0
  7  8  1  0
  8  2  1  0
  1  9  1  0
  1 10  1  0
  1 11  1  0
  2 12  1  0
  3 13  1  0
  3 14  1  0
  4 15  1  0
  4 16  1  0
  6 17  1  0
  6 18  1  0
  7 19  1  0
  7 20  1  0
M  END
