
     RDKit          3D

 21 23  0  0  0  0  0  0  0  0999 V2000
   -2.3894   -0.5963   -0.5885 C   0  0  0  0  0  0  0  0  0  0  0  0
   -1.4234    0.0403    0.3302 C   0  0  0  0  0  0  0  0  0  0  0  0
   -0.1530   -0.7180    0.6227 C   0  0  0  0  0  0  0  0  0  0  0  0
    0.2740   -0.3650   -0.7690 C   0  0  0  0  0  0  0  0  0  0  0  0
    1.7518   -0.4118   -0.8924 C   0  0  0  0  0  0  0  0  0  0  0  0
    2.4122   -0.3155    0.3543 O   0  0  0  0  0  0  0  0  0  0  0  0
    1.8518    0.7456    1.0180 C   0  0  0  0  0  0  0  0  0  0  0  0
    0.3761    0.6258    1.0288 C   0  0  0  0  0  0  0  0  0  0  0  0
   -0.3453    0.8969   -0.2691 C   0  0  0  0  0  0  0  0  0  0  0  0
   -3.3649   -0.7314   -0.0338 H   0  0  0  0  0  0  0  0  0  0  0  0
   -2.1124   -1.6158   -0.9342 H   0  0  0  0  0  0  0  0  0  0  0  0
   -2.6505    0.0766   -1.4465 H   0  0  0  0  0  0  0  0  0  0  0  0
   -1.8763    0.5502    1.2068 H   0  0  0  0  0  0  0  0  0  0  0  0
   -0.0635   -1.5880    1.1010 H   0  0  0  0  0  0  0  0  0  0  0  0
   -0.2506   -0.8274   -1.5989 H   0  0  0  0  0  0  0  0  0  0  0  0
    2.1904    0.3852   -1.5262 H   0  0  0  0  0  0  0  0  0  0  0  0
    2.0391   -1.4005   -1.2969 H   0  0  0  0  0  0  0  0  0  0  0  0
    2.1343    1.6743    0.4628 H   0  0  0  0  0  0  0  0  0  0  0  0
    2.2166    0.7640    2.0614 H   0  0  0  0  0  0  0  0  0  0  0  0
   -0.1723    1.0343    1.8984 H   0  0  0  0  0  0  0  0  0  0  0  0
   -0.4448    1.7768   -0.7287 H   0  0  0  0  0  0  0  0  0  0  0  0
  1  2  1  0
  2  3  1  0
  3  4  1  0
  4  5  1  0
  5  6  1  0
  6  7  1  0
  7  8  1  0
  8  9  1  0
  9  2  1  0
  8  3  1  0
  9  4  1  0
  1 10  1  0
  1 11  1  0
  1 12  1  0
  2 13  1  0
  3 14  1  0
  4 15  1  0
  5 16  1  0
  5 17  1  0
  7 18  1  0
  7 19  1  0
  8 20  1  0
  9 21  1  0
M  END
