
     RDKit          3D

 23 25  0  0  0  0  0  0  0  0999 V2000
   -1.6365   -1.4116    0.5827 C   0  0  0  0  0  0  0  0  0  0  0  0
   -1.3732   -0.0878   -0.0433 C   0  0  0  0  0  0  0  0  0  0  0  0
   -0.3669   -0.0213   -1.1740 C   0  0  0  0  0  0  0  0  0  0  0  0
    0.6590   -1.1062   -1.0480 C   0  0  0  0  0  0  0  0  0  0  0  0
    1.7335   -0.5150   -0.2318 C   0  0  0  0  0  0  0  0  0  0  0  0
    1.7594   -0.4203    1.2208 C   0  0  0  0  0  0  0  0  0  0  0  0
    1.1160    0.6531    0.4677 C   0  0  0  0  0  0  0  0  0  0  0  0
   -0.2804    0.8183    0.1227 C   0  0  0  0  0  0  0  0  0  0  0  0
   -0.7037    2.3077   -0.0220 C   0  0  0  0  0  0  0  0  0  0  0  0
   -2.6476   -1.4464    1.0907 H   0  0  0  0  0  0  0  0  0  0  0  0
   -0.9360   -1.7950    1.3014 H   0  0  0  0  0  0  0  0  0  0  0  0
   -1.7384   -2.1931   -0.2291 H   0  0  0  0  0  0  0  0  0  0  0  0
   -2.3617    0.3334   -0.4187 H   0  0  0  0  0  0  0  0  0  0  0  0
   -0.5564    0.5036   -2.1026 H   0  0  0  0  0  0  0  0  0  0  0  0
    0.2619   -2.0352   -0.5902 H   0  0  0  0  0  0  0  0  0  0  0  0
    0.9787   -1.3834   -2.0677 H   0  0  0  0  0  0  0  0  0  0  0  0
    2.7089   -0.3996   -0.7929 H   0  0  0  0  0  0  0  0  0  0  0  0
    1.2391   -1.1069    1.9189 H   0  0  0  0  0  0  0  0  0  0  0  0
    2.7792   -0.2077    1.6717 H   0  0  0  0  0  0  0  0  0  0  0  0
    1.7665    1.5784    0.3389 H   0  0  0  0  0  0  0  0  0  0  0  0
    0.1402    2.8912   -0.4188 H   0  0  0  0  0  0  0  0  0  0  0  0
   -0.9232    2.6389    1.0232 H   0  0  0  0  0  0  0  0  0  0  0  0
   -1.6184    2.4049   -0.5997 H   0  0  0  0  0  0  0  0  0  0  0  0
  1  2  1  0
  2  3  1  0
  3  4  1  0
  4  5  1  0
  5  6  1  0
  6  7  1  0
  7  8  1  0
  8  9  1  0
  8  2  1  0
  8  3  1  0
  7  5  1  0
  1 10  1  0
  1 11  1  0
  1 12  1  0
  2 13  1  0
  3 14  1  0
  4 15  1  0
  4 16  1  0
  5 17  1  0
  6 18  1  0
  6 19  1  0
  7 20  1  0
  9 21  1  0
  9 22  1  0
  9 23  1  0
M  END
