
     RDKit          3D

 23 24  0  0  0  0  0  0  0  0999 V2000
   -1.1187    1.8209    0.2275 C   0  0  0  0  0  0  0  0  0  0  0  0
   -1.0969    0.6409   -0.6989 C   0  0  0  0  0  0  0  0  0  0  0  0
   -2.0798   -0.3489   -0.1866 C   0  0  0  0  0  0  0  0  0  0  0  0
   -1.7345   -1.2278    0.7402 C   0  0  0  0  0  0  0  0  0  0  0  0
   -0.3375   -1.1880    1.2456 C   0  0  0  0  0  0  0  0  0  0  0  0
    0.5880   -1.0426    0.0891 C   0  0  0  0  0  0  0  0  0  0  0  0
    1.4005    0.2225   -0.0486 C   0  0  0  0  0  0  0  0  0  0  0  0
    2.7818   -0.0241   -0.6402 C   0  0  0  0  0  0  0  0  0  0  0  0
    0.2274    0.0108   -0.8968 C   0  0  0  0  0  0  0  0  0  0  0  0
   -0.3955    1.7991    1.0351 H   0  0  0  0  0  0  0  0  0  0  0  0
   -2.1367    1.9249    0.7075 H   0  0  0  0  0  0  0  0  0  0  0  0
   -0.9864    2.7988   -0.3140 H   0  0  0  0  0  0  0  0  0  0  0  0
   -1.5107    1.0152   -1.6740 H   0  0  0  0  0  0  0  0  0  0  0  0
   -3.0913   -0.3556   -0.5708 H   0  0  0  0  0  0  0  0  0  0  0  0
   -2.4866   -1.9237    1.0769 H   0  0  0  0  0  0  0  0  0  0  0  0
   -0.1104   -2.1314    1.7801 H   0  0  0  0  0  0  0  0  0  0  0  0
   -0.2174   -0.3816    2.0174 H   0  0  0  0  0  0  0  0  0  0  0  0
    0.9907   -1.9991   -0.3101 H   0  0  0  0  0  0  0  0  0  0  0  0
    1.4342    0.9344    0.7994 H   0  0  0  0  0  0  0  0  0  0  0  0
    2.7555   -0.0007   -1.7501 H   0  0  0  0  0  0  0  0  0  0  0  0
    3.5166    0.7197   -0.3209 H   0  0  0  0  0  0  0  0  0  0  0  0
    3.1461   -1.0253   -0.3321 H   0  0  0  0  0  0  0  0  0  0  0  0
    0.4614   -0.2382   -1.9760 H   0  0  0  0  0  0  0  0  0  0  0  0
  1  2  1  0
  2  3  1  0
  3  4  2  0
  4  5  1  0
  5  6  1  0
  6  7  1  0
  7  8  1  0
  7  9  1  0
  9  2  1  0
  9  6  1  0
  1 10  1  0
  1 11  1  0
  1 12  1  0
  2 13  1  0
  3 14  1  0
  4 15  1  0
  5 16  1  0
  5 17  1  0
  6 18  1  0
  7 19  1  0
  8 20  1  0
  8 21  1  0
  8 22  1  0
  9 23  1  0
M  END
