
     RDKit          3D

 23 24  0  0  0  0  0  0  0  0999 V2000
   -2.1495   -1.2223   -0.0833 C   0  0  0  0  0  0  0  0  0  0  0  0
   -0.7385   -0.9951    0.2819 C   0  0  0  0  0  0  0  0  0  0  0  0
    0.2753   -0.9927   -0.8371 C   0  0  0  0  0  0  0  0  0  0  0  0
   -0.3192    0.3224   -1.2360 C   0  0  0  0  0  0  0  0  0  0  0  0
   -0.2329    0.4269    0.2502 C   0  0  0  0  0  0  0  0  0  0  0  0
   -0.5640    1.4558    1.0768 C   0  0  0  0  0  0  0  0  0  0  0  0
    1.1428   -0.2254    0.1189 C   0  0  0  0  0  0  0  0  0  0  0  0
    2.1821    0.5920   -0.5524 C   0  0  0  0  0  0  0  0  0  0  0  0
    1.4901   -0.8684    1.2870 O   0  0  0  0  0  0  0  0  0  0  0  0
   -2.1890   -1.9983   -0.9009 H   0  0  0  0  0  0  0  0  0  0  0  0
   -2.7466   -0.3368   -0.3086 H   0  0  0  0  0  0  0  0  0  0  0  0
   -2.6566   -1.7297    0.7876 H   0  0  0  0  0  0  0  0  0  0  0  0
   -0.3699   -1.4983    1.2002 H   0  0  0  0  0  0  0  0  0  0  0  0
    0.5316   -1.7624   -1.4182 H   0  0  0  0  0  0  0  0  0  0  0  0
   -1.3406    0.2879   -1.6644 H   0  0  0  0  0  0  0  0  0  0  0  0
    0.3091    1.0015   -1.8231 H   0  0  0  0  0  0  0  0  0  0  0  0
   -0.7090    2.4580    0.5740 H   0  0  0  0  0  0  0  0  0  0  0  0
    0.1868    1.6878    1.8910 H   0  0  0  0  0  0  0  0  0  0  0  0
   -1.5278    1.3214    1.6545 H   0  0  0  0  0  0  0  0  0  0  0  0
    2.2443    0.3727   -1.6532 H   0  0  0  0  0  0  0  0  0  0  0  0
    2.1035    1.6728   -0.3915 H   0  0  0  0  0  0  0  0  0  0  0  0
    3.1852    0.2548   -0.1563 H   0  0  0  0  0  0  0  0  0  0  0  0
    1.8928   -0.2243    1.9028 H   0  0  0  0  0  0  0  0  0  0  0  0
  1  2  1  0
  2  3  1  0
  3  4  1  0
  4  5  1  0
  5  6  1  0
  5  7  1  0
  7  8  1  0
  7  9  1  0
  5  2  1  0
  7  3  1  0
  1 10  1  0
  1 11  1  0
  1 12  1  0
  2 13  1  0
  3 14  1  0
  4 15  1  0
  4 16  1  0
  6 17  1  0
  6 18  1  0
  6 19  1  0
  8 20  1  0
  8 21  1  0
  8 22  1  0
  9 23  1  0
M  END
