
     RDKit          3D

 19 20  0  0  0  0  0  0  0  0999 V2000
   -0.9227    1.5866   -0.1623 C   0  0  0  0  0  0  0  0  0  0  0  0
   -0.5695    0.1933   -0.6269 C   0  0  0  0  0  0  0  0  0  0  0  0
    0.5675   -0.3339    0.2463 C   0  0  0  0  0  0  0  0  0  0  0  0
    1.6137    0.5051    0.8943 C   0  0  0  0  0  0  0  0  0  0  0  0
    2.3450    1.2148   -0.0865 O   0  0  0  0  0  0  0  0  0  0  0  0
    0.3929   -1.6546    0.2769 C   0  0  0  0  0  0  0  0  0  0  0  0
   -0.7644   -1.9716   -0.5184 C   0  0  0  0  0  0  0  0  0  0  0  0
   -2.0598   -1.9195   -0.4120 O   0  0  0  0  0  0  0  0  0  0  0  0
   -1.6020   -0.7534   -0.0782 C   0  0  0  0  0  0  0  0  0  0  0  0
   -1.5091    1.5166    0.7845 H   0  0  0  0  0  0  0  0  0  0  0  0
   -1.5892    2.0515   -0.9070 H   0  0  0  0  0  0  0  0  0  0  0  0
   -0.0292    2.2219    0.0091 H   0  0  0  0  0  0  0  0  0  0  0  0
   -0.3453    0.0953   -1.6824 H   0  0  0  0  0  0  0  0  0  0  0  0
    2.3359   -0.1606    1.3808 H   0  0  0  0  0  0  0  0  0  0  0  0
    1.1971    1.2320    1.6041 H   0  0  0  0  0  0  0  0  0  0  0  0
    1.9914    1.0308   -0.9956 H   0  0  0  0  0  0  0  0  0  0  0  0
    1.0887   -2.2747    0.8511 H   0  0  0  0  0  0  0  0  0  0  0  0
   -0.4729   -1.9912   -1.6229 H   0  0  0  0  0  0  0  0  0  0  0  0
   -1.6679   -0.5884    1.0452 H   0  0  0  0  0  0  0  0  0  0  0  0
  1  2  1  0
  2  3  1  0
  3  4  1  0
  4  5  1  0
  3  6  2  0
  6  7  1  0
  7  8  1  0
  8  9  1  0
  9  2  1  0
  9  7  1  0
  1 10  1  0
  1 11  1  0
  1 12  1  0
  2 13  1  0
  4 14  1  0
  4 15  1  0
  5 16  1  0
  6 17  1  0
  7 18  1  0
  9 19  1  0
M  END
