
     RDKit          3D

 25 26  0  0  0  0  0  0  0  0999 V2000
   -2.4708    0.8917   -0.4238 C   0  0  0  0  0  0  0  0  0  0  0  0
   -1.2110    0.4509    0.2554 C   0  0  0  0  0  0  0  0  0  0  0  0
   -1.2647   -0.9863    0.6672 C   0  0  0  0  0  0  0  0  0  0  0  0
    0.0691   -1.6258    0.8557 C   0  0  0  0  0  0  0  0  0  0  0  0
    1.1268   -0.9674    0.0068 C   0  0  0  0  0  0  0  0  0  0  0  0
    0.4633   -0.5462   -1.2947 C   0  0  0  0  0  0  0  0  0  0  0  0
    0.0322    0.7154   -0.5633 C   0  0  0  0  0  0  0  0  0  0  0  0
    1.2075    0.4988    0.3991 C   0  0  0  0  0  0  0  0  0  0  0  0
    2.4682    1.1959    0.0185 C   0  0  0  0  0  0  0  0  0  0  0  0
   -2.3597    1.8925   -0.8621 H   0  0  0  0  0  0  0  0  0  0  0  0
   -3.2595    0.9655    0.3779 H   0  0  0  0  0  0  0  0  0  0  0  0
   -2.8417    0.1860   -1.1835 H   0  0  0  0  0  0  0  0  0  0  0  0
   -1.1019    1.0837    1.1840 H   0  0  0  0  0  0  0  0  0  0  0  0
   -1.7839   -1.0128    1.6712 H   0  0  0  0  0  0  0  0  0  0  0  0
   -1.8699   -1.6143   -0.0127 H   0  0  0  0  0  0  0  0  0  0  0  0
    0.4309   -1.6117    1.8995 H   0  0  0  0  0  0  0  0  0  0  0  0
    0.0710   -2.7153    0.5591 H   0  0  0  0  0  0  0  0  0  0  0  0
    2.0755   -1.4842   -0.0781 H   0  0  0  0  0  0  0  0  0  0  0  0
   -0.3812   -1.2422   -1.5398 H   0  0  0  0  0  0  0  0  0  0  0  0
    1.1469   -0.3428   -2.1304 H   0  0  0  0  0  0  0  0  0  0  0  0
    0.0622    1.6380   -1.1336 H   0  0  0  0  0  0  0  0  0  0  0  0
    0.9423    0.5999    1.4654 H   0  0  0  0  0  0  0  0  0  0  0  0
    3.1149    0.4416   -0.5162 H   0  0  0  0  0  0  0  0  0  0  0  0
    3.0164    1.4771    0.9442 H   0  0  0  0  0  0  0  0  0  0  0  0
    2.3171    2.1122   -0.5658 H   0  0  0  0  0  0  0  0  0  0  0  0
  1  2  1  0
  2  3  1  0
  3  4  1  0
  4  5  1  0
  5  6  1  0
  6  7  1  0
  7  8  1  0
  8  9  1  0
  7  2  1  0
  8  5  1  0
  1 10  1  0
  1 11  1  0
  1 12  1  0
  2 13  1  0
  3 14  1  0
  3 15  1  0
  4 16  1  0
  4 17  1  0
  5 18  1  0
  6 19  1  0
  6 20  1  0
  7 21  1  0
  8 22  1  0
  9 23  1  0
  9 24  1  0
  9 25  1  0
M  END
