
     RDKit          3D

 20 20  0  0  0  0  0  0  0  0999 V2000
    1.8185    0.0020   -0.8589 C   0  0  0  0  0  0  0  0  0  0  0  0
    0.9297    0.2512    0.3281 C   0  0  0  0  0  0  0  0  0  0  0  0
    0.8170   -0.8127    1.3164 C   0  0  0  0  0  0  0  0  0  0  0  0
    1.5712   -1.6086    1.8155 O   0  0  0  0  0  0  0  0  0  0  0  0
   -0.6247   -0.5013    1.4496 C   0  0  0  0  0  0  0  0  0  0  0  0
   -0.5561    0.1117    0.0655 C   0  0  0  0  0  0  0  0  0  0  0  0
   -0.9286   -0.9202   -0.9658 C   0  0  0  0  0  0  0  0  0  0  0  0
   -1.1675    1.4543   -0.0962 C   0  0  0  0  0  0  0  0  0  0  0  0
    2.8090   -0.3104   -0.4961 H   0  0  0  0  0  0  0  0  0  0  0  0
    1.3779   -0.6602   -1.6185 H   0  0  0  0  0  0  0  0  0  0  0  0
    1.9726    1.0083   -1.3498 H   0  0  0  0  0  0  0  0  0  0  0  0
    1.1749    1.2183    0.8118 H   0  0  0  0  0  0  0  0  0  0  0  0
   -1.2136   -1.4459    1.4894 H   0  0  0  0  0  0  0  0  0  0  0  0
   -0.8740    0.2308    2.2537 H   0  0  0  0  0  0  0  0  0  0  0  0
   -0.2345   -1.7559   -1.0190 H   0  0  0  0  0  0  0  0  0  0  0  0
   -1.9393   -1.3191   -0.6606 H   0  0  0  0  0  0  0  0  0  0  0  0
   -1.1088   -0.3994   -1.9274 H   0  0  0  0  0  0  0  0  0  0  0  0
   -2.2539    1.4471   -0.2793 H   0  0  0  0  0  0  0  0  0  0  0  0
   -0.7064    1.9227   -1.0132 H   0  0  0  0  0  0  0  0  0  0  0  0
   -0.8635    2.0874    0.7549 H   0  0  0  0  0  0  0  0  0  0  0  0
  1  2  1  0
  2  3  1  0
  3  4  2  0
  3  5  1  0
  5  6  1  0
  6  7  1  0
  6  8  1  0
  6  2  1  0
  1  9  1  0
  1 10  1  0
  1 11  1  0
  2 12  1  0
  5 13  1  0
  5 14  1  0
  7 15  1  0
  7 16  1  0
  7 17  1  0
  8 18  1  0
  8 19  1  0
  8 20  1  0
M  END
