
     RDKit          3D

 19 19  0  0  0  0  0  0  0  0999 V2000
    1.3787   -1.0347    0.2368 C   0  0  0  0  0  0  0  0  0  0  0  0
    0.5480   -0.0990   -0.6128 C   0  0  0  0  0  0  0  0  0  0  0  0
   -0.5745   -0.8297   -1.3105 C   0  0  0  0  0  0  0  0  0  0  0  0
   -1.6224   -0.8552   -0.2463 C   0  0  0  0  0  0  0  0  0  0  0  0
   -1.4374    0.0950    0.6323 C   0  0  0  0  0  0  0  0  0  0  0  0
   -0.2344    0.8750    0.2572 C   0  0  0  0  0  0  0  0  0  0  0  0
   -0.6397    1.9067   -0.5892 O   0  0  0  0  0  0  0  0  0  0  0  0
    0.5049    1.3452    1.4274 C   0  0  0  0  0  0  0  0  0  0  0  0
    0.9264    0.5733    2.2657 O   0  0  0  0  0  0  0  0  0  0  0  0
    2.2425   -0.4661    0.6395 H   0  0  0  0  0  0  0  0  0  0  0  0
    1.7896   -1.8158   -0.4435 H   0  0  0  0  0  0  0  0  0  0  0  0
    0.8053   -1.4316    1.0752 H   0  0  0  0  0  0  0  0  0  0  0  0
    1.1462    0.4165   -1.3804 H   0  0  0  0  0  0  0  0  0  0  0  0
   -0.2929   -1.8489   -1.6315 H   0  0  0  0  0  0  0  0  0  0  0  0
   -0.9566   -0.1946   -2.1258 H   0  0  0  0  0  0  0  0  0  0  0  0
   -2.4197   -1.5995   -0.2541 H   0  0  0  0  0  0  0  0  0  0  0  0
   -2.0488    0.2983    1.4992 H   0  0  0  0  0  0  0  0  0  0  0  0
    0.1988    2.2630   -0.9987 H   0  0  0  0  0  0  0  0  0  0  0  0
    0.6861    2.4019    1.5595 H   0  0  0  0  0  0  0  0  0  0  0  0
  1  2  1  0
  2  3  1  0
  3  4  1  0
  4  5  2  0
  5  6  1  0
  6  7  1  0
  6  8  1  0
  8  9  2  0
  6  2  1  0
  1 10  1  0
  1 11  1  0
  1 12  1  0
  2 13  1  0
  3 14  1  0
  3 15  1  0
  4 16  1  0
  5 17  1  0
  7 18  1  0
  8 19  1  0
M  END
