
     RDKit          3D

 19 19  0  0  0  0  0  0  0  0999 V2000
    2.4468   -0.3326   -0.6030 C   0  0  0  0  0  0  0  0  0  0  0  0
    1.3428   -0.7139    0.3282 C   0  0  0  0  0  0  0  0  0  0  0  0
    0.7155    0.4720    1.0688 C   0  0  0  0  0  0  0  0  0  0  0  0
   -0.5055   -0.2490    0.6391 C   0  0  0  0  0  0  0  0  0  0  0  0
   -1.6325    0.5995    0.0802 C   0  0  0  0  0  0  0  0  0  0  0  0
   -1.1047    1.5277   -0.8216 O   0  0  0  0  0  0  0  0  0  0  0  0
   -2.5324   -0.3214   -0.6354 C   0  0  0  0  0  0  0  0  0  0  0  0
   -3.0956   -1.2036   -0.0422 O   0  0  0  0  0  0  0  0  0  0  0  0
    0.1415   -0.9242   -0.3798 O   0  0  0  0  0  0  0  0  0  0  0  0
    2.2130   -0.6814   -1.6158 H   0  0  0  0  0  0  0  0  0  0  0  0
    3.3908   -0.7887   -0.2272 H   0  0  0  0  0  0  0  0  0  0  0  0
    2.5825    0.7703   -0.5502 H   0  0  0  0  0  0  0  0  0  0  0  0
    1.5419   -1.5760    0.9948 H   0  0  0  0  0  0  0  0  0  0  0  0
    0.9826    1.4035    0.5756 H   0  0  0  0  0  0  0  0  0  0  0  0
    0.9513    0.4401    2.1690 H   0  0  0  0  0  0  0  0  0  0  0  0
   -0.8735   -0.9541    1.3959 H   0  0  0  0  0  0  0  0  0  0  0  0
   -2.1699    1.1320    0.9189 H   0  0  0  0  0  0  0  0  0  0  0  0
   -1.7043    1.6112   -1.6109 H   0  0  0  0  0  0  0  0  0  0  0  0
   -2.6902   -0.2115   -1.6843 H   0  0  0  0  0  0  0  0  0  0  0  0
  1  2  1  0
  2  3  1  0
  3  4  1  0
  4  5  1  0
  5  6  1  0
  5  7  1  0
  7  8  2  0
  4  9  1  0
  9  2  1  0
  1 10  1  0
  1 11  1  0
  1 12  1  0
  2 13  1  0
  3 14  1  0
  3 15  1  0
  4 16  1  0
  5 17  1  0
  6 18  1  0
  7 19  1  0
M  END
