
     RDKit          3D

 23 24  0  0  0  0  0  0  0  0999 V2000
   -1.9539   -0.6695    0.5128 C   0  0  0  0  0  0  0  0  0  0  0  0
   -1.2805   -0.1775   -0.7202 C   0  0  0  0  0  0  0  0  0  0  0  0
   -1.4860    1.3459   -0.7672 C   0  0  0  0  0  0  0  0  0  0  0  0
   -0.2645    1.8605   -0.0586 C   0  0  0  0  0  0  0  0  0  0  0  0
    0.6923    0.9498   -0.0316 C   0  0  0  0  0  0  0  0  0  0  0  0
    2.0757    0.6038    0.3979 C   0  0  0  0  0  0  0  0  0  0  0  0
    1.9409   -0.8272    0.8068 C   0  0  0  0  0  0  0  0  0  0  0  0
    0.7901   -1.4052    0.0091 C   0  0  0  0  0  0  0  0  0  0  0  0
    0.1900   -0.2527   -0.7294 C   0  0  0  0  0  0  0  0  0  0  0  0
   -1.6127   -0.1360    1.4338 H   0  0  0  0  0  0  0  0  0  0  0  0
   -1.9418   -1.7664    0.6205 H   0  0  0  0  0  0  0  0  0  0  0  0
   -3.0466   -0.3951    0.4248 H   0  0  0  0  0  0  0  0  0  0  0  0
   -1.7567   -0.6518   -1.5939 H   0  0  0  0  0  0  0  0  0  0  0  0
   -2.3769    1.6301   -0.2108 H   0  0  0  0  0  0  0  0  0  0  0  0
   -1.4665    1.6601   -1.8234 H   0  0  0  0  0  0  0  0  0  0  0  0
   -0.1918    2.8421    0.3659 H   0  0  0  0  0  0  0  0  0  0  0  0
    2.3598    1.2807    1.2269 H   0  0  0  0  0  0  0  0  0  0  0  0
    2.7936    0.6956   -0.4632 H   0  0  0  0  0  0  0  0  0  0  0  0
    2.9035   -1.3547    0.5438 H   0  0  0  0  0  0  0  0  0  0  0  0
    1.8234   -0.9712    1.8948 H   0  0  0  0  0  0  0  0  0  0  0  0
    0.0904   -1.9369    0.6751 H   0  0  0  0  0  0  0  0  0  0  0  0
    1.1729   -2.1324   -0.7345 H   0  0  0  0  0  0  0  0  0  0  0  0
    0.5451   -0.1921   -1.7793 H   0  0  0  0  0  0  0  0  0  0  0  0
  1  2  1  0
  2  3  1  0
  3  4  1  0
  4  5  2  0
  5  6  1  0
  6  7  1  0
  7  8  1  0
  8  9  1  0
  9  2  1  0
  9  5  1  0
  1 10  1  0
  1 11  1  0
  1 12  1  0
  2 13  1  0
  3 14  1  0
  3 15  1  0
  4 16  1  0
  6 17  1  0
  6 18  1  0
  7 19  1  0
  7 20  1  0
  8 21  1  0
  8 22  1  0
  9 23  1  0
M  END
