
     RDKit          3D

 21 22  0  0  0  0  0  0  0  0999 V2000
    2.7937    0.9998   -0.2773 C   0  0  0  0  0  0  0  0  0  0  0  0
    1.6912    0.4397    0.5642 C   0  0  0  0  0  0  0  0  0  0  0  0
    1.2295   -0.9574    0.1658 C   0  0  0  0  0  0  0  0  0  0  0  0
   -0.0654   -0.3488    0.7028 C   0  0  0  0  0  0  0  0  0  0  0  0
   -1.2552   -0.8946   -0.0049 C   0  0  0  0  0  0  0  0  0  0  0  0
   -2.6017   -0.3494    0.4582 C   0  0  0  0  0  0  0  0  0  0  0  0
   -2.0718   -0.1119   -0.9455 C   0  0  0  0  0  0  0  0  0  0  0  0
   -1.7490    1.2209   -1.2482 O   0  0  0  0  0  0  0  0  0  0  0  0
    0.4107    0.8835    0.2682 O   0  0  0  0  0  0  0  0  0  0  0  0
    3.7594    0.6788    0.1943 H   0  0  0  0  0  0  0  0  0  0  0  0
    2.7779    2.0937   -0.2233 H   0  0  0  0  0  0  0  0  0  0  0  0
    2.7827    0.6512   -1.3280 H   0  0  0  0  0  0  0  0  0  0  0  0
    1.9562    0.4387    1.6375 H   0  0  0  0  0  0  0  0  0  0  0  0
    1.1858   -1.1000   -0.9158 H   0  0  0  0  0  0  0  0  0  0  0  0
    1.5870   -1.7713    0.7933 H   0  0  0  0  0  0  0  0  0  0  0  0
   -0.1195   -0.3728    1.8228 H   0  0  0  0  0  0  0  0  0  0  0  0
   -1.1873   -1.9898   -0.2308 H   0  0  0  0  0  0  0  0  0  0  0  0
   -3.3652   -1.1384    0.6140 H   0  0  0  0  0  0  0  0  0  0  0  0
   -2.5838    0.5178    1.1477 H   0  0  0  0  0  0  0  0  0  0  0  0
   -2.5985   -0.6341   -1.7679 H   0  0  0  0  0  0  0  0  0  0  0  0
   -2.5767    1.7444   -1.0258 H   0  0  0  0  0  0  0  0  0  0  0  0
  1  2  1  0
  2  3  1  0
  3  4  1  0
  4  5  1  0
  5  6  1  0
  6  7  1  0
  7  8  1  0
  4  9  1  0
  9  2  1  0
  7  5  1  0
  1 10  1  0
  1 11  1  0
  1 12  1  0
  2 13  1  0
  3 14  1  0
  3 15  1  0
  4 16  1  0
  5 17  1  0
  6 18  1  0
  6 19  1  0
  7 20  1  0
  8 21  1  0
M  END
