
     RDKit          3D

 15 15  0  0  0  0  0  0  0  0999 V2000
   -1.8605    0.7761   -0.2439 C   0  0  0  0  0  0  0  0  0  0  0  0
   -0.4573    0.2656   -0.0980 C   0  0  0  0  0  0  0  0  0  0  0  0
    0.5893    1.1366    0.1537 C   0  0  0  0  0  0  0  0  0  0  0  0
    1.8600    0.6152    0.2791 C   0  0  0  0  0  0  0  0  0  0  0  0
    2.1063   -0.7365    0.1607 C   0  0  0  0  0  0  0  0  0  0  0  0
    3.2788   -1.2140    0.2769 O   0  0  0  0  0  0  0  0  0  0  0  0
    1.0826   -1.5206   -0.0778 O   0  0  0  0  0  0  0  0  0  0  0  0
   -0.1511   -1.0779   -0.2068 C   0  0  0  0  0  0  0  0  0  0  0  0
   -1.2126   -1.9370   -0.4593 O   0  0  0  0  0  0  0  0  0  0  0  0
   -2.5330   -0.0879   -0.2115 H   0  0  0  0  0  0  0  0  0  0  0  0
   -1.9833    1.3861   -1.1597 H   0  0  0  0  0  0  0  0  0  0  0  0
   -2.1151    1.4171    0.6495 H   0  0  0  0  0  0  0  0  0  0  0  0
    0.3813    2.1940    0.2441 H   0  0  0  0  0  0  0  0  0  0  0  0
    2.6953    1.2749    0.4760 H   0  0  0  0  0  0  0  0  0  0  0  0
   -1.6808   -2.4916    0.2171 H   0  0  0  0  0  0  0  0  0  0  0  0
  1  2  1  0
  2  3  1  0
  3  4  2  0
  4  5  1  0
  5  6  2  0
  5  7  1  0
  7  8  1  0
  8  9  1  0
  8  2  2  0
  1 10  1  0
  1 11  1  0
  1 12  1  0
  3 13  1  0
  4 14  1  0
  9 15  1  0
M  END
