
     RDKit          3D

 21 23  0  0  0  0  0  0  0  0999 V2000
    2.7198    0.2543    0.1558 C   0  0  0  0  0  0  0  0  0  0  0  0
    1.3726   -0.3794   -0.1789 C   0  0  0  0  0  0  0  0  0  0  0  0
    0.3077   -0.1539    0.7983 C   0  0  0  0  0  0  0  0  0  0  0  0
   -1.0545   -0.7183    0.7181 C   0  0  0  0  0  0  0  0  0  0  0  0
   -1.1770   -1.2839   -0.7030 C   0  0  0  0  0  0  0  0  0  0  0  0
   -1.0104    0.1541   -1.0979 C   0  0  0  0  0  0  0  0  0  0  0  0
   -1.8857    0.4367    0.1366 C   0  0  0  0  0  0  0  0  0  0  0  0
   -1.6623    1.6556    0.7081 O   0  0  0  0  0  0  0  0  0  0  0  0
    0.3350    0.5948   -0.5807 C   0  0  0  0  0  0  0  0  0  0  0  0
    2.8622    1.0729   -0.6069 H   0  0  0  0  0  0  0  0  0  0  0  0
    3.5601   -0.4514   -0.0175 H   0  0  0  0  0  0  0  0  0  0  0  0
    2.7421    0.6707    1.1777 H   0  0  0  0  0  0  0  0  0  0  0  0
    1.4773   -1.2810   -0.7966 H   0  0  0  0  0  0  0  0  0  0  0  0
    0.5224    0.4555    1.6879 H   0  0  0  0  0  0  0  0  0  0  0  0
   -1.4895   -1.2802    1.5089 H   0  0  0  0  0  0  0  0  0  0  0  0
   -0.4211   -1.9939   -0.9965 H   0  0  0  0  0  0  0  0  0  0  0  0
   -2.2221   -1.6089   -0.9108 H   0  0  0  0  0  0  0  0  0  0  0  0
   -1.3627    0.5024   -2.0332 H   0  0  0  0  0  0  0  0  0  0  0  0
   -2.9262    0.1273   -0.0426 H   0  0  0  0  0  0  0  0  0  0  0  0
   -1.1889    1.5606    1.5528 H   0  0  0  0  0  0  0  0  0  0  0  0
    0.5013    1.6660   -0.4796 H   0  0  0  0  0  0  0  0  0  0  0  0
  1  2  1  0
  2  3  1  0
  3  4  1  0
  4  5  1  0
  5  6  1  0
  6  7  1  0
  7  8  1  0
  6  9  1  0
  9  2  1  0
  9  3  1  0
  7  4  1  0
  1 10  1  0
  1 11  1  0
  1 12  1  0
  2 13  1  0
  3 14  1  0
  4 15  1  0
  5 16  1  0
  5 17  1  0
  6 18  1  0
  7 19  1  0
  8 20  1  0
  9 21  1  0
M  END
