
     RDKit          3D

 23 25  0  0  0  0  0  0  0  0999 V2000
    2.9066   -0.5237   -0.2256 C   0  0  0  0  0  0  0  0  0  0  0  0
    1.4332   -0.6903   -0.6280 C   0  0  0  0  0  0  0  0  0  0  0  0
    0.6916    0.4890   -0.7590 C   0  0  0  0  0  0  0  0  0  0  0  0
    0.2478    1.5707    0.1676 C   0  0  0  0  0  0  0  0  0  0  0  0
   -1.2149    1.1450    0.3161 C   0  0  0  0  0  0  0  0  0  0  0  0
   -1.7340    0.4106    1.4402 C   0  0  0  0  0  0  0  0  0  0  0  0
   -1.0500   -0.4197    0.3024 C   0  0  0  0  0  0  0  0  0  0  0  0
   -1.9756   -1.1160   -0.6431 C   0  0  0  0  0  0  0  0  0  0  0  0
    0.3921   -0.6215    0.3315 C   0  0  0  0  0  0  0  0  0  0  0  0
    3.5331   -0.5666   -1.1200 H   0  0  0  0  0  0  0  0  0  0  0  0
    3.1932   -1.3477    0.4571 H   0  0  0  0  0  0  0  0  0  0  0  0
    3.0504    0.4342    0.3229 H   0  0  0  0  0  0  0  0  0  0  0  0
    1.3633   -1.5071   -1.3897 H   0  0  0  0  0  0  0  0  0  0  0  0
   -0.0210    0.4870   -1.6444 H   0  0  0  0  0  0  0  0  0  0  0  0
    0.2836    2.5831   -0.2898 H   0  0  0  0  0  0  0  0  0  0  0  0
    0.7351    1.5336    1.1550 H   0  0  0  0  0  0  0  0  0  0  0  0
   -1.8653    1.5640   -0.4566 H   0  0  0  0  0  0  0  0  0  0  0  0
   -1.1260    0.4050    2.3915 H   0  0  0  0  0  0  0  0  0  0  0  0
   -2.8128    0.3174    1.5422 H   0  0  0  0  0  0  0  0  0  0  0  0
   -1.6568   -1.0571   -1.7068 H   0  0  0  0  0  0  0  0  0  0  0  0
   -2.9536   -0.5516   -0.6100 H   0  0  0  0  0  0  0  0  0  0  0  0
   -2.2183   -2.1404   -0.3229 H   0  0  0  0  0  0  0  0  0  0  0  0
    0.7983   -0.3979    1.3694 H   0  0  0  0  0  0  0  0  0  0  0  0
  1  2  1  0
  2  3  1  0
  3  4  1  0
  4  5  1  0
  5  6  1  0
  6  7  1  0
  7  8  1  0
  7  9  1  0
  9  2  1  0
  9  3  1  0
  7  5  1  0
  1 10  1  0
  1 11  1  0
  1 12  1  0
  2 13  1  0
  3 14  1  0
  4 15  1  0
  4 16  1  0
  5 17  1  0
  6 18  1  0
  6 19  1  0
  8 20  1  0
  8 21  1  0
  8 22  1  0
  9 23  1  0
M  END
