
     RDKit          3D

 17 18  0  0  0  0  0  0  0  0999 V2000
   -2.5681    0.1934   -0.2486 C   0  0  0  0  0  0  0  0  0  0  0  0
   -1.1797   -0.3312   -0.0480 C   0  0  0  0  0  0  0  0  0  0  0  0
   -0.1966    0.6451    0.5462 C   0  0  0  0  0  0  0  0  0  0  0  0
   -0.3236    1.3341   -0.6494 O   0  0  0  0  0  0  0  0  0  0  0  0
   -0.1795    0.0255   -1.1019 C   0  0  0  0  0  0  0  0  0  0  0  0
    0.8841   -0.1462   -0.0803 C   0  0  0  0  0  0  0  0  0  0  0  0
    2.1180    0.4291   -0.2939 O   0  0  0  0  0  0  0  0  0  0  0  0
    3.3051   -0.2157   -0.0172 C   0  0  0  0  0  0  0  0  0  0  0  0
    3.1991   -1.3807    0.4500 O   0  0  0  0  0  0  0  0  0  0  0  0
   -2.8132    1.0223    0.4644 H   0  0  0  0  0  0  0  0  0  0  0  0
   -3.3006   -0.6390   -0.0971 H   0  0  0  0  0  0  0  0  0  0  0  0
   -2.7059    0.5719   -1.2892 H   0  0  0  0  0  0  0  0  0  0  0  0
   -1.0846   -1.3544    0.3527 H   0  0  0  0  0  0  0  0  0  0  0  0
   -0.2419    1.0346    1.4758 H   0  0  0  0  0  0  0  0  0  0  0  0
   -0.1790   -0.2740   -2.0653 H   0  0  0  0  0  0  0  0  0  0  0  0
    0.9875   -1.1749    0.3351 H   0  0  0  0  0  0  0  0  0  0  0  0
    4.2790    0.2600   -0.1945 H   0  0  0  0  0  0  0  0  0  0  0  0
  1  2  1  0
  2  3  1  0
  3  4  1  0
  4  5  1  0
  5  6  1  0
  6  7  1  0
  7  8  1  0
  8  9  2  0
  5  2  1  0
  6  3  1  0
  1 10  1  0
  1 11  1  0
  1 12  1  0
  2 13  1  0
  3 14  1  0
  5 15  1  0
  6 16  1  0
  8 17  1  0
M  END
