
     RDKit          3D

 21 22  0  0  0  0  0  0  0  0999 V2000
   -1.4541   -1.2663    0.7541 C   0  0  0  0  0  0  0  0  0  0  0  0
   -0.9689   -0.3809   -0.3543 C   0  0  0  0  0  0  0  0  0  0  0  0
   -1.6013    1.0108   -0.3852 C   0  0  0  0  0  0  0  0  0  0  0  0
   -0.1994    1.5571   -0.6128 C   0  0  0  0  0  0  0  0  0  0  0  0
    0.3504    0.2748   -0.1651 C   0  0  0  0  0  0  0  0  0  0  0  0
    1.4879   -0.3393   -0.9107 C   0  0  0  0  0  0  0  0  0  0  0  0
    2.1729   -0.4537    0.4627 C   0  0  0  0  0  0  0  0  0  0  0  0
    1.0046    0.1691    1.1255 C   0  0  0  0  0  0  0  0  0  0  0  0
    0.7080    0.4674    2.2523 O   0  0  0  0  0  0  0  0  0  0  0  0
   -0.6613   -1.9855    1.0534 H   0  0  0  0  0  0  0  0  0  0  0  0
   -2.3237   -1.8290    0.3771 H   0  0  0  0  0  0  0  0  0  0  0  0
   -1.7566   -0.6089    1.5986 H   0  0  0  0  0  0  0  0  0  0  0  0
   -1.0956   -0.8631   -1.3367 H   0  0  0  0  0  0  0  0  0  0  0  0
   -2.3051    1.1571   -1.2034 H   0  0  0  0  0  0  0  0  0  0  0  0
   -2.0289    1.2284    0.5942 H   0  0  0  0  0  0  0  0  0  0  0  0
   -0.0182    2.3739    0.1260 H   0  0  0  0  0  0  0  0  0  0  0  0
    0.0076    1.9045   -1.6326 H   0  0  0  0  0  0  0  0  0  0  0  0
    2.0093    0.2999   -1.6163 H   0  0  0  0  0  0  0  0  0  0  0  0
    1.2246   -1.3126   -1.3492 H   0  0  0  0  0  0  0  0  0  0  0  0
    2.3395   -1.5327    0.7453 H   0  0  0  0  0  0  0  0  0  0  0  0
    3.1085    0.1291    0.4770 H   0  0  0  0  0  0  0  0  0  0  0  0
  1  2  1  0
  2  3  1  0
  3  4  1  0
  4  5  1  0
  5  6  1  0
  6  7  1  0
  7  8  1  0
  8  9  2  0
  5  2  1  0
  8  5  1  0
  1 10  1  0
  1 11  1  0
  1 12  1  0
  2 13  1  0
  3 14  1  0
  3 15  1  0
  4 16  1  0
  4 17  1  0
  6 18  1  0
  6 19  1  0
  7 20  1  0
  7 21  1  0
M  END
