
     RDKit          3D

 23 24  0  0  0  0  0  0  0  0999 V2000
    2.5386    0.6131    0.3548 C   0  0  0  0  0  0  0  0  0  0  0  0
    1.1822    0.4191   -0.3405 C   0  0  0  0  0  0  0  0  0  0  0  0
    1.1877   -0.9206   -0.9664 C   0  0  0  0  0  0  0  0  0  0  0  0
    0.0165   -1.4860   -1.2738 O   0  0  0  0  0  0  0  0  0  0  0  0
   -1.1336   -1.0162   -0.7791 C   0  0  0  0  0  0  0  0  0  0  0  0
   -1.5624   -1.3165    0.6485 C   0  0  0  0  0  0  0  0  0  0  0  0
   -1.1643    0.0516    0.1852 C   0  0  0  0  0  0  0  0  0  0  0  0
   -2.2197    1.1277    0.0187 C   0  0  0  0  0  0  0  0  0  0  0  0
    0.1377    0.5471    0.7198 C   0  0  0  0  0  0  0  0  0  0  0  0
    2.6415    1.6100    0.7866 H   0  0  0  0  0  0  0  0  0  0  0  0
    2.6047   -0.1347    1.1908 H   0  0  0  0  0  0  0  0  0  0  0  0
    3.3507    0.4593   -0.3858 H   0  0  0  0  0  0  0  0  0  0  0  0
    1.0863    1.2648   -1.0404 H   0  0  0  0  0  0  0  0  0  0  0  0
    1.8156   -0.8554   -1.9045 H   0  0  0  0  0  0  0  0  0  0  0  0
    1.7873   -1.6067   -0.3007 H   0  0  0  0  0  0  0  0  0  0  0  0
   -2.0104   -1.0862   -1.4903 H   0  0  0  0  0  0  0  0  0  0  0  0
   -2.6049   -1.5158    0.8850 H   0  0  0  0  0  0  0  0  0  0  0  0
   -0.8297   -1.9096    1.2407 H   0  0  0  0  0  0  0  0  0  0  0  0
   -2.8968    0.8817   -0.8449 H   0  0  0  0  0  0  0  0  0  0  0  0
   -1.6703    2.0465   -0.3167 H   0  0  0  0  0  0  0  0  0  0  0  0
   -2.8219    1.2968    0.9068 H   0  0  0  0  0  0  0  0  0  0  0  0
    0.4963   -0.0579    1.6026 H   0  0  0  0  0  0  0  0  0  0  0  0
    0.0691    1.5877    1.1034 H   0  0  0  0  0  0  0  0  0  0  0  0
  1  2  1  0
  2  3  1  0
  3  4  1  0
  4  5  1  0
  5  6  1  0
  6  7  1  0
  7  8  1  0
  7  9  1  0
  9  2  1  0
  7  5  1  0
  1 10  1  0
  1 11  1  0
  1 12  1  0
  2 13  1  0
  3 14  1  0
  3 15  1  0
  5 16  1  0
  6 17  1  0
  6 18  1  0
  8 19  1  0
  8 20  1  0
  8 21  1  0
  9 22  1  0
  9 23  1  0
M  END
