
     RDKit          3D

 23 24  0  0  0  0  0  0  0  0999 V2000
   -2.4150    1.3788   -0.1000 C   0  0  0  0  0  0  0  0  0  0  0  0
   -1.2848    0.5438    0.4757 C   0  0  0  0  0  0  0  0  0  0  0  0
   -1.4305   -0.8366   -0.1015 C   0  0  0  0  0  0  0  0  0  0  0  0
   -0.2346   -1.7421    0.2372 C   0  0  0  0  0  0  0  0  0  0  0  0
    0.8691   -0.8011    0.5414 C   0  0  0  0  0  0  0  0  0  0  0  0
    1.9238   -0.2784   -0.2425 C   0  0  0  0  0  0  0  0  0  0  0  0
    2.9204    0.6641    0.4478 C   0  0  0  0  0  0  0  0  0  0  0  0
    0.6517    0.2823   -0.5646 C   0  0  0  0  0  0  0  0  0  0  0  0
   -0.1112    1.2053    0.0518 O   0  0  0  0  0  0  0  0  0  0  0  0
   -3.3785    0.8537   -0.0231 H   0  0  0  0  0  0  0  0  0  0  0  0
   -2.4113    2.3743    0.3502 H   0  0  0  0  0  0  0  0  0  0  0  0
   -2.2129    1.4684   -1.2078 H   0  0  0  0  0  0  0  0  0  0  0  0
   -1.3718    0.5169    1.5622 H   0  0  0  0  0  0  0  0  0  0  0  0
   -2.2990   -1.2988    0.4125 H   0  0  0  0  0  0  0  0  0  0  0  0
   -1.6291   -0.8683   -1.1715 H   0  0  0  0  0  0  0  0  0  0  0  0
   -0.4536   -2.3989    1.0936 H   0  0  0  0  0  0  0  0  0  0  0  0
   -0.0366   -2.4047   -0.6346 H   0  0  0  0  0  0  0  0  0  0  0  0
    0.7959   -0.4484    1.6132 H   0  0  0  0  0  0  0  0  0  0  0  0
    2.4499   -0.8982   -0.9989 H   0  0  0  0  0  0  0  0  0  0  0  0
    3.8489    0.1123    0.7053 H   0  0  0  0  0  0  0  0  0  0  0  0
    2.4598    1.1565    1.3267 H   0  0  0  0  0  0  0  0  0  0  0  0
    3.1478    1.4651   -0.2874 H   0  0  0  0  0  0  0  0  0  0  0  0
    0.2014   -0.0461   -1.5331 H   0  0  0  0  0  0  0  0  0  0  0  0
  1  2  1  0
  2  3  1  0
  3  4  1  0
  4  5  1  0
  5  6  1  0
  6  7  1  0
  6  8  1  0
  8  9  1  0
  9  2  1  0
  8  5  1  0
  1 10  1  0
  1 11  1  0
  1 12  1  0
  2 13  1  0
  3 14  1  0
  3 15  1  0
  4 16  1  0
  4 17  1  0
  5 18  1  0
  6 19  1  0
  7 20  1  0
  7 21  1  0
  7 22  1  0
  8 23  1  0
M  END
