
     RDKit          3D

 21 22  0  0  0  0  0  0  0  0999 V2000
    2.3273    0.6409    0.9120 C   0  0  0  0  0  0  0  0  0  0  0  0
    1.2561    0.6506   -0.1919 C   0  0  0  0  0  0  0  0  0  0  0  0
    0.6313   -0.5452   -0.5813 C   0  0  0  0  0  0  0  0  0  0  0  0
   -0.6166   -0.9332   -1.2698 C   0  0  0  0  0  0  0  0  0  0  0  0
   -1.5481   -1.1161   -0.0530 C   0  0  0  0  0  0  0  0  0  0  0  0
   -0.8263   -0.3723    1.0963 C   0  0  0  0  0  0  0  0  0  0  0  0
   -0.0869    0.5969    0.2544 C   0  0  0  0  0  0  0  0  0  0  0  0
   -1.0298    1.4708   -0.4979 C   0  0  0  0  0  0  0  0  0  0  0  0
   -0.7690    2.0009   -1.5672 O   0  0  0  0  0  0  0  0  0  0  0  0
    3.3007    0.3133    0.4832 H   0  0  0  0  0  0  0  0  0  0  0  0
    1.9444   -0.0269    1.6948 H   0  0  0  0  0  0  0  0  0  0  0  0
    2.4384    1.6968    1.2306 H   0  0  0  0  0  0  0  0  0  0  0  0
    1.5517    1.3812   -0.9682 H   0  0  0  0  0  0  0  0  0  0  0  0
    0.9748   -1.4446    0.0241 H   0  0  0  0  0  0  0  0  0  0  0  0
   -1.0261   -0.2582   -2.0116 H   0  0  0  0  0  0  0  0  0  0  0  0
   -0.5303   -1.9588   -1.7180 H   0  0  0  0  0  0  0  0  0  0  0  0
   -2.4702   -0.5596   -0.2870 H   0  0  0  0  0  0  0  0  0  0  0  0
   -1.6907   -2.1641    0.2013 H   0  0  0  0  0  0  0  0  0  0  0  0
   -1.6043    0.0841    1.7455 H   0  0  0  0  0  0  0  0  0  0  0  0
   -0.2152   -1.1222    1.6012 H   0  0  0  0  0  0  0  0  0  0  0  0
   -2.0109    1.6657   -0.0974 H   0  0  0  0  0  0  0  0  0  0  0  0
  1  2  1  0
  2  3  1  0
  3  4  1  0
  4  5  1  0
  5  6  1  0
  6  7  1  0
  7  8  1  0
  8  9  2  0
  7  2  1  0
  7  3  1  0
  1 10  1  0
  1 11  1  0
  1 12  1  0
  2 13  1  0
  3 14  1  0
  4 15  1  0
  4 16  1  0
  5 17  1  0
  5 18  1  0
  6 19  1  0
  6 20  1  0
  8 21  1  0
M  END
