
     RDKit          3D

 23 24  0  0  0  0  0  0  0  0999 V2000
    2.1936   -0.3827   -0.3571 C   0  0  0  0  0  0  0  0  0  0  0  0
    1.1568    0.5502    0.1037 C   0  0  0  0  0  0  0  0  0  0  0  0
    0.7704    0.2527    1.5594 C   0  0  0  0  0  0  0  0  0  0  0  0
   -0.6768    0.1117    1.1578 C   0  0  0  0  0  0  0  0  0  0  0  0
   -1.2189   -1.1353    1.2166 O   0  0  0  0  0  0  0  0  0  0  0  0
   -1.5679   -1.5561   -0.0360 C   0  0  0  0  0  0  0  0  0  0  0  0
   -0.7201   -0.7842   -1.0180 C   0  0  0  0  0  0  0  0  0  0  0  0
   -0.2513    0.3833   -0.2660 C   0  0  0  0  0  0  0  0  0  0  0  0
   -0.9372    1.6647   -0.7453 C   0  0  0  0  0  0  0  0  0  0  0  0
    3.1734    0.1529   -0.5377 H   0  0  0  0  0  0  0  0  0  0  0  0
    1.9897   -0.9431   -1.2728 H   0  0  0  0  0  0  0  0  0  0  0  0
    2.4623   -1.1555    0.4225 H   0  0  0  0  0  0  0  0  0  0  0  0
    1.4825    1.6250   -0.0225 H   0  0  0  0  0  0  0  0  0  0  0  0
    1.0168    1.0894    2.2127 H   0  0  0  0  0  0  0  0  0  0  0  0
    1.1709   -0.6934    1.9507 H   0  0  0  0  0  0  0  0  0  0  0  0
   -1.2727    0.9064    1.6421 H   0  0  0  0  0  0  0  0  0  0  0  0
   -1.3807   -2.6613   -0.1350 H   0  0  0  0  0  0  0  0  0  0  0  0
   -2.6448   -1.3765   -0.1984 H   0  0  0  0  0  0  0  0  0  0  0  0
   -1.4065   -0.5072   -1.8702 H   0  0  0  0  0  0  0  0  0  0  0  0
    0.0221   -1.4589   -1.4278 H   0  0  0  0  0  0  0  0  0  0  0  0
   -0.6985    2.4466    0.0259 H   0  0  0  0  0  0  0  0  0  0  0  0
   -0.6238    1.9608   -1.7459 H   0  0  0  0  0  0  0  0  0  0  0  0
   -2.0392    1.5106   -0.6588 H   0  0  0  0  0  0  0  0  0  0  0  0
  1  2  1  0
  2  3  1  0
  3  4  1  0
  4  5  1  0
  5  6  1  0
  6  7  1  0
  7  8  1  0
  8  9  1  0
  8  2  1  0
  8  4  1  0
  1 10  1  0
  1 11  1  0
  1 12  1  0
  2 13  1  0
  3 14  1  0
  3 15  1  0
  4 16  1  0
  6 17  1  0
  6 18  1  0
  7 19  1  0
  7 20  1  0
  9 21  1  0
  9 22  1  0
  9 23  1  0
M  END
