
     RDKit          3D

 17 18  0  0  0  0  0  0  0  0999 V2000
   -1.1072   -1.5265    0.0220 C   0  0  0  0  0  0  0  0  0  0  0  0
   -0.3832   -0.3067    0.4968 C   0  0  0  0  0  0  0  0  0  0  0  0
   -0.9782    0.9503   -0.1564 C   0  0  0  0  0  0  0  0  0  0  0  0
   -1.1836    1.9953    0.7121 O   0  0  0  0  0  0  0  0  0  0  0  0
    0.3451    1.1041   -0.8650 C   0  0  0  0  0  0  0  0  0  0  0  0
    0.7029   -0.0733   -1.6607 O   0  0  0  0  0  0  0  0  0  0  0  0
    0.8878    0.0150   -0.3006 C   0  0  0  0  0  0  0  0  0  0  0  0
    2.1913   -0.2711    0.3037 C   0  0  0  0  0  0  0  0  0  0  0  0
    3.1709   -0.5990   -0.3585 O   0  0  0  0  0  0  0  0  0  0  0  0
   -1.1075   -2.3520    0.7611 H   0  0  0  0  0  0  0  0  0  0  0  0
   -0.7274   -1.9027   -0.9599 H   0  0  0  0  0  0  0  0  0  0  0  0
   -2.1860   -1.2597   -0.1455 H   0  0  0  0  0  0  0  0  0  0  0  0
   -0.1746   -0.2144    1.5605 H   0  0  0  0  0  0  0  0  0  0  0  0
   -1.7795    0.7396   -0.8837 H   0  0  0  0  0  0  0  0  0  0  0  0
   -0.5948    1.8937    1.4846 H   0  0  0  0  0  0  0  0  0  0  0  0
    0.6231    1.9995   -1.3864 H   0  0  0  0  0  0  0  0  0  0  0  0
    2.3011   -0.1919    1.3758 H   0  0  0  0  0  0  0  0  0  0  0  0
  1  2  1  0
  2  3  1  0
  3  4  1  0
  3  5  1  0
  5  6  1  0
  6  7  1  0
  7  8  1  0
  8  9  2  0
  7  2  1  0
  7  5  1  0
  1 10  1  0
  1 11  1  0
  1 12  1  0
  2 13  1  0
  3 14  1  0
  4 15  1  0
  5 16  1  0
  8 17  1  0
M  END
