
     RDKit          3D

 21 21  0  0  0  0  0  0  0  0999 V2000
    1.8762    1.0924   -0.1802 C   0  0  0  0  0  0  0  0  0  0  0  0
    1.6399   -0.3503    0.1288 C   0  0  0  0  0  0  0  0  0  0  0  0
    1.2126   -1.2179   -1.0375 C   0  0  0  0  0  0  0  0  0  0  0  0
    0.3350   -1.0066    0.1218 C   0  0  0  0  0  0  0  0  0  0  0  0
   -0.9799   -0.2958    0.0596 C   0  0  0  0  0  0  0  0  0  0  0  0
   -1.1077    0.5267   -1.1927 C   0  0  0  0  0  0  0  0  0  0  0  0
   -1.1899    0.5196    1.2239 O   0  0  0  0  0  0  0  0  0  0  0  0
   -2.2726    0.3402    2.0716 C   0  0  0  0  0  0  0  0  0  0  0  0
   -3.0925   -0.5733    1.7990 O   0  0  0  0  0  0  0  0  0  0  0  0
    1.2243    1.7904    0.3837 H   0  0  0  0  0  0  0  0  0  0  0  0
    1.7675    1.3371   -1.2575 H   0  0  0  0  0  0  0  0  0  0  0  0
    2.9195    1.3889    0.1400 H   0  0  0  0  0  0  0  0  0  0  0  0
    2.4453   -0.8005    0.7844 H   0  0  0  0  0  0  0  0  0  0  0  0
    1.7504   -2.2049   -1.1643 H   0  0  0  0  0  0  0  0  0  0  0  0
    1.1107   -0.7156   -2.0117 H   0  0  0  0  0  0  0  0  0  0  0  0
    0.2662   -1.9258    0.7931 H   0  0  0  0  0  0  0  0  0  0  0  0
   -1.8420   -1.0242    0.0459 H   0  0  0  0  0  0  0  0  0  0  0  0
   -0.7909   -0.0642   -2.0735 H   0  0  0  0  0  0  0  0  0  0  0  0
   -2.2107    0.7279   -1.3848 H   0  0  0  0  0  0  0  0  0  0  0  0
   -0.6041    1.5211   -1.1229 H   0  0  0  0  0  0  0  0  0  0  0  0
   -2.4571    0.9347    2.9512 H   0  0  0  0  0  0  0  0  0  0  0  0
  1  2  1  0
  2  3  1  0
  3  4  1  0
  4  5  1  0
  5  6  1  0
  5  7  1  0
  7  8  1  0
  8  9  2  0
  4  2  1  0
  1 10  1  0
  1 11  1  0
  1 12  1  0
  2 13  1  0
  3 14  1  0
  3 15  1  0
  4 16  1  0
  5 17  1  0
  6 18  1  0
  6 19  1  0
  6 20  1  0
  8 21  1  0
M  END
