
     RDKit          3D

 13 14  0  0  0  0  0  0  0  0999 V2000
   -1.6405    0.0897    0.0889 C   0  0  0  0  0  0  0  0  0  0  0  0
   -0.2239    0.5483   -0.0116 C   0  0  0  0  0  0  0  0  0  0  0  0
    0.6846    0.1235    1.0805 C   0  0  0  0  0  0  0  0  0  0  0  0
    0.7340    0.2053    2.2842 O   0  0  0  0  0  0  0  0  0  0  0  0
    1.5587   -0.4766    0.0445 C   0  0  0  0  0  0  0  0  0  0  0  0
    1.0002   -1.5453   -0.6158 O   0  0  0  0  0  0  0  0  0  0  0  0
    0.6572   -0.2459   -0.9571 C   0  0  0  0  0  0  0  0  0  0  0  0
   -1.9347   -0.2776   -0.9319 H   0  0  0  0  0  0  0  0  0  0  0  0
   -1.7975   -0.7351    0.8032 H   0  0  0  0  0  0  0  0  0  0  0  0
   -2.3347    0.9516    0.2942 H   0  0  0  0  0  0  0  0  0  0  0  0
   -0.1227    1.6360   -0.1792 H   0  0  0  0  0  0  0  0  0  0  0  0
    2.6543   -0.3542    0.1075 H   0  0  0  0  0  0  0  0  0  0  0  0
    0.7649    0.0804   -2.0075 H   0  0  0  0  0  0  0  0  0  0  0  0
  1  2  1  0
  2  3  1  0
  3  4  2  0
  3  5  1  0
  5  6  1  0
  6  7  1  0
  7  2  1  0
  7  5  1  0
  1  8  1  0
  1  9  1  0
  1 10  1  0
  2 11  1  0
  5 12  1  0
  7 13  1  0
M  END
