
     RDKit          3D

 23 23  0  0  0  0  0  0  0  0999 V2000
    1.9278   -0.9329   -0.3217 C   0  0  0  0  0  0  0  0  0  0  0  0
    0.5783   -0.7738    0.2548 C   0  0  0  0  0  0  0  0  0  0  0  0
   -0.3686   -1.6913   -0.4071 C   0  0  0  0  0  0  0  0  0  0  0  0
   -0.1091   -2.6574   -1.0731 O   0  0  0  0  0  0  0  0  0  0  0  0
   -1.7205   -1.1904   -0.0916 C   0  0  0  0  0  0  0  0  0  0  0  0
   -1.5198    0.3119   -0.2244 C   0  0  0  0  0  0  0  0  0  0  0  0
   -0.0600    0.5478    0.1401 C   0  0  0  0  0  0  0  0  0  0  0  0
   -0.0521    1.2695    1.4808 C   0  0  0  0  0  0  0  0  0  0  0  0
    0.5165    1.4675   -0.8900 C   0  0  0  0  0  0  0  0  0  0  0  0
    2.5219   -0.0358   -0.4499 H   0  0  0  0  0  0  0  0  0  0  0  0
    1.8864   -1.4699   -1.3132 H   0  0  0  0  0  0  0  0  0  0  0  0
    2.5253   -1.6292    0.3373 H   0  0  0  0  0  0  0  0  0  0  0  0
    0.5903   -1.0630    1.3466 H   0  0  0  0  0  0  0  0  0  0  0  0
   -2.0199   -1.4365    0.9689 H   0  0  0  0  0  0  0  0  0  0  0  0
   -2.4973   -1.5571   -0.7963 H   0  0  0  0  0  0  0  0  0  0  0  0
   -1.6895    0.5640   -1.3057 H   0  0  0  0  0  0  0  0  0  0  0  0
   -2.2028    0.8752    0.4307 H   0  0  0  0  0  0  0  0  0  0  0  0
   -0.9178    0.9015    2.0478 H   0  0  0  0  0  0  0  0  0  0  0  0
   -0.0659    2.3604    1.3573 H   0  0  0  0  0  0  0  0  0  0  0  0
    0.8981    0.9487    1.9940 H   0  0  0  0  0  0  0  0  0  0  0  0
    1.5584    1.7379   -0.7449 H   0  0  0  0  0  0  0  0  0  0  0  0
   -0.0738    2.4209   -0.8410 H   0  0  0  0  0  0  0  0  0  0  0  0
    0.2942    1.0320   -1.8993 H   0  0  0  0  0  0  0  0  0  0  0  0
  1  2  1  0
  2  3  1  0
  3  4  2  0
  3  5  1  0
  5  6  1  0
  6  7  1  0
  7  8  1  0
  7  9  1  0
  7  2  1  0
  1 10  1  0
  1 11  1  0
  1 12  1  0
  2 13  1  0
  5 14  1  0
  5 15  1  0
  6 16  1  0
  6 17  1  0
  8 18  1  0
  8 19  1  0
  8 20  1  0
  9 21  1  0
  9 22  1  0
  9 23  1  0
M  END
