
     RDKit          3D

 18 19  0  0  0  0  0  0  0  0999 V2000
    1.5877    1.1663   -0.1298 C   0  0  0  0  0  0  0  0  0  0  0  0
    0.4626    0.4271    0.5622 C   0  0  0  0  0  0  0  0  0  0  0  0
    0.7545   -1.0768    0.6380 C   0  0  0  0  0  0  0  0  0  0  0  0
    0.1719   -1.6360   -0.6088 C   0  0  0  0  0  0  0  0  0  0  0  0
   -0.6811   -0.7759   -1.1264 C   0  0  0  0  0  0  0  0  0  0  0  0
   -0.7541    0.4100   -0.3044 C   0  0  0  0  0  0  0  0  0  0  0  0
   -2.1245    0.6545    0.3403 C   0  0  0  0  0  0  0  0  0  0  0  0
   -1.4988    1.5083   -0.5704 O   0  0  0  0  0  0  0  0  0  0  0  0
    2.1166    0.4298   -0.7658 H   0  0  0  0  0  0  0  0  0  0  0  0
    2.2365    1.6239    0.6400 H   0  0  0  0  0  0  0  0  0  0  0  0
    1.1481    1.9283   -0.8084 H   0  0  0  0  0  0  0  0  0  0  0  0
    0.2556    0.8448    1.5748 H   0  0  0  0  0  0  0  0  0  0  0  0
    1.8412   -1.2772    0.6812 H   0  0  0  0  0  0  0  0  0  0  0  0
    0.3114   -1.5208    1.5499 H   0  0  0  0  0  0  0  0  0  0  0  0
    0.4410   -2.6369   -1.0148 H   0  0  0  0  0  0  0  0  0  0  0  0
   -1.2339   -0.9601   -2.0395 H   0  0  0  0  0  0  0  0  0  0  0  0
   -2.0551    0.8489    1.4106 H   0  0  0  0  0  0  0  0  0  0  0  0
   -2.9798    0.0420   -0.0288 H   0  0  0  0  0  0  0  0  0  0  0  0
  1  2  1  0
  2  3  1  0
  3  4  1  0
  4  5  2  0
  5  6  1  0
  6  7  1  0
  7  8  1  0
  6  2  1  0
  8  6  1  0
  1  9  1  0
  1 10  1  0
  1 11  1  0
  2 12  1  0
  3 13  1  0
  3 14  1  0
  4 15  1  0
  5 16  1  0
  7 17  1  0
  7 18  1  0
M  END
