
     RDKit          3D

 23 24  0  0  0  0  0  0  0  0999 V2000
   -0.4688    2.1480   -0.3027 C   0  0  0  0  0  0  0  0  0  0  0  0
   -0.9104    0.7478    0.0037 C   0  0  0  0  0  0  0  0  0  0  0  0
   -1.0630   -0.1353   -1.1765 C   0  0  0  0  0  0  0  0  0  0  0  0
   -1.3878   -1.5323   -1.3228 C   0  0  0  0  0  0  0  0  0  0  0  0
   -0.8178   -1.2043   -0.0684 C   0  0  0  0  0  0  0  0  0  0  0  0
    0.1920   -0.2195    0.3808 C   0  0  0  0  0  0  0  0  0  0  0  0
    0.4088   -0.2766    1.9080 C   0  0  0  0  0  0  0  0  0  0  0  0
    1.4962   -0.1332   -0.3086 C   0  0  0  0  0  0  0  0  0  0  0  0
    2.3408   -1.1419    0.2476 O   0  0  0  0  0  0  0  0  0  0  0  0
   -0.2880    2.3359   -1.3737 H   0  0  0  0  0  0  0  0  0  0  0  0
    0.3950    2.4606    0.3156 H   0  0  0  0  0  0  0  0  0  0  0  0
   -1.3099    2.8374   -0.0081 H   0  0  0  0  0  0  0  0  0  0  0  0
   -1.7298    0.6860    0.7516 H   0  0  0  0  0  0  0  0  0  0  0  0
   -0.2629    0.1305   -1.8874 H   0  0  0  0  0  0  0  0  0  0  0  0
   -2.4805   -1.7463   -1.4889 H   0  0  0  0  0  0  0  0  0  0  0  0
   -0.7929   -2.2570   -1.9583 H   0  0  0  0  0  0  0  0  0  0  0  0
   -1.6282   -1.2254    0.7455 H   0  0  0  0  0  0  0  0  0  0  0  0
    0.6340   -1.3474    2.1182 H   0  0  0  0  0  0  0  0  0  0  0  0
   -0.4849    0.0239    2.4546 H   0  0  0  0  0  0  0  0  0  0  0  0
    1.3260    0.2887    2.1695 H   0  0  0  0  0  0  0  0  0  0  0  0
    2.0531    0.8118   -0.1010 H   0  0  0  0  0  0  0  0  0  0  0  0
    1.5141   -0.3949   -1.3842 H   0  0  0  0  0  0  0  0  0  0  0  0
    3.2647   -0.8565    0.2855 H   0  0  0  0  0  0  0  0  0  0  0  0
  1  2  1  0
  2  3  1  0
  3  4  1  0
  4  5  1  0
  5  6  1  0
  6  7  1  0
  6  8  1  0
  8  9  1  0
  6  2  1  0
  5  3  1  0
  1 10  1  0
  1 11  1  0
  1 12  1  0
  2 13  1  0
  3 14  1  0
  4 15  1  0
  4 16  1  0
  5 17  1  0
  7 18  1  0
  7 19  1  0
  7 20  1  0
  8 21  1  0
  8 22  1  0
  9 23  1  0
M  END
