
     RDKit          3D

 18 19  0  0  0  0  0  0  0  0999 V2000
    1.9652    0.1822   -0.4370 C   0  0  0  0  0  0  0  0  0  0  0  0
    0.9451   -0.1041    0.6070 C   0  0  0  0  0  0  0  0  0  0  0  0
   -0.0059    1.0907    0.8285 C   0  0  0  0  0  0  0  0  0  0  0  0
   -1.2961    0.3090    0.6740 C   0  0  0  0  0  0  0  0  0  0  0  0
   -1.0264   -0.9539    1.2503 O   0  0  0  0  0  0  0  0  0  0  0  0
   -0.1061   -1.0973    0.1844 C   0  0  0  0  0  0  0  0  0  0  0  0
   -1.1016   -0.3454   -0.6551 C   0  0  0  0  0  0  0  0  0  0  0  0
   -2.1544   -1.1600   -1.0257 O   0  0  0  0  0  0  0  0  0  0  0  0
    2.2491   -0.7622   -0.9692 H   0  0  0  0  0  0  0  0  0  0  0  0
    1.7311    1.0022   -1.1179 H   0  0  0  0  0  0  0  0  0  0  0  0
    2.9116    0.4881    0.0995 H   0  0  0  0  0  0  0  0  0  0  0  0
    1.3413   -0.4097    1.5824 H   0  0  0  0  0  0  0  0  0  0  0  0
    0.1259    1.5412    1.8046 H   0  0  0  0  0  0  0  0  0  0  0  0
    0.1389    1.7419   -0.0349 H   0  0  0  0  0  0  0  0  0  0  0  0
   -2.2158    0.7784    0.9195 H   0  0  0  0  0  0  0  0  0  0  0  0
    0.1794   -2.0849   -0.0879 H   0  0  0  0  0  0  0  0  0  0  0  0
   -0.7140    0.3531   -1.3920 H   0  0  0  0  0  0  0  0  0  0  0  0
   -2.9671   -0.5691   -1.1107 H   0  0  0  0  0  0  0  0  0  0  0  0
  1  2  1  0
  2  3  1  0
  3  4  1  0
  4  5  1  0
  5  6  1  0
  6  7  1  0
  7  8  1  0
  6  2  1  0
  7  4  1  0
  1  9  1  0
  1 10  1  0
  1 11  1  0
  2 12  1  0
  3 13  1  0
  3 14  1  0
  4 15  1  0
  6 16  1  0
  7 17  1  0
  8 18  1  0
M  END
