
     RDKit          3D

 23 24  0  0  0  0  0  0  0  0999 V2000
   -2.1832    1.3798   -0.5111 C   0  0  0  0  0  0  0  0  0  0  0  0
   -1.7430   -0.0562   -0.4018 C   0  0  0  0  0  0  0  0  0  0  0  0
   -1.2895   -0.4278    1.0142 C   0  0  0  0  0  0  0  0  0  0  0  0
   -0.3586   -0.4555   -0.1684 C   0  0  0  0  0  0  0  0  0  0  0  0
   -0.0047   -1.8860   -0.6020 C   0  0  0  0  0  0  0  0  0  0  0  0
    0.8110    0.4579   -0.2393 C   0  0  0  0  0  0  0  0  0  0  0  0
    2.1106   -0.2648    0.0545 C   0  0  0  0  0  0  0  0  0  0  0  0
    2.3806    1.0632    0.7555 C   0  0  0  0  0  0  0  0  0  0  0  0
    1.0198    1.3256    0.7966 O   0  0  0  0  0  0  0  0  0  0  0  0
   -2.6865    1.6039   -1.4726 H   0  0  0  0  0  0  0  0  0  0  0  0
   -2.9858    1.5220    0.2731 H   0  0  0  0  0  0  0  0  0  0  0  0
   -1.4014    2.1073   -0.2630 H   0  0  0  0  0  0  0  0  0  0  0  0
   -2.4253   -0.7616   -0.9241 H   0  0  0  0  0  0  0  0  0  0  0  0
   -1.1788    0.3566    1.7634 H   0  0  0  0  0  0  0  0  0  0  0  0
   -1.7284   -1.3739    1.3968 H   0  0  0  0  0  0  0  0  0  0  0  0
    0.3901   -2.3738    0.3136 H   0  0  0  0  0  0  0  0  0  0  0  0
    0.7515   -1.8713   -1.4055 H   0  0  0  0  0  0  0  0  0  0  0  0
   -0.8940   -2.4041   -1.0157 H   0  0  0  0  0  0  0  0  0  0  0  0
    0.8831    0.9442   -1.2329 H   0  0  0  0  0  0  0  0  0  0  0  0
    2.0211   -1.1210    0.7519 H   0  0  0  0  0  0  0  0  0  0  0  0
    2.7501   -0.4672   -0.8049 H   0  0  0  0  0  0  0  0  0  0  0  0
    2.7873    0.9363    1.7714 H   0  0  0  0  0  0  0  0  0  0  0  0
    2.9738    1.7661    0.1503 H   0  0  0  0  0  0  0  0  0  0  0  0
  1  2  1  0
  2  3  1  0
  3  4  1  0
  4  5  1  0
  4  6  1  0
  6  7  1  0
  7  8  1  0
  8  9  1  0
  4  2  1  0
  9  6  1  0
  1 10  1  0
  1 11  1  0
  1 12  1  0
  2 13  1  0
  3 14  1  0
  3 15  1  0
  5 16  1  0
  5 17  1  0
  5 18  1  0
  6 19  1  0
  7 20  1  0
  7 21  1  0
  8 22  1  0
  8 23  1  0
M  END
