
     RDKit          3D

 15 16  0  0  0  0  0  0  0  0999 V2000
    1.9527   -0.0450    0.0019 C   0  0  0  0  0  0  0  0  0  0  0  0
    0.5070    0.1246    0.3362 C   0  0  0  0  0  0  0  0  0  0  0  0
   -0.3433    0.7470   -0.7424 C   0  0  0  0  0  0  0  0  0  0  0  0
   -0.3809   -0.5148   -1.3284 O   0  0  0  0  0  0  0  0  0  0  0  0
   -0.3890   -1.0251   -0.0242 C   0  0  0  0  0  0  0  0  0  0  0  0
   -1.7114   -0.5422    0.5224 C   0  0  0  0  0  0  0  0  0  0  0  0
   -2.5636   -1.1073    1.2208 O   0  0  0  0  0  0  0  0  0  0  0  0
   -1.6759    0.8267   -0.0383 C   0  0  0  0  0  0  0  0  0  0  0  0
   -2.4920    1.7625    0.0423 O   0  0  0  0  0  0  0  0  0  0  0  0
    2.2426    0.5868   -0.8596 H   0  0  0  0  0  0  0  0  0  0  0  0
    2.5509    0.1874    0.9224 H   0  0  0  0  0  0  0  0  0  0  0  0
    2.1076   -1.1087   -0.2886 H   0  0  0  0  0  0  0  0  0  0  0  0
    0.3028    0.5441    1.3600 H   0  0  0  0  0  0  0  0  0  0  0  0
   -0.0047    1.5855   -1.2809 H   0  0  0  0  0  0  0  0  0  0  0  0
   -0.1029   -2.0214    0.1565 H   0  0  0  0  0  0  0  0  0  0  0  0
  1  2  1  0
  2  3  1  0
  3  4  1  0
  4  5  1  0
  5  6  1  0
  6  7  2  0
  6  8  1  0
  8  9  2  0
  5  2  1  0
  8  3  1  0
  1 10  1  0
  1 11  1  0
  1 12  1  0
  2 13  1  0
  3 14  1  0
  5 15  1  0
M  END
