
     RDKit          3D

 21 22  0  0  0  0  0  0  0  0999 V2000
    1.9764   -0.3618   -0.6944 C   0  0  0  0  0  0  0  0  0  0  0  0
    1.0355   -0.0355    0.3942 C   0  0  0  0  0  0  0  0  0  0  0  0
   -0.0642   -1.0109    0.6796 C   0  0  0  0  0  0  0  0  0  0  0  0
   -0.6975   -1.2354   -0.6700 C   0  0  0  0  0  0  0  0  0  0  0  0
   -0.8278    0.2367   -1.1159 C   0  0  0  0  0  0  0  0  0  0  0  0
   -0.1280    0.8917    0.0206 C   0  0  0  0  0  0  0  0  0  0  0  0
    0.0720    2.2038    0.0624 O   0  0  0  0  0  0  0  0  0  0  0  0
   -0.7994    0.2224    1.2296 C   0  0  0  0  0  0  0  0  0  0  0  0
   -2.1618    0.1471    1.1665 O   0  0  0  0  0  0  0  0  0  0  0  0
    2.8286    0.3612   -0.6517 H   0  0  0  0  0  0  0  0  0  0  0  0
    2.4300   -1.3640   -0.5959 H   0  0  0  0  0  0  0  0  0  0  0  0
    1.5041   -0.2110   -1.6799 H   0  0  0  0  0  0  0  0  0  0  0  0
    1.4725    0.3476    1.3536 H   0  0  0  0  0  0  0  0  0  0  0  0
    0.0878   -1.8252    1.3400 H   0  0  0  0  0  0  0  0  0  0  0  0
   -1.6905   -1.6823   -0.6136 H   0  0  0  0  0  0  0  0  0  0  0  0
   -0.0305   -1.7149   -1.3998 H   0  0  0  0  0  0  0  0  0  0  0  0
   -0.3950    0.4006   -2.1030 H   0  0  0  0  0  0  0  0  0  0  0  0
   -1.9117    0.5295   -1.0717 H   0  0  0  0  0  0  0  0  0  0  0  0
    0.2126    2.5115    0.9856 H   0  0  0  0  0  0  0  0  0  0  0  0
   -0.3424    0.5664    2.1615 H   0  0  0  0  0  0  0  0  0  0  0  0
   -2.5705    1.0227    1.2027 H   0  0  0  0  0  0  0  0  0  0  0  0
  1  2  1  0
  2  3  1  0
  3  4  1  0
  4  5  1  0
  5  6  1  0
  6  7  1  0
  6  8  1  0
  8  9  1  0
  6  2  1  0
  8  3  1  0
  1 10  1  0
  1 11  1  0
  1 12  1  0
  2 13  1  0
  3 14  1  0
  4 15  1  0
  4 16  1  0
  5 17  1  0
  5 18  1  0
  7 19  1  0
  8 20  1  0
  9 21  1  0
M  END
