
     RDKit          3D

 23 24  0  0  0  0  0  0  0  0999 V2000
   -3.2612    0.5952   -0.1309 C   0  0  0  0  0  0  0  0  0  0  0  0
   -2.1265   -0.2842    0.3660 C   0  0  0  0  0  0  0  0  0  0  0  0
   -1.5388   -1.1726   -0.6964 C   0  0  0  0  0  0  0  0  0  0  0  0
   -0.7701   -0.0058   -0.0903 C   0  0  0  0  0  0  0  0  0  0  0  0
    0.4511   -0.4130    0.6819 C   0  0  0  0  0  0  0  0  0  0  0  0
    1.7317    0.0166   -0.0492 C   0  0  0  0  0  0  0  0  0  0  0  0
    1.9305   -0.5005   -1.3263 O   0  0  0  0  0  0  0  0  0  0  0  0
    2.3126    1.3501    0.2113 C   0  0  0  0  0  0  0  0  0  0  0  0
    2.9536    0.1542    0.8489 C   0  0  0  0  0  0  0  0  0  0  0  0
   -4.2250    0.2965    0.3576 H   0  0  0  0  0  0  0  0  0  0  0  0
   -3.0144    1.6598    0.0387 H   0  0  0  0  0  0  0  0  0  0  0  0
   -3.4379    0.4735   -1.2214 H   0  0  0  0  0  0  0  0  0  0  0  0
   -2.3536   -0.7787    1.3396 H   0  0  0  0  0  0  0  0  0  0  0  0
   -1.2641   -2.1969   -0.3958 H   0  0  0  0  0  0  0  0  0  0  0  0
   -1.8001   -1.0201   -1.7601 H   0  0  0  0  0  0  0  0  0  0  0  0
   -0.6235    0.9016   -0.7090 H   0  0  0  0  0  0  0  0  0  0  0  0
    0.5305   -1.5163    0.7735 H   0  0  0  0  0  0  0  0  0  0  0  0
    0.4573   -0.0209    1.7186 H   0  0  0  0  0  0  0  0  0  0  0  0
    2.6740   -1.1547   -1.2500 H   0  0  0  0  0  0  0  0  0  0  0  0
    1.7309    2.0261    0.8661 H   0  0  0  0  0  0  0  0  0  0  0  0
    2.9039    1.8266   -0.5839 H   0  0  0  0  0  0  0  0  0  0  0  0
    3.9205   -0.2381    0.4697 H   0  0  0  0  0  0  0  0  0  0  0  0
    2.8187    0.0017    1.9491 H   0  0  0  0  0  0  0  0  0  0  0  0
  1  2  1  0
  2  3  1  0
  3  4  1  0
  4  5  1  0
  5  6  1  0
  6  7  1  0
  6  8  1  0
  8  9  1  0
  4  2  1  0
  9  6  1  0
  1 10  1  0
  1 11  1  0
  1 12  1  0
  2 13  1  0
  3 14  1  0
  3 15  1  0
  4 16  1  0
  5 17  1  0
  5 18  1  0
  7 19  1  0
  8 20  1  0
  8 21  1  0
  9 22  1  0
  9 23  1  0
M  END
