
     RDKit          3D

 21 22  0  0  0  0  0  0  0  0999 V2000
    2.4650   -0.2518    0.4107 C   0  0  0  0  0  0  0  0  0  0  0  0
    1.2047    0.1057   -0.3619 C   0  0  0  0  0  0  0  0  0  0  0  0
    0.5654   -1.1945   -0.7390 C   0  0  0  0  0  0  0  0  0  0  0  0
   -0.7448   -1.4072   -0.7574 C   0  0  0  0  0  0  0  0  0  0  0  0
   -1.7249   -0.3291   -0.3906 C   0  0  0  0  0  0  0  0  0  0  0  0
   -2.8452   -0.4336   -1.2072 O   0  0  0  0  0  0  0  0  0  0  0  0
   -0.9846    0.9331   -0.5922 C   0  0  0  0  0  0  0  0  0  0  0  0
   -0.5753    1.9736    0.2826 C   0  0  0  0  0  0  0  0  0  0  0  0
    0.1936    0.8040    0.4439 C   0  0  0  0  0  0  0  0  0  0  0  0
    2.1205   -0.6738    1.3780 H   0  0  0  0  0  0  0  0  0  0  0  0
    3.0107   -1.0000   -0.2122 H   0  0  0  0  0  0  0  0  0  0  0  0
    3.0230    0.6785    0.5666 H   0  0  0  0  0  0  0  0  0  0  0  0
    1.4784    0.6585   -1.2939 H   0  0  0  0  0  0  0  0  0  0  0  0
    1.1833   -2.0604   -1.0276 H   0  0  0  0  0  0  0  0  0  0  0  0
   -1.1682   -2.3813   -1.0419 H   0  0  0  0  0  0  0  0  0  0  0  0
   -1.9546   -0.4509    0.6807 H   0  0  0  0  0  0  0  0  0  0  0  0
   -3.1279   -1.3798   -1.2446 H   0  0  0  0  0  0  0  0  0  0  0  0
   -0.6916    1.0586   -1.6698 H   0  0  0  0  0  0  0  0  0  0  0  0
   -0.1084    2.8876   -0.1404 H   0  0  0  0  0  0  0  0  0  0  0  0
   -1.2866    2.2760    1.1026 H   0  0  0  0  0  0  0  0  0  0  0  0
   -0.0326    0.1869    1.3683 H   0  0  0  0  0  0  0  0  0  0  0  0
  1  2  1  0
  2  3  1  0
  3  4  2  0
  4  5  1  0
  5  6  1  0
  5  7  1  0
  7  8  1  0
  8  9  1  0
  9  2  1  0
  9  7  1  0
  1 10  1  0
  1 11  1  0
  1 12  1  0
  2 13  1  0
  3 14  1  0
  4 15  1  0
  5 16  1  0
  6 17  1  0
  7 18  1  0
  8 19  1  0
  8 20  1  0
  9 21  1  0
M  END
