
     RDKit          3D

 21 21  0  0  0  0  0  0  0  0999 V2000
    1.9462   -0.1814    0.8057 C   0  0  0  0  0  0  0  0  0  0  0  0
    1.1155   -0.4535   -0.4303 C   0  0  0  0  0  0  0  0  0  0  0  0
    0.5689    0.8706   -0.9173 C   0  0  0  0  0  0  0  0  0  0  0  0
   -0.2352    1.5702    0.1436 C   0  0  0  0  0  0  0  0  0  0  0  0
   -0.8907    0.7144    0.9935 O   0  0  0  0  0  0  0  0  0  0  0  0
   -1.9089    0.0014    0.4158 C   0  0  0  0  0  0  0  0  0  0  0  0
   -1.4289   -1.2213   -0.3471 C   0  0  0  0  0  0  0  0  0  0  0  0
    0.0258   -1.3854   -0.0974 C   0  0  0  0  0  0  0  0  0  0  0  0
    0.3446   -2.4216    0.4504 O   0  0  0  0  0  0  0  0  0  0  0  0
    2.3339   -1.1590    1.2090 H   0  0  0  0  0  0  0  0  0  0  0  0
    1.3327    0.2856    1.5734 H   0  0  0  0  0  0  0  0  0  0  0  0
    2.7698    0.5169    0.5610 H   0  0  0  0  0  0  0  0  0  0  0  0
    1.7611   -0.8462   -1.2431 H   0  0  0  0  0  0  0  0  0  0  0  0
   -0.0765    0.6285   -1.8020 H   0  0  0  0  0  0  0  0  0  0  0  0
    1.4026    1.4778   -1.2930 H   0  0  0  0  0  0  0  0  0  0  0  0
   -0.8878    2.3303   -0.3168 H   0  0  0  0  0  0  0  0  0  0  0  0
    0.5015    2.1475    0.7679 H   0  0  0  0  0  0  0  0  0  0  0  0
   -2.5893    0.6301   -0.1850 H   0  0  0  0  0  0  0  0  0  0  0  0
   -2.5367   -0.4086    1.2609 H   0  0  0  0  0  0  0  0  0  0  0  0
   -1.5374   -0.9785   -1.4367 H   0  0  0  0  0  0  0  0  0  0  0  0
   -2.0110   -2.1178   -0.1127 H   0  0  0  0  0  0  0  0  0  0  0  0
  1  2  1  0
  2  3  1  0
  3  4  1  0
  4  5  1  0
  5  6  1  0
  6  7  1  0
  7  8  1  0
  8  9  2  0
  8  2  1  0
  1 10  1  0
  1 11  1  0
  1 12  1  0
  2 13  1  0
  3 14  1  0
  3 15  1  0
  4 16  1  0
  4 17  1  0
  6 18  1  0
  6 19  1  0
  7 20  1  0
  7 21  1  0
M  END
