
     RDKit          3D

 21 22  0  0  0  0  0  0  0  0999 V2000
   -2.4272   -0.0941   -0.8302 C   0  0  0  0  0  0  0  0  0  0  0  0
   -1.5711   -0.6334    0.2924 C   0  0  0  0  0  0  0  0  0  0  0  0
   -0.9202    0.4798    1.1189 C   0  0  0  0  0  0  0  0  0  0  0  0
   -0.1339   -0.3827    0.2048 C   0  0  0  0  0  0  0  0  0  0  0  0
    0.8988   -1.1948    0.8385 C   0  0  0  0  0  0  0  0  0  0  0  0
    2.0739   -0.7129    0.4923 C   0  0  0  0  0  0  0  0  0  0  0  0
    1.9160    0.4776   -0.4156 C   0  0  0  0  0  0  0  0  0  0  0  0
    1.7834    1.6545    0.2696 O   0  0  0  0  0  0  0  0  0  0  0  0
    0.5311    0.1603   -1.0171 C   0  0  0  0  0  0  0  0  0  0  0  0
   -1.9411    0.8240   -1.2207 H   0  0  0  0  0  0  0  0  0  0  0  0
   -2.5874   -0.8003   -1.6462 H   0  0  0  0  0  0  0  0  0  0  0  0
   -3.3831    0.2587   -0.3603 H   0  0  0  0  0  0  0  0  0  0  0  0
   -1.9861   -1.4794    0.8599 H   0  0  0  0  0  0  0  0  0  0  0  0
   -0.8545    0.2721    2.2274 H   0  0  0  0  0  0  0  0  0  0  0  0
   -1.1537    1.5179    0.9045 H   0  0  0  0  0  0  0  0  0  0  0  0
    0.7496   -2.0441    1.4805 H   0  0  0  0  0  0  0  0  0  0  0  0
    3.0807   -1.0555    0.7703 H   0  0  0  0  0  0  0  0  0  0  0  0
    2.6912    0.5237   -1.1762 H   0  0  0  0  0  0  0  0  0  0  0  0
    2.4583    1.8527    0.9333 H   0  0  0  0  0  0  0  0  0  0  0  0
    0.0738    1.0417   -1.4528 H   0  0  0  0  0  0  0  0  0  0  0  0
    0.7016   -0.6659   -1.7179 H   0  0  0  0  0  0  0  0  0  0  0  0
  1  2  1  0
  2  3  1  0
  3  4  1  0
  4  5  1  0
  5  6  2  0
  6  7  1  0
  7  8  1  0
  7  9  1  0
  4  2  1  0
  9  4  1  0
  1 10  1  0
  1 11  1  0
  1 12  1  0
  2 13  1  0
  3 14  1  0
  3 15  1  0
  5 16  1  0
  6 17  1  0
  7 18  1  0
  8 19  1  0
  9 20  1  0
  9 21  1  0
M  END
