
     RDKit          3D

 23 23  0  0  0  0  0  0  0  0999 V2000
   -1.4753   -1.3669    0.3998 C   0  0  0  0  0  0  0  0  0  0  0  0
   -1.1792   -0.3051   -0.6008 C   0  0  0  0  0  0  0  0  0  0  0  0
   -2.0867    0.8682   -0.3426 C   0  0  0  0  0  0  0  0  0  0  0  0
   -1.2777    1.8156    0.4461 C   0  0  0  0  0  0  0  0  0  0  0  0
    0.0206    1.4886    0.3818 C   0  0  0  0  0  0  0  0  0  0  0  0
    0.2021    0.2968   -0.4522 C   0  0  0  0  0  0  0  0  0  0  0  0
    1.1818   -0.6335    0.1591 C   0  0  0  0  0  0  0  0  0  0  0  0
    2.5274    0.0355    0.2566 C   0  0  0  0  0  0  0  0  0  0  0  0
    3.4717   -0.8323    0.8249 O   0  0  0  0  0  0  0  0  0  0  0  0
   -1.1237   -1.1548    1.4129 H   0  0  0  0  0  0  0  0  0  0  0  0
   -2.5991   -1.4463    0.4754 H   0  0  0  0  0  0  0  0  0  0  0  0
   -1.1495   -2.3650    0.0266 H   0  0  0  0  0  0  0  0  0  0  0  0
   -1.3383   -0.7329   -1.6181 H   0  0  0  0  0  0  0  0  0  0  0  0
   -2.4117    1.2820   -1.3071 H   0  0  0  0  0  0  0  0  0  0  0  0
   -2.9639    0.5837    0.2993 H   0  0  0  0  0  0  0  0  0  0  0  0
   -1.6724    2.6475    0.9930 H   0  0  0  0  0  0  0  0  0  0  0  0
    0.7986    2.0496    0.8857 H   0  0  0  0  0  0  0  0  0  0  0  0
    0.5777    0.5836   -1.4561 H   0  0  0  0  0  0  0  0  0  0  0  0
    0.9113   -0.9234    1.2164 H   0  0  0  0  0  0  0  0  0  0  0  0
    1.3329   -1.5685   -0.4183 H   0  0  0  0  0  0  0  0  0  0  0  0
    2.8196    0.3087   -0.7976 H   0  0  0  0  0  0  0  0  0  0  0  0
    2.4547    0.9762    0.8025 H   0  0  0  0  0  0  0  0  0  0  0  0
    2.9791   -1.6072    1.1805 H   0  0  0  0  0  0  0  0  0  0  0  0
  1  2  1  0
  2  3  1  0
  3  4  1  0
  4  5  2  0
  5  6  1  0
  6  7  1  0
  7  8  1  0
  8  9  1  0
  6  2  1  0
  1 10  1  0
  1 11  1  0
  1 12  1  0
  2 13  1  0
  3 14  1  0
  3 15  1  0
  4 16  1  0
  5 17  1  0
  6 18  1  0
  7 19  1  0
  7 20  1  0
  8 21  1  0
  8 22  1  0
  9 23  1  0
M  END
