
     RDKit          3D

 18 19  0  0  0  0  0  0  0  0999 V2000
   -1.2857   -1.1396    0.6007 C   0  0  0  0  0  0  0  0  0  0  0  0
   -0.9870    0.1581    0.0345 C   0  0  0  0  0  0  0  0  0  0  0  0
   -0.2407    0.2002   -1.3039 C   0  0  0  0  0  0  0  0  0  0  0  0
   -0.0046    1.6210   -0.9064 C   0  0  0  0  0  0  0  0  0  0  0  0
    0.5421    2.1657    0.1625 O   0  0  0  0  0  0  0  0  0  0  0  0
    0.2584    0.8960    0.4467 C   0  0  0  0  0  0  0  0  0  0  0  0
    1.5408    0.1485    0.6154 C   0  0  0  0  0  0  0  0  0  0  0  0
    1.4238   -1.1839    0.9137 O   0  0  0  0  0  0  0  0  0  0  0  0
   -2.3823   -1.3494    0.4868 H   0  0  0  0  0  0  0  0  0  0  0  0
   -1.1096   -1.1308    1.6967 H   0  0  0  0  0  0  0  0  0  0  0  0
   -0.7676   -2.0203    0.2033 H   0  0  0  0  0  0  0  0  0  0  0  0
   -1.8459    0.8388    0.0279 H   0  0  0  0  0  0  0  0  0  0  0  0
   -0.9486    0.0414   -2.1115 H   0  0  0  0  0  0  0  0  0  0  0  0
    0.6172   -0.4574   -1.3787 H   0  0  0  0  0  0  0  0  0  0  0  0
   -1.0158    2.1428   -0.9750 H   0  0  0  0  0  0  0  0  0  0  0  0
    2.2347    0.2322   -0.2515 H   0  0  0  0  0  0  0  0  0  0  0  0
    2.0774    0.6267    1.4654 H   0  0  0  0  0  0  0  0  0  0  0  0
    1.8935   -1.7900    0.2735 H   0  0  0  0  0  0  0  0  0  0  0  0
  1  2  1  0
  2  3  1  0
  3  4  1  0
  4  5  1  0
  5  6  1  0
  6  7  1  0
  7  8  1  0
  6  2  1  0
  6  4  1  0
  1  9  1  0
  1 10  1  0
  1 11  1  0
  2 12  1  0
  3 13  1  0
  3 14  1  0
  4 15  1  0
  7 16  1  0
  7 17  1  0
  8 18  1  0
M  END
