
     RDKit          3D

 22 23  0  0  0  0  0  0  0  0999 V2000
   -2.4364    0.2795    0.5045 C   0  0  0  0  0  0  0  0  0  0  0  0
   -1.2306   -0.5692    0.3332 C   0  0  0  0  0  0  0  0  0  0  0  0
   -0.9359   -1.0390   -1.0584 C   0  0  0  0  0  0  0  0  0  0  0  0
    0.4995   -0.6531   -0.9560 C   0  0  0  0  0  0  0  0  0  0  0  0
    1.2763   -0.7678    0.2966 C   0  0  0  0  0  0  0  0  0  0  0  0
    2.6663   -0.2317    0.3030 C   0  0  0  0  0  0  0  0  0  0  0  0
    0.1043    0.1318    0.3341 C   0  0  0  0  0  0  0  0  0  0  0  0
    0.2008    1.6056    0.1805 C   0  0  0  0  0  0  0  0  0  0  0  0
   -3.3264   -0.3328    0.1744 H   0  0  0  0  0  0  0  0  0  0  0  0
   -2.4398    1.1844   -0.1024 H   0  0  0  0  0  0  0  0  0  0  0  0
   -2.6029    0.4931    1.5654 H   0  0  0  0  0  0  0  0  0  0  0  0
   -1.2504   -1.4429    1.0263 H   0  0  0  0  0  0  0  0  0  0  0  0
   -1.1481   -2.0902   -1.2844 H   0  0  0  0  0  0  0  0  0  0  0  0
   -1.4650   -0.3610   -1.7903 H   0  0  0  0  0  0  0  0  0  0  0  0
    0.9531   -0.0895   -1.7657 H   0  0  0  0  0  0  0  0  0  0  0  0
    1.1615   -1.7385    0.8336 H   0  0  0  0  0  0  0  0  0  0  0  0
    2.9732   -0.0830    1.3782 H   0  0  0  0  0  0  0  0  0  0  0  0
    3.3671   -1.0194   -0.0742 H   0  0  0  0  0  0  0  0  0  0  0  0
    2.8100    0.6847   -0.2656 H   0  0  0  0  0  0  0  0  0  0  0  0
   -0.6244    2.0666   -0.4017 H   0  0  0  0  0  0  0  0  0  0  0  0
    0.3116    2.1005    1.1616 H   0  0  0  0  0  0  0  0  0  0  0  0
    1.1364    1.8720   -0.3926 H   0  0  0  0  0  0  0  0  0  0  0  0
  1  2  1  0
  2  3  1  0
  3  4  1  0
  4  5  1  0
  5  6  1  0
  5  7  1  0
  7  8  1  0
  7  2  1  0
  7  4  1  0
  1  9  1  0
  1 10  1  0
  1 11  1  0
  2 12  1  0
  3 13  1  0
  3 14  1  0
  4 15  1  0
  5 16  1  0
  6 17  1  0
  6 18  1  0
  6 19  1  0
  8 20  1  0
  8 21  1  0
  8 22  1  0
M  END
