
     RDKit          3D

 21 23  0  0  0  0  0  0  0  0999 V2000
    2.2521    0.4954    0.0583 C   0  0  0  0  0  0  0  0  0  0  0  0
    0.9846   -0.2584    0.2600 C   0  0  0  0  0  0  0  0  0  0  0  0
    0.2802   -0.5756   -1.0668 C   0  0  0  0  0  0  0  0  0  0  0  0
   -1.1408   -0.1027   -0.8159 C   0  0  0  0  0  0  0  0  0  0  0  0
   -0.8421    1.1767   -0.0136 C   0  0  0  0  0  0  0  0  0  0  0  0
   -0.0375    0.4516    1.0772 C   0  0  0  0  0  0  0  0  0  0  0  0
   -1.0754   -0.5891    1.5024 C   0  0  0  0  0  0  0  0  0  0  0  0
   -2.3923   -0.2345    1.3509 O   0  0  0  0  0  0  0  0  0  0  0  0
   -1.7372   -0.9563    0.2446 C   0  0  0  0  0  0  0  0  0  0  0  0
    2.0853    1.5959    0.0918 H   0  0  0  0  0  0  0  0  0  0  0  0
    2.7916    0.1947   -0.8567 H   0  0  0  0  0  0  0  0  0  0  0  0
    2.9486    0.2574    0.9072 H   0  0  0  0  0  0  0  0  0  0  0  0
    1.2403   -1.2125    0.7883 H   0  0  0  0  0  0  0  0  0  0  0  0
    0.3033   -1.6601   -1.2185 H   0  0  0  0  0  0  0  0  0  0  0  0
    0.7818   -0.0244   -1.8719 H   0  0  0  0  0  0  0  0  0  0  0  0
   -1.7236    0.0736   -1.6987 H   0  0  0  0  0  0  0  0  0  0  0  0
   -0.2172    1.8739   -0.5762 H   0  0  0  0  0  0  0  0  0  0  0  0
   -1.7756    1.5966    0.3842 H   0  0  0  0  0  0  0  0  0  0  0  0
    0.3031    1.0876    1.8623 H   0  0  0  0  0  0  0  0  0  0  0  0
   -0.7520   -1.3187    2.2576 H   0  0  0  0  0  0  0  0  0  0  0  0
   -2.2772   -1.8710    0.0564 H   0  0  0  0  0  0  0  0  0  0  0  0
  1  2  1  0
  2  3  1  0
  3  4  1  0
  4  5  1  0
  5  6  1  0
  6  7  1  0
  7  8  1  0
  8  9  1  0
  6  2  1  0
  9  7  1  0
  9  4  1  0
  1 10  1  0
  1 11  1  0
  1 12  1  0
  2 13  1  0
  3 14  1  0
  3 15  1  0
  4 16  1  0
  5 17  1  0
  5 18  1  0
  6 19  1  0
  7 20  1  0
  9 21  1  0
M  END
