
     RDKit          3D

 21 22  0  0  0  0  0  0  0  0999 V2000
   -2.6028    0.5161    0.6983 C   0  0  0  0  0  0  0  0  0  0  0  0
   -1.8935   -0.7053    0.2041 C   0  0  0  0  0  0  0  0  0  0  0  0
   -1.3861   -0.3883   -1.1807 C   0  0  0  0  0  0  0  0  0  0  0  0
   -0.1306   -0.0033   -1.1146 C   0  0  0  0  0  0  0  0  0  0  0  0
    1.2661    0.4510   -1.2727 C   0  0  0  0  0  0  0  0  0  0  0  0
    1.5518   -0.4891   -0.0712 C   0  0  0  0  0  0  0  0  0  0  0  0
    2.7112   -0.0397    0.7565 C   0  0  0  0  0  0  0  0  0  0  0  0
    0.1977   -0.0103    0.3808 C   0  0  0  0  0  0  0  0  0  0  0  0
   -0.6895   -0.9536    0.8887 O   0  0  0  0  0  0  0  0  0  0  0  0
   -3.4110    0.1842    1.3847 H   0  0  0  0  0  0  0  0  0  0  0  0
   -3.0646    1.1158   -0.1364 H   0  0  0  0  0  0  0  0  0  0  0  0
   -1.8775    1.1815    1.1867 H   0  0  0  0  0  0  0  0  0  0  0  0
   -2.4881   -1.6143    0.2435 H   0  0  0  0  0  0  0  0  0  0  0  0
   -2.0154   -0.4851   -2.0558 H   0  0  0  0  0  0  0  0  0  0  0  0
    1.4049    1.5129   -1.0327 H   0  0  0  0  0  0  0  0  0  0  0  0
    1.8024    0.0765   -2.1633 H   0  0  0  0  0  0  0  0  0  0  0  0
    1.5501   -1.5187   -0.4364 H   0  0  0  0  0  0  0  0  0  0  0  0
    3.6268   -0.5027    0.3588 H   0  0  0  0  0  0  0  0  0  0  0  0
    2.5132   -0.3807    1.8102 H   0  0  0  0  0  0  0  0  0  0  0  0
    2.7511    1.0741    0.7174 H   0  0  0  0  0  0  0  0  0  0  0  0
    0.1838    0.9791    0.8342 H   0  0  0  0  0  0  0  0  0  0  0  0
  1  2  1  0
  2  3  1  0
  3  4  2  0
  4  5  1  0
  5  6  1  0
  6  7  1  0
  6  8  1  0
  8  9  1  0
  9  2  1  0
  8  4  1  0
  1 10  1  0
  1 11  1  0
  1 12  1  0
  2 13  1  0
  3 14  1  0
  5 15  1  0
  5 16  1  0
  6 17  1  0
  7 18  1  0
  7 19  1  0
  7 20  1  0
  8 21  1  0
M  END
