
     RDKit          3D

 19 20  0  0  0  0  0  0  0  0999 V2000
    2.0606   -0.6217    0.4103 C   0  0  0  0  0  0  0  0  0  0  0  0
    0.9897    0.4100    0.7610 C   0  0  0  0  0  0  0  0  0  0  0  0
    0.6852    1.3521   -0.4042 C   0  0  0  0  0  0  0  0  0  0  0  0
   -0.2763    0.3472    0.0265 C   0  0  0  0  0  0  0  0  0  0  0  0
   -1.5894    0.7711    0.6217 C   0  0  0  0  0  0  0  0  0  0  0  0
   -2.5181    0.2102   -0.2988 O   0  0  0  0  0  0  0  0  0  0  0  0
   -2.0419   -0.9774   -0.7991 C   0  0  0  0  0  0  0  0  0  0  0  0
   -2.7154   -1.9464   -1.2385 O   0  0  0  0  0  0  0  0  0  0  0  0
   -0.5713   -0.9104   -0.7269 C   0  0  0  0  0  0  0  0  0  0  0  0
    2.9193   -0.0515   -0.0498 H   0  0  0  0  0  0  0  0  0  0  0  0
    1.7153   -1.3032   -0.4029 H   0  0  0  0  0  0  0  0  0  0  0  0
    2.3902   -1.1916    1.3002 H   0  0  0  0  0  0  0  0  0  0  0  0
    1.0065    0.8149    1.7799 H   0  0  0  0  0  0  0  0  0  0  0  0
    0.4498    2.4199   -0.1323 H   0  0  0  0  0  0  0  0  0  0  0  0
    1.2637    1.2681   -1.3285 H   0  0  0  0  0  0  0  0  0  0  0  0
   -1.6703    1.8778    0.6618 H   0  0  0  0  0  0  0  0  0  0  0  0
   -1.7801    0.2842    1.5905 H   0  0  0  0  0  0  0  0  0  0  0  0
   -0.0691   -0.9826   -1.7005 H   0  0  0  0  0  0  0  0  0  0  0  0
   -0.2484   -1.7707   -0.0703 H   0  0  0  0  0  0  0  0  0  0  0  0
  1  2  1  0
  2  3  1  0
  3  4  1  0
  4  5  1  0
  5  6  1  0
  6  7  1  0
  7  8  2  0
  7  9  1  0
  4  2  1  0
  9  4  1  0
  1 10  1  0
  1 11  1  0
  1 12  1  0
  2 13  1  0
  3 14  1  0
  3 15  1  0
  5 16  1  0
  5 17  1  0
  9 18  1  0
  9 19  1  0
M  END
