
     RDKit          3D

 18 19  0  0  0  0  0  0  0  0999 V2000
    2.2008   -0.2833    0.3460 C   0  0  0  0  0  0  0  0  0  0  0  0
    0.9705    0.1181   -0.4214 C   0  0  0  0  0  0  0  0  0  0  0  0
    0.1289    0.9899    0.4817 C   0  0  0  0  0  0  0  0  0  0  0  0
   -1.2903    0.8078    0.0590 C   0  0  0  0  0  0  0  0  0  0  0  0
   -2.1011   -0.3472    0.4314 C   0  0  0  0  0  0  0  0  0  0  0  0
   -1.3102   -0.3953   -0.8131 C   0  0  0  0  0  0  0  0  0  0  0  0
    0.0602   -1.0176   -0.6929 C   0  0  0  0  0  0  0  0  0  0  0  0
    0.3864   -2.1710   -0.7887 O   0  0  0  0  0  0  0  0  0  0  0  0
    2.3054    0.2601    1.3145 H   0  0  0  0  0  0  0  0  0  0  0  0
    2.1929   -1.3696    0.4778 H   0  0  0  0  0  0  0  0  0  0  0  0
    3.1029   -0.0251   -0.2693 H   0  0  0  0  0  0  0  0  0  0  0  0
    1.2023    0.6445   -1.3557 H   0  0  0  0  0  0  0  0  0  0  0  0
    0.4601    2.0393    0.3067 H   0  0  0  0  0  0  0  0  0  0  0  0
    0.3226    0.7219    1.5439 H   0  0  0  0  0  0  0  0  0  0  0  0
   -1.7925    1.7022   -0.3539 H   0  0  0  0  0  0  0  0  0  0  0  0
   -3.2139   -0.2188    0.3337 H   0  0  0  0  0  0  0  0  0  0  0  0
   -1.8372   -1.0768    1.2069 H   0  0  0  0  0  0  0  0  0  0  0  0
   -1.7877   -0.3791   -1.8066 H   0  0  0  0  0  0  0  0  0  0  0  0
  1  2  1  0
  2  3  1  0
  3  4  1  0
  4  5  1  0
  5  6  1  0
  6  7  1  0
  7  8  2  0
  7  2  1  0
  6  4  1  0
  1  9  1  0
  1 10  1  0
  1 11  1  0
  2 12  1  0
  3 13  1  0
  3 14  1  0
  4 15  1  0
  5 16  1  0
  5 17  1  0
  6 18  1  0
M  END
