
     RDKit          3D

 20 21  0  0  0  0  0  0  0  0999 V2000
   -1.5113   -1.3722    0.2035 C   0  0  0  0  0  0  0  0  0  0  0  0
   -0.5945   -0.4824   -0.5934 C   0  0  0  0  0  0  0  0  0  0  0  0
   -1.3096    0.7557   -0.9848 C   0  0  0  0  0  0  0  0  0  0  0  0
   -0.8638    1.8055   -0.3220 C   0  0  0  0  0  0  0  0  0  0  0  0
    0.2189    1.4316    0.6156 C   0  0  0  0  0  0  0  0  0  0  0  0
    0.5651    0.0381    0.1674 C   0  0  0  0  0  0  0  0  0  0  0  0
    1.5530   -0.7774    0.8652 C   0  0  0  0  0  0  0  0  0  0  0  0
    1.9161   -0.2208   -0.4722 C   0  0  0  0  0  0  0  0  0  0  0  0
   -2.2859   -0.7407    0.6985 H   0  0  0  0  0  0  0  0  0  0  0  0
   -2.0546   -2.0362   -0.5081 H   0  0  0  0  0  0  0  0  0  0  0  0
   -0.9574   -2.0011    0.9377 H   0  0  0  0  0  0  0  0  0  0  0  0
   -0.2939   -1.0440   -1.5169 H   0  0  0  0  0  0  0  0  0  0  0  0
   -2.1164    0.7916   -1.7393 H   0  0  0  0  0  0  0  0  0  0  0  0
   -1.2425    2.8471   -0.4405 H   0  0  0  0  0  0  0  0  0  0  0  0
    1.0815    2.1309    0.5697 H   0  0  0  0  0  0  0  0  0  0  0  0
   -0.1819    1.3673    1.6501 H   0  0  0  0  0  0  0  0  0  0  0  0
    2.0891   -0.2912    1.7170 H   0  0  0  0  0  0  0  0  0  0  0  0
    1.4199   -1.8616    1.0155 H   0  0  0  0  0  0  0  0  0  0  0  0
    1.9806   -0.9795   -1.2945 H   0  0  0  0  0  0  0  0  0  0  0  0
    2.5877    0.6394   -0.5684 H   0  0  0  0  0  0  0  0  0  0  0  0
  1  2  1  0
  2  3  1  0
  3  4  2  0
  4  5  1  0
  5  6  1  0
  6  7  1  0
  7  8  1  0
  6  2  1  0
  8  6  1  0
  1  9  1  0
  1 10  1  0
  1 11  1  0
  2 12  1  0
  3 13  1  0
  4 14  1  0
  5 15  1  0
  5 16  1  0
  7 17  1  0
  7 18  1  0
  8 19  1  0
  8 20  1  0
M  END
