
     RDKit          3D

 19 21  0  0  0  0  0  0  0  0999 V2000
    2.4350    0.0302    0.0223 C   0  0  0  0  0  0  0  0  0  0  0  0
    0.9931    0.4567    0.2303 C   0  0  0  0  0  0  0  0  0  0  0  0
    0.0924    0.2710   -0.9156 C   0  0  0  0  0  0  0  0  0  0  0  0
   -1.1996    1.0361   -1.0092 C   0  0  0  0  0  0  0  0  0  0  0  0
   -2.2835    0.2686   -1.4108 O   0  0  0  0  0  0  0  0  0  0  0  0
   -2.1453    0.4984   -0.0576 C   0  0  0  0  0  0  0  0  0  0  0  0
   -1.3825   -0.4232    0.8240 C   0  0  0  0  0  0  0  0  0  0  0  0
   -0.0258   -0.6453    0.2267 C   0  0  0  0  0  0  0  0  0  0  0  0
    0.4658   -1.9587    0.1156 O   0  0  0  0  0  0  0  0  0  0  0  0
    2.9146    0.5690   -0.8126 H   0  0  0  0  0  0  0  0  0  0  0  0
    3.0263    0.0921    0.9691 H   0  0  0  0  0  0  0  0  0  0  0  0
    2.4648   -1.0546   -0.2628 H   0  0  0  0  0  0  0  0  0  0  0  0
    0.8016    1.3226    0.9048 H   0  0  0  0  0  0  0  0  0  0  0  0
    0.4788   -0.0928   -1.9118 H   0  0  0  0  0  0  0  0  0  0  0  0
   -1.1925    2.1264   -1.1826 H   0  0  0  0  0  0  0  0  0  0  0  0
   -2.9614    1.0729    0.3938 H   0  0  0  0  0  0  0  0  0  0  0  0
   -1.2446    0.1004    1.8147 H   0  0  0  0  0  0  0  0  0  0  0  0
   -1.8810   -1.3831    1.0236 H   0  0  0  0  0  0  0  0  0  0  0  0
    0.6441   -2.2868    1.0380 H   0  0  0  0  0  0  0  0  0  0  0  0
  1  2  1  0
  2  3  1  0
  3  4  1  0
  4  5  1  0
  5  6  1  0
  6  7  1  0
  7  8  1  0
  8  9  1  0
  8  2  1  0
  8  3  1  0
  6  4  1  0
  1 10  1  0
  1 11  1  0
  1 12  1  0
  2 13  1  0
  3 14  1  0
  4 15  1  0
  6 16  1  0
  7 17  1  0
  7 18  1  0
  9 19  1  0
M  END
