
     RDKit          3D

 19 19  0  0  0  0  0  0  0  0999 V2000
   -2.0580   -0.9707    0.3308 C   0  0  0  0  0  0  0  0  0  0  0  0
   -0.9433   -0.6098   -0.6226 C   0  0  0  0  0  0  0  0  0  0  0  0
   -0.5188    0.7806   -0.8653 C   0  0  0  0  0  0  0  0  0  0  0  0
   -0.9998    1.9330   -0.1192 C   0  0  0  0  0  0  0  0  0  0  0  0
   -1.5245    1.8780    0.9675 O   0  0  0  0  0  0  0  0  0  0  0  0
    0.3361   -0.1921    0.0090 C   0  0  0  0  0  0  0  0  0  0  0  0
    1.6744   -0.5819   -0.5712 C   0  0  0  0  0  0  0  0  0  0  0  0
    2.7446   -0.0287    0.2756 C   0  0  0  0  0  0  0  0  0  0  0  0
    3.4204   -0.8027    0.9602 O   0  0  0  0  0  0  0  0  0  0  0  0
   -2.8053   -0.1597    0.4291 H   0  0  0  0  0  0  0  0  0  0  0  0
   -2.6153   -1.8810   -0.0026 H   0  0  0  0  0  0  0  0  0  0  0  0
   -1.6734   -1.2367    1.3559 H   0  0  0  0  0  0  0  0  0  0  0  0
   -0.8392   -1.3003   -1.4804 H   0  0  0  0  0  0  0  0  0  0  0  0
   -0.0536    1.0113   -1.8442 H   0  0  0  0  0  0  0  0  0  0  0  0
   -0.8893    2.9205   -0.5541 H   0  0  0  0  0  0  0  0  0  0  0  0
    0.3698    0.0089    1.0991 H   0  0  0  0  0  0  0  0  0  0  0  0
    1.7001   -1.6742   -0.6601 H   0  0  0  0  0  0  0  0  0  0  0  0
    1.7392   -0.1348   -1.5862 H   0  0  0  0  0  0  0  0  0  0  0  0
    2.9358    1.0403    0.2984 H   0  0  0  0  0  0  0  0  0  0  0  0
  1  2  1  0
  2  3  1  0
  3  4  1  0
  4  5  2  0
  3  6  1  0
  6  7  1  0
  7  8  1  0
  8  9  2  0
  6  2  1  0
  1 10  1  0
  1 11  1  0
  1 12  1  0
  2 13  1  0
  3 14  1  0
  4 15  1  0
  6 16  1  0
  7 17  1  0
  7 18  1  0
  8 19  1  0
M  END
