
     RDKit          3D

 23 24  0  0  0  0  0  0  0  0999 V2000
    2.6506    0.2347    0.1353 C   0  0  0  0  0  0  0  0  0  0  0  0
    1.3361    0.5371   -0.6066 C   0  0  0  0  0  0  0  0  0  0  0  0
    0.4688   -0.4977   -0.9996 C   0  0  0  0  0  0  0  0  0  0  0  0
   -0.9620   -0.6291   -1.3128 C   0  0  0  0  0  0  0  0  0  0  0  0
   -1.4880   -1.0764    0.0660 C   0  0  0  0  0  0  0  0  0  0  0  0
   -0.4175   -0.5586    1.0519 C   0  0  0  0  0  0  0  0  0  0  0  0
   -1.0557   -0.0199    2.1696 O   0  0  0  0  0  0  0  0  0  0  0  0
    0.1831    0.4976    0.2005 C   0  0  0  0  0  0  0  0  0  0  0  0
   -0.8236    1.5949   -0.0764 C   0  0  0  0  0  0  0  0  0  0  0  0
    3.3682   -0.2721   -0.5090 H   0  0  0  0  0  0  0  0  0  0  0  0
    3.0614    1.2062    0.4958 H   0  0  0  0  0  0  0  0  0  0  0  0
    2.4562   -0.3677    1.0421 H   0  0  0  0  0  0  0  0  0  0  0  0
    1.5102    1.3712   -1.3161 H   0  0  0  0  0  0  0  0  0  0  0  0
    0.8467   -1.5240   -0.6926 H   0  0  0  0  0  0  0  0  0  0  0  0
   -1.1618   -1.4795   -1.9985 H   0  0  0  0  0  0  0  0  0  0  0  0
   -1.4808    0.2404   -1.6904 H   0  0  0  0  0  0  0  0  0  0  0  0
   -2.4711   -0.6627    0.2816 H   0  0  0  0  0  0  0  0  0  0  0  0
   -1.5248   -2.1869    0.1122 H   0  0  0  0  0  0  0  0  0  0  0  0
    0.2524   -1.3985    1.3030 H   0  0  0  0  0  0  0  0  0  0  0  0
   -1.5674   -0.7591    2.6186 H   0  0  0  0  0  0  0  0  0  0  0  0
   -0.6683    2.3498    0.7253 H   0  0  0  0  0  0  0  0  0  0  0  0
   -1.8791    1.2720    0.0237 H   0  0  0  0  0  0  0  0  0  0  0  0
   -0.6335    2.1283   -1.0237 H   0  0  0  0  0  0  0  0  0  0  0  0
  1  2  1  0
  2  3  1  0
  3  4  1  0
  4  5  1  0
  5  6  1  0
  6  7  1  0
  6  8  1  0
  8  9  1  0
  8  2  1  0
  8  3  1  0
  1 10  1  0
  1 11  1  0
  1 12  1  0
  2 13  1  0
  3 14  1  0
  4 15  1  0
  4 16  1  0
  5 17  1  0
  5 18  1  0
  6 19  1  0
  7 20  1  0
  9 21  1  0
  9 22  1  0
  9 23  1  0
M  END
