
     RDKit          3D

 21 22  0  0  0  0  0  0  0  0999 V2000
    1.5485   -1.5719   -0.0453 C   0  0  0  0  0  0  0  0  0  0  0  0
    0.6866   -0.4164   -0.5437 C   0  0  0  0  0  0  0  0  0  0  0  0
    1.2724    0.8787    0.0400 C   0  0  0  0  0  0  0  0  0  0  0  0
    0.2410    1.7707    0.6183 C   0  0  0  0  0  0  0  0  0  0  0  0
   -1.0550    1.7176    0.3082 C   0  0  0  0  0  0  0  0  0  0  0  0
   -1.3973    0.7010   -0.6590 C   0  0  0  0  0  0  0  0  0  0  0  0
   -1.9621   -0.5886   -0.5838 C   0  0  0  0  0  0  0  0  0  0  0  0
   -0.6728   -0.5391   -0.0108 C   0  0  0  0  0  0  0  0  0  0  0  0
   -0.6403   -0.5764    1.4066 O   0  0  0  0  0  0  0  0  0  0  0  0
    2.5832   -1.1774    0.0730 H   0  0  0  0  0  0  0  0  0  0  0  0
    1.1885   -1.7912    0.9890 H   0  0  0  0  0  0  0  0  0  0  0  0
    1.4776   -2.4571   -0.6774 H   0  0  0  0  0  0  0  0  0  0  0  0
    0.7473   -0.4161   -1.6534 H   0  0  0  0  0  0  0  0  0  0  0  0
    1.9943    0.6342    0.8432 H   0  0  0  0  0  0  0  0  0  0  0  0
    1.8445    1.3528   -0.7779 H   0  0  0  0  0  0  0  0  0  0  0  0
    0.6069    2.5112    1.3460 H   0  0  0  0  0  0  0  0  0  0  0  0
   -1.7098    2.4201    0.7956 H   0  0  0  0  0  0  0  0  0  0  0  0
   -1.0171    1.0097   -1.6829 H   0  0  0  0  0  0  0  0  0  0  0  0
   -2.8508   -0.7578    0.0638 H   0  0  0  0  0  0  0  0  0  0  0  0
   -2.0920   -1.1823   -1.5326 H   0  0  0  0  0  0  0  0  0  0  0  0
   -0.7937   -1.5215    1.6830 H   0  0  0  0  0  0  0  0  0  0  0  0
  1  2  1  0
  2  3  1  0
  3  4  1  0
  4  5  2  0
  5  6  1  0
  6  7  1  0
  7  8  1  0
  8  9  1  0
  8  2  1  0
  8  6  1  0
  1 10  1  0
  1 11  1  0
  1 12  1  0
  2 13  1  0
  3 14  1  0
  3 15  1  0
  4 16  1  0
  5 17  1  0
  6 18  1  0
  7 19  1  0
  7 20  1  0
  9 21  1  0
M  END
