
     RDKit          3D

 21 23  0  0  0  0  0  0  0  0999 V2000
   -1.7157   -1.3595    0.5742 C   0  0  0  0  0  0  0  0  0  0  0  0
   -0.6790   -0.9502   -0.4768 C   0  0  0  0  0  0  0  0  0  0  0  0
   -0.7678    0.5230   -0.8314 C   0  0  0  0  0  0  0  0  0  0  0  0
   -1.8308    1.3754   -0.2221 C   0  0  0  0  0  0  0  0  0  0  0  0
    0.3344   -0.0173   -0.0620 C   0  0  0  0  0  0  0  0  0  0  0  0
    0.6730    0.3115    1.2106 O   0  0  0  0  0  0  0  0  0  0  0  0
    1.9922    0.4789    0.8882 C   0  0  0  0  0  0  0  0  0  0  0  0
    2.7924   -0.5541    0.1957 C   0  0  0  0  0  0  0  0  0  0  0  0
    1.7139    0.0982   -0.5889 C   0  0  0  0  0  0  0  0  0  0  0  0
   -2.7524   -1.1907    0.2025 H   0  0  0  0  0  0  0  0  0  0  0  0
   -1.6264   -2.4187    0.8517 H   0  0  0  0  0  0  0  0  0  0  0  0
   -1.5921   -0.7282    1.4851 H   0  0  0  0  0  0  0  0  0  0  0  0
   -0.5966   -1.6944   -1.2855 H   0  0  0  0  0  0  0  0  0  0  0  0
   -0.5869    0.7304   -1.9122 H   0  0  0  0  0  0  0  0  0  0  0  0
   -2.0098    1.1615    0.8400 H   0  0  0  0  0  0  0  0  0  0  0  0
   -1.4693    2.4424   -0.2858 H   0  0  0  0  0  0  0  0  0  0  0  0
   -2.7676    1.3029   -0.7947 H   0  0  0  0  0  0  0  0  0  0  0  0
    2.4403    1.4465    1.0936 H   0  0  0  0  0  0  0  0  0  0  0  0
    2.6893   -1.6216    0.4619 H   0  0  0  0  0  0  0  0  0  0  0  0
    3.8258   -0.2688   -0.0579 H   0  0  0  0  0  0  0  0  0  0  0  0
    1.9332    0.9329   -1.2863 H   0  0  0  0  0  0  0  0  0  0  0  0
  1  2  1  0
  2  3  1  0
  3  4  1  0
  3  5  1  0
  5  6  1  0
  6  7  1  0
  7  8  1  0
  8  9  1  0
  5  2  1  0
  9  7  1  0
  9  5  1  0
  1 10  1  0
  1 11  1  0
  1 12  1  0
  2 13  1  0
  3 14  1  0
  4 15  1  0
  4 16  1  0
  4 17  1  0
  7 18  1  0
  8 19  1  0
  8 20  1  0
  9 21  1  0
M  END
