
     RDKit          3D

 23 23  0  0  0  0  0  0  0  0999 V2000
   -2.1472    0.0525   -0.8310 C   0  0  0  0  0  0  0  0  0  0  0  0
   -1.3420    0.1305    0.4244 C   0  0  0  0  0  0  0  0  0  0  0  0
   -0.5655    1.3737    0.4721 C   0  0  0  0  0  0  0  0  0  0  0  0
    0.7000    1.6577    0.2843 C   0  0  0  0  0  0  0  0  0  0  0  0
    1.7857    0.7290   -0.0555 C   0  0  0  0  0  0  0  0  0  0  0  0
    2.5246    0.3035    1.0381 O   0  0  0  0  0  0  0  0  0  0  0  0
    1.2434   -0.3805   -0.8863 C   0  0  0  0  0  0  0  0  0  0  0  0
    0.5452   -1.4619   -0.1398 C   0  0  0  0  0  0  0  0  0  0  0  0
   -0.5581   -1.1047    0.7325 C   0  0  0  0  0  0  0  0  0  0  0  0
   -2.3730   -0.9791   -1.1606 H   0  0  0  0  0  0  0  0  0  0  0  0
   -1.6852    0.6401   -1.6775 H   0  0  0  0  0  0  0  0  0  0  0  0
   -3.1500    0.5447   -0.6945 H   0  0  0  0  0  0  0  0  0  0  0  0
   -2.0953    0.2043    1.2687 H   0  0  0  0  0  0  0  0  0  0  0  0
   -1.1623    2.2693    0.7176 H   0  0  0  0  0  0  0  0  0  0  0  0
    0.9863    2.7121    0.3928 H   0  0  0  0  0  0  0  0  0  0  0  0
    2.5096    1.3037   -0.7064 H   0  0  0  0  0  0  0  0  0  0  0  0
    1.9942    0.0428    1.8125 H   0  0  0  0  0  0  0  0  0  0  0  0
    2.1295   -0.8689   -1.3931 H   0  0  0  0  0  0  0  0  0  0  0  0
    0.6370    0.0345   -1.6916 H   0  0  0  0  0  0  0  0  0  0  0  0
    1.3318   -2.0243    0.4457 H   0  0  0  0  0  0  0  0  0  0  0  0
    0.2163   -2.2102   -0.9083 H   0  0  0  0  0  0  0  0  0  0  0  0
   -1.3076   -1.9494    0.7599 H   0  0  0  0  0  0  0  0  0  0  0  0
   -0.2175   -1.0193    1.7961 H   0  0  0  0  0  0  0  0  0  0  0  0
  1  2  1  0
  2  3  1  0
  3  4  2  0
  4  5  1  0
  5  6  1  0
  5  7  1  0
  7  8  1  0
  8  9  1  0
  9  2  1  0
  1 10  1  0
  1 11  1  0
  1 12  1  0
  2 13  1  0
  3 14  1  0
  4 15  1  0
  5 16  1  0
  6 17  1  0
  7 18  1  0
  7 19  1  0
  8 20  1  0
  8 21  1  0
  9 22  1  0
  9 23  1  0
M  END
