
     RDKit          3D

 21 22  0  0  0  0  0  0  0  0999 V2000
   -1.3562    0.8787    0.8326 C   0  0  0  0  0  0  0  0  0  0  0  0
   -1.2320   -0.3043   -0.0709 C   0  0  0  0  0  0  0  0  0  0  0  0
   -0.2594   -1.3627    0.3394 C   0  0  0  0  0  0  0  0  0  0  0  0
    0.8249   -0.7975    1.2248 C   0  0  0  0  0  0  0  0  0  0  0  0
    1.4964    0.3332    1.0429 C   0  0  0  0  0  0  0  0  0  0  0  0
    1.3748    1.2218   -0.1388 C   0  0  0  0  0  0  0  0  0  0  0  0
    0.5048    1.1261   -1.1463 C   0  0  0  0  0  0  0  0  0  0  0  0
   -0.4352   -0.0367   -1.3547 C   0  0  0  0  0  0  0  0  0  0  0  0
    0.2460   -1.3541   -1.1106 C   0  0  0  0  0  0  0  0  0  0  0  0
   -0.8168    0.7551    1.8015 H   0  0  0  0  0  0  0  0  0  0  0  0
   -2.4480    1.0098    1.0864 H   0  0  0  0  0  0  0  0  0  0  0  0
   -0.9953    1.8355    0.3528 H   0  0  0  0  0  0  0  0  0  0  0  0
   -2.2155   -0.7885   -0.3352 H   0  0  0  0  0  0  0  0  0  0  0  0
   -0.6279   -2.3324    0.6476 H   0  0  0  0  0  0  0  0  0  0  0  0
    1.0750   -1.3935    2.1086 H   0  0  0  0  0  0  0  0  0  0  0  0
    2.1934    0.6390    1.8180 H   0  0  0  0  0  0  0  0  0  0  0  0
    2.0900    2.0562   -0.1827 H   0  0  0  0  0  0  0  0  0  0  0  0
    0.4802    1.9298   -1.8447 H   0  0  0  0  0  0  0  0  0  0  0  0
   -1.0880    0.0529   -2.2146 H   0  0  0  0  0  0  0  0  0  0  0  0
   -0.1706   -2.1368   -1.7459 H   0  0  0  0  0  0  0  0  0  0  0  0
    1.3594   -1.3316   -1.1101 H   0  0  0  0  0  0  0  0  0  0  0  0
  1  2  1  0
  2  3  1  0
  3  4  1  0
  4  5  2  0
  5  6  1  0
  6  7  2  0
  7  8  1  0
  8  9  1  0
  8  2  1  0
  9  3  1  0
  1 10  1  0
  1 11  1  0
  1 12  1  0
  2 13  1  0
  3 14  1  0
  4 15  1  0
  5 16  1  0
  6 17  1  0
  7 18  1  0
  8 19  1  0
  9 20  1  0
  9 21  1  0
M  END
