
     RDKit          3D

 23 24  0  0  0  0  0  0  0  0999 V2000
    1.8296    1.6091   -0.0122 C   0  0  0  0  0  0  0  0  0  0  0  0
    1.5856    0.1829    0.3364 C   0  0  0  0  0  0  0  0  0  0  0  0
    0.5915   -0.1603    1.4645 C   0  0  0  0  0  0  0  0  0  0  0  0
    0.3561   -0.5272    0.1038 C   0  0  0  0  0  0  0  0  0  0  0  0
    0.3242   -1.8962   -0.4811 C   0  0  0  0  0  0  0  0  0  0  0  0
   -1.1249   -1.6271   -0.8443 C   0  0  0  0  0  0  0  0  0  0  0  0
   -0.8166   -0.1309   -0.6696 C   0  0  0  0  0  0  0  0  0  0  0  0
   -1.9597    0.5638    0.0254 C   0  0  0  0  0  0  0  0  0  0  0  0
   -1.5199    1.7369    0.5863 O   0  0  0  0  0  0  0  0  0  0  0  0
    2.8639    1.8929    0.2634 H   0  0  0  0  0  0  0  0  0  0  0  0
    1.1665    2.3174    0.5405 H   0  0  0  0  0  0  0  0  0  0  0  0
    1.7529    1.7398   -1.1083 H   0  0  0  0  0  0  0  0  0  0  0  0
    2.5237   -0.4455    0.3944 H   0  0  0  0  0  0  0  0  0  0  0  0
    0.9442   -0.8365    2.2690 H   0  0  0  0  0  0  0  0  0  0  0  0
    0.1351    0.7574    1.8859 H   0  0  0  0  0  0  0  0  0  0  0  0
    0.4957   -2.7302    0.2059 H   0  0  0  0  0  0  0  0  0  0  0  0
    0.9788   -1.9443   -1.3838 H   0  0  0  0  0  0  0  0  0  0  0  0
   -1.4201   -1.8582   -1.8610 H   0  0  0  0  0  0  0  0  0  0  0  0
   -1.7726   -1.9713   -0.0183 H   0  0  0  0  0  0  0  0  0  0  0  0
   -0.5421    0.3287   -1.6413 H   0  0  0  0  0  0  0  0  0  0  0  0
   -2.4197   -0.0789    0.8043 H   0  0  0  0  0  0  0  0  0  0  0  0
   -2.7520    0.7124   -0.7424 H   0  0  0  0  0  0  0  0  0  0  0  0
   -1.2202    2.3653   -0.1172 H   0  0  0  0  0  0  0  0  0  0  0  0
  1  2  1  0
  2  3  1  0
  3  4  1  0
  4  5  1  0
  5  6  1  0
  6  7  1  0
  7  8  1  0
  8  9  1  0
  4  2  1  0
  7  4  1  0
  1 10  1  0
  1 11  1  0
  1 12  1  0
  2 13  1  0
  3 14  1  0
  3 15  1  0
  5 16  1  0
  5 17  1  0
  6 18  1  0
  6 19  1  0
  7 20  1  0
  8 21  1  0
  8 22  1  0
  9 23  1  0
M  END
