
     RDKit          3D

 19 20  0  0  0  0  0  0  0  0999 V2000
    2.0742   -0.8230   -0.1393 C   0  0  0  0  0  0  0  0  0  0  0  0
    1.2533    0.3464   -0.6638 C   0  0  0  0  0  0  0  0  0  0  0  0
    0.6260    1.1897    0.4528 C   0  0  0  0  0  0  0  0  0  0  0  0
   -0.1706    0.4323   -0.4889 C   0  0  0  0  0  0  0  0  0  0  0  0
   -1.1362    0.9692   -1.4227 C   0  0  0  0  0  0  0  0  0  0  0  0
   -1.2001    1.9432   -2.1882 O   0  0  0  0  0  0  0  0  0  0  0  0
   -1.9831   -0.0750   -1.1056 O   0  0  0  0  0  0  0  0  0  0  0  0
   -1.0885   -0.6860   -0.1531 C   0  0  0  0  0  0  0  0  0  0  0  0
   -1.7493   -0.6373    1.2043 C   0  0  0  0  0  0  0  0  0  0  0  0
    1.4702   -1.3823    0.6041 H   0  0  0  0  0  0  0  0  0  0  0  0
    2.4490   -1.4508   -0.9530 H   0  0  0  0  0  0  0  0  0  0  0  0
    2.9303   -0.3631    0.4243 H   0  0  0  0  0  0  0  0  0  0  0  0
    1.7843    0.9382   -1.4604 H   0  0  0  0  0  0  0  0  0  0  0  0
    0.7801    0.8816    1.4916 H   0  0  0  0  0  0  0  0  0  0  0  0
    0.6905    2.3027    0.3204 H   0  0  0  0  0  0  0  0  0  0  0  0
   -0.8479   -1.6891   -0.4933 H   0  0  0  0  0  0  0  0  0  0  0  0
   -2.3580    0.2980    1.3243 H   0  0  0  0  0  0  0  0  0  0  0  0
   -2.4958   -1.4778    1.2146 H   0  0  0  0  0  0  0  0  0  0  0  0
   -1.0284   -0.7169    2.0320 H   0  0  0  0  0  0  0  0  0  0  0  0
  1  2  1  0
  2  3  1  0
  3  4  1  0
  4  5  1  0
  5  6  2  0
  5  7  1  0
  7  8  1  0
  8  9  1  0
  4  2  1  0
  8  4  1  0
  1 10  1  0
  1 11  1  0
  1 12  1  0
  2 13  1  0
  3 14  1  0
  3 15  1  0
  8 16  1  0
  9 17  1  0
  9 18  1  0
  9 19  1  0
M  END
