
     RDKit          3D

 19 20  0  0  0  0  0  0  0  0999 V2000
   -2.1157   -0.2631   -0.0907 C   0  0  0  0  0  0  0  0  0  0  0  0
   -0.6996   -0.1042   -0.6565 C   0  0  0  0  0  0  0  0  0  0  0  0
   -0.3435    1.3415   -0.7350 C   0  0  0  0  0  0  0  0  0  0  0  0
    0.9322    1.7944   -0.5262 O   0  0  0  0  0  0  0  0  0  0  0  0
    0.3937    1.1835    0.5806 C   0  0  0  0  0  0  0  0  0  0  0  0
    0.2929   -0.3166    0.4699 C   0  0  0  0  0  0  0  0  0  0  0  0
   -0.1893   -0.9354    1.5931 O   0  0  0  0  0  0  0  0  0  0  0  0
    1.5972   -0.8782   -0.0703 C   0  0  0  0  0  0  0  0  0  0  0  0
    1.9859   -0.1716   -1.2082 O   0  0  0  0  0  0  0  0  0  0  0  0
   -2.1938   -1.1812    0.5192 H   0  0  0  0  0  0  0  0  0  0  0  0
   -2.8742   -0.2390   -0.8778 H   0  0  0  0  0  0  0  0  0  0  0  0
   -2.2732    0.5861    0.6231 H   0  0  0  0  0  0  0  0  0  0  0  0
   -0.5128   -0.7150   -1.5636 H   0  0  0  0  0  0  0  0  0  0  0  0
   -1.1871    2.0578   -0.8029 H   0  0  0  0  0  0  0  0  0  0  0  0
    0.0684    1.7184    1.4613 H   0  0  0  0  0  0  0  0  0  0  0  0
    0.4925   -1.4723    2.0592 H   0  0  0  0  0  0  0  0  0  0  0  0
    1.4053   -1.9359   -0.3911 H   0  0  0  0  0  0  0  0  0  0  0  0
    2.4073   -0.8366    0.6676 H   0  0  0  0  0  0  0  0  0  0  0  0
    2.8137    0.3674   -1.0517 H   0  0  0  0  0  0  0  0  0  0  0  0
  1  2  1  0
  2  3  1  0
  3  4  1  0
  4  5  1  0
  5  6  1  0
  6  7  1  0
  6  8  1  0
  8  9  1  0
  6  2  1  0
  5  3  1  0
  1 10  1  0
  1 11  1  0
  1 12  1  0
  2 13  1  0
  3 14  1  0
  5 15  1  0
  7 16  1  0
  8 17  1  0
  8 18  1  0
  9 19  1  0
M  END
