
     RDKit          3D

 19 19  0  0  0  0  0  0  0  0999 V2000
   -2.3553    0.1537    0.3024 C   0  0  0  0  0  0  0  0  0  0  0  0
   -0.9945   -0.0900   -0.3056 C   0  0  0  0  0  0  0  0  0  0  0  0
   -0.2860    1.1747   -0.6081 C   0  0  0  0  0  0  0  0  0  0  0  0
    0.9790    1.4053   -0.2875 C   0  0  0  0  0  0  0  0  0  0  0  0
    1.8607    0.4297    0.4185 C   0  0  0  0  0  0  0  0  0  0  0  0
    1.3055   -0.9712    0.3486 C   0  0  0  0  0  0  0  0  0  0  0  0
    1.6348   -1.5787   -0.8629 O   0  0  0  0  0  0  0  0  0  0  0  0
   -0.1669   -1.0053    0.4690 C   0  0  0  0  0  0  0  0  0  0  0  0
   -0.6559   -1.8112    1.2251 O   0  0  0  0  0  0  0  0  0  0  0  0
   -2.3229    0.4722    1.3476 H   0  0  0  0  0  0  0  0  0  0  0  0
   -2.9589   -0.7496    0.1358 H   0  0  0  0  0  0  0  0  0  0  0  0
   -2.8347    0.9651   -0.2938 H   0  0  0  0  0  0  0  0  0  0  0  0
   -1.2011   -0.5942   -1.2965 H   0  0  0  0  0  0  0  0  0  0  0  0
   -0.8726    1.9513   -1.1320 H   0  0  0  0  0  0  0  0  0  0  0  0
    1.3692    2.3871   -0.5758 H   0  0  0  0  0  0  0  0  0  0  0  0
    2.8680    0.4221   -0.0607 H   0  0  0  0  0  0  0  0  0  0  0  0
    1.9878    0.7850    1.4568 H   0  0  0  0  0  0  0  0  0  0  0  0
    1.7904   -1.5831    1.1394 H   0  0  0  0  0  0  0  0  0  0  0  0
    0.8534   -1.7630   -1.4201 H   0  0  0  0  0  0  0  0  0  0  0  0
  1  2  1  0
  2  3  1  0
  3  4  2  0
  4  5  1  0
  5  6  1  0
  6  7  1  0
  6  8  1  0
  8  9  2  0
  8  2  1  0
  1 10  1  0
  1 11  1  0
  1 12  1  0
  2 13  1  0
  3 14  1  0
  4 15  1  0
  5 16  1  0
  5 17  1  0
  6 18  1  0
  7 19  1  0
M  END
