
     RDKit          3D

 21 22  0  0  0  0  0  0  0  0999 V2000
    2.3736   -0.0495   -0.5470 C   0  0  0  0  0  0  0  0  0  0  0  0
    1.1752   -0.5468    0.1828 C   0  0  0  0  0  0  0  0  0  0  0  0
   -0.0364   -0.7225   -0.7296 C   0  0  0  0  0  0  0  0  0  0  0  0
   -1.1305   -0.1352    0.1566 C   0  0  0  0  0  0  0  0  0  0  0  0
   -2.4532   -0.7212   -0.0264 C   0  0  0  0  0  0  0  0  0  0  0  0
   -1.0444    1.3428   -0.0009 C   0  0  0  0  0  0  0  0  0  0  0  0
    0.1086    1.6583    0.5847 C   0  0  0  0  0  0  0  0  0  0  0  0
    0.6283    0.3882    1.2055 C   0  0  0  0  0  0  0  0  0  0  0  0
   -0.6104   -0.2523    1.4701 O   0  0  0  0  0  0  0  0  0  0  0  0
    2.5321   -0.7245   -1.4320 H   0  0  0  0  0  0  0  0  0  0  0  0
    3.2615   -0.2091    0.0991 H   0  0  0  0  0  0  0  0  0  0  0  0
    2.2923    0.9636   -0.9455 H   0  0  0  0  0  0  0  0  0  0  0  0
    1.4021   -1.5029    0.6544 H   0  0  0  0  0  0  0  0  0  0  0  0
   -0.2219   -1.7650   -0.9924 H   0  0  0  0  0  0  0  0  0  0  0  0
    0.0907   -0.0594   -1.6169 H   0  0  0  0  0  0  0  0  0  0  0  0
   -2.6915   -1.3777    0.8609 H   0  0  0  0  0  0  0  0  0  0  0  0
   -3.2819   -0.0225   -0.2446 H   0  0  0  0  0  0  0  0  0  0  0  0
   -2.4315   -1.4429   -0.8907 H   0  0  0  0  0  0  0  0  0  0  0  0
   -1.7591    1.9966   -0.4813 H   0  0  0  0  0  0  0  0  0  0  0  0
    0.5750    2.6346    0.6070 H   0  0  0  0  0  0  0  0  0  0  0  0
    1.2214    0.5473    2.0862 H   0  0  0  0  0  0  0  0  0  0  0  0
  1  2  1  0
  2  3  1  0
  3  4  1  0
  4  5  1  0
  4  6  1  0
  6  7  2  0
  7  8  1  0
  8  9  1  0
  8  2  1  0
  9  4  1  0
  1 10  1  0
  1 11  1  0
  1 12  1  0
  2 13  1  0
  3 14  1  0
  3 15  1  0
  5 16  1  0
  5 17  1  0
  5 18  1  0
  6 19  1  0
  7 20  1  0
  8 21  1  0
M  END
