
     RDKit          3D

 23 23  0  0  0  0  0  0  0  0999 V2000
   -1.0692    2.4404   -0.1044 C   0  0  0  0  0  0  0  0  0  0  0  0
   -0.9356    0.9638   -0.3888 C   0  0  0  0  0  0  0  0  0  0  0  0
   -0.9673    0.0690    0.8430 C   0  0  0  0  0  0  0  0  0  0  0  0
   -1.8816   -1.1092    0.7475 C   0  0  0  0  0  0  0  0  0  0  0  0
    0.2550    0.2108    0.0518 C   0  0  0  0  0  0  0  0  0  0  0  0
    1.2866    1.0035    0.6016 O   0  0  0  0  0  0  0  0  0  0  0  0
    0.7573   -0.9795   -0.7166 C   0  0  0  0  0  0  0  0  0  0  0  0
    1.9700   -1.6083   -0.1165 C   0  0  0  0  0  0  0  0  0  0  0  0
    3.0544   -0.7507   -0.0312 O   0  0  0  0  0  0  0  0  0  0  0  0
   -1.1563    2.6256    0.9962 H   0  0  0  0  0  0  0  0  0  0  0  0
   -0.2053    3.0194   -0.5384 H   0  0  0  0  0  0  0  0  0  0  0  0
   -1.9722    2.8394   -0.5899 H   0  0  0  0  0  0  0  0  0  0  0  0
   -1.4959    0.6247   -1.2907 H   0  0  0  0  0  0  0  0  0  0  0  0
   -0.9849    0.5825    1.8451 H   0  0  0  0  0  0  0  0  0  0  0  0
   -2.8595   -0.8538    1.2309 H   0  0  0  0  0  0  0  0  0  0  0  0
   -2.0147   -1.3641   -0.3244 H   0  0  0  0  0  0  0  0  0  0  0  0
   -1.4734   -2.0178    1.2446 H   0  0  0  0  0  0  0  0  0  0  0  0
    1.6350    1.5428   -0.1541 H   0  0  0  0  0  0  0  0  0  0  0  0
    0.9282   -0.7127   -1.7843 H   0  0  0  0  0  0  0  0  0  0  0  0
   -0.0503   -1.7400   -0.7250 H   0  0  0  0  0  0  0  0  0  0  0  0
    2.2552   -2.4677   -0.7685 H   0  0  0  0  0  0  0  0  0  0  0  0
    1.7427   -2.0133    0.8855 H   0  0  0  0  0  0  0  0  0  0  0  0
    3.1818   -0.3047   -0.9135 H   0  0  0  0  0  0  0  0  0  0  0  0
  1  2  1  0
  2  3  1  0
  3  4  1  0
  3  5  1  0
  5  6  1  0
  5  7  1  0
  7  8  1  0
  8  9  1  0
  5  2  1  0
  1 10  1  0
  1 11  1  0
  1 12  1  0
  2 13  1  0
  3 14  1  0
  4 15  1  0
  4 16  1  0
  4 17  1  0
  6 18  1  0
  7 19  1  0
  7 20  1  0
  8 21  1  0
  8 22  1  0
  9 23  1  0
M  END
