
     RDKit          3D

 16 17  0  0  0  0  0  0  0  0999 V2000
   -1.4262   -0.1393   -0.7701 C   0  0  0  0  0  0  0  0  0  0  0  0
   -0.6554   -0.1954    0.4622 C   0  0  0  0  0  0  0  0  0  0  0  0
    0.8405   -0.2704    0.4392 C   0  0  0  0  0  0  0  0  0  0  0  0
    1.4719   -1.1073   -0.5673 C   0  0  0  0  0  0  0  0  0  0  0  0
    1.1400   -2.2558   -0.7308 O   0  0  0  0  0  0  0  0  0  0  0  0
    0.7813    1.1862    0.0797 C   0  0  0  0  0  0  0  0  0  0  0  0
    0.1667    2.1987    0.6810 O   0  0  0  0  0  0  0  0  0  0  0  0
   -0.3306    1.0946    1.1658 C   0  0  0  0  0  0  0  0  0  0  0  0
   -1.0355   -0.8403   -1.5318 H   0  0  0  0  0  0  0  0  0  0  0  0
   -1.5258    0.8408   -1.2680 H   0  0  0  0  0  0  0  0  0  0  0  0
   -2.4680   -0.4696   -0.5585 H   0  0  0  0  0  0  0  0  0  0  0  0
   -1.0503   -0.9641    1.1596 H   0  0  0  0  0  0  0  0  0  0  0  0
    1.2277   -0.4708    1.4551 H   0  0  0  0  0  0  0  0  0  0  0  0
    2.2607   -0.6769   -1.1812 H   0  0  0  0  0  0  0  0  0  0  0  0
    0.4551    1.2226   -1.0072 H   0  0  0  0  0  0  0  0  0  0  0  0
    0.1479    0.8470    2.1723 H   0  0  0  0  0  0  0  0  0  0  0  0
  1  2  1  0
  2  3  1  0
  3  4  1  0
  4  5  2  0
  3  6  1  0
  6  7  1  0
  7  8  1  0
  8  2  1  0
  8  6  1  0
  1  9  1  0
  1 10  1  0
  1 11  1  0
  2 12  1  0
  3 13  1  0
  4 14  1  0
  6 15  1  0
  8 16  1  0
M  END
