
     RDKit          3D

 23 23  0  0  0  0  0  0  0  0999 V2000
    2.6941    0.4956   -0.1710 C   0  0  0  0  0  0  0  0  0  0  0  0
    1.1926    0.3003   -0.0129 C   0  0  0  0  0  0  0  0  0  0  0  0
    0.4580    0.8478   -1.1875 C   0  0  0  0  0  0  0  0  0  0  0  0
   -0.8499    0.6361   -1.2387 C   0  0  0  0  0  0  0  0  0  0  0  0
   -1.4568   -0.1243   -0.1227 C   0  0  0  0  0  0  0  0  0  0  0  0
   -1.6303    0.8384    1.0336 C   0  0  0  0  0  0  0  0  0  0  0  0
   -2.7699   -0.5464   -0.4705 O   0  0  0  0  0  0  0  0  0  0  0  0
   -0.6441   -1.3245    0.2195 C   0  0  0  0  0  0  0  0  0  0  0  0
    0.8417   -1.1640    0.0851 C   0  0  0  0  0  0  0  0  0  0  0  0
    3.0537    1.3173    0.4823 H   0  0  0  0  0  0  0  0  0  0  0  0
    3.2532   -0.4163    0.1119 H   0  0  0  0  0  0  0  0  0  0  0  0
    2.9401    0.8097   -1.2273 H   0  0  0  0  0  0  0  0  0  0  0  0
    0.9154    0.7662    0.9428 H   0  0  0  0  0  0  0  0  0  0  0  0
    0.9204    1.3988   -1.9883 H   0  0  0  0  0  0  0  0  0  0  0  0
   -1.4580    1.0111   -2.0774 H   0  0  0  0  0  0  0  0  0  0  0  0
   -2.7011    1.0364    1.2470 H   0  0  0  0  0  0  0  0  0  0  0  0
   -1.2073    1.8553    0.8051 H   0  0  0  0  0  0  0  0  0  0  0  0
   -1.2157    0.4068    1.9663 H   0  0  0  0  0  0  0  0  0  0  0  0
   -3.0758   -1.0354    0.3570 H   0  0  0  0  0  0  0  0  0  0  0  0
   -0.8575   -1.6751    1.2746 H   0  0  0  0  0  0  0  0  0  0  0  0
   -0.9689   -2.1723   -0.4548 H   0  0  0  0  0  0  0  0  0  0  0  0
    1.1943   -1.7002   -0.8222 H   0  0  0  0  0  0  0  0  0  0  0  0
    1.3717   -1.5614    0.9928 H   0  0  0  0  0  0  0  0  0  0  0  0
  1  2  1  0
  2  3  1  0
  3  4  2  0
  4  5  1  0
  5  6  1  0
  5  7  1  0
  5  8  1  0
  8  9  1  0
  9  2  1  0
  1 10  1  0
  1 11  1  0
  1 12  1  0
  2 13  1  0
  3 14  1  0
  4 15  1  0
  6 16  1  0
  6 17  1  0
  6 18  1  0
  7 19  1  0
  8 20  1  0
  8 21  1  0
  9 22  1  0
  9 23  1  0
M  END
