
     RDKit          3D

 21 22  0  0  0  0  0  0  0  0999 V2000
    2.4412   -0.8601    0.1613 C   0  0  0  0  0  0  0  0  0  0  0  0
    1.0465   -0.6942   -0.4605 C   0  0  0  0  0  0  0  0  0  0  0  0
    0.5456    0.5803   -0.7944 C   0  0  0  0  0  0  0  0  0  0  0  0
   -0.7203    1.2298   -0.9885 C   0  0  0  0  0  0  0  0  0  0  0  0
   -1.2559    1.4850    0.1980 C   0  0  0  0  0  0  0  0  0  0  0  0
   -0.2442    0.9461    1.2186 C   0  0  0  0  0  0  0  0  0  0  0  0
    0.0306   -0.2883    0.4115 C   0  0  0  0  0  0  0  0  0  0  0  0
   -1.3042   -1.0237    0.1757 C   0  0  0  0  0  0  0  0  0  0  0  0
   -1.7435   -0.7841   -1.1192 O   0  0  0  0  0  0  0  0  0  0  0  0
    3.1601   -1.2801   -0.5537 H   0  0  0  0  0  0  0  0  0  0  0  0
    2.8279    0.1177    0.5268 H   0  0  0  0  0  0  0  0  0  0  0  0
    2.3539   -1.5436    1.0258 H   0  0  0  0  0  0  0  0  0  0  0  0
    0.8917   -1.5114   -1.2047 H   0  0  0  0  0  0  0  0  0  0  0  0
    1.3069    1.3956   -0.5314 H   0  0  0  0  0  0  0  0  0  0  0  0
   -1.1931    1.4857   -1.9152 H   0  0  0  0  0  0  0  0  0  0  0  0
   -2.1832    1.9581    0.4551 H   0  0  0  0  0  0  0  0  0  0  0  0
   -0.7206    0.7882    2.1776 H   0  0  0  0  0  0  0  0  0  0  0  0
    0.5730    1.6909    1.1942 H   0  0  0  0  0  0  0  0  0  0  0  0
   -1.0338   -2.1064    0.2398 H   0  0  0  0  0  0  0  0  0  0  0  0
   -2.0508   -0.8361    0.9300 H   0  0  0  0  0  0  0  0  0  0  0  0
   -2.7278   -0.7493   -1.1468 H   0  0  0  0  0  0  0  0  0  0  0  0
  1  2  1  0
  2  3  1  0
  3  4  1  0
  4  5  2  0
  5  6  1  0
  6  7  1  0
  7  8  1  0
  8  9  1  0
  7  2  1  0
  7  3  1  0
  1 10  1  0
  1 11  1  0
  1 12  1  0
  2 13  1  0
  3 14  1  0
  4 15  1  0
  5 16  1  0
  6 17  1  0
  6 18  1  0
  8 19  1  0
  8 20  1  0
  9 21  1  0
M  END
