
     RDKit          3D

 17 18  0  0  0  0  0  0  0  0999 V2000
    1.6977    0.5696   -0.0924 C   0  0  0  0  0  0  0  0  0  0  0  0
    0.5267    0.0086    0.6899 C   0  0  0  0  0  0  0  0  0  0  0  0
    0.5711   -1.5227    0.5813 C   0  0  0  0  0  0  0  0  0  0  0  0
   -0.0187   -1.3487   -0.6951 O   0  0  0  0  0  0  0  0  0  0  0  0
   -0.6300   -0.2485   -0.1832 C   0  0  0  0  0  0  0  0  0  0  0  0
   -1.0992    0.8193   -1.1006 C   0  0  0  0  0  0  0  0  0  0  0  0
   -2.3123    0.7765   -0.3297 O   0  0  0  0  0  0  0  0  0  0  0  0
   -1.9545   -0.3713    0.3909 C   0  0  0  0  0  0  0  0  0  0  0  0
   -2.5153   -1.1653    1.1842 O   0  0  0  0  0  0  0  0  0  0  0  0
    1.5422    1.6182   -0.3663 H   0  0  0  0  0  0  0  0  0  0  0  0
    1.7621   -0.0363   -1.0269 H   0  0  0  0  0  0  0  0  0  0  0  0
    2.6086    0.3860    0.5040 H   0  0  0  0  0  0  0  0  0  0  0  0
    0.3718    0.3989    1.6881 H   0  0  0  0  0  0  0  0  0  0  0  0
    1.5656   -1.9552    0.5779 H   0  0  0  0  0  0  0  0  0  0  0  0
   -0.1643   -2.0206    1.2586 H   0  0  0  0  0  0  0  0  0  0  0  0
   -1.3388    0.5239   -2.1309 H   0  0  0  0  0  0  0  0  0  0  0  0
   -0.6129    1.7883   -0.9497 H   0  0  0  0  0  0  0  0  0  0  0  0
  1  2  1  0
  2  3  1  0
  3  4  1  0
  4  5  1  0
  5  6  1  0
  6  7  1  0
  7  8  1  0
  8  9  2  0
  5  2  1  0
  8  5  1  0
  1 10  1  0
  1 11  1  0
  1 12  1  0
  2 13  1  0
  3 14  1  0
  3 15  1  0
  6 16  1  0
  6 17  1  0
M  END
