
     RDKit          3D

 21 22  0  0  0  0  0  0  0  0999 V2000
   -2.7351   -0.0957    0.0794 C   0  0  0  0  0  0  0  0  0  0  0  0
   -1.3033   -0.3772   -0.2401 C   0  0  0  0  0  0  0  0  0  0  0  0
   -0.4113    0.5785   -0.8937 C   0  0  0  0  0  0  0  0  0  0  0  0
    0.9059    0.0962   -1.3994 C   0  0  0  0  0  0  0  0  0  0  0  0
    1.8255   -0.0822   -0.2246 C   0  0  0  0  0  0  0  0  0  0  0  0
    2.6383    1.0376   -0.0047 O   0  0  0  0  0  0  0  0  0  0  0  0
    0.9181   -0.2271    0.9630 C   0  0  0  0  0  0  0  0  0  0  0  0
    0.6409   -1.5792    1.1495 O   0  0  0  0  0  0  0  0  0  0  0  0
   -0.3294    0.4860    0.5589 C   0  0  0  0  0  0  0  0  0  0  0  0
   -3.3126   -1.0275    0.2424 H   0  0  0  0  0  0  0  0  0  0  0  0
   -2.8514    0.4845    1.0428 H   0  0  0  0  0  0  0  0  0  0  0  0
   -3.1779    0.5619   -0.6973 H   0  0  0  0  0  0  0  0  0  0  0  0
   -1.0639   -1.4525   -0.3774 H   0  0  0  0  0  0  0  0  0  0  0  0
   -0.8621    1.4077   -1.4518 H   0  0  0  0  0  0  0  0  0  0  0  0
    0.8546   -0.8170   -2.0162 H   0  0  0  0  0  0  0  0  0  0  0  0
    1.3747    0.8928   -2.0473 H   0  0  0  0  0  0  0  0  0  0  0  0
    2.4645   -0.9942   -0.3052 H   0  0  0  0  0  0  0  0  0  0  0  0
    2.4202    1.4900    0.8610 H   0  0  0  0  0  0  0  0  0  0  0  0
    1.3403    0.2260    1.8784 H   0  0  0  0  0  0  0  0  0  0  0  0
    1.3831   -1.9281    1.7242 H   0  0  0  0  0  0  0  0  0  0  0  0
   -0.7191    1.3195    1.1580 H   0  0  0  0  0  0  0  0  0  0  0  0
  1  2  1  0
  2  3  1  0
  3  4  1  0
  4  5  1  0
  5  6  1  0
  5  7  1  0
  7  8  1  0
  7  9  1  0
  9  2  1  0
  9  3  1  0
  1 10  1  0
  1 11  1  0
  1 12  1  0
  2 13  1  0
  3 14  1  0
  4 15  1  0
  4 16  1  0
  5 17  1  0
  6 18  1  0
  7 19  1  0
  8 20  1  0
  9 21  1  0
M  END
