
     RDKit          3D

 16 17  0  0  0  0  0  0  0  0999 V2000
   -1.6911   -0.6901    0.3415 C   0  0  0  0  0  0  0  0  0  0  0  0
   -0.6022   -0.0323   -0.4474 C   0  0  0  0  0  0  0  0  0  0  0  0
   -0.4696    1.4721   -0.1939 C   0  0  0  0  0  0  0  0  0  0  0  0
    1.0044    1.2725   -0.3086 C   0  0  0  0  0  0  0  0  0  0  0  0
    2.0063    1.9125   -0.5622 O   0  0  0  0  0  0  0  0  0  0  0  0
    0.7798   -0.1399    0.0357 C   0  0  0  0  0  0  0  0  0  0  0  0
    1.7207   -1.1170    0.0260 C   0  0  0  0  0  0  0  0  0  0  0  0
    1.1262   -0.5850    1.2825 O   0  0  0  0  0  0  0  0  0  0  0  0
   -1.8434   -1.7031   -0.0552 H   0  0  0  0  0  0  0  0  0  0  0  0
   -2.6327   -0.1316    0.1906 H   0  0  0  0  0  0  0  0  0  0  0  0
   -1.4008   -0.7811    1.3980 H   0  0  0  0  0  0  0  0  0  0  0  0
   -0.7191   -0.1886   -1.5363 H   0  0  0  0  0  0  0  0  0  0  0  0
   -0.8419    2.1106   -0.9934 H   0  0  0  0  0  0  0  0  0  0  0  0
   -0.7380    1.7567    0.8481 H   0  0  0  0  0  0  0  0  0  0  0  0
    1.4875   -2.2161    0.0065 H   0  0  0  0  0  0  0  0  0  0  0  0
    2.8139   -0.9396   -0.0321 H   0  0  0  0  0  0  0  0  0  0  0  0
  1  2  1  0
  2  3  1  0
  3  4  1  0
  4  5  2  0
  4  6  1  0
  6  7  1  0
  7  8  1  0
  6  2  1  0
  8  6  1  0
  1  9  1  0
  1 10  1  0
  1 11  1  0
  2 12  1  0
  3 13  1  0
  3 14  1  0
  7 15  1  0
  7 16  1  0
M  END
