
     RDKit          3D

 23 24  0  0  0  0  0  0  0  0999 V2000
    2.7367    0.9507   -0.5525 C   0  0  0  0  0  0  0  0  0  0  0  0
    1.6449   -0.0716   -0.7786 C   0  0  0  0  0  0  0  0  0  0  0  0
    1.7914   -1.3061    0.0933 C   0  0  0  0  0  0  0  0  0  0  0  0
    0.6712   -0.2526    0.3038 C   0  0  0  0  0  0  0  0  0  0  0  0
   -0.6860   -0.8333    0.1109 C   0  0  0  0  0  0  0  0  0  0  0  0
   -1.5712   -0.0616   -0.8580 C   0  0  0  0  0  0  0  0  0  0  0  0
   -2.0524    0.7490    0.3378 C   0  0  0  0  0  0  0  0  0  0  0  0
   -3.4366    0.8697    0.3824 O   0  0  0  0  0  0  0  0  0  0  0  0
   -1.6136   -0.4024    1.2227 C   0  0  0  0  0  0  0  0  0  0  0  0
    3.6687    0.3903   -0.3408 H   0  0  0  0  0  0  0  0  0  0  0  0
    2.8374    1.6543   -1.3977 H   0  0  0  0  0  0  0  0  0  0  0  0
    2.5417    1.5621    0.3774 H   0  0  0  0  0  0  0  0  0  0  0  0
    1.3806   -0.1901   -1.8470 H   0  0  0  0  0  0  0  0  0  0  0  0
    1.5327   -2.2344   -0.4405 H   0  0  0  0  0  0  0  0  0  0  0  0
    2.5364   -1.3306    0.8882 H   0  0  0  0  0  0  0  0  0  0  0  0
    0.7852    0.3977    1.1849 H   0  0  0  0  0  0  0  0  0  0  0  0
   -0.7442   -1.9316   -0.0212 H   0  0  0  0  0  0  0  0  0  0  0  0
   -2.3827   -0.6788   -1.2488 H   0  0  0  0  0  0  0  0  0  0  0  0
   -0.9764    0.5146   -1.5906 H   0  0  0  0  0  0  0  0  0  0  0  0
   -1.4759    1.6714    0.4972 H   0  0  0  0  0  0  0  0  0  0  0  0
   -3.6967    1.6742    0.9250 H   0  0  0  0  0  0  0  0  0  0  0  0
   -2.3995   -1.1144    1.4914 H   0  0  0  0  0  0  0  0  0  0  0  0
   -1.0914   -0.0265    2.1390 H   0  0  0  0  0  0  0  0  0  0  0  0
  1  2  1  0
  2  3  1  0
  3  4  1  0
  4  5  1  0
  5  6  1  0
  6  7  1  0
  7  8  1  0
  7  9  1  0
  4  2  1  0
  9  5  1  0
  1 10  1  0
  1 11  1  0
  1 12  1  0
  2 13  1  0
  3 14  1  0
  3 15  1  0
  4 16  1  0
  5 17  1  0
  6 18  1  0
  6 19  1  0
  7 20  1  0
  8 21  1  0
  9 22  1  0
  9 23  1  0
M  END
