
     RDKit          3D

 21 21  0  0  0  0  0  0  0  0999 V2000
   -0.7438    1.6611    0.3514 C   0  0  0  0  0  0  0  0  0  0  0  0
   -0.4349    0.5693   -0.6498 C   0  0  0  0  0  0  0  0  0  0  0  0
   -0.9505   -0.8245   -0.3542 C   0  0  0  0  0  0  0  0  0  0  0  0
   -1.8669   -0.9555    0.8304 C   0  0  0  0  0  0  0  0  0  0  0  0
    0.4738   -0.5692   -0.2559 C   0  0  0  0  0  0  0  0  0  0  0  0
    1.3646   -1.1180   -1.3785 C   0  0  0  0  0  0  0  0  0  0  0  0
    1.1709   -0.3739    0.9407 O   0  0  0  0  0  0  0  0  0  0  0  0
    2.0283    0.7181    1.0216 C   0  0  0  0  0  0  0  0  0  0  0  0
    2.1922    1.5216    0.0658 O   0  0  0  0  0  0  0  0  0  0  0  0
   -0.3282    2.6161   -0.0263 H   0  0  0  0  0  0  0  0  0  0  0  0
   -0.2940    1.4743    1.3471 H   0  0  0  0  0  0  0  0  0  0  0  0
   -1.8484    1.7554    0.5182 H   0  0  0  0  0  0  0  0  0  0  0  0
   -0.3691    0.9115   -1.6940 H   0  0  0  0  0  0  0  0  0  0  0  0
   -1.3122   -1.3609   -1.2591 H   0  0  0  0  0  0  0  0  0  0  0  0
   -2.8135   -0.4057    0.6213 H   0  0  0  0  0  0  0  0  0  0  0  0
   -2.1609   -2.0353    0.9235 H   0  0  0  0  0  0  0  0  0  0  0  0
   -1.4124   -0.6762    1.7861 H   0  0  0  0  0  0  0  0  0  0  0  0
    0.7836   -1.9000   -1.9095 H   0  0  0  0  0  0  0  0  0  0  0  0
    2.2468   -1.6421   -0.9446 H   0  0  0  0  0  0  0  0  0  0  0  0
    1.6718   -0.2991   -2.0414 H   0  0  0  0  0  0  0  0  0  0  0  0
    2.6028    0.9332    1.9194 H   0  0  0  0  0  0  0  0  0  0  0  0
  1  2  1  0
  2  3  1  0
  3  4  1  0
  3  5  1  0
  5  6  1  0
  5  7  1  0
  7  8  1  0
  8  9  2  0
  5  2  1  0
  1 10  1  0
  1 11  1  0
  1 12  1  0
  2 13  1  0
  3 14  1  0
  4 15  1  0
  4 16  1  0
  4 17  1  0
  6 18  1  0
  6 19  1  0
  6 20  1  0
  8 21  1  0
M  END
