
     RDKit          3D

 21 23  0  0  0  0  0  0  0  0999 V2000
   -1.8857   -1.0847   -0.3080 C   0  0  0  0  0  0  0  0  0  0  0  0
   -0.5790   -0.7680    0.3673 C   0  0  0  0  0  0  0  0  0  0  0  0
    0.5752   -1.2056   -0.5177 C   0  0  0  0  0  0  0  0  0  0  0  0
    1.9378   -0.8318   -0.0645 C   0  0  0  0  0  0  0  0  0  0  0  0
    2.9732   -1.3483   -0.8159 O   0  0  0  0  0  0  0  0  0  0  0  0
    1.0657    0.2337   -0.5929 C   0  0  0  0  0  0  0  0  0  0  0  0
   -0.1481    0.6430    0.1322 C   0  0  0  0  0  0  0  0  0  0  0  0
   -0.2699    1.7206    1.0831 C   0  0  0  0  0  0  0  0  0  0  0  0
   -1.0538    1.7150   -0.2585 C   0  0  0  0  0  0  0  0  0  0  0  0
   -2.6916   -0.6557    0.3380 H   0  0  0  0  0  0  0  0  0  0  0  0
   -1.9909   -2.1758   -0.4418 H   0  0  0  0  0  0  0  0  0  0  0  0
   -1.8574   -0.6200   -1.3137 H   0  0  0  0  0  0  0  0  0  0  0  0
   -0.4346   -1.1772    1.3765 H   0  0  0  0  0  0  0  0  0  0  0  0
    0.3932   -1.7723   -1.4278 H   0  0  0  0  0  0  0  0  0  0  0  0
    2.1489   -0.7887    1.0198 H   0  0  0  0  0  0  0  0  0  0  0  0
    3.7511   -0.7578   -0.9036 H   0  0  0  0  0  0  0  0  0  0  0  0
    1.3028    0.6835   -1.5544 H   0  0  0  0  0  0  0  0  0  0  0  0
    0.5225    2.5076    1.1627 H   0  0  0  0  0  0  0  0  0  0  0  0
   -0.9095    1.6452    1.9951 H   0  0  0  0  0  0  0  0  0  0  0  0
   -2.1585    1.5727   -0.1767 H   0  0  0  0  0  0  0  0  0  0  0  0
   -0.6911    2.4645   -1.0137 H   0  0  0  0  0  0  0  0  0  0  0  0
  1  2  1  0
  2  3  1  0
  3  4  1  0
  4  5  1  0
  4  6  1  0
  6  7  1  0
  7  8  1  0
  8  9  1  0
  7  2  1  0
  6  3  1  0
  9  7  1  0
  1 10  1  0
  1 11  1  0
  1 12  1  0
  2 13  1  0
  3 14  1  0
  4 15  1  0
  5 16  1  0
  6 17  1  0
  8 18  1  0
  8 19  1  0
  9 20  1  0
  9 21  1  0
M  END
