
     RDKit          3D

 17 18  0  0  0  0  0  0  0  0999 V2000
    2.2330    0.5285    0.4094 C   0  0  0  0  0  0  0  0  0  0  0  0
    1.1609   -0.2987   -0.3024 C   0  0  0  0  0  0  0  0  0  0  0  0
   -0.0290   -0.5951    0.3853 C   0  0  0  0  0  0  0  0  0  0  0  0
   -1.2653   -1.3270    0.0684 C   0  0  0  0  0  0  0  0  0  0  0  0
   -2.2990   -0.3250   -0.0062 O   0  0  0  0  0  0  0  0  0  0  0  0
   -2.0246    1.0467    0.0152 C   0  0  0  0  0  0  0  0  0  0  0  0
   -2.8877    1.9019    0.3726 O   0  0  0  0  0  0  0  0  0  0  0  0
   -0.7245    1.4538   -0.3839 O   0  0  0  0  0  0  0  0  0  0  0  0
    0.0497    0.3927   -0.8312 C   0  0  0  0  0  0  0  0  0  0  0  0
    2.0247    1.6263    0.2494 H   0  0  0  0  0  0  0  0  0  0  0  0
    2.1884    0.3864    1.5073 H   0  0  0  0  0  0  0  0  0  0  0  0
    3.2456    0.3437    0.0263 H   0  0  0  0  0  0  0  0  0  0  0  0
    1.6387   -1.0983   -0.9229 H   0  0  0  0  0  0  0  0  0  0  0  0
   -0.1441   -0.1119    1.4063 H   0  0  0  0  0  0  0  0  0  0  0  0
   -1.5457   -2.1326    0.7722 H   0  0  0  0  0  0  0  0  0  0  0  0
   -1.2625   -1.8088   -0.9499 H   0  0  0  0  0  0  0  0  0  0  0  0
   -0.3585    0.0174   -1.8160 H   0  0  0  0  0  0  0  0  0  0  0  0
  1  2  1  0
  2  3  1  0
  3  4  1  0
  4  5  1  0
  5  6  1  0
  6  7  2  0
  6  8  1  0
  8  9  1  0
  9  2  1  0
  9  3  1  0
  1 10  1  0
  1 11  1  0
  1 12  1  0
  2 13  1  0
  3 14  1  0
  4 15  1  0
  4 16  1  0
  9 17  1  0
M  END
