
     RDKit          3D

 21 22  0  0  0  0  0  0  0  0999 V2000
   -2.1932    0.7534    0.6096 C   0  0  0  0  0  0  0  0  0  0  0  0
   -1.9013   -0.1883   -0.5311 C   0  0  0  0  0  0  0  0  0  0  0  0
   -1.0292    0.4350   -1.6294 C   0  0  0  0  0  0  0  0  0  0  0  0
   -0.5273   -0.6923   -0.7671 C   0  0  0  0  0  0  0  0  0  0  0  0
    0.5604   -0.5254    0.2235 C   0  0  0  0  0  0  0  0  0  0  0  0
    1.9113   -1.1160   -0.2089 C   0  0  0  0  0  0  0  0  0  0  0  0
    2.5127    0.0378    0.5644 C   0  0  0  0  0  0  0  0  0  0  0  0
    1.2378    0.7929    0.2462 C   0  0  0  0  0  0  0  0  0  0  0  0
    0.9695    1.9711    0.0928 O   0  0  0  0  0  0  0  0  0  0  0  0
   -3.2870    0.9198    0.6597 H   0  0  0  0  0  0  0  0  0  0  0  0
   -1.7484    1.7671    0.4447 H   0  0  0  0  0  0  0  0  0  0  0  0
   -1.8292    0.3451    1.5861 H   0  0  0  0  0  0  0  0  0  0  0  0
   -2.7861   -0.7864   -0.8943 H   0  0  0  0  0  0  0  0  0  0  0  0
   -1.3619    0.2196   -2.6666 H   0  0  0  0  0  0  0  0  0  0  0  0
   -0.6307    1.4304   -1.4700 H   0  0  0  0  0  0  0  0  0  0  0  0
   -0.5139   -1.7099   -1.2697 H   0  0  0  0  0  0  0  0  0  0  0  0
    0.3423   -0.9386    1.2314 H   0  0  0  0  0  0  0  0  0  0  0  0
    2.1310   -1.0205   -1.2750 H   0  0  0  0  0  0  0  0  0  0  0  0
    2.1692   -2.0636    0.2845 H   0  0  0  0  0  0  0  0  0  0  0  0
    3.4006    0.4781    0.0840 H   0  0  0  0  0  0  0  0  0  0  0  0
    2.5733   -0.1094    1.6567 H   0  0  0  0  0  0  0  0  0  0  0  0
  1  2  1  0
  2  3  1  0
  3  4  1  0
  4  5  1  0
  5  6  1  0
  6  7  1  0
  7  8  1  0
  8  9  2  0
  4  2  1  0
  8  5  1  0
  1 10  1  0
  1 11  1  0
  1 12  1  0
  2 13  1  0
  3 14  1  0
  3 15  1  0
  4 16  1  0
  5 17  1  0
  6 18  1  0
  6 19  1  0
  7 20  1  0
  7 21  1  0
M  END
