
     RDKit          3D

 25 26  0  0  0  0  0  0  0  0999 V2000
   -2.1136   -1.3313    0.0548 C   0  0  0  0  0  0  0  0  0  0  0  0
   -0.8860   -0.6662   -0.4146 C   0  0  0  0  0  0  0  0  0  0  0  0
   -0.8758    0.8485   -0.1201 C   0  0  0  0  0  0  0  0  0  0  0  0
   -1.0450    1.6543   -1.3612 C   0  0  0  0  0  0  0  0  0  0  0  0
    0.4541    0.9657    0.5314 C   0  0  0  0  0  0  0  0  0  0  0  0
    0.4057   -0.1856    1.5448 C   0  0  0  0  0  0  0  0  0  0  0  0
    0.3716   -1.0447    0.2953 C   0  0  0  0  0  0  0  0  0  0  0  0
    1.3191    0.0133   -0.2981 C   0  0  0  0  0  0  0  0  0  0  0  0
    2.7061   -0.1865    0.2071 C   0  0  0  0  0  0  0  0  0  0  0  0
   -2.7296   -0.7365    0.7428 H   0  0  0  0  0  0  0  0  0  0  0  0
   -2.7672   -1.5330   -0.8435 H   0  0  0  0  0  0  0  0  0  0  0  0
   -1.8934   -2.3567    0.4599 H   0  0  0  0  0  0  0  0  0  0  0  0
   -0.7196   -0.8055   -1.5054 H   0  0  0  0  0  0  0  0  0  0  0  0
   -1.6725    1.0570    0.6458 H   0  0  0  0  0  0  0  0  0  0  0  0
   -1.7598    1.1299   -2.0504 H   0  0  0  0  0  0  0  0  0  0  0  0
   -0.0737    1.8556   -1.8065 H   0  0  0  0  0  0  0  0  0  0  0  0
   -1.5675    2.6028   -1.0834 H   0  0  0  0  0  0  0  0  0  0  0  0
    0.8635    1.8852    0.8369 H   0  0  0  0  0  0  0  0  0  0  0  0
   -0.5363   -0.1351    2.1059 H   0  0  0  0  0  0  0  0  0  0  0  0
    1.3110   -0.3047    2.1365 H   0  0  0  0  0  0  0  0  0  0  0  0
    0.7126   -2.0418    0.3358 H   0  0  0  0  0  0  0  0  0  0  0  0
    1.1859    0.1465   -1.3856 H   0  0  0  0  0  0  0  0  0  0  0  0
    2.8750   -1.2801    0.4277 H   0  0  0  0  0  0  0  0  0  0  0  0
    3.4707    0.0928   -0.5683 H   0  0  0  0  0  0  0  0  0  0  0  0
    2.9648    0.3562    1.1125 H   0  0  0  0  0  0  0  0  0  0  0  0
  1  2  1  0
  2  3  1  0
  3  4  1  0
  3  5  1  0
  5  6  1  0
  6  7  1  0
  7  8  1  0
  8  9  1  0
  7  2  1  0
  8  5  1  0
  1 10  1  0
  1 11  1  0
  1 12  1  0
  2 13  1  0
  3 14  1  0
  4 15  1  0
  4 16  1  0
  4 17  1  0
  5 18  1  0
  6 19  1  0
  6 20  1  0
  7 21  1  0
  8 22  1  0
  9 23  1  0
  9 24  1  0
  9 25  1  0
M  END
