
     RDKit          3D

 23 23  0  0  0  0  0  0  0  0999 V2000
   -1.6887   -0.5961    0.9518 C   0  0  0  0  0  0  0  0  0  0  0  0
   -1.1555   -0.3098   -0.4329 C   0  0  0  0  0  0  0  0  0  0  0  0
   -1.1318    1.1588   -0.7573 C   0  0  0  0  0  0  0  0  0  0  0  0
    0.1383    1.8431   -0.3685 C   0  0  0  0  0  0  0  0  0  0  0  0
    0.7170    1.3588    0.7844 O   0  0  0  0  0  0  0  0  0  0  0  0
    1.7639    0.5016    0.3815 C   0  0  0  0  0  0  0  0  0  0  0  0
    1.1397   -0.8921    0.4076 C   0  0  0  0  0  0  0  0  0  0  0  0
    2.0864   -1.8836    0.2441 O   0  0  0  0  0  0  0  0  0  0  0  0
    0.1470   -0.9937   -0.7058 C   0  0  0  0  0  0  0  0  0  0  0  0
   -1.3150   -1.5907    1.2999 H   0  0  0  0  0  0  0  0  0  0  0  0
   -1.4134    0.1542    1.6956 H   0  0  0  0  0  0  0  0  0  0  0  0
   -2.8106   -0.7054    0.9536 H   0  0  0  0  0  0  0  0  0  0  0  0
   -1.9096   -0.7724   -1.1374 H   0  0  0  0  0  0  0  0  0  0  0  0
   -1.2293    1.2694   -1.8766 H   0  0  0  0  0  0  0  0  0  0  0  0
   -1.9929    1.6644   -0.2799 H   0  0  0  0  0  0  0  0  0  0  0  0
   -0.0873    2.9324   -0.1744 H   0  0  0  0  0  0  0  0  0  0  0  0
    0.8543    1.8663   -1.2314 H   0  0  0  0  0  0  0  0  0  0  0  0
    2.6399    0.5817    1.0351 H   0  0  0  0  0  0  0  0  0  0  0  0
    2.0561    0.6979   -0.6790 H   0  0  0  0  0  0  0  0  0  0  0  0
    0.6501   -0.9853    1.3998 H   0  0  0  0  0  0  0  0  0  0  0  0
    2.0731   -2.5680    0.9730 H   0  0  0  0  0  0  0  0  0  0  0  0
    0.5549   -0.6389   -1.6539 H   0  0  0  0  0  0  0  0  0  0  0  0
   -0.0864   -2.0927   -0.8295 H   0  0  0  0  0  0  0  0  0  0  0  0
  1  2  1  0
  2  3  1  0
  3  4  1  0
  4  5  1  0
  5  6  1  0
  6  7  1  0
  7  8  1  0
  7  9  1  0
  9  2  1  0
  1 10  1  0
  1 11  1  0
  1 12  1  0
  2 13  1  0
  3 14  1  0
  3 15  1  0
  4 16  1  0
  4 17  1  0
  6 18  1  0
  6 19  1  0
  7 20  1  0
  8 21  1  0
  9 22  1  0
  9 23  1  0
M  END
