
     RDKit          3D

 19 20  0  0  0  0  0  0  0  0999 V2000
    1.3189   -1.5632    0.3606 C   0  0  0  0  0  0  0  0  0  0  0  0
    0.5018   -0.5101   -0.3386 C   0  0  0  0  0  0  0  0  0  0  0  0
   -0.7861   -0.1968    0.3363 C   0  0  0  0  0  0  0  0  0  0  0  0
   -1.9330   -0.9084   -0.2754 C   0  0  0  0  0  0  0  0  0  0  0  0
   -2.1650   -2.0377    0.1197 O   0  0  0  0  0  0  0  0  0  0  0  0
   -0.9992    1.2886    0.0809 C   0  0  0  0  0  0  0  0  0  0  0  0
    0.3343    1.8861   -0.2038 C   0  0  0  0  0  0  0  0  0  0  0  0
    1.0251    1.6265   -1.3586 O   0  0  0  0  0  0  0  0  0  0  0  0
    1.2667    0.7869   -0.2678 C   0  0  0  0  0  0  0  0  0  0  0  0
    2.2484   -1.7002   -0.2644 H   0  0  0  0  0  0  0  0  0  0  0  0
    0.8261   -2.5509    0.3770 H   0  0  0  0  0  0  0  0  0  0  0  0
    1.6261   -1.2552    1.3693 H   0  0  0  0  0  0  0  0  0  0  0  0
    0.3421   -0.8243   -1.3915 H   0  0  0  0  0  0  0  0  0  0  0  0
   -0.6776   -0.4132    1.4170 H   0  0  0  0  0  0  0  0  0  0  0  0
   -2.5754   -0.5125   -1.0365 H   0  0  0  0  0  0  0  0  0  0  0  0
   -1.7556    1.4616   -0.6921 H   0  0  0  0  0  0  0  0  0  0  0  0
   -1.3740    1.7173    1.0318 H   0  0  0  0  0  0  0  0  0  0  0  0
    0.5655    2.8495    0.2706 H   0  0  0  0  0  0  0  0  0  0  0  0
    2.2109    0.8559    0.2849 H   0  0  0  0  0  0  0  0  0  0  0  0
  1  2  1  0
  2  3  1  0
  3  4  1  0
  4  5  2  0
  3  6  1  0
  6  7  1  0
  7  8  1  0
  8  9  1  0
  9  2  1  0
  9  7  1  0
  1 10  1  0
  1 11  1  0
  1 12  1  0
  2 13  1  0
  3 14  1  0
  4 15  1  0
  6 16  1  0
  6 17  1  0
  7 18  1  0
  9 19  1  0
M  END
