
     RDKit          3D

 23 24  0  0  0  0  0  0  0  0999 V2000
    2.7274    0.8109   -0.2348 C   0  0  0  0  0  0  0  0  0  0  0  0
    1.3602    0.3549   -0.6066 C   0  0  0  0  0  0  0  0  0  0  0  0
    0.8032   -0.4798    0.5564 C   0  0  0  0  0  0  0  0  0  0  0  0
   -0.6560   -0.5190    0.1719 C   0  0  0  0  0  0  0  0  0  0  0  0
   -1.0266   -1.8088   -0.4872 C   0  0  0  0  0  0  0  0  0  0  0  0
   -1.6266   -0.0176    1.1765 C   0  0  0  0  0  0  0  0  0  0  0  0
   -1.6556    1.3241    0.4843 C   0  0  0  0  0  0  0  0  0  0  0  0
   -0.8167    0.7272   -0.6365 C   0  0  0  0  0  0  0  0  0  0  0  0
    0.4243    1.3692   -0.6700 O   0  0  0  0  0  0  0  0  0  0  0  0
    2.7025    1.5145    0.5985 H   0  0  0  0  0  0  0  0  0  0  0  0
    3.2124    1.2980   -1.1144 H   0  0  0  0  0  0  0  0  0  0  0  0
    3.3387   -0.1020   -0.0148 H   0  0  0  0  0  0  0  0  0  0  0  0
    1.3484   -0.2369   -1.5358 H   0  0  0  0  0  0  0  0  0  0  0  0
    0.9983    0.0381    1.5000 H   0  0  0  0  0  0  0  0  0  0  0  0
    1.2875   -1.4678    0.4668 H   0  0  0  0  0  0  0  0  0  0  0  0
   -0.7452   -2.6317    0.2141 H   0  0  0  0  0  0  0  0  0  0  0  0
   -0.5026   -2.0092   -1.4270 H   0  0  0  0  0  0  0  0  0  0  0  0
   -2.1372   -1.8643   -0.5702 H   0  0  0  0  0  0  0  0  0  0  0  0
   -1.2645   -0.0278    2.2049 H   0  0  0  0  0  0  0  0  0  0  0  0
   -2.5966   -0.5871    1.0878 H   0  0  0  0  0  0  0  0  0  0  0  0
   -2.6934    1.6046    0.1794 H   0  0  0  0  0  0  0  0  0  0  0  0
   -1.1560    2.0900    1.0915 H   0  0  0  0  0  0  0  0  0  0  0  0
   -1.3259    0.6207   -1.5984 H   0  0  0  0  0  0  0  0  0  0  0  0
  1  2  1  0
  2  3  1  0
  3  4  1  0
  4  5  1  0
  4  6  1  0
  6  7  1  0
  7  8  1  0
  8  9  1  0
  9  2  1  0
  8  4  1  0
  1 10  1  0
  1 11  1  0
  1 12  1  0
  2 13  1  0
  3 14  1  0
  3 15  1  0
  5 16  1  0
  5 17  1  0
  5 18  1  0
  6 19  1  0
  6 20  1  0
  7 21  1  0
  7 22  1  0
  8 23  1  0
M  END
