
     RDKit          3D

 21 21  0  0  0  0  0  0  0  0999 V2000
    2.2664   -0.1486    0.2026 C   0  0  0  0  0  0  0  0  0  0  0  0
    0.7599   -0.0229    0.3174 C   0  0  0  0  0  0  0  0  0  0  0  0
    0.2478    1.1538   -0.4368 C   0  0  0  0  0  0  0  0  0  0  0  0
   -0.9511    1.8110    0.1462 C   0  0  0  0  0  0  0  0  0  0  0  0
   -1.8992    0.9506    0.6928 O   0  0  0  0  0  0  0  0  0  0  0  0
   -2.0269   -0.4066    0.4929 C   0  0  0  0  0  0  0  0  0  0  0  0
   -2.9005   -0.9521    1.1997 O   0  0  0  0  0  0  0  0  0  0  0  0
   -1.2958   -1.2684   -0.4116 C   0  0  0  0  0  0  0  0  0  0  0  0
    0.1841   -1.3334   -0.1760 C   0  0  0  0  0  0  0  0  0  0  0  0
    2.7918    0.7172    0.6403 H   0  0  0  0  0  0  0  0  0  0  0  0
    2.5933   -0.3917   -0.8281 H   0  0  0  0  0  0  0  0  0  0  0  0
    2.5579   -1.0420    0.8257 H   0  0  0  0  0  0  0  0  0  0  0  0
    0.5418    0.1153    1.4029 H   0  0  0  0  0  0  0  0  0  0  0  0
    0.0837    0.8663   -1.5014 H   0  0  0  0  0  0  0  0  0  0  0  0
    1.0746    1.9155   -0.4677 H   0  0  0  0  0  0  0  0  0  0  0  0
   -1.4160    2.4467   -0.6621 H   0  0  0  0  0  0  0  0  0  0  0  0
   -0.6298    2.5151    0.9473 H   0  0  0  0  0  0  0  0  0  0  0  0
   -1.6794   -2.3248   -0.3609 H   0  0  0  0  0  0  0  0  0  0  0  0
   -1.4694   -0.9317   -1.4534 H   0  0  0  0  0  0  0  0  0  0  0  0
    0.4592   -2.1111    0.5668 H   0  0  0  0  0  0  0  0  0  0  0  0
    0.7075   -1.5580   -1.1366 H   0  0  0  0  0  0  0  0  0  0  0  0
  1  2  1  0
  2  3  1  0
  3  4  1  0
  4  5  1  0
  5  6  1  0
  6  7  2  0
  6  8  1  0
  8  9  1  0
  9  2  1  0
  1 10  1  0
  1 11  1  0
  1 12  1  0
  2 13  1  0
  3 14  1  0
  3 15  1  0
  4 16  1  0
  4 17  1  0
  8 18  1  0
  8 19  1  0
  9 20  1  0
  9 21  1  0
M  END
