
     RDKit          3D

 25 26  0  0  0  0  0  0  0  0999 V2000
   -2.3009   -1.3086    0.5746 C   0  0  0  0  0  0  0  0  0  0  0  0
   -1.0734   -0.3972    0.5778 C   0  0  0  0  0  0  0  0  0  0  0  0
   -1.0937    0.6658   -0.4956 C   0  0  0  0  0  0  0  0  0  0  0  0
   -1.3174    2.0576   -0.0092 C   0  0  0  0  0  0  0  0  0  0  0  0
    0.2471    0.3004   -0.9940 C   0  0  0  0  0  0  0  0  0  0  0  0
    0.0934   -1.0056   -0.1455 C   0  0  0  0  0  0  0  0  0  0  0  0
    1.3438   -0.2038   -0.1444 C   0  0  0  0  0  0  0  0  0  0  0  0
    1.7841    0.5390    1.0995 C   0  0  0  0  0  0  0  0  0  0  0  0
    2.5049   -0.8857   -0.8485 C   0  0  0  0  0  0  0  0  0  0  0  0
   -2.2329   -1.9558   -0.3052 H   0  0  0  0  0  0  0  0  0  0  0  0
   -2.3130   -1.8616    1.5358 H   0  0  0  0  0  0  0  0  0  0  0  0
   -3.1809   -0.6328    0.5047 H   0  0  0  0  0  0  0  0  0  0  0  0
   -0.8878   -0.0546    1.5942 H   0  0  0  0  0  0  0  0  0  0  0  0
   -1.8959    0.3977   -1.2419 H   0  0  0  0  0  0  0  0  0  0  0  0
   -0.7988    2.8353   -0.5996 H   0  0  0  0  0  0  0  0  0  0  0  0
   -1.0920    2.1457    1.0915 H   0  0  0  0  0  0  0  0  0  0  0  0
   -2.4131    2.3129   -0.0781 H   0  0  0  0  0  0  0  0  0  0  0  0
    0.3575    0.1622   -2.0804 H   0  0  0  0  0  0  0  0  0  0  0  0
   -0.0111   -1.9311   -0.7150 H   0  0  0  0  0  0  0  0  0  0  0  0
    2.5622   -0.1062    1.6012 H   0  0  0  0  0  0  0  0  0  0  0  0
    2.3122    1.4522    0.7937 H   0  0  0  0  0  0  0  0  0  0  0  0
    0.9904    0.7090    1.8204 H   0  0  0  0  0  0  0  0  0  0  0  0
    3.0206   -0.1919   -1.5459 H   0  0  0  0  0  0  0  0  0  0  0  0
    3.2093   -1.2876   -0.0677 H   0  0  0  0  0  0  0  0  0  0  0  0
    2.1854   -1.7554   -1.4430 H   0  0  0  0  0  0  0  0  0  0  0  0
  1  2  1  0
  2  3  1  0
  3  4  1  0
  3  5  1  0
  5  6  1  0
  6  7  1  0
  7  8  1  0
  7  9  1  0
  6  2  1  0
  7  5  1  0
  1 10  1  0
  1 11  1  0
  1 12  1  0
  2 13  1  0
  3 14  1  0
  4 15  1  0
  4 16  1  0
  4 17  1  0
  5 18  1  0
  6 19  1  0
  8 20  1  0
  8 21  1  0
  8 22  1  0
  9 23  1  0
  9 24  1  0
  9 25  1  0
M  END
