
     RDKit          3D

 19 20  0  0  0  0  0  0  0  0999 V2000
    2.1517   -0.5737    0.0562 C   0  0  0  0  0  0  0  0  0  0  0  0
    0.7576   -0.3811    0.6290 C   0  0  0  0  0  0  0  0  0  0  0  0
   -0.3231   -0.2826   -0.3875 C   0  0  0  0  0  0  0  0  0  0  0  0
   -1.5461   -1.0991   -0.2281 C   0  0  0  0  0  0  0  0  0  0  0  0
   -0.1922    0.6741   -1.5502 C   0  0  0  0  0  0  0  0  0  0  0  0
    0.3665    1.6463   -0.7205 O   0  0  0  0  0  0  0  0  0  0  0  0
    0.0271    0.8938    0.3716 C   0  0  0  0  0  0  0  0  0  0  0  0
   -0.7442    1.4636    1.4831 C   0  0  0  0  0  0  0  0  0  0  0  0
   -1.0774    0.8504    2.4796 O   0  0  0  0  0  0  0  0  0  0  0  0
    2.9181   -0.0270    0.6441 H   0  0  0  0  0  0  0  0  0  0  0  0
    2.3540   -1.6601    0.0894 H   0  0  0  0  0  0  0  0  0  0  0  0
    2.1783   -0.2606   -1.0006 H   0  0  0  0  0  0  0  0  0  0  0  0
    0.5038   -0.9234    1.5502 H   0  0  0  0  0  0  0  0  0  0  0  0
   -1.2787   -2.1791   -0.3869 H   0  0  0  0  0  0  0  0  0  0  0  0
   -2.3289   -0.8704   -0.9571 H   0  0  0  0  0  0  0  0  0  0  0  0
   -2.0060   -1.0454    0.7784 H   0  0  0  0  0  0  0  0  0  0  0  0
   -1.1852    0.9623   -1.9266 H   0  0  0  0  0  0  0  0  0  0  0  0
    0.4722    0.3093   -2.3543 H   0  0  0  0  0  0  0  0  0  0  0  0
   -1.0474    2.5027    1.4301 H   0  0  0  0  0  0  0  0  0  0  0  0
  1  2  1  0
  2  3  1  0
  3  4  1  0
  3  5  1  0
  5  6  1  0
  6  7  1  0
  7  8  1  0
  8  9  2  0
  7  2  1  0
  7  3  1  0
  1 10  1  0
  1 11  1  0
  1 12  1  0
  2 13  1  0
  4 14  1  0
  4 15  1  0
  4 16  1  0
  5 17  1  0
  5 18  1  0
  8 19  1  0
M  END
