
     RDKit          3D

 21 22  0  0  0  0  0  0  0  0999 V2000
    2.6517    0.3800    0.1385 C   0  0  0  0  0  0  0  0  0  0  0  0
    1.1406    0.5940    0.3527 C   0  0  0  0  0  0  0  0  0  0  0  0
    0.4620   -0.5206    1.0296 C   0  0  0  0  0  0  0  0  0  0  0  0
    0.8879   -1.2892   -0.0795 O   0  0  0  0  0  0  0  0  0  0  0  0
    0.3683   -0.1184   -0.6730 C   0  0  0  0  0  0  0  0  0  0  0  0
   -0.7634   -0.3106    0.2707 C   0  0  0  0  0  0  0  0  0  0  0  0
   -1.4819   -1.6678    0.0959 C   0  0  0  0  0  0  0  0  0  0  0  0
   -1.6738    0.8247    0.4508 C   0  0  0  0  0  0  0  0  0  0  0  0
   -1.1216    2.0435    0.2157 O   0  0  0  0  0  0  0  0  0  0  0  0
    3.2230    1.2702    0.4416 H   0  0  0  0  0  0  0  0  0  0  0  0
    2.9909   -0.4963    0.7241 H   0  0  0  0  0  0  0  0  0  0  0  0
    2.8541    0.1998   -0.9364 H   0  0  0  0  0  0  0  0  0  0  0  0
    0.9462    1.6163    0.6401 H   0  0  0  0  0  0  0  0  0  0  0  0
    0.5848   -0.8433    1.9880 H   0  0  0  0  0  0  0  0  0  0  0  0
    0.3246    0.0310   -1.6699 H   0  0  0  0  0  0  0  0  0  0  0  0
   -1.4995   -2.1029    1.1168 H   0  0  0  0  0  0  0  0  0  0  0  0
   -0.9609   -2.2941   -0.6450 H   0  0  0  0  0  0  0  0  0  0  0  0
   -2.5308   -1.4614   -0.1868 H   0  0  0  0  0  0  0  0  0  0  0  0
   -2.5164    0.7085   -0.3063 H   0  0  0  0  0  0  0  0  0  0  0  0
   -2.1957    0.7556    1.4407 H   0  0  0  0  0  0  0  0  0  0  0  0
   -1.6899    2.6813   -0.2768 H   0  0  0  0  0  0  0  0  0  0  0  0
  1  2  1  0
  2  3  1  0
  3  4  1  0
  4  5  1  0
  5  6  1  0
  6  7  1  0
  6  8  1  0
  8  9  1  0
  5  2  1  0
  6  3  1  0
  1 10  1  0
  1 11  1  0
  1 12  1  0
  2 13  1  0
  3 14  1  0
  5 15  1  0
  7 16  1  0
  7 17  1  0
  7 18  1  0
  8 19  1  0
  8 20  1  0
  9 21  1  0
M  END
