
     RDKit          3D

 21 22  0  0  0  0  0  0  0  0999 V2000
    2.6563   -0.0717   -0.4606 C   0  0  0  0  0  0  0  0  0  0  0  0
    1.4944   -0.7026    0.2714 C   0  0  0  0  0  0  0  0  0  0  0  0
    0.9021    0.3321    1.1840 C   0  0  0  0  0  0  0  0  0  0  0  0
   -0.2991    0.8529    0.9792 C   0  0  0  0  0  0  0  0  0  0  0  0
   -1.1426    0.4570   -0.1568 C   0  0  0  0  0  0  0  0  0  0  0  0
   -2.3784    1.1833   -0.4100 C   0  0  0  0  0  0  0  0  0  0  0  0
   -2.4657   -0.2275    0.0682 C   0  0  0  0  0  0  0  0  0  0  0  0
   -0.3687   -0.1187   -1.1515 O   0  0  0  0  0  0  0  0  0  0  0  0
    0.4137   -1.1514   -0.6706 C   0  0  0  0  0  0  0  0  0  0  0  0
    3.1025    0.7558    0.1194 H   0  0  0  0  0  0  0  0  0  0  0  0
    3.4604   -0.8101   -0.6958 H   0  0  0  0  0  0  0  0  0  0  0  0
    2.2749    0.3570   -1.4003 H   0  0  0  0  0  0  0  0  0  0  0  0
    1.8514   -1.5413    0.8784 H   0  0  0  0  0  0  0  0  0  0  0  0
    1.4537    0.6838    2.0477 H   0  0  0  0  0  0  0  0  0  0  0  0
   -0.6667    1.5959    1.6769 H   0  0  0  0  0  0  0  0  0  0  0  0
   -2.7210    1.4674   -1.4154 H   0  0  0  0  0  0  0  0  0  0  0  0
   -2.6879    1.9308    0.3667 H   0  0  0  0  0  0  0  0  0  0  0  0
   -2.8140   -0.9531   -0.6785 H   0  0  0  0  0  0  0  0  0  0  0  0
   -2.7814   -0.4585    1.1026 H   0  0  0  0  0  0  0  0  0  0  0  0
   -0.1918   -1.9273   -0.1307 H   0  0  0  0  0  0  0  0  0  0  0  0
    0.9080   -1.6540   -1.5243 H   0  0  0  0  0  0  0  0  0  0  0  0
  1  2  1  0
  2  3  1  0
  3  4  2  0
  4  5  1  0
  5  6  1  0
  6  7  1  0
  5  8  1  0
  8  9  1  0
  9  2  1  0
  7  5  1  0
  1 10  1  0
  1 11  1  0
  1 12  1  0
  2 13  1  0
  3 14  1  0
  4 15  1  0
  6 16  1  0
  6 17  1  0
  7 18  1  0
  7 19  1  0
  9 20  1  0
  9 21  1  0
M  END
