
     RDKit          3D

 21 22  0  0  0  0  0  0  0  0999 V2000
    2.7788    0.6327   -0.2639 C   0  0  0  0  0  0  0  0  0  0  0  0
    1.6152    0.5156    0.7239 C   0  0  0  0  0  0  0  0  0  0  0  0
    1.2304   -0.9169    0.8322 C   0  0  0  0  0  0  0  0  0  0  0  0
    0.2108   -1.1395    0.0109 C   0  0  0  0  0  0  0  0  0  0  0  0
   -0.0789    0.1714   -0.6481 C   0  0  0  0  0  0  0  0  0  0  0  0
   -1.5385    0.4062   -0.8652 C   0  0  0  0  0  0  0  0  0  0  0  0
   -2.4538    0.4340    0.3613 C   0  0  0  0  0  0  0  0  0  0  0  0
   -2.5530   -0.6611   -0.6565 C   0  0  0  0  0  0  0  0  0  0  0  0
    0.4702    1.1041    0.2452 O   0  0  0  0  0  0  0  0  0  0  0  0
    3.5607    1.2925    0.1806 H   0  0  0  0  0  0  0  0  0  0  0  0
    2.4427    0.9806   -1.2499 H   0  0  0  0  0  0  0  0  0  0  0  0
    3.2214   -0.3743   -0.4132 H   0  0  0  0  0  0  0  0  0  0  0  0
    1.9068    0.8721    1.7304 H   0  0  0  0  0  0  0  0  0  0  0  0
    1.7002   -1.6795    1.4790 H   0  0  0  0  0  0  0  0  0  0  0  0
   -0.2805   -2.0838   -0.1258 H   0  0  0  0  0  0  0  0  0  0  0  0
    0.4536    0.3025   -1.5999 H   0  0  0  0  0  0  0  0  0  0  0  0
   -1.7992    1.1108   -1.7053 H   0  0  0  0  0  0  0  0  0  0  0  0
   -3.2160    1.2297    0.4152 H   0  0  0  0  0  0  0  0  0  0  0  0
   -1.9469    0.1775    1.3318 H   0  0  0  0  0  0  0  0  0  0  0  0
   -3.4553   -0.7037   -1.3218 H   0  0  0  0  0  0  0  0  0  0  0  0
   -2.2689   -1.6711   -0.2994 H   0  0  0  0  0  0  0  0  0  0  0  0
  1  2  1  0
  2  3  1  0
  3  4  2  0
  4  5  1  0
  5  6  1  0
  6  7  1  0
  7  8  1  0
  5  9  1  0
  9  2  1  0
  8  6  1  0
  1 10  1  0
  1 11  1  0
  1 12  1  0
  2 13  1  0
  3 14  1  0
  4 15  1  0
  5 16  1  0
  6 17  1  0
  7 18  1  0
  7 19  1  0
  8 20  1  0
  8 21  1  0
M  END
