
     RDKit          3D

 20 21  0  0  0  0  0  0  0  0999 V2000
    2.0829    0.1244    0.6697 C   0  0  0  0  0  0  0  0  0  0  0  0
    0.6473   -0.2369    0.8879 C   0  0  0  0  0  0  0  0  0  0  0  0
   -0.3531    0.5088    0.1096 C   0  0  0  0  0  0  0  0  0  0  0  0
    0.1168    1.6440   -0.7260 C   0  0  0  0  0  0  0  0  0  0  0  0
   -1.8164    0.2238    0.1643 C   0  0  0  0  0  0  0  0  0  0  0  0
   -1.5303   -1.2742    0.1345 C   0  0  0  0  0  0  0  0  0  0  0  0
   -0.0824   -0.9015   -0.1930 C   0  0  0  0  0  0  0  0  0  0  0  0
    0.4793   -1.3397   -1.3575 O   0  0  0  0  0  0  0  0  0  0  0  0
    2.6992   -0.6617    1.1782 H   0  0  0  0  0  0  0  0  0  0  0  0
    2.3918    0.0683   -0.4085 H   0  0  0  0  0  0  0  0  0  0  0  0
    2.2463    1.1320    1.0936 H   0  0  0  0  0  0  0  0  0  0  0  0
    0.4355   -0.6183    1.9210 H   0  0  0  0  0  0  0  0  0  0  0  0
   -0.5077    1.8701   -1.6055 H   0  0  0  0  0  0  0  0  0  0  0  0
    1.1662    1.5563   -1.0786 H   0  0  0  0  0  0  0  0  0  0  0  0
    0.1137    2.5638   -0.0700 H   0  0  0  0  0  0  0  0  0  0  0  0
   -2.2781    0.5845    1.0946 H   0  0  0  0  0  0  0  0  0  0  0  0
   -2.3569    0.5897   -0.7529 H   0  0  0  0  0  0  0  0  0  0  0  0
   -1.9917   -1.8295   -0.6796 H   0  0  0  0  0  0  0  0  0  0  0  0
   -1.5730   -1.7397    1.1506 H   0  0  0  0  0  0  0  0  0  0  0  0
    0.1107   -2.2643   -1.5320 H   0  0  0  0  0  0  0  0  0  0  0  0
  1  2  1  0
  2  3  1  0
  3  4  1  0
  3  5  1  0
  5  6  1  0
  6  7  1  0
  7  8  1  0
  7  2  1  0
  7  3  1  0
  1  9  1  0
  1 10  1  0
  1 11  1  0
  2 12  1  0
  4 13  1  0
  4 14  1  0
  4 15  1  0
  5 16  1  0
  5 17  1  0
  6 18  1  0
  6 19  1  0
  8 20  1  0
M  END
