
     RDKit          3D

 18 18  0  0  0  0  0  0  0  0999 V2000
   -1.1933   -1.1432   -0.5125 C   0  0  0  0  0  0  0  0  0  0  0  0
   -0.4873   -0.4728    0.6360 C   0  0  0  0  0  0  0  0  0  0  0  0
   -0.5853    1.0168    0.4705 C   0  0  0  0  0  0  0  0  0  0  0  0
    0.0344    1.5018   -0.8243 C   0  0  0  0  0  0  0  0  0  0  0  0
    1.3391    0.9846   -0.9362 O   0  0  0  0  0  0  0  0  0  0  0  0
    1.8127   -0.0838   -0.2174 C   0  0  0  0  0  0  0  0  0  0  0  0
    2.9987   -0.4248   -0.3622 O   0  0  0  0  0  0  0  0  0  0  0  0
    0.9708   -0.8418    0.7185 C   0  0  0  0  0  0  0  0  0  0  0  0
   -1.2765   -2.2429   -0.3311 H   0  0  0  0  0  0  0  0  0  0  0  0
   -0.7627   -0.9053   -1.4940 H   0  0  0  0  0  0  0  0  0  0  0  0
   -2.2412   -0.7656   -0.5067 H   0  0  0  0  0  0  0  0  0  0  0  0
   -0.9764   -0.7592    1.5630 H   0  0  0  0  0  0  0  0  0  0  0  0
   -1.6557    1.2921    0.4933 H   0  0  0  0  0  0  0  0  0  0  0  0
   -0.0024    1.5079    1.2925 H   0  0  0  0  0  0  0  0  0  0  0  0
    0.1409    2.6134   -0.7093 H   0  0  0  0  0  0  0  0  0  0  0  0
   -0.5438    1.2097   -1.7044 H   0  0  0  0  0  0  0  0  0  0  0  0
    1.1227   -1.9406    0.6682 H   0  0  0  0  0  0  0  0  0  0  0  0
    1.3056   -0.5461    1.7562 H   0  0  0  0  0  0  0  0  0  0  0  0
  1  2  1  0
  2  3  1  0
  3  4  1  0
  4  5  1  0
  5  6  1  0
  6  7  2  0
  6  8  1  0
  8  2  1  0
  1  9  1  0
  1 10  1  0
  1 11  1  0
  2 12  1  0
  3 13  1  0
  3 14  1  0
  4 15  1  0
  4 16  1  0
  8 17  1  0
  8 18  1  0
M  END
