
     RDKit          3D

 21 21  0  0  0  0  0  0  0  0999 V2000
   -1.6402   -1.5462   -0.3188 C   0  0  0  0  0  0  0  0  0  0  0  0
   -0.7534   -0.3304   -0.4871 C   0  0  0  0  0  0  0  0  0  0  0  0
   -1.1708    0.9706    0.1765 C   0  0  0  0  0  0  0  0  0  0  0  0
   -2.4907    0.8904    0.8413 C   0  0  0  0  0  0  0  0  0  0  0  0
   -2.8741   -0.1173    1.4254 O   0  0  0  0  0  0  0  0  0  0  0  0
   -0.0139    0.1917    0.6789 C   0  0  0  0  0  0  0  0  0  0  0  0
    1.3557    0.7724    0.5129 C   0  0  0  0  0  0  0  0  0  0  0  0
    2.3568   -0.2085   -0.0552 C   0  0  0  0  0  0  0  0  0  0  0  0
    3.5804    0.4814   -0.1485 O   0  0  0  0  0  0  0  0  0  0  0  0
   -2.7030   -1.3202   -0.5711 H   0  0  0  0  0  0  0  0  0  0  0  0
   -1.6045   -1.9488    0.7141 H   0  0  0  0  0  0  0  0  0  0  0  0
   -1.2914   -2.3355   -0.9905 H   0  0  0  0  0  0  0  0  0  0  0  0
   -0.3718   -0.1709   -1.5314 H   0  0  0  0  0  0  0  0  0  0  0  0
   -0.9393    1.9206   -0.3114 H   0  0  0  0  0  0  0  0  0  0  0  0
   -3.1541    1.7469    0.8192 H   0  0  0  0  0  0  0  0  0  0  0  0
   -0.1301   -0.3983    1.6322 H   0  0  0  0  0  0  0  0  0  0  0  0
    1.2999    1.6385   -0.2046 H   0  0  0  0  0  0  0  0  0  0  0  0
    1.7219    1.2051    1.4605 H   0  0  0  0  0  0  0  0  0  0  0  0
    2.4779   -1.1045    0.5503 H   0  0  0  0  0  0  0  0  0  0  0  0
    2.1019   -0.4980   -1.0942 H   0  0  0  0  0  0  0  0  0  0  0  0
    4.2430    0.1608    0.4899 H   0  0  0  0  0  0  0  0  0  0  0  0
  1  2  1  0
  2  3  1  0
  3  4  1  0
  4  5  2  0
  3  6  1  0
  6  7  1  0
  7  8  1  0
  8  9  1  0
  6  2  1  0
  1 10  1  0
  1 11  1  0
  1 12  1  0
  2 13  1  0
  3 14  1  0
  4 15  1  0
  6 16  1  0
  7 17  1  0
  7 18  1  0
  8 19  1  0
  8 20  1  0
  9 21  1  0
M  END
