
     RDKit          3D

 19 19  0  0  0  0  0  0  0  0999 V2000
    1.6779   -1.0414    0.4267 C   0  0  0  0  0  0  0  0  0  0  0  0
    1.0347    0.2080   -0.0672 C   0  0  0  0  0  0  0  0  0  0  0  0
    0.5661    0.1399   -1.4609 C   0  0  0  0  0  0  0  0  0  0  0  0
    1.0157   -0.6009   -2.3915 O   0  0  0  0  0  0  0  0  0  0  0  0
   -0.4746    1.0533   -1.5612 O   0  0  0  0  0  0  0  0  0  0  0  0
   -0.7441    1.6499   -0.3076 C   0  0  0  0  0  0  0  0  0  0  0  0
   -0.2336    0.5735    0.6558 C   0  0  0  0  0  0  0  0  0  0  0  0
   -1.2440   -0.5442    0.6619 C   0  0  0  0  0  0  0  0  0  0  0  0
   -1.5787   -0.8702   -0.6578 O   0  0  0  0  0  0  0  0  0  0  0  0
    1.8028   -0.9384    1.5323 H   0  0  0  0  0  0  0  0  0  0  0  0
    2.7260   -1.0551    0.0152 H   0  0  0  0  0  0  0  0  0  0  0  0
    1.1309   -1.9506    0.1445 H   0  0  0  0  0  0  0  0  0  0  0  0
    1.7319    1.0641    0.0459 H   0  0  0  0  0  0  0  0  0  0  0  0
   -1.7956    1.8781   -0.1474 H   0  0  0  0  0  0  0  0  0  0  0  0
   -0.0595    2.5159   -0.1953 H   0  0  0  0  0  0  0  0  0  0  0  0
   -0.0783    1.0104    1.6467 H   0  0  0  0  0  0  0  0  0  0  0  0
   -2.1744   -0.2897    1.1727 H   0  0  0  0  0  0  0  0  0  0  0  0
   -0.8548   -1.4775    1.1183 H   0  0  0  0  0  0  0  0  0  0  0  0
   -2.4483   -1.3252   -0.6310 H   0  0  0  0  0  0  0  0  0  0  0  0
  1  2  1  0
  2  3  1  0
  3  4  2  0
  3  5  1  0
  5  6  1  0
  6  7  1  0
  7  8  1  0
  8  9  1  0
  7  2  1  0
  1 10  1  0
  1 11  1  0
  1 12  1  0
  2 13  1  0
  6 14  1  0
  6 15  1  0
  7 16  1  0
  8 17  1  0
  8 18  1  0
  9 19  1  0
M  END
