
     RDKit          3D

 19 19  0  0  0  0  0  0  0  0999 V2000
    0.5417   -1.4656   -1.1422 C   0  0  0  0  0  0  0  0  0  0  0  0
    0.2678   -0.7671    0.1644 C   0  0  0  0  0  0  0  0  0  0  0  0
    0.8645    0.5600    0.2641 C   0  0  0  0  0  0  0  0  0  0  0  0
    2.2376    0.9585   -0.1483 C   0  0  0  0  0  0  0  0  0  0  0  0
    2.9931    0.1003   -0.6358 O   0  0  0  0  0  0  0  0  0  0  0  0
   -0.0021    1.3955    0.7872 C   0  0  0  0  0  0  0  0  0  0  0  0
   -1.2856    0.7514    1.1059 C   0  0  0  0  0  0  0  0  0  0  0  0
   -1.2203   -0.5061    0.2217 C   0  0  0  0  0  0  0  0  0  0  0  0
   -1.7107   -0.1790   -1.0326 O   0  0  0  0  0  0  0  0  0  0  0  0
   -0.0432   -2.4106   -1.1307 H   0  0  0  0  0  0  0  0  0  0  0  0
    1.6002   -1.6735   -1.3219 H   0  0  0  0  0  0  0  0  0  0  0  0
    0.0857   -0.8264   -1.9471 H   0  0  0  0  0  0  0  0  0  0  0  0
    0.4926   -1.4201    1.0427 H   0  0  0  0  0  0  0  0  0  0  0  0
    2.5742    1.9611   -0.0306 H   0  0  0  0  0  0  0  0  0  0  0  0
    0.2032    2.4635    0.9700 H   0  0  0  0  0  0  0  0  0  0  0  0
   -1.2596    0.4657    2.1760 H   0  0  0  0  0  0  0  0  0  0  0  0
   -2.1318    1.3879    0.8394 H   0  0  0  0  0  0  0  0  0  0  0  0
   -1.7860   -1.2833    0.7408 H   0  0  0  0  0  0  0  0  0  0  0  0
   -2.4213    0.4878   -0.9228 H   0  0  0  0  0  0  0  0  0  0  0  0
  1  2  1  0
  2  3  1  0
  3  4  1  0
  4  5  2  0
  3  6  2  0
  6  7  1  0
  7  8  1  0
  8  9  1  0
  8  2  1  0
  1 10  1  0
  1 11  1  0
  1 12  1  0
  2 13  1  0
  4 14  1  0
  6 15  1  0
  7 16  1  0
  7 17  1  0
  8 18  1  0
  9 19  1  0
M  END
