
     RDKit          3D

 23 23  0  0  0  0  0  0  0  0999 V2000
   -0.7199    1.8078   -0.4309 C   0  0  0  0  0  0  0  0  0  0  0  0
   -0.3372    0.7710    0.5905 C   0  0  0  0  0  0  0  0  0  0  0  0
    1.1439    0.6082    0.7228 C   0  0  0  0  0  0  0  0  0  0  0  0
    1.7583   -0.4030   -0.1558 C   0  0  0  0  0  0  0  0  0  0  0  0
    2.7469   -1.1067    0.5717 O   0  0  0  0  0  0  0  0  0  0  0  0
    0.8359   -1.4213   -0.7298 C   0  0  0  0  0  0  0  0  0  0  0  0
   -0.4573   -1.0088   -0.9038 O   0  0  0  0  0  0  0  0  0  0  0  0
   -0.9618   -0.5664    0.3315 C   0  0  0  0  0  0  0  0  0  0  0  0
   -2.4533   -0.5306    0.2141 C   0  0  0  0  0  0  0  0  0  0  0  0
    0.2220    2.0926   -0.9634 H   0  0  0  0  0  0  0  0  0  0  0  0
   -1.3797    1.3823   -1.2304 H   0  0  0  0  0  0  0  0  0  0  0  0
   -1.1679    2.7207    0.0189 H   0  0  0  0  0  0  0  0  0  0  0  0
   -0.7385    1.1309    1.5738 H   0  0  0  0  0  0  0  0  0  0  0  0
    1.6152    1.5999    0.5146 H   0  0  0  0  0  0  0  0  0  0  0  0
    1.3808    0.3914    1.7892 H   0  0  0  0  0  0  0  0  0  0  0  0
    2.3330    0.0836   -0.9954 H   0  0  0  0  0  0  0  0  0  0  0  0
    3.3024   -0.4159    1.0077 H   0  0  0  0  0  0  0  0  0  0  0  0
    0.8472   -2.3579   -0.1067 H   0  0  0  0  0  0  0  0  0  0  0  0
    1.2289   -1.7534   -1.7304 H   0  0  0  0  0  0  0  0  0  0  0  0
   -0.6725   -1.2373    1.1633 H   0  0  0  0  0  0  0  0  0  0  0  0
   -2.8040   -1.6039    0.2725 H   0  0  0  0  0  0  0  0  0  0  0  0
   -2.9657   -0.0131    1.0362 H   0  0  0  0  0  0  0  0  0  0  0  0
   -2.7566   -0.1701   -0.7854 H   0  0  0  0  0  0  0  0  0  0  0  0
  1  2  1  0
  2  3  1  0
  3  4  1  0
  4  5  1  0
  4  6  1  0
  6  7  1  0
  7  8  1  0
  8  9  1  0
  8  2  1  0
  1 10  1  0
  1 11  1  0
  1 12  1  0
  2 13  1  0
  3 14  1  0
  3 15  1  0
  4 16  1  0
  5 17  1  0
  6 18  1  0
  6 19  1  0
  8 20  1  0
  9 21  1  0
  9 22  1  0
  9 23  1  0
M  END
