
     RDKit          3D

 19 20  0  0  0  0  0  0  0  0999 V2000
   -1.9278   -0.3834   -0.2890 C   0  0  0  0  0  0  0  0  0  0  0  0
   -0.5956    0.0983   -0.8793 C   0  0  0  0  0  0  0  0  0  0  0  0
    0.1607    1.0206    0.0019 C   0  0  0  0  0  0  0  0  0  0  0  0
   -0.5493    1.7122    1.0678 C   0  0  0  0  0  0  0  0  0  0  0  0
    0.0928    2.2551    1.9472 O   0  0  0  0  0  0  0  0  0  0  0  0
    1.0431   -0.1309    0.3931 C   0  0  0  0  0  0  0  0  0  0  0  0
    0.9938   -0.6878    1.6360 O   0  0  0  0  0  0  0  0  0  0  0  0
    1.8925   -0.6525   -0.7042 C   0  0  0  0  0  0  0  0  0  0  0  0
    0.4597   -0.9431   -0.7178 C   0  0  0  0  0  0  0  0  0  0  0  0
   -2.0014   -1.5027   -0.4083 H   0  0  0  0  0  0  0  0  0  0  0  0
   -1.9697   -0.2108    0.8043 H   0  0  0  0  0  0  0  0  0  0  0  0
   -2.7826    0.0320   -0.8392 H   0  0  0  0  0  0  0  0  0  0  0  0
   -0.7371    0.5030   -1.9153 H   0  0  0  0  0  0  0  0  0  0  0  0
    0.7715    1.7512   -0.6070 H   0  0  0  0  0  0  0  0  0  0  0  0
   -1.6255    1.7740    1.1268 H   0  0  0  0  0  0  0  0  0  0  0  0
    1.7793   -1.2805    1.7464 H   0  0  0  0  0  0  0  0  0  0  0  0
    2.2901    0.1080   -1.4020 H   0  0  0  0  0  0  0  0  0  0  0  0
    2.5667   -1.4716   -0.4129 H   0  0  0  0  0  0  0  0  0  0  0  0
    0.1393   -1.9912   -0.5484 H   0  0  0  0  0  0  0  0  0  0  0  0
  1  2  1  0
  2  3  1  0
  3  4  1  0
  4  5  2  0
  3  6  1  0
  6  7  1  0
  6  8  1  0
  8  9  1  0
  9  2  1  0
  9  6  1  0
  1 10  1  0
  1 11  1  0
  1 12  1  0
  2 13  1  0
  3 14  1  0
  4 15  1  0
  7 16  1  0
  8 17  1  0
  8 18  1  0
  9 19  1  0
M  END
