
     RDKit          3D

 25 26  0  0  0  0  0  0  0  0999 V2000
   -2.9634   -0.2286    1.0022 C   0  0  0  0  0  0  0  0  0  0  0  0
   -1.9285    0.5093    0.1788 C   0  0  0  0  0  0  0  0  0  0  0  0
   -1.6035   -0.1215   -1.1334 C   0  0  0  0  0  0  0  0  0  0  0  0
   -0.6279   -0.1675    0.0497 C   0  0  0  0  0  0  0  0  0  0  0  0
    0.6517    0.5555   -0.1917 C   0  0  0  0  0  0  0  0  0  0  0  0
    0.6496    1.3525   -1.4745 C   0  0  0  0  0  0  0  0  0  0  0  0
    1.7588   -0.4597   -0.1799 C   0  0  0  0  0  0  0  0  0  0  0  0
    1.8647   -1.2124    1.1476 C   0  0  0  0  0  0  0  0  0  0  0  0
    2.9515   -0.3371    0.6551 C   0  0  0  0  0  0  0  0  0  0  0  0
   -2.7936   -0.0441    2.1017 H   0  0  0  0  0  0  0  0  0  0  0  0
   -2.8860   -1.3350    0.8442 H   0  0  0  0  0  0  0  0  0  0  0  0
   -3.9886    0.0896    0.7748 H   0  0  0  0  0  0  0  0  0  0  0  0
   -1.9979    1.6030    0.2341 H   0  0  0  0  0  0  0  0  0  0  0  0
   -1.4051    0.5510   -1.9645 H   0  0  0  0  0  0  0  0  0  0  0  0
   -2.0698   -1.0968   -1.4247 H   0  0  0  0  0  0  0  0  0  0  0  0
   -0.5078   -1.1674    0.5389 H   0  0  0  0  0  0  0  0  0  0  0  0
    0.7954    1.3068    0.6351 H   0  0  0  0  0  0  0  0  0  0  0  0
    0.6384    0.7276   -2.3693 H   0  0  0  0  0  0  0  0  0  0  0  0
   -0.1664    2.0850   -1.4418 H   0  0  0  0  0  0  0  0  0  0  0  0
    1.6112    1.9463   -1.4672 H   0  0  0  0  0  0  0  0  0  0  0  0
    1.7849   -1.1081   -1.0917 H   0  0  0  0  0  0  0  0  0  0  0  0
    1.9262   -2.3123    1.0808 H   0  0  0  0  0  0  0  0  0  0  0  0
    1.2851   -0.8555    2.0081 H   0  0  0  0  0  0  0  0  0  0  0  0
    3.8599   -0.8951    0.2896 H   0  0  0  0  0  0  0  0  0  0  0  0
    3.1612    0.6144    1.1978 H   0  0  0  0  0  0  0  0  0  0  0  0
  1  2  1  0
  2  3  1  0
  3  4  1  0
  4  5  1  0
  5  6  1  0
  5  7  1  0
  7  8  1  0
  8  9  1  0
  4  2  1  0
  9  7  1  0
  1 10  1  0
  1 11  1  0
  1 12  1  0
  2 13  1  0
  3 14  1  0
  3 15  1  0
  4 16  1  0
  5 17  1  0
  6 18  1  0
  6 19  1  0
  6 20  1  0
  7 21  1  0
  8 22  1  0
  8 23  1  0
  9 24  1  0
  9 25  1  0
M  END
