
     RDKit          3D

 19 20  0  0  0  0  0  0  0  0999 V2000
    1.9026    0.3203    0.0794 C   0  0  0  0  0  0  0  0  0  0  0  0
    0.6480   -0.1905    0.6858 C   0  0  0  0  0  0  0  0  0  0  0  0
   -0.0845   -1.2725   -0.0624 C   0  0  0  0  0  0  0  0  0  0  0  0
   -0.2858   -0.6644   -1.4058 C   0  0  0  0  0  0  0  0  0  0  0  0
   -0.6684    0.6519   -1.0334 O   0  0  0  0  0  0  0  0  0  0  0  0
   -0.6193    0.6046    0.3298 C   0  0  0  0  0  0  0  0  0  0  0  0
   -0.9324    1.7370    1.1322 C   0  0  0  0  0  0  0  0  0  0  0  0
   -0.8864    1.6872    2.3478 O   0  0  0  0  0  0  0  0  0  0  0  0
   -1.3278   -0.7189    0.6584 C   0  0  0  0  0  0  0  0  0  0  0  0
    2.4519    0.9028    0.8578 H   0  0  0  0  0  0  0  0  0  0  0  0
    2.5875   -0.5195   -0.1915 H   0  0  0  0  0  0  0  0  0  0  0  0
    1.7698    0.9947   -0.7819 H   0  0  0  0  0  0  0  0  0  0  0  0
    0.6910   -0.3070    1.7818 H   0  0  0  0  0  0  0  0  0  0  0  0
    0.1563   -2.2862    0.0750 H   0  0  0  0  0  0  0  0  0  0  0  0
   -1.1985   -1.0797   -1.9070 H   0  0  0  0  0  0  0  0  0  0  0  0
    0.5926   -0.6625   -2.0578 H   0  0  0  0  0  0  0  0  0  0  0  0
   -1.2222    2.6815    0.6948 H   0  0  0  0  0  0  0  0  0  0  0  0
   -2.2609   -0.8810    0.1177 H   0  0  0  0  0  0  0  0  0  0  0  0
   -1.3133   -0.9976    1.7090 H   0  0  0  0  0  0  0  0  0  0  0  0
  1  2  1  0
  2  3  1  0
  3  4  1  0
  4  5  1  0
  5  6  1  0
  6  7  1  0
  7  8  2  0
  6  9  1  0
  6  2  1  0
  9  3  1  0
  1 10  1  0
  1 11  1  0
  1 12  1  0
  2 13  1  0
  3 14  1  0
  4 15  1  0
  4 16  1  0
  7 17  1  0
  9 18  1  0
  9 19  1  0
M  END
