
     RDKit          3D

 23 24  0  0  0  0  0  0  0  0999 V2000
   -2.1424    1.2025    0.4508 C   0  0  0  0  0  0  0  0  0  0  0  0
   -1.7501   -0.1215   -0.1772 C   0  0  0  0  0  0  0  0  0  0  0  0
   -1.3210   -1.1304    0.8363 C   0  0  0  0  0  0  0  0  0  0  0  0
    0.1906   -1.0470    0.9469 C   0  0  0  0  0  0  0  0  0  0  0  0
    0.5350    0.2077    0.2124 C   0  0  0  0  0  0  0  0  0  0  0  0
    1.9446    0.2785   -0.2696 C   0  0  0  0  0  0  0  0  0  0  0  0
    3.1124    0.2269    0.5452 C   0  0  0  0  0  0  0  0  0  0  0  0
    2.6631   -0.9327   -0.0830 O   0  0  0  0  0  0  0  0  0  0  0  0
   -0.4546    0.1544   -0.9529 C   0  0  0  0  0  0  0  0  0  0  0  0
   -1.6602    1.3921    1.4087 H   0  0  0  0  0  0  0  0  0  0  0  0
   -3.2444    1.2859    0.6003 H   0  0  0  0  0  0  0  0  0  0  0  0
   -1.8775    1.9971   -0.2781 H   0  0  0  0  0  0  0  0  0  0  0  0
   -2.5316   -0.4657   -0.8571 H   0  0  0  0  0  0  0  0  0  0  0  0
   -1.5923   -2.1393    0.4374 H   0  0  0  0  0  0  0  0  0  0  0  0
   -1.8173   -1.0257    1.8168 H   0  0  0  0  0  0  0  0  0  0  0  0
    0.6557   -1.9282    0.4172 H   0  0  0  0  0  0  0  0  0  0  0  0
    0.4982   -1.0630    1.9980 H   0  0  0  0  0  0  0  0  0  0  0  0
    0.2902    1.0761    0.8687 H   0  0  0  0  0  0  0  0  0  0  0  0
    2.0435    0.6732   -1.3190 H   0  0  0  0  0  0  0  0  0  0  0  0
    3.0910    0.2409    1.6607 H   0  0  0  0  0  0  0  0  0  0  0  0
    4.0547    0.7114    0.1628 H   0  0  0  0  0  0  0  0  0  0  0  0
   -0.1975   -0.7082   -1.5829 H   0  0  0  0  0  0  0  0  0  0  0  0
   -0.4902    1.1147   -1.4707 H   0  0  0  0  0  0  0  0  0  0  0  0
  1  2  1  0
  2  3  1  0
  3  4  1  0
  4  5  1  0
  5  6  1  0
  6  7  1  0
  7  8  1  0
  5  9  1  0
  9  2  1  0
  8  6  1  0
  1 10  1  0
  1 11  1  0
  1 12  1  0
  2 13  1  0
  3 14  1  0
  3 15  1  0
  4 16  1  0
  4 17  1  0
  5 18  1  0
  6 19  1  0
  7 20  1  0
  7 21  1  0
  9 22  1  0
  9 23  1  0
M  END
