
     RDKit          3D

 19 20  0  0  0  0  0  0  0  0999 V2000
    1.9351   -0.1005   -0.7043 C   0  0  0  0  0  0  0  0  0  0  0  0
    0.9626    0.0621    0.4047 C   0  0  0  0  0  0  0  0  0  0  0  0
   -0.0025   -1.1154    0.5326 C   0  0  0  0  0  0  0  0  0  0  0  0
   -1.3646   -0.4872    0.4319 C   0  0  0  0  0  0  0  0  0  0  0  0
   -1.4462    0.0783   -0.9854 C   0  0  0  0  0  0  0  0  0  0  0  0
   -0.5701    1.1659   -1.0043 O   0  0  0  0  0  0  0  0  0  0  0  0
    0.0384    1.2496    0.2408 C   0  0  0  0  0  0  0  0  0  0  0  0
   -1.0809    0.8119    1.1318 C   0  0  0  0  0  0  0  0  0  0  0  0
   -1.5852    1.3269    2.0881 O   0  0  0  0  0  0  0  0  0  0  0  0
    1.9408   -1.1703   -1.0408 H   0  0  0  0  0  0  0  0  0  0  0  0
    2.9599    0.1239   -0.3158 H   0  0  0  0  0  0  0  0  0  0  0  0
    1.7503    0.5334   -1.5872 H   0  0  0  0  0  0  0  0  0  0  0  0
    1.4843    0.1282    1.3974 H   0  0  0  0  0  0  0  0  0  0  0  0
    0.1609   -1.7204   -0.4054 H   0  0  0  0  0  0  0  0  0  0  0  0
    0.1617   -1.6970    1.4452 H   0  0  0  0  0  0  0  0  0  0  0  0
   -2.2002   -1.0326    0.7712 H   0  0  0  0  0  0  0  0  0  0  0  0
   -1.1077   -0.7390   -1.6569 H   0  0  0  0  0  0  0  0  0  0  0  0
   -2.4931    0.3754   -1.2217 H   0  0  0  0  0  0  0  0  0  0  0  0
    0.4565    2.2068    0.4782 H   0  0  0  0  0  0  0  0  0  0  0  0
  1  2  1  0
  2  3  1  0
  3  4  1  0
  4  5  1  0
  5  6  1  0
  6  7  1  0
  7  8  1  0
  8  9  2  0
  7  2  1  0
  8  4  1  0
  1 10  1  0
  1 11  1  0
  1 12  1  0
  2 13  1  0
  3 14  1  0
  3 15  1  0
  4 16  1  0
  5 17  1  0
  5 18  1  0
  7 19  1  0
M  END
