
     RDKit          3D

 17 18  0  0  0  0  0  0  0  0999 V2000
   -1.7740   -0.3353   -0.7013 C   0  0  0  0  0  0  0  0  0  0  0  0
   -0.5487   -0.6145    0.1361 C   0  0  0  0  0  0  0  0  0  0  0  0
   -0.7398    0.0970    1.4482 C   0  0  0  0  0  0  0  0  0  0  0  0
   -1.5488   -0.3065    2.3093 O   0  0  0  0  0  0  0  0  0  0  0  0
    0.1095    1.2013    1.4796 O   0  0  0  0  0  0  0  0  0  0  0  0
    0.6606    1.3953    0.1750 C   0  0  0  0  0  0  0  0  0  0  0  0
    0.6905    0.0247   -0.3708 C   0  0  0  0  0  0  0  0  0  0  0  0
    1.9819   -0.7065   -0.2994 C   0  0  0  0  0  0  0  0  0  0  0  0
    1.3487   -0.3551   -1.4863 O   0  0  0  0  0  0  0  0  0  0  0  0
   -1.7656    0.7094   -1.0693 H   0  0  0  0  0  0  0  0  0  0  0  0
   -2.6656   -0.4955   -0.0583 H   0  0  0  0  0  0  0  0  0  0  0  0
   -1.8079   -0.9784   -1.6101 H   0  0  0  0  0  0  0  0  0  0  0  0
   -0.3960   -1.6928    0.2692 H   0  0  0  0  0  0  0  0  0  0  0  0
    1.6371    1.9082    0.2319 H   0  0  0  0  0  0  0  0  0  0  0  0
   -0.0346    2.0669   -0.4014 H   0  0  0  0  0  0  0  0  0  0  0  0
    2.9432   -0.1883   -0.1461 H   0  0  0  0  0  0  0  0  0  0  0  0
    1.9097   -1.7300    0.0937 H   0  0  0  0  0  0  0  0  0  0  0  0
  1  2  1  0
  2  3  1  0
  3  4  2  0
  3  5  1  0
  5  6  1  0
  6  7  1  0
  7  8  1  0
  8  9  1  0
  7  2  1  0
  9  7  1  0
  1 10  1  0
  1 11  1  0
  1 12  1  0
  2 13  1  0
  6 14  1  0
  6 15  1  0
  8 16  1  0
  8 17  1  0
M  END
