
     RDKit          3D

 19 21  0  0  0  0  0  0  0  0999 V2000
    2.4902   -0.5905   -0.2817 C   0  0  0  0  0  0  0  0  0  0  0  0
    1.3841   -0.0063    0.6208 C   0  0  0  0  0  0  0  0  0  0  0  0
    0.6687    1.0857    0.1696 C   0  0  0  0  0  0  0  0  0  0  0  0
    0.0656   -0.2268    0.1649 C   0  0  0  0  0  0  0  0  0  0  0  0
   -0.4043   -1.1829    0.9604 O   0  0  0  0  0  0  0  0  0  0  0  0
   -1.5186   -1.4085    0.1176 C   0  0  0  0  0  0  0  0  0  0  0  0
   -1.2902    0.0243   -0.1437 C   0  0  0  0  0  0  0  0  0  0  0  0
   -2.0991    1.0270   -0.5679 C   0  0  0  0  0  0  0  0  0  0  0  0
   -2.0243    0.8487    0.8552 O   0  0  0  0  0  0  0  0  0  0  0  0
    3.4831   -0.3529    0.0836 H   0  0  0  0  0  0  0  0  0  0  0  0
    2.3575   -1.6663   -0.4278 H   0  0  0  0  0  0  0  0  0  0  0  0
    2.4029   -0.1155   -1.3015 H   0  0  0  0  0  0  0  0  0  0  0  0
    1.7740    0.0156    1.6859 H   0  0  0  0  0  0  0  0  0  0  0  0
    0.3880    1.9161    0.8837 H   0  0  0  0  0  0  0  0  0  0  0  0
    0.8346    1.5130   -0.8530 H   0  0  0  0  0  0  0  0  0  0  0  0
   -1.2220   -2.0723   -0.7046 H   0  0  0  0  0  0  0  0  0  0  0  0
   -2.4314   -1.6941    0.6446 H   0  0  0  0  0  0  0  0  0  0  0  0
   -1.7077    2.0141   -0.8889 H   0  0  0  0  0  0  0  0  0  0  0  0
   -3.1510    0.8715   -0.9067 H   0  0  0  0  0  0  0  0  0  0  0  0
  1  2  1  0
  2  3  1  0
  3  4  1  0
  4  5  1  0
  5  6  1  0
  6  7  1  0
  7  8  1  0
  8  9  1  0
  4  2  1  0
  9  7  1  0
  7  4  1  0
  1 10  1  0
  1 11  1  0
  1 12  1  0
  2 13  1  0
  3 14  1  0
  3 15  1  0
  6 16  1  0
  6 17  1  0
  8 18  1  0
  8 19  1  0
M  END
