
     RDKit          3D

 21 22  0  0  0  0  0  0  0  0999 V2000
    2.0574   -0.7302   -0.0720 C   0  0  0  0  0  0  0  0  0  0  0  0
    0.5740   -0.7567    0.0689 C   0  0  0  0  0  0  0  0  0  0  0  0
    0.0095    0.2778   -0.9137 C   0  0  0  0  0  0  0  0  0  0  0  0
   -1.4990    0.0692   -0.8981 C   0  0  0  0  0  0  0  0  0  0  0  0
   -1.8884   -0.4140    0.4692 C   0  0  0  0  0  0  0  0  0  0  0  0
   -1.1495    0.1433    1.4914 O   0  0  0  0  0  0  0  0  0  0  0  0
    0.2081   -0.0402    1.3766 C   0  0  0  0  0  0  0  0  0  0  0  0
    0.7607    1.2284    1.0810 O   0  0  0  0  0  0  0  0  0  0  0  0
    0.3422    1.5555   -0.1855 C   0  0  0  0  0  0  0  0  0  0  0  0
    2.5059    0.1275    0.4612 H   0  0  0  0  0  0  0  0  0  0  0  0
    2.2935   -0.6919   -1.1715 H   0  0  0  0  0  0  0  0  0  0  0  0
    2.4607   -1.6855    0.3145 H   0  0  0  0  0  0  0  0  0  0  0  0
    0.1026   -1.7256   -0.0267 H   0  0  0  0  0  0  0  0  0  0  0  0
    0.4476    0.1951   -1.9051 H   0  0  0  0  0  0  0  0  0  0  0  0
   -1.9746    1.0489   -1.0627 H   0  0  0  0  0  0  0  0  0  0  0  0
   -1.7891   -0.6783   -1.6640 H   0  0  0  0  0  0  0  0  0  0  0  0
   -2.9598   -0.1601    0.6725 H   0  0  0  0  0  0  0  0  0  0  0  0
   -1.8376   -1.5270    0.5705 H   0  0  0  0  0  0  0  0  0  0  0  0
    0.6919   -0.4863    2.2384 H   0  0  0  0  0  0  0  0  0  0  0  0
    1.1817    2.0312   -0.7531 H   0  0  0  0  0  0  0  0  0  0  0  0
   -0.5379    2.2191   -0.0918 H   0  0  0  0  0  0  0  0  0  0  0  0
  1  2  1  0
  2  3  1  0
  3  4  1  0
  4  5  1  0
  5  6  1  0
  6  7  1  0
  7  8  1  0
  8  9  1  0
  7  2  1  0
  9  3  1  0
  1 10  1  0
  1 11  1  0
  1 12  1  0
  2 13  1  0
  3 14  1  0
  4 15  1  0
  4 16  1  0
  5 17  1  0
  5 18  1  0
  7 19  1  0
  9 20  1  0
  9 21  1  0
M  END
