
     RDKit          3D

 18 19  0  0  0  0  0  0  0  0999 V2000
   -1.5664    1.1335   -0.5922 C   0  0  0  0  0  0  0  0  0  0  0  0
   -0.6119    0.4986    0.3716 C   0  0  0  0  0  0  0  0  0  0  0  0
   -0.9510   -0.9156    0.7429 C   0  0  0  0  0  0  0  0  0  0  0  0
    0.5291   -1.2132    0.5775 C   0  0  0  0  0  0  0  0  0  0  0  0
    0.9773   -1.1992   -0.8288 C   0  0  0  0  0  0  0  0  0  0  0  0
    0.7068    0.0684   -0.1545 C   0  0  0  0  0  0  0  0  0  0  0  0
    1.8325    0.9697    0.0963 C   0  0  0  0  0  0  0  0  0  0  0  0
    1.8746    1.7466    1.0308 O   0  0  0  0  0  0  0  0  0  0  0  0
   -1.7738    0.5449   -1.4826 H   0  0  0  0  0  0  0  0  0  0  0  0
   -2.5488    1.2465   -0.0507 H   0  0  0  0  0  0  0  0  0  0  0  0
   -1.2313    2.1310   -0.8778 H   0  0  0  0  0  0  0  0  0  0  0  0
   -0.5256    1.1219    1.2871 H   0  0  0  0  0  0  0  0  0  0  0  0
   -1.5136   -1.4629   -0.0473 H   0  0  0  0  0  0  0  0  0  0  0  0
   -1.3594   -1.0921    1.7375 H   0  0  0  0  0  0  0  0  0  0  0  0
    1.1395   -1.5052    1.4199 H   0  0  0  0  0  0  0  0  0  0  0  0
    2.0405   -1.4629   -0.9869 H   0  0  0  0  0  0  0  0  0  0  0  0
    0.3147   -1.5414   -1.6455 H   0  0  0  0  0  0  0  0  0  0  0  0
    2.6668    0.9312   -0.5973 H   0  0  0  0  0  0  0  0  0  0  0  0
  1  2  1  0
  2  3  1  0
  3  4  1  0
  4  5  1  0
  5  6  1  0
  6  7  1  0
  7  8  2  0
  6  2  1  0
  6  4  1  0
  1  9  1  0
  1 10  1  0
  1 11  1  0
  2 12  1  0
  3 13  1  0
  3 14  1  0
  4 15  1  0
  5 16  1  0
  5 17  1  0
  7 18  1  0
M  END
