
     RDKit          3D

 19 20  0  0  0  0  0  0  0  0999 V2000
    2.4922    0.1558    0.1827 C   0  0  0  0  0  0  0  0  0  0  0  0
    1.1949   -0.5297   -0.1067 C   0  0  0  0  0  0  0  0  0  0  0  0
    0.6060    0.0507   -1.3430 C   0  0  0  0  0  0  0  0  0  0  0  0
    1.1391    0.5661   -2.3064 O   0  0  0  0  0  0  0  0  0  0  0  0
   -0.8639   -0.1182   -1.1921 C   0  0  0  0  0  0  0  0  0  0  0  0
   -1.0432    0.1649    0.2848 C   0  0  0  0  0  0  0  0  0  0  0  0
   -2.4475    0.1359    0.7720 C   0  0  0  0  0  0  0  0  0  0  0  0
   -0.2496    1.1593    0.8727 O   0  0  0  0  0  0  0  0  0  0  0  0
    0.1273   -0.2119    0.9374 C   0  0  0  0  0  0  0  0  0  0  0  0
    2.9062    0.6065   -0.7647 H   0  0  0  0  0  0  0  0  0  0  0  0
    2.3057    1.0258    0.8598 H   0  0  0  0  0  0  0  0  0  0  0  0
    3.1989   -0.5452    0.6339 H   0  0  0  0  0  0  0  0  0  0  0  0
    1.3084   -1.6409   -0.2065 H   0  0  0  0  0  0  0  0  0  0  0  0
   -1.4557    0.5245   -1.8413 H   0  0  0  0  0  0  0  0  0  0  0  0
   -1.0604   -1.2110   -1.3888 H   0  0  0  0  0  0  0  0  0  0  0  0
   -2.8312   -0.8981    0.7514 H   0  0  0  0  0  0  0  0  0  0  0  0
   -2.5244    0.5920    1.7923 H   0  0  0  0  0  0  0  0  0  0  0  0
   -3.0483    0.8270    0.1158 H   0  0  0  0  0  0  0  0  0  0  0  0
    0.2456   -0.6535    1.9467 H   0  0  0  0  0  0  0  0  0  0  0  0
  1  2  1  0
  2  3  1  0
  3  4  2  0
  3  5  1  0
  5  6  1  0
  6  7  1  0
  6  8  1  0
  8  9  1  0
  9  2  1  0
  9  6  1  0
  1 10  1  0
  1 11  1  0
  1 12  1  0
  2 13  1  0
  5 14  1  0
  5 15  1  0
  7 16  1  0
  7 17  1  0
  7 18  1  0
  9 19  1  0
M  END
