
     RDKit          3D

 23 23  0  0  0  0  0  0  0  0999 V2000
   -1.8980   -1.9587    0.2500 C   0  0  0  0  0  0  0  0  0  0  0  0
   -0.8421   -0.8999    0.4003 C   0  0  0  0  0  0  0  0  0  0  0  0
    0.4462   -1.3421   -0.2263 C   0  0  0  0  0  0  0  0  0  0  0  0
    1.6887   -0.8862   -0.2035 C   0  0  0  0  0  0  0  0  0  0  0  0
    2.3154    0.2786    0.4722 C   0  0  0  0  0  0  0  0  0  0  0  0
    1.7360    1.5666    0.0183 C   0  0  0  0  0  0  0  0  0  0  0  0
    0.5204    2.0742    0.0533 C   0  0  0  0  0  0  0  0  0  0  0  0
   -0.7820    1.6008    0.5484 C   0  0  0  0  0  0  0  0  0  0  0  0
   -1.3209    0.4170   -0.1827 C   0  0  0  0  0  0  0  0  0  0  0  0
   -2.1091   -2.0461   -0.8463 H   0  0  0  0  0  0  0  0  0  0  0  0
   -1.4375   -2.9188    0.6106 H   0  0  0  0  0  0  0  0  0  0  0  0
   -2.7728   -1.7182    0.8494 H   0  0  0  0  0  0  0  0  0  0  0  0
   -0.6815   -0.7331    1.5043 H   0  0  0  0  0  0  0  0  0  0  0  0
    0.2814   -2.2344   -0.8203 H   0  0  0  0  0  0  0  0  0  0  0  0
    2.3420   -1.4977   -0.7964 H   0  0  0  0  0  0  0  0  0  0  0  0
    2.0495    0.1735    1.5653 H   0  0  0  0  0  0  0  0  0  0  0  0
    3.4204    0.2599    0.3809 H   0  0  0  0  0  0  0  0  0  0  0  0
    2.4746    2.2058   -0.4292 H   0  0  0  0  0  0  0  0  0  0  0  0
    0.4554    3.0649   -0.3782 H   0  0  0  0  0  0  0  0  0  0  0  0
   -1.5624    2.4136    0.5005 H   0  0  0  0  0  0  0  0  0  0  0  0
   -0.7510    1.3264    1.6388 H   0  0  0  0  0  0  0  0  0  0  0  0
   -2.4345    0.4139   -0.0496 H   0  0  0  0  0  0  0  0  0  0  0  0
   -1.1381    0.4400   -1.2797 H   0  0  0  0  0  0  0  0  0  0  0  0
  1  2  1  0
  2  3  1  0
  3  4  2  3
  4  5  1  0
  5  6  1  0
  6  7  2  3
  7  8  1  0
  8  9  1  0
  9  2  1  0
  1 10  1  0
  1 11  1  0
  1 12  1  0
  2 13  1  0
  3 14  1  0
  4 15  1  0
  5 16  1  0
  5 17  1  0
  6 18  1  0
  7 19  1  0
  8 20  1  0
  8 21  1  0
  9 22  1  0
  9 23  1  0
M  END
