
     RDKit          3D

 19 20  0  0  0  0  0  0  0  0999 V2000
    2.5997    0.4056   -0.2509 C   0  0  0  0  0  0  0  0  0  0  0  0
    1.3670   -0.0119    0.4725 C   0  0  0  0  0  0  0  0  0  0  0  0
    0.1616    0.8992    0.1997 C   0  0  0  0  0  0  0  0  0  0  0  0
   -0.6091   -0.3827    0.2055 C   0  0  0  0  0  0  0  0  0  0  0  0
   -1.8368   -0.4788   -0.5832 C   0  0  0  0  0  0  0  0  0  0  0  0
   -2.3926   -0.0318    0.7713 C   0  0  0  0  0  0  0  0  0  0  0  0
   -1.2951   -0.7019    1.3502 O   0  0  0  0  0  0  0  0  0  0  0  0
    0.5802   -1.1105   -0.1425 C   0  0  0  0  0  0  0  0  0  0  0  0
    0.8479   -2.1566   -0.6928 O   0  0  0  0  0  0  0  0  0  0  0  0
    2.4266    0.4602   -1.3268 H   0  0  0  0  0  0  0  0  0  0  0  0
    2.9051    1.4049    0.1797 H   0  0  0  0  0  0  0  0  0  0  0  0
    3.3796   -0.3579   -0.0769 H   0  0  0  0  0  0  0  0  0  0  0  0
    1.4719   -0.1704    1.5513 H   0  0  0  0  0  0  0  0  0  0  0  0
    0.2640    1.3561   -0.7953 H   0  0  0  0  0  0  0  0  0  0  0  0
   -0.0822    1.5487    1.0398 H   0  0  0  0  0  0  0  0  0  0  0  0
   -2.1494   -1.5210   -0.7636 H   0  0  0  0  0  0  0  0  0  0  0  0
   -2.0250    0.2375   -1.3889 H   0  0  0  0  0  0  0  0  0  0  0  0
   -2.2394    1.0514    0.9015 H   0  0  0  0  0  0  0  0  0  0  0  0
   -3.3740   -0.4401    1.0207 H   0  0  0  0  0  0  0  0  0  0  0  0
  1  2  1  0
  2  3  1  0
  3  4  1  0
  4  5  1  0
  5  6  1  0
  6  7  1  0
  4  8  1  0
  8  9  2  0
  8  2  1  0
  7  4  1  0
  1 10  1  0
  1 11  1  0
  1 12  1  0
  2 13  1  0
  3 14  1  0
  3 15  1  0
  5 16  1  0
  5 17  1  0
  6 18  1  0
  6 19  1  0
M  END
