
     RDKit          3D

 21 21  0  0  0  0  0  0  0  0999 V2000
   -2.4627    0.8862    0.1795 C   0  0  0  0  0  0  0  0  0  0  0  0
   -1.3531   -0.0207   -0.3755 C   0  0  0  0  0  0  0  0  0  0  0  0
   -0.9309   -0.8934    0.7003 C   0  0  0  0  0  0  0  0  0  0  0  0
    0.2405   -1.4747    0.9192 C   0  0  0  0  0  0  0  0  0  0  0  0
    1.4313   -1.3577    0.0770 C   0  0  0  0  0  0  0  0  0  0  0  0
    1.8728    0.0319   -0.2296 C   0  0  0  0  0  0  0  0  0  0  0  0
    2.3078    0.6446    0.9688 O   0  0  0  0  0  0  0  0  0  0  0  0
    0.9276    0.8808   -0.9195 C   0  0  0  0  0  0  0  0  0  0  0  0
   -0.3681    0.8534   -0.9736 C   0  0  0  0  0  0  0  0  0  0  0  0
   -2.0257    1.6187    0.9095 H   0  0  0  0  0  0  0  0  0  0  0  0
   -2.9906    1.4157   -0.6116 H   0  0  0  0  0  0  0  0  0  0  0  0
   -3.1625    0.2671    0.7646 H   0  0  0  0  0  0  0  0  0  0  0  0
   -1.8525   -0.6179   -1.1952 H   0  0  0  0  0  0  0  0  0  0  0  0
   -1.7270   -1.0944    1.4416 H   0  0  0  0  0  0  0  0  0  0  0  0
    0.2616   -2.0811    1.8194 H   0  0  0  0  0  0  0  0  0  0  0  0
    1.3313   -1.8983   -0.9043 H   0  0  0  0  0  0  0  0  0  0  0  0
    2.2731   -1.8650    0.6102 H   0  0  0  0  0  0  0  0  0  0  0  0
    2.7891   -0.0491   -0.8555 H   0  0  0  0  0  0  0  0  0  0  0  0
    2.8751    1.4307    0.7563 H   0  0  0  0  0  0  0  0  0  0  0  0
    1.3886    1.6806   -1.4906 H   0  0  0  0  0  0  0  0  0  0  0  0
   -0.8254    1.6426   -1.5909 H   0  0  0  0  0  0  0  0  0  0  0  0
  1  2  1  0
  2  3  1  0
  3  4  2  0
  4  5  1  0
  5  6  1  0
  6  7  1  0
  6  8  1  0
  8  9  2  0
  9  2  1  0
  1 10  1  0
  1 11  1  0
  1 12  1  0
  2 13  1  0
  3 14  1  0
  4 15  1  0
  5 16  1  0
  5 17  1  0
  6 18  1  0
  7 19  1  0
  8 20  1  0
  9 21  1  0
M  END
