
     RDKit          3D

 21 22  0  0  0  0  0  0  0  0999 V2000
   -2.1913   -0.8542   -0.3492 C   0  0  0  0  0  0  0  0  0  0  0  0
   -0.7462   -0.7795   -0.0273 C   0  0  0  0  0  0  0  0  0  0  0  0
   -0.2851    0.3304    0.8647 C   0  0  0  0  0  0  0  0  0  0  0  0
   -0.6001    1.2489   -0.2965 C   0  0  0  0  0  0  0  0  0  0  0  0
    0.1192    2.4037   -0.3802 O   0  0  0  0  0  0  0  0  0  0  0  0
    0.1126    0.0759   -0.9221 C   0  0  0  0  0  0  0  0  0  0  0  0
    1.0594    0.1627    0.2333 C   0  0  0  0  0  0  0  0  0  0  0  0
    1.7890   -1.1045    0.4710 C   0  0  0  0  0  0  0  0  0  0  0  0
    1.8363    1.2864    0.3341 O   0  0  0  0  0  0  0  0  0  0  0  0
   -2.2896   -0.8081   -1.4743 H   0  0  0  0  0  0  0  0  0  0  0  0
   -2.8357   -0.1340    0.1590 H   0  0  0  0  0  0  0  0  0  0  0  0
   -2.6053   -1.8731   -0.0916 H   0  0  0  0  0  0  0  0  0  0  0  0
   -0.3408   -1.7376    0.2888 H   0  0  0  0  0  0  0  0  0  0  0  0
   -0.5086    0.4896    1.8259 H   0  0  0  0  0  0  0  0  0  0  0  0
   -1.6534    1.3684   -0.5527 H   0  0  0  0  0  0  0  0  0  0  0  0
    0.0435    3.0284    0.3522 H   0  0  0  0  0  0  0  0  0  0  0  0
    0.3149   -0.0659   -1.8880 H   0  0  0  0  0  0  0  0  0  0  0  0
    1.6004   -1.8920   -0.3182 H   0  0  0  0  0  0  0  0  0  0  0  0
    2.8935   -0.8891    0.3608 H   0  0  0  0  0  0  0  0  0  0  0  0
    1.6855   -1.5232    1.4913 H   0  0  0  0  0  0  0  0  0  0  0  0
    2.6019    1.2669   -0.2748 H   0  0  0  0  0  0  0  0  0  0  0  0
  1  2  1  0
  2  3  1  0
  3  4  1  0
  4  5  1  0
  4  6  1  0
  6  7  1  0
  7  8  1  0
  7  9  1  0
  6  2  1  0
  7  3  1  0
  1 10  1  0
  1 11  1  0
  1 12  1  0
  2 13  1  0
  3 14  1  0
  4 15  1  0
  5 16  1  0
  6 17  1  0
  8 18  1  0
  8 19  1  0
  8 20  1  0
  9 21  1  0
M  END
