
     RDKit          3D

 21 22  0  0  0  0  0  0  0  0999 V2000
   -1.4780    1.2099   -0.3266 C   0  0  0  0  0  0  0  0  0  0  0  0
   -0.4434    0.1826   -0.6862 C   0  0  0  0  0  0  0  0  0  0  0  0
   -0.8704   -1.1075    0.0337 C   0  0  0  0  0  0  0  0  0  0  0  0
   -2.2407   -1.1941    0.0949 O   0  0  0  0  0  0  0  0  0  0  0  0
   -0.2634   -0.9022    1.3916 C   0  0  0  0  0  0  0  0  0  0  0  0
    0.3786    0.3355    1.3792 O   0  0  0  0  0  0  0  0  0  0  0  0
    0.8041    0.4657    0.0943 C   0  0  0  0  0  0  0  0  0  0  0  0
    2.0742   -0.3018   -0.2238 C   0  0  0  0  0  0  0  0  0  0  0  0
    1.9420    1.1984   -0.3865 C   0  0  0  0  0  0  0  0  0  0  0  0
   -1.4204    1.3457    0.7943 H   0  0  0  0  0  0  0  0  0  0  0  0
   -2.4863    0.7267   -0.4819 H   0  0  0  0  0  0  0  0  0  0  0  0
   -1.3752    2.1596   -0.8497 H   0  0  0  0  0  0  0  0  0  0  0  0
   -0.2980    0.0338   -1.7492 H   0  0  0  0  0  0  0  0  0  0  0  0
   -0.4247   -1.9836   -0.5018 H   0  0  0  0  0  0  0  0  0  0  0  0
   -2.6373   -1.3805   -0.7714 H   0  0  0  0  0  0  0  0  0  0  0  0
   -1.0345   -0.8583    2.1881 H   0  0  0  0  0  0  0  0  0  0  0  0
    0.4875   -1.7100    1.5885 H   0  0  0  0  0  0  0  0  0  0  0  0
    2.6973   -0.6490    0.6444 H   0  0  0  0  0  0  0  0  0  0  0  0
    2.1103   -0.9541   -1.0945 H   0  0  0  0  0  0  0  0  0  0  0  0
    2.5329    1.8560    0.3137 H   0  0  0  0  0  0  0  0  0  0  0  0
    1.9454    1.5269   -1.4510 H   0  0  0  0  0  0  0  0  0  0  0  0
  1  2  1  0
  2  3  1  0
  3  4  1  0
  3  5  1  0
  5  6  1  0
  6  7  1  0
  7  8  1  0
  8  9  1  0
  7  2  1  0
  9  7  1  0
  1 10  1  0
  1 11  1  0
  1 12  1  0
  2 13  1  0
  3 14  1  0
  4 15  1  0
  5 16  1  0
  5 17  1  0
  8 18  1  0
  8 19  1  0
  9 20  1  0
  9 21  1  0
M  END
