
     RDKit          3D

 22 22  0  0  0  0  0  0  0  0999 V2000
    1.7988   -1.1966   -0.5502 C   0  0  0  0  0  0  0  0  0  0  0  0
    1.1997   -0.0841    0.2422 C   0  0  0  0  0  0  0  0  0  0  0  0
    0.5422   -0.5544    1.4801 C   0  0  0  0  0  0  0  0  0  0  0  0
   -0.7691   -0.4404    1.4477 C   0  0  0  0  0  0  0  0  0  0  0  0
   -1.1619    0.1402    0.1387 C   0  0  0  0  0  0  0  0  0  0  0  0
   -1.9266   -0.8536   -0.7018 C   0  0  0  0  0  0  0  0  0  0  0  0
    0.0837    0.6406   -0.4964 C   0  0  0  0  0  0  0  0  0  0  0  0
    0.2092    2.1234   -0.2203 C   0  0  0  0  0  0  0  0  0  0  0  0
    1.0668   -1.7474   -1.1488 H   0  0  0  0  0  0  0  0  0  0  0  0
    2.6537   -0.8306   -1.1735 H   0  0  0  0  0  0  0  0  0  0  0  0
    2.2800   -1.9083    0.1832 H   0  0  0  0  0  0  0  0  0  0  0  0
    2.0106    0.6378    0.5069 H   0  0  0  0  0  0  0  0  0  0  0  0
    1.0899   -0.9573    2.3381 H   0  0  0  0  0  0  0  0  0  0  0  0
   -1.4990   -0.7158    2.2358 H   0  0  0  0  0  0  0  0  0  0  0  0
   -1.8787    0.9952    0.3198 H   0  0  0  0  0  0  0  0  0  0  0  0
   -2.7298   -1.2740   -0.0394 H   0  0  0  0  0  0  0  0  0  0  0  0
   -1.3306   -1.6794   -1.0798 H   0  0  0  0  0  0  0  0  0  0  0  0
   -2.4648   -0.2742   -1.4906 H   0  0  0  0  0  0  0  0  0  0  0  0
    0.1786    0.4228   -1.5726 H   0  0  0  0  0  0  0  0  0  0  0  0
    0.7877    2.3135    0.7225 H   0  0  0  0  0  0  0  0  0  0  0  0
   -0.8030    2.5738   -0.0695 H   0  0  0  0  0  0  0  0  0  0  0  0
    0.6627    2.6686   -1.0719 H   0  0  0  0  0  0  0  0  0  0  0  0
  1  2  1  0
  2  3  1  0
  3  4  2  0
  4  5  1  0
  5  6  1  0
  5  7  1  0
  7  8  1  0
  7  2  1  0
  1  9  1  0
  1 10  1  0
  1 11  1  0
  2 12  1  0
  3 13  1  0
  4 14  1  0
  5 15  1  0
  6 16  1  0
  6 17  1  0
  6 18  1  0
  7 19  1  0
  8 20  1  0
  8 21  1  0
  8 22  1  0
M  END
