
     RDKit          3D

 21 22  0  0  0  0  0  0  0  0999 V2000
    1.8921    1.4780   -0.0917 C   0  0  0  0  0  0  0  0  0  0  0  0
    1.5363    0.0249    0.0466 C   0  0  0  0  0  0  0  0  0  0  0  0
    0.8536   -0.3702    1.3780 C   0  0  0  0  0  0  0  0  0  0  0  0
    0.1693   -0.4595    0.1041 C   0  0  0  0  0  0  0  0  0  0  0  0
   -0.3462   -1.6865   -0.5272 C   0  0  0  0  0  0  0  0  0  0  0  0
   -1.7354   -1.0315   -0.5361 C   0  0  0  0  0  0  0  0  0  0  0  0
   -1.0425    0.2945   -0.2849 C   0  0  0  0  0  0  0  0  0  0  0  0
   -1.7350    1.0514    0.7924 C   0  0  0  0  0  0  0  0  0  0  0  0
   -1.6807    2.2632    0.8892 O   0  0  0  0  0  0  0  0  0  0  0  0
    1.6111    1.8351   -1.1019 H   0  0  0  0  0  0  0  0  0  0  0  0
    1.3904    2.0994    0.6619 H   0  0  0  0  0  0  0  0  0  0  0  0
    2.9896    1.5871    0.0201 H   0  0  0  0  0  0  0  0  0  0  0  0
    2.3224   -0.6950   -0.2627 H   0  0  0  0  0  0  0  0  0  0  0  0
    0.6436    0.4747    2.0849 H   0  0  0  0  0  0  0  0  0  0  0  0
    1.1799   -1.2881    1.8700 H   0  0  0  0  0  0  0  0  0  0  0  0
    0.0250   -1.9039   -1.5694 H   0  0  0  0  0  0  0  0  0  0  0  0
   -0.2744   -2.5825    0.0920 H   0  0  0  0  0  0  0  0  0  0  0  0
   -2.2883   -1.4020    0.3406 H   0  0  0  0  0  0  0  0  0  0  0  0
   -2.2368   -1.1248   -1.5166 H   0  0  0  0  0  0  0  0  0  0  0  0
   -0.9593    0.9253   -1.2085 H   0  0  0  0  0  0  0  0  0  0  0  0
   -2.3145    0.5104    1.5262 H   0  0  0  0  0  0  0  0  0  0  0  0
  1  2  1  0
  2  3  1  0
  3  4  1  0
  4  5  1  0
  5  6  1  0
  6  7  1  0
  7  8  1  0
  8  9  2  0
  4  2  1  0
  7  4  1  0
  1 10  1  0
  1 11  1  0
  1 12  1  0
  2 13  1  0
  3 14  1  0
  3 15  1  0
  5 16  1  0
  5 17  1  0
  6 18  1  0
  6 19  1  0
  7 20  1  0
  8 21  1  0
M  END
