
     RDKit          3D

 21 23  0  0  0  0  0  0  0  0999 V2000
    2.9171   -0.0630    0.0129 C   0  0  0  0  0  0  0  0  0  0  0  0
    1.4958   -0.4076    0.5073 C   0  0  0  0  0  0  0  0  0  0  0  0
    0.4467    0.4717    0.5671 C   0  0  0  0  0  0  0  0  0  0  0  0
   -0.6330    0.3930    1.4075 O   0  0  0  0  0  0  0  0  0  0  0  0
   -1.7857    0.4506    0.6614 C   0  0  0  0  0  0  0  0  0  0  0  0
   -1.4831    1.0862   -0.6730 C   0  0  0  0  0  0  0  0  0  0  0  0
   -0.8042   -0.1635   -1.0499 C   0  0  0  0  0  0  0  0  0  0  0  0
   -1.8595   -0.8553   -0.1525 C   0  0  0  0  0  0  0  0  0  0  0  0
    0.4999   -0.5220   -0.5045 C   0  0  0  0  0  0  0  0  0  0  0  0
    3.4368   -1.0521   -0.1427 H   0  0  0  0  0  0  0  0  0  0  0  0
    3.4817    0.4262    0.8333 H   0  0  0  0  0  0  0  0  0  0  0  0
    2.8999    0.4843   -0.9232 H   0  0  0  0  0  0  0  0  0  0  0  0
    1.6334   -1.0559    1.4344 H   0  0  0  0  0  0  0  0  0  0  0  0
    0.6675    1.5226    0.1997 H   0  0  0  0  0  0  0  0  0  0  0  0
   -2.7087    0.7318    1.1517 H   0  0  0  0  0  0  0  0  0  0  0  0
   -2.4661    1.1367   -1.2383 H   0  0  0  0  0  0  0  0  0  0  0  0
   -1.0333    2.0534   -0.7214 H   0  0  0  0  0  0  0  0  0  0  0  0
   -0.9011   -0.3704   -2.1165 H   0  0  0  0  0  0  0  0  0  0  0  0
   -1.4696   -1.7193    0.3945 H   0  0  0  0  0  0  0  0  0  0  0  0
   -2.8413   -0.9405   -0.6198 H   0  0  0  0  0  0  0  0  0  0  0  0
    0.5070   -1.6068   -0.6340 H   0  0  0  0  0  0  0  0  0  0  0  0
  1  2  1  0
  2  3  1  0
  3  4  1  0
  4  5  1  0
  5  6  1  0
  6  7  1  0
  7  8  1  0
  7  9  1  0
  9  2  1  0
  9  3  1  0
  8  5  1  0
  1 10  1  0
  1 11  1  0
  1 12  1  0
  2 13  1  0
  3 14  1  0
  5 15  1  0
  6 16  1  0
  6 17  1  0
  7 18  1  0
  8 19  1  0
  8 20  1  0
  9 21  1  0
M  END
