
     RDKit          3D

 21 23  0  0  0  0  0  0  0  0999 V2000
    2.2799   -0.2599   -0.3044 C   0  0  0  0  0  0  0  0  0  0  0  0
    0.9299   -0.3263    0.3144 C   0  0  0  0  0  0  0  0  0  0  0  0
    0.0656   -1.2910   -0.4613 C   0  0  0  0  0  0  0  0  0  0  0  0
   -0.0955   -0.2404   -1.3969 O   0  0  0  0  0  0  0  0  0  0  0  0
   -0.1013    0.6073   -0.2928 C   0  0  0  0  0  0  0  0  0  0  0  0
    0.2538    2.0103   -0.4730 C   0  0  0  0  0  0  0  0  0  0  0  0
   -1.3962    0.2550    0.3865 C   0  0  0  0  0  0  0  0  0  0  0  0
   -2.3831   -0.6487   -0.2625 C   0  0  0  0  0  0  0  0  0  0  0  0
   -1.2081   -1.3048    0.3342 C   0  0  0  0  0  0  0  0  0  0  0  0
    2.1639    0.1985   -1.3274 H   0  0  0  0  0  0  0  0  0  0  0  0
    3.0367    0.2630    0.2823 H   0  0  0  0  0  0  0  0  0  0  0  0
    2.6202   -1.3187   -0.4814 H   0  0  0  0  0  0  0  0  0  0  0  0
    0.8813   -0.4172    1.4154 H   0  0  0  0  0  0  0  0  0  0  0  0
    0.4864   -2.2014   -0.8131 H   0  0  0  0  0  0  0  0  0  0  0  0
    0.9615    2.1163   -1.3304 H   0  0  0  0  0  0  0  0  0  0  0  0
   -0.6350    2.6310   -0.5889 H   0  0  0  0  0  0  0  0  0  0  0  0
    0.7781    2.3782    0.4585 H   0  0  0  0  0  0  0  0  0  0  0  0
   -1.6180    0.6839    1.3609 H   0  0  0  0  0  0  0  0  0  0  0  0
   -3.3395   -0.7580    0.2625 H   0  0  0  0  0  0  0  0  0  0  0  0
   -2.4778   -0.6073   -1.3628 H   0  0  0  0  0  0  0  0  0  0  0  0
   -1.2031   -1.7700    1.3157 H   0  0  0  0  0  0  0  0  0  0  0  0
  1  2  1  0
  2  3  1  0
  3  4  1  0
  4  5  1  0
  5  6  1  0
  5  7  1  0
  7  8  1  0
  8  9  1  0
  5  2  1  0
  9  7  1  0
  9  3  1  0
  1 10  1  0
  1 11  1  0
  1 12  1  0
  2 13  1  0
  3 14  1  0
  6 15  1  0
  6 16  1  0
  6 17  1  0
  7 18  1  0
  8 19  1  0
  8 20  1  0
  9 21  1  0
M  END
