
     RDKit          3D

 17 17  0  0  0  0  0  0  0  0999 V2000
   -1.7298   -0.7023   -0.5756 C   0  0  0  0  0  0  0  0  0  0  0  0
   -0.4667   -0.3993    0.1646 C   0  0  0  0  0  0  0  0  0  0  0  0
    0.7561   -0.2355   -0.6890 C   0  0  0  0  0  0  0  0  0  0  0  0
    2.0050   -0.8694   -0.1157 C   0  0  0  0  0  0  0  0  0  0  0  0
    0.1960    0.9554    0.0003 C   0  0  0  0  0  0  0  0  0  0  0  0
   -0.6445    1.9321   -0.7217 C   0  0  0  0  0  0  0  0  0  0  0  0
   -0.6708    3.0866   -0.3359 O   0  0  0  0  0  0  0  0  0  0  0  0
   -1.8282   -1.8238   -0.6110 H   0  0  0  0  0  0  0  0  0  0  0  0
   -2.6097   -0.3471    0.0006 H   0  0  0  0  0  0  0  0  0  0  0  0
   -1.6642   -0.3111   -1.5913 H   0  0  0  0  0  0  0  0  0  0  0  0
   -0.3966   -0.8308    1.1680 H   0  0  0  0  0  0  0  0  0  0  0  0
    0.6258   -0.2421   -1.7909 H   0  0  0  0  0  0  0  0  0  0  0  0
    2.4752   -0.2534    0.6676 H   0  0  0  0  0  0  0  0  0  0  0  0
    2.7006   -1.1521   -0.9295 H   0  0  0  0  0  0  0  0  0  0  0  0
    1.7356   -1.8425    0.3874 H   0  0  0  0  0  0  0  0  0  0  0  0
    0.7655    1.3474    0.8724 H   0  0  0  0  0  0  0  0  0  0  0  0
   -1.2494    1.6878   -1.5857 H   0  0  0  0  0  0  0  0  0  0  0  0
  1  2  1  0
  2  3  1  0
  3  4  1  0
  3  5  1  0
  5  6  1  0
  6  7  2  0
  5  2  1  0
  1  8  1  0
  1  9  1  0
  1 10  1  0
  2 11  1  0
  3 12  1  0
  4 13  1  0
  4 14  1  0
  4 15  1  0
  5 16  1  0
  6 17  1  0
M  END
