
     RDKit          3D

 25 26  0  0  0  0  0  0  0  0999 V2000
   -2.8388   -0.1565    0.1676 C   0  0  0  0  0  0  0  0  0  0  0  0
   -1.4079    0.0196   -0.2197 C   0  0  0  0  0  0  0  0  0  0  0  0
   -0.8217    1.3409    0.1942 C   0  0  0  0  0  0  0  0  0  0  0  0
    0.6492    1.3182   -0.1973 C   0  0  0  0  0  0  0  0  0  0  0  0
    1.2709   -0.0026    0.1476 C   0  0  0  0  0  0  0  0  0  0  0  0
    2.7487   -0.0582    0.2148 C   0  0  0  0  0  0  0  0  0  0  0  0
    0.6765   -1.1158   -0.7254 C   0  0  0  0  0  0  0  0  0  0  0  0
   -0.5060   -1.0876    0.2570 C   0  0  0  0  0  0  0  0  0  0  0  0
    0.5043   -0.6028    1.2877 C   0  0  0  0  0  0  0  0  0  0  0  0
   -3.5013    0.2615   -0.6463 H   0  0  0  0  0  0  0  0  0  0  0  0
   -3.0982    0.3916    1.0754 H   0  0  0  0  0  0  0  0  0  0  0  0
   -3.0867   -1.2462    0.2105 H   0  0  0  0  0  0  0  0  0  0  0  0
   -1.3746    0.0058   -1.3495 H   0  0  0  0  0  0  0  0  0  0  0  0
   -0.9727    1.5784    1.2595 H   0  0  0  0  0  0  0  0  0  0  0  0
   -1.3202    2.1845   -0.3692 H   0  0  0  0  0  0  0  0  0  0  0  0
    1.1597    2.1241    0.3246 H   0  0  0  0  0  0  0  0  0  0  0  0
    0.6718    1.5268   -1.2956 H   0  0  0  0  0  0  0  0  0  0  0  0
    3.0606   -1.1116    0.3454 H   0  0  0  0  0  0  0  0  0  0  0  0
    3.1510    0.6261    0.9640 H   0  0  0  0  0  0  0  0  0  0  0  0
    3.1570    0.2615   -0.7701 H   0  0  0  0  0  0  0  0  0  0  0  0
    1.2484   -2.0468   -0.6977 H   0  0  0  0  0  0  0  0  0  0  0  0
    0.4157   -0.7601   -1.7370 H   0  0  0  0  0  0  0  0  0  0  0  0
   -0.9624   -2.0557    0.4537 H   0  0  0  0  0  0  0  0  0  0  0  0
    1.0483   -1.4535    1.7152 H   0  0  0  0  0  0  0  0  0  0  0  0
    0.1284    0.0583    2.0579 H   0  0  0  0  0  0  0  0  0  0  0  0
  1  2  1  0
  2  3  1  0
  3  4  1  0
  4  5  1  0
  5  6  1  0
  5  7  1  0
  7  8  1  0
  8  9  1  0
  8  2  1  0
  9  5  1  0
  1 10  1  0
  1 11  1  0
  1 12  1  0
  2 13  1  0
  3 14  1  0
  3 15  1  0
  4 16  1  0
  4 17  1  0
  6 18  1  0
  6 19  1  0
  6 20  1  0
  7 21  1  0
  7 22  1  0
  8 23  1  0
  9 24  1  0
  9 25  1  0
M  END
