
     RDKit          3D

 22 23  0  0  0  0  0  0  0  0999 V2000
    2.4754    0.3914    0.2230 C   0  0  0  0  0  0  0  0  0  0  0  0
    1.6962   -0.8773   -0.0232 C   0  0  0  0  0  0  0  0  0  0  0  0
    0.6245   -1.1584    1.0126 C   0  0  0  0  0  0  0  0  0  0  0  0
    0.2793   -0.8513   -0.4133 C   0  0  0  0  0  0  0  0  0  0  0  0
   -0.4286    0.3924   -0.8234 C   0  0  0  0  0  0  0  0  0  0  0  0
   -1.9028    0.1326   -1.1785 C   0  0  0  0  0  0  0  0  0  0  0  0
   -2.1431    0.2353    0.3377 C   0  0  0  0  0  0  0  0  0  0  0  0
   -0.9752    1.2311    0.3143 C   0  0  0  0  0  0  0  0  0  0  0  0
    1.8001    1.2649    0.2363 H   0  0  0  0  0  0  0  0  0  0  0  0
    2.9719    0.2991    1.2298 H   0  0  0  0  0  0  0  0  0  0  0  0
    3.2927    0.4991   -0.5213 H   0  0  0  0  0  0  0  0  0  0  0  0
    2.3384   -1.7187   -0.3593 H   0  0  0  0  0  0  0  0  0  0  0  0
    0.4867   -0.4395    1.8255 H   0  0  0  0  0  0  0  0  0  0  0  0
    0.6131   -2.2105    1.3684 H   0  0  0  0  0  0  0  0  0  0  0  0
   -0.0659   -1.7670   -0.9777 H   0  0  0  0  0  0  0  0  0  0  0  0
    0.0948    1.0076   -1.5796 H   0  0  0  0  0  0  0  0  0  0  0  0
   -2.3481    0.9931   -1.6960 H   0  0  0  0  0  0  0  0  0  0  0  0
   -2.0967   -0.8653   -1.5888 H   0  0  0  0  0  0  0  0  0  0  0  0
   -1.8382   -0.7070    0.8479 H   0  0  0  0  0  0  0  0  0  0  0  0
   -3.1036    0.6608    0.6113 H   0  0  0  0  0  0  0  0  0  0  0  0
   -1.3847    2.1976   -0.0704 H   0  0  0  0  0  0  0  0  0  0  0  0
   -0.3865    1.2898    1.2246 H   0  0  0  0  0  0  0  0  0  0  0  0
  1  2  1  0
  2  3  1  0
  3  4  1  0
  4  5  1  0
  5  6  1  0
  6  7  1  0
  7  8  1  0
  4  2  1  0
  8  5  1  0
  1  9  1  0
  1 10  1  0
  1 11  1  0
  2 12  1  0
  3 13  1  0
  3 14  1  0
  4 15  1  0
  5 16  1  0
  6 17  1  0
  6 18  1  0
  7 19  1  0
  7 20  1  0
  8 21  1  0
  8 22  1  0
M  END
