
     RDKit          3D

 19 20  0  0  0  0  0  0  0  0999 V2000
    2.1946    0.1351   -0.1633 C   0  0  0  0  0  0  0  0  0  0  0  0
    0.7418    0.0734   -0.6364 C   0  0  0  0  0  0  0  0  0  0  0  0
    0.1352    1.3813   -0.4102 C   0  0  0  0  0  0  0  0  0  0  0  0
   -0.8261    1.6128    0.4541 C   0  0  0  0  0  0  0  0  0  0  0  0
   -1.3413    0.5088    1.2544 C   0  0  0  0  0  0  0  0  0  0  0  0
   -1.9598    0.8132    2.3062 O   0  0  0  0  0  0  0  0  0  0  0  0
   -1.1122   -0.8598    0.7946 C   0  0  0  0  0  0  0  0  0  0  0  0
   -1.3924   -1.2738   -0.6075 C   0  0  0  0  0  0  0  0  0  0  0  0
    0.0187   -1.0919   -0.0849 C   0  0  0  0  0  0  0  0  0  0  0  0
    2.2925    0.8698    0.6830 H   0  0  0  0  0  0  0  0  0  0  0  0
    2.4639   -0.8833    0.1453 H   0  0  0  0  0  0  0  0  0  0  0  0
    2.8467    0.4586   -1.0014 H   0  0  0  0  0  0  0  0  0  0  0  0
    0.7923   -0.0710   -1.7575 H   0  0  0  0  0  0  0  0  0  0  0  0
    0.5093    2.2245   -1.0032 H   0  0  0  0  0  0  0  0  0  0  0  0
   -1.2260    2.6290    0.5611 H   0  0  0  0  0  0  0  0  0  0  0  0
   -1.3364   -1.6407    1.5586 H   0  0  0  0  0  0  0  0  0  0  0  0
   -1.6553   -2.3240   -0.8176 H   0  0  0  0  0  0  0  0  0  0  0  0
   -1.7872   -0.5638   -1.3565 H   0  0  0  0  0  0  0  0  0  0  0  0
    0.6415   -1.9984    0.0813 H   0  0  0  0  0  0  0  0  0  0  0  0
  1  2  1  0
  2  3  1  0
  3  4  2  0
  4  5  1  0
  5  6  2  0
  5  7  1  0
  7  8  1  0
  8  9  1  0
  9  2  1  0
  9  7  1  0
  1 10  1  0
  1 11  1  0
  1 12  1  0
  2 13  1  0
  3 14  1  0
  4 15  1  0
  7 16  1  0
  8 17  1  0
  8 18  1  0
  9 19  1  0
M  END
