
     RDKit          3D

 21 21  0  0  0  0  0  0  0  0999 V2000
    2.3814   -0.3471    0.2439 C   0  0  0  0  0  0  0  0  0  0  0  0
    0.8836   -0.0323    0.4196 C   0  0  0  0  0  0  0  0  0  0  0  0
    0.1726   -1.0816   -0.3475 C   0  0  0  0  0  0  0  0  0  0  0  0
   -1.2519   -0.9259   -0.6202 C   0  0  0  0  0  0  0  0  0  0  0  0
   -2.0680   -0.1106    0.3228 C   0  0  0  0  0  0  0  0  0  0  0  0
   -1.7431    1.3297    0.2920 C   0  0  0  0  0  0  0  0  0  0  0  0
   -2.6916    2.0765    0.6480 O   0  0  0  0  0  0  0  0  0  0  0  0
   -0.5383    1.8786   -0.0798 O   0  0  0  0  0  0  0  0  0  0  0  0
    0.7569    1.3557   -0.1076 C   0  0  0  0  0  0  0  0  0  0  0  0
    2.9081    0.4525    0.8062 H   0  0  0  0  0  0  0  0  0  0  0  0
    2.6062   -0.1526   -0.8320 H   0  0  0  0  0  0  0  0  0  0  0  0
    2.6280   -1.3563    0.5604 H   0  0  0  0  0  0  0  0  0  0  0  0
    0.6680   -0.1394    1.4870 H   0  0  0  0  0  0  0  0  0  0  0  0
    0.7199   -1.1955   -1.3323 H   0  0  0  0  0  0  0  0  0  0  0  0
    0.3536   -2.0489    0.1758 H   0  0  0  0  0  0  0  0  0  0  0  0
   -1.7368   -1.9409   -0.6635 H   0  0  0  0  0  0  0  0  0  0  0  0
   -1.4078   -0.4930   -1.6422 H   0  0  0  0  0  0  0  0  0  0  0  0
   -2.0892   -0.4741    1.3555 H   0  0  0  0  0  0  0  0  0  0  0  0
   -3.1332   -0.1795   -0.0538 H   0  0  0  0  0  0  0  0  0  0  0  0
    1.4058    2.0144    0.5072 H   0  0  0  0  0  0  0  0  0  0  0  0
    1.1759    1.3703   -1.1396 H   0  0  0  0  0  0  0  0  0  0  0  0
  1  2  1  0
  2  3  1  0
  3  4  1  0
  4  5  1  0
  5  6  1  0
  6  7  2  0
  6  8  1  0
  8  9  1  0
  9  2  1  0
  1 10  1  0
  1 11  1  0
  1 12  1  0
  2 13  1  0
  3 14  1  0
  3 15  1  0
  4 16  1  0
  4 17  1  0
  5 18  1  0
  5 19  1  0
  9 20  1  0
  9 21  1  0
M  END
