
     RDKit          3D

 21 22  0  0  0  0  0  0  0  0999 V2000
   -2.0027    1.2982    0.0137 C   0  0  0  0  0  0  0  0  0  0  0  0
   -1.0019    0.4277   -0.7379 C   0  0  0  0  0  0  0  0  0  0  0  0
   -1.5839   -0.9145   -0.8522 C   0  0  0  0  0  0  0  0  0  0  0  0
   -0.9762   -1.7725   -0.0478 C   0  0  0  0  0  0  0  0  0  0  0  0
    0.1030   -1.0868    0.7109 C   0  0  0  0  0  0  0  0  0  0  0  0
    1.3380   -1.4546    0.2170 O   0  0  0  0  0  0  0  0  0  0  0  0
    1.4498   -0.2201   -0.4626 C   0  0  0  0  0  0  0  0  0  0  0  0
    2.7330    0.4550   -0.0330 C   0  0  0  0  0  0  0  0  0  0  0  0
    0.2071    0.3032    0.1567 C   0  0  0  0  0  0  0  0  0  0  0  0
   -2.8036    1.6379   -0.6648 H   0  0  0  0  0  0  0  0  0  0  0  0
   -1.5043    2.1211    0.5615 H   0  0  0  0  0  0  0  0  0  0  0  0
   -2.5091    0.6667    0.7908 H   0  0  0  0  0  0  0  0  0  0  0  0
   -0.7778    0.8908   -1.7056 H   0  0  0  0  0  0  0  0  0  0  0  0
   -2.4029   -1.1728   -1.5074 H   0  0  0  0  0  0  0  0  0  0  0  0
   -1.2496   -2.8150    0.0233 H   0  0  0  0  0  0  0  0  0  0  0  0
   -0.0172   -1.0792    1.8008 H   0  0  0  0  0  0  0  0  0  0  0  0
    1.4373   -0.3632   -1.5664 H   0  0  0  0  0  0  0  0  0  0  0  0
    3.2148   -0.0533    0.8316 H   0  0  0  0  0  0  0  0  0  0  0  0
    2.5524    1.5091    0.3157 H   0  0  0  0  0  0  0  0  0  0  0  0
    3.4893    0.4995   -0.8310 H   0  0  0  0  0  0  0  0  0  0  0  0
    0.3046    1.1226    0.8739 H   0  0  0  0  0  0  0  0  0  0  0  0
  1  2  1  0
  2  3  1  0
  3  4  2  0
  4  5  1  0
  5  6  1  0
  6  7  1  0
  7  8  1  0
  7  9  1  0
  9  2  1  0
  9  5  1  0
  1 10  1  0
  1 11  1  0
  1 12  1  0
  2 13  1  0
  3 14  1  0
  4 15  1  0
  5 16  1  0
  7 17  1  0
  8 18  1  0
  8 19  1  0
  8 20  1  0
  9 21  1  0
M  END
