
     RDKit          3D

 19 19  0  0  0  0  0  0  0  0999 V2000
   -0.6964   -1.7659   -0.5400 C   0  0  0  0  0  0  0  0  0  0  0  0
   -0.1533   -0.3483   -0.7189 C   0  0  0  0  0  0  0  0  0  0  0  0
   -1.2570    0.6528   -0.7563 C   0  0  0  0  0  0  0  0  0  0  0  0
   -1.2711    1.5364    0.3017 O   0  0  0  0  0  0  0  0  0  0  0  0
   -0.0308    2.1163    0.5458 C   0  0  0  0  0  0  0  0  0  0  0  0
    0.8804    1.0649    1.0042 C   0  0  0  0  0  0  0  0  0  0  0  0
    0.8186   -0.1271    0.3899 C   0  0  0  0  0  0  0  0  0  0  0  0
    1.7044   -1.1737    0.8242 C   0  0  0  0  0  0  0  0  0  0  0  0
    1.6424   -2.2813    0.2485 O   0  0  0  0  0  0  0  0  0  0  0  0
   -0.6636   -2.0282    0.5329 H   0  0  0  0  0  0  0  0  0  0  0  0
   -1.7800   -1.7104   -0.8529 H   0  0  0  0  0  0  0  0  0  0  0  0
   -0.2064   -2.4824   -1.1994 H   0  0  0  0  0  0  0  0  0  0  0  0
    0.3771   -0.3503   -1.7084 H   0  0  0  0  0  0  0  0  0  0  0  0
   -1.2727    1.1856   -1.7503 H   0  0  0  0  0  0  0  0  0  0  0  0
   -2.2261    0.0977   -0.7279 H   0  0  0  0  0  0  0  0  0  0  0  0
    0.2955    2.6310   -0.3718 H   0  0  0  0  0  0  0  0  0  0  0  0
   -0.1754    2.8503    1.3583 H   0  0  0  0  0  0  0  0  0  0  0  0
    1.6003    1.1767    1.8014 H   0  0  0  0  0  0  0  0  0  0  0  0
    2.4140   -1.0442    1.6190 H   0  0  0  0  0  0  0  0  0  0  0  0
  1  2  1  0
  2  3  1  0
  3  4  1  0
  4  5  1  0
  5  6  1  0
  6  7  2  0
  7  8  1  0
  8  9  2  0
  7  2  1  0
  1 10  1  0
  1 11  1  0
  1 12  1  0
  2 13  1  0
  3 14  1  0
  3 15  1  0
  5 16  1  0
  5 17  1  0
  6 18  1  0
  8 19  1  0
M  END
