
     RDKit          3D

 19 21  0  0  0  0  0  0  0  0999 V2000
   -2.6362   -0.5925    0.1424 C   0  0  0  0  0  0  0  0  0  0  0  0
   -1.4832   -0.0121    0.9045 C   0  0  0  0  0  0  0  0  0  0  0  0
   -0.8207    1.0110    0.0235 C   0  0  0  0  0  0  0  0  0  0  0  0
    0.2994    0.5415   -0.4462 C   0  0  0  0  0  0  0  0  0  0  0  0
    1.5850    0.1649   -1.0603 C   0  0  0  0  0  0  0  0  0  0  0  0
    2.8707   -0.0081   -0.4421 C   0  0  0  0  0  0  0  0  0  0  0  0
    1.8027   -0.3156    0.4371 C   0  0  0  0  0  0  0  0  0  0  0  0
    0.4194   -0.8668    0.1060 C   0  0  0  0  0  0  0  0  0  0  0  0
   -0.4673   -0.9343    1.1459 O   0  0  0  0  0  0  0  0  0  0  0  0
   -3.2507    0.2540   -0.2389 H   0  0  0  0  0  0  0  0  0  0  0  0
   -3.3147   -1.1987    0.7773 H   0  0  0  0  0  0  0  0  0  0  0  0
   -2.3209   -1.1713   -0.7571 H   0  0  0  0  0  0  0  0  0  0  0  0
   -1.8692    0.4260    1.8310 H   0  0  0  0  0  0  0  0  0  0  0  0
   -1.2822    2.0006   -0.1521 H   0  0  0  0  0  0  0  0  0  0  0  0
    1.3585   -0.6782   -1.7872 H   0  0  0  0  0  0  0  0  0  0  0  0
    3.4820    0.9374   -0.3247 H   0  0  0  0  0  0  0  0  0  0  0  0
    3.5626   -0.8384   -0.7344 H   0  0  0  0  0  0  0  0  0  0  0  0
    1.6127    0.5006    1.2098 H   0  0  0  0  0  0  0  0  0  0  0  0
    0.4523   -1.6539   -0.6345 H   0  0  0  0  0  0  0  0  0  0  0  0
  1  2  1  0
  2  3  1  0
  3  4  2  0
  4  5  1  0
  5  6  1  0
  6  7  1  0
  7  8  1  0
  8  9  1  0
  9  2  1  0
  8  4  1  0
  7  5  1  0
  1 10  1  0
  1 11  1  0
  1 12  1  0
  2 13  1  0
  3 14  1  0
  5 15  1  0
  6 16  1  0
  6 17  1  0
  7 18  1  0
  8 19  1  0
M  END
