
     RDKit          3D

 21 22  0  0  0  0  0  0  0  0999 V2000
    2.6594    0.6048   -0.5971 C   0  0  0  0  0  0  0  0  0  0  0  0
    1.3745    0.5980    0.1742 C   0  0  0  0  0  0  0  0  0  0  0  0
    0.1774    0.1239   -0.6003 C   0  0  0  0  0  0  0  0  0  0  0  0
   -1.1319    0.3084    0.1094 C   0  0  0  0  0  0  0  0  0  0  0  0
   -2.3457   -0.1410   -0.6254 C   0  0  0  0  0  0  0  0  0  0  0  0
   -3.4579    0.1172    0.2051 O   0  0  0  0  0  0  0  0  0  0  0  0
   -0.6244   -0.6133    1.1962 C   0  0  0  0  0  0  0  0  0  0  0  0
    0.6921   -0.6757    0.5080 C   0  0  0  0  0  0  0  0  0  0  0  0
    1.3845   -1.8524    0.3507 O   0  0  0  0  0  0  0  0  0  0  0  0
    2.4661    0.7067   -1.7052 H   0  0  0  0  0  0  0  0  0  0  0  0
    3.2678   -0.2980   -0.4818 H   0  0  0  0  0  0  0  0  0  0  0  0
    3.2352    1.5391   -0.3418 H   0  0  0  0  0  0  0  0  0  0  0  0
    1.2263    1.4158    0.9208 H   0  0  0  0  0  0  0  0  0  0  0  0
    0.2380   -0.1555   -1.6471 H   0  0  0  0  0  0  0  0  0  0  0  0
   -1.2717    1.3608    0.4696 H   0  0  0  0  0  0  0  0  0  0  0  0
   -2.4133    0.4680   -1.5651 H   0  0  0  0  0  0  0  0  0  0  0  0
   -2.3377   -1.1972   -0.9136 H   0  0  0  0  0  0  0  0  0  0  0  0
   -3.6083    1.0935    0.2345 H   0  0  0  0  0  0  0  0  0  0  0  0
   -1.1949   -1.5599    1.2444 H   0  0  0  0  0  0  0  0  0  0  0  0
   -0.5680   -0.0926    2.1746 H   0  0  0  0  0  0  0  0  0  0  0  0
    2.2325   -1.7505    0.8900 H   0  0  0  0  0  0  0  0  0  0  0  0
  1  2  1  0
  2  3  1  0
  3  4  1  0
  4  5  1  0
  5  6  1  0
  4  7  1  0
  7  8  1  0
  8  9  1  0
  8  2  1  0
  8  3  1  0
  1 10  1  0
  1 11  1  0
  1 12  1  0
  2 13  1  0
  3 14  1  0
  4 15  1  0
  5 16  1  0
  5 17  1  0
  6 18  1  0
  7 19  1  0
  7 20  1  0
  9 21  1  0
M  END
