
     RDKit          3D

 19 20  0  0  0  0  0  0  0  0999 V2000
    2.6361    0.1610   -0.5804 C   0  0  0  0  0  0  0  0  0  0  0  0
    1.1469    0.3234   -0.4652 C   0  0  0  0  0  0  0  0  0  0  0  0
    0.6422    0.2986    0.9717 C   0  0  0  0  0  0  0  0  0  0  0  0
   -0.7624    0.6113    1.2563 C   0  0  0  0  0  0  0  0  0  0  0  0
   -1.3629    1.3671    1.9707 O   0  0  0  0  0  0  0  0  0  0  0  0
   -1.1581   -0.4297    0.2608 C   0  0  0  0  0  0  0  0  0  0  0  0
   -1.9241    0.2042   -0.8804 C   0  0  0  0  0  0  0  0  0  0  0  0
   -1.9122   -1.4536    0.8496 O   0  0  0  0  0  0  0  0  0  0  0  0
    0.2714   -0.7677   -0.0209 C   0  0  0  0  0  0  0  0  0  0  0  0
    2.9264   -0.7842   -0.0495 H   0  0  0  0  0  0  0  0  0  0  0  0
    3.0072    0.0772   -1.6027 H   0  0  0  0  0  0  0  0  0  0  0  0
    3.0979    1.0520   -0.0932 H   0  0  0  0  0  0  0  0  0  0  0  0
    0.6828    1.0739   -1.1567 H   0  0  0  0  0  0  0  0  0  0  0  0
    1.3556    0.0644    1.7841 H   0  0  0  0  0  0  0  0  0  0  0  0
   -2.1015   -0.4758   -1.7129 H   0  0  0  0  0  0  0  0  0  0  0  0
   -2.9379    0.4649   -0.4567 H   0  0  0  0  0  0  0  0  0  0  0  0
   -1.3920    1.1214   -1.1961 H   0  0  0  0  0  0  0  0  0  0  0  0
   -2.8516   -1.1337    0.8888 H   0  0  0  0  0  0  0  0  0  0  0  0
    0.6362   -1.7745    0.2327 H   0  0  0  0  0  0  0  0  0  0  0  0
  1  2  1  0
  2  3  1  0
  3  4  1  0
  4  5  2  0
  4  6  1  0
  6  7  1  0
  6  8  1  0
  6  9  1  0
  9  2  1  0
  9  3  1  0
  1 10  1  0
  1 11  1  0
  1 12  1  0
  2 13  1  0
  3 14  1  0
  7 15  1  0
  7 16  1  0
  7 17  1  0
  8 18  1  0
  9 19  1  0
M  END
