
     RDKit          3D

 25 26  0  0  0  0  0  0  0  0999 V2000
    2.1455    0.9979    0.7647 C   0  0  0  0  0  0  0  0  0  0  0  0
    1.3085    0.4434   -0.3438 C   0  0  0  0  0  0  0  0  0  0  0  0
    1.7100   -0.9746   -0.7787 C   0  0  0  0  0  0  0  0  0  0  0  0
    0.2059   -1.2016   -1.0038 C   0  0  0  0  0  0  0  0  0  0  0  0
   -0.0022   -0.1241   -0.0271 C   0  0  0  0  0  0  0  0  0  0  0  0
   -0.2522   -0.6399    1.3588 C   0  0  0  0  0  0  0  0  0  0  0  0
   -1.7351   -0.3770    1.0553 C   0  0  0  0  0  0  0  0  0  0  0  0
   -1.2158    0.6562    0.0436 C   0  0  0  0  0  0  0  0  0  0  0  0
   -2.1045    0.8169   -1.1373 C   0  0  0  0  0  0  0  0  0  0  0  0
    2.2204    0.2666    1.6036 H   0  0  0  0  0  0  0  0  0  0  0  0
    1.6340    1.9019    1.1528 H   0  0  0  0  0  0  0  0  0  0  0  0
    3.1478    1.2534    0.4080 H   0  0  0  0  0  0  0  0  0  0  0  0
    1.2982    1.0835   -1.2380 H   0  0  0  0  0  0  0  0  0  0  0  0
    2.3233   -1.0273   -1.6702 H   0  0  0  0  0  0  0  0  0  0  0  0
    2.0582   -1.5187    0.1223 H   0  0  0  0  0  0  0  0  0  0  0  0
   -0.0618   -0.9079   -2.0325 H   0  0  0  0  0  0  0  0  0  0  0  0
   -0.1467   -2.1805   -0.6535 H   0  0  0  0  0  0  0  0  0  0  0  0
    0.0904    0.0683    2.1194 H   0  0  0  0  0  0  0  0  0  0  0  0
   -0.0366   -1.7072    1.5166 H   0  0  0  0  0  0  0  0  0  0  0  0
   -2.2924    0.0515    1.8887 H   0  0  0  0  0  0  0  0  0  0  0  0
   -2.1529   -1.2798    0.5828 H   0  0  0  0  0  0  0  0  0  0  0  0
   -1.0861    1.6269    0.5704 H   0  0  0  0  0  0  0  0  0  0  0  0
   -2.9104    1.5512   -0.8362 H   0  0  0  0  0  0  0  0  0  0  0  0
   -2.5820   -0.0904   -1.5036 H   0  0  0  0  0  0  0  0  0  0  0  0
   -1.5635    1.3112   -1.9623 H   0  0  0  0  0  0  0  0  0  0  0  0
  1  2  1  0
  2  3  1  0
  3  4  1  0
  4  5  1  0
  5  6  1  0
  6  7  1  0
  7  8  1  0
  8  9  1  0
  5  2  1  0
  8  5  1  0
  1 10  1  0
  1 11  1  0
  1 12  1  0
  2 13  1  0
  3 14  1  0
  3 15  1  0
  4 16  1  0
  4 17  1  0
  6 18  1  0
  6 19  1  0
  7 20  1  0
  7 21  1  0
  8 22  1  0
  9 23  1  0
  9 24  1  0
  9 25  1  0
M  END
