
     RDKit          3D

 23 24  0  0  0  0  0  0  0  0999 V2000
    3.1482   -0.0756    0.3177 C   0  0  0  0  0  0  0  0  0  0  0  0
    1.9820   -0.2145   -0.6187 C   0  0  0  0  0  0  0  0  0  0  0  0
    0.7793   -0.8754    0.0762 C   0  0  0  0  0  0  0  0  0  0  0  0
   -0.0645    0.0312   -0.7564 C   0  0  0  0  0  0  0  0  0  0  0  0
   -1.3297    0.5443   -0.1335 C   0  0  0  0  0  0  0  0  0  0  0  0
   -2.2837   -0.5323    0.2658 C   0  0  0  0  0  0  0  0  0  0  0  0
   -3.5670   -0.0346    0.8966 C   0  0  0  0  0  0  0  0  0  0  0  0
   -3.5256   -0.6266   -0.3690 O   0  0  0  0  0  0  0  0  0  0  0  0
    1.0969    1.0164   -0.7341 C   0  0  0  0  0  0  0  0  0  0  0  0
    3.7776    0.8137    0.0628 H   0  0  0  0  0  0  0  0  0  0  0  0
    2.7915   -0.0389    1.3625 H   0  0  0  0  0  0  0  0  0  0  0  0
    3.8076   -0.9588    0.1205 H   0  0  0  0  0  0  0  0  0  0  0  0
    2.2438   -0.6869   -1.5897 H   0  0  0  0  0  0  0  0  0  0  0  0
    0.8192   -0.6382    1.1574 H   0  0  0  0  0  0  0  0  0  0  0  0
    0.7918   -1.9389   -0.1752 H   0  0  0  0  0  0  0  0  0  0  0  0
   -0.1721   -0.3594   -1.7879 H   0  0  0  0  0  0  0  0  0  0  0  0
   -1.1320    1.2171    0.7247 H   0  0  0  0  0  0  0  0  0  0  0  0
   -1.8144    1.1973   -0.9182 H   0  0  0  0  0  0  0  0  0  0  0  0
   -1.8737   -1.4354    0.7602 H   0  0  0  0  0  0  0  0  0  0  0  0
   -3.7736    1.0404    0.8759 H   0  0  0  0  0  0  0  0  0  0  0  0
   -4.0563   -0.6368    1.6754 H   0  0  0  0  0  0  0  0  0  0  0  0
    1.2306    1.6005   -1.6557 H   0  0  0  0  0  0  0  0  0  0  0  0
    1.1241    1.5914    0.2140 H   0  0  0  0  0  0  0  0  0  0  0  0
  1  2  1  0
  2  3  1  0
  3  4  1  0
  4  5  1  0
  5  6  1  0
  6  7  1  0
  7  8  1  0
  4  9  1  0
  9  2  1  0
  8  6  1  0
  1 10  1  0
  1 11  1  0
  1 12  1  0
  2 13  1  0
  3 14  1  0
  3 15  1  0
  4 16  1  0
  5 17  1  0
  5 18  1  0
  6 19  1  0
  7 20  1  0
  7 21  1  0
  9 22  1  0
  9 23  1  0
M  END
