
     RDKit          3D

 21 22  0  0  0  0  0  0  0  0999 V2000
    1.4580   -1.2484    1.0440 C   0  0  0  0  0  0  0  0  0  0  0  0
    1.3610    0.0990    0.4235 C   0  0  0  0  0  0  0  0  0  0  0  0
    1.4624    0.2682   -1.0478 C   0  0  0  0  0  0  0  0  0  0  0  0
    1.3437    1.5648   -1.5429 O   0  0  0  0  0  0  0  0  0  0  0  0
    0.2284    1.9964   -0.7859 C   0  0  0  0  0  0  0  0  0  0  0  0
    0.1629    0.5487   -0.2672 C   0  0  0  0  0  0  0  0  0  0  0  0
   -1.0142   -0.2554   -0.6525 C   0  0  0  0  0  0  0  0  0  0  0  0
   -1.7286   -0.8893    0.4978 C   0  0  0  0  0  0  0  0  0  0  0  0
   -2.1511    0.1689    1.3378 O   0  0  0  0  0  0  0  0  0  0  0  0
    1.0650   -2.0681    0.4235 H   0  0  0  0  0  0  0  0  0  0  0  0
    2.5308   -1.5421    1.2602 H   0  0  0  0  0  0  0  0  0  0  0  0
    0.9958   -1.2078    2.0521 H   0  0  0  0  0  0  0  0  0  0  0  0
    1.8990    0.8918    1.0243 H   0  0  0  0  0  0  0  0  0  0  0  0
    1.4676   -0.5583   -1.7544 H   0  0  0  0  0  0  0  0  0  0  0  0
    0.5694    2.7230   -0.0200 H   0  0  0  0  0  0  0  0  0  0  0  0
   -0.6403    2.2718   -1.3865 H   0  0  0  0  0  0  0  0  0  0  0  0
   -1.7703    0.4421   -1.1249 H   0  0  0  0  0  0  0  0  0  0  0  0
   -0.7317   -0.9831   -1.4438 H   0  0  0  0  0  0  0  0  0  0  0  0
   -2.6459   -1.4042    0.0887 H   0  0  0  0  0  0  0  0  0  0  0  0
   -1.1537   -1.5740    1.1086 H   0  0  0  0  0  0  0  0  0  0  0  0
   -2.7080    0.7559    0.7655 H   0  0  0  0  0  0  0  0  0  0  0  0
  1  2  1  0
  2  3  1  0
  3  4  1  0
  4  5  1  0
  5  6  1  0
  6  7  1  0
  7  8  1  0
  8  9  1  0
  6  2  1  0
  6  3  1  0
  1 10  1  0
  1 11  1  0
  1 12  1  0
  2 13  1  0
  3 14  1  0
  5 15  1  0
  5 16  1  0
  7 17  1  0
  7 18  1  0
  8 19  1  0
  8 20  1  0
  9 21  1  0
M  END
