
     RDKit          3D

 25 26  0  0  0  0  0  0  0  0999 V2000
   -2.1958   -1.6268   -0.4676 C   0  0  0  0  0  0  0  0  0  0  0  0
   -1.1996   -0.8743    0.3337 C   0  0  0  0  0  0  0  0  0  0  0  0
   -1.7046    0.5020    0.7738 C   0  0  0  0  0  0  0  0  0  0  0  0
   -0.3856    1.0666    1.3212 C   0  0  0  0  0  0  0  0  0  0  0  0
    0.5748    0.7548    0.2141 C   0  0  0  0  0  0  0  0  0  0  0  0
    1.0730    1.9366   -0.5514 C   0  0  0  0  0  0  0  0  0  0  0  0
    1.3129   -0.5245    0.2431 C   0  0  0  0  0  0  0  0  0  0  0  0
    2.5339   -0.7183   -0.6210 C   0  0  0  0  0  0  0  0  0  0  0  0
    0.0245   -0.4500   -0.4799 C   0  0  0  0  0  0  0  0  0  0  0  0
   -3.1583   -1.1220   -0.6167 H   0  0  0  0  0  0  0  0  0  0  0  0
   -1.7798   -1.8352   -1.4858 H   0  0  0  0  0  0  0  0  0  0  0  0
   -2.3972   -2.6183    0.0233 H   0  0  0  0  0  0  0  0  0  0  0  0
   -0.8919   -1.3848    1.2770 H   0  0  0  0  0  0  0  0  0  0  0  0
   -2.4693    0.4218    1.5604 H   0  0  0  0  0  0  0  0  0  0  0  0
   -2.0278    1.1114   -0.0867 H   0  0  0  0  0  0  0  0  0  0  0  0
   -0.1692    0.4478    2.2275 H   0  0  0  0  0  0  0  0  0  0  0  0
   -0.4525    2.1356    1.5359 H   0  0  0  0  0  0  0  0  0  0  0  0
    0.2301    2.6583   -0.6615 H   0  0  0  0  0  0  0  0  0  0  0  0
    1.8765    2.4533    0.0234 H   0  0  0  0  0  0  0  0  0  0  0  0
    1.4815    1.6485   -1.5491 H   0  0  0  0  0  0  0  0  0  0  0  0
    1.3665   -1.0212    1.2328 H   0  0  0  0  0  0  0  0  0  0  0  0
    3.3559   -1.2486   -0.1013 H   0  0  0  0  0  0  0  0  0  0  0  0
    2.2153   -1.4210   -1.4466 H   0  0  0  0  0  0  0  0  0  0  0  0
    2.8584    0.2009   -1.1363 H   0  0  0  0  0  0  0  0  0  0  0  0
   -0.0717   -0.4927   -1.5622 H   0  0  0  0  0  0  0  0  0  0  0  0
  1  2  1  0
  2  3  1  0
  3  4  1  0
  4  5  1  0
  5  6  1  0
  5  7  1  0
  7  8  1  0
  7  9  1  0
  9  2  1  0
  9  5  1  0
  1 10  1  0
  1 11  1  0
  1 12  1  0
  2 13  1  0
  3 14  1  0
  3 15  1  0
  4 16  1  0
  4 17  1  0
  6 18  1  0
  6 19  1  0
  6 20  1  0
  7 21  1  0
  8 22  1  0
  8 23  1  0
  8 24  1  0
  9 25  1  0
M  END
