
     RDKit          3D

 19 19  0  0  0  0  0  0  0  0999 V2000
    2.4244    0.0522    0.1230 C   0  0  0  0  0  0  0  0  0  0  0  0
    1.0322   -0.0003   -0.4334 C   0  0  0  0  0  0  0  0  0  0  0  0
    0.2770    1.1707    0.1042 C   0  0  0  0  0  0  0  0  0  0  0  0
    0.8338    2.0401    0.7829 O   0  0  0  0  0  0  0  0  0  0  0  0
   -1.1616    1.2220   -0.2240 C   0  0  0  0  0  0  0  0  0  0  0  0
   -1.9205   -0.0057    0.0656 C   0  0  0  0  0  0  0  0  0  0  0  0
   -1.1742   -1.2659    0.1953 C   0  0  0  0  0  0  0  0  0  0  0  0
    0.2767   -1.1932    0.0064 C   0  0  0  0  0  0  0  0  0  0  0  0
    0.9259   -2.2063    0.2310 O   0  0  0  0  0  0  0  0  0  0  0  0
    2.3933    0.2411    1.2198 H   0  0  0  0  0  0  0  0  0  0  0  0
    2.9229    0.9419   -0.3245 H   0  0  0  0  0  0  0  0  0  0  0  0
    3.0379   -0.8246   -0.1404 H   0  0  0  0  0  0  0  0  0  0  0  0
    1.0842    0.0071   -1.5412 H   0  0  0  0  0  0  0  0  0  0  0  0
   -1.5896    2.1042    0.3145 H   0  0  0  0  0  0  0  0  0  0  0  0
   -1.2156    1.4507   -1.3289 H   0  0  0  0  0  0  0  0  0  0  0  0
   -2.5127    0.1666    1.0129 H   0  0  0  0  0  0  0  0  0  0  0  0
   -2.7239   -0.1120   -0.7233 H   0  0  0  0  0  0  0  0  0  0  0  0
   -1.5610   -2.0338   -0.5383 H   0  0  0  0  0  0  0  0  0  0  0  0
   -1.3491   -1.7549    1.1983 H   0  0  0  0  0  0  0  0  0  0  0  0
  1  2  1  0
  2  3  1  0
  3  4  2  0
  3  5  1  0
  5  6  1  0
  6  7  1  0
  7  8  1  0
  8  9  2  0
  8  2  1  0
  1 10  1  0
  1 11  1  0
  1 12  1  0
  2 13  1  0
  5 14  1  0
  5 15  1  0
  6 16  1  0
  6 17  1  0
  7 18  1  0
  7 19  1  0
M  END
