
     RDKit          3D

 22 23  0  0  0  0  0  0  0  0999 V2000
    2.8341    0.0906   -0.3428 C   0  0  0  0  0  0  0  0  0  0  0  0
    1.4575    0.4436    0.0971 C   0  0  0  0  0  0  0  0  0  0  0  0
    0.5428   -0.7558    0.3902 C   0  0  0  0  0  0  0  0  0  0  0  0
   -0.5310    0.0141   -0.3114 C   0  0  0  0  0  0  0  0  0  0  0  0
   -1.5314    0.7215    0.5320 C   0  0  0  0  0  0  0  0  0  0  0  0
   -2.4883   -0.4403    0.2206 C   0  0  0  0  0  0  0  0  0  0  0  0
   -1.5972   -0.7095   -1.0011 C   0  0  0  0  0  0  0  0  0  0  0  0
    0.4801    0.7794   -1.0397 C   0  0  0  0  0  0  0  0  0  0  0  0
    3.5302    0.8650    0.0913 H   0  0  0  0  0  0  0  0  0  0  0  0
    3.1349   -0.8668    0.1679 H   0  0  0  0  0  0  0  0  0  0  0  0
    2.9682   -0.0224   -1.4236 H   0  0  0  0  0  0  0  0  0  0  0  0
    1.3627    1.1521    0.9352 H   0  0  0  0  0  0  0  0  0  0  0  0
    0.3031   -0.8902    1.4478 H   0  0  0  0  0  0  0  0  0  0  0  0
    0.8018   -1.6646   -0.1895 H   0  0  0  0  0  0  0  0  0  0  0  0
   -1.2238    0.7955    1.5738 H   0  0  0  0  0  0  0  0  0  0  0  0
   -1.8672    1.6563    0.0432 H   0  0  0  0  0  0  0  0  0  0  0  0
   -2.3211   -1.2316    0.9613 H   0  0  0  0  0  0  0  0  0  0  0  0
   -3.5092   -0.1472   -0.0080 H   0  0  0  0  0  0  0  0  0  0  0  0
   -1.4566   -1.7593   -1.2460 H   0  0  0  0  0  0  0  0  0  0  0  0
   -2.0316   -0.1469   -1.8565 H   0  0  0  0  0  0  0  0  0  0  0  0
    0.8069    0.2703   -1.9736 H   0  0  0  0  0  0  0  0  0  0  0  0
    0.3349    1.8461   -1.2176 H   0  0  0  0  0  0  0  0  0  0  0  0
  1  2  1  0
  2  3  1  0
  3  4  1  0
  4  5  1  0
  5  6  1  0
  6  7  1  0
  4  8  1  0
  8  2  1  0
  7  4  1  0
  1  9  1  0
  1 10  1  0
  1 11  1  0
  2 12  1  0
  3 13  1  0
  3 14  1  0
  5 15  1  0
  5 16  1  0
  6 17  1  0
  6 18  1  0
  7 19  1  0
  7 20  1  0
  8 21  1  0
  8 22  1  0
M  END
