
     RDKit          3D

 25 25  0  0  0  0  0  0  0  0999 V2000
    2.7267   -0.3560   -0.1133 C   0  0  0  0  0  0  0  0  0  0  0  0
    1.4182    0.2107    0.3636 C   0  0  0  0  0  0  0  0  0  0  0  0
    0.9394    1.2310   -0.6217 C   0  0  0  0  0  0  0  0  0  0  0  0
   -0.3896    1.7924   -0.2533 C   0  0  0  0  0  0  0  0  0  0  0  0
   -1.6506    1.3753   -0.2919 C   0  0  0  0  0  0  0  0  0  0  0  0
   -2.3807    0.1744   -0.7064 C   0  0  0  0  0  0  0  0  0  0  0  0
   -1.8490   -1.0961   -0.0711 C   0  0  0  0  0  0  0  0  0  0  0  0
   -0.4010   -1.2994   -0.4897 C   0  0  0  0  0  0  0  0  0  0  0  0
    0.4647   -0.8851    0.6492 C   0  0  0  0  0  0  0  0  0  0  0  0
    3.2516    0.2910   -0.8240 H   0  0  0  0  0  0  0  0  0  0  0  0
    3.3992   -0.5336    0.7512 H   0  0  0  0  0  0  0  0  0  0  0  0
    2.5414   -1.3320   -0.5778 H   0  0  0  0  0  0  0  0  0  0  0  0
    1.6478    0.7686    1.3165 H   0  0  0  0  0  0  0  0  0  0  0  0
    1.6913    2.0752   -0.5963 H   0  0  0  0  0  0  0  0  0  0  0  0
    0.9688    0.8746   -1.6801 H   0  0  0  0  0  0  0  0  0  0  0  0
   -0.3217    2.8168    0.1583 H   0  0  0  0  0  0  0  0  0  0  0  0
   -2.3172    2.1403    0.0904 H   0  0  0  0  0  0  0  0  0  0  0  0
   -2.3701    0.0146   -1.8144 H   0  0  0  0  0  0  0  0  0  0  0  0
   -3.4505    0.2395   -0.4215 H   0  0  0  0  0  0  0  0  0  0  0  0
   -2.4357   -1.9359   -0.5282 H   0  0  0  0  0  0  0  0  0  0  0  0
   -1.9340   -1.0964    1.0136 H   0  0  0  0  0  0  0  0  0  0  0  0
   -0.2240   -2.3720   -0.7404 H   0  0  0  0  0  0  0  0  0  0  0  0
   -0.2551   -0.7360   -1.4193 H   0  0  0  0  0  0  0  0  0  0  0  0
   -0.1348   -0.5900    1.5600 H   0  0  0  0  0  0  0  0  0  0  0  0
    1.0648   -1.7719    1.0092 H   0  0  0  0  0  0  0  0  0  0  0  0
  1  2  1  0
  2  3  1  0
  3  4  1  0
  4  5  2  3
  5  6  1  0
  6  7  1  0
  7  8  1  0
  8  9  1  0
  9  2  1  0
  1 10  1  0
  1 11  1  0
  1 12  1  0
  2 13  1  0
  3 14  1  0
  3 15  1  0
  4 16  1  0
  5 17  1  0
  6 18  1  0
  6 19  1  0
  7 20  1  0
  7 21  1  0
  8 22  1  0
  8 23  1  0
  9 24  1  0
  9 25  1  0
M  END
