
     RDKit          3D

 23 23  0  0  0  0  0  0  0  0999 V2000
    1.6057    1.0832    0.5370 C   0  0  0  0  0  0  0  0  0  0  0  0
    0.9537    0.3061   -0.5599 C   0  0  0  0  0  0  0  0  0  0  0  0
    1.4166   -1.1192   -0.4793 C   0  0  0  0  0  0  0  0  0  0  0  0
    0.7887   -1.8815    0.4529 O   0  0  0  0  0  0  0  0  0  0  0  0
   -0.5695   -1.8418    0.4711 C   0  0  0  0  0  0  0  0  0  0  0  0
   -0.9925   -0.3930    0.7100 C   0  0  0  0  0  0  0  0  0  0  0  0
   -2.3320   -0.2583    0.9436 O   0  0  0  0  0  0  0  0  0  0  0  0
   -0.5323    0.3504   -0.5486 C   0  0  0  0  0  0  0  0  0  0  0  0
   -1.1173    1.7199   -0.6158 C   0  0  0  0  0  0  0  0  0  0  0  0
    1.2880    2.1329    0.6087 H   0  0  0  0  0  0  0  0  0  0  0  0
    1.5568    0.5732    1.5321 H   0  0  0  0  0  0  0  0  0  0  0  0
    2.7104    1.1145    0.3009 H   0  0  0  0  0  0  0  0  0  0  0  0
    1.3221    0.7166   -1.5268 H   0  0  0  0  0  0  0  0  0  0  0  0
    1.4283   -1.5655   -1.5124 H   0  0  0  0  0  0  0  0  0  0  0  0
    2.5108   -1.0734   -0.1986 H   0  0  0  0  0  0  0  0  0  0  0  0
   -0.9371   -2.4120    1.3435 H   0  0  0  0  0  0  0  0  0  0  0  0
   -1.0839   -2.2200   -0.4134 H   0  0  0  0  0  0  0  0  0  0  0  0
   -0.3896   -0.0367    1.5641 H   0  0  0  0  0  0  0  0  0  0  0  0
   -2.7986   -1.1105    0.7566 H   0  0  0  0  0  0  0  0  0  0  0  0
   -0.9079   -0.2295   -1.4087 H   0  0  0  0  0  0  0  0  0  0  0  0
   -0.8557    2.3585    0.2443 H   0  0  0  0  0  0  0  0  0  0  0  0
   -2.2278    1.6112   -0.6284 H   0  0  0  0  0  0  0  0  0  0  0  0
   -0.8371    2.1749   -1.5730 H   0  0  0  0  0  0  0  0  0  0  0  0
  1  2  1  0
  2  3  1  0
  3  4  1  0
  4  5  1  0
  5  6  1  0
  6  7  1  0
  6  8  1  0
  8  9  1  0
  8  2  1  0
  1 10  1  0
  1 11  1  0
  1 12  1  0
  2 13  1  0
  3 14  1  0
  3 15  1  0
  5 16  1  0
  5 17  1  0
  6 18  1  0
  7 19  1  0
  8 20  1  0
  9 21  1  0
  9 22  1  0
  9 23  1  0
M  END
