
     RDKit          3D

 18 19  0  0  0  0  0  0  0  0999 V2000
    1.7594    0.8170   -0.0564 C   0  0  0  0  0  0  0  0  0  0  0  0
    0.6142    0.1042   -0.7211 C   0  0  0  0  0  0  0  0  0  0  0  0
    0.5344   -1.3186   -0.2544 C   0  0  0  0  0  0  0  0  0  0  0  0
   -0.9185   -1.2618   -0.6021 C   0  0  0  0  0  0  0  0  0  0  0  0
   -0.6608    0.0342    0.1225 C   0  0  0  0  0  0  0  0  0  0  0  0
   -1.5266    1.0551    0.3636 C   0  0  0  0  0  0  0  0  0  0  0  0
    0.1428   -0.7588    1.0716 C   0  0  0  0  0  0  0  0  0  0  0  0
    0.3733   -0.8991    2.2428 O   0  0  0  0  0  0  0  0  0  0  0  0
    1.5017    1.0504    1.0029 H   0  0  0  0  0  0  0  0  0  0  0  0
    2.6686    0.1603    0.0093 H   0  0  0  0  0  0  0  0  0  0  0  0
    2.0457    1.6977   -0.6446 H   0  0  0  0  0  0  0  0  0  0  0  0
    0.4543    0.2908   -1.7813 H   0  0  0  0  0  0  0  0  0  0  0  0
    1.1871   -2.0588   -0.4156 H   0  0  0  0  0  0  0  0  0  0  0  0
   -1.4879   -2.0100   -0.0201 H   0  0  0  0  0  0  0  0  0  0  0  0
   -1.1773   -1.1654   -1.6686 H   0  0  0  0  0  0  0  0  0  0  0  0
   -1.2546    2.0471   -0.1082 H   0  0  0  0  0  0  0  0  0  0  0  0
   -1.6686    1.3263    1.4534 H   0  0  0  0  0  0  0  0  0  0  0  0
   -2.5873    0.8896    0.0062 H   0  0  0  0  0  0  0  0  0  0  0  0
  1  2  1  0
  2  3  1  0
  3  4  1  0
  4  5  1  0
  5  6  1  0
  5  7  1  0
  7  8  2  0
  5  2  1  0
  7  3  1  0
  1  9  1  0
  1 10  1  0
  1 11  1  0
  2 12  1  0
  3 13  1  0
  4 14  1  0
  4 15  1  0
  6 16  1  0
  6 17  1  0
  6 18  1  0
M  END
