
     RDKit          3D

 19 20  0  0  0  0  0  0  0  0999 V2000
    1.8746    0.3926   -0.5027 C   0  0  0  0  0  0  0  0  0  0  0  0
    0.6784   -0.5438   -0.4505 C   0  0  0  0  0  0  0  0  0  0  0  0
    0.6767   -1.2591    0.8939 C   0  0  0  0  0  0  0  0  0  0  0  0
    0.9603   -0.4246    1.9282 O   0  0  0  0  0  0  0  0  0  0  0  0
   -0.2731   -0.1721    1.4216 C   0  0  0  0  0  0  0  0  0  0  0  0
   -0.5926    0.0930    0.0050 C   0  0  0  0  0  0  0  0  0  0  0  0
   -0.8296    1.5151   -0.4086 C   0  0  0  0  0  0  0  0  0  0  0  0
   -1.7667   -0.7486   -0.4372 C   0  0  0  0  0  0  0  0  0  0  0  0
   -1.6082   -1.9494   -0.6193 O   0  0  0  0  0  0  0  0  0  0  0  0
    2.3392    0.5343    0.4973 H   0  0  0  0  0  0  0  0  0  0  0  0
    2.6665   -0.0272   -1.1534 H   0  0  0  0  0  0  0  0  0  0  0  0
    1.5686    1.4231   -0.8281 H   0  0  0  0  0  0  0  0  0  0  0  0
    0.6245   -1.2745   -1.2623 H   0  0  0  0  0  0  0  0  0  0  0  0
    0.3835   -2.2887    0.9827 H   0  0  0  0  0  0  0  0  0  0  0  0
   -1.1228   -0.4899    2.0545 H   0  0  0  0  0  0  0  0  0  0  0  0
   -1.8685    1.7767   -0.0752 H   0  0  0  0  0  0  0  0  0  0  0  0
   -0.1384    2.2068    0.0701 H   0  0  0  0  0  0  0  0  0  0  0  0
   -0.8289    1.5838   -1.5134 H   0  0  0  0  0  0  0  0  0  0  0  0
   -2.7436   -0.3473   -0.6024 H   0  0  0  0  0  0  0  0  0  0  0  0
  1  2  1  0
  2  3  1  0
  3  4  1  0
  4  5  1  0
  5  6  1  0
  6  7  1  0
  6  8  1  0
  8  9  2  0
  6  2  1  0
  5  3  1  0
  1 10  1  0
  1 11  1  0
  1 12  1  0
  2 13  1  0
  3 14  1  0
  5 15  1  0
  7 16  1  0
  7 17  1  0
  7 18  1  0
  8 19  1  0
M  END
