
     RDKit          3D

 20 20  0  0  0  0  0  0  0  0999 V2000
   -2.4711    0.7255   -0.0857 C   0  0  0  0  0  0  0  0  0  0  0  0
   -1.5530   -0.1598    0.6908 C   0  0  0  0  0  0  0  0  0  0  0  0
   -0.8125   -1.1031   -0.2619 C   0  0  0  0  0  0  0  0  0  0  0  0
    0.1442    0.0129   -0.2162 C   0  0  0  0  0  0  0  0  0  0  0  0
    1.6069   -0.3074   -0.3140 C   0  0  0  0  0  0  0  0  0  0  0  0
    2.4722    0.8725   -0.0037 C   0  0  0  0  0  0  0  0  0  0  0  0
    1.9975   -1.3574    0.4999 O   0  0  0  0  0  0  0  0  0  0  0  0
   -0.3184    0.3812    1.0344 O   0  0  0  0  0  0  0  0  0  0  0  0
   -3.5334    0.4016    0.0980 H   0  0  0  0  0  0  0  0  0  0  0  0
   -2.3255    0.6397   -1.1815 H   0  0  0  0  0  0  0  0  0  0  0  0
   -2.4194    1.7823    0.2166 H   0  0  0  0  0  0  0  0  0  0  0  0
   -2.0646   -0.6606    1.5253 H   0  0  0  0  0  0  0  0  0  0  0  0
   -0.5915   -2.0316    0.2554 H   0  0  0  0  0  0  0  0  0  0  0  0
   -1.3147   -1.2045   -1.2507 H   0  0  0  0  0  0  0  0  0  0  0  0
   -0.1133    0.8066   -0.9487 H   0  0  0  0  0  0  0  0  0  0  0  0
    1.8010   -0.6208   -1.3669 H   0  0  0  0  0  0  0  0  0  0  0  0
    1.9161    1.7036    0.4724 H   0  0  0  0  0  0  0  0  0  0  0  0
    3.2914    0.6154    0.7271 H   0  0  0  0  0  0  0  0  0  0  0  0
    2.9993    1.2820   -0.8957 H   0  0  0  0  0  0  0  0  0  0  0  0
    1.2887   -1.7780    1.0051 H   0  0  0  0  0  0  0  0  0  0  0  0
  1  2  1  0
  2  3  1  0
  3  4  1  0
  4  5  1  0
  5  6  1  0
  5  7  1  0
  4  8  1  0
  8  2  1  0
  1  9  1  0
  1 10  1  0
  1 11  1  0
  2 12  1  0
  3 13  1  0
  3 14  1  0
  4 15  1  0
  5 16  1  0
  6 17  1  0
  6 18  1  0
  6 19  1  0
  7 20  1  0
M  END
