
     RDKit          3D

 25 25  0  0  0  0  0  0  0  0999 V2000
   -2.2106   -0.3198   -0.3974 C   0  0  0  0  0  0  0  0  0  0  0  0
   -1.0915    0.2882    0.3772 C   0  0  0  0  0  0  0  0  0  0  0  0
   -0.6839    1.5800   -0.2928 C   0  0  0  0  0  0  0  0  0  0  0  0
    0.6414    2.0262    0.1629 C   0  0  0  0  0  0  0  0  0  0  0  0
    1.8434    1.4736    0.0232 C   0  0  0  0  0  0  0  0  0  0  0  0
    2.1283    0.1922   -0.6746 C   0  0  0  0  0  0  0  0  0  0  0  0
    0.9529   -0.7452   -0.6474 C   0  0  0  0  0  0  0  0  0  0  0  0
    0.0892   -0.6386    0.5593 C   0  0  0  0  0  0  0  0  0  0  0  0
   -0.3458   -1.9951    0.9916 C   0  0  0  0  0  0  0  0  0  0  0  0
   -2.4650    0.2354   -1.3346 H   0  0  0  0  0  0  0  0  0  0  0  0
   -2.0375   -1.3880   -0.6469 H   0  0  0  0  0  0  0  0  0  0  0  0
   -3.1743   -0.3193    0.1928 H   0  0  0  0  0  0  0  0  0  0  0  0
   -1.4560    0.5452    1.3936 H   0  0  0  0  0  0  0  0  0  0  0  0
   -0.7570    1.4157   -1.3809 H   0  0  0  0  0  0  0  0  0  0  0  0
   -1.4267    2.3530   -0.0063 H   0  0  0  0  0  0  0  0  0  0  0  0
    0.6966    2.9787    0.7214 H   0  0  0  0  0  0  0  0  0  0  0  0
    2.6891    2.0094    0.4592 H   0  0  0  0  0  0  0  0  0  0  0  0
    2.4402    0.4341   -1.7196 H   0  0  0  0  0  0  0  0  0  0  0  0
    3.0290   -0.2558   -0.1942 H   0  0  0  0  0  0  0  0  0  0  0  0
    1.3952   -1.7860   -0.6703 H   0  0  0  0  0  0  0  0  0  0  0  0
    0.3550   -0.6966   -1.5955 H   0  0  0  0  0  0  0  0  0  0  0  0
    0.7164   -0.1768    1.3766 H   0  0  0  0  0  0  0  0  0  0  0  0
    0.2791   -2.3782    1.8353 H   0  0  0  0  0  0  0  0  0  0  0  0
   -0.2126   -2.7556    0.1678 H   0  0  0  0  0  0  0  0  0  0  0  0
   -1.3949   -2.0769    1.2997 H   0  0  0  0  0  0  0  0  0  0  0  0
  1  2  1  0
  2  3  1  0
  3  4  1  0
  4  5  2  0
  5  6  1  0
  6  7  1  0
  7  8  1  0
  8  9  1  0
  8  2  1  0
  1 10  1  0
  1 11  1  0
  1 12  1  0
  2 13  1  0
  3 14  1  0
  3 15  1  0
  4 16  1  0
  5 17  1  0
  6 18  1  0
  6 19  1  0
  7 20  1  0
  7 21  1  0
  8 22  1  0
  9 23  1  0
  9 24  1  0
  9 25  1  0
M  END
