
     RDKit          3D

 21 22  0  0  0  0  0  0  0  0999 V2000
   -1.7002    0.9391   -1.9189 C   0  0  0  0  0  0  0  0  0  0  0  0
   -1.1877   -0.1202   -0.9286 C   0  0  0  0  0  0  0  0  0  0  0  0
    0.2127   -0.3418   -0.6558 C   0  0  0  0  0  0  0  0  0  0  0  0
    0.9020   -0.3924    0.6852 C   0  0  0  0  0  0  0  0  0  0  0  0
    2.4166   -0.4508    0.5542 C   0  0  0  0  0  0  0  0  0  0  0  0
    3.0744    0.1364    1.6040 O   0  0  0  0  0  0  0  0  0  0  0  0
    0.4085    0.9336    0.7525 O   0  0  0  0  0  0  0  0  0  0  0  0
   -0.7792    0.3568    0.3520 C   0  0  0  0  0  0  0  0  0  0  0  0
   -1.3506   -0.4883    1.4729 C   0  0  0  0  0  0  0  0  0  0  0  0
   -2.8016    0.8454   -2.0055 H   0  0  0  0  0  0  0  0  0  0  0  0
   -1.2682    0.7527   -2.9082 H   0  0  0  0  0  0  0  0  0  0  0  0
   -1.5086    1.9565   -1.5215 H   0  0  0  0  0  0  0  0  0  0  0  0
   -1.7631   -1.0802   -1.0928 H   0  0  0  0  0  0  0  0  0  0  0  0
    0.8285    0.3832   -1.2809 H   0  0  0  0  0  0  0  0  0  0  0  0
    0.5764   -1.0916    1.4284 H   0  0  0  0  0  0  0  0  0  0  0  0
    2.7056    0.1004   -0.3852 H   0  0  0  0  0  0  0  0  0  0  0  0
    2.7692   -1.4906    0.4098 H   0  0  0  0  0  0  0  0  0  0  0  0
    3.2604    1.0905    1.3822 H   0  0  0  0  0  0  0  0  0  0  0  0
   -2.4465   -0.2000    1.5131 H   0  0  0  0  0  0  0  0  0  0  0  0
   -1.3847   -1.5748    1.2144 H   0  0  0  0  0  0  0  0  0  0  0  0
   -0.9638   -0.2638    2.4628 H   0  0  0  0  0  0  0  0  0  0  0  0
  1  2  1  0
  2  3  1  0
  3  4  1  0
  4  5  1  0
  5  6  1  0
  4  7  1  0
  7  8  1  0
  8  9  1  0
  8  2  1  0
  8  3  1  0
  1 10  1  0
  1 11  1  0
  1 12  1  0
  2 13  1  0
  3 14  1  0
  4 15  1  0
  5 16  1  0
  5 17  1  0
  6 18  1  0
  9 19  1  0
  9 20  1  0
  9 21  1  0
M  END
