
     RDKit          3D

 19 21  0  0  0  0  0  0  0  0999 V2000
    1.4475   -0.9003   -0.7602 C   0  0  0  0  0  0  0  0  0  0  0  0
    0.7392   -0.1673    0.3321 C   0  0  0  0  0  0  0  0  0  0  0  0
    0.7978    1.3364    0.1729 C   0  0  0  0  0  0  0  0  0  0  0  0
   -0.4864    1.7494    0.8511 C   0  0  0  0  0  0  0  0  0  0  0  0
   -1.1845    0.6013    1.1838 O   0  0  0  0  0  0  0  0  0  0  0  0
   -0.7862   -0.2790    0.1842 C   0  0  0  0  0  0  0  0  0  0  0  0
   -1.3148   -1.6236    0.2312 C   0  0  0  0  0  0  0  0  0  0  0  0
   -0.9837    0.4643   -0.9552 O   0  0  0  0  0  0  0  0  0  0  0  0
   -0.3674    1.6893   -0.6103 C   0  0  0  0  0  0  0  0  0  0  0  0
    1.1754   -1.9791   -0.6652 H   0  0  0  0  0  0  0  0  0  0  0  0
    1.1199   -0.5797   -1.7579 H   0  0  0  0  0  0  0  0  0  0  0  0
    2.5202   -0.8272   -0.5954 H   0  0  0  0  0  0  0  0  0  0  0  0
    1.0872   -0.4585    1.3161 H   0  0  0  0  0  0  0  0  0  0  0  0
    1.7112    1.8899    0.2941 H   0  0  0  0  0  0  0  0  0  0  0  0
   -0.5412    2.6564    1.4376 H   0  0  0  0  0  0  0  0  0  0  0  0
   -2.0891   -1.8031    1.0128 H   0  0  0  0  0  0  0  0  0  0  0  0
   -0.5464   -2.4368    0.3476 H   0  0  0  0  0  0  0  0  0  0  0  0
   -1.8264   -1.8740   -0.7414 H   0  0  0  0  0  0  0  0  0  0  0  0
   -0.4722    2.5417   -1.2779 H   0  0  0  0  0  0  0  0  0  0  0  0
  1  2  1  0
  2  3  1  0
  3  4  1  0
  4  5  1  0
  5  6  1  0
  6  7  1  0
  6  8  1  0
  8  9  1  0
  6  2  1  0
  9  3  1  0
  9  4  1  0
  1 10  1  0
  1 11  1  0
  1 12  1  0
  2 13  1  0
  3 14  1  0
  4 15  1  0
  7 16  1  0
  7 17  1  0
  7 18  1  0
  9 19  1  0
M  END
