
     RDKit          3D

 23 23  0  0  0  0  0  0  0  0999 V2000
    2.7686    0.3815    0.3908 C   0  0  0  0  0  0  0  0  0  0  0  0
    1.6446   -0.5514    0.0829 C   0  0  0  0  0  0  0  0  0  0  0  0
    0.3765   -0.3302    0.8959 C   0  0  0  0  0  0  0  0  0  0  0  0
   -0.4140   -0.5638   -0.3853 C   0  0  0  0  0  0  0  0  0  0  0  0
   -0.9096   -1.8338   -0.5508 O   0  0  0  0  0  0  0  0  0  0  0  0
   -1.5177    0.4739   -0.5762 C   0  0  0  0  0  0  0  0  0  0  0  0
   -2.6356    0.2631    0.4141 C   0  0  0  0  0  0  0  0  0  0  0  0
   -0.9960    1.7536   -0.4046 O   0  0  0  0  0  0  0  0  0  0  0  0
    0.8311   -0.2252   -1.1525 C   0  0  0  0  0  0  0  0  0  0  0  0
    3.0394    1.0354   -0.4798 H   0  0  0  0  0  0  0  0  0  0  0  0
    3.6832   -0.2135    0.6837 H   0  0  0  0  0  0  0  0  0  0  0  0
    2.5404    1.0771    1.2238 H   0  0  0  0  0  0  0  0  0  0  0  0
    1.9439   -1.6195    0.0625 H   0  0  0  0  0  0  0  0  0  0  0  0
    0.3671    0.7118    1.2605 H   0  0  0  0  0  0  0  0  0  0  0  0
    0.2637   -1.0868    1.6694 H   0  0  0  0  0  0  0  0  0  0  0  0
   -0.5985   -2.4814    0.1289 H   0  0  0  0  0  0  0  0  0  0  0  0
   -1.9191    0.3627   -1.6063 H   0  0  0  0  0  0  0  0  0  0  0  0
   -3.2194   -0.6364    0.1377 H   0  0  0  0  0  0  0  0  0  0  0  0
   -2.2216    0.0407    1.4374 H   0  0  0  0  0  0  0  0  0  0  0  0
   -3.2547    1.1744    0.4163 H   0  0  0  0  0  0  0  0  0  0  0  0
   -1.7242    2.3112   -0.0251 H   0  0  0  0  0  0  0  0  0  0  0  0
    0.9138    0.8602   -1.4415 H   0  0  0  0  0  0  0  0  0  0  0  0
    1.0381   -0.9035   -1.9874 H   0  0  0  0  0  0  0  0  0  0  0  0
  1  2  1  0
  2  3  1  0
  3  4  1  0
  4  5  1  0
  4  6  1  0
  6  7  1  0
  6  8  1  0
  4  9  1  0
  9  2  1  0
  1 10  1  0
  1 11  1  0
  1 12  1  0
  2 13  1  0
  3 14  1  0
  3 15  1  0
  5 16  1  0
  6 17  1  0
  7 18  1  0
  7 19  1  0
  7 20  1  0
  8 21  1  0
  9 22  1  0
  9 23  1  0
M  END
