
     RDKit          3D

 19 20  0  0  0  0  0  0  0  0999 V2000
   -1.7618    0.6877    0.6401 C   0  0  0  0  0  0  0  0  0  0  0  0
   -1.1751    0.0794   -0.5801 C   0  0  0  0  0  0  0  0  0  0  0  0
   -0.9386   -1.4417   -0.4338 C   0  0  0  0  0  0  0  0  0  0  0  0
    0.4235   -1.0568    0.0976 C   0  0  0  0  0  0  0  0  0  0  0  0
    1.5962   -0.9632    0.7018 C   0  0  0  0  0  0  0  0  0  0  0  0
    2.2630    0.2735    0.3191 C   0  0  0  0  0  0  0  0  0  0  0  0
    3.4855    0.4822    0.3651 O   0  0  0  0  0  0  0  0  0  0  0  0
    1.1237    1.1575   -0.1153 C   0  0  0  0  0  0  0  0  0  0  0  0
    0.2755    0.1544   -0.7971 C   0  0  0  0  0  0  0  0  0  0  0  0
   -1.4915    1.7433    0.8045 H   0  0  0  0  0  0  0  0  0  0  0  0
   -2.8807    0.6785    0.5016 H   0  0  0  0  0  0  0  0  0  0  0  0
   -1.5838    0.1026    1.5698 H   0  0  0  0  0  0  0  0  0  0  0  0
   -1.7864    0.2169   -1.5040 H   0  0  0  0  0  0  0  0  0  0  0  0
   -1.6043   -1.8887    0.3023 H   0  0  0  0  0  0  0  0  0  0  0  0
   -0.7850   -1.9588   -1.3879 H   0  0  0  0  0  0  0  0  0  0  0  0
    1.9895   -1.7211    1.3884 H   0  0  0  0  0  0  0  0  0  0  0  0
    0.7044    1.5953    0.7904 H   0  0  0  0  0  0  0  0  0  0  0  0
    1.5507    1.8953   -0.8226 H   0  0  0  0  0  0  0  0  0  0  0  0
    0.5954   -0.0363   -1.8399 H   0  0  0  0  0  0  0  0  0  0  0  0
  1  2  1  0
  2  3  1  0
  3  4  1  0
  4  5  2  0
  5  6  1  0
  6  7  2  0
  6  8  1  0
  8  9  1  0
  9  2  1  0
  9  4  1  0
  1 10  1  0
  1 11  1  0
  1 12  1  0
  2 13  1  0
  3 14  1  0
  3 15  1  0
  5 16  1  0
  8 17  1  0
  8 18  1  0
  9 19  1  0
M  END
