
     RDKit          3D

 21 23  0  0  0  0  0  0  0  0999 V2000
    1.9950   -0.7037    0.2352 C   0  0  0  0  0  0  0  0  0  0  0  0
    1.0287    0.1020   -0.6074 C   0  0  0  0  0  0  0  0  0  0  0  0
    0.5246    1.2999    0.1146 C   0  0  0  0  0  0  0  0  0  0  0  0
   -0.8510    1.2200    0.6316 C   0  0  0  0  0  0  0  0  0  0  0  0
   -1.4816   -0.0684    0.7989 C   0  0  0  0  0  0  0  0  0  0  0  0
   -0.7779   -1.2682    0.2574 C   0  0  0  0  0  0  0  0  0  0  0  0
   -0.1707   -0.7338   -1.0194 C   0  0  0  0  0  0  0  0  0  0  0  0
   -1.1295    0.1391   -1.4955 O   0  0  0  0  0  0  0  0  0  0  0  0
   -1.7701    0.7134   -0.4253 C   0  0  0  0  0  0  0  0  0  0  0  0
    2.9670   -0.1492    0.2205 H   0  0  0  0  0  0  0  0  0  0  0  0
    1.6873   -0.7512    1.2893 H   0  0  0  0  0  0  0  0  0  0  0  0
    2.1609   -1.6770   -0.2423 H   0  0  0  0  0  0  0  0  0  0  0  0
    1.5775    0.3828   -1.5283 H   0  0  0  0  0  0  0  0  0  0  0  0
    1.2637    1.5546    0.9248 H   0  0  0  0  0  0  0  0  0  0  0  0
    0.5845    2.1846   -0.5858 H   0  0  0  0  0  0  0  0  0  0  0  0
   -1.1607    2.0400    1.3004 H   0  0  0  0  0  0  0  0  0  0  0  0
   -2.1999   -0.2275    1.5987 H   0  0  0  0  0  0  0  0  0  0  0  0
   -1.5462   -2.0187   -0.0451 H   0  0  0  0  0  0  0  0  0  0  0  0
   -0.0662   -1.7373    0.9294 H   0  0  0  0  0  0  0  0  0  0  0  0
    0.0873   -1.5097   -1.7440 H   0  0  0  0  0  0  0  0  0  0  0  0
   -2.7227    1.2083   -0.6077 H   0  0  0  0  0  0  0  0  0  0  0  0
  1  2  1  0
  2  3  1  0
  3  4  1  0
  4  5  1  0
  5  6  1  0
  6  7  1  0
  7  8  1  0
  8  9  1  0
  7  2  1  0
  9  4  1  0
  9  5  1  0
  1 10  1  0
  1 11  1  0
  1 12  1  0
  2 13  1  0
  3 14  1  0
  3 15  1  0
  4 16  1  0
  5 17  1  0
  6 18  1  0
  6 19  1  0
  7 20  1  0
  9 21  1  0
M  END
