
     RDKit          3D

 19 21  0  0  0  0  0  0  0  0999 V2000
   -2.7037   -0.3618    0.1853 C   0  0  0  0  0  0  0  0  0  0  0  0
   -1.2098    0.0176    0.2994 C   0  0  0  0  0  0  0  0  0  0  0  0
   -0.7046    0.7372   -0.8308 C   0  0  0  0  0  0  0  0  0  0  0  0
    0.5084    1.4400   -0.8994 O   0  0  0  0  0  0  0  0  0  0  0  0
    1.2905    0.8342    0.0072 C   0  0  0  0  0  0  0  0  0  0  0  0
    2.2701   -0.1904    0.0350 C   0  0  0  0  0  0  0  0  0  0  0  0
    3.5157    0.0950   -0.5458 O   0  0  0  0  0  0  0  0  0  0  0  0
    1.1559   -0.5522   -0.7396 C   0  0  0  0  0  0  0  0  0  0  0  0
   -0.2727   -0.7388   -0.5046 C   0  0  0  0  0  0  0  0  0  0  0  0
   -3.3490    0.3987    0.6284 H   0  0  0  0  0  0  0  0  0  0  0  0
   -2.9721   -0.5359   -0.8688 H   0  0  0  0  0  0  0  0  0  0  0  0
   -2.8457   -1.3003    0.7554 H   0  0  0  0  0  0  0  0  0  0  0  0
   -0.9934    0.1680    1.3704 H   0  0  0  0  0  0  0  0  0  0  0  0
   -1.3068    0.8697   -1.7369 H   0  0  0  0  0  0  0  0  0  0  0  0
    0.8054    0.9494    0.9983 H   0  0  0  0  0  0  0  0  0  0  0  0
    2.4402   -0.8555    0.9357 H   0  0  0  0  0  0  0  0  0  0  0  0
    3.7510    1.0398   -0.3657 H   0  0  0  0  0  0  0  0  0  0  0  0
    1.3655   -0.4871   -1.8604 H   0  0  0  0  0  0  0  0  0  0  0  0
   -0.7451   -1.5277   -1.1694 H   0  0  0  0  0  0  0  0  0  0  0  0
  1  2  1  0
  2  3  1  0
  3  4  1  0
  4  5  1  0
  5  6  1  0
  6  7  1  0
  6  8  1  0
  8  9  1  0
  9  2  1  0
  9  3  1  0
  8  5  1  0
  1 10  1  0
  1 11  1  0
  1 12  1  0
  2 13  1  0
  3 14  1  0
  5 15  1  0
  6 16  1  0
  7 17  1  0
  8 18  1  0
  9 19  1  0
M  END
