
     RDKit          3D

 21 22  0  0  0  0  0  0  0  0999 V2000
    2.0708    0.1051   -0.6497 C   0  0  0  0  0  0  0  0  0  0  0  0
    1.0542    0.0972    0.4630 C   0  0  0  0  0  0  0  0  0  0  0  0
    0.6498   -1.3413    0.6565 C   0  0  0  0  0  0  0  0  0  0  0  0
   -0.4487   -1.7140    0.0010 C   0  0  0  0  0  0  0  0  0  0  0  0
   -1.4863   -0.6532   -0.1957 C   0  0  0  0  0  0  0  0  0  0  0  0
   -0.9229    0.4556   -1.0380 C   0  0  0  0  0  0  0  0  0  0  0  0
   -0.1629    0.8988    0.1849 C   0  0  0  0  0  0  0  0  0  0  0  0
   -0.0747    2.2671    0.2909 O   0  0  0  0  0  0  0  0  0  0  0  0
   -1.3085    0.2861    1.0081 C   0  0  0  0  0  0  0  0  0  0  0  0
    2.8290   -0.6864   -0.3690 H   0  0  0  0  0  0  0  0  0  0  0  0
    1.6212   -0.2504   -1.5900 H   0  0  0  0  0  0  0  0  0  0  0  0
    2.6315    1.0348   -0.7400 H   0  0  0  0  0  0  0  0  0  0  0  0
    1.5407    0.4779    1.3633 H   0  0  0  0  0  0  0  0  0  0  0  0
    1.2273   -2.0063    1.2887 H   0  0  0  0  0  0  0  0  0  0  0  0
   -0.5846   -2.7365   -0.3719 H   0  0  0  0  0  0  0  0  0  0  0  0
   -2.4936   -0.9835   -0.3868 H   0  0  0  0  0  0  0  0  0  0  0  0
   -0.3457    0.1824   -1.9153 H   0  0  0  0  0  0  0  0  0  0  0  0
   -1.6947    1.2058   -1.2905 H   0  0  0  0  0  0  0  0  0  0  0  0
   -1.0162    2.6181    0.2506 H   0  0  0  0  0  0  0  0  0  0  0  0
   -0.9358   -0.2243    1.9100 H   0  0  0  0  0  0  0  0  0  0  0  0
   -2.1498    0.9668    1.1299 H   0  0  0  0  0  0  0  0  0  0  0  0
  1  2  1  0
  2  3  1  0
  3  4  2  0
  4  5  1  0
  5  6  1  0
  6  7  1  0
  7  8  1  0
  7  9  1  0
  7  2  1  0
  9  5  1  0
  1 10  1  0
  1 11  1  0
  1 12  1  0
  2 13  1  0
  3 14  1  0
  4 15  1  0
  5 16  1  0
  6 17  1  0
  6 18  1  0
  8 19  1  0
  9 20  1  0
  9 21  1  0
M  END
