
     RDKit          3D

 21 22  0  0  0  0  0  0  0  0999 V2000
   -2.6562    0.0533   -0.3123 C   0  0  0  0  0  0  0  0  0  0  0  0
   -1.2424    0.4595   -0.7211 C   0  0  0  0  0  0  0  0  0  0  0  0
   -0.4091   -0.7815   -0.8091 C   0  0  0  0  0  0  0  0  0  0  0  0
    0.5392   -0.6693    0.3591 C   0  0  0  0  0  0  0  0  0  0  0  0
    1.9599   -0.9535    0.0080 C   0  0  0  0  0  0  0  0  0  0  0  0
    2.6460    0.2654    0.0006 O   0  0  0  0  0  0  0  0  0  0  0  0
    1.6730    1.2107   -0.4015 C   0  0  0  0  0  0  0  0  0  0  0  0
    0.5537    0.8536    0.5525 C   0  0  0  0  0  0  0  0  0  0  0  0
   -0.6697    1.3171    0.1756 O   0  0  0  0  0  0  0  0  0  0  0  0
   -2.6644   -0.9812    0.1147 H   0  0  0  0  0  0  0  0  0  0  0  0
   -3.1103    0.7684    0.3896 H   0  0  0  0  0  0  0  0  0  0  0  0
   -3.3361    0.0032   -1.1969 H   0  0  0  0  0  0  0  0  0  0  0  0
   -1.3563    0.9424   -1.7277 H   0  0  0  0  0  0  0  0  0  0  0  0
    0.1015   -0.7897   -1.7867 H   0  0  0  0  0  0  0  0  0  0  0  0
   -1.0150   -1.6965   -0.6514 H   0  0  0  0  0  0  0  0  0  0  0  0
    0.1555   -1.1937    1.2302 H   0  0  0  0  0  0  0  0  0  0  0  0
    2.1048   -1.3941   -0.9979 H   0  0  0  0  0  0  0  0  0  0  0  0
    2.4281   -1.5669    0.8017 H   0  0  0  0  0  0  0  0  0  0  0  0
    2.0727    2.2084   -0.2695 H   0  0  0  0  0  0  0  0  0  0  0  0
    1.3909    0.9296   -1.4231 H   0  0  0  0  0  0  0  0  0  0  0  0
    0.8340    1.0149    1.5966 H   0  0  0  0  0  0  0  0  0  0  0  0
  1  2  1  0
  2  3  1  0
  3  4  1  0
  4  5  1  0
  5  6  1  0
  6  7  1  0
  7  8  1  0
  8  9  1  0
  9  2  1  0
  8  4  1  0
  1 10  1  0
  1 11  1  0
  1 12  1  0
  2 13  1  0
  3 14  1  0
  3 15  1  0
  4 16  1  0
  5 17  1  0
  5 18  1  0
  7 19  1  0
  7 20  1  0
  8 21  1  0
M  END
