
     RDKit          3D

 23 25  0  0  0  0  0  0  0  0999 V2000
   -1.5048   -1.5026    0.2585 C   0  0  0  0  0  0  0  0  0  0  0  0
   -1.1284   -0.2940   -0.5197 C   0  0  0  0  0  0  0  0  0  0  0  0
   -1.4463    1.0400    0.1163 C   0  0  0  0  0  0  0  0  0  0  0  0
   -1.1352    2.2060   -0.7514 C   0  0  0  0  0  0  0  0  0  0  0  0
    0.0139    1.4846   -0.2329 C   0  0  0  0  0  0  0  0  0  0  0  0
    0.3005    0.0543   -0.4193 C   0  0  0  0  0  0  0  0  0  0  0  0
    1.2425   -0.3908   -1.4571 C   0  0  0  0  0  0  0  0  0  0  0  0
    2.3036   -0.5105   -0.3537 C   0  0  0  0  0  0  0  0  0  0  0  0
    1.1257   -0.6370    0.6248 C   0  0  0  0  0  0  0  0  0  0  0  0
   -1.1309   -1.4606    1.2946 H   0  0  0  0  0  0  0  0  0  0  0  0
   -2.5790   -1.7545    0.2322 H   0  0  0  0  0  0  0  0  0  0  0  0
   -0.9836   -2.3774   -0.2282 H   0  0  0  0  0  0  0  0  0  0  0  0
   -1.4719   -0.3469   -1.5741 H   0  0  0  0  0  0  0  0  0  0  0  0
   -1.7037    1.1204    1.1654 H   0  0  0  0  0  0  0  0  0  0  0  0
   -1.4823    2.0826   -1.8149 H   0  0  0  0  0  0  0  0  0  0  0  0
   -1.3627    3.1987   -0.3526 H   0  0  0  0  0  0  0  0  0  0  0  0
    0.5693    1.9681    0.6212 H   0  0  0  0  0  0  0  0  0  0  0  0
    1.0131   -1.4428   -1.7992 H   0  0  0  0  0  0  0  0  0  0  0  0
    1.4962    0.2826   -2.2715 H   0  0  0  0  0  0  0  0  0  0  0  0
    2.8958   -1.4428   -0.3995 H   0  0  0  0  0  0  0  0  0  0  0  0
    2.8848    0.4234   -0.2024 H   0  0  0  0  0  0  0  0  0  0  0  0
    0.8554   -1.7013    0.8244 H   0  0  0  0  0  0  0  0  0  0  0  0
    1.2281    0.0006    1.5233 H   0  0  0  0  0  0  0  0  0  0  0  0
  1  2  1  0
  2  3  1  0
  3  4  1  0
  4  5  1  0
  5  6  1  0
  6  7  1  0
  7  8  1  0
  8  9  1  0
  6  2  1  0
  5  3  1  0
  9  6  1  0
  1 10  1  0
  1 11  1  0
  1 12  1  0
  2 13  1  0
  3 14  1  0
  4 15  1  0
  4 16  1  0
  5 17  1  0
  7 18  1  0
  7 19  1  0
  8 20  1  0
  8 21  1  0
  9 22  1  0
  9 23  1  0
M  END
