
     RDKit          3D

 17 18  0  0  0  0  0  0  0  0999 V2000
   -2.0309    0.3870   -0.5894 C   0  0  0  0  0  0  0  0  0  0  0  0
   -0.8772   -0.0182    0.2730 C   0  0  0  0  0  0  0  0  0  0  0  0
   -0.2052   -1.3188   -0.1095 C   0  0  0  0  0  0  0  0  0  0  0  0
    1.1039   -0.6275    0.2657 C   0  0  0  0  0  0  0  0  0  0  0  0
    1.5221    0.3993   -0.6918 C   0  0  0  0  0  0  0  0  0  0  0  0
    2.7322    1.0372   -0.4238 O   0  0  0  0  0  0  0  0  0  0  0  0
    0.3790    0.7507    0.1496 C   0  0  0  0  0  0  0  0  0  0  0  0
   -3.0044    0.4370   -0.0206 H   0  0  0  0  0  0  0  0  0  0  0  0
   -1.9119    1.3953   -1.0443 H   0  0  0  0  0  0  0  0  0  0  0  0
   -2.2143   -0.3941   -1.3744 H   0  0  0  0  0  0  0  0  0  0  0  0
   -1.2338   -0.1171    1.3410 H   0  0  0  0  0  0  0  0  0  0  0  0
   -0.2832   -1.4851   -1.2170 H   0  0  0  0  0  0  0  0  0  0  0  0
   -0.4624   -2.1941    0.4913 H   0  0  0  0  0  0  0  0  0  0  0  0
    1.5588   -0.8168    1.2302 H   0  0  0  0  0  0  0  0  0  0  0  0
    1.4033    0.1606   -1.7863 H   0  0  0  0  0  0  0  0  0  0  0  0
    2.9513    0.9467    0.5554 H   0  0  0  0  0  0  0  0  0  0  0  0
    0.5727    1.4579    1.0039 H   0  0  0  0  0  0  0  0  0  0  0  0
  1  2  1  0
  2  3  1  0
  3  4  1  0
  4  5  1  0
  5  6  1  0
  5  7  1  0
  7  2  1  0
  7  4  1  0
  1  8  1  0
  1  9  1  0
  1 10  1  0
  2 11  1  0
  3 12  1  0
  3 13  1  0
  4 14  1  0
  5 15  1  0
  6 16  1  0
  7 17  1  0
M  END
