
     RDKit          3D

 21 23  0  0  0  0  0  0  0  0999 V2000
    2.3544   -0.1057    0.0295 C   0  0  0  0  0  0  0  0  0  0  0  0
    0.9261    0.2049   -0.4432 C   0  0  0  0  0  0  0  0  0  0  0  0
    0.2064    0.8818    0.6439 C   0  0  0  0  0  0  0  0  0  0  0  0
   -0.8998    1.8393    0.1786 C   0  0  0  0  0  0  0  0  0  0  0  0
   -1.1634    0.5321    0.9196 C   0  0  0  0  0  0  0  0  0  0  0  0
   -1.7943   -0.5864    0.2055 C   0  0  0  0  0  0  0  0  0  0  0  0
   -0.8745   -1.5256   -0.4910 C   0  0  0  0  0  0  0  0  0  0  0  0
    0.2370   -2.0483    0.1461 O   0  0  0  0  0  0  0  0  0  0  0  0
    0.3558   -1.0667   -0.9352 C   0  0  0  0  0  0  0  0  0  0  0  0
    2.9737    0.7793   -0.0922 H   0  0  0  0  0  0  0  0  0  0  0  0
    2.3122   -0.4117    1.0962 H   0  0  0  0  0  0  0  0  0  0  0  0
    2.7479   -0.9803   -0.5265 H   0  0  0  0  0  0  0  0  0  0  0  0
    1.0393    0.9065   -1.3078 H   0  0  0  0  0  0  0  0  0  0  0  0
    0.8235    1.3040    1.4903 H   0  0  0  0  0  0  0  0  0  0  0  0
   -1.0055    2.7912    0.6987 H   0  0  0  0  0  0  0  0  0  0  0  0
   -1.1368    1.8674   -0.9050 H   0  0  0  0  0  0  0  0  0  0  0  0
   -1.5471    0.7167    1.9578 H   0  0  0  0  0  0  0  0  0  0  0  0
   -2.4879   -0.1610   -0.5782 H   0  0  0  0  0  0  0  0  0  0  0  0
   -2.4884   -1.1714    0.8759 H   0  0  0  0  0  0  0  0  0  0  0  0
   -1.4224   -2.2953   -1.1091 H   0  0  0  0  0  0  0  0  0  0  0  0
    0.8439   -1.4708   -1.8540 H   0  0  0  0  0  0  0  0  0  0  0  0
  1  2  1  0
  2  3  1  0
  3  4  1  0
  4  5  1  0
  5  6  1  0
  6  7  1  0
  7  8  1  0
  8  9  1  0
  9  2  1  0
  5  3  1  0
  9  7  1  0
  1 10  1  0
  1 11  1  0
  1 12  1  0
  2 13  1  0
  3 14  1  0
  4 15  1  0
  4 16  1  0
  5 17  1  0
  6 18  1  0
  6 19  1  0
  7 20  1  0
  9 21  1  0
M  END
