
     RDKit          3D

 21 22  0  0  0  0  0  0  0  0999 V2000
    2.6979    0.2223    0.1935 C   0  0  0  0  0  0  0  0  0  0  0  0
    1.2305   -0.1696    0.2024 C   0  0  0  0  0  0  0  0  0  0  0  0
    0.4552    1.1506    0.1571 C   0  0  0  0  0  0  0  0  0  0  0  0
   -0.9678    0.9684   -0.2300 C   0  0  0  0  0  0  0  0  0  0  0  0
   -1.7957    0.2275    0.8108 C   0  0  0  0  0  0  0  0  0  0  0  0
   -1.4226   -0.3782   -0.5164 C   0  0  0  0  0  0  0  0  0  0  0  0
   -2.5313   -0.4793   -1.3912 O   0  0  0  0  0  0  0  0  0  0  0  0
   -0.4071   -1.4472   -0.6273 C   0  0  0  0  0  0  0  0  0  0  0  0
    0.8901   -0.9508   -0.8836 O   0  0  0  0  0  0  0  0  0  0  0  0
    3.3440   -0.5350   -0.2459 H   0  0  0  0  0  0  0  0  0  0  0  0
    2.9549    0.4465    1.2675 H   0  0  0  0  0  0  0  0  0  0  0  0
    2.8236    1.1976   -0.3582 H   0  0  0  0  0  0  0  0  0  0  0  0
    0.9926   -0.7197    1.1570 H   0  0  0  0  0  0  0  0  0  0  0  0
    0.4660    1.5158    1.2268 H   0  0  0  0  0  0  0  0  0  0  0  0
    0.9921    1.9203   -0.4161 H   0  0  0  0  0  0  0  0  0  0  0  0
   -1.4256    1.8791   -0.7098 H   0  0  0  0  0  0  0  0  0  0  0  0
   -2.7958    0.6520    0.9640 H   0  0  0  0  0  0  0  0  0  0  0  0
   -1.3121   -0.1148    1.7403 H   0  0  0  0  0  0  0  0  0  0  0  0
   -3.1909   -1.1327   -1.0708 H   0  0  0  0  0  0  0  0  0  0  0  0
   -0.3666   -2.1456    0.2410 H   0  0  0  0  0  0  0  0  0  0  0  0
   -0.6312   -2.1072   -1.5110 H   0  0  0  0  0  0  0  0  0  0  0  0
  1  2  1  0
  2  3  1  0
  3  4  1  0
  4  5  1  0
  5  6  1  0
  6  7  1  0
  6  8  1  0
  8  9  1  0
  9  2  1  0
  6  4  1  0
  1 10  1  0
  1 11  1  0
  1 12  1  0
  2 13  1  0
  3 14  1  0
  3 15  1  0
  4 16  1  0
  5 17  1  0
  5 18  1  0
  7 19  1  0
  8 20  1  0
  8 21  1  0
M  END
