
     RDKit          3D

 21 21  0  0  0  0  0  0  0  0999 V2000
   -0.7664    1.9333   -0.2466 C   0  0  0  0  0  0  0  0  0  0  0  0
   -0.3093    0.5741    0.2400 C   0  0  0  0  0  0  0  0  0  0  0  0
   -1.4868   -0.3749    0.1385 C   0  0  0  0  0  0  0  0  0  0  0  0
   -1.1703   -1.7391    0.6810 C   0  0  0  0  0  0  0  0  0  0  0  0
    0.0221   -2.2008    0.0585 O   0  0  0  0  0  0  0  0  0  0  0  0
    0.7792   -1.3863   -0.7524 C   0  0  0  0  0  0  0  0  0  0  0  0
    1.4113   -1.8918   -1.7009 O   0  0  0  0  0  0  0  0  0  0  0  0
    0.8782    0.0710   -0.5491 C   0  0  0  0  0  0  0  0  0  0  0  0
    2.1756    0.3154    0.2278 C   0  0  0  0  0  0  0  0  0  0  0  0
   -0.2887    2.1992   -1.1910 H   0  0  0  0  0  0  0  0  0  0  0  0
   -1.8743    1.9497   -0.4339 H   0  0  0  0  0  0  0  0  0  0  0  0
   -0.5971    2.7278    0.5371 H   0  0  0  0  0  0  0  0  0  0  0  0
   -0.0027    0.6576    1.2950 H   0  0  0  0  0  0  0  0  0  0  0  0
   -2.3257    0.1015    0.6865 H   0  0  0  0  0  0  0  0  0  0  0  0
   -1.7535   -0.4990   -0.9442 H   0  0  0  0  0  0  0  0  0  0  0  0
   -1.0887   -1.6760    1.7734 H   0  0  0  0  0  0  0  0  0  0  0  0
   -2.0031   -2.4148    0.3975 H   0  0  0  0  0  0  0  0  0  0  0  0
    0.9953    0.5822   -1.5166 H   0  0  0  0  0  0  0  0  0  0  0  0
    2.9851   -0.2354   -0.2695 H   0  0  0  0  0  0  0  0  0  0  0  0
    2.4062    1.3931    0.3029 H   0  0  0  0  0  0  0  0  0  0  0  0
    2.0136   -0.0870    1.2661 H   0  0  0  0  0  0  0  0  0  0  0  0
  1  2  1  0
  2  3  1  0
  3  4  1  0
  4  5  1  0
  5  6  1  0
  6  7  2  0
  6  8  1  0
  8  9  1  0
  8  2  1  0
  1 10  1  0
  1 11  1  0
  1 12  1  0
  2 13  1  0
  3 14  1  0
  3 15  1  0
  4 16  1  0
  4 17  1  0
  8 18  1  0
  9 19  1  0
  9 20  1  0
  9 21  1  0
M  END
