
     RDKit          3D

 23 24  0  0  0  0  0  0  0  0999 V2000
    2.3994    0.1268    0.1801 C   0  0  0  0  0  0  0  0  0  0  0  0
    0.9209    0.0405    0.4238 C   0  0  0  0  0  0  0  0  0  0  0  0
    0.4406   -1.3698    0.1400 C   0  0  0  0  0  0  0  0  0  0  0  0
   -0.9414   -1.1161   -0.4453 C   0  0  0  0  0  0  0  0  0  0  0  0
   -1.7942   -0.5195    0.6378 C   0  0  0  0  0  0  0  0  0  0  0  0
   -2.1665    0.8051    0.3266 O   0  0  0  0  0  0  0  0  0  0  0  0
   -1.0178    1.5945    0.3676 C   0  0  0  0  0  0  0  0  0  0  0  0
    0.1154    0.9610   -0.4500 C   0  0  0  0  0  0  0  0  0  0  0  0
   -0.5925    0.0113   -1.4284 C   0  0  0  0  0  0  0  0  0  0  0  0
    2.8092   -0.8364   -0.2045 H   0  0  0  0  0  0  0  0  0  0  0  0
    2.9145    0.3357    1.1523 H   0  0  0  0  0  0  0  0  0  0  0  0
    2.6993    0.9190   -0.5155 H   0  0  0  0  0  0  0  0  0  0  0  0
    0.6858    0.2944    1.4916 H   0  0  0  0  0  0  0  0  0  0  0  0
    0.4190   -1.9662    1.0530 H   0  0  0  0  0  0  0  0  0  0  0  0
    1.0447   -1.8078   -0.6812 H   0  0  0  0  0  0  0  0  0  0  0  0
   -1.3684   -1.9836   -0.9413 H   0  0  0  0  0  0  0  0  0  0  0  0
   -1.2428   -0.4297    1.6176 H   0  0  0  0  0  0  0  0  0  0  0  0
   -2.6879   -1.1421    0.8764 H   0  0  0  0  0  0  0  0  0  0  0  0
   -1.2624    2.5893   -0.0332 H   0  0  0  0  0  0  0  0  0  0  0  0
   -0.6619    1.6022    1.4136 H   0  0  0  0  0  0  0  0  0  0  0  0
    0.7172    1.7087   -0.9646 H   0  0  0  0  0  0  0  0  0  0  0  0
   -1.5122    0.5079   -1.7990 H   0  0  0  0  0  0  0  0  0  0  0  0
    0.0822   -0.3249   -2.2174 H   0  0  0  0  0  0  0  0  0  0  0  0
  1  2  1  0
  2  3  1  0
  3  4  1  0
  4  5  1  0
  5  6  1  0
  6  7  1  0
  7  8  1  0
  8  9  1  0
  8  2  1  0
  9  4  1  0
  1 10  1  0
  1 11  1  0
  1 12  1  0
  2 13  1  0
  3 14  1  0
  3 15  1  0
  4 16  1  0
  5 17  1  0
  5 18  1  0
  7 19  1  0
  7 20  1  0
  8 21  1  0
  9 22  1  0
  9 23  1  0
M  END
