
     RDKit          3D

 18 19  0  0  0  0  0  0  0  0999 V2000
    2.1695    0.5243    0.1247 C   0  0  0  0  0  0  0  0  0  0  0  0
    1.1955   -0.3528   -0.5963 C   0  0  0  0  0  0  0  0  0  0  0  0
    0.4764   -1.4481    0.1691 C   0  0  0  0  0  0  0  0  0  0  0  0
   -0.2342   -0.3207   -0.4150 C   0  0  0  0  0  0  0  0  0  0  0  0
   -1.1556   -0.4181   -1.4299 O   0  0  0  0  0  0  0  0  0  0  0  0
   -2.1080    0.1373   -0.5577 C   0  0  0  0  0  0  0  0  0  0  0  0
   -1.0098    0.6705    0.3573 C   0  0  0  0  0  0  0  0  0  0  0  0
   -1.2410    0.4016    1.7005 O   0  0  0  0  0  0  0  0  0  0  0  0
    2.4100    1.3817   -0.5534 H   0  0  0  0  0  0  0  0  0  0  0  0
    3.1036   -0.0262    0.4154 H   0  0  0  0  0  0  0  0  0  0  0  0
    1.7356    0.8727    1.0939 H   0  0  0  0  0  0  0  0  0  0  0  0
    1.5770   -0.7141   -1.5911 H   0  0  0  0  0  0  0  0  0  0  0  0
    0.5845   -1.4482    1.2836 H   0  0  0  0  0  0  0  0  0  0  0  0
    0.4133   -2.4612   -0.2576 H   0  0  0  0  0  0  0  0  0  0  0  0
   -2.7077   -0.6800   -0.1277 H   0  0  0  0  0  0  0  0  0  0  0  0
   -2.6648    0.9992   -0.9701 H   0  0  0  0  0  0  0  0  0  0  0  0
   -0.7497    1.7274    0.1873 H   0  0  0  0  0  0  0  0  0  0  0  0
   -1.7946    1.1546    2.0532 H   0  0  0  0  0  0  0  0  0  0  0  0
  1  2  1  0
  2  3  1  0
  3  4  1  0
  4  5  1  0
  5  6  1  0
  6  7  1  0
  7  8  1  0
  4  2  1  0
  7  4  1  0
  1  9  1  0
  1 10  1  0
  1 11  1  0
  2 12  1  0
  3 13  1  0
  3 14  1  0
  6 15  1  0
  6 16  1  0
  7 17  1  0
  8 18  1  0
M  END
