
     RDKit          3D

 18 19  0  0  0  0  0  0  0  0999 V2000
    1.8315   -0.7059    0.7818 C   0  0  0  0  0  0  0  0  0  0  0  0
    0.6223    0.2011    0.8247 C   0  0  0  0  0  0  0  0  0  0  0  0
    0.4185    1.0462   -0.4632 C   0  0  0  0  0  0  0  0  0  0  0  0
    0.0247    2.3727   -0.2281 O   0  0  0  0  0  0  0  0  0  0  0  0
   -0.4653   -0.0077   -0.0764 C   0  0  0  0  0  0  0  0  0  0  0  0
   -0.8300   -1.2187   -0.8197 C   0  0  0  0  0  0  0  0  0  0  0  0
   -1.9894   -1.3117   -0.0175 O   0  0  0  0  0  0  0  0  0  0  0  0
   -1.9111    0.0777    0.2001 C   0  0  0  0  0  0  0  0  0  0  0  0
    2.7626   -0.1989    1.0959 H   0  0  0  0  0  0  0  0  0  0  0  0
    1.9350   -1.0748   -0.2647 H   0  0  0  0  0  0  0  0  0  0  0  0
    1.6411   -1.5809    1.4275 H   0  0  0  0  0  0  0  0  0  0  0  0
    0.5548    0.7728    1.7829 H   0  0  0  0  0  0  0  0  0  0  0  0
    1.1388    0.8864   -1.2824 H   0  0  0  0  0  0  0  0  0  0  0  0
    0.3285    2.9720   -0.9647 H   0  0  0  0  0  0  0  0  0  0  0  0
   -1.1723   -1.1075   -1.8772 H   0  0  0  0  0  0  0  0  0  0  0  0
   -0.2108   -2.1193   -0.6526 H   0  0  0  0  0  0  0  0  0  0  0  0
   -2.2362    0.4138    1.1906 H   0  0  0  0  0  0  0  0  0  0  0  0
   -2.4426    0.5829   -0.6570 H   0  0  0  0  0  0  0  0  0  0  0  0
  1  2  1  0
  2  3  1  0
  3  4  1  0
  3  5  1  0
  5  6  1  0
  6  7  1  0
  7  8  1  0
  5  2  1  0
  8  5  1  0
  1  9  1  0
  1 10  1  0
  1 11  1  0
  2 12  1  0
  3 13  1  0
  4 14  1  0
  6 15  1  0
  6 16  1  0
  8 17  1  0
  8 18  1  0
M  END
