
     RDKit          3D

 21 22  0  0  0  0  0  0  0  0999 V2000
   -2.4479   -0.7920   -0.1190 C   0  0  0  0  0  0  0  0  0  0  0  0
   -1.2355   -0.2208    0.5461 C   0  0  0  0  0  0  0  0  0  0  0  0
   -0.1621   -1.2231    0.7810 C   0  0  0  0  0  0  0  0  0  0  0  0
    1.0300   -0.7547    0.5386 C   0  0  0  0  0  0  0  0  0  0  0  0
    2.4482   -0.4616    0.3339 C   0  0  0  0  0  0  0  0  0  0  0  0
    1.9408    0.3702   -0.8699 C   0  0  0  0  0  0  0  0  0  0  0  0
    0.8630    0.6970    0.1151 C   0  0  0  0  0  0  0  0  0  0  0  0
   -0.5486    0.8218   -0.3251 C   0  0  0  0  0  0  0  0  0  0  0  0
   -1.0074    2.0667    0.1138 O   0  0  0  0  0  0  0  0  0  0  0  0
   -2.4286   -0.5830   -1.2217 H   0  0  0  0  0  0  0  0  0  0  0  0
   -2.4490   -1.9099   -0.0005 H   0  0  0  0  0  0  0  0  0  0  0  0
   -3.4031   -0.4330    0.2723 H   0  0  0  0  0  0  0  0  0  0  0  0
   -1.5263    0.1851    1.5367 H   0  0  0  0  0  0  0  0  0  0  0  0
   -0.4421   -2.2392    1.1263 H   0  0  0  0  0  0  0  0  0  0  0  0
    2.8312    0.2555    1.0810 H   0  0  0  0  0  0  0  0  0  0  0  0
    3.1142   -1.2802    0.0415 H   0  0  0  0  0  0  0  0  0  0  0  0
    1.6555   -0.3743   -1.6590 H   0  0  0  0  0  0  0  0  0  0  0  0
    2.6175    1.1647   -1.1733 H   0  0  0  0  0  0  0  0  0  0  0  0
    1.2318    1.4131    0.8646 H   0  0  0  0  0  0  0  0  0  0  0  0
   -0.7375    0.6622   -1.3860 H   0  0  0  0  0  0  0  0  0  0  0  0
   -1.3443    2.6354   -0.5966 H   0  0  0  0  0  0  0  0  0  0  0  0
  1  2  1  0
  2  3  1  0
  3  4  2  0
  4  5  1  0
  5  6  1  0
  6  7  1  0
  7  8  1  0
  8  9  1  0
  8  2  1  0
  7  4  1  0
  1 10  1  0
  1 11  1  0
  1 12  1  0
  2 13  1  0
  3 14  1  0
  5 15  1  0
  5 16  1  0
  6 17  1  0
  6 18  1  0
  7 19  1  0
  8 20  1  0
  9 21  1  0
M  END
