
     RDKit          3D

 20 20  0  0  0  0  0  0  0  0999 V2000
    1.7470    0.6923    0.5713 C   0  0  0  0  0  0  0  0  0  0  0  0
    0.8119   -0.4324    0.2751 C   0  0  0  0  0  0  0  0  0  0  0  0
    0.7938   -0.9285   -1.1441 C   0  0  0  0  0  0  0  0  0  0  0  0
   -0.6077   -0.4463   -1.3018 C   0  0  0  0  0  0  0  0  0  0  0  0
   -0.6467   -0.0813    0.1589 C   0  0  0  0  0  0  0  0  0  0  0  0
   -1.0129    1.3539    0.3444 C   0  0  0  0  0  0  0  0  0  0  0  0
   -1.4576   -0.9713    1.0157 C   0  0  0  0  0  0  0  0  0  0  0  0
   -1.6206   -2.1147    0.6641 O   0  0  0  0  0  0  0  0  0  0  0  0
    2.6879    0.6240   -0.0407 H   0  0  0  0  0  0  0  0  0  0  0  0
    1.3248    1.6920    0.3566 H   0  0  0  0  0  0  0  0  0  0  0  0
    1.9766    0.6856    1.6683 H   0  0  0  0  0  0  0  0  0  0  0  0
    1.0333   -1.2990    0.9561 H   0  0  0  0  0  0  0  0  0  0  0  0
    1.5503   -0.4952   -1.8249 H   0  0  0  0  0  0  0  0  0  0  0  0
    0.8275   -2.0430   -1.2586 H   0  0  0  0  0  0  0  0  0  0  0  0
   -1.3714   -1.2125   -1.5452 H   0  0  0  0  0  0  0  0  0  0  0  0
   -0.6455    0.4140   -2.0033 H   0  0  0  0  0  0  0  0  0  0  0  0
   -0.8722    1.9188   -0.5933 H   0  0  0  0  0  0  0  0  0  0  0  0
   -0.5273    1.8275    1.2187 H   0  0  0  0  0  0  0  0  0  0  0  0
   -2.1149    1.3943    0.5617 H   0  0  0  0  0  0  0  0  0  0  0  0
   -1.8764   -0.5784    1.9211 H   0  0  0  0  0  0  0  0  0  0  0  0
  1  2  1  0
  2  3  1  0
  3  4  1  0
  4  5  1  0
  5  6  1  0
  5  7  1  0
  7  8  2  0
  5  2  1  0
  1  9  1  0
  1 10  1  0
  1 11  1  0
  2 12  1  0
  3 13  1  0
  3 14  1  0
  4 15  1  0
  4 16  1  0
  6 17  1  0
  6 18  1  0
  6 19  1  0
  7 20  1  0
M  END
