
     RDKit          3D

 21 21  0  0  0  0  0  0  0  0999 V2000
    2.6897   -0.8470   -0.2505 C   0  0  0  0  0  0  0  0  0  0  0  0
    1.4118   -0.2936    0.2962 C   0  0  0  0  0  0  0  0  0  0  0  0
    1.4206    1.2363    0.4553 C   0  0  0  0  0  0  0  0  0  0  0  0
    0.5034    0.5162   -0.5444 C   0  0  0  0  0  0  0  0  0  0  0  0
   -0.9517    0.6081   -0.2042 C   0  0  0  0  0  0  0  0  0  0  0  0
   -1.1610    1.1584    1.0612 O   0  0  0  0  0  0  0  0  0  0  0  0
   -1.6230   -0.7738   -0.2956 C   0  0  0  0  0  0  0  0  0  0  0  0
   -3.0403   -0.5746    0.0520 C   0  0  0  0  0  0  0  0  0  0  0  0
   -3.7895    0.2223   -0.4636 O   0  0  0  0  0  0  0  0  0  0  0  0
    3.1993   -0.1537   -0.9352 H   0  0  0  0  0  0  0  0  0  0  0  0
    2.6037   -1.8437   -0.6919 H   0  0  0  0  0  0  0  0  0  0  0  0
    3.3829   -0.9631    0.6316 H   0  0  0  0  0  0  0  0  0  0  0  0
    0.9451   -0.8609    1.1262 H   0  0  0  0  0  0  0  0  0  0  0  0
    0.9738    1.6123    1.3912 H   0  0  0  0  0  0  0  0  0  0  0  0
    2.2887    1.7892    0.0779 H   0  0  0  0  0  0  0  0  0  0  0  0
    0.7349    0.7304   -1.6084 H   0  0  0  0  0  0  0  0  0  0  0  0
   -1.4470    1.2831   -0.9209 H   0  0  0  0  0  0  0  0  0  0  0  0
   -2.0554    0.9218    1.4100 H   0  0  0  0  0  0  0  0  0  0  0  0
   -1.1348   -1.5023    0.3870 H   0  0  0  0  0  0  0  0  0  0  0  0
   -1.4849   -1.0580   -1.3829 H   0  0  0  0  0  0  0  0  0  0  0  0
   -3.4665   -1.2075    0.8515 H   0  0  0  0  0  0  0  0  0  0  0  0
  1  2  1  0
  2  3  1  0
  3  4  1  0
  4  5  1  0
  5  6  1  0
  5  7  1  0
  7  8  1  0
  8  9  2  0
  4  2  1  0
  1 10  1  0
  1 11  1  0
  1 12  1  0
  2 13  1  0
  3 14  1  0
  3 15  1  0
  4 16  1  0
  5 17  1  0
  6 18  1  0
  7 19  1  0
  7 20  1  0
  8 21  1  0
M  END
