
     RDKit          3D

 23 24  0  0  0  0  0  0  0  0999 V2000
   -1.7862   -0.8022   -1.2890 C   0  0  0  0  0  0  0  0  0  0  0  0
   -1.2557    0.3461   -0.4925 C   0  0  0  0  0  0  0  0  0  0  0  0
    0.0528    0.9180   -0.9338 C   0  0  0  0  0  0  0  0  0  0  0  0
    0.7315    0.1377    0.1412 C   0  0  0  0  0  0  0  0  0  0  0  0
    1.5877   -1.0081   -0.2766 C   0  0  0  0  0  0  0  0  0  0  0  0
    2.6576    0.0127    0.0832 C   0  0  0  0  0  0  0  0  0  0  0  0
    1.7155    0.7304    0.8580 O   0  0  0  0  0  0  0  0  0  0  0  0
   -0.5696   -0.1580    0.7851 C   0  0  0  0  0  0  0  0  0  0  0  0
   -0.9880    0.6942    1.9401 C   0  0  0  0  0  0  0  0  0  0  0  0
   -1.9490   -0.5538   -2.3560 H   0  0  0  0  0  0  0  0  0  0  0  0
   -2.8057   -1.0407   -0.8771 H   0  0  0  0  0  0  0  0  0  0  0  0
   -1.2021   -1.7404   -1.1658 H   0  0  0  0  0  0  0  0  0  0  0  0
   -2.0398    1.0969   -0.3200 H   0  0  0  0  0  0  0  0  0  0  0  0
    0.2987    0.6682   -1.9773 H   0  0  0  0  0  0  0  0  0  0  0  0
    0.0747    2.0242   -0.7316 H   0  0  0  0  0  0  0  0  0  0  0  0
    1.5679   -1.8789    0.3941 H   0  0  0  0  0  0  0  0  0  0  0  0
    1.5677   -1.2061   -1.3602 H   0  0  0  0  0  0  0  0  0  0  0  0
    3.0254    0.6152   -0.7823 H   0  0  0  0  0  0  0  0  0  0  0  0
    3.4810   -0.4279    0.6548 H   0  0  0  0  0  0  0  0  0  0  0  0
   -0.7191   -1.2476    0.9666 H   0  0  0  0  0  0  0  0  0  0  0  0
   -1.2528    0.0733    2.8359 H   0  0  0  0  0  0  0  0  0  0  0  0
   -1.9403    1.2551    1.7082 H   0  0  0  0  0  0  0  0  0  0  0  0
   -0.2523    1.4917    2.1952 H   0  0  0  0  0  0  0  0  0  0  0  0
  1  2  1  0
  2  3  1  0
  3  4  1  0
  4  5  1  0
  5  6  1  0
  6  7  1  0
  4  8  1  0
  8  9  1  0
  8  2  1  0
  7  4  1  0
  1 10  1  0
  1 11  1  0
  1 12  1  0
  2 13  1  0
  3 14  1  0
  3 15  1  0
  5 16  1  0
  5 17  1  0
  6 18  1  0
  6 19  1  0
  8 20  1  0
  9 21  1  0
  9 22  1  0
  9 23  1  0
M  END
