
     RDKit          3D

 21 23  0  0  0  0  0  0  0  0999 V2000
    2.2067   -0.2013    0.2387 C   0  0  0  0  0  0  0  0  0  0  0  0
    0.9284    0.5184   -0.0324 C   0  0  0  0  0  0  0  0  0  0  0  0
   -0.0794    0.4047    1.0726 C   0  0  0  0  0  0  0  0  0  0  0  0
   -0.5319   -1.0294    1.2338 C   0  0  0  0  0  0  0  0  0  0  0  0
   -1.0309   -1.5509    0.1188 C   0  0  0  0  0  0  0  0  0  0  0  0
   -0.9255   -0.7980   -1.1207 C   0  0  0  0  0  0  0  0  0  0  0  0
   -1.2287    0.6414   -1.0114 C   0  0  0  0  0  0  0  0  0  0  0  0
   -1.2617    1.1197    0.4002 C   0  0  0  0  0  0  0  0  0  0  0  0
    0.2060    0.1250   -1.2515 C   0  0  0  0  0  0  0  0  0  0  0  0
    2.4011   -0.1653    1.3334 H   0  0  0  0  0  0  0  0  0  0  0  0
    3.0554    0.3662   -0.2420 H   0  0  0  0  0  0  0  0  0  0  0  0
    2.2577   -1.2238   -0.1409 H   0  0  0  0  0  0  0  0  0  0  0  0
    1.1799    1.6111   -0.1138 H   0  0  0  0  0  0  0  0  0  0  0  0
    0.2066    0.8626    2.0144 H   0  0  0  0  0  0  0  0  0  0  0  0
   -0.4496   -1.5555    2.1640 H   0  0  0  0  0  0  0  0  0  0  0  0
   -1.5059   -2.5188    0.1396 H   0  0  0  0  0  0  0  0  0  0  0  0
   -1.2531   -1.2912   -2.0580 H   0  0  0  0  0  0  0  0  0  0  0  0
   -1.6699    1.2040   -1.8334 H   0  0  0  0  0  0  0  0  0  0  0  0
   -2.1956    0.9672    0.9318 H   0  0  0  0  0  0  0  0  0  0  0  0
   -0.9649    2.2092    0.3877 H   0  0  0  0  0  0  0  0  0  0  0  0
    0.6554    0.3046   -2.2309 H   0  0  0  0  0  0  0  0  0  0  0  0
  1  2  1  0
  2  3  1  0
  3  4  1  0
  4  5  2  0
  5  6  1  0
  6  7  1  0
  7  8  1  0
  7  9  1  0
  9  2  1  0
  8  3  1  0
  9  6  1  0
  1 10  1  0
  1 11  1  0
  1 12  1  0
  2 13  1  0
  3 14  1  0
  4 15  1  0
  5 16  1  0
  6 17  1  0
  7 18  1  0
  8 19  1  0
  8 20  1  0
  9 21  1  0
M  END
