
     RDKit          3D

 21 21  0  0  0  0  0  0  0  0999 V2000
    2.3997    0.1905    0.5163 C   0  0  0  0  0  0  0  0  0  0  0  0
    1.2412    0.0152   -0.4524 C   0  0  0  0  0  0  0  0  0  0  0  0
    0.6191   -1.3242   -0.1739 C   0  0  0  0  0  0  0  0  0  0  0  0
   -0.6958   -1.4237   -0.5435 O   0  0  0  0  0  0  0  0  0  0  0  0
   -1.4818   -0.8294    0.4624 C   0  0  0  0  0  0  0  0  0  0  0  0
   -1.9156    0.5090   -0.1322 C   0  0  0  0  0  0  0  0  0  0  0  0
   -2.2170    1.3821    0.8752 O   0  0  0  0  0  0  0  0  0  0  0  0
   -0.7704    1.0223   -1.0030 C   0  0  0  0  0  0  0  0  0  0  0  0
    0.3882    1.0771   -0.2742 O   0  0  0  0  0  0  0  0  0  0  0  0
    2.2969    1.1176    1.1236 H   0  0  0  0  0  0  0  0  0  0  0  0
    3.3773    0.1947    0.0058 H   0  0  0  0  0  0  0  0  0  0  0  0
    2.4465   -0.6435    1.2593 H   0  0  0  0  0  0  0  0  0  0  0  0
    1.6869   -0.0380   -1.4724 H   0  0  0  0  0  0  0  0  0  0  0  0
    0.6880   -1.5059    0.9137 H   0  0  0  0  0  0  0  0  0  0  0  0
    1.1822   -2.1272   -0.7013 H   0  0  0  0  0  0  0  0  0  0  0  0
   -0.9024   -0.6750    1.3972 H   0  0  0  0  0  0  0  0  0  0  0  0
   -2.3457   -1.4685    0.7161 H   0  0  0  0  0  0  0  0  0  0  0  0
   -2.7940    0.3758   -0.7736 H   0  0  0  0  0  0  0  0  0  0  0  0
   -1.4444    1.5951    1.4615 H   0  0  0  0  0  0  0  0  0  0  0  0
   -1.0551    2.0817   -1.2559 H   0  0  0  0  0  0  0  0  0  0  0  0
   -0.7039    0.4743   -1.9486 H   0  0  0  0  0  0  0  0  0  0  0  0
  1  2  1  0
  2  3  1  0
  3  4  1  0
  4  5  1  0
  5  6  1  0
  6  7  1  0
  6  8  1  0
  8  9  1  0
  9  2  1  0
  1 10  1  0
  1 11  1  0
  1 12  1  0
  2 13  1  0
  3 14  1  0
  3 15  1  0
  5 16  1  0
  5 17  1  0
  6 18  1  0
  7 19  1  0
  8 20  1  0
  8 21  1  0
M  END
