
     RDKit          3D

 16 17  0  0  0  0  0  0  0  0999 V2000
   -1.5598    0.2044   -0.8080 C   0  0  0  0  0  0  0  0  0  0  0  0
   -0.8929   -0.8561   -0.0075 C   0  0  0  0  0  0  0  0  0  0  0  0
    0.5410   -1.0973    0.0234 C   0  0  0  0  0  0  0  0  0  0  0  0
    1.5331   -0.2378   -0.6233 C   0  0  0  0  0  0  0  0  0  0  0  0
    1.5126    0.9801   -0.0930 C   0  0  0  0  0  0  0  0  0  0  0  0
    0.5061    1.0514    0.9576 C   0  0  0  0  0  0  0  0  0  0  0  0
    0.1668    2.0743    1.5806 O   0  0  0  0  0  0  0  0  0  0  0  0
   -0.0239   -0.3006    1.1370 C   0  0  0  0  0  0  0  0  0  0  0  0
   -1.9355   -0.1314   -1.7950 H   0  0  0  0  0  0  0  0  0  0  0  0
   -0.8935    1.0735   -0.8979 H   0  0  0  0  0  0  0  0  0  0  0  0
   -2.4591    0.5503   -0.2201 H   0  0  0  0  0  0  0  0  0  0  0  0
   -1.5520   -1.7180    0.2515 H   0  0  0  0  0  0  0  0  0  0  0  0
    0.8996   -2.1513    0.2051 H   0  0  0  0  0  0  0  0  0  0  0  0
    2.2140   -0.5231   -1.4333 H   0  0  0  0  0  0  0  0  0  0  0  0
    2.1617    1.8017   -0.4077 H   0  0  0  0  0  0  0  0  0  0  0  0
   -0.2181   -0.7201    2.1305 H   0  0  0  0  0  0  0  0  0  0  0  0
  1  2  1  0
  2  3  1  0
  3  4  1  0
  4  5  2  0
  5  6  1  0
  6  7  2  0
  6  8  1  0
  8  2  1  0
  8  3  1  0
  1  9  1  0
  1 10  1  0
  1 11  1  0
  2 12  1  0
  3 13  1  0
  4 14  1  0
  5 15  1  0
  8 16  1  0
M  END
