
     RDKit          3D

 21 23  0  0  0  0  0  0  0  0999 V2000
   -0.7877    2.0335   -0.3881 C   0  0  0  0  0  0  0  0  0  0  0  0
   -0.7561    0.5924    0.0274 C   0  0  0  0  0  0  0  0  0  0  0  0
   -0.9777   -0.3921   -1.1274 C   0  0  0  0  0  0  0  0  0  0  0  0
   -1.4890   -1.6846   -0.5712 C   0  0  0  0  0  0  0  0  0  0  0  0
   -0.4987   -2.2874    0.0704 C   0  0  0  0  0  0  0  0  0  0  0  0
    0.7487   -1.4831    0.0131 C   0  0  0  0  0  0  0  0  0  0  0  0
    0.4903   -0.6119   -1.1445 C   0  0  0  0  0  0  0  0  0  0  0  0
    0.6180   -0.0064    0.1806 C   0  0  0  0  0  0  0  0  0  0  0  0
    1.8063    0.8369    0.4522 C   0  0  0  0  0  0  0  0  0  0  0  0
   -0.7208    2.1230   -1.4958 H   0  0  0  0  0  0  0  0  0  0  0  0
   -1.7971    2.4456   -0.1223 H   0  0  0  0  0  0  0  0  0  0  0  0
   -0.0249    2.6495    0.0944 H   0  0  0  0  0  0  0  0  0  0  0  0
   -1.3902    0.3921    0.9034 H   0  0  0  0  0  0  0  0  0  0  0  0
   -1.4767    0.0016   -1.9995 H   0  0  0  0  0  0  0  0  0  0  0  0
   -2.5090   -2.0118   -0.7074 H   0  0  0  0  0  0  0  0  0  0  0  0
   -0.6016   -3.2370    0.5641 H   0  0  0  0  0  0  0  0  0  0  0  0
    1.7220   -1.9620    0.0712 H   0  0  0  0  0  0  0  0  0  0  0  0
    1.1293   -0.4670   -1.9889 H   0  0  0  0  0  0  0  0  0  0  0  0
    1.6176    1.7818    0.9481 H   0  0  0  0  0  0  0  0  0  0  0  0
    2.5311    0.2295    1.0596 H   0  0  0  0  0  0  0  0  0  0  0  0
    2.3661    1.0571   -0.4991 H   0  0  0  0  0  0  0  0  0  0  0  0
  1  2  1  0
  2  3  1  0
  3  4  1  0
  4  5  2  0
  5  6  1  0
  6  7  1  0
  7  8  1  0
  8  9  1  0
  8  2  1  0
  7  3  1  0
  8  6  1  0
  1 10  1  0
  1 11  1  0
  1 12  1  0
  2 13  1  0
  3 14  1  0
  4 15  1  0
  5 16  1  0
  6 17  1  0
  7 18  1  0
  9 19  1  0
  9 20  1  0
  9 21  1  0
M  END
