
     RDKit          3D

 25 25  0  0  0  0  0  0  0  0999 V2000
   -0.2723    1.7908    1.0729 C   0  0  0  0  0  0  0  0  0  0  0  0
   -0.2943    0.3401    0.7168 C   0  0  0  0  0  0  0  0  0  0  0  0
    0.8756   -0.1936   -0.0331 C   0  0  0  0  0  0  0  0  0  0  0  0
    1.6747   -1.2618    0.7034 C   0  0  0  0  0  0  0  0  0  0  0  0
    1.7817    0.8092   -0.6866 C   0  0  0  0  0  0  0  0  0  0  0  0
   -0.0577   -0.7974   -1.0700 C   0  0  0  0  0  0  0  0  0  0  0  0
   -1.2065   -0.0871   -0.3719 C   0  0  0  0  0  0  0  0  0  0  0  0
   -2.2537   -1.1336    0.0140 C   0  0  0  0  0  0  0  0  0  0  0  0
   -1.8167    0.9086   -1.1124 O   0  0  0  0  0  0  0  0  0  0  0  0
    0.6268    1.9759    1.7209 H   0  0  0  0  0  0  0  0  0  0  0  0
   -0.2763    2.4800    0.2329 H   0  0  0  0  0  0  0  0  0  0  0  0
   -1.1450    2.0040    1.7150 H   0  0  0  0  0  0  0  0  0  0  0  0
   -0.4594   -0.2697    1.6464 H   0  0  0  0  0  0  0  0  0  0  0  0
    2.4995   -0.8143    1.2657 H   0  0  0  0  0  0  0  0  0  0  0  0
    2.0332   -2.0027   -0.0539 H   0  0  0  0  0  0  0  0  0  0  0  0
    0.9406   -1.8086    1.3344 H   0  0  0  0  0  0  0  0  0  0  0  0
    2.0183    0.3997   -1.7128 H   0  0  0  0  0  0  0  0  0  0  0  0
    2.7413    0.8165   -0.1410 H   0  0  0  0  0  0  0  0  0  0  0  0
    1.3337    1.7973   -0.8298 H   0  0  0  0  0  0  0  0  0  0  0  0
   -0.0804   -1.8904   -1.0258 H   0  0  0  0  0  0  0  0  0  0  0  0
    0.0806   -0.4456   -2.0947 H   0  0  0  0  0  0  0  0  0  0  0  0
   -2.5227   -1.6355   -0.9617 H   0  0  0  0  0  0  0  0  0  0  0  0
   -3.1694   -0.6908    0.4007 H   0  0  0  0  0  0  0  0  0  0  0  0
   -1.8211   -1.9360    0.6377 H   0  0  0  0  0  0  0  0  0  0  0  0
   -1.2307    1.6451   -1.3670 H   0  0  0  0  0  0  0  0  0  0  0  0
  1  2  1  0
  2  3  1  0
  3  4  1  0
  3  5  1  0
  3  6  1  0
  6  7  1  0
  7  8  1  0
  7  9  1  0
  7  2  1  0
  1 10  1  0
  1 11  1  0
  1 12  1  0
  2 13  1  0
  4 14  1  0
  4 15  1  0
  4 16  1  0
  5 17  1  0
  5 18  1  0
  5 19  1  0
  6 20  1  0
  6 21  1  0
  8 22  1  0
  8 23  1  0
  8 24  1  0
  9 25  1  0
M  END
