
     RDKit          3D

 25 25  0  0  0  0  0  0  0  0999 V2000
   -2.3620   -0.2628   -0.2180 C   0  0  0  0  0  0  0  0  0  0  0  0
   -1.0259   -0.5996    0.3670 C   0  0  0  0  0  0  0  0  0  0  0  0
   -0.0772   -1.3229   -0.5802 C   0  0  0  0  0  0  0  0  0  0  0  0
   -0.1108   -2.6756   -0.3489 O   0  0  0  0  0  0  0  0  0  0  0  0
    1.0341   -0.5743    0.1651 C   0  0  0  0  0  0  0  0  0  0  0  0
    2.1801   -0.1596   -0.7075 C   0  0  0  0  0  0  0  0  0  0  0  0
   -0.0122    0.5126    0.4007 C   0  0  0  0  0  0  0  0  0  0  0  0
   -0.0957    1.5053   -0.7143 C   0  0  0  0  0  0  0  0  0  0  0  0
    0.1364    1.2126    1.7332 C   0  0  0  0  0  0  0  0  0  0  0  0
   -2.3225    0.2932   -1.1596 H   0  0  0  0  0  0  0  0  0  0  0  0
   -2.8758   -1.2294   -0.4417 H   0  0  0  0  0  0  0  0  0  0  0  0
   -2.9584    0.2396    0.5459 H   0  0  0  0  0  0  0  0  0  0  0  0
   -1.1272   -1.1258    1.3200 H   0  0  0  0  0  0  0  0  0  0  0  0
   -0.1489   -0.9785   -1.6185 H   0  0  0  0  0  0  0  0  0  0  0  0
    0.7559   -3.0730   -0.1550 H   0  0  0  0  0  0  0  0  0  0  0  0
    1.3753   -1.0914    1.0606 H   0  0  0  0  0  0  0  0  0  0  0  0
    1.8757    0.3257   -1.6471 H   0  0  0  0  0  0  0  0  0  0  0  0
    2.7145   -1.0980   -1.0073 H   0  0  0  0  0  0  0  0  0  0  0  0
    2.8809    0.4197   -0.1078 H   0  0  0  0  0  0  0  0  0  0  0  0
    0.8836    1.9704   -0.9600 H   0  0  0  0  0  0  0  0  0  0  0  0
   -0.5190    1.1114   -1.6486 H   0  0  0  0  0  0  0  0  0  0  0  0
   -0.7512    2.3466   -0.3691 H   0  0  0  0  0  0  0  0  0  0  0  0
    0.1427    0.5113    2.5792 H   0  0  0  0  0  0  0  0  0  0  0  0
   -0.6794    1.9543    1.8012 H   0  0  0  0  0  0  0  0  0  0  0  0
    1.0871    1.7883    1.7107 H   0  0  0  0  0  0  0  0  0  0  0  0
  1  2  1  0
  2  3  1  0
  3  4  1  0
  3  5  1  0
  5  6  1  0
  5  7  1  0
  7  8  1  0
  7  9  1  0
  7  2  1  0
  1 10  1  0
  1 11  1  0
  1 12  1  0
  2 13  1  0
  3 14  1  0
  4 15  1  0
  5 16  1  0
  6 17  1  0
  6 18  1  0
  6 19  1  0
  8 20  1  0
  8 21  1  0
  8 22  1  0
  9 23  1  0
  9 24  1  0
  9 25  1  0
M  END
