
     RDKit          3D

 21 21  0  0  0  0  0  0  0  0999 V2000
    0.8764    1.6985   -0.3509 C   0  0  0  0  0  0  0  0  0  0  0  0
    0.4729    0.3222   -0.7549 C   0  0  0  0  0  0  0  0  0  0  0  0
    1.3623   -0.7398   -0.1322 C   0  0  0  0  0  0  0  0  0  0  0  0
    2.2390   -0.2006    0.8189 O   0  0  0  0  0  0  0  0  0  0  0  0
    0.1468   -1.3290    0.5096 C   0  0  0  0  0  0  0  0  0  0  0  0
   -0.7351   -0.2597   -0.0909 C   0  0  0  0  0  0  0  0  0  0  0  0
   -1.4442    0.6195    0.8978 C   0  0  0  0  0  0  0  0  0  0  0  0
   -1.7234   -0.8940   -1.0282 C   0  0  0  0  0  0  0  0  0  0  0  0
   -1.7895   -0.5969   -2.1906 O   0  0  0  0  0  0  0  0  0  0  0  0
    0.1668    2.4450   -0.7940 H   0  0  0  0  0  0  0  0  0  0  0  0
    1.8986    1.8778   -0.7953 H   0  0  0  0  0  0  0  0  0  0  0  0
    0.9130    1.8791    0.7201 H   0  0  0  0  0  0  0  0  0  0  0  0
    0.3779    0.2537   -1.8603 H   0  0  0  0  0  0  0  0  0  0  0  0
    1.8384   -1.3421   -0.9209 H   0  0  0  0  0  0  0  0  0  0  0  0
    2.6137   -0.9574    1.3475 H   0  0  0  0  0  0  0  0  0  0  0  0
    0.1463   -1.3387    1.6261 H   0  0  0  0  0  0  0  0  0  0  0  0
   -0.0350   -2.3589    0.1345 H   0  0  0  0  0  0  0  0  0  0  0  0
   -1.1296    1.6584    0.7159 H   0  0  0  0  0  0  0  0  0  0  0  0
   -1.2680    0.3156    1.9503 H   0  0  0  0  0  0  0  0  0  0  0  0
   -2.5518    0.5962    0.7551 H   0  0  0  0  0  0  0  0  0  0  0  0
   -2.3755   -1.6488   -0.5574 H   0  0  0  0  0  0  0  0  0  0  0  0
  1  2  1  0
  2  3  1  0
  3  4  1  0
  3  5  1  0
  5  6  1  0
  6  7  1  0
  6  8  1  0
  8  9  2  0
  6  2  1  0
  1 10  1  0
  1 11  1  0
  1 12  1  0
  2 13  1  0
  3 14  1  0
  4 15  1  0
  5 16  1  0
  5 17  1  0
  7 18  1  0
  7 19  1  0
  7 20  1  0
  8 21  1  0
M  END
