
     RDKit          3D

 20 20  0  0  0  0  0  0  0  0999 V2000
   -0.8762    2.0489   -0.3121 C   0  0  0  0  0  0  0  0  0  0  0  0
   -0.4302    0.6226   -0.5747 C   0  0  0  0  0  0  0  0  0  0  0  0
   -0.5594   -0.3269    0.5573 C   0  0  0  0  0  0  0  0  0  0  0  0
   -1.0996   -1.6931    0.2196 C   0  0  0  0  0  0  0  0  0  0  0  0
   -0.8335    0.1608    1.8464 O   0  0  0  0  0  0  0  0  0  0  0  0
    0.7983    0.0828    0.0491 C   0  0  0  0  0  0  0  0  0  0  0  0
    1.6073   -0.9857   -0.6293 C   0  0  0  0  0  0  0  0  0  0  0  0
    1.5618    0.9758    0.7977 O   0  0  0  0  0  0  0  0  0  0  0  0
   -1.9876    1.9983   -0.1777 H   0  0  0  0  0  0  0  0  0  0  0  0
   -0.7238    2.6903   -1.2156 H   0  0  0  0  0  0  0  0  0  0  0  0
   -0.4143    2.4919    0.5759 H   0  0  0  0  0  0  0  0  0  0  0  0
   -0.7570    0.2671   -1.5903 H   0  0  0  0  0  0  0  0  0  0  0  0
   -0.3879   -2.5073    0.3821 H   0  0  0  0  0  0  0  0  0  0  0  0
   -2.0395   -1.8206    0.8076 H   0  0  0  0  0  0  0  0  0  0  0  0
   -1.4021   -1.7420   -0.8595 H   0  0  0  0  0  0  0  0  0  0  0  0
   -0.0131   -0.0431    2.3835 H   0  0  0  0  0  0  0  0  0  0  0  0
    0.9881   -1.7404   -1.1523 H   0  0  0  0  0  0  0  0  0  0  0  0
    2.2532   -1.4920    0.1334 H   0  0  0  0  0  0  0  0  0  0  0  0
    2.2898   -0.5650   -1.4068 H   0  0  0  0  0  0  0  0  0  0  0  0
    2.0257    1.5774    0.1656 H   0  0  0  0  0  0  0  0  0  0  0  0
  1  2  1  0
  2  3  1  0
  3  4  1  0
  3  5  1  0
  3  6  1  0
  6  7  1  0
  6  8  1  0
  6  2  1  0
  1  9  1  0
  1 10  1  0
  1 11  1  0
  2 12  1  0
  4 13  1  0
  4 14  1  0
  4 15  1  0
  5 16  1  0
  7 17  1  0
  7 18  1  0
  7 19  1  0
  8 20  1  0
M  END
