
     RDKit          3D

 21 23  0  0  0  0  0  0  0  0999 V2000
    2.2764    0.3336    0.1350 C   0  0  0  0  0  0  0  0  0  0  0  0
    0.8096    0.5819    0.2440 C   0  0  0  0  0  0  0  0  0  0  0  0
    0.1466   -0.7471    0.6514 C   0  0  0  0  0  0  0  0  0  0  0  0
   -1.1464   -0.3857    1.3113 C   0  0  0  0  0  0  0  0  0  0  0  0
   -1.8306    0.4211    0.1965 C   0  0  0  0  0  0  0  0  0  0  0  0
   -1.1479    0.0328   -1.0698 C   0  0  0  0  0  0  0  0  0  0  0  0
    0.2358    0.6269   -1.1576 C   0  0  0  0  0  0  0  0  0  0  0  0
    0.6455   -0.6325   -1.6263 O   0  0  0  0  0  0  0  0  0  0  0  0
   -0.2914   -1.1602   -0.7284 C   0  0  0  0  0  0  0  0  0  0  0  0
    2.6457    0.5655   -0.8983 H   0  0  0  0  0  0  0  0  0  0  0  0
    2.8758    0.8933    0.8524 H   0  0  0  0  0  0  0  0  0  0  0  0
    2.5384   -0.7516    0.2823 H   0  0  0  0  0  0  0  0  0  0  0  0
    0.5102    1.4060    0.8762 H   0  0  0  0  0  0  0  0  0  0  0  0
    0.7959   -1.4162    1.1694 H   0  0  0  0  0  0  0  0  0  0  0  0
   -0.8964    0.2902    2.1760 H   0  0  0  0  0  0  0  0  0  0  0  0
   -1.7522   -1.2249    1.6409 H   0  0  0  0  0  0  0  0  0  0  0  0
   -1.5593    1.4966    0.3901 H   0  0  0  0  0  0  0  0  0  0  0  0
   -2.9114    0.3011    0.2068 H   0  0  0  0  0  0  0  0  0  0  0  0
   -1.6855    0.0313   -1.9918 H   0  0  0  0  0  0  0  0  0  0  0  0
    0.4083    1.4783   -1.7648 H   0  0  0  0  0  0  0  0  0  0  0  0
   -0.6672   -2.1405   -0.8952 H   0  0  0  0  0  0  0  0  0  0  0  0
  1  2  1  0
  2  3  1  0
  3  4  1  0
  4  5  1  0
  5  6  1  0
  6  7  1  0
  7  8  1  0
  8  9  1  0
  7  2  1  0
  9  3  1  0
  9  6  1  0
  1 10  1  0
  1 11  1  0
  1 12  1  0
  2 13  1  0
  3 14  1  0
  4 15  1  0
  4 16  1  0
  5 17  1  0
  5 18  1  0
  6 19  1  0
  7 20  1  0
  9 21  1  0
M  END
