
     RDKit          3D

 23 23  0  0  0  0  0  0  0  0999 V2000
    2.4894   -0.5329    0.2896 C   0  0  0  0  0  0  0  0  0  0  0  0
    1.3525    0.0892   -0.4993 C   0  0  0  0  0  0  0  0  0  0  0  0
    0.1781   -0.8105   -0.6499 C   0  0  0  0  0  0  0  0  0  0  0  0
   -1.1070   -0.2612   -0.1208 C   0  0  0  0  0  0  0  0  0  0  0  0
   -1.3332   -0.5795    1.3415 C   0  0  0  0  0  0  0  0  0  0  0  0
   -1.3665   -1.9756    1.5469 O   0  0  0  0  0  0  0  0  0  0  0  0
   -1.2867    1.1964   -0.3506 C   0  0  0  0  0  0  0  0  0  0  0  0
    0.0081    1.8623   -0.7193 C   0  0  0  0  0  0  0  0  0  0  0  0
    1.0257    1.3273    0.0809 O   0  0  0  0  0  0  0  0  0  0  0  0
    2.1254   -1.4006    0.8351 H   0  0  0  0  0  0  0  0  0  0  0  0
    3.3318   -0.8512   -0.3712 H   0  0  0  0  0  0  0  0  0  0  0  0
    2.9145    0.2333    0.9921 H   0  0  0  0  0  0  0  0  0  0  0  0
    1.7952    0.3518   -1.5016 H   0  0  0  0  0  0  0  0  0  0  0  0
    0.0306   -1.0321   -1.7357 H   0  0  0  0  0  0  0  0  0  0  0  0
    0.4230   -1.7824   -0.1731 H   0  0  0  0  0  0  0  0  0  0  0  0
   -1.9414   -0.7893   -0.6699 H   0  0  0  0  0  0  0  0  0  0  0  0
   -0.5529   -0.1336    1.9941 H   0  0  0  0  0  0  0  0  0  0  0  0
   -2.3517   -0.2223    1.6037 H   0  0  0  0  0  0  0  0  0  0  0  0
   -2.1682   -2.3388    1.0817 H   0  0  0  0  0  0  0  0  0  0  0  0
   -2.0175    1.4155   -1.1808 H   0  0  0  0  0  0  0  0  0  0  0  0
   -1.7336    1.6785    0.5489 H   0  0  0  0  0  0  0  0  0  0  0  0
    0.1967    1.6159   -1.7964 H   0  0  0  0  0  0  0  0  0  0  0  0
   -0.0122    2.9400   -0.5458 H   0  0  0  0  0  0  0  0  0  0  0  0
  1  2  1  0
  2  3  1  0
  3  4  1  0
  4  5  1  0
  5  6  1  0
  4  7  1  0
  7  8  1  0
  8  9  1  0
  9  2  1  0
  1 10  1  0
  1 11  1  0
  1 12  1  0
  2 13  1  0
  3 14  1  0
  3 15  1  0
  4 16  1  0
  5 17  1  0
  5 18  1  0
  6 19  1  0
  7 20  1  0
  7 21  1  0
  8 22  1  0
  8 23  1  0
M  END
