
     RDKit          3D

 19 20  0  0  0  0  0  0  0  0999 V2000
   -2.4189    0.1431    0.0685 C   0  0  0  0  0  0  0  0  0  0  0  0
   -0.9917    0.0748    0.5403 C   0  0  0  0  0  0  0  0  0  0  0  0
   -0.4220   -1.3206    0.4557 C   0  0  0  0  0  0  0  0  0  0  0  0
    1.0275   -1.0653    0.6045 C   0  0  0  0  0  0  0  0  0  0  0  0
    1.8325   -1.8229    1.0841 O   0  0  0  0  0  0  0  0  0  0  0  0
    1.2927    0.2831    0.0574 C   0  0  0  0  0  0  0  0  0  0  0  0
    2.5157    0.5936   -0.5435 C   0  0  0  0  0  0  0  0  0  0  0  0
    2.1551    1.1478    0.6954 O   0  0  0  0  0  0  0  0  0  0  0  0
   -0.0471    0.8557   -0.3420 C   0  0  0  0  0  0  0  0  0  0  0  0
   -2.4882    0.2714   -1.0176 H   0  0  0  0  0  0  0  0  0  0  0  0
   -2.9077    0.9837    0.6365 H   0  0  0  0  0  0  0  0  0  0  0  0
   -2.9295   -0.7771    0.4342 H   0  0  0  0  0  0  0  0  0  0  0  0
   -0.8779    0.4256    1.5659 H   0  0  0  0  0  0  0  0  0  0  0  0
   -0.6119   -1.7441   -0.5620 H   0  0  0  0  0  0  0  0  0  0  0  0
   -0.8254   -1.9796    1.2523 H   0  0  0  0  0  0  0  0  0  0  0  0
    3.3883   -0.0595   -0.4846 H   0  0  0  0  0  0  0  0  0  0  0  0
    2.5944    1.3833   -1.3337 H   0  0  0  0  0  0  0  0  0  0  0  0
   -0.0902    1.9454   -0.1571 H   0  0  0  0  0  0  0  0  0  0  0  0
   -0.1960    0.6615   -1.4199 H   0  0  0  0  0  0  0  0  0  0  0  0
  1  2  1  0
  2  3  1  0
  3  4  1  0
  4  5  2  0
  4  6  1  0
  6  7  1  0
  7  8  1  0
  6  9  1  0
  9  2  1  0
  8  6  1  0
  1 10  1  0
  1 11  1  0
  1 12  1  0
  2 13  1  0
  3 14  1  0
  3 15  1  0
  7 16  1  0
  7 17  1  0
  9 18  1  0
  9 19  1  0
M  END
