
     RDKit          3D

 23 24  0  0  0  0  0  0  0  0999 V2000
    2.1571    0.0920    0.8760 C   0  0  0  0  0  0  0  0  0  0  0  0
    1.2632   -0.0646   -0.3392 C   0  0  0  0  0  0  0  0  0  0  0  0
    0.3353    1.1343   -0.5121 C   0  0  0  0  0  0  0  0  0  0  0  0
    0.8333    2.3349   -0.0790 O   0  0  0  0  0  0  0  0  0  0  0  0
   -0.7416    0.4896    0.2751 C   0  0  0  0  0  0  0  0  0  0  0  0
   -2.1426    0.6379   -0.2514 C   0  0  0  0  0  0  0  0  0  0  0  0
   -0.5328   -0.4588    1.3673 C   0  0  0  0  0  0  0  0  0  0  0  0
   -0.0071   -0.8278    0.0610 C   0  0  0  0  0  0  0  0  0  0  0  0
   -0.5561   -1.8660   -0.8290 C   0  0  0  0  0  0  0  0  0  0  0  0
    1.8570    1.0074    1.4608 H   0  0  0  0  0  0  0  0  0  0  0  0
    2.0270   -0.7717    1.5537 H   0  0  0  0  0  0  0  0  0  0  0  0
    3.2133    0.1955    0.6342 H   0  0  0  0  0  0  0  0  0  0  0  0
    1.7518   -0.4220   -1.2395 H   0  0  0  0  0  0  0  0  0  0  0  0
    0.0435    1.1691   -1.6035 H   0  0  0  0  0  0  0  0  0  0  0  0
    1.2122    2.8150   -0.8820 H   0  0  0  0  0  0  0  0  0  0  0  0
   -2.6912    1.2775    0.5024 H   0  0  0  0  0  0  0  0  0  0  0  0
   -2.6121   -0.3432   -0.3257 H   0  0  0  0  0  0  0  0  0  0  0  0
   -2.1956    1.2039   -1.1975 H   0  0  0  0  0  0  0  0  0  0  0  0
    0.1817   -0.1480    2.1629 H   0  0  0  0  0  0  0  0  0  0  0  0
   -1.3988   -0.9979    1.7485 H   0  0  0  0  0  0  0  0  0  0  0  0
   -1.4084   -1.5189   -1.4806 H   0  0  0  0  0  0  0  0  0  0  0  0
   -0.8364   -2.7933   -0.3285 H   0  0  0  0  0  0  0  0  0  0  0  0
    0.2475   -2.1450   -1.5741 H   0  0  0  0  0  0  0  0  0  0  0  0
  1  2  1  0
  2  3  1  0
  3  4  1  0
  3  5  1  0
  5  6  1  0
  5  7  1  0
  7  8  1  0
  8  9  1  0
  8  2  1  0
  8  5  1  0
  1 10  1  0
  1 11  1  0
  1 12  1  0
  2 13  1  0
  3 14  1  0
  4 15  1  0
  6 16  1  0
  6 17  1  0
  6 18  1  0
  7 19  1  0
  7 20  1  0
  9 21  1  0
  9 22  1  0
  9 23  1  0
M  END
