
     RDKit          3D

 23 24  0  0  0  0  0  0  0  0999 V2000
   -1.6325    1.6688   -0.4071 C   0  0  0  0  0  0  0  0  0  0  0  0
   -0.6483    0.5502   -0.7556 C   0  0  0  0  0  0  0  0  0  0  0  0
    0.7640    1.1475   -0.8609 C   0  0  0  0  0  0  0  0  0  0  0  0
    1.6954    0.0257   -0.4800 C   0  0  0  0  0  0  0  0  0  0  0  0
    1.9565   -0.1667    0.9701 C   0  0  0  0  0  0  0  0  0  0  0  0
    0.8528   -0.9292    0.2727 C   0  0  0  0  0  0  0  0  0  0  0  0
    0.9546   -2.2864    0.0821 O   0  0  0  0  0  0  0  0  0  0  0  0
   -0.5102   -0.3089    0.4597 C   0  0  0  0  0  0  0  0  0  0  0  0
   -1.5487   -1.3685    0.5891 C   0  0  0  0  0  0  0  0  0  0  0  0
   -1.6389    2.4452   -1.1960 H   0  0  0  0  0  0  0  0  0  0  0  0
   -2.6129    1.2194   -0.2200 H   0  0  0  0  0  0  0  0  0  0  0  0
   -1.2744    2.0660    0.5797 H   0  0  0  0  0  0  0  0  0  0  0  0
   -0.9249    0.0210   -1.6704 H   0  0  0  0  0  0  0  0  0  0  0  0
    0.9588    1.5377   -1.8795 H   0  0  0  0  0  0  0  0  0  0  0  0
    0.8295    1.9574   -0.0932 H   0  0  0  0  0  0  0  0  0  0  0  0
    2.4734   -0.3023   -1.1951 H   0  0  0  0  0  0  0  0  0  0  0  0
    2.7746   -0.8084    1.3275 H   0  0  0  0  0  0  0  0  0  0  0  0
    1.6812    0.6231    1.7122 H   0  0  0  0  0  0  0  0  0  0  0  0
    1.7023   -2.5065   -0.5184 H   0  0  0  0  0  0  0  0  0  0  0  0
   -0.5354    0.3660    1.3483 H   0  0  0  0  0  0  0  0  0  0  0  0
   -2.5158   -0.8975    0.8405 H   0  0  0  0  0  0  0  0  0  0  0  0
   -1.5818   -1.9965   -0.3195 H   0  0  0  0  0  0  0  0  0  0  0  0
   -1.2192   -2.0572    1.4139 H   0  0  0  0  0  0  0  0  0  0  0  0
  1  2  1  0
  2  3  1  0
  3  4  1  0
  4  5  1  0
  5  6  1  0
  6  7  1  0
  6  8  1  0
  8  9  1  0
  8  2  1  0
  6  4  1  0
  1 10  1  0
  1 11  1  0
  1 12  1  0
  2 13  1  0
  3 14  1  0
  3 15  1  0
  4 16  1  0
  5 17  1  0
  5 18  1  0
  7 19  1  0
  8 20  1  0
  9 21  1  0
  9 22  1  0
  9 23  1  0
M  END
