
     RDKit          3D

 21 21  0  0  0  0  0  0  0  0999 V2000
    2.3962    0.2004   -0.0866 C   0  0  0  0  0  0  0  0  0  0  0  0
    1.0951    0.1577    0.6777 C   0  0  0  0  0  0  0  0  0  0  0  0
    0.4969   -1.2311    0.4266 C   0  0  0  0  0  0  0  0  0  0  0  0
   -0.3677   -0.9779   -0.7377 C   0  0  0  0  0  0  0  0  0  0  0  0
   -0.5669   -1.6259   -1.7515 O   0  0  0  0  0  0  0  0  0  0  0  0
   -1.0393    0.3408   -0.4578 C   0  0  0  0  0  0  0  0  0  0  0  0
   -2.1637    0.0545    0.5056 C   0  0  0  0  0  0  0  0  0  0  0  0
   -1.5758    0.9069   -1.5883 O   0  0  0  0  0  0  0  0  0  0  0  0
    0.0806    1.1254    0.1494 C   0  0  0  0  0  0  0  0  0  0  0  0
    2.8393    1.2124    0.0287 H   0  0  0  0  0  0  0  0  0  0  0  0
    3.0777   -0.5461    0.3759 H   0  0  0  0  0  0  0  0  0  0  0  0
    2.2860   -0.0970   -1.1482 H   0  0  0  0  0  0  0  0  0  0  0  0
    1.3227    0.2782    1.7445 H   0  0  0  0  0  0  0  0  0  0  0  0
    1.2663   -1.9675    0.1825 H   0  0  0  0  0  0  0  0  0  0  0  0
   -0.0449   -1.4991    1.3467 H   0  0  0  0  0  0  0  0  0  0  0  0
   -2.9021   -0.5747   -0.0511 H   0  0  0  0  0  0  0  0  0  0  0  0
   -1.8462   -0.5336    1.3845 H   0  0  0  0  0  0  0  0  0  0  0  0
   -2.6348    0.9815    0.8986 H   0  0  0  0  0  0  0  0  0  0  0  0
   -2.0248    0.2194   -2.1488 H   0  0  0  0  0  0  0  0  0  0  0  0
   -0.2307    1.8377    0.9288 H   0  0  0  0  0  0  0  0  0  0  0  0
    0.5361    1.7379   -0.6795 H   0  0  0  0  0  0  0  0  0  0  0  0
  1  2  1  0
  2  3  1  0
  3  4  1  0
  4  5  2  0
  4  6  1  0
  6  7  1  0
  6  8  1  0
  6  9  1  0
  9  2  1  0
  1 10  1  0
  1 11  1  0
  1 12  1  0
  2 13  1  0
  3 14  1  0
  3 15  1  0
  7 16  1  0
  7 17  1  0
  7 18  1  0
  8 19  1  0
  9 20  1  0
  9 21  1  0
M  END
