
     RDKit          3D

 16 16  0  0  0  0  0  0  0  0999 V2000
   -2.1200   -0.1824    0.0031 C   0  0  0  0  0  0  0  0  0  0  0  0
   -0.6651   -0.0776    0.3510 C   0  0  0  0  0  0  0  0  0  0  0  0
    0.1496   -0.9445   -0.5354 C   0  0  0  0  0  0  0  0  0  0  0  0
    1.4559   -0.7418   -0.5658 C   0  0  0  0  0  0  0  0  0  0  0  0
    2.0589    0.3478    0.2899 C   0  0  0  0  0  0  0  0  0  0  0  0
    1.2361    1.4874    0.0775 O   0  0  0  0  0  0  0  0  0  0  0  0
   -0.1415    1.3137    0.1449 C   0  0  0  0  0  0  0  0  0  0  0  0
   -0.9042    2.3075    0.0337 O   0  0  0  0  0  0  0  0  0  0  0  0
   -2.7654    0.2514    0.7853 H   0  0  0  0  0  0  0  0  0  0  0  0
   -2.3629   -1.2681   -0.0665 H   0  0  0  0  0  0  0  0  0  0  0  0
   -2.2625    0.2660   -0.9940 H   0  0  0  0  0  0  0  0  0  0  0  0
   -0.4523   -0.3218    1.4201 H   0  0  0  0  0  0  0  0  0  0  0  0
   -0.3473   -1.7020   -1.1180 H   0  0  0  0  0  0  0  0  0  0  0  0
    2.0545   -1.3632   -1.2035 H   0  0  0  0  0  0  0  0  0  0  0  0
    1.9816    0.0676    1.3719 H   0  0  0  0  0  0  0  0  0  0  0  0
    3.0844    0.5602    0.0058 H   0  0  0  0  0  0  0  0  0  0  0  0
  1  2  1  0
  2  3  1  0
  3  4  2  0
  4  5  1  0
  5  6  1  0
  6  7  1  0
  7  8  2  0
  7  2  1  0
  1  9  1  0
  1 10  1  0
  1 11  1  0
  2 12  1  0
  3 13  1  0
  4 14  1  0
  5 15  1  0
  5 16  1  0
M  END
