
     RDKit          3D

 23 25  0  0  0  0  0  0  0  0999 V2000
   -1.3865    2.0658    0.1215 C   0  0  0  0  0  0  0  0  0  0  0  0
   -1.0612    0.6454    0.0191 C   0  0  0  0  0  0  0  0  0  0  0  0
    0.0060    0.0662    0.8947 C   0  0  0  0  0  0  0  0  0  0  0  0
    1.0026    0.8527    0.0994 C   0  0  0  0  0  0  0  0  0  0  0  0
    2.4080    0.3528    0.0866 C   0  0  0  0  0  0  0  0  0  0  0  0
    0.0608    0.2101   -0.8772 C   0  0  0  0  0  0  0  0  0  0  0  0
    0.1199   -0.9958   -0.0841 C   0  0  0  0  0  0  0  0  0  0  0  0
   -0.5622   -2.0969    0.5059 C   0  0  0  0  0  0  0  0  0  0  0  0
   -0.5543   -1.9761   -0.8747 C   0  0  0  0  0  0  0  0  0  0  0  0
   -0.7767    2.7657   -0.4730 H   0  0  0  0  0  0  0  0  0  0  0  0
   -1.4490    2.3627    1.2051 H   0  0  0  0  0  0  0  0  0  0  0  0
   -2.4443    2.2163   -0.2516 H   0  0  0  0  0  0  0  0  0  0  0  0
   -1.9201   -0.0405   -0.0809 H   0  0  0  0  0  0  0  0  0  0  0  0
   -0.0276    0.0338    1.9162 H   0  0  0  0  0  0  0  0  0  0  0  0
    0.9357    1.9220    0.2463 H   0  0  0  0  0  0  0  0  0  0  0  0
    2.6721   -0.0728    1.0730 H   0  0  0  0  0  0  0  0  0  0  0  0
    2.5743   -0.4393   -0.6963 H   0  0  0  0  0  0  0  0  0  0  0  0
    3.1299    1.1940   -0.0804 H   0  0  0  0  0  0  0  0  0  0  0  0
    0.0850    0.3558   -1.8872 H   0  0  0  0  0  0  0  0  0  0  0  0
    0.1203   -2.8454    1.0145 H   0  0  0  0  0  0  0  0  0  0  0  0
   -1.5478   -2.0976    1.0540 H   0  0  0  0  0  0  0  0  0  0  0  0
    0.1425   -2.6138   -1.5004 H   0  0  0  0  0  0  0  0  0  0  0  0
   -1.5274   -1.8650   -1.4305 H   0  0  0  0  0  0  0  0  0  0  0  0
  1  2  1  0
  2  3  1  0
  3  4  1  0
  4  5  1  0
  4  6  1  0
  6  7  1  0
  7  8  1  0
  8  9  1  0
  6  2  1  0
  9  7  1  0
  7  3  1  0
  1 10  1  0
  1 11  1  0
  1 12  1  0
  2 13  1  0
  3 14  1  0
  4 15  1  0
  5 16  1  0
  5 17  1  0
  5 18  1  0
  6 19  1  0
  8 20  1  0
  8 21  1  0
  9 22  1  0
  9 23  1  0
M  END
