
     RDKit          3D

 23 25  0  0  0  0  0  0  0  0999 V2000
    2.2784   -0.3807   -0.1694 C   0  0  0  0  0  0  0  0  0  0  0  0
    1.1155    0.5144   -0.0885 C   0  0  0  0  0  0  0  0  0  0  0  0
    0.1907    0.2272    1.1055 C   0  0  0  0  0  0  0  0  0  0  0  0
   -0.0173   -1.2640    0.7679 C   0  0  0  0  0  0  0  0  0  0  0  0
   -0.7529   -0.9480   -0.5531 C   0  0  0  0  0  0  0  0  0  0  0  0
   -1.9435   -0.2884    0.1748 C   0  0  0  0  0  0  0  0  0  0  0  0
   -1.0795    0.8880    0.6832 C   0  0  0  0  0  0  0  0  0  0  0  0
   -0.8190    1.4263   -0.7431 C   0  0  0  0  0  0  0  0  0  0  0  0
    0.0217    0.1865   -1.1290 C   0  0  0  0  0  0  0  0  0  0  0  0
    2.6655   -0.7673    0.7928 H   0  0  0  0  0  0  0  0  0  0  0  0
    3.1373    0.2178   -0.6003 H   0  0  0  0  0  0  0  0  0  0  0  0
    2.1634   -1.2298   -0.8998 H   0  0  0  0  0  0  0  0  0  0  0  0
    1.3681    1.5691   -0.0809 H   0  0  0  0  0  0  0  0  0  0  0  0
    0.5910    0.4241    2.0531 H   0  0  0  0  0  0  0  0  0  0  0  0
    0.9112   -1.7894    0.6082 H   0  0  0  0  0  0  0  0  0  0  0  0
   -0.7212   -1.7282    1.4786 H   0  0  0  0  0  0  0  0  0  0  0  0
   -0.9902   -1.7788   -1.1449 H   0  0  0  0  0  0  0  0  0  0  0  0
   -2.7136    0.0383   -0.5073 H   0  0  0  0  0  0  0  0  0  0  0  0
   -2.2457   -0.8352    1.0574 H   0  0  0  0  0  0  0  0  0  0  0  0
   -1.5639    1.5524    1.3308 H   0  0  0  0  0  0  0  0  0  0  0  0
   -0.2048    2.3207   -0.6896 H   0  0  0  0  0  0  0  0  0  0  0  0
   -1.7331    1.4888   -1.3219 H   0  0  0  0  0  0  0  0  0  0  0  0
    0.3419    0.1561   -2.1245 H   0  0  0  0  0  0  0  0  0  0  0  0
  1  2  1  0
  2  3  1  0
  3  4  1  0
  4  5  1  0
  5  6  1  0
  6  7  1  0
  7  8  1  0
  8  9  1  0
  9  2  1  0
  7  3  1  0
  9  5  1  0
  1 10  1  0
  1 11  1  0
  1 12  1  0
  2 13  1  0
  3 14  1  0
  4 15  1  0
  4 16  1  0
  5 17  1  0
  6 18  1  0
  6 19  1  0
  7 20  1  0
  8 21  1  0
  8 22  1  0
  9 23  1  0
M  END
