
     RDKit          3D

 21 22  0  0  0  0  0  0  0  0999 V2000
   -2.7675    0.0186    0.1156 C   0  0  0  0  0  0  0  0  0  0  0  0
   -1.4725    0.7984    0.2057 C   0  0  0  0  0  0  0  0  0  0  0  0
   -0.6008    0.6707   -0.9188 C   0  0  0  0  0  0  0  0  0  0  0  0
    0.5332   -0.2871   -1.1730 C   0  0  0  0  0  0  0  0  0  0  0  0
    1.1605    0.5599   -0.0448 C   0  0  0  0  0  0  0  0  0  0  0  0
    2.2850   -0.1201    0.6632 C   0  0  0  0  0  0  0  0  0  0  0  0
    3.3237   -0.4362   -0.1904 O   0  0  0  0  0  0  0  0  0  0  0  0
   -0.2069    0.2486    0.5566 C   0  0  0  0  0  0  0  0  0  0  0  0
   -0.2158   -1.1062    0.8509 O   0  0  0  0  0  0  0  0  0  0  0  0
   -3.2518   -0.1155    1.1055 H   0  0  0  0  0  0  0  0  0  0  0  0
   -2.6835   -0.9486   -0.3550 H   0  0  0  0  0  0  0  0  0  0  0  0
   -3.5116    0.6119   -0.4919 H   0  0  0  0  0  0  0  0  0  0  0  0
   -1.6974    1.7796    0.7348 H   0  0  0  0  0  0  0  0  0  0  0  0
   -0.1952    1.6936   -1.2174 H   0  0  0  0  0  0  0  0  0  0  0  0
    1.0018   -0.1613   -2.1484 H   0  0  0  0  0  0  0  0  0  0  0  0
    0.3849   -1.3329   -0.9482 H   0  0  0  0  0  0  0  0  0  0  0  0
    1.3100    1.5768   -0.3891 H   0  0  0  0  0  0  0  0  0  0  0  0
    2.5743    0.4995    1.5222 H   0  0  0  0  0  0  0  0  0  0  0  0
    1.8807   -1.0752    1.0899 H   0  0  0  0  0  0  0  0  0  0  0  0
    3.1244   -1.2725   -0.6834 H   0  0  0  0  0  0  0  0  0  0  0  0
   -0.9755   -1.6021    0.5492 H   0  0  0  0  0  0  0  0  0  0  0  0
  1  2  1  0
  2  3  1  0
  3  4  1  0
  4  5  1  0
  5  6  1  0
  6  7  1  0
  5  8  1  0
  8  9  1  0
  8  2  1  0
  8  3  1  0
  1 10  1  0
  1 11  1  0
  1 12  1  0
  2 13  1  0
  3 14  1  0
  4 15  1  0
  4 16  1  0
  5 17  1  0
  6 18  1  0
  6 19  1  0
  7 20  1  0
  9 21  1  0
M  END
