
     RDKit          3D

 23 23  0  0  0  0  0  0  0  0999 V2000
    2.6389   -0.5533   -0.3961 C   0  0  0  0  0  0  0  0  0  0  0  0
    1.2125   -0.4699    0.0720 C   0  0  0  0  0  0  0  0  0  0  0  0
    1.0019    0.8604    0.8069 C   0  0  0  0  0  0  0  0  0  0  0  0
   -0.5146    0.7894    0.9647 C   0  0  0  0  0  0  0  0  0  0  0  0
   -1.0601    1.9465    1.4425 O   0  0  0  0  0  0  0  0  0  0  0  0
   -0.9231    0.4747   -0.4682 C   0  0  0  0  0  0  0  0  0  0  0  0
   -2.1917   -0.3360   -0.5006 C   0  0  0  0  0  0  0  0  0  0  0  0
   -2.0539   -1.5453    0.1665 O   0  0  0  0  0  0  0  0  0  0  0  0
    0.2240   -0.3323   -1.0479 C   0  0  0  0  0  0  0  0  0  0  0  0
    2.8135   -1.5402   -0.8607 H   0  0  0  0  0  0  0  0  0  0  0  0
    3.2787   -0.3803    0.4991 H   0  0  0  0  0  0  0  0  0  0  0  0
    2.8055    0.2951   -1.0908 H   0  0  0  0  0  0  0  0  0  0  0  0
    0.9269   -1.3199    0.7265 H   0  0  0  0  0  0  0  0  0  0  0  0
    1.5303    0.8991    1.7549 H   0  0  0  0  0  0  0  0  0  0  0  0
    1.2920    1.6507    0.0806 H   0  0  0  0  0  0  0  0  0  0  0  0
   -0.7308   -0.1152    1.5540 H   0  0  0  0  0  0  0  0  0  0  0  0
   -1.5481    1.7476    2.2916 H   0  0  0  0  0  0  0  0  0  0  0  0
   -1.0850    1.4246   -0.9853 H   0  0  0  0  0  0  0  0  0  0  0  0
   -2.9917    0.2313   -0.0177 H   0  0  0  0  0  0  0  0  0  0  0  0
   -2.4401   -0.4967   -1.5764 H   0  0  0  0  0  0  0  0  0  0  0  0
   -2.7506   -2.1791   -0.0649 H   0  0  0  0  0  0  0  0  0  0  0  0
   -0.1108   -1.3040   -1.4603 H   0  0  0  0  0  0  0  0  0  0  0  0
    0.6763    0.2530   -1.8905 H   0  0  0  0  0  0  0  0  0  0  0  0
  1  2  1  0
  2  3  1  0
  3  4  1  0
  4  5  1  0
  4  6  1  0
  6  7  1  0
  7  8  1  0
  6  9  1  0
  9  2  1  0
  1 10  1  0
  1 11  1  0
  1 12  1  0
  2 13  1  0
  3 14  1  0
  3 15  1  0
  4 16  1  0
  5 17  1  0
  6 18  1  0
  7 19  1  0
  7 20  1  0
  8 21  1  0
  9 22  1  0
  9 23  1  0
M  END
