
     RDKit          3D

 23 23  0  0  0  0  0  0  0  0999 V2000
    2.8677    0.4012   -0.3514 C   0  0  0  0  0  0  0  0  0  0  0  0
    1.3944    0.2531   -0.4136 C   0  0  0  0  0  0  0  0  0  0  0  0
    0.9099   -1.1616   -0.2836 C   0  0  0  0  0  0  0  0  0  0  0  0
   -0.5560   -1.2626   -0.1227 C   0  0  0  0  0  0  0  0  0  0  0  0
   -1.2977   -0.0176    0.1426 C   0  0  0  0  0  0  0  0  0  0  0  0
   -2.1470   -0.1238    1.4195 C   0  0  0  0  0  0  0  0  0  0  0  0
   -2.2380    0.2202   -0.8878 O   0  0  0  0  0  0  0  0  0  0  0  0
   -0.4786    1.2215    0.2752 C   0  0  0  0  0  0  0  0  0  0  0  0
    0.8438    0.9655    0.6774 O   0  0  0  0  0  0  0  0  0  0  0  0
    3.2320    0.7256    0.6676 H   0  0  0  0  0  0  0  0  0  0  0  0
    3.1475    1.2713   -1.0161 H   0  0  0  0  0  0  0  0  0  0  0  0
    3.4422   -0.4958   -0.6254 H   0  0  0  0  0  0  0  0  0  0  0  0
    0.9821    0.6534   -1.3666 H   0  0  0  0  0  0  0  0  0  0  0  0
    1.2817   -1.7017   -1.2048 H   0  0  0  0  0  0  0  0  0  0  0  0
    1.4312   -1.7013    0.5607 H   0  0  0  0  0  0  0  0  0  0  0  0
   -0.7985   -1.9988    0.6998 H   0  0  0  0  0  0  0  0  0  0  0  0
   -0.9663   -1.7662   -1.0475 H   0  0  0  0  0  0  0  0  0  0  0  0
   -1.5322    0.0677    2.3197 H   0  0  0  0  0  0  0  0  0  0  0  0
   -2.8761    0.7262    1.3387 H   0  0  0  0  0  0  0  0  0  0  0  0
   -2.7246   -1.0445    1.4498 H   0  0  0  0  0  0  0  0  0  0  0  0
   -2.5736    1.1464   -0.8260 H   0  0  0  0  0  0  0  0  0  0  0  0
   -0.9678    1.9497    0.9472 H   0  0  0  0  0  0  0  0  0  0  0  0
   -0.3762    1.6722   -0.7559 H   0  0  0  0  0  0  0  0  0  0  0  0
  1  2  1  0
  2  3  1  0
  3  4  1  0
  4  5  1  0
  5  6  1  0
  5  7  1  0
  5  8  1  0
  8  9  1  0
  9  2  1  0
  1 10  1  0
  1 11  1  0
  1 12  1  0
  2 13  1  0
  3 14  1  0
  3 15  1  0
  4 16  1  0
  4 17  1  0
  6 18  1  0
  6 19  1  0
  6 20  1  0
  7 21  1  0
  8 22  1  0
  8 23  1  0
M  END
