
     RDKit          3D

 23 24  0  0  0  0  0  0  0  0999 V2000
   -2.3320   -1.1185    0.2144 C   0  0  0  0  0  0  0  0  0  0  0  0
   -1.0302   -0.5644   -0.3093 C   0  0  0  0  0  0  0  0  0  0  0  0
    0.1416   -0.9759    0.5865 C   0  0  0  0  0  0  0  0  0  0  0  0
    1.2019   -0.0163    0.1250 C   0  0  0  0  0  0  0  0  0  0  0  0
    2.3862   -0.6807   -0.5381 C   0  0  0  0  0  0  0  0  0  0  0  0
    1.4020    1.3040    0.7037 C   0  0  0  0  0  0  0  0  0  0  0  0
    0.5410    1.1605   -0.4918 C   0  0  0  0  0  0  0  0  0  0  0  0
   -0.9429    0.9395   -0.1721 C   0  0  0  0  0  0  0  0  0  0  0  0
   -1.7698    1.6241   -1.0157 O   0  0  0  0  0  0  0  0  0  0  0  0
   -2.4814   -0.7978    1.2584 H   0  0  0  0  0  0  0  0  0  0  0  0
   -3.1256   -0.7873   -0.4699 H   0  0  0  0  0  0  0  0  0  0  0  0
   -2.2511   -2.2178    0.1987 H   0  0  0  0  0  0  0  0  0  0  0  0
   -0.8231   -0.9007   -1.3263 H   0  0  0  0  0  0  0  0  0  0  0  0
    0.3699   -2.0183    0.3754 H   0  0  0  0  0  0  0  0  0  0  0  0
   -0.1289   -0.7892    1.6584 H   0  0  0  0  0  0  0  0  0  0  0  0
    2.8078   -0.1148   -1.3676 H   0  0  0  0  0  0  0  0  0  0  0  0
    2.1599   -1.7525   -0.7978 H   0  0  0  0  0  0  0  0  0  0  0  0
    3.1819   -0.7506    0.2492 H   0  0  0  0  0  0  0  0  0  0  0  0
    0.9115    1.6517    1.6406 H   0  0  0  0  0  0  0  0  0  0  0  0
    2.3832    1.7865    0.5416 H   0  0  0  0  0  0  0  0  0  0  0  0
    0.8144    1.5296   -1.4806 H   0  0  0  0  0  0  0  0  0  0  0  0
   -1.1559    1.1694    0.8957 H   0  0  0  0  0  0  0  0  0  0  0  0
   -2.2602    2.3195   -0.4783 H   0  0  0  0  0  0  0  0  0  0  0  0
  1  2  1  0
  2  3  1  0
  3  4  1  0
  4  5  1  0
  4  6  1  0
  6  7  1  0
  7  8  1  0
  8  9  1  0
  8  2  1  0
  7  4  1  0
  1 10  1  0
  1 11  1  0
  1 12  1  0
  2 13  1  0
  3 14  1  0
  3 15  1  0
  5 16  1  0
  5 17  1  0
  5 18  1  0
  6 19  1  0
  6 20  1  0
  7 21  1  0
  8 22  1  0
  9 23  1  0
M  END
