
     RDKit          3D

 23 24  0  0  0  0  0  0  0  0999 V2000
    2.3941   -1.0911   -0.0930 C   0  0  0  0  0  0  0  0  0  0  0  0
    1.1296   -0.3693   -0.5191 C   0  0  0  0  0  0  0  0  0  0  0  0
    1.4360    1.1005   -0.5335 C   0  0  0  0  0  0  0  0  0  0  0  0
    0.5714    1.7679    0.1954 C   0  0  0  0  0  0  0  0  0  0  0  0
   -0.4349    0.8836    0.8063 C   0  0  0  0  0  0  0  0  0  0  0  0
   -1.7368    1.0762    0.0799 C   0  0  0  0  0  0  0  0  0  0  0  0
   -2.1569   -0.2531   -0.4577 C   0  0  0  0  0  0  0  0  0  0  0  0
   -1.1407   -1.2744    0.0193 C   0  0  0  0  0  0  0  0  0  0  0  0
    0.0423   -0.5147    0.5157 C   0  0  0  0  0  0  0  0  0  0  0  0
    2.2928   -1.5397    0.9218 H   0  0  0  0  0  0  0  0  0  0  0  0
    3.2637   -0.3848   -0.0084 H   0  0  0  0  0  0  0  0  0  0  0  0
    2.7201   -1.8446   -0.8533 H   0  0  0  0  0  0  0  0  0  0  0  0
    0.7873   -0.7008   -1.5327 H   0  0  0  0  0  0  0  0  0  0  0  0
    2.2602    1.5471   -1.0735 H   0  0  0  0  0  0  0  0  0  0  0  0
    0.6068    2.8436    0.3232 H   0  0  0  0  0  0  0  0  0  0  0  0
   -0.5324    1.0534    1.8905 H   0  0  0  0  0  0  0  0  0  0  0  0
   -1.6405    1.7705   -0.7958 H   0  0  0  0  0  0  0  0  0  0  0  0
   -2.4807    1.5293    0.7817 H   0  0  0  0  0  0  0  0  0  0  0  0
   -3.1487   -0.4975    0.0076 H   0  0  0  0  0  0  0  0  0  0  0  0
   -2.2391   -0.2747   -1.5607 H   0  0  0  0  0  0  0  0  0  0  0  0
   -0.8896   -1.9595   -0.8162 H   0  0  0  0  0  0  0  0  0  0  0  0
   -1.5549   -1.8759    0.8717 H   0  0  0  0  0  0  0  0  0  0  0  0
    0.4510   -0.9922    1.4205 H   0  0  0  0  0  0  0  0  0  0  0  0
  1  2  1  0
  2  3  1  0
  3  4  2  0
  4  5  1  0
  5  6  1  0
  6  7  1  0
  7  8  1  0
  8  9  1  0
  9  2  1  0
  9  5  1  0
  1 10  1  0
  1 11  1  0
  1 12  1  0
  2 13  1  0
  3 14  1  0
  4 15  1  0
  5 16  1  0
  6 17  1  0
  6 18  1  0
  7 19  1  0
  7 20  1  0
  8 21  1  0
  8 22  1  0
  9 23  1  0
M  END
