
     RDKit          3D

 21 22  0  0  0  0  0  0  0  0999 V2000
   -2.2554    0.5301   -0.6313 C   0  0  0  0  0  0  0  0  0  0  0  0
   -1.4482   -0.2575    0.3471 C   0  0  0  0  0  0  0  0  0  0  0  0
   -0.6135   -1.3314   -0.2541 C   0  0  0  0  0  0  0  0  0  0  0  0
    0.1633   -0.9775    1.0198 C   0  0  0  0  0  0  0  0  0  0  0  0
    1.1852   -0.0911    0.9804 C   0  0  0  0  0  0  0  0  0  0  0  0
    1.9993    0.1354   -0.2687 C   0  0  0  0  0  0  0  0  0  0  0  0
    2.9924    1.0924   -0.0647 O   0  0  0  0  0  0  0  0  0  0  0  0
   -0.2858    0.3617    0.9953 C   0  0  0  0  0  0  0  0  0  0  0  0
   -0.1843    1.6294    0.7145 O   0  0  0  0  0  0  0  0  0  0  0  0
   -2.9548    1.1879   -0.0675 H   0  0  0  0  0  0  0  0  0  0  0  0
   -2.8996   -0.1830   -1.1908 H   0  0  0  0  0  0  0  0  0  0  0  0
   -1.6774    1.0855   -1.3663 H   0  0  0  0  0  0  0  0  0  0  0  0
   -2.1431   -0.7076    1.1166 H   0  0  0  0  0  0  0  0  0  0  0  0
   -0.0758   -1.0678   -1.1856 H   0  0  0  0  0  0  0  0  0  0  0  0
   -1.0859   -2.3195   -0.2189 H   0  0  0  0  0  0  0  0  0  0  0  0
   -0.0979   -1.6186    1.8892 H   0  0  0  0  0  0  0  0  0  0  0  0
    1.7097    0.2793    1.9115 H   0  0  0  0  0  0  0  0  0  0  0  0
    2.5425   -0.8350   -0.4652 H   0  0  0  0  0  0  0  0  0  0  0  0
    1.4070    0.4185   -1.1395 H   0  0  0  0  0  0  0  0  0  0  0  0
    3.8993    0.7394   -0.1820 H   0  0  0  0  0  0  0  0  0  0  0  0
   -0.1769    1.9294   -0.2256 H   0  0  0  0  0  0  0  0  0  0  0  0
  1  2  1  0
  2  3  1  0
  3  4  1  0
  4  5  1  0
  5  6  1  0
  6  7  1  0
  5  8  1  0
  8  9  1  0
  8  2  1  0
  8  4  1  0
  1 10  1  0
  1 11  1  0
  1 12  1  0
  2 13  1  0
  3 14  1  0
  3 15  1  0
  4 16  1  0
  5 17  1  0
  6 18  1  0
  6 19  1  0
  7 20  1  0
  9 21  1  0
M  END
