
     RDKit          3D

 21 23  0  0  0  0  0  0  0  0999 V2000
   -2.4688   -0.2818    0.6161 C   0  0  0  0  0  0  0  0  0  0  0  0
   -1.5016    0.4615   -0.2496 C   0  0  0  0  0  0  0  0  0  0  0  0
   -0.6059   -0.3384   -1.1131 C   0  0  0  0  0  0  0  0  0  0  0  0
    0.1660   -1.5081   -0.6234 C   0  0  0  0  0  0  0  0  0  0  0  0
    0.1132   -1.9147    0.6859 O   0  0  0  0  0  0  0  0  0  0  0  0
    0.6853   -0.6778    0.5450 C   0  0  0  0  0  0  0  0  0  0  0  0
    2.1679   -0.5245    0.7288 C   0  0  0  0  0  0  0  0  0  0  0  0
   -0.0562    0.4879   -0.0103 C   0  0  0  0  0  0  0  0  0  0  0  0
    0.7609    1.7228   -0.2923 C   0  0  0  0  0  0  0  0  0  0  0  0
   -2.1077   -1.2504    0.9819 H   0  0  0  0  0  0  0  0  0  0  0  0
   -3.3632   -0.5185   -0.0319 H   0  0  0  0  0  0  0  0  0  0  0  0
   -2.8405    0.2888    1.4790 H   0  0  0  0  0  0  0  0  0  0  0  0
   -1.9340    1.3646   -0.7308 H   0  0  0  0  0  0  0  0  0  0  0  0
   -0.5152   -0.0906   -2.1629 H   0  0  0  0  0  0  0  0  0  0  0  0
    0.9410   -1.9080   -1.2892 H   0  0  0  0  0  0  0  0  0  0  0  0
    2.6895   -0.3584   -0.2184 H   0  0  0  0  0  0  0  0  0  0  0  0
    2.6149   -1.4122    1.2081 H   0  0  0  0  0  0  0  0  0  0  0  0
    2.3083    0.3219    1.4612 H   0  0  0  0  0  0  0  0  0  0  0  0
    0.5319    2.2063   -1.2432 H   0  0  0  0  0  0  0  0  0  0  0  0
    1.8458    1.4981   -0.2882 H   0  0  0  0  0  0  0  0  0  0  0  0
    0.5684    2.4313    0.5473 H   0  0  0  0  0  0  0  0  0  0  0  0
  1  2  1  0
  2  3  1  0
  3  4  1  0
  4  5  1  0
  5  6  1  0
  6  7  1  0
  6  8  1  0
  8  9  1  0
  8  2  1  0
  8  3  1  0
  6  4  1  0
  1 10  1  0
  1 11  1  0
  1 12  1  0
  2 13  1  0
  3 14  1  0
  4 15  1  0
  7 16  1  0
  7 17  1  0
  7 18  1  0
  9 19  1  0
  9 20  1  0
  9 21  1  0
M  END
