
     RDKit          3D

 23 23  0  0  0  0  0  0  0  0999 V2000
    2.8833   -0.4816   -0.7396 C   0  0  0  0  0  0  0  0  0  0  0  0
    1.8250    0.4986   -0.3385 C   0  0  0  0  0  0  0  0  0  0  0  0
    1.4868    0.4337    1.1682 C   0  0  0  0  0  0  0  0  0  0  0  0
    2.0594   -0.5528    1.9256 O   0  0  0  0  0  0  0  0  0  0  0  0
    0.4797    0.0537    0.0979 C   0  0  0  0  0  0  0  0  0  0  0  0
   -0.6481    1.0174   -0.0888 C   0  0  0  0  0  0  0  0  0  0  0  0
   -1.9825    0.5223    0.3673 C   0  0  0  0  0  0  0  0  0  0  0  0
   -2.4509   -0.7082   -0.3278 C   0  0  0  0  0  0  0  0  0  0  0  0
   -3.7067   -1.0670    0.1857 O   0  0  0  0  0  0  0  0  0  0  0  0
    2.8591   -0.7318   -1.8125 H   0  0  0  0  0  0  0  0  0  0  0  0
    3.8687   -0.0430   -0.4630 H   0  0  0  0  0  0  0  0  0  0  0  0
    2.7952   -1.4142   -0.1323 H   0  0  0  0  0  0  0  0  0  0  0  0
    1.9007    1.5142   -0.7711 H   0  0  0  0  0  0  0  0  0  0  0  0
    1.3860    1.4087    1.6821 H   0  0  0  0  0  0  0  0  0  0  0  0
    1.6252   -1.4377    1.8391 H   0  0  0  0  0  0  0  0  0  0  0  0
    0.2188   -1.0446    0.0690 H   0  0  0  0  0  0  0  0  0  0  0  0
   -0.7619    1.2644   -1.1856 H   0  0  0  0  0  0  0  0  0  0  0  0
   -0.4144    1.9475    0.4622 H   0  0  0  0  0  0  0  0  0  0  0  0
   -1.9845    0.3116    1.4644 H   0  0  0  0  0  0  0  0  0  0  0  0
   -2.7118    1.3403    0.2184 H   0  0  0  0  0  0  0  0  0  0  0  0
   -2.5821   -0.5170   -1.4263 H   0  0  0  0  0  0  0  0  0  0  0  0
   -1.7289   -1.5357   -0.2183 H   0  0  0  0  0  0  0  0  0  0  0  0
   -4.4163   -0.7789   -0.4421 H   0  0  0  0  0  0  0  0  0  0  0  0
  1  2  1  0
  2  3  1  0
  3  4  1  0
  3  5  1  0
  5  6  1  0
  6  7  1  0
  7  8  1  0
  8  9  1  0
  5  2  1  0
  1 10  1  0
  1 11  1  0
  1 12  1  0
  2 13  1  0
  3 14  1  0
  4 15  1  0
  5 16  1  0
  6 17  1  0
  6 18  1  0
  7 19  1  0
  7 20  1  0
  8 21  1  0
  8 22  1  0
  9 23  1  0
M  END
