
     RDKit          3D

 21 23  0  0  0  0  0  0  0  0999 V2000
   -3.0504    0.0893    0.1353 C   0  0  0  0  0  0  0  0  0  0  0  0
   -1.6145   -0.3178   -0.1883 C   0  0  0  0  0  0  0  0  0  0  0  0
   -0.6712    0.8499   -0.2592 C   0  0  0  0  0  0  0  0  0  0  0  0
    0.4885    0.7500   -0.9825 O   0  0  0  0  0  0  0  0  0  0  0  0
    1.4202    0.0595   -0.2446 C   0  0  0  0  0  0  0  0  0  0  0  0
    2.6975    0.7669    0.1179 C   0  0  0  0  0  0  0  0  0  0  0  0
    1.3132   -1.4120   -0.2496 C   0  0  0  0  0  0  0  0  0  0  0  0
    0.7446   -0.6398    0.8728 C   0  0  0  0  0  0  0  0  0  0  0  0
   -0.6383   -0.0988    0.8729 C   0  0  0  0  0  0  0  0  0  0  0  0
   -3.1037    0.6582    1.0942 H   0  0  0  0  0  0  0  0  0  0  0  0
   -3.3240    0.8350   -0.6620 H   0  0  0  0  0  0  0  0  0  0  0  0
   -3.7291   -0.7764    0.1511 H   0  0  0  0  0  0  0  0  0  0  0  0
   -1.4952   -1.1878   -0.8458 H   0  0  0  0  0  0  0  0  0  0  0  0
   -1.0405    1.8824   -0.1214 H   0  0  0  0  0  0  0  0  0  0  0  0
    2.4260    1.4999    0.9337 H   0  0  0  0  0  0  0  0  0  0  0  0
    3.1233    1.3677   -0.6965 H   0  0  0  0  0  0  0  0  0  0  0  0
    3.4157    0.0704    0.5847 H   0  0  0  0  0  0  0  0  0  0  0  0
    0.5685   -1.8855   -0.9230 H   0  0  0  0  0  0  0  0  0  0  0  0
    2.2009   -2.0206   -0.0775 H   0  0  0  0  0  0  0  0  0  0  0  0
    1.2600   -0.7735    1.8578 H   0  0  0  0  0  0  0  0  0  0  0  0
   -0.9916    0.2828    1.8628 H   0  0  0  0  0  0  0  0  0  0  0  0
  1  2  1  0
  2  3  1  0
  3  4  1  0
  4  5  1  0
  5  6  1  0
  5  7  1  0
  7  8  1  0
  8  9  1  0
  9  2  1  0
  9  3  1  0
  8  5  1  0
  1 10  1  0
  1 11  1  0
  1 12  1  0
  2 13  1  0
  3 14  1  0
  6 15  1  0
  6 16  1  0
  6 17  1  0
  7 18  1  0
  7 19  1  0
  8 20  1  0
  9 21  1  0
M  END
