
     RDKit          3D

 19 21  0  0  0  0  0  0  0  0999 V2000
    2.1396   -0.8098    0.3423 C   0  0  0  0  0  0  0  0  0  0  0  0
    1.2065    0.3493   -0.0506 C   0  0  0  0  0  0  0  0  0  0  0  0
   -0.0117    0.1753   -0.7570 C   0  0  0  0  0  0  0  0  0  0  0  0
   -0.4501    1.0302   -1.7326 O   0  0  0  0  0  0  0  0  0  0  0  0
   -0.9226   -0.9907   -0.3351 C   0  0  0  0  0  0  0  0  0  0  0  0
   -2.2302   -0.8948    0.3160 C   0  0  0  0  0  0  0  0  0  0  0  0
   -1.4660    0.2909    0.3834 C   0  0  0  0  0  0  0  0  0  0  0  0
   -0.0357    0.5527    0.6956 C   0  0  0  0  0  0  0  0  0  0  0  0
    0.0121    1.8747    1.2035 O   0  0  0  0  0  0  0  0  0  0  0  0
    2.7461   -1.0946   -0.5514 H   0  0  0  0  0  0  0  0  0  0  0  0
    1.6213   -1.6373    0.7999 H   0  0  0  0  0  0  0  0  0  0  0  0
    2.8894   -0.3394    1.0451 H   0  0  0  0  0  0  0  0  0  0  0  0
    1.8621    1.1758   -0.4533 H   0  0  0  0  0  0  0  0  0  0  0  0
    0.1448    0.9156   -2.5249 H   0  0  0  0  0  0  0  0  0  0  0  0
   -0.3289   -1.7345    0.2291 H   0  0  0  0  0  0  0  0  0  0  0  0
   -3.0899   -1.0503   -0.3879 H   0  0  0  0  0  0  0  0  0  0  0  0
   -2.4940   -1.3785    1.3040 H   0  0  0  0  0  0  0  0  0  0  0  0
   -1.8293    1.0548   -0.3918 H   0  0  0  0  0  0  0  0  0  0  0  0
    0.2366    2.5107    0.4903 H   0  0  0  0  0  0  0  0  0  0  0  0
  1  2  1  0
  2  3  1  0
  3  4  1  0
  3  5  1  0
  5  6  1  0
  6  7  1  0
  7  8  1  0
  8  9  1  0
  8  2  1  0
  8  3  1  0
  7  5  1  0
  1 10  1  0
  1 11  1  0
  1 12  1  0
  2 13  1  0
  4 14  1  0
  5 15  1  0
  6 16  1  0
  6 17  1  0
  7 18  1  0
  9 19  1  0
M  END
