
     RDKit          3D

 23 23  0  0  0  0  0  0  0  0999 V2000
    2.1333   -1.2877    0.3817 C   0  0  0  0  0  0  0  0  0  0  0  0
    0.9701   -0.4912   -0.2179 C   0  0  0  0  0  0  0  0  0  0  0  0
    1.3698    0.9682   -0.1548 C   0  0  0  0  0  0  0  0  0  0  0  0
    0.2840    1.7617    0.4868 C   0  0  0  0  0  0  0  0  0  0  0  0
   -1.0259    1.6992    0.2762 C   0  0  0  0  0  0  0  0  0  0  0  0
   -1.7039    0.7842   -0.6851 C   0  0  0  0  0  0  0  0  0  0  0  0
   -1.5367   -0.6163   -0.1596 C   0  0  0  0  0  0  0  0  0  0  0  0
   -1.7148   -1.5019   -1.1960 O   0  0  0  0  0  0  0  0  0  0  0  0
   -0.2442   -0.8094    0.5895 C   0  0  0  0  0  0  0  0  0  0  0  0
    3.0426   -0.6595    0.4846 H   0  0  0  0  0  0  0  0  0  0  0  0
    2.4181   -2.1389   -0.2711 H   0  0  0  0  0  0  0  0  0  0  0  0
    1.8830   -1.6314    1.4118 H   0  0  0  0  0  0  0  0  0  0  0  0
    0.8610   -0.8463   -1.2669 H   0  0  0  0  0  0  0  0  0  0  0  0
    2.3235    1.1268    0.3806 H   0  0  0  0  0  0  0  0  0  0  0  0
    1.4637    1.3282   -1.2114 H   0  0  0  0  0  0  0  0  0  0  0  0
    0.5769    2.5057    1.2389 H   0  0  0  0  0  0  0  0  0  0  0  0
   -1.6806    2.3539    0.8333 H   0  0  0  0  0  0  0  0  0  0  0  0
   -1.1207    0.8661   -1.6464 H   0  0  0  0  0  0  0  0  0  0  0  0
   -2.7657    1.0225   -0.8210 H   0  0  0  0  0  0  0  0  0  0  0  0
   -2.3608   -0.7782    0.5819 H   0  0  0  0  0  0  0  0  0  0  0  0
   -2.7023   -1.4914   -1.4116 H   0  0  0  0  0  0  0  0  0  0  0  0
   -0.1928   -1.9005    0.8469 H   0  0  0  0  0  0  0  0  0  0  0  0
   -0.2776   -0.2636    1.5297 H   0  0  0  0  0  0  0  0  0  0  0  0
  1  2  1  0
  2  3  1  0
  3  4  1  0
  4  5  2  0
  5  6  1  0
  6  7  1  0
  7  8  1  0
  7  9  1  0
  9  2  1  0
  1 10  1  0
  1 11  1  0
  1 12  1  0
  2 13  1  0
  3 14  1  0
  3 15  1  0
  4 16  1  0
  5 17  1  0
  6 18  1  0
  6 19  1  0
  7 20  1  0
  8 21  1  0
  9 22  1  0
  9 23  1  0
M  END
