
     RDKit          3D

 23 24  0  0  0  0  0  0  0  0999 V2000
    2.7350    1.0748    0.0614 C   0  0  0  0  0  0  0  0  0  0  0  0
    1.4336    0.5118   -0.4043 C   0  0  0  0  0  0  0  0  0  0  0  0
    1.1408   -0.8715    0.1644 C   0  0  0  0  0  0  0  0  0  0  0  0
    0.3488   -1.7203   -0.7214 C   0  0  0  0  0  0  0  0  0  0  0  0
   -0.8918   -1.2660   -0.7857 C   0  0  0  0  0  0  0  0  0  0  0  0
   -1.0396   -0.0550    0.0648 C   0  0  0  0  0  0  0  0  0  0  0  0
   -1.7521    1.0168   -0.7259 C   0  0  0  0  0  0  0  0  0  0  0  0
   -1.9065   -0.4628    1.2523 C   0  0  0  0  0  0  0  0  0  0  0  0
    0.3175    0.3299    0.5203 C   0  0  0  0  0  0  0  0  0  0  0  0
    2.8151    2.1720   -0.0507 H   0  0  0  0  0  0  0  0  0  0  0  0
    2.9734    0.7378    1.1003 H   0  0  0  0  0  0  0  0  0  0  0  0
    3.5424    0.6345   -0.5773 H   0  0  0  0  0  0  0  0  0  0  0  0
    1.2017    0.7017   -1.4723 H   0  0  0  0  0  0  0  0  0  0  0  0
    1.7944   -1.2828    0.9472 H   0  0  0  0  0  0  0  0  0  0  0  0
    0.7451   -2.6013   -1.2470 H   0  0  0  0  0  0  0  0  0  0  0  0
   -1.6772   -1.7271   -1.3819 H   0  0  0  0  0  0  0  0  0  0  0  0
   -2.4407    0.5097   -1.4388 H   0  0  0  0  0  0  0  0  0  0  0  0
   -2.3796    1.6740   -0.0868 H   0  0  0  0  0  0  0  0  0  0  0  0
   -1.0442    1.5933   -1.3569 H   0  0  0  0  0  0  0  0  0  0  0  0
   -2.4119    0.4462    1.6261 H   0  0  0  0  0  0  0  0  0  0  0  0
   -1.2280   -0.9295    1.9946 H   0  0  0  0  0  0  0  0  0  0  0  0
   -2.6575   -1.2191    0.9648 H   0  0  0  0  0  0  0  0  0  0  0  0
    0.3814    0.7327    1.5526 H   0  0  0  0  0  0  0  0  0  0  0  0
  1  2  1  0
  2  3  1  0
  3  4  1  0
  4  5  2  0
  5  6  1  0
  6  7  1  0
  6  8  1  0
  6  9  1  0
  9  2  1  0
  9  3  1  0
  1 10  1  0
  1 11  1  0
  1 12  1  0
  2 13  1  0
  3 14  1  0
  4 15  1  0
  5 16  1  0
  7 17  1  0
  7 18  1  0
  7 19  1  0
  8 20  1  0
  8 21  1  0
  8 22  1  0
  9 23  1  0
M  END
