
     RDKit          3D

 21 22  0  0  0  0  0  0  0  0999 V2000
    1.2545    1.4530    0.2463 C   0  0  0  0  0  0  0  0  0  0  0  0
    0.7690    0.2562   -0.5201 C   0  0  0  0  0  0  0  0  0  0  0  0
   -0.3930    0.6248   -1.4339 C   0  0  0  0  0  0  0  0  0  0  0  0
   -1.5222   -0.1308   -0.7918 C   0  0  0  0  0  0  0  0  0  0  0  0
   -1.7841    0.3143    0.6279 C   0  0  0  0  0  0  0  0  0  0  0  0
   -0.6125   -0.0551    1.3215 O   0  0  0  0  0  0  0  0  0  0  0  0
    0.1024   -0.7748    0.3931 C   0  0  0  0  0  0  0  0  0  0  0  0
    1.0344   -1.7787    0.9300 C   0  0  0  0  0  0  0  0  0  0  0  0
   -0.8476   -1.3425   -0.4921 O   0  0  0  0  0  0  0  0  0  0  0  0
    0.8971    2.3921   -0.2158 H   0  0  0  0  0  0  0  0  0  0  0  0
    0.9601    1.4480    1.3061 H   0  0  0  0  0  0  0  0  0  0  0  0
    2.3680    1.4951    0.2033 H   0  0  0  0  0  0  0  0  0  0  0  0
    1.5865   -0.2381   -1.0401 H   0  0  0  0  0  0  0  0  0  0  0  0
   -0.1793    0.1142   -2.4068 H   0  0  0  0  0  0  0  0  0  0  0  0
   -0.5504    1.6971   -1.5212 H   0  0  0  0  0  0  0  0  0  0  0  0
   -2.3997   -0.2710   -1.3993 H   0  0  0  0  0  0  0  0  0  0  0  0
   -2.0163    1.3710    0.7164 H   0  0  0  0  0  0  0  0  0  0  0  0
   -2.5771   -0.3664    1.0253 H   0  0  0  0  0  0  0  0  0  0  0  0
    2.0798   -1.4249    0.7886 H   0  0  0  0  0  0  0  0  0  0  0  0
    0.8698   -2.0782    1.9711 H   0  0  0  0  0  0  0  0  0  0  0  0
    0.9605   -2.7055    0.2916 H   0  0  0  0  0  0  0  0  0  0  0  0
  1  2  1  0
  2  3  1  0
  3  4  1  0
  4  5  1  0
  5  6  1  0
  6  7  1  0
  7  8  1  0
  7  9  1  0
  7  2  1  0
  9  4  1  0
  1 10  1  0
  1 11  1  0
  1 12  1  0
  2 13  1  0
  3 14  1  0
  3 15  1  0
  4 16  1  0
  5 17  1  0
  5 18  1  0
  8 19  1  0
  8 20  1  0
  8 21  1  0
M  END
