
     RDKit          3D

 23 24  0  0  0  0  0  0  0  0999 V2000
    2.3201    0.6636    0.1401 C   0  0  0  0  0  0  0  0  0  0  0  0
    1.7590   -0.7189    0.1842 C   0  0  0  0  0  0  0  0  0  0  0  0
    0.5083   -0.7846    1.0719 C   0  0  0  0  0  0  0  0  0  0  0  0
   -0.2621   -0.4156   -0.1436 C   0  0  0  0  0  0  0  0  0  0  0  0
    0.8039   -0.9170   -1.0040 C   0  0  0  0  0  0  0  0  0  0  0  0
   -1.6506   -0.8608   -0.2874 C   0  0  0  0  0  0  0  0  0  0  0  0
   -2.0570    0.5150    0.2683 C   0  0  0  0  0  0  0  0  0  0  0  0
   -3.1507    1.0779   -0.3221 O   0  0  0  0  0  0  0  0  0  0  0  0
   -0.7009    1.0113   -0.2572 C   0  0  0  0  0  0  0  0  0  0  0  0
    2.1850    1.1422    1.1453 H   0  0  0  0  0  0  0  0  0  0  0  0
    1.8306    1.3346   -0.5803 H   0  0  0  0  0  0  0  0  0  0  0  0
    3.3954    0.6368   -0.0769 H   0  0  0  0  0  0  0  0  0  0  0  0
    2.4312   -1.5470    0.3792 H   0  0  0  0  0  0  0  0  0  0  0  0
    0.5763    0.0113    1.8456 H   0  0  0  0  0  0  0  0  0  0  0  0
    0.3172   -1.7850    1.5000 H   0  0  0  0  0  0  0  0  0  0  0  0
    1.0893   -0.3686   -1.9073 H   0  0  0  0  0  0  0  0  0  0  0  0
    0.6814   -2.0196   -1.2176 H   0  0  0  0  0  0  0  0  0  0  0  0
   -2.0010   -0.9355   -1.3430 H   0  0  0  0  0  0  0  0  0  0  0  0
   -1.9230   -1.7060    0.3442 H   0  0  0  0  0  0  0  0  0  0  0  0
   -2.0518    0.4369    1.3753 H   0  0  0  0  0  0  0  0  0  0  0  0
   -3.0766    2.0740   -0.3460 H   0  0  0  0  0  0  0  0  0  0  0  0
   -0.7406    1.4448   -1.2636 H   0  0  0  0  0  0  0  0  0  0  0  0
   -0.2833    1.7103    0.4950 H   0  0  0  0  0  0  0  0  0  0  0  0
  1  2  1  0
  2  3  1  0
  3  4  1  0
  4  5  1  0
  4  6  1  0
  6  7  1  0
  7  8  1  0
  7  9  1  0
  5  2  1  0
  9  4  1  0
  1 10  1  0
  1 11  1  0
  1 12  1  0
  2 13  1  0
  3 14  1  0
  3 15  1  0
  5 16  1  0
  5 17  1  0
  6 18  1  0
  6 19  1  0
  7 20  1  0
  8 21  1  0
  9 22  1  0
  9 23  1  0
M  END
