
     RDKit          3D

 18 19  0  0  0  0  0  0  0  0999 V2000
    2.0133    0.6820    0.0777 C   0  0  0  0  0  0  0  0  0  0  0  0
    1.0767   -0.4396   -0.2280 C   0  0  0  0  0  0  0  0  0  0  0  0
   -0.0563   -0.6103    0.7704 C   0  0  0  0  0  0  0  0  0  0  0  0
   -0.7551   -1.3169   -0.3554 C   0  0  0  0  0  0  0  0  0  0  0  0
   -0.1638   -0.0880   -1.0050 C   0  0  0  0  0  0  0  0  0  0  0  0
   -0.6143    0.6583    0.2084 C   0  0  0  0  0  0  0  0  0  0  0  0
   -2.0880    0.7438    0.3997 C   0  0  0  0  0  0  0  0  0  0  0  0
   -2.8366    1.2641   -0.4082 O   0  0  0  0  0  0  0  0  0  0  0  0
    1.7702    1.5983   -0.5022 H   0  0  0  0  0  0  0  0  0  0  0  0
    1.8442    0.9658    1.1539 H   0  0  0  0  0  0  0  0  0  0  0  0
    3.0631    0.3486   -0.0756 H   0  0  0  0  0  0  0  0  0  0  0  0
    1.5285   -1.3852   -0.5678 H   0  0  0  0  0  0  0  0  0  0  0  0
    0.0319   -0.8938    1.7193 H   0  0  0  0  0  0  0  0  0  0  0  0
   -1.8367   -1.3827   -0.3145 H   0  0  0  0  0  0  0  0  0  0  0  0
   -0.1973   -2.2244   -0.6645 H   0  0  0  0  0  0  0  0  0  0  0  0
   -0.2282    0.1743   -1.9652 H   0  0  0  0  0  0  0  0  0  0  0  0
   -0.0564    1.5891    0.4482 H   0  0  0  0  0  0  0  0  0  0  0  0
   -2.4953    0.3162    1.3088 H   0  0  0  0  0  0  0  0  0  0  0  0
  1  2  1  0
  2  3  1  0
  3  4  1  0
  4  5  1  0
  5  6  1  0
  6  7  1  0
  7  8  2  0
  5  2  1  0
  6  3  1  0
  1  9  1  0
  1 10  1  0
  1 11  1  0
  2 12  1  0
  3 13  1  0
  4 14  1  0
  4 15  1  0
  5 16  1  0
  6 17  1  0
  7 18  1  0
M  END
