
     RDKit          3D

 21 22  0  0  0  0  0  0  0  0999 V2000
    2.8284   -0.5171    0.1919 C   0  0  0  0  0  0  0  0  0  0  0  0
    1.4200   -0.2686   -0.2870 C   0  0  0  0  0  0  0  0  0  0  0  0
    0.9730    1.1206   -0.0569 C   0  0  0  0  0  0  0  0  0  0  0  0
   -0.3212    1.0967    0.2044 C   0  0  0  0  0  0  0  0  0  0  0  0
   -1.7545    1.3067    0.5176 C   0  0  0  0  0  0  0  0  0  0  0  0
   -1.7076   -0.0778    1.1587 C   0  0  0  0  0  0  0  0  0  0  0  0
   -0.6822   -0.3788    0.1067 C   0  0  0  0  0  0  0  0  0  0  0  0
   -1.2259   -0.7889   -1.2181 C   0  0  0  0  0  0  0  0  0  0  0  0
    0.4907   -1.0034    0.4956 O   0  0  0  0  0  0  0  0  0  0  0  0
    3.5253   -0.1382   -0.5558 H   0  0  0  0  0  0  0  0  0  0  0  0
    3.0009   -0.1592    1.2208 H   0  0  0  0  0  0  0  0  0  0  0  0
    2.9609   -1.6292    0.2313 H   0  0  0  0  0  0  0  0  0  0  0  0
    1.3597   -0.5310   -1.3388 H   0  0  0  0  0  0  0  0  0  0  0  0
    1.6316    2.0092   -0.1021 H   0  0  0  0  0  0  0  0  0  0  0  0
   -1.9783    2.1260    1.2161 H   0  0  0  0  0  0  0  0  0  0  0  0
   -2.4028    1.2870   -0.3607 H   0  0  0  0  0  0  0  0  0  0  0  0
   -2.6351   -0.6608    1.0664 H   0  0  0  0  0  0  0  0  0  0  0  0
   -1.2984   -0.0179    2.1744 H   0  0  0  0  0  0  0  0  0  0  0  0
   -1.6550    0.0429   -1.8111 H   0  0  0  0  0  0  0  0  0  0  0  0
   -0.4721   -1.2881   -1.8206 H   0  0  0  0  0  0  0  0  0  0  0  0
   -2.0575   -1.5301   -1.0327 H   0  0  0  0  0  0  0  0  0  0  0  0
  1  2  1  0
  2  3  1  0
  3  4  2  0
  4  5  1  0
  5  6  1  0
  6  7  1  0
  7  8  1  0
  7  9  1  0
  9  2  1  0
  7  4  1  0
  1 10  1  0
  1 11  1  0
  1 12  1  0
  2 13  1  0
  3 14  1  0
  5 15  1  0
  5 16  1  0
  6 17  1  0
  6 18  1  0
  8 19  1  0
  8 20  1  0
  8 21  1  0
M  END
