
     RDKit          3D

 22 22  0  0  0  0  0  0  0  0999 V2000
    1.9977    0.1215    0.3450 C   0  0  0  0  0  0  0  0  0  0  0  0
    0.8814   -0.1758   -0.6109 C   0  0  0  0  0  0  0  0  0  0  0  0
    0.1766    1.0883   -1.0062 C   0  0  0  0  0  0  0  0  0  0  0  0
   -0.7605    1.5509    0.0972 C   0  0  0  0  0  0  0  0  0  0  0  0
   -1.7846    0.4461    0.2798 C   0  0  0  0  0  0  0  0  0  0  0  0
   -1.0300   -0.7211    0.9257 C   0  0  0  0  0  0  0  0  0  0  0  0
   -0.0668   -1.2289   -0.1233 C   0  0  0  0  0  0  0  0  0  0  0  0
    0.6029   -2.3483    0.2954 O   0  0  0  0  0  0  0  0  0  0  0  0
    2.2815   -0.7325    0.9852 H   0  0  0  0  0  0  0  0  0  0  0  0
    2.8971    0.4467   -0.2336 H   0  0  0  0  0  0  0  0  0  0  0  0
    1.7014    0.9476    1.0308 H   0  0  0  0  0  0  0  0  0  0  0  0
    1.3566   -0.5776   -1.5460 H   0  0  0  0  0  0  0  0  0  0  0  0
    0.9346    1.8754   -1.1256 H   0  0  0  0  0  0  0  0  0  0  0  0
   -0.4567    0.9514   -1.9160 H   0  0  0  0  0  0  0  0  0  0  0  0
   -1.1947    2.4988   -0.2266 H   0  0  0  0  0  0  0  0  0  0  0  0
   -0.2167    1.6422    1.0452 H   0  0  0  0  0  0  0  0  0  0  0  0
   -2.6491    0.7516    0.8642 H   0  0  0  0  0  0  0  0  0  0  0  0
   -2.0412    0.0916   -0.7540 H   0  0  0  0  0  0  0  0  0  0  0  0
   -1.7803   -1.5374    1.0795 H   0  0  0  0  0  0  0  0  0  0  0  0
   -0.5269   -0.4181    1.8576 H   0  0  0  0  0  0  0  0  0  0  0  0
   -0.7035   -1.5198   -1.0055 H   0  0  0  0  0  0  0  0  0  0  0  0
    0.3812   -3.1523   -0.2576 H   0  0  0  0  0  0  0  0  0  0  0  0
  1  2  1  0
  2  3  1  0
  3  4  1  0
  4  5  1  0
  5  6  1  0
  6  7  1  0
  7  8  1  0
  7  2  1  0
  1  9  1  0
  1 10  1  0
  1 11  1  0
  2 12  1  0
  3 13  1  0
  3 14  1  0
  4 15  1  0
  4 16  1  0
  5 17  1  0
  5 18  1  0
  6 19  1  0
  6 20  1  0
  7 21  1  0
  8 22  1  0
M  END
