
     RDKit          3D

 21 22  0  0  0  0  0  0  0  0999 V2000
   -1.1890   -1.2726    1.2720 C   0  0  0  0  0  0  0  0  0  0  0  0
   -1.0813   -0.5364   -0.0347 C   0  0  0  0  0  0  0  0  0  0  0  0
   -0.3321    0.7260   -0.0752 C   0  0  0  0  0  0  0  0  0  0  0  0
   -0.8510    1.8357   -0.9382 C   0  0  0  0  0  0  0  0  0  0  0  0
    1.0421    0.8935    0.4607 C   0  0  0  0  0  0  0  0  0  0  0  0
    1.4428   -0.5302    0.0628 C   0  0  0  0  0  0  0  0  0  0  0  0
    1.3587   -1.3392    1.1943 O   0  0  0  0  0  0  0  0  0  0  0  0
    0.1938   -0.5490   -0.7848 C   0  0  0  0  0  0  0  0  0  0  0  0
    0.2637   -0.4211   -2.1468 O   0  0  0  0  0  0  0  0  0  0  0  0
   -2.2746   -1.3992    1.5517 H   0  0  0  0  0  0  0  0  0  0  0  0
   -0.7463   -0.7112    2.1271 H   0  0  0  0  0  0  0  0  0  0  0  0
   -0.7820   -2.2993    1.2287 H   0  0  0  0  0  0  0  0  0  0  0  0
   -1.9972   -0.5802   -0.6575 H   0  0  0  0  0  0  0  0  0  0  0  0
   -0.5873    1.6138   -1.9826 H   0  0  0  0  0  0  0  0  0  0  0  0
   -1.9780    1.8591   -0.9060 H   0  0  0  0  0  0  0  0  0  0  0  0
   -0.4760    2.7885   -0.5595 H   0  0  0  0  0  0  0  0  0  0  0  0
    1.1458    1.1030    1.5399 H   0  0  0  0  0  0  0  0  0  0  0  0
    1.6435    1.5924   -0.1932 H   0  0  0  0  0  0  0  0  0  0  0  0
    2.3944   -0.6123   -0.4677 H   0  0  0  0  0  0  0  0  0  0  0  0
    1.9706   -1.0910    1.9072 H   0  0  0  0  0  0  0  0  0  0  0  0
    0.8395   -1.0704   -2.5982 H   0  0  0  0  0  0  0  0  0  0  0  0
  1  2  1  0
  2  3  1  0
  3  4  1  0
  3  5  1  0
  5  6  1  0
  6  7  1  0
  6  8  1  0
  8  9  1  0
  8  2  1  0
  8  3  1  0
  1 10  1  0
  1 11  1  0
  1 12  1  0
  2 13  1  0
  4 14  1  0
  4 15  1  0
  4 16  1  0
  5 17  1  0
  5 18  1  0
  6 19  1  0
  7 20  1  0
  9 21  1  0
M  END
