
     RDKit          3D

 21 22  0  0  0  0  0  0  0  0999 V2000
    1.8696   -0.3529    1.2140 C   0  0  0  0  0  0  0  0  0  0  0  0
    1.4602    0.1242   -0.1473 C   0  0  0  0  0  0  0  0  0  0  0  0
    0.3968   -0.7470   -0.8306 C   0  0  0  0  0  0  0  0  0  0  0  0
   -0.1006    0.5565   -1.4306 C   0  0  0  0  0  0  0  0  0  0  0  0
    0.3940    1.2085   -0.1525 C   0  0  0  0  0  0  0  0  0  0  0  0
   -0.4212    1.0018    0.9222 O   0  0  0  0  0  0  0  0  0  0  0  0
   -1.7115    0.6350    0.6265 C   0  0  0  0  0  0  0  0  0  0  0  0
   -1.7190   -0.7721    0.1123 C   0  0  0  0  0  0  0  0  0  0  0  0
   -0.4625   -1.3100    0.0598 O   0  0  0  0  0  0  0  0  0  0  0  0
    2.6095   -1.1645    1.0636 H   0  0  0  0  0  0  0  0  0  0  0  0
    2.4103    0.4822    1.7080 H   0  0  0  0  0  0  0  0  0  0  0  0
    1.0172   -0.6901    1.8282 H   0  0  0  0  0  0  0  0  0  0  0  0
    2.3047    0.3045   -0.8053 H   0  0  0  0  0  0  0  0  0  0  0  0
    0.8568   -1.4496   -1.5253 H   0  0  0  0  0  0  0  0  0  0  0  0
    0.5951    0.8575   -2.2610 H   0  0  0  0  0  0  0  0  0  0  0  0
   -1.1585    0.6261   -1.6399 H   0  0  0  0  0  0  0  0  0  0  0  0
    0.7724    2.2316   -0.2562 H   0  0  0  0  0  0  0  0  0  0  0  0
   -2.2153    1.3593   -0.0567 H   0  0  0  0  0  0  0  0  0  0  0  0
   -2.2951    0.7140    1.5913 H   0  0  0  0  0  0  0  0  0  0  0  0
   -2.3108   -1.4096    0.8345 H   0  0  0  0  0  0  0  0  0  0  0  0
   -2.2922   -0.8771   -0.8550 H   0  0  0  0  0  0  0  0  0  0  0  0
  1  2  1  0
  2  3  1  0
  3  4  1  0
  4  5  1  0
  5  6  1  0
  6  7  1  0
  7  8  1  0
  8  9  1  0
  5  2  1  0
  9  3  1  0
  1 10  1  0
  1 11  1  0
  1 12  1  0
  2 13  1  0
  3 14  1  0
  4 15  1  0
  4 16  1  0
  5 17  1  0
  7 18  1  0
  7 19  1  0
  8 20  1  0
  8 21  1  0
M  END
