
     RDKit          3D

 20 21  0  0  0  0  0  0  0  0999 V2000
   -2.7553   -0.1356   -0.0464 C   0  0  0  0  0  0  0  0  0  0  0  0
   -1.4660    0.1416   -0.7574 C   0  0  0  0  0  0  0  0  0  0  0  0
   -0.3483   -0.8567   -0.4217 C   0  0  0  0  0  0  0  0  0  0  0  0
    0.5497    0.3032   -0.2422 C   0  0  0  0  0  0  0  0  0  0  0  0
   -0.6395    1.1654    0.0317 C   0  0  0  0  0  0  0  0  0  0  0  0
    1.4229    0.7435   -1.1903 O   0  0  0  0  0  0  0  0  0  0  0  0
    1.8184    0.4391    0.2127 C   0  0  0  0  0  0  0  0  0  0  0  0
    2.8445   -0.6642    0.1733 C   0  0  0  0  0  0  0  0  0  0  0  0
   -3.3507   -0.9175   -0.5343 H   0  0  0  0  0  0  0  0  0  0  0  0
   -2.5084   -0.4680    0.9847 H   0  0  0  0  0  0  0  0  0  0  0  0
   -3.3268    0.8193    0.0834 H   0  0  0  0  0  0  0  0  0  0  0  0
   -1.5261    0.3489   -1.8360 H   0  0  0  0  0  0  0  0  0  0  0  0
   -0.6227   -1.3460    0.5546 H   0  0  0  0  0  0  0  0  0  0  0  0
   -0.1315   -1.5861   -1.1955 H   0  0  0  0  0  0  0  0  0  0  0  0
   -0.9567    1.2117    1.1044 H   0  0  0  0  0  0  0  0  0  0  0  0
   -0.6212    2.1548   -0.4486 H   0  0  0  0  0  0  0  0  0  0  0  0
    2.1914    1.3513    0.7451 H   0  0  0  0  0  0  0  0  0  0  0  0
    3.7936   -0.1873   -0.2111 H   0  0  0  0  0  0  0  0  0  0  0  0
    3.0528   -1.0888    1.1545 H   0  0  0  0  0  0  0  0  0  0  0  0
    2.5799   -1.4284   -0.6025 H   0  0  0  0  0  0  0  0  0  0  0  0
  1  2  1  0
  2  3  1  0
  3  4  1  0
  4  5  1  0
  4  6  1  0
  6  7  1  0
  7  8  1  0
  5  2  1  0
  7  4  1  0
  1  9  1  0
  1 10  1  0
  1 11  1  0
  2 12  1  0
  3 13  1  0
  3 14  1  0
  5 15  1  0
  5 16  1  0
  7 17  1  0
  8 18  1  0
  8 19  1  0
  8 20  1  0
M  END
