
     RDKit          3D

 23 24  0  0  0  0  0  0  0  0999 V2000
   -0.2803    2.2720    0.3405 C   0  0  0  0  0  0  0  0  0  0  0  0
    0.4871    1.0167    0.1681 C   0  0  0  0  0  0  0  0  0  0  0  0
    0.0735    0.1913   -1.0063 C   0  0  0  0  0  0  0  0  0  0  0  0
   -1.1850   -0.0906   -0.2093 C   0  0  0  0  0  0  0  0  0  0  0  0
   -1.9865   -1.2562   -0.6028 C   0  0  0  0  0  0  0  0  0  0  0  0
   -0.1003   -0.2326    0.7873 C   0  0  0  0  0  0  0  0  0  0  0  0
   -0.1471   -0.5220    2.0073 O   0  0  0  0  0  0  0  0  0  0  0  0
    0.6744   -0.9750   -0.2887 C   0  0  0  0  0  0  0  0  0  0  0  0
    2.1641   -0.9654   -0.1208 C   0  0  0  0  0  0  0  0  0  0  0  0
   -1.0485    2.2564    1.1278 H   0  0  0  0  0  0  0  0  0  0  0  0
   -0.7152    2.5465   -0.6611 H   0  0  0  0  0  0  0  0  0  0  0  0
    0.4102    3.1135    0.5846 H   0  0  0  0  0  0  0  0  0  0  0  0
    1.5472    1.1029    0.3920 H   0  0  0  0  0  0  0  0  0  0  0  0
    0.1189    0.4179   -1.9785 H   0  0  0  0  0  0  0  0  0  0  0  0
   -1.7982    0.8270   -0.1362 H   0  0  0  0  0  0  0  0  0  0  0  0
   -1.6925   -2.2283   -0.1981 H   0  0  0  0  0  0  0  0  0  0  0  0
   -3.0531   -1.0954   -0.2760 H   0  0  0  0  0  0  0  0  0  0  0  0
   -2.0486   -1.2806   -1.7299 H   0  0  0  0  0  0  0  0  0  0  0  0
    0.5385   -0.1161    2.5733 H   0  0  0  0  0  0  0  0  0  0  0  0
    0.3118   -1.9703   -0.5424 H   0  0  0  0  0  0  0  0  0  0  0  0
    2.4469   -0.8467    0.9605 H   0  0  0  0  0  0  0  0  0  0  0  0
    2.6740   -0.2153   -0.7641 H   0  0  0  0  0  0  0  0  0  0  0  0
    2.6087   -1.9497   -0.4271 H   0  0  0  0  0  0  0  0  0  0  0  0
  1  2  1  0
  2  3  1  0
  3  4  1  0
  4  5  1  0
  4  6  1  0
  6  7  1  0
  6  8  1  0
  8  9  1  0
  6  2  1  0
  8  3  1  0
  1 10  1  0
  1 11  1  0
  1 12  1  0
  2 13  1  0
  3 14  1  0
  4 15  1  0
  5 16  1  0
  5 17  1  0
  5 18  1  0
  7 19  1  0
  8 20  1  0
  9 21  1  0
  9 22  1  0
  9 23  1  0
M  END
