
     RDKit          3D

 19 20  0  0  0  0  0  0  0  0999 V2000
    2.1059   -0.2951   -0.3241 C   0  0  0  0  0  0  0  0  0  0  0  0
    0.8182   -0.7319    0.3140 C   0  0  0  0  0  0  0  0  0  0  0  0
   -0.1011    0.2200    0.9570 C   0  0  0  0  0  0  0  0  0  0  0  0
   -0.7782   -0.1024    2.1181 O   0  0  0  0  0  0  0  0  0  0  0  0
   -0.3687    1.5788    0.4036 C   0  0  0  0  0  0  0  0  0  0  0  0
   -0.5189    0.9824   -0.9819 C   0  0  0  0  0  0  0  0  0  0  0  0
   -0.4589   -0.3772   -0.3506 C   0  0  0  0  0  0  0  0  0  0  0  0
   -1.5437   -1.3438   -0.5089 C   0  0  0  0  0  0  0  0  0  0  0  0
   -2.7130   -1.1380   -0.2229 O   0  0  0  0  0  0  0  0  0  0  0  0
    2.6210    0.4317    0.3355 H   0  0  0  0  0  0  0  0  0  0  0  0
    2.8148   -1.1642   -0.4095 H   0  0  0  0  0  0  0  0  0  0  0  0
    1.9713    0.0703   -1.3602 H   0  0  0  0  0  0  0  0  0  0  0  0
    0.8432   -1.7476    0.7710 H   0  0  0  0  0  0  0  0  0  0  0  0
   -1.3128   -0.9307    2.0532 H   0  0  0  0  0  0  0  0  0  0  0  0
    0.4046    2.3431    0.5191 H   0  0  0  0  0  0  0  0  0  0  0  0
   -1.3653    2.0107    0.7046 H   0  0  0  0  0  0  0  0  0  0  0  0
   -1.4490    1.2413   -1.5090 H   0  0  0  0  0  0  0  0  0  0  0  0
    0.3474    1.2814   -1.5987 H   0  0  0  0  0  0  0  0  0  0  0  0
   -1.3168   -2.3286   -0.9101 H   0  0  0  0  0  0  0  0  0  0  0  0
  1  2  1  0
  2  3  1  0
  3  4  1  0
  3  5  1  0
  5  6  1  0
  6  7  1  0
  7  8  1  0
  8  9  2  0
  7  2  1  0
  7  3  1  0
  1 10  1  0
  1 11  1  0
  1 12  1  0
  2 13  1  0
  4 14  1  0
  5 15  1  0
  5 16  1  0
  6 17  1  0
  6 18  1  0
  8 19  1  0
M  END
