
     RDKit          3D

 19 21  0  0  0  0  0  0  0  0999 V2000
   -2.6229    0.5805    0.0522 C   0  0  0  0  0  0  0  0  0  0  0  0
   -1.2756    0.3318   -0.5372 C   0  0  0  0  0  0  0  0  0  0  0  0
   -0.6747   -1.0359   -0.1779 C   0  0  0  0  0  0  0  0  0  0  0  0
    0.4540   -0.1718    0.1003 C   0  0  0  0  0  0  0  0  0  0  0  0
   -0.2823    0.9479    0.2633 O   0  0  0  0  0  0  0  0  0  0  0  0
    1.6541   -0.1592   -0.7555 C   0  0  0  0  0  0  0  0  0  0  0  0
    2.3275    0.6208    0.3318 C   0  0  0  0  0  0  0  0  0  0  0  0
    1.5570   -0.5188    0.9649 C   0  0  0  0  0  0  0  0  0  0  0  0
    2.0711   -1.3008   -0.0803 O   0  0  0  0  0  0  0  0  0  0  0  0
   -3.3563   -0.1039   -0.4245 H   0  0  0  0  0  0  0  0  0  0  0  0
   -2.8902    1.6273   -0.1033 H   0  0  0  0  0  0  0  0  0  0  0  0
   -2.5568    0.4130    1.1460 H   0  0  0  0  0  0  0  0  0  0  0  0
   -1.1329    0.5879   -1.5989 H   0  0  0  0  0  0  0  0  0  0  0  0
   -0.6661   -1.7504   -0.9950 H   0  0  0  0  0  0  0  0  0  0  0  0
   -1.1839   -1.4503    0.7178 H   0  0  0  0  0  0  0  0  0  0  0  0
    1.7297    0.0046   -1.7502 H   0  0  0  0  0  0  0  0  0  0  0  0
    1.8288    1.5763    0.5113 H   0  0  0  0  0  0  0  0  0  0  0  0
    3.4123    0.5709    0.3918 H   0  0  0  0  0  0  0  0  0  0  0  0
    1.6072   -0.7700    1.9432 H   0  0  0  0  0  0  0  0  0  0  0  0
  1  2  1  0
  2  3  1  0
  3  4  1  0
  4  5  1  0
  4  6  1  0
  6  7  1  0
  7  8  1  0
  8  9  1  0
  5  2  1  0
  9  6  1  0
  8  4  1  0
  1 10  1  0
  1 11  1  0
  1 12  1  0
  2 13  1  0
  3 14  1  0
  3 15  1  0
  6 16  1  0
  7 17  1  0
  7 18  1  0
  8 19  1  0
M  END
