
     RDKit          3D

 20 21  0  0  0  0  0  0  0  0999 V2000
    1.6829   -0.9483    0.0804 C   0  0  0  0  0  0  0  0  0  0  0  0
    1.0534    0.2356   -0.6438 C   0  0  0  0  0  0  0  0  0  0  0  0
    1.0634    1.3577    0.3003 C   0  0  0  0  0  0  0  0  0  0  0  0
   -0.1472    1.7029    0.6495 C   0  0  0  0  0  0  0  0  0  0  0  0
   -1.1161    0.8399   -0.0303 C   0  0  0  0  0  0  0  0  0  0  0  0
   -1.5407   -0.3639    0.7736 C   0  0  0  0  0  0  0  0  0  0  0  0
   -1.0206   -1.2150   -0.3865 C   0  0  0  0  0  0  0  0  0  0  0  0
   -0.3593   -0.0025   -1.0089 C   0  0  0  0  0  0  0  0  0  0  0  0
    1.2461   -1.0080    1.0796 H   0  0  0  0  0  0  0  0  0  0  0  0
    2.7651   -0.6545    0.2197 H   0  0  0  0  0  0  0  0  0  0  0  0
    1.6281   -1.8783   -0.4860 H   0  0  0  0  0  0  0  0  0  0  0  0
    1.7016    0.4912   -1.5361 H   0  0  0  0  0  0  0  0  0  0  0  0
    1.9629    1.8643    0.6832 H   0  0  0  0  0  0  0  0  0  0  0  0
   -0.4411    2.5167    1.3485 H   0  0  0  0  0  0  0  0  0  0  0  0
   -1.9434    1.4181   -0.4851 H   0  0  0  0  0  0  0  0  0  0  0  0
   -2.6530   -0.3625    0.8658 H   0  0  0  0  0  0  0  0  0  0  0  0
   -1.0036   -0.4956    1.7262 H   0  0  0  0  0  0  0  0  0  0  0  0
   -1.8786   -1.5670   -0.9908 H   0  0  0  0  0  0  0  0  0  0  0  0
   -0.3643   -2.0310   -0.0845 H   0  0  0  0  0  0  0  0  0  0  0  0
   -0.6355    0.1002   -2.0748 H   0  0  0  0  0  0  0  0  0  0  0  0
  1  2  1  0
  2  3  1  0
  3  4  2  0
  4  5  1  0
  5  6  1  0
  6  7  1  0
  7  8  1  0
  8  2  1  0
  8  5  1  0
  1  9  1  0
  1 10  1  0
  1 11  1  0
  2 12  1  0
  3 13  1  0
  4 14  1  0
  5 15  1  0
  6 16  1  0
  6 17  1  0
  7 18  1  0
  7 19  1  0
  8 20  1  0
M  END
