
     RDKit          3D

 13 13  0  0  0  0  0  0  0  0999 V2000
    1.2491   -0.7248    0.2349 C   0  0  0  0  0  0  0  0  0  0  0  0
    0.1238    0.0136   -0.4011 C   0  0  0  0  0  0  0  0  0  0  0  0
   -1.2609   -0.4114   -0.0865 C   0  0  0  0  0  0  0  0  0  0  0  0
   -1.6209    0.9362    0.1120 O   0  0  0  0  0  0  0  0  0  0  0  0
   -0.3005    1.2102    0.3937 C   0  0  0  0  0  0  0  0  0  0  0  0
    2.1068   -0.0127    0.3561 H   0  0  0  0  0  0  0  0  0  0  0  0
    1.0161   -1.1868    1.2013 H   0  0  0  0  0  0  0  0  0  0  0  0
    1.6377   -1.5205   -0.4502 H   0  0  0  0  0  0  0  0  0  0  0  0
    0.2966    0.1666   -1.4797 H   0  0  0  0  0  0  0  0  0  0  0  0
   -1.4386   -0.9816    0.8266 H   0  0  0  0  0  0  0  0  0  0  0  0
   -1.8697   -0.7877   -0.9527 H   0  0  0  0  0  0  0  0  0  0  0  0
    0.0767    2.1904    0.0109 H   0  0  0  0  0  0  0  0  0  0  0  0
   -0.0163    1.1084    1.4571 H   0  0  0  0  0  0  0  0  0  0  0  0
  1  2  1  0
  2  3  1  0
  3  4  1  0
  4  5  1  0
  5  2  1  0
  1  6  1  0
  1  7  1  0
  1  8  1  0
  2  9  1  0
  3 10  1  0
  3 11  1  0
  5 12  1  0
  5 13  1  0
M  END
