
     RDKit          3D

 23 24  0  0  0  0  0  0  0  0999 V2000
   -1.5800    1.7297   -0.0532 C   0  0  0  0  0  0  0  0  0  0  0  0
   -0.4442    0.9752    0.5761 C   0  0  0  0  0  0  0  0  0  0  0  0
   -0.5167   -0.5155    0.4899 C   0  0  0  0  0  0  0  0  0  0  0  0
   -1.8898   -1.1046    0.3119 C   0  0  0  0  0  0  0  0  0  0  0  0
    0.3091   -0.4603   -0.7594 C   0  0  0  0  0  0  0  0  0  0  0  0
    1.5006   -1.3779   -0.7098 C   0  0  0  0  0  0  0  0  0  0  0  0
    2.4458   -0.6361    0.1834 C   0  0  0  0  0  0  0  0  0  0  0  0
    2.0434    0.6015    0.3750 C   0  0  0  0  0  0  0  0  0  0  0  0
    0.7894    0.9060   -0.3356 C   0  0  0  0  0  0  0  0  0  0  0  0
   -2.5108    1.5558    0.4988 H   0  0  0  0  0  0  0  0  0  0  0  0
   -1.3479    2.8113    0.0283 H   0  0  0  0  0  0  0  0  0  0  0  0
   -1.7206    1.5028   -1.1215 H   0  0  0  0  0  0  0  0  0  0  0  0
   -0.1633    1.4163    1.5392 H   0  0  0  0  0  0  0  0  0  0  0  0
    0.0058   -1.0246    1.3292 H   0  0  0  0  0  0  0  0  0  0  0  0
   -2.4826   -0.9674    1.2306 H   0  0  0  0  0  0  0  0  0  0  0  0
   -2.4022   -0.7342   -0.5877 H   0  0  0  0  0  0  0  0  0  0  0  0
   -1.7528   -2.2103    0.1894 H   0  0  0  0  0  0  0  0  0  0  0  0
   -0.2224   -0.4759   -1.7140 H   0  0  0  0  0  0  0  0  0  0  0  0
    1.2351   -2.3577   -0.2564 H   0  0  0  0  0  0  0  0  0  0  0  0
    1.9328   -1.4979   -1.7156 H   0  0  0  0  0  0  0  0  0  0  0  0
    3.3386   -1.1192    0.5914 H   0  0  0  0  0  0  0  0  0  0  0  0
    2.6150    1.3028    1.0082 H   0  0  0  0  0  0  0  0  0  0  0  0
    0.8176    1.6803   -1.0982 H   0  0  0  0  0  0  0  0  0  0  0  0
  1  2  1  0
  2  3  1  0
  3  4  1  0
  3  5  1  0
  5  6  1  0
  6  7  1  0
  7  8  2  0
  8  9  1  0
  9  2  1  0
  9  5  1  0
  1 10  1  0
  1 11  1  0
  1 12  1  0
  2 13  1  0
  3 14  1  0
  4 15  1  0
  4 16  1  0
  4 17  1  0
  5 18  1  0
  6 19  1  0
  6 20  1  0
  7 21  1  0
  8 22  1  0
  9 23  1  0
M  END
