
     RDKit          3D

 23 24  0  0  0  0  0  0  0  0999 V2000
    2.1537   -0.9438   -0.7788 C   0  0  0  0  0  0  0  0  0  0  0  0
    1.3931    0.0604   -0.0089 C   0  0  0  0  0  0  0  0  0  0  0  0
    0.7321   -0.4523    1.2772 C   0  0  0  0  0  0  0  0  0  0  0  0
   -0.1784   -1.0782    0.3143 C   0  0  0  0  0  0  0  0  0  0  0  0
   -1.0992   -0.6161   -0.6556 C   0  0  0  0  0  0  0  0  0  0  0  0
   -2.5397   -0.4127   -0.1468 C   0  0  0  0  0  0  0  0  0  0  0  0
   -0.0322    0.3160   -0.3965 C   0  0  0  0  0  0  0  0  0  0  0  0
   -0.5631    1.5590    0.2100 C   0  0  0  0  0  0  0  0  0  0  0  0
    0.2171    2.6436   -0.2005 O   0  0  0  0  0  0  0  0  0  0  0  0
    1.5797   -1.2106   -1.7026 H   0  0  0  0  0  0  0  0  0  0  0  0
    3.1086   -0.4886   -1.1772 H   0  0  0  0  0  0  0  0  0  0  0  0
    2.4575   -1.8456   -0.2449 H   0  0  0  0  0  0  0  0  0  0  0  0
    1.9656    0.9535    0.2012 H   0  0  0  0  0  0  0  0  0  0  0  0
    0.4323    0.2912    1.9919 H   0  0  0  0  0  0  0  0  0  0  0  0
    1.3849   -1.1879    1.8249 H   0  0  0  0  0  0  0  0  0  0  0  0
    0.4213   -1.9227   -0.1838 H   0  0  0  0  0  0  0  0  0  0  0  0
   -1.1668   -0.9324   -1.7413 H   0  0  0  0  0  0  0  0  0  0  0  0
   -2.5051   -0.1503    0.9509 H   0  0  0  0  0  0  0  0  0  0  0  0
   -3.0234    0.4120   -0.7093 H   0  0  0  0  0  0  0  0  0  0  0  0
   -3.1233   -1.3269   -0.2338 H   0  0  0  0  0  0  0  0  0  0  0  0
   -1.5533    1.7736   -0.3250 H   0  0  0  0  0  0  0  0  0  0  0  0
   -0.8583    1.5587    1.2480 H   0  0  0  0  0  0  0  0  0  0  0  0
    0.7970    3.0000    0.4866 H   0  0  0  0  0  0  0  0  0  0  0  0
  1  2  1  0
  2  3  1  0
  3  4  1  0
  4  5  1  0
  5  6  1  0
  5  7  1  0
  7  8  1  0
  8  9  1  0
  7  2  1  0
  7  4  1  0
  1 10  1  0
  1 11  1  0
  1 12  1  0
  2 13  1  0
  3 14  1  0
  3 15  1  0
  4 16  1  0
  5 17  1  0
  6 18  1  0
  6 19  1  0
  6 20  1  0
  8 21  1  0
  8 22  1  0
  9 23  1  0
M  END
