
     RDKit          3D

 21 22  0  0  0  0  0  0  0  0999 V2000
   -2.2103   -0.4982   -0.6700 C   0  0  0  0  0  0  0  0  0  0  0  0
   -0.8637   -0.8385   -0.1402 C   0  0  0  0  0  0  0  0  0  0  0  0
   -0.7753   -0.4533    1.3037 C   0  0  0  0  0  0  0  0  0  0  0  0
   -1.4685   -0.1909    2.2360 O   0  0  0  0  0  0  0  0  0  0  0  0
    0.6624   -0.5610    0.9993 C   0  0  0  0  0  0  0  0  0  0  0  0
    1.5018    0.3019    0.2398 C   0  0  0  0  0  0  0  0  0  0  0  0
    2.6182   -0.2899   -0.6387 C   0  0  0  0  0  0  0  0  0  0  0  0
    0.1691    0.2737   -0.2578 C   0  0  0  0  0  0  0  0  0  0  0  0
   -0.5911    1.5719    0.1066 C   0  0  0  0  0  0  0  0  0  0  0  0
   -2.2057   -0.0416   -1.6812 H   0  0  0  0  0  0  0  0  0  0  0  0
   -2.8308    0.0841    0.0544 H   0  0  0  0  0  0  0  0  0  0  0  0
   -2.7733   -1.4700   -0.7956 H   0  0  0  0  0  0  0  0  0  0  0  0
   -0.4838   -1.8464   -0.3333 H   0  0  0  0  0  0  0  0  0  0  0  0
    0.8324   -1.6643    0.7688 H   0  0  0  0  0  0  0  0  0  0  0  0
    1.9441    1.1672    0.8279 H   0  0  0  0  0  0  0  0  0  0  0  0
    3.1418   -1.0158    0.0230 H   0  0  0  0  0  0  0  0  0  0  0  0
    3.3418    0.4597   -0.9503 H   0  0  0  0  0  0  0  0  0  0  0  0
    2.1976   -0.7663   -1.5463 H   0  0  0  0  0  0  0  0  0  0  0  0
   -1.5662    1.6133   -0.4196 H   0  0  0  0  0  0  0  0  0  0  0  0
   -0.6396    1.7227    1.1817 H   0  0  0  0  0  0  0  0  0  0  0  0
   -0.0009    2.4415   -0.3084 H   0  0  0  0  0  0  0  0  0  0  0  0
  1  2  1  0
  2  3  1  0
  3  4  2  0
  3  5  1  0
  5  6  1  0
  6  7  1  0
  6  8  1  0
  8  9  1  0
  8  2  1  0
  8  5  1  0
  1 10  1  0
  1 11  1  0
  1 12  1  0
  2 13  1  0
  5 14  1  0
  6 15  1  0
  7 16  1  0
  7 17  1  0
  7 18  1  0
  9 19  1  0
  9 20  1  0
  9 21  1  0
M  END
