
     RDKit          3D

 23 24  0  0  0  0  0  0  0  0999 V2000
    2.3012    0.5918    0.8113 C   0  0  0  0  0  0  0  0  0  0  0  0
    1.2191    0.3391   -0.1851 C   0  0  0  0  0  0  0  0  0  0  0  0
    0.4342   -0.9106   -0.0614 C   0  0  0  0  0  0  0  0  0  0  0  0
    0.3745   -1.8047   -1.2771 C   0  0  0  0  0  0  0  0  0  0  0  0
   -0.8203   -0.1129    0.0894 C   0  0  0  0  0  0  0  0  0  0  0  0
   -1.8091   -0.5196    1.1249 C   0  0  0  0  0  0  0  0  0  0  0  0
   -1.1317    1.0141   -0.8038 C   0  0  0  0  0  0  0  0  0  0  0  0
   -2.2630    1.7614   -0.5010 O   0  0  0  0  0  0  0  0  0  0  0  0
   -0.0237    1.1262    0.1734 C   0  0  0  0  0  0  0  0  0  0  0  0
    3.2253    0.0180    0.6262 H   0  0  0  0  0  0  0  0  0  0  0  0
    1.9442    0.5144    1.8654 H   0  0  0  0  0  0  0  0  0  0  0  0
    2.6010    1.6747    0.6981 H   0  0  0  0  0  0  0  0  0  0  0  0
    1.5845    0.5289   -1.2109 H   0  0  0  0  0  0  0  0  0  0  0  0
    0.6468   -1.5367    0.8506 H   0  0  0  0  0  0  0  0  0  0  0  0
    1.1694   -1.5863   -2.0087 H   0  0  0  0  0  0  0  0  0  0  0  0
    0.3722   -2.8916   -0.9876 H   0  0  0  0  0  0  0  0  0  0  0  0
   -0.5973   -1.6681   -1.8327 H   0  0  0  0  0  0  0  0  0  0  0  0
   -2.0735   -1.5998    0.9242 H   0  0  0  0  0  0  0  0  0  0  0  0
   -2.7659    0.0313    0.9314 H   0  0  0  0  0  0  0  0  0  0  0  0
   -1.4598   -0.3907    2.1585 H   0  0  0  0  0  0  0  0  0  0  0  0
   -0.8663    1.0004   -1.8857 H   0  0  0  0  0  0  0  0  0  0  0  0
   -1.9785    2.7270   -0.5969 H   0  0  0  0  0  0  0  0  0  0  0  0
   -0.0833    1.6937    1.0975 H   0  0  0  0  0  0  0  0  0  0  0  0
  1  2  1  0
  2  3  1  0
  3  4  1  0
  3  5  1  0
  5  6  1  0
  5  7  1  0
  7  8  1  0
  7  9  1  0
  9  2  1  0
  9  5  1  0
  1 10  1  0
  1 11  1  0
  1 12  1  0
  2 13  1  0
  3 14  1  0
  4 15  1  0
  4 16  1  0
  4 17  1  0
  6 18  1  0
  6 19  1  0
  6 20  1  0
  7 21  1  0
  8 22  1  0
  9 23  1  0
M  END
