
     RDKit          3D

 23 24  0  0  0  0  0  0  0  0999 V2000
    2.4477    0.6939   -0.2703 C   0  0  0  0  0  0  0  0  0  0  0  0
    1.4048    0.0827    0.6614 C   0  0  0  0  0  0  0  0  0  0  0  0
    0.9316   -1.1903   -0.0070 C   0  0  0  0  0  0  0  0  0  0  0  0
   -0.2195   -0.6642   -0.8409 C   0  0  0  0  0  0  0  0  0  0  0  0
   -1.4883   -1.4267   -0.4770 C   0  0  0  0  0  0  0  0  0  0  0  0
   -1.7481   -0.3506    0.5655 C   0  0  0  0  0  0  0  0  0  0  0  0
   -0.6686    0.5233   -0.0580 C   0  0  0  0  0  0  0  0  0  0  0  0
   -1.2774    1.6558   -0.8053 C   0  0  0  0  0  0  0  0  0  0  0  0
    0.3315    0.9216    0.7798 O   0  0  0  0  0  0  0  0  0  0  0  0
    3.4360    0.3768    0.1506 H   0  0  0  0  0  0  0  0  0  0  0  0
    2.3290    0.2960   -1.3082 H   0  0  0  0  0  0  0  0  0  0  0  0
    2.3774    1.8114   -0.2702 H   0  0  0  0  0  0  0  0  0  0  0  0
    1.8450   -0.2168    1.6338 H   0  0  0  0  0  0  0  0  0  0  0  0
    0.6124   -1.9595    0.7234 H   0  0  0  0  0  0  0  0  0  0  0  0
    1.7033   -1.5798   -0.6887 H   0  0  0  0  0  0  0  0  0  0  0  0
   -0.0272   -0.5448   -1.9033 H   0  0  0  0  0  0  0  0  0  0  0  0
   -2.1667   -1.4140   -1.3451 H   0  0  0  0  0  0  0  0  0  0  0  0
   -1.2731   -2.4227   -0.0353 H   0  0  0  0  0  0  0  0  0  0  0  0
   -1.4371   -0.6629    1.5773 H   0  0  0  0  0  0  0  0  0  0  0  0
   -2.7732    0.0722    0.4881 H   0  0  0  0  0  0  0  0  0  0  0  0
   -2.0262    1.3767   -1.5563 H   0  0  0  0  0  0  0  0  0  0  0  0
   -0.5105    2.3134   -1.2732 H   0  0  0  0  0  0  0  0  0  0  0  0
   -1.8029    2.3084   -0.0566 H   0  0  0  0  0  0  0  0  0  0  0  0
  1  2  1  0
  2  3  1  0
  3  4  1  0
  4  5  1  0
  5  6  1  0
  6  7  1  0
  7  8  1  0
  7  9  1  0
  9  2  1  0
  7  4  1  0
  1 10  1  0
  1 11  1  0
  1 12  1  0
  2 13  1  0
  3 14  1  0
  3 15  1  0
  4 16  1  0
  5 17  1  0
  5 18  1  0
  6 19  1  0
  6 20  1  0
  8 21  1  0
  8 22  1  0
  8 23  1  0
M  END
