
     RDKit          3D

 23 25  0  0  0  0  0  0  0  0999 V2000
    2.7513    0.1557    0.2932 C   0  0  0  0  0  0  0  0  0  0  0  0
    1.2749   -0.0368    0.4964 C   0  0  0  0  0  0  0  0  0  0  0  0
    0.7038   -1.3355    0.0223 C   0  0  0  0  0  0  0  0  0  0  0  0
   -0.1752   -0.6206   -0.9567 C   0  0  0  0  0  0  0  0  0  0  0  0
    0.3989    0.6814   -0.4904 C   0  0  0  0  0  0  0  0  0  0  0  0
   -0.7154    1.4698    0.1433 C   0  0  0  0  0  0  0  0  0  0  0  0
   -1.9909    0.7283   -0.1703 C   0  0  0  0  0  0  0  0  0  0  0  0
   -2.2341   -0.4914    0.6343 C   0  0  0  0  0  0  0  0  0  0  0  0
   -1.6336   -0.6119   -0.6976 C   0  0  0  0  0  0  0  0  0  0  0  0
    2.9523    1.2550    0.4138 H   0  0  0  0  0  0  0  0  0  0  0  0
    3.1017   -0.1040   -0.7149 H   0  0  0  0  0  0  0  0  0  0  0  0
    3.2695   -0.4406    1.0874 H   0  0  0  0  0  0  0  0  0  0  0  0
    1.0223    0.1511    1.5651 H   0  0  0  0  0  0  0  0  0  0  0  0
    0.1281   -1.8832    0.8150 H   0  0  0  0  0  0  0  0  0  0  0  0
    1.4681   -1.9990   -0.4586 H   0  0  0  0  0  0  0  0  0  0  0  0
    0.0695   -0.9169   -2.0005 H   0  0  0  0  0  0  0  0  0  0  0  0
    0.9643    1.2621   -1.2356 H   0  0  0  0  0  0  0  0  0  0  0  0
   -0.7452    2.5283   -0.1938 H   0  0  0  0  0  0  0  0  0  0  0  0
   -0.5957    1.4876    1.2493 H   0  0  0  0  0  0  0  0  0  0  0  0
   -2.8471    1.3085   -0.5942 H   0  0  0  0  0  0  0  0  0  0  0  0
   -3.2805   -0.7937    0.7694 H   0  0  0  0  0  0  0  0  0  0  0  0
   -1.5992   -0.7208    1.5172 H   0  0  0  0  0  0  0  0  0  0  0  0
   -2.2878   -1.0734   -1.4940 H   0  0  0  0  0  0  0  0  0  0  0  0
  1  2  1  0
  2  3  1  0
  3  4  1  0
  4  5  1  0
  5  6  1  0
  6  7  1  0
  7  8  1  0
  8  9  1  0
  5  2  1  0
  9  7  1  0
  9  4  1  0
  1 10  1  0
  1 11  1  0
  1 12  1  0
  2 13  1  0
  3 14  1  0
  3 15  1  0
  4 16  1  0
  5 17  1  0
  6 18  1  0
  6 19  1  0
  7 20  1  0
  8 21  1  0
  8 22  1  0
  9 23  1  0
M  END
