
     RDKit          3D

 21 22  0  0  0  0  0  0  0  0999 V2000
   -1.8490   -1.0710    0.5265 C   0  0  0  0  0  0  0  0  0  0  0  0
   -1.1219   -0.3137   -0.5441 C   0  0  0  0  0  0  0  0  0  0  0  0
    0.2553   -0.8580   -0.8066 C   0  0  0  0  0  0  0  0  0  0  0  0
    1.2116    0.1222   -0.1738 C   0  0  0  0  0  0  0  0  0  0  0  0
    2.4515   -0.4573    0.4189 C   0  0  0  0  0  0  0  0  0  0  0  0
    1.4370    1.2392   -1.1196 O   0  0  0  0  0  0  0  0  0  0  0  0
    0.5867    1.3175    0.0049 C   0  0  0  0  0  0  0  0  0  0  0  0
   -0.9090    1.1245   -0.2443 C   0  0  0  0  0  0  0  0  0  0  0  0
   -1.5625    1.5428    0.9022 O   0  0  0  0  0  0  0  0  0  0  0  0
   -2.7915   -1.5529    0.1595 H   0  0  0  0  0  0  0  0  0  0  0  0
   -2.1394   -0.4519    1.3940 H   0  0  0  0  0  0  0  0  0  0  0  0
   -1.2392   -1.9130    0.9418 H   0  0  0  0  0  0  0  0  0  0  0  0
   -1.7124   -0.4351   -1.4909 H   0  0  0  0  0  0  0  0  0  0  0  0
    0.4953   -0.9593   -1.8786 H   0  0  0  0  0  0  0  0  0  0  0  0
    0.4294   -1.8521   -0.3479 H   0  0  0  0  0  0  0  0  0  0  0  0
    2.6434   -0.0712    1.4475 H   0  0  0  0  0  0  0  0  0  0  0  0
    3.3104   -0.2817   -0.2519 H   0  0  0  0  0  0  0  0  0  0  0  0
    2.3388   -1.5704    0.5201 H   0  0  0  0  0  0  0  0  0  0  0  0
    0.8307    2.1849    0.6410 H   0  0  0  0  0  0  0  0  0  0  0  0
   -1.2493    1.7438   -1.1089 H   0  0  0  0  0  0  0  0  0  0  0  0
   -1.4157    2.5128    1.0100 H   0  0  0  0  0  0  0  0  0  0  0  0
  1  2  1  0
  2  3  1  0
  3  4  1  0
  4  5  1  0
  4  6  1  0
  6  7  1  0
  7  8  1  0
  8  9  1  0
  8  2  1  0
  7  4  1  0
  1 10  1  0
  1 11  1  0
  1 12  1  0
  2 13  1  0
  3 14  1  0
  3 15  1  0
  5 16  1  0
  5 17  1  0
  5 18  1  0
  7 19  1  0
  8 20  1  0
  9 21  1  0
M  END
