
     RDKit          3D

 25 26  0  0  0  0  0  0  0  0999 V2000
    0.9307    1.6794   -0.8968 C   0  0  0  0  0  0  0  0  0  0  0  0
    0.7488    0.8760    0.3282 C   0  0  0  0  0  0  0  0  0  0  0  0
   -0.6317    0.8788    0.9536 C   0  0  0  0  0  0  0  0  0  0  0  0
   -1.7189    0.8094   -0.0766 C   0  0  0  0  0  0  0  0  0  0  0  0
   -1.6774   -0.5388   -0.7834 C   0  0  0  0  0  0  0  0  0  0  0  0
   -0.2553   -1.0367   -0.9475 C   0  0  0  0  0  0  0  0  0  0  0  0
    0.6139   -0.6068    0.1909 C   0  0  0  0  0  0  0  0  0  0  0  0
    1.8574   -1.3934    0.4330 C   0  0  0  0  0  0  0  0  0  0  0  0
   -0.2951   -0.5421    1.4304 C   0  0  0  0  0  0  0  0  0  0  0  0
    2.0016    2.0381   -0.9178 H   0  0  0  0  0  0  0  0  0  0  0  0
    0.3345    2.6375   -0.8913 H   0  0  0  0  0  0  0  0  0  0  0  0
    0.7753    1.1614   -1.8485 H   0  0  0  0  0  0  0  0  0  0  0  0
    1.4950    1.1088    1.1287 H   0  0  0  0  0  0  0  0  0  0  0  0
   -0.7799    1.5356    1.8052 H   0  0  0  0  0  0  0  0  0  0  0  0
   -1.6903    1.6527   -0.7902 H   0  0  0  0  0  0  0  0  0  0  0  0
   -2.6879    0.8797    0.4595 H   0  0  0  0  0  0  0  0  0  0  0  0
   -2.1773   -0.3739   -1.7757 H   0  0  0  0  0  0  0  0  0  0  0  0
   -2.3259   -1.2792   -0.2595 H   0  0  0  0  0  0  0  0  0  0  0  0
    0.0940   -0.7591   -1.9362 H   0  0  0  0  0  0  0  0  0  0  0  0
   -0.3029   -2.1539   -0.9187 H   0  0  0  0  0  0  0  0  0  0  0  0
    2.1553   -1.2173    1.5066 H   0  0  0  0  0  0  0  0  0  0  0  0
    1.6457   -2.4653    0.3155 H   0  0  0  0  0  0  0  0  0  0  0  0
    2.6921   -1.0669   -0.2345 H   0  0  0  0  0  0  0  0  0  0  0  0
   -1.1222   -1.2484    1.3871 H   0  0  0  0  0  0  0  0  0  0  0  0
    0.3203   -0.5755    2.3378 H   0  0  0  0  0  0  0  0  0  0  0  0
  1  2  1  0
  2  3  1  0
  3  4  1  0
  4  5  1  0
  5  6  1  0
  6  7  1  0
  7  8  1  0
  7  9  1  0
  7  2  1  0
  9  3  1  0
  1 10  1  0
  1 11  1  0
  1 12  1  0
  2 13  1  0
  3 14  1  0
  4 15  1  0
  4 16  1  0
  5 17  1  0
  5 18  1  0
  6 19  1  0
  6 20  1  0
  8 21  1  0
  8 22  1  0
  8 23  1  0
  9 24  1  0
  9 25  1  0
M  END
