
     RDKit          3D

 23 23  0  0  0  0  0  0  0  0999 V2000
    2.5452    1.4380    0.1454 C   0  0  0  0  0  0  0  0  0  0  0  0
    1.4535    0.4772   -0.2381 C   0  0  0  0  0  0  0  0  0  0  0  0
    1.6996   -0.9235    0.2430 C   0  0  0  0  0  0  0  0  0  0  0  0
    0.2845   -1.4735    0.3463 C   0  0  0  0  0  0  0  0  0  0  0  0
   -0.5411   -0.2894   -0.0725 C   0  0  0  0  0  0  0  0  0  0  0  0
   -1.9161   -0.2822    0.5479 C   0  0  0  0  0  0  0  0  0  0  0  0
   -2.6223    0.9694    0.0291 C   0  0  0  0  0  0  0  0  0  0  0  0
   -2.6311   -1.3774    0.0676 O   0  0  0  0  0  0  0  0  0  0  0  0
    0.2336    0.7840    0.3657 O   0  0  0  0  0  0  0  0  0  0  0  0
    3.1106    1.1190    1.0394 H   0  0  0  0  0  0  0  0  0  0  0  0
    2.1095    2.4441    0.2357 H   0  0  0  0  0  0  0  0  0  0  0  0
    3.2692    1.4609   -0.6958 H   0  0  0  0  0  0  0  0  0  0  0  0
    1.2991    0.4986   -1.3254 H   0  0  0  0  0  0  0  0  0  0  0  0
    2.2616   -1.5117   -0.5327 H   0  0  0  0  0  0  0  0  0  0  0  0
    2.2305   -0.9433    1.2077 H   0  0  0  0  0  0  0  0  0  0  0  0
    0.1591   -2.3323   -0.3640 H   0  0  0  0  0  0  0  0  0  0  0  0
    0.0898   -1.8015    1.3775 H   0  0  0  0  0  0  0  0  0  0  0  0
   -0.5666   -0.2489   -1.1655 H   0  0  0  0  0  0  0  0  0  0  0  0
   -1.8648   -0.2483    1.6535 H   0  0  0  0  0  0  0  0  0  0  0  0
   -3.1463    0.7256   -0.9284 H   0  0  0  0  0  0  0  0  0  0  0  0
   -3.3484    1.3613    0.7479 H   0  0  0  0  0  0  0  0  0  0  0  0
   -1.8474    1.7456   -0.1934 H   0  0  0  0  0  0  0  0  0  0  0  0
   -2.2618   -1.5917   -0.8228 H   0  0  0  0  0  0  0  0  0  0  0  0
  1  2  1  0
  2  3  1  0
  3  4  1  0
  4  5  1  0
  5  6  1  0
  6  7  1  0
  6  8  1  0
  5  9  1  0
  9  2  1  0
  1 10  1  0
  1 11  1  0
  1 12  1  0
  2 13  1  0
  3 14  1  0
  3 15  1  0
  4 16  1  0
  4 17  1  0
  5 18  1  0
  6 19  1  0
  7 20  1  0
  7 21  1  0
  7 22  1  0
  8 23  1  0
M  END
