
     RDKit          3D

 23 24  0  0  0  0  0  0  0  0999 V2000
    1.8687   -1.0652    0.5933 C   0  0  0  0  0  0  0  0  0  0  0  0
    0.8879   -0.5935   -0.4342 C   0  0  0  0  0  0  0  0  0  0  0  0
   -0.5620   -0.5441   -0.1953 C   0  0  0  0  0  0  0  0  0  0  0  0
   -1.5185   -0.8204   -1.3065 C   0  0  0  0  0  0  0  0  0  0  0  0
   -1.1438   -0.7397    1.1934 C   0  0  0  0  0  0  0  0  0  0  0  0
   -0.2734   -0.0979    2.0359 O   0  0  0  0  0  0  0  0  0  0  0  0
    0.1066    1.0611    1.3783 C   0  0  0  0  0  0  0  0  0  0  0  0
    0.1939    0.7081   -0.0694 C   0  0  0  0  0  0  0  0  0  0  0  0
    0.2660    1.7487   -1.1237 C   0  0  0  0  0  0  0  0  0  0  0  0
    1.9754   -0.3640    1.4574 H   0  0  0  0  0  0  0  0  0  0  0  0
    2.8788   -1.1269    0.1382 H   0  0  0  0  0  0  0  0  0  0  0  0
    1.6510   -2.0950    0.9720 H   0  0  0  0  0  0  0  0  0  0  0  0
    1.1962   -0.7466   -1.4871 H   0  0  0  0  0  0  0  0  0  0  0  0
   -1.0677   -1.3868   -2.1535 H   0  0  0  0  0  0  0  0  0  0  0  0
   -2.3997   -1.4181   -0.9472 H   0  0  0  0  0  0  0  0  0  0  0  0
   -1.9073    0.1451   -1.6970 H   0  0  0  0  0  0  0  0  0  0  0  0
   -2.1144   -0.1668    1.2079 H   0  0  0  0  0  0  0  0  0  0  0  0
   -1.3399   -1.7792    1.4441 H   0  0  0  0  0  0  0  0  0  0  0  0
   -0.7074    1.8362    1.4854 H   0  0  0  0  0  0  0  0  0  0  0  0
    1.0543    1.4847    1.7439 H   0  0  0  0  0  0  0  0  0  0  0  0
   -0.1347    1.3049   -2.0789 H   0  0  0  0  0  0  0  0  0  0  0  0
    1.3575    1.9757   -1.2993 H   0  0  0  0  0  0  0  0  0  0  0  0
   -0.2676    2.6796   -0.8577 H   0  0  0  0  0  0  0  0  0  0  0  0
  1  2  1  0
  2  3  1  0
  3  4  1  0
  3  5  1  0
  5  6  1  0
  6  7  1  0
  7  8  1  0
  8  9  1  0
  8  2  1  0
  8  3  1  0
  1 10  1  0
  1 11  1  0
  1 12  1  0
  2 13  1  0
  4 14  1  0
  4 15  1  0
  4 16  1  0
  5 17  1  0
  5 18  1  0
  7 19  1  0
  7 20  1  0
  9 21  1  0
  9 22  1  0
  9 23  1  0
M  END
