
     RDKit          3D

 21 22  0  0  0  0  0  0  0  0999 V2000
   -2.2378    1.0184    0.0298 C   0  0  0  0  0  0  0  0  0  0  0  0
   -1.4207   -0.2481   -0.2552 C   0  0  0  0  0  0  0  0  0  0  0  0
   -1.4185   -1.2019    0.9244 C   0  0  0  0  0  0  0  0  0  0  0  0
   -0.2032   -0.5118    0.5173 C   0  0  0  0  0  0  0  0  0  0  0  0
    1.0087   -1.1881   -0.0042 C   0  0  0  0  0  0  0  0  0  0  0  0
    2.0359   -0.0470   -0.0574 C   0  0  0  0  0  0  0  0  0  0  0  0
    2.9107   -0.1022    1.0099 O   0  0  0  0  0  0  0  0  0  0  0  0
    1.0882    1.1410    0.1483 C   0  0  0  0  0  0  0  0  0  0  0  0
    0.3044    0.6012    1.1965 O   0  0  0  0  0  0  0  0  0  0  0  0
   -3.2866    0.9068   -0.3110 H   0  0  0  0  0  0  0  0  0  0  0  0
   -2.2953    1.2022    1.1386 H   0  0  0  0  0  0  0  0  0  0  0  0
   -1.7818    1.9122   -0.4009 H   0  0  0  0  0  0  0  0  0  0  0  0
   -1.4824   -0.6190   -1.2730 H   0  0  0  0  0  0  0  0  0  0  0  0
   -1.5033   -2.2764    0.6138 H   0  0  0  0  0  0  0  0  0  0  0  0
   -2.0024   -0.9768    1.8193 H   0  0  0  0  0  0  0  0  0  0  0  0
    0.9034   -1.6684   -0.9850 H   0  0  0  0  0  0  0  0  0  0  0  0
    1.3415   -1.9213    0.7872 H   0  0  0  0  0  0  0  0  0  0  0  0
    2.5581   -0.0047   -1.0110 H   0  0  0  0  0  0  0  0  0  0  0  0
    3.4056    0.7395    1.0360 H   0  0  0  0  0  0  0  0  0  0  0  0
    0.4790    1.1942   -0.7708 H   0  0  0  0  0  0  0  0  0  0  0  0
    1.5966    2.0504    0.4198 H   0  0  0  0  0  0  0  0  0  0  0  0
  1  2  1  0
  2  3  1  0
  3  4  1  0
  4  5  1  0
  5  6  1  0
  6  7  1  0
  6  8  1  0
  8  9  1  0
  4  2  1  0
  9  4  1  0
  1 10  1  0
  1 11  1  0
  1 12  1  0
  2 13  1  0
  3 14  1  0
  3 15  1  0
  5 16  1  0
  5 17  1  0
  6 18  1  0
  7 19  1  0
  8 20  1  0
  8 21  1  0
M  END
