
     RDKit          3D

 20 21  0  0  0  0  0  0  0  0999 V2000
    1.9721   -0.7225   -0.6048 C   0  0  0  0  0  0  0  0  0  0  0  0
    1.1045    0.4498   -0.2489 C   0  0  0  0  0  0  0  0  0  0  0  0
    1.1931    0.8871    1.2131 C   0  0  0  0  0  0  0  0  0  0  0  0
    0.2419   -0.1216    1.4886 O   0  0  0  0  0  0  0  0  0  0  0  0
   -0.2232    0.0494    0.2250 C   0  0  0  0  0  0  0  0  0  0  0  0
   -1.3814    0.9619    0.0024 C   0  0  0  0  0  0  0  0  0  0  0  0
   -2.2538   -0.2998   -0.0907 C   0  0  0  0  0  0  0  0  0  0  0  0
   -0.9569   -1.0475   -0.4392 C   0  0  0  0  0  0  0  0  0  0  0  0
    2.2457   -1.2378    0.3420 H   0  0  0  0  0  0  0  0  0  0  0  0
    1.4049   -1.4728   -1.2037 H   0  0  0  0  0  0  0  0  0  0  0  0
    2.8985   -0.4233   -1.1385 H   0  0  0  0  0  0  0  0  0  0  0  0
    1.1506    1.2900   -0.9703 H   0  0  0  0  0  0  0  0  0  0  0  0
    0.6787    1.8665    1.3328 H   0  0  0  0  0  0  0  0  0  0  0  0
    2.1590    0.7638    1.6867 H   0  0  0  0  0  0  0  0  0  0  0  0
   -1.6583    1.6500    0.8049 H   0  0  0  0  0  0  0  0  0  0  0  0
   -1.3361    1.4658   -1.0036 H   0  0  0  0  0  0  0  0  0  0  0  0
   -3.0010   -0.2839   -0.8827 H   0  0  0  0  0  0  0  0  0  0  0  0
   -2.5904   -0.5730    0.9283 H   0  0  0  0  0  0  0  0  0  0  0  0
   -0.8115   -1.1940   -1.5237 H   0  0  0  0  0  0  0  0  0  0  0  0
   -0.8364   -2.0079    0.0819 H   0  0  0  0  0  0  0  0  0  0  0  0
  1  2  1  0
  2  3  1  0
  3  4  1  0
  4  5  1  0
  5  6  1  0
  6  7  1  0
  7  8  1  0
  5  2  1  0
  8  5  1  0
  1  9  1  0
  1 10  1  0
  1 11  1  0
  2 12  1  0
  3 13  1  0
  3 14  1  0
  6 15  1  0
  6 16  1  0
  7 17  1  0
  7 18  1  0
  8 19  1  0
  8 20  1  0
M  END
