
     RDKit          3D

 23 23  0  0  0  0  0  0  0  0999 V2000
   -0.4893    0.6825    1.8740 C   0  0  0  0  0  0  0  0  0  0  0  0
   -0.9988    0.8027    0.4815 C   0  0  0  0  0  0  0  0  0  0  0  0
   -0.1079    0.6454   -0.7142 C   0  0  0  0  0  0  0  0  0  0  0  0
    1.3665    0.5600   -0.6224 C   0  0  0  0  0  0  0  0  0  0  0  0
    1.9546   -0.5495    0.1563 C   0  0  0  0  0  0  0  0  0  0  0  0
    3.3613   -0.3960    0.0772 O   0  0  0  0  0  0  0  0  0  0  0  0
   -1.0272   -0.4547   -0.4098 C   0  0  0  0  0  0  0  0  0  0  0  0
   -2.2706   -0.6280   -1.2560 C   0  0  0  0  0  0  0  0  0  0  0  0
   -0.6629   -1.5923    0.2795 O   0  0  0  0  0  0  0  0  0  0  0  0
    0.4502    1.1999    2.0842 H   0  0  0  0  0  0  0  0  0  0  0  0
   -0.4537   -0.4125    2.1236 H   0  0  0  0  0  0  0  0  0  0  0  0
   -1.2403    1.1430    2.5648 H   0  0  0  0  0  0  0  0  0  0  0  0
   -1.9170    1.4591    0.3784 H   0  0  0  0  0  0  0  0  0  0  0  0
   -0.4333    1.2974   -1.5832 H   0  0  0  0  0  0  0  0  0  0  0  0
    1.7426    1.5179   -0.1649 H   0  0  0  0  0  0  0  0  0  0  0  0
    1.8563    0.5520   -1.6345 H   0  0  0  0  0  0  0  0  0  0  0  0
    1.7394   -0.6087    1.2162 H   0  0  0  0  0  0  0  0  0  0  0  0
    1.7638   -1.5572   -0.2981 H   0  0  0  0  0  0  0  0  0  0  0  0
    3.6343    0.5159    0.3490 H   0  0  0  0  0  0  0  0  0  0  0  0
   -2.4529   -1.6572   -1.5505 H   0  0  0  0  0  0  0  0  0  0  0  0
   -3.1594   -0.1485   -0.7793 H   0  0  0  0  0  0  0  0  0  0  0  0
   -2.1092   -0.0406   -2.2030 H   0  0  0  0  0  0  0  0  0  0  0  0
   -0.5464   -2.3305   -0.3687 H   0  0  0  0  0  0  0  0  0  0  0  0
  1  2  1  0
  2  3  1  0
  3  4  1  0
  4  5  1  0
  5  6  1  0
  3  7  1  0
  7  8  1  0
  7  9  1  0
  7  2  1  0
  1 10  1  0
  1 11  1  0
  1 12  1  0
  2 13  1  0
  3 14  1  0
  4 15  1  0
  4 16  1  0
  5 17  1  0
  5 18  1  0
  6 19  1  0
  8 20  1  0
  8 21  1  0
  8 22  1  0
  9 23  1  0
M  END
