
     RDKit          3D

 25 26  0  0  0  0  0  0  0  0999 V2000
    3.4198    1.1254   -0.3240 C   0  0  0  0  0  0  0  0  0  0  0  0
    2.5717   -0.0119    0.2547 C   0  0  0  0  0  0  0  0  0  0  0  0
    2.1415   -1.0348   -0.7694 C   0  0  0  0  0  0  0  0  0  0  0  0
    1.1605   -0.0423   -0.1297 C   0  0  0  0  0  0  0  0  0  0  0  0
    0.0913   -0.6832    0.6961 C   0  0  0  0  0  0  0  0  0  0  0  0
   -1.2526   -0.5145   -0.0270 C   0  0  0  0  0  0  0  0  0  0  0  0
   -2.4795   -1.1017    0.6524 C   0  0  0  0  0  0  0  0  0  0  0  0
   -2.2803    0.3686    0.5709 C   0  0  0  0  0  0  0  0  0  0  0  0
   -3.2396    1.1268   -0.2898 C   0  0  0  0  0  0  0  0  0  0  0  0
    2.7046    1.9946   -0.4129 H   0  0  0  0  0  0  0  0  0  0  0  0
    3.7215    0.9006   -1.3737 H   0  0  0  0  0  0  0  0  0  0  0  0
    4.2671    1.3715    0.3141 H   0  0  0  0  0  0  0  0  0  0  0  0
    2.8677   -0.3555    1.2634 H   0  0  0  0  0  0  0  0  0  0  0  0
    2.3366   -0.8781   -1.8322 H   0  0  0  0  0  0  0  0  0  0  0  0
    2.1038   -2.0892   -0.4019 H   0  0  0  0  0  0  0  0  0  0  0  0
    0.7968    0.7840   -0.8066 H   0  0  0  0  0  0  0  0  0  0  0  0
    0.2333   -1.7871    0.7819 H   0  0  0  0  0  0  0  0  0  0  0  0
    0.0389   -0.2994    1.7255 H   0  0  0  0  0  0  0  0  0  0  0  0
   -1.2039   -0.5450   -1.1350 H   0  0  0  0  0  0  0  0  0  0  0  0
   -2.3050   -1.6408    1.5962 H   0  0  0  0  0  0  0  0  0  0  0  0
   -3.1957   -1.6257   -0.0218 H   0  0  0  0  0  0  0  0  0  0  0  0
   -1.9921    0.8819    1.5094 H   0  0  0  0  0  0  0  0  0  0  0  0
   -2.9462    2.1998   -0.3726 H   0  0  0  0  0  0  0  0  0  0  0  0
   -3.3239    0.7473   -1.3177 H   0  0  0  0  0  0  0  0  0  0  0  0
   -4.2364    1.1087    0.2061 H   0  0  0  0  0  0  0  0  0  0  0  0
  1  2  1  0
  2  3  1  0
  3  4  1  0
  4  5  1  0
  5  6  1  0
  6  7  1  0
  7  8  1  0
  8  9  1  0
  4  2  1  0
  8  6  1  0
  1 10  1  0
  1 11  1  0
  1 12  1  0
  2 13  1  0
  3 14  1  0
  3 15  1  0
  4 16  1  0
  5 17  1  0
  5 18  1  0
  6 19  1  0
  7 20  1  0
  7 21  1  0
  8 22  1  0
  9 23  1  0
  9 24  1  0
  9 25  1  0
M  END
