
     RDKit          3D

 21 21  0  0  0  0  0  0  0  0999 V2000
   -1.8148   -0.9066   -0.3700 C   0  0  0  0  0  0  0  0  0  0  0  0
   -0.9789   -0.2767    0.6994 C   0  0  0  0  0  0  0  0  0  0  0  0
   -0.9312    1.2261    0.6119 C   0  0  0  0  0  0  0  0  0  0  0  0
   -0.0150    1.7199   -0.4804 C   0  0  0  0  0  0  0  0  0  0  0  0
    1.2466    1.1589   -0.3386 O   0  0  0  0  0  0  0  0  0  0  0  0
    1.2530   -0.2117   -0.4365 C   0  0  0  0  0  0  0  0  0  0  0  0
    2.6429   -0.6769   -0.3366 C   0  0  0  0  0  0  0  0  0  0  0  0
    3.5408    0.1045   -0.1942 O   0  0  0  0  0  0  0  0  0  0  0  0
    0.4031   -0.8731    0.6294 C   0  0  0  0  0  0  0  0  0  0  0  0
   -2.8091   -0.4478   -0.4980 H   0  0  0  0  0  0  0  0  0  0  0  0
   -1.2873   -0.9661   -1.3535 H   0  0  0  0  0  0  0  0  0  0  0  0
   -1.9984   -1.9669   -0.0734 H   0  0  0  0  0  0  0  0  0  0  0  0
   -1.4400   -0.5301    1.6787 H   0  0  0  0  0  0  0  0  0  0  0  0
   -1.9377    1.6368    0.5004 H   0  0  0  0  0  0  0  0  0  0  0  0
   -0.4853    1.5843    1.5735 H   0  0  0  0  0  0  0  0  0  0  0  0
   -0.4278    1.6023   -1.4895 H   0  0  0  0  0  0  0  0  0  0  0  0
    0.1066    2.8128   -0.3108 H   0  0  0  0  0  0  0  0  0  0  0  0
    0.8748   -0.5578   -1.4332 H   0  0  0  0  0  0  0  0  0  0  0  0
    2.8535   -1.7220   -0.3917 H   0  0  0  0  0  0  0  0  0  0  0  0
    0.3426   -1.9445    0.3778 H   0  0  0  0  0  0  0  0  0  0  0  0
    0.8616   -0.7654    1.6353 H   0  0  0  0  0  0  0  0  0  0  0  0
  1  2  1  0
  2  3  1  0
  3  4  1  0
  4  5  1  0
  5  6  1  0
  6  7  1  0
  7  8  2  0
  6  9  1  0
  9  2  1  0
  1 10  1  0
  1 11  1  0
  1 12  1  0
  2 13  1  0
  3 14  1  0
  3 15  1  0
  4 16  1  0
  4 17  1  0
  6 18  1  0
  7 19  1  0
  9 20  1  0
  9 21  1  0
M  END
