
     RDKit          3D

 21 21  0  0  0  0  0  0  0  0999 V2000
    2.8469    0.0502    0.5609 C   0  0  0  0  0  0  0  0  0  0  0  0
    1.3110    0.1743    0.5468 C   0  0  0  0  0  0  0  0  0  0  0  0
    0.8250    1.1703   -0.4683 C   0  0  0  0  0  0  0  0  0  0  0  0
    0.5742   -0.2764   -0.6431 C   0  0  0  0  0  0  0  0  0  0  0  0
   -0.7748   -0.8655   -0.6828 C   0  0  0  0  0  0  0  0  0  0  0  0
   -1.9309   -0.0784   -0.1914 C   0  0  0  0  0  0  0  0  0  0  0  0
   -3.0643   -0.9354   -0.3841 O   0  0  0  0  0  0  0  0  0  0  0  0
   -1.9379    0.2546    1.2364 C   0  0  0  0  0  0  0  0  0  0  0  0
   -2.7267   -0.2707    1.9863 O   0  0  0  0  0  0  0  0  0  0  0  0
    3.3230    0.7580   -0.1416 H   0  0  0  0  0  0  0  0  0  0  0  0
    3.1012   -0.9734    0.1650 H   0  0  0  0  0  0  0  0  0  0  0  0
    3.2587    0.1644    1.5671 H   0  0  0  0  0  0  0  0  0  0  0  0
    0.8942    0.1156    1.5655 H   0  0  0  0  0  0  0  0  0  0  0  0
    0.1054    1.8918   -0.0959 H   0  0  0  0  0  0  0  0  0  0  0  0
    1.5742    1.6675   -1.1500 H   0  0  0  0  0  0  0  0  0  0  0  0
    1.2675   -0.7584   -1.4118 H   0  0  0  0  0  0  0  0  0  0  0  0
   -0.8321   -1.8769   -0.1848 H   0  0  0  0  0  0  0  0  0  0  0  0
   -1.0030   -1.1238   -1.7656 H   0  0  0  0  0  0  0  0  0  0  0  0
   -2.1836    0.7977   -0.8298 H   0  0  0  0  0  0  0  0  0  0  0  0
   -3.3854   -0.8552   -1.3034 H   0  0  0  0  0  0  0  0  0  0  0  0
   -1.2427    0.9695    1.6248 H   0  0  0  0  0  0  0  0  0  0  0  0
  1  2  1  0
  2  3  1  0
  3  4  1  0
  4  5  1  0
  5  6  1  0
  6  7  1  0
  6  8  1  0
  8  9  2  0
  4  2  1  0
  1 10  1  0
  1 11  1  0
  1 12  1  0
  2 13  1  0
  3 14  1  0
  3 15  1  0
  4 16  1  0
  5 17  1  0
  5 18  1  0
  6 19  1  0
  7 20  1  0
  8 21  1  0
M  END
