
     RDKit          3D

 23 24  0  0  0  0  0  0  0  0999 V2000
    1.8892   -0.8744    0.6901 C   0  0  0  0  0  0  0  0  0  0  0  0
    1.1973   -0.2308   -0.4747 C   0  0  0  0  0  0  0  0  0  0  0  0
   -0.2400   -0.3512   -0.7219 C   0  0  0  0  0  0  0  0  0  0  0  0
   -0.6972   -0.4895   -2.1773 C   0  0  0  0  0  0  0  0  0  0  0  0
   -1.2206   -0.8331    0.2887 C   0  0  0  0  0  0  0  0  0  0  0  0
   -1.1484    0.0756    1.4829 C   0  0  0  0  0  0  0  0  0  0  0  0
   -0.1309    1.1357    1.1879 C   0  0  0  0  0  0  0  0  0  0  0  0
    0.2911    0.9362   -0.2336 C   0  0  0  0  0  0  0  0  0  0  0  0
    0.2569    1.9893   -1.1335 O   0  0  0  0  0  0  0  0  0  0  0  0
    2.7792   -0.2380    0.9420 H   0  0  0  0  0  0  0  0  0  0  0  0
    1.2747   -1.0049    1.5763 H   0  0  0  0  0  0  0  0  0  0  0  0
    2.2619   -1.8750    0.3667 H   0  0  0  0  0  0  0  0  0  0  0  0
    1.8440   -0.1211   -1.3709 H   0  0  0  0  0  0  0  0  0  0  0  0
   -0.5038   -1.5488   -2.4483 H   0  0  0  0  0  0  0  0  0  0  0  0
   -1.7846   -0.3041   -2.2809 H   0  0  0  0  0  0  0  0  0  0  0  0
   -0.1198    0.2239   -2.8171 H   0  0  0  0  0  0  0  0  0  0  0  0
   -1.1252   -1.9055    0.5430 H   0  0  0  0  0  0  0  0  0  0  0  0
   -2.2550   -0.7245   -0.1421 H   0  0  0  0  0  0  0  0  0  0  0  0
   -2.1192    0.5981    1.6889 H   0  0  0  0  0  0  0  0  0  0  0  0
   -0.9272   -0.4860    2.4285 H   0  0  0  0  0  0  0  0  0  0  0  0
   -0.4913    2.1670    1.3787 H   0  0  0  0  0  0  0  0  0  0  0  0
    0.7203    0.9851    1.9077 H   0  0  0  0  0  0  0  0  0  0  0  0
    0.2484    2.8759   -0.6810 H   0  0  0  0  0  0  0  0  0  0  0  0
  1  2  1  0
  2  3  1  0
  3  4  1  0
  3  5  1  0
  5  6  1  0
  6  7  1  0
  7  8  1  0
  8  9  1  0
  8  2  1  0
  8  3  1  0
  1 10  1  0
  1 11  1  0
  1 12  1  0
  2 13  1  0
  4 14  1  0
  4 15  1  0
  4 16  1  0
  5 17  1  0
  5 18  1  0
  6 19  1  0
  6 20  1  0
  7 21  1  0
  7 22  1  0
  9 23  1  0
M  END
