
     RDKit          3D

 21 22  0  0  0  0  0  0  0  0999 V2000
    2.3304   -0.4134    0.6734 C   0  0  0  0  0  0  0  0  0  0  0  0
    1.5970    0.3175   -0.4438 C   0  0  0  0  0  0  0  0  0  0  0  0
    0.8502   -0.6470   -1.2341 C   0  0  0  0  0  0  0  0  0  0  0  0
   -0.4499   -0.7988   -1.0937 C   0  0  0  0  0  0  0  0  0  0  0  0
   -1.1317    0.0504   -0.0977 C   0  0  0  0  0  0  0  0  0  0  0  0
   -1.9634   -0.7475    0.8975 C   0  0  0  0  0  0  0  0  0  0  0  0
   -1.5468    1.3979   -0.5187 C   0  0  0  0  0  0  0  0  0  0  0  0
   -0.3712    1.1534    0.4570 C   0  0  0  0  0  0  0  0  0  0  0  0
    0.8777    1.3972    0.0080 O   0  0  0  0  0  0  0  0  0  0  0  0
    3.2378   -0.9245    0.2410 H   0  0  0  0  0  0  0  0  0  0  0  0
    1.6953   -1.2418    1.0661 H   0  0  0  0  0  0  0  0  0  0  0  0
    2.6434    0.2661    1.4810 H   0  0  0  0  0  0  0  0  0  0  0  0
    2.4077    0.7374   -1.1070 H   0  0  0  0  0  0  0  0  0  0  0  0
    1.4022   -1.2563   -1.9616 H   0  0  0  0  0  0  0  0  0  0  0  0
   -1.0034   -1.5278   -1.6943 H   0  0  0  0  0  0  0  0  0  0  0  0
   -1.2660   -1.4907    1.3470 H   0  0  0  0  0  0  0  0  0  0  0  0
   -2.2935   -0.0995    1.7327 H   0  0  0  0  0  0  0  0  0  0  0  0
   -2.7746   -1.3036    0.4205 H   0  0  0  0  0  0  0  0  0  0  0  0
   -2.4331    1.9116   -0.1341 H   0  0  0  0  0  0  0  0  0  0  0  0
   -1.2354    1.7193   -1.5481 H   0  0  0  0  0  0  0  0  0  0  0  0
   -0.5726    1.5001    1.5088 H   0  0  0  0  0  0  0  0  0  0  0  0
  1  2  1  0
  2  3  1  0
  3  4  2  0
  4  5  1  0
  5  6  1  0
  5  7  1  0
  7  8  1  0
  8  9  1  0
  9  2  1  0
  8  5  1  0
  1 10  1  0
  1 11  1  0
  1 12  1  0
  2 13  1  0
  3 14  1  0
  4 15  1  0
  6 16  1  0
  6 17  1  0
  6 18  1  0
  7 19  1  0
  7 20  1  0
  8 21  1  0
M  END
