
     RDKit          3D

 21 21  0  0  0  0  0  0  0  0999 V2000
   -2.5964    0.1380    0.6496 C   0  0  0  0  0  0  0  0  0  0  0  0
   -1.7075    0.9603   -0.2327 C   0  0  0  0  0  0  0  0  0  0  0  0
   -0.8108    0.0310   -1.0531 C   0  0  0  0  0  0  0  0  0  0  0  0
    0.0088    0.1878    0.1995 C   0  0  0  0  0  0  0  0  0  0  0  0
    1.4979    0.1474   -0.0472 C   0  0  0  0  0  0  0  0  0  0  0  0
    1.8255   -1.1959   -0.6688 C   0  0  0  0  0  0  0  0  0  0  0  0
    2.2887    0.4391    1.1563 C   0  0  0  0  0  0  0  0  0  0  0  0
    3.0976    1.3485    1.2289 O   0  0  0  0  0  0  0  0  0  0  0  0
   -0.5445    1.4397    0.3665 O   0  0  0  0  0  0  0  0  0  0  0  0
   -2.3552   -0.9589    0.6121 H   0  0  0  0  0  0  0  0  0  0  0  0
   -2.5741    0.4554    1.7118 H   0  0  0  0  0  0  0  0  0  0  0  0
   -3.6363    0.2166    0.2431 H   0  0  0  0  0  0  0  0  0  0  0  0
   -2.2118    1.7425   -0.7996 H   0  0  0  0  0  0  0  0  0  0  0  0
   -1.2555   -0.9737   -1.2120 H   0  0  0  0  0  0  0  0  0  0  0  0
   -0.3525    0.4991   -1.9290 H   0  0  0  0  0  0  0  0  0  0  0  0
   -0.2563   -0.4901    1.0244 H   0  0  0  0  0  0  0  0  0  0  0  0
    1.7513    0.9223   -0.8148 H   0  0  0  0  0  0  0  0  0  0  0  0
    2.1221   -1.1099   -1.7349 H   0  0  0  0  0  0  0  0  0  0  0  0
    0.9359   -1.8806   -0.6485 H   0  0  0  0  0  0  0  0  0  0  0  0
    2.6159   -1.7392   -0.0891 H   0  0  0  0  0  0  0  0  0  0  0  0
    2.1573   -0.1794    2.0376 H   0  0  0  0  0  0  0  0  0  0  0  0
  1  2  1  0
  2  3  1  0
  3  4  1  0
  4  5  1  0
  5  6  1  0
  5  7  1  0
  7  8  2  0
  4  9  1  0
  9  2  1  0
  1 10  1  0
  1 11  1  0
  1 12  1  0
  2 13  1  0
  3 14  1  0
  3 15  1  0
  4 16  1  0
  5 17  1  0
  6 18  1  0
  6 19  1  0
  6 20  1  0
  7 21  1  0
M  END
