
     RDKit          3D

 19 20  0  0  0  0  0  0  0  0999 V2000
    2.3060   -0.3828    0.0888 C   0  0  0  0  0  0  0  0  0  0  0  0
    0.8998   -0.7749   -0.1389 C   0  0  0  0  0  0  0  0  0  0  0  0
   -0.0815   -0.3955    0.9854 C   0  0  0  0  0  0  0  0  0  0  0  0
    0.1897    0.9748    1.1911 O   0  0  0  0  0  0  0  0  0  0  0  0
    0.2662    1.4544   -0.1404 C   0  0  0  0  0  0  0  0  0  0  0  0
    0.4748    2.6294   -0.5284 O   0  0  0  0  0  0  0  0  0  0  0  0
    0.0406    0.2316   -0.9078 C   0  0  0  0  0  0  0  0  0  0  0  0
   -1.1024   -0.4560   -0.1488 C   0  0  0  0  0  0  0  0  0  0  0  0
   -2.3290    0.3442    0.0221 C   0  0  0  0  0  0  0  0  0  0  0  0
    2.4128    0.1879    1.0428 H   0  0  0  0  0  0  0  0  0  0  0  0
    2.7682    0.1723   -0.7746 H   0  0  0  0  0  0  0  0  0  0  0  0
    2.9131   -1.3258    0.2250 H   0  0  0  0  0  0  0  0  0  0  0  0
    0.7159   -1.8016   -0.5181 H   0  0  0  0  0  0  0  0  0  0  0  0
   -0.1803   -1.0595    1.7988 H   0  0  0  0  0  0  0  0  0  0  0  0
    0.0384    0.2045   -1.9540 H   0  0  0  0  0  0  0  0  0  0  0  0
   -1.2471   -1.5144   -0.4442 H   0  0  0  0  0  0  0  0  0  0  0  0
   -2.6117    0.3539    1.0989 H   0  0  0  0  0  0  0  0  0  0  0  0
   -2.3029    1.3623   -0.4018 H   0  0  0  0  0  0  0  0  0  0  0  0
   -3.1708   -0.2047   -0.4956 H   0  0  0  0  0  0  0  0  0  0  0  0
  1  2  1  0
  2  3  1  0
  3  4  1  0
  4  5  1  0
  5  6  2  0
  5  7  1  0
  7  8  1  0
  8  9  1  0
  7  2  1  0
  8  3  1  0
  1 10  1  0
  1 11  1  0
  1 12  1  0
  2 13  1  0
  3 14  1  0
  7 15  1  0
  8 16  1  0
  9 17  1  0
  9 18  1  0
  9 19  1  0
M  END
