
     RDKit          3D

 16 17  0  0  0  0  0  0  0  0999 V2000
    1.8480    0.4819    0.0755 C   0  0  0  0  0  0  0  0  0  0  0  0
    0.6404   -0.3459   -0.2247 C   0  0  0  0  0  0  0  0  0  0  0  0
   -0.5774    0.4232   -0.6861 C   0  0  0  0  0  0  0  0  0  0  0  0
   -1.5921   -0.6915   -0.7312 C   0  0  0  0  0  0  0  0  0  0  0  0
   -1.3076   -1.3026    0.5189 O   0  0  0  0  0  0  0  0  0  0  0  0
   -0.2675   -0.5527    1.0006 C   0  0  0  0  0  0  0  0  0  0  0  0
   -0.7129    0.8389    0.7329 C   0  0  0  0  0  0  0  0  0  0  0  0
   -1.0238    1.8062    1.3809 O   0  0  0  0  0  0  0  0  0  0  0  0
    2.2264    1.0223   -0.8137 H   0  0  0  0  0  0  0  0  0  0  0  0
    2.6271   -0.1967    0.4823 H   0  0  0  0  0  0  0  0  0  0  0  0
    1.5569    1.2163    0.8710 H   0  0  0  0  0  0  0  0  0  0  0  0
    0.7911   -1.3070   -0.7238 H   0  0  0  0  0  0  0  0  0  0  0  0
   -0.5069    1.1314   -1.4550 H   0  0  0  0  0  0  0  0  0  0  0  0
   -1.2829   -1.3844   -1.5488 H   0  0  0  0  0  0  0  0  0  0  0  0
   -2.6258   -0.3576   -0.7990 H   0  0  0  0  0  0  0  0  0  0  0  0
    0.2069   -0.7817    1.9201 H   0  0  0  0  0  0  0  0  0  0  0  0
  1  2  1  0
  2  3  1  0
  3  4  1  0
  4  5  1  0
  5  6  1  0
  6  7  1  0
  7  8  2  0
  6  2  1  0
  7  3  1  0
  1  9  1  0
  1 10  1  0
  1 11  1  0
  2 12  1  0
  3 13  1  0
  4 14  1  0
  4 15  1  0
  6 16  1  0
M  END
