
     RDKit          2D

 21 23  0  0  0  0  0  0  0  0999 V2000
   -1.9330   -2.2500    0.0000 C   0  0  0  0  0  0  0  0  0  0  0  0
   -1.9330   -0.7500    0.0000 C   0  0  0  0  0  0  0  0  0  0  0  0
   -1.9330    0.7500    0.0000 C   0  0  0  0  0  0  0  0  0  0  0  0
    0.1160    1.2990    0.0000 C   0  0  0  0  0  0  0  0  0  0  0  0
    1.4151    2.0490    0.0000 O   0  0  0  0  0  0  0  0  0  0  0  0
    0.8660    0.0000    0.0000 C   0  0  0  0  0  0  0  0  0  0  0  0
   -0.4330    0.7500    0.0000 C   0  0  0  0  0  0  0  0  0  0  0  0
   -0.4330   -0.7500    0.0000 C   0  0  0  0  0  0  0  0  0  0  0  0
   -0.0448   -2.1989    0.0000 C   0  0  0  0  0  0  0  0  0  0  0  0
   -1.9330   -3.7500    0.0000 H   0  0  0  0  0  0  0  0  0  0  0  0
   -3.4330   -2.2500    0.0000 H   0  0  0  0  0  0  0  0  0  0  0  0
   -0.8720   -2.5146    0.0000 H   0  0  0  0  0  0  0  0  0  0  0  0
   -3.4330   -0.7500    0.0000 H   0  0  0  0  0  0  0  0  0  0  0  0
   -2.9937    1.8107    0.0000 H   0  0  0  0  0  0  0  0  0  0  0  0
   -0.3587    2.4175    0.0000 H   0  0  0  0  0  0  0  0  0  0  0  0
    1.4151    3.5490    0.0000 H   0  0  0  0  0  0  0  0  0  0  0  0
    2.3660    0.0000    0.0000 H   0  0  0  0  0  0  0  0  0  0  0  0
   -0.3221    1.5394    0.0000 H   0  0  0  0  0  0  0  0  0  0  0  0
    0.3434   -3.6478    0.0000 H   0  0  0  0  0  0  0  0  0  0  0  0
   -1.3567   -2.9262    0.0000 H   0  0  0  0  0  0  0  0  0  0  0  0
    1.4041   -1.8107    0.0000 H   0  0  0  0  0  0  0  0  0  0  0  0
  1  2  1  0
  2  3  1  0
  3  4  1  0
  4  5  1  0
  4  6  1  0
  6  7  1  0
  7  8  1  0
  8  9  1  0
  8  2  1  0
  7  3  1  0
  8  6  1  0
  1 10  1  0
  1 11  1  0
  1 12  1  0
  2 13  1  0
  3 14  1  0
  4 15  1  0
  5 16  1  0
  6 17  1  0
  7 18  1  0
  9 19  1  0
  9 20  1  0
  9 21  1  0
M  END
