
     RDKit          3D

 20 21  0  0  0  0  0  0  0  0999 V2000
   -2.3303    0.1250   -0.1342 C   0  0  0  0  0  0  0  0  0  0  0  0
   -0.8118    0.2799   -0.2818 C   0  0  0  0  0  0  0  0  0  0  0  0
   -0.1753   -1.0615   -0.6464 C   0  0  0  0  0  0  0  0  0  0  0  0
    1.2994   -0.9748   -0.3433 C   0  0  0  0  0  0  0  0  0  0  0  0
    1.8119    0.4226   -0.5013 C   0  0  0  0  0  0  0  0  0  0  0  0
    1.3126    0.5056    0.8967 C   0  0  0  0  0  0  0  0  0  0  0  0
   -0.1709    0.6946    1.0183 C   0  0  0  0  0  0  0  0  0  0  0  0
    1.5601   -0.8745    1.0238 O   0  0  0  0  0  0  0  0  0  0  0  0
   -2.5459   -0.3681    0.8104 H   0  0  0  0  0  0  0  0  0  0  0  0
   -2.7171   -0.3863   -1.0252 H   0  0  0  0  0  0  0  0  0  0  0  0
   -2.7201    1.1826   -0.1524 H   0  0  0  0  0  0  0  0  0  0  0  0
   -0.6749    1.0297   -1.0889 H   0  0  0  0  0  0  0  0  0  0  0  0
   -0.6358   -1.8048    0.0289 H   0  0  0  0  0  0  0  0  0  0  0  0
   -0.2901   -1.3153   -1.6964 H   0  0  0  0  0  0  0  0  0  0  0  0
    1.9221   -1.7500   -0.8351 H   0  0  0  0  0  0  0  0  0  0  0  0
    1.3571    1.0532   -1.2613 H   0  0  0  0  0  0  0  0  0  0  0  0
    2.9084    0.4734   -0.5408 H   0  0  0  0  0  0  0  0  0  0  0  0
    1.9031    1.1435    1.5611 H   0  0  0  0  0  0  0  0  0  0  0  0
   -0.4788    1.6746    1.3806 H   0  0  0  0  0  0  0  0  0  0  0  0
   -0.5236   -0.0494    1.7873 H   0  0  0  0  0  0  0  0  0  0  0  0
  1  2  1  0
  2  3  1  0
  3  4  1  0
  4  5  1  0
  5  6  1  0
  6  7  1  0
  6  8  1  0
  7  2  1  0
  8  4  1  0
  1  9  1  0
  1 10  1  0
  1 11  1  0
  2 12  1  0
  3 13  1  0
  3 14  1  0
  4 15  1  0
  5 16  1  0
  5 17  1  0
  6 18  1  0
  7 19  1  0
  7 20  1  0
M  END
