
     RDKit          3D

 21 23  0  0  0  0  0  0  0  0999 V2000
   -1.6909    1.0603    1.0708 C   0  0  0  0  0  0  0  0  0  0  0  0
   -1.3051    0.2703   -0.1405 C   0  0  0  0  0  0  0  0  0  0  0  0
   -1.5116   -1.2133    0.0609 C   0  0  0  0  0  0  0  0  0  0  0  0
   -0.0576   -1.4300   -0.2874 C   0  0  0  0  0  0  0  0  0  0  0  0
    0.5266   -0.8195   -1.5007 C   0  0  0  0  0  0  0  0  0  0  0  0
    0.1477    0.0105   -0.3458 C   0  0  0  0  0  0  0  0  0  0  0  0
    1.2011    0.7484    0.3992 C   0  0  0  0  0  0  0  0  0  0  0  0
    2.6068    0.4630    0.1679 C   0  0  0  0  0  0  0  0  0  0  0  0
    2.0071    1.5460   -0.5914 O   0  0  0  0  0  0  0  0  0  0  0  0
   -1.3844    2.1248    0.9829 H   0  0  0  0  0  0  0  0  0  0  0  0
   -1.3037    0.6064    1.9888 H   0  0  0  0  0  0  0  0  0  0  0  0
   -2.8131    1.0834    1.1005 H   0  0  0  0  0  0  0  0  0  0  0  0
   -1.7766    0.6372   -1.0714 H   0  0  0  0  0  0  0  0  0  0  0  0
   -2.2326   -1.6936   -0.6298 H   0  0  0  0  0  0  0  0  0  0  0  0
   -1.7358   -1.5285    1.0986 H   0  0  0  0  0  0  0  0  0  0  0  0
    0.5633   -2.1074    0.3264 H   0  0  0  0  0  0  0  0  0  0  0  0
   -0.0967   -0.6516   -2.4245 H   0  0  0  0  0  0  0  0  0  0  0  0
    1.5528   -1.1069   -1.7433 H   0  0  0  0  0  0  0  0  0  0  0  0
    0.9422    1.4488    1.2054 H   0  0  0  0  0  0  0  0  0  0  0  0
    3.3898    0.8631    0.8444 H   0  0  0  0  0  0  0  0  0  0  0  0
    2.9707   -0.3116   -0.5110 H   0  0  0  0  0  0  0  0  0  0  0  0
  1  2  1  0
  2  3  1  0
  3  4  1  0
  4  5  1  0
  5  6  1  0
  6  7  1  0
  7  8  1  0
  8  9  1  0
  6  2  1  0
  9  7  1  0
  6  4  1  0
  1 10  1  0
  1 11  1  0
  1 12  1  0
  2 13  1  0
  3 14  1  0
  3 15  1  0
  4 16  1  0
  5 17  1  0
  5 18  1  0
  7 19  1  0
  8 20  1  0
  8 21  1  0
M  END
