
     RDKit          3D

 21 21  0  0  0  0  0  0  0  0999 V2000
    0.4392    1.9903   -0.2615 C   0  0  0  0  0  0  0  0  0  0  0  0
   -0.0555    0.5944   -0.2572 C   0  0  0  0  0  0  0  0  0  0  0  0
   -1.5064    0.5949    0.2455 C   0  0  0  0  0  0  0  0  0  0  0  0
   -1.9980   -0.7915   -0.0192 C   0  0  0  0  0  0  0  0  0  0  0  0
   -3.1783   -1.0173   -0.1359 O   0  0  0  0  0  0  0  0  0  0  0  0
   -0.9278   -1.8244   -0.1203 C   0  0  0  0  0  0  0  0  0  0  0  0
    0.0289   -1.5241    0.8221 O   0  0  0  0  0  0  0  0  0  0  0  0
    0.7111   -0.3501    0.5978 C   0  0  0  0  0  0  0  0  0  0  0  0
    2.1032   -0.6123    0.0274 C   0  0  0  0  0  0  0  0  0  0  0  0
    1.2701    2.0965   -1.0129 H   0  0  0  0  0  0  0  0  0  0  0  0
    0.7083    2.3811    0.7189 H   0  0  0  0  0  0  0  0  0  0  0  0
   -0.3770    2.6484   -0.6634 H   0  0  0  0  0  0  0  0  0  0  0  0
   -0.1030    0.2185   -1.2922 H   0  0  0  0  0  0  0  0  0  0  0  0
   -2.0812    1.3659   -0.2668 H   0  0  0  0  0  0  0  0  0  0  0  0
   -1.4456    0.7189    1.3405 H   0  0  0  0  0  0  0  0  0  0  0  0
   -0.5034   -1.8475   -1.1583 H   0  0  0  0  0  0  0  0  0  0  0  0
   -1.3657   -2.7989    0.1332 H   0  0  0  0  0  0  0  0  0  0  0  0
    0.8974    0.1348    1.5962 H   0  0  0  0  0  0  0  0  0  0  0  0
    2.8004   -0.9740    0.8160 H   0  0  0  0  0  0  0  0  0  0  0  0
    2.0787   -1.3697   -0.7814 H   0  0  0  0  0  0  0  0  0  0  0  0
    2.5048    0.3660   -0.3284 H   0  0  0  0  0  0  0  0  0  0  0  0
  1  2  1  0
  2  3  1  0
  3  4  1  0
  4  5  2  0
  4  6  1  0
  6  7  1  0
  7  8  1  0
  8  9  1  0
  8  2  1  0
  1 10  1  0
  1 11  1  0
  1 12  1  0
  2 13  1  0
  3 14  1  0
  3 15  1  0
  6 16  1  0
  6 17  1  0
  8 18  1  0
  9 19  1  0
  9 20  1  0
  9 21  1  0
M  END
