
     RDKit          3D

 24 24  0  0  0  0  0  0  0  0999 V2000
    1.1020    1.8690    0.5526 C   0  0  0  0  0  0  0  0  0  0  0  0
    0.2110    0.6688    0.6500 C   0  0  0  0  0  0  0  0  0  0  0  0
   -0.5808    0.4556   -0.6283 C   0  0  0  0  0  0  0  0  0  0  0  0
   -1.9856    0.9334   -0.4427 C   0  0  0  0  0  0  0  0  0  0  0  0
   -0.3287   -1.0033   -0.4995 C   0  0  0  0  0  0  0  0  0  0  0  0
   -1.3307   -1.8179    0.2488 C   0  0  0  0  0  0  0  0  0  0  0  0
    0.8463   -0.6639    0.4298 C   0  0  0  0  0  0  0  0  0  0  0  0
    2.1239   -0.6934   -0.3442 C   0  0  0  0  0  0  0  0  0  0  0  0
    1.5285    1.9768   -0.4612 H   0  0  0  0  0  0  0  0  0  0  0  0
    0.4506    2.7690    0.7009 H   0  0  0  0  0  0  0  0  0  0  0  0
    1.8638    1.9152    1.3448 H   0  0  0  0  0  0  0  0  0  0  0  0
   -0.4388    0.6653    1.5394 H   0  0  0  0  0  0  0  0  0  0  0  0
   -0.1360    0.8925   -1.5350 H   0  0  0  0  0  0  0  0  0  0  0  0
   -2.2865    0.6945    0.6039 H   0  0  0  0  0  0  0  0  0  0  0  0
   -2.7014    0.5768   -1.1816 H   0  0  0  0  0  0  0  0  0  0  0  0
   -1.9604    2.0552   -0.5459 H   0  0  0  0  0  0  0  0  0  0  0  0
   -0.0235   -1.4747   -1.4411 H   0  0  0  0  0  0  0  0  0  0  0  0
   -1.9742   -2.3544   -0.4702 H   0  0  0  0  0  0  0  0  0  0  0  0
   -0.7704   -2.6280    0.8010 H   0  0  0  0  0  0  0  0  0  0  0  0
   -1.8875   -1.2695    1.0195 H   0  0  0  0  0  0  0  0  0  0  0  0
    0.8951   -1.2760    1.3406 H   0  0  0  0  0  0  0  0  0  0  0  0
    3.0061   -0.8445    0.3312 H   0  0  0  0  0  0  0  0  0  0  0  0
    2.1044   -1.6057   -0.9932 H   0  0  0  0  0  0  0  0  0  0  0  0
    2.2729    0.1594   -1.0196 H   0  0  0  0  0  0  0  0  0  0  0  0
  1  2  1  0
  2  3  1  0
  3  4  1  0
  3  5  1  0
  5  6  1  0
  5  7  1  0
  7  8  1  0
  7  2  1  0
  1  9  1  0
  1 10  1  0
  1 11  1  0
  2 12  1  0
  3 13  1  0
  4 14  1  0
  4 15  1  0
  4 16  1  0
  5 17  1  0
  6 18  1  0
  6 19  1  0
  6 20  1  0
  7 21  1  0
  8 22  1  0
  8 23  1  0
  8 24  1  0
M  END
