
     RDKit          3D

 21 22  0  0  0  0  0  0  0  0999 V2000
   -1.3532   -1.7051   -0.0499 C   0  0  0  0  0  0  0  0  0  0  0  0
   -0.4241   -0.6098    0.4833 C   0  0  0  0  0  0  0  0  0  0  0  0
   -1.1183    0.6965    0.2603 C   0  0  0  0  0  0  0  0  0  0  0  0
   -1.0173    1.5562    1.3721 O   0  0  0  0  0  0  0  0  0  0  0  0
   -0.3618    1.4137   -0.8658 C   0  0  0  0  0  0  0  0  0  0  0  0
    0.9189    1.6678   -0.3231 O   0  0  0  0  0  0  0  0  0  0  0  0
    1.6328    0.4909   -0.4511 C   0  0  0  0  0  0  0  0  0  0  0  0
    2.0788   -0.3153    0.6801 C   0  0  0  0  0  0  0  0  0  0  0  0
    0.8926   -0.7416   -0.1891 C   0  0  0  0  0  0  0  0  0  0  0  0
   -2.3272   -1.6160    0.4599 H   0  0  0  0  0  0  0  0  0  0  0  0
   -1.4811   -1.4642   -1.1373 H   0  0  0  0  0  0  0  0  0  0  0  0
   -0.8914   -2.6910    0.0116 H   0  0  0  0  0  0  0  0  0  0  0  0
   -0.3465   -0.8194    1.5880 H   0  0  0  0  0  0  0  0  0  0  0  0
   -2.1677    0.6187   -0.0351 H   0  0  0  0  0  0  0  0  0  0  0  0
   -1.1210    2.4807    1.0055 H   0  0  0  0  0  0  0  0  0  0  0  0
   -0.3023    0.6645   -1.6917 H   0  0  0  0  0  0  0  0  0  0  0  0
   -0.8701    2.3309   -1.1623 H   0  0  0  0  0  0  0  0  0  0  0  0
    2.3293    0.5108   -1.3382 H   0  0  0  0  0  0  0  0  0  0  0  0
    1.8828    0.0285    1.7089 H   0  0  0  0  0  0  0  0  0  0  0  0
    3.0039   -0.9236    0.5812 H   0  0  0  0  0  0  0  0  0  0  0  0
    1.0429   -1.5734   -0.9074 H   0  0  0  0  0  0  0  0  0  0  0  0
  1  2  1  0
  2  3  1  0
  3  4  1  0
  3  5  1  0
  5  6  1  0
  6  7  1  0
  7  8  1  0
  8  9  1  0
  9  2  1  0
  9  7  1  0
  1 10  1  0
  1 11  1  0
  1 12  1  0
  2 13  1  0
  3 14  1  0
  4 15  1  0
  5 16  1  0
  5 17  1  0
  7 18  1  0
  8 19  1  0
  8 20  1  0
  9 21  1  0
M  END
