
     RDKit          3D

 22 22  0  0  0  0  0  0  0  0999 V2000
    2.3015   -0.9348   -0.1087 C   0  0  0  0  0  0  0  0  0  0  0  0
    1.0297   -0.2355   -0.4070 C   0  0  0  0  0  0  0  0  0  0  0  0
    1.0049    1.2184   -0.0958 C   0  0  0  0  0  0  0  0  0  0  0  0
   -0.1364    1.6872    0.7157 C   0  0  0  0  0  0  0  0  0  0  0  0
   -1.3500    1.1419    0.4589 O   0  0  0  0  0  0  0  0  0  0  0  0
   -1.3473   -0.0351   -0.2455 C   0  0  0  0  0  0  0  0  0  0  0  0
   -2.6328   -0.7712   -0.1958 C   0  0  0  0  0  0  0  0  0  0  0  0
   -0.1781   -0.8675    0.2980 C   0  0  0  0  0  0  0  0  0  0  0  0
    2.2381   -1.6824    0.7073 H   0  0  0  0  0  0  0  0  0  0  0  0
    2.7404   -1.4230   -1.0210 H   0  0  0  0  0  0  0  0  0  0  0  0
    3.0556   -0.1614    0.2030 H   0  0  0  0  0  0  0  0  0  0  0  0
    0.8072   -0.3694   -1.5060 H   0  0  0  0  0  0  0  0  0  0  0  0
    1.9533    1.4541    0.4702 H   0  0  0  0  0  0  0  0  0  0  0  0
    1.0770    1.8192   -1.0362 H   0  0  0  0  0  0  0  0  0  0  0  0
    0.0881    1.5855    1.8177 H   0  0  0  0  0  0  0  0  0  0  0  0
   -0.2252    2.8052    0.5710 H   0  0  0  0  0  0  0  0  0  0  0  0
   -1.1576    0.2376   -1.3265 H   0  0  0  0  0  0  0  0  0  0  0  0
   -2.6943   -1.4047   -1.1303 H   0  0  0  0  0  0  0  0  0  0  0  0
   -2.7788   -1.4271    0.6667 H   0  0  0  0  0  0  0  0  0  0  0  0
   -3.4612   -0.0380   -0.3037 H   0  0  0  0  0  0  0  0  0  0  0  0
   -0.0517   -0.6714    1.3918 H   0  0  0  0  0  0  0  0  0  0  0  0
   -0.2824   -1.9276    0.0763 H   0  0  0  0  0  0  0  0  0  0  0  0
  1  2  1  0
  2  3  1  0
  3  4  1  0
  4  5  1  0
  5  6  1  0
  6  7  1  0
  6  8  1  0
  8  2  1  0
  1  9  1  0
  1 10  1  0
  1 11  1  0
  2 12  1  0
  3 13  1  0
  3 14  1  0
  4 15  1  0
  4 16  1  0
  6 17  1  0
  7 18  1  0
  7 19  1  0
  7 20  1  0
  8 21  1  0
  8 22  1  0
M  END
