
     RDKit          3D

 21 22  0  0  0  0  0  0  0  0999 V2000
   -1.8826   -0.1387   -1.0383 C   0  0  0  0  0  0  0  0  0  0  0  0
   -0.4947   -0.5583   -0.7367 C   0  0  0  0  0  0  0  0  0  0  0  0
   -0.3595   -1.2341    0.6266 C   0  0  0  0  0  0  0  0  0  0  0  0
   -0.3006   -0.2513    1.5173 C   0  0  0  0  0  0  0  0  0  0  0  0
   -0.3965    0.9871    0.8108 C   0  0  0  0  0  0  0  0  0  0  0  0
    0.3903    1.8553    0.0427 C   0  0  0  0  0  0  0  0  0  0  0  0
    0.4690    0.5403   -0.4078 C   0  0  0  0  0  0  0  0  0  0  0  0
    1.8180   -0.1290   -0.1239 C   0  0  0  0  0  0  0  0  0  0  0  0
    1.8320   -1.0135    0.9050 O   0  0  0  0  0  0  0  0  0  0  0  0
   -1.9926    0.9286   -1.3566 H   0  0  0  0  0  0  0  0  0  0  0  0
   -2.5483   -0.4157   -0.1945 H   0  0  0  0  0  0  0  0  0  0  0  0
   -2.2900   -0.7399   -1.9073 H   0  0  0  0  0  0  0  0  0  0  0  0
   -0.0979   -1.2117   -1.5321 H   0  0  0  0  0  0  0  0  0  0  0  0
   -0.3279   -2.3056    0.7333 H   0  0  0  0  0  0  0  0  0  0  0  0
   -0.1955   -0.4017    2.6073 H   0  0  0  0  0  0  0  0  0  0  0  0
   -1.5175    1.1384    0.6038 H   0  0  0  0  0  0  0  0  0  0  0  0
   -0.0711    2.6241   -0.6276 H   0  0  0  0  0  0  0  0  0  0  0  0
    1.2597    2.3458    0.5715 H   0  0  0  0  0  0  0  0  0  0  0  0
    2.6325    0.6288   -0.0921 H   0  0  0  0  0  0  0  0  0  0  0  0
    2.0262   -0.7019   -1.0676 H   0  0  0  0  0  0  0  0  0  0  0  0
    2.0470   -1.9469    0.6665 H   0  0  0  0  0  0  0  0  0  0  0  0
  1  2  1  0
  2  3  1  0
  3  4  2  0
  4  5  1  0
  5  6  1  0
  6  7  1  0
  7  8  1  0
  8  9  1  0
  7  2  1  0
  7  5  1  0
  1 10  1  0
  1 11  1  0
  1 12  1  0
  2 13  1  0
  3 14  1  0
  4 15  1  0
  5 16  1  0
  6 17  1  0
  6 18  1  0
  8 19  1  0
  8 20  1  0
  9 21  1  0
M  END
