
     RDKit          3D

 21 23  0  0  0  0  0  0  0  0999 V2000
    2.4803    0.1790   -0.0381 C   0  0  0  0  0  0  0  0  0  0  0  0
    1.0727    0.6489    0.1850 C   0  0  0  0  0  0  0  0  0  0  0  0
    0.1718   -0.4377    0.7843 C   0  0  0  0  0  0  0  0  0  0  0  0
   -1.0990    0.2611    1.2875 C   0  0  0  0  0  0  0  0  0  0  0  0
   -1.8019    0.5271   -0.0268 C   0  0  0  0  0  0  0  0  0  0  0  0
   -1.6397   -0.8621   -0.6722 C   0  0  0  0  0  0  0  0  0  0  0  0
   -0.1255   -0.8768   -0.6060 C   0  0  0  0  0  0  0  0  0  0  0  0
    0.1759    0.5375   -1.0486 C   0  0  0  0  0  0  0  0  0  0  0  0
   -0.9724    1.2826   -0.8427 O   0  0  0  0  0  0  0  0  0  0  0  0
    2.9951    0.2068    0.9431 H   0  0  0  0  0  0  0  0  0  0  0  0
    2.9991    0.7763   -0.8108 H   0  0  0  0  0  0  0  0  0  0  0  0
    2.4435   -0.9121   -0.3151 H   0  0  0  0  0  0  0  0  0  0  0  0
    0.9726    1.6029    0.7369 H   0  0  0  0  0  0  0  0  0  0  0  0
    0.6419   -1.1184    1.4723 H   0  0  0  0  0  0  0  0  0  0  0  0
   -1.6409   -0.4251    1.9371 H   0  0  0  0  0  0  0  0  0  0  0  0
   -0.7984    1.1937    1.7781 H   0  0  0  0  0  0  0  0  0  0  0  0
   -2.8172    0.8522    0.0424 H   0  0  0  0  0  0  0  0  0  0  0  0
   -2.0272   -0.7592   -1.6906 H   0  0  0  0  0  0  0  0  0  0  0  0
   -2.1145   -1.6295   -0.0626 H   0  0  0  0  0  0  0  0  0  0  0  0
    0.4016   -1.6837   -1.0538 H   0  0  0  0  0  0  0  0  0  0  0  0
    0.6819    0.6367   -1.9994 H   0  0  0  0  0  0  0  0  0  0  0  0
  1  2  1  0
  2  3  1  0
  3  4  1  0
  4  5  1  0
  5  6  1  0
  6  7  1  0
  7  8  1  0
  8  9  1  0
  8  2  1  0
  7  3  1  0
  9  5  1  0
  1 10  1  0
  1 11  1  0
  1 12  1  0
  2 13  1  0
  3 14  1  0
  4 15  1  0
  4 16  1  0
  5 17  1  0
  6 18  1  0
  6 19  1  0
  7 20  1  0
  8 21  1  0
M  END
