
     RDKit          3D

 19 21  0  0  0  0  0  0  0  0999 V2000
   -1.7225    1.1178    0.6993 C   0  0  0  0  0  0  0  0  0  0  0  0
   -1.0193    0.2743   -0.3387 C   0  0  0  0  0  0  0  0  0  0  0  0
   -1.3950   -1.1796   -0.1865 C   0  0  0  0  0  0  0  0  0  0  0  0
   -0.9267   -1.9280    0.8582 O   0  0  0  0  0  0  0  0  0  0  0  0
   -0.0139   -1.5422   -0.1068 C   0  0  0  0  0  0  0  0  0  0  0  0
    0.3812   -0.0995   -0.0341 C   0  0  0  0  0  0  0  0  0  0  0  0
    1.4696    0.3880   -0.8844 C   0  0  0  0  0  0  0  0  0  0  0  0
    2.1931    0.2884    0.4641 C   0  0  0  0  0  0  0  0  0  0  0  0
    0.9441    0.3298    1.1294 O   0  0  0  0  0  0  0  0  0  0  0  0
   -1.1970    1.0269    1.6837 H   0  0  0  0  0  0  0  0  0  0  0  0
   -2.7755    0.7627    0.7796 H   0  0  0  0  0  0  0  0  0  0  0  0
   -1.7093    2.1880    0.3696 H   0  0  0  0  0  0  0  0  0  0  0  0
   -1.2102    0.6125   -1.3857 H   0  0  0  0  0  0  0  0  0  0  0  0
   -2.1856   -1.6238   -0.7798 H   0  0  0  0  0  0  0  0  0  0  0  0
    0.4657   -2.2466   -0.7735 H   0  0  0  0  0  0  0  0  0  0  0  0
    1.3703    1.4270   -1.2485 H   0  0  0  0  0  0  0  0  0  0  0  0
    1.9298   -0.2617   -1.6251 H   0  0  0  0  0  0  0  0  0  0  0  0
    2.7658    1.1685    0.7490 H   0  0  0  0  0  0  0  0  0  0  0  0
    2.6352   -0.7026    0.6303 H   0  0  0  0  0  0  0  0  0  0  0  0
  1  2  1  0
  2  3  1  0
  3  4  1  0
  4  5  1  0
  5  6  1  0
  6  7  1  0
  7  8  1  0
  8  9  1  0
  6  2  1  0
  5  3  1  0
  9  6  1  0
  1 10  1  0
  1 11  1  0
  1 12  1  0
  2 13  1  0
  3 14  1  0
  5 15  1  0
  7 16  1  0
  7 17  1  0
  8 18  1  0
  8 19  1  0
M  END
