
     RDKit          3D

 21 22  0  0  0  0  0  0  0  0999 V2000
    2.6599   -0.2518   -0.3247 C   0  0  0  0  0  0  0  0  0  0  0  0
    1.2029   -0.4433    0.1147 C   0  0  0  0  0  0  0  0  0  0  0  0
    0.8163    0.8137    0.8089 C   0  0  0  0  0  0  0  0  0  0  0  0
   -0.3043    1.5091    0.6306 C   0  0  0  0  0  0  0  0  0  0  0  0
   -1.4494    1.2787   -0.2508 C   0  0  0  0  0  0  0  0  0  0  0  0
   -1.8355   -0.1636   -0.4134 C   0  0  0  0  0  0  0  0  0  0  0  0
   -1.3992   -1.2186    0.4998 C   0  0  0  0  0  0  0  0  0  0  0  0
   -0.7972   -1.0848   -0.8461 C   0  0  0  0  0  0  0  0  0  0  0  0
    0.4591   -0.5912   -1.0558 O   0  0  0  0  0  0  0  0  0  0  0  0
    2.6462    0.6698   -0.9663 H   0  0  0  0  0  0  0  0  0  0  0  0
    3.2287   -0.0021    0.6003 H   0  0  0  0  0  0  0  0  0  0  0  0
    3.0458   -1.1272   -0.8591 H   0  0  0  0  0  0  0  0  0  0  0  0
    1.0764   -1.3434    0.7197 H   0  0  0  0  0  0  0  0  0  0  0  0
    1.5195    1.2030    1.5344 H   0  0  0  0  0  0  0  0  0  0  0  0
   -0.3810    2.4009    1.2436 H   0  0  0  0  0  0  0  0  0  0  0  0
   -2.3307    1.7980    0.1810 H   0  0  0  0  0  0  0  0  0  0  0  0
   -1.3150    1.7503   -1.2679 H   0  0  0  0  0  0  0  0  0  0  0  0
   -2.8839   -0.2722   -0.8236 H   0  0  0  0  0  0  0  0  0  0  0  0
   -0.8012   -0.9791    1.4274 H   0  0  0  0  0  0  0  0  0  0  0  0
   -2.0477   -2.0999    0.6678 H   0  0  0  0  0  0  0  0  0  0  0  0
   -1.1096   -1.8463   -1.6205 H   0  0  0  0  0  0  0  0  0  0  0  0
  1  2  1  0
  2  3  1  0
  3  4  2  0
  4  5  1  0
  5  6  1  0
  6  7  1  0
  7  8  1  0
  8  9  1  0
  9  2  1  0
  8  6  1  0
  1 10  1  0
  1 11  1  0
  1 12  1  0
  2 13  1  0
  3 14  1  0
  4 15  1  0
  5 16  1  0
  5 17  1  0
  6 18  1  0
  7 19  1  0
  7 20  1  0
  8 21  1  0
M  END
