
     RDKit          3D

 21 22  0  0  0  0  0  0  0  0999 V2000
   -2.5743    0.1700    0.6365 C   0  0  0  0  0  0  0  0  0  0  0  0
   -1.4439    0.3073   -0.3821 C   0  0  0  0  0  0  0  0  0  0  0  0
   -0.7030   -0.9875   -0.5761 C   0  0  0  0  0  0  0  0  0  0  0  0
    0.7229   -0.5364   -0.6933 C   0  0  0  0  0  0  0  0  0  0  0  0
    1.6226   -0.9398    0.4381 C   0  0  0  0  0  0  0  0  0  0  0  0
    1.6161    0.4874    0.9138 C   0  0  0  0  0  0  0  0  0  0  0  0
    2.8815    1.0592    0.7304 O   0  0  0  0  0  0  0  0  0  0  0  0
    0.7134    0.8780   -0.2265 C   0  0  0  0  0  0  0  0  0  0  0  0
   -0.5679    1.2387    0.0976 O   0  0  0  0  0  0  0  0  0  0  0  0
   -2.5336    0.9885    1.3940 H   0  0  0  0  0  0  0  0  0  0  0  0
   -3.5680    0.2413    0.1639 H   0  0  0  0  0  0  0  0  0  0  0  0
   -2.5285   -0.8061    1.1665 H   0  0  0  0  0  0  0  0  0  0  0  0
   -1.8857    0.6806   -1.3303 H   0  0  0  0  0  0  0  0  0  0  0  0
   -1.0288   -1.5627   -1.4526 H   0  0  0  0  0  0  0  0  0  0  0  0
   -0.8737   -1.6182    0.3294 H   0  0  0  0  0  0  0  0  0  0  0  0
    1.2066   -0.6612   -1.6699 H   0  0  0  0  0  0  0  0  0  0  0  0
    1.1043   -1.6720    1.0910 H   0  0  0  0  0  0  0  0  0  0  0  0
    2.6160   -1.3279    0.1300 H   0  0  0  0  0  0  0  0  0  0  0  0
    1.2217    0.6489    1.9289 H   0  0  0  0  0  0  0  0  0  0  0  0
    2.8348    1.8263    0.1028 H   0  0  0  0  0  0  0  0  0  0  0  0
    1.1676    1.5855   -0.9647 H   0  0  0  0  0  0  0  0  0  0  0  0
  1  2  1  0
  2  3  1  0
  3  4  1  0
  4  5  1  0
  5  6  1  0
  6  7  1  0
  6  8  1  0
  8  9  1  0
  9  2  1  0
  8  4  1  0
  1 10  1  0
  1 11  1  0
  1 12  1  0
  2 13  1  0
  3 14  1  0
  3 15  1  0
  4 16  1  0
  5 17  1  0
  5 18  1  0
  6 19  1  0
  7 20  1  0
  8 21  1  0
M  END
