
     RDKit          3D

 23 24  0  0  0  0  0  0  0  0999 V2000
   -1.1834    1.9573    0.9397 C   0  0  0  0  0  0  0  0  0  0  0  0
   -0.9338    0.4578    0.8350 C   0  0  0  0  0  0  0  0  0  0  0  0
   -1.0883   -0.0952   -0.6055 C   0  0  0  0  0  0  0  0  0  0  0  0
   -1.8011   -1.4057   -0.7702 C   0  0  0  0  0  0  0  0  0  0  0  0
    0.1665   -0.1042    0.1366 C   0  0  0  0  0  0  0  0  0  0  0  0
    0.9504   -1.3149    0.4703 C   0  0  0  0  0  0  0  0  0  0  0  0
    1.9706   -0.8409   -0.5784 C   0  0  0  0  0  0  0  0  0  0  0  0
    1.3999    0.5664   -0.3420 C   0  0  0  0  0  0  0  0  0  0  0  0
    2.1866    1.1985    0.6185 O   0  0  0  0  0  0  0  0  0  0  0  0
   -0.6860    2.4001    1.8225 H   0  0  0  0  0  0  0  0  0  0  0  0
   -0.8782    2.4826   -0.0016 H   0  0  0  0  0  0  0  0  0  0  0  0
   -2.2700    2.1735    1.0531 H   0  0  0  0  0  0  0  0  0  0  0  0
   -1.5194   -0.1174    1.5730 H   0  0  0  0  0  0  0  0  0  0  0  0
   -1.1845    0.6585   -1.4166 H   0  0  0  0  0  0  0  0  0  0  0  0
   -1.5294   -1.8099   -1.7680 H   0  0  0  0  0  0  0  0  0  0  0  0
   -1.4912   -2.1061    0.0172 H   0  0  0  0  0  0  0  0  0  0  0  0
   -2.8963   -1.2321   -0.7502 H   0  0  0  0  0  0  0  0  0  0  0  0
    1.4761   -1.2806    1.4665 H   0  0  0  0  0  0  0  0  0  0  0  0
    0.5238   -2.2972    0.2844 H   0  0  0  0  0  0  0  0  0  0  0  0
    3.0182   -0.9467   -0.2686 H   0  0  0  0  0  0  0  0  0  0  0  0
    1.7090   -1.2536   -1.5813 H   0  0  0  0  0  0  0  0  0  0  0  0
    1.2244    1.1460   -1.2526 H   0  0  0  0  0  0  0  0  0  0  0  0
    2.8360    1.7637    0.1184 H   0  0  0  0  0  0  0  0  0  0  0  0
  1  2  1  0
  2  3  1  0
  3  4  1  0
  3  5  1  0
  5  6  1  0
  6  7  1  0
  7  8  1  0
  8  9  1  0
  5  2  1  0
  8  5  1  0
  1 10  1  0
  1 11  1  0
  1 12  1  0
  2 13  1  0
  3 14  1  0
  4 15  1  0
  4 16  1  0
  4 17  1  0
  6 18  1  0
  6 19  1  0
  7 20  1  0
  7 21  1  0
  8 22  1  0
  9 23  1  0
M  END
