
     RDKit          3D

 19 19  0  0  0  0  0  0  0  0999 V2000
   -2.0313    0.5954   -0.3444 C   0  0  0  0  0  0  0  0  0  0  0  0
   -0.5978    0.2474   -0.4270 C   0  0  0  0  0  0  0  0  0  0  0  0
   -0.3976   -1.1827   -0.8967 C   0  0  0  0  0  0  0  0  0  0  0  0
    0.8352   -1.5809   -0.4619 O   0  0  0  0  0  0  0  0  0  0  0  0
    1.3331   -0.6503    0.4209 C   0  0  0  0  0  0  0  0  0  0  0  0
    2.1847    0.3085   -0.3215 C   0  0  0  0  0  0  0  0  0  0  0  0
    2.7576    1.2479    0.2274 O   0  0  0  0  0  0  0  0  0  0  0  0
    0.0856    0.0955    0.9176 C   0  0  0  0  0  0  0  0  0  0  0  0
    0.4028    1.3019    1.4985 O   0  0  0  0  0  0  0  0  0  0  0  0
   -2.6603   -0.2928   -0.5863 H   0  0  0  0  0  0  0  0  0  0  0  0
   -2.2587    1.3329   -1.1703 H   0  0  0  0  0  0  0  0  0  0  0  0
   -2.3448    1.1022    0.5855 H   0  0  0  0  0  0  0  0  0  0  0  0
    0.0096    0.9443   -1.0426 H   0  0  0  0  0  0  0  0  0  0  0  0
   -1.1601   -1.7852   -0.3189 H   0  0  0  0  0  0  0  0  0  0  0  0
   -0.5692   -1.2878   -1.9820 H   0  0  0  0  0  0  0  0  0  0  0  0
    1.8693   -1.1189    1.2811 H   0  0  0  0  0  0  0  0  0  0  0  0
    2.3313    0.2109   -1.3841 H   0  0  0  0  0  0  0  0  0  0  0  0
   -0.4391   -0.6080    1.5632 H   0  0  0  0  0  0  0  0  0  0  0  0
    0.6497    1.1197    2.4413 H   0  0  0  0  0  0  0  0  0  0  0  0
  1  2  1  0
  2  3  1  0
  3  4  1  0
  4  5  1  0
  5  6  1  0
  6  7  2  0
  5  8  1  0
  8  9  1  0
  8  2  1  0
  1 10  1  0
  1 11  1  0
  1 12  1  0
  2 13  1  0
  3 14  1  0
  3 15  1  0
  5 16  1  0
  6 17  1  0
  8 18  1  0
  9 19  1  0
M  END
