
     RDKit          3D

 20 21  0  0  0  0  0  0  0  0999 V2000
    2.7797    0.4291   -0.3616 C   0  0  0  0  0  0  0  0  0  0  0  0
    1.4796   -0.3222   -0.4208 C   0  0  0  0  0  0  0  0  0  0  0  0
    0.5702   -0.0704    0.7394 C   0  0  0  0  0  0  0  0  0  0  0  0
   -0.6767   -0.9004    0.7648 C   0  0  0  0  0  0  0  0  0  0  0  0
   -1.1019   -0.1945   -0.5160 C   0  0  0  0  0  0  0  0  0  0  0  0
   -2.2729    0.7040   -0.2156 C   0  0  0  0  0  0  0  0  0  0  0  0
   -1.3692   -1.0328   -1.5679 O   0  0  0  0  0  0  0  0  0  0  0  0
    0.2303    0.4675   -0.6022 C   0  0  0  0  0  0  0  0  0  0  0  0
    2.7531    1.3962   -0.8554 H   0  0  0  0  0  0  0  0  0  0  0  0
    3.6175   -0.1900   -0.7810 H   0  0  0  0  0  0  0  0  0  0  0  0
    3.0556    0.5740    0.7161 H   0  0  0  0  0  0  0  0  0  0  0  0
    1.4580   -1.3252   -0.9127 H   0  0  0  0  0  0  0  0  0  0  0  0
    0.8426    0.5983    1.5530 H   0  0  0  0  0  0  0  0  0  0  0  0
   -1.3076   -0.7374    1.6333 H   0  0  0  0  0  0  0  0  0  0  0  0
   -0.4187   -1.9717    0.5936 H   0  0  0  0  0  0  0  0  0  0  0  0
   -3.0869    0.0358    0.1931 H   0  0  0  0  0  0  0  0  0  0  0  0
   -2.0691    1.4274    0.6028 H   0  0  0  0  0  0  0  0  0  0  0  0
   -2.6877    1.1842   -1.1117 H   0  0  0  0  0  0  0  0  0  0  0  0
   -2.1510   -1.5803   -1.3471 H   0  0  0  0  0  0  0  0  0  0  0  0
    0.3550    1.5083   -0.8846 H   0  0  0  0  0  0  0  0  0  0  0  0
  1  2  1  0
  2  3  1  0
  3  4  1  0
  4  5  1  0
  5  6  1  0
  5  7  1  0
  5  8  1  0
  8  2  1  0
  8  3  1  0
  1  9  1  0
  1 10  1  0
  1 11  1  0
  2 12  1  0
  3 13  1  0
  4 14  1  0
  4 15  1  0
  6 16  1  0
  6 17  1  0
  6 18  1  0
  7 19  1  0
  8 20  1  0
M  END
