
     RDKit          3D

 17 19  0  0  0  0  0  0  0  0999 V2000
   -1.8349    0.3034   -0.2980 C   0  0  0  0  0  0  0  0  0  0  0  0
   -0.8081   -0.7571    0.1204 C   0  0  0  0  0  0  0  0  0  0  0  0
   -0.3337   -0.3726    1.4683 C   0  0  0  0  0  0  0  0  0  0  0  0
   -0.8535   -0.5647    2.5362 O   0  0  0  0  0  0  0  0  0  0  0  0
    0.9595    0.3273    1.2768 C   0  0  0  0  0  0  0  0  0  0  0  0
    1.2356    1.0173   -0.0085 C   0  0  0  0  0  0  0  0  0  0  0  0
    0.5261    0.7390   -1.1574 O   0  0  0  0  0  0  0  0  0  0  0  0
    0.4183   -0.6077   -0.7884 C   0  0  0  0  0  0  0  0  0  0  0  0
    1.5571   -0.3935    0.1552 C   0  0  0  0  0  0  0  0  0  0  0  0
   -1.5360    1.2793    0.1809 H   0  0  0  0  0  0  0  0  0  0  0  0
   -1.8050    0.4759   -1.3860 H   0  0  0  0  0  0  0  0  0  0  0  0
   -2.8317    0.0522    0.0955 H   0  0  0  0  0  0  0  0  0  0  0  0
   -1.2384   -1.7647    0.0689 H   0  0  0  0  0  0  0  0  0  0  0  0
    1.5100    0.7051    2.1460 H   0  0  0  0  0  0  0  0  0  0  0  0
    2.0088    1.7732   -0.0552 H   0  0  0  0  0  0  0  0  0  0  0  0
    0.5179   -1.3432   -1.5719 H   0  0  0  0  0  0  0  0  0  0  0  0
    2.5079   -0.8691    0.0975 H   0  0  0  0  0  0  0  0  0  0  0  0
  1  2  1  0
  2  3  1  0
  3  4  2  0
  3  5  1  0
  5  6  1  0
  6  7  1  0
  7  8  1  0
  8  9  1  0
  8  2  1  0
  9  5  1  0
  9  6  1  0
  1 10  1  0
  1 11  1  0
  1 12  1  0
  2 13  1  0
  5 14  1  0
  6 15  1  0
  8 16  1  0
  9 17  1  0
M  END
