
     RDKit          3D

 21 22  0  0  0  0  0  0  0  0999 V2000
    2.3492   -0.7338    0.0199 C   0  0  0  0  0  0  0  0  0  0  0  0
    0.9593   -0.2339    0.3220 C   0  0  0  0  0  0  0  0  0  0  0  0
    0.9916    1.2261    0.6282 C   0  0  0  0  0  0  0  0  0  0  0  0
   -0.0415    1.8398    0.0709 C   0  0  0  0  0  0  0  0  0  0  0  0
   -0.8727    0.8373   -0.6695 C   0  0  0  0  0  0  0  0  0  0  0  0
   -1.9149    0.2127    0.2186 C   0  0  0  0  0  0  0  0  0  0  0  0
   -1.6487   -1.2871    0.1042 C   0  0  0  0  0  0  0  0  0  0  0  0
   -0.7402   -1.4026   -0.9178 O   0  0  0  0  0  0  0  0  0  0  0  0
    0.0812   -0.2908   -0.9055 C   0  0  0  0  0  0  0  0  0  0  0  0
    2.3951   -1.8299    0.2437 H   0  0  0  0  0  0  0  0  0  0  0  0
    3.0345   -0.2198    0.7287 H   0  0  0  0  0  0  0  0  0  0  0  0
    2.5665   -0.4987   -1.0306 H   0  0  0  0  0  0  0  0  0  0  0  0
    0.5559   -0.7597    1.1857 H   0  0  0  0  0  0  0  0  0  0  0  0
    1.7414    1.7328    1.2186 H   0  0  0  0  0  0  0  0  0  0  0  0
   -0.2213    2.9100    0.1620 H   0  0  0  0  0  0  0  0  0  0  0  0
   -1.3084    1.2557   -1.5839 H   0  0  0  0  0  0  0  0  0  0  0  0
   -1.7300    0.5531    1.2493 H   0  0  0  0  0  0  0  0  0  0  0  0
   -2.9527    0.4646   -0.1035 H   0  0  0  0  0  0  0  0  0  0  0  0
   -2.5926   -1.8340   -0.1527 H   0  0  0  0  0  0  0  0  0  0  0  0
   -1.2956   -1.7031    1.0478 H   0  0  0  0  0  0  0  0  0  0  0  0
    0.6441   -0.2388   -1.8359 H   0  0  0  0  0  0  0  0  0  0  0  0
  1  2  1  0
  2  3  1  0
  3  4  2  0
  4  5  1  0
  5  6  1  0
  6  7  1  0
  7  8  1  0
  8  9  1  0
  9  2  1  0
  9  5  1  0
  1 10  1  0
  1 11  1  0
  1 12  1  0
  2 13  1  0
  3 14  1  0
  4 15  1  0
  5 16  1  0
  6 17  1  0
  6 18  1  0
  7 19  1  0
  7 20  1  0
  9 21  1  0
M  END
