
     RDKit          3D

 23 23  0  0  0  0  0  0  0  0999 V2000
    3.3587   -0.0499   -0.8917 C   0  0  0  0  0  0  0  0  0  0  0  0
    2.1527    0.6150   -0.2382 C   0  0  0  0  0  0  0  0  0  0  0  0
    2.0661    0.3741    1.2395 C   0  0  0  0  0  0  0  0  0  0  0  0
    1.0962   -0.2783    0.2763 C   0  0  0  0  0  0  0  0  0  0  0  0
   -0.3304    0.1936    0.4047 C   0  0  0  0  0  0  0  0  0  0  0  0
   -1.1571   -0.8077    0.9105 O   0  0  0  0  0  0  0  0  0  0  0  0
   -2.4607   -0.4283    1.0455 C   0  0  0  0  0  0  0  0  0  0  0  0
   -3.1273   -0.0063   -0.2352 C   0  0  0  0  0  0  0  0  0  0  0  0
   -3.1185   -1.0506   -1.1547 O   0  0  0  0  0  0  0  0  0  0  0  0
    4.1521   -0.2514   -0.1206 H   0  0  0  0  0  0  0  0  0  0  0  0
    3.0295   -1.0556   -1.2313 H   0  0  0  0  0  0  0  0  0  0  0  0
    3.7673    0.5760   -1.7007 H   0  0  0  0  0  0  0  0  0  0  0  0
    1.8301    1.5781   -0.6505 H   0  0  0  0  0  0  0  0  0  0  0  0
    1.7362    1.2492    1.8246 H   0  0  0  0  0  0  0  0  0  0  0  0
    2.7669   -0.2904    1.7549 H   0  0  0  0  0  0  0  0  0  0  0  0
    1.1869   -1.3891    0.1618 H   0  0  0  0  0  0  0  0  0  0  0  0
   -0.3332    1.0537    1.0982 H   0  0  0  0  0  0  0  0  0  0  0  0
   -0.7582    0.4615   -0.5879 H   0  0  0  0  0  0  0  0  0  0  0  0
   -2.5785    0.3906    1.7948 H   0  0  0  0  0  0  0  0  0  0  0  0
   -3.0272   -1.2903    1.4549 H   0  0  0  0  0  0  0  0  0  0  0  0
   -2.7559    0.9412   -0.6324 H   0  0  0  0  0  0  0  0  0  0  0  0
   -4.2126    0.1736    0.0228 H   0  0  0  0  0  0  0  0  0  0  0  0
   -3.2832   -0.7090   -2.0824 H   0  0  0  0  0  0  0  0  0  0  0  0
  1  2  1  0
  2  3  1  0
  3  4  1  0
  4  5  1  0
  5  6  1  0
  6  7  1  0
  7  8  1  0
  8  9  1  0
  4  2  1  0
  1 10  1  0
  1 11  1  0
  1 12  1  0
  2 13  1  0
  3 14  1  0
  3 15  1  0
  4 16  1  0
  5 17  1  0
  5 18  1  0
  7 19  1  0
  7 20  1  0
  8 21  1  0
  8 22  1  0
  9 23  1  0
M  END
