
     RDKit          3D

 18 20  0  0  0  0  0  0  0  0999 V2000
    1.8737    0.5566    0.2392 C   0  0  0  0  0  0  0  0  0  0  0  0
    0.9846   -0.5891   -0.0452 C   0  0  0  0  0  0  0  0  0  0  0  0
   -0.1025   -0.3733   -1.0754 C   0  0  0  0  0  0  0  0  0  0  0  0
   -0.6716    1.0234   -1.0442 C   0  0  0  0  0  0  0  0  0  0  0  0
   -1.4085    1.1779    0.0494 C   0  0  0  0  0  0  0  0  0  0  0  0
   -1.4062   -0.0683    0.8390 C   0  0  0  0  0  0  0  0  0  0  0  0
   -0.1401   -0.8242    0.9728 C   0  0  0  0  0  0  0  0  0  0  0  0
   -1.0330   -1.0877   -0.1501 C   0  0  0  0  0  0  0  0  0  0  0  0
    1.5460    1.1106    1.1540 H   0  0  0  0  0  0  0  0  0  0  0  0
    2.0361    1.2587   -0.5904 H   0  0  0  0  0  0  0  0  0  0  0  0
    2.8904    0.1448    0.5110 H   0  0  0  0  0  0  0  0  0  0  0  0
    1.4718   -1.5721   -0.2320 H   0  0  0  0  0  0  0  0  0  0  0  0
    0.0772   -0.7888   -2.0604 H   0  0  0  0  0  0  0  0  0  0  0  0
   -0.4910    1.7615   -1.8064 H   0  0  0  0  0  0  0  0  0  0  0  0
   -1.9220    2.0966    0.2950 H   0  0  0  0  0  0  0  0  0  0  0  0
   -2.1925   -0.3073    1.5424 H   0  0  0  0  0  0  0  0  0  0  0  0
    0.0415   -1.5304    1.7814 H   0  0  0  0  0  0  0  0  0  0  0  0
   -1.5539   -1.9891   -0.3803 H   0  0  0  0  0  0  0  0  0  0  0  0
  1  2  1  0
  2  3  1  0
  3  4  1  0
  4  5  2  0
  5  6  1  0
  6  7  1  0
  7  8  1  0
  7  2  1  0
  8  3  1  0
  8  6  1  0
  1  9  1  0
  1 10  1  0
  1 11  1  0
  2 12  1  0
  3 13  1  0
  4 14  1  0
  5 15  1  0
  6 16  1  0
  7 17  1  0
  8 18  1  0
M  END
