
     RDKit          3D

 21 22  0  0  0  0  0  0  0  0999 V2000
   -1.9347   -0.2563    0.6703 C   0  0  0  0  0  0  0  0  0  0  0  0
   -0.9087   -0.0323   -0.4049 C   0  0  0  0  0  0  0  0  0  0  0  0
   -0.4543    1.4227   -0.5357 C   0  0  0  0  0  0  0  0  0  0  0  0
   -0.1251    1.7429    0.8648 C   0  0  0  0  0  0  0  0  0  0  0  0
    0.5338    0.6489    1.2778 C   0  0  0  0  0  0  0  0  0  0  0  0
    0.5235   -0.2129    0.0934 C   0  0  0  0  0  0  0  0  0  0  0  0
    1.1223   -1.5088    0.0548 C   0  0  0  0  0  0  0  0  0  0  0  0
    1.1606   -1.9761   -1.2773 O   0  0  0  0  0  0  0  0  0  0  0  0
    0.8735    0.8056   -1.0058 C   0  0  0  0  0  0  0  0  0  0  0  0
   -2.2554    0.6944    1.1663 H   0  0  0  0  0  0  0  0  0  0  0  0
   -1.5286   -0.9639    1.4378 H   0  0  0  0  0  0  0  0  0  0  0  0
   -2.8198   -0.7704    0.2320 H   0  0  0  0  0  0  0  0  0  0  0  0
   -1.0838   -0.5275   -1.3687 H   0  0  0  0  0  0  0  0  0  0  0  0
   -0.9671    2.0749   -1.1685 H   0  0  0  0  0  0  0  0  0  0  0  0
   -0.3682    2.6483    1.4040 H   0  0  0  0  0  0  0  0  0  0  0  0
    0.9806    0.4113    2.2335 H   0  0  0  0  0  0  0  0  0  0  0  0
    2.1178   -1.5935    0.5318 H   0  0  0  0  0  0  0  0  0  0  0  0
    0.4791   -2.2596    0.6042 H   0  0  0  0  0  0  0  0  0  0  0  0
    2.0856   -2.0873   -1.6009 H   0  0  0  0  0  0  0  0  0  0  0  0
    0.8089    0.3467   -2.0033 H   0  0  0  0  0  0  0  0  0  0  0  0
    1.7603    1.3927   -0.7653 H   0  0  0  0  0  0  0  0  0  0  0  0
  1  2  1  0
  2  3  1  0
  3  4  1  0
  4  5  2  0
  5  6  1  0
  6  7  1  0
  7  8  1  0
  6  9  1  0
  6  2  1  0
  9  3  1  0
  1 10  1  0
  1 11  1  0
  1 12  1  0
  2 13  1  0
  3 14  1  0
  4 15  1  0
  5 16  1  0
  7 17  1  0
  7 18  1  0
  8 19  1  0
  9 20  1  0
  9 21  1  0
M  END
