
     RDKit          3D

 19 20  0  0  0  0  0  0  0  0999 V2000
    1.9845   -0.3114    0.1649 C   0  0  0  0  0  0  0  0  0  0  0  0
    0.7202    0.3502    0.6276 C   0  0  0  0  0  0  0  0  0  0  0  0
    0.5215    1.6464   -0.1234 C   0  0  0  0  0  0  0  0  0  0  0  0
    1.2019    2.6196   -0.2792 O   0  0  0  0  0  0  0  0  0  0  0  0
   -0.8476    1.1887   -0.5660 C   0  0  0  0  0  0  0  0  0  0  0  0
   -1.7834    1.7720    0.2951 O   0  0  0  0  0  0  0  0  0  0  0  0
   -0.4691   -0.1725   -0.0848 C   0  0  0  0  0  0  0  0  0  0  0  0
   -0.5352   -1.3872   -0.8554 C   0  0  0  0  0  0  0  0  0  0  0  0
   -1.3958   -1.1604    0.4252 C   0  0  0  0  0  0  0  0  0  0  0  0
    2.8093    0.0155    0.8433 H   0  0  0  0  0  0  0  0  0  0  0  0
    1.9185   -1.4149    0.1816 H   0  0  0  0  0  0  0  0  0  0  0  0
    2.2816    0.0303   -0.8493 H   0  0  0  0  0  0  0  0  0  0  0  0
    0.6265    0.4727    1.7290 H   0  0  0  0  0  0  0  0  0  0  0  0
   -1.0471    1.3155   -1.6366 H   0  0  0  0  0  0  0  0  0  0  0  0
   -1.4572    1.5194    1.2172 H   0  0  0  0  0  0  0  0  0  0  0  0
    0.2424   -2.1924   -0.7575 H   0  0  0  0  0  0  0  0  0  0  0  0
   -1.0921   -1.4736   -1.8075 H   0  0  0  0  0  0  0  0  0  0  0  0
   -2.4912   -0.9698    0.2281 H   0  0  0  0  0  0  0  0  0  0  0  0
   -1.1876   -1.8481    1.2477 H   0  0  0  0  0  0  0  0  0  0  0  0
  1  2  1  0
  2  3  1  0
  3  4  2  0
  3  5  1  0
  5  6  1  0
  5  7  1  0
  7  8  1  0
  8  9  1  0
  7  2  1  0
  9  7  1  0
  1 10  1  0
  1 11  1  0
  1 12  1  0
  2 13  1  0
  5 14  1  0
  6 15  1  0
  8 16  1  0
  8 17  1  0
  9 18  1  0
  9 19  1  0
M  END
