
     RDKit          3D

 16 16  0  0  0  0  0  0  0  0999 V2000
    2.1806   -0.3022    0.4490 C   0  0  0  0  0  0  0  0  0  0  0  0
    0.7270    0.0716    0.3399 C   0  0  0  0  0  0  0  0  0  0  0  0
    0.4077    0.7966   -0.9101 C   0  0  0  0  0  0  0  0  0  0  0  0
   -0.7937    0.3718   -1.2764 C   0  0  0  0  0  0  0  0  0  0  0  0
   -1.2773   -0.6427   -0.2650 C   0  0  0  0  0  0  0  0  0  0  0  0
   -2.1034   -0.0308    0.7769 C   0  0  0  0  0  0  0  0  0  0  0  0
   -3.2061    0.4127    0.5219 O   0  0  0  0  0  0  0  0  0  0  0  0
   -0.0711   -1.0647    0.2928 O   0  0  0  0  0  0  0  0  0  0  0  0
    2.6208    0.2899    1.2960 H   0  0  0  0  0  0  0  0  0  0  0  0
    2.7211   -0.0563   -0.4927 H   0  0  0  0  0  0  0  0  0  0  0  0
    2.2967   -1.3794    0.7318 H   0  0  0  0  0  0  0  0  0  0  0  0
    0.3901    0.6959    1.2018 H   0  0  0  0  0  0  0  0  0  0  0  0
    0.9977    1.5355   -1.4594 H   0  0  0  0  0  0  0  0  0  0  0  0
   -1.3483    0.6973   -2.1622 H   0  0  0  0  0  0  0  0  0  0  0  0
   -1.7789   -1.4415   -0.8439 H   0  0  0  0  0  0  0  0  0  0  0  0
   -1.7629    0.0463    1.7996 H   0  0  0  0  0  0  0  0  0  0  0  0
  1  2  1  0
  2  3  1  0
  3  4  2  0
  4  5  1  0
  5  6  1  0
  6  7  2  0
  5  8  1  0
  8  2  1  0
  1  9  1  0
  1 10  1  0
  1 11  1  0
  2 12  1  0
  3 13  1  0
  4 14  1  0
  5 15  1  0
  6 16  1  0
M  END
