
     RDKit          3D

 21 23  0  0  0  0  0  0  0  0999 V2000
    1.6815   -1.2060    0.0958 C   0  0  0  0  0  0  0  0  0  0  0  0
    1.0818   -0.0006   -0.6053 C   0  0  0  0  0  0  0  0  0  0  0  0
   -0.0443   -0.4986   -1.5293 C   0  0  0  0  0  0  0  0  0  0  0  0
   -0.9672   -0.2983   -0.3502 C   0  0  0  0  0  0  0  0  0  0  0  0
   -1.7939   -1.2218    0.2138 C   0  0  0  0  0  0  0  0  0  0  0  0
   -2.2940   -0.0307   -0.5252 O   0  0  0  0  0  0  0  0  0  0  0  0
    0.0040    0.6557    0.1891 C   0  0  0  0  0  0  0  0  0  0  0  0
    0.1017    1.2078    1.4970 C   0  0  0  0  0  0  0  0  0  0  0  0
   -0.2088    2.0943    0.2658 C   0  0  0  0  0  0  0  0  0  0  0  0
    1.3668   -2.1629   -0.3561 H   0  0  0  0  0  0  0  0  0  0  0  0
    1.3391   -1.2291    1.1499 H   0  0  0  0  0  0  0  0  0  0  0  0
    2.7809   -1.1515    0.0040 H   0  0  0  0  0  0  0  0  0  0  0  0
    1.7953    0.6724   -1.0827 H   0  0  0  0  0  0  0  0  0  0  0  0
   -0.2324    0.2869   -2.2830 H   0  0  0  0  0  0  0  0  0  0  0  0
    0.0735   -1.5227   -1.8798 H   0  0  0  0  0  0  0  0  0  0  0  0
   -2.0893   -2.1788   -0.3095 H   0  0  0  0  0  0  0  0  0  0  0  0
   -2.1838   -1.1813    1.2348 H   0  0  0  0  0  0  0  0  0  0  0  0
   -0.7485    1.0809    2.2209 H   0  0  0  0  0  0  0  0  0  0  0  0
    1.0401    1.4877    1.9822 H   0  0  0  0  0  0  0  0  0  0  0  0
   -1.2724    2.4411    0.1723 H   0  0  0  0  0  0  0  0  0  0  0  0
    0.5701    2.7554   -0.1045 H   0  0  0  0  0  0  0  0  0  0  0  0
  1  2  1  0
  2  3  1  0
  3  4  1  0
  4  5  1  0
  5  6  1  0
  4  7  1  0
  7  8  1  0
  8  9  1  0
  7  2  1  0
  6  4  1  0
  9  7  1  0
  1 10  1  0
  1 11  1  0
  1 12  1  0
  2 13  1  0
  3 14  1  0
  3 15  1  0
  5 16  1  0
  5 17  1  0
  8 18  1  0
  8 19  1  0
  9 20  1  0
  9 21  1  0
M  END
