
     RDKit          3D

 23 24  0  0  0  0  0  0  0  0999 V2000
   -1.3409   -1.3646    0.6888 C   0  0  0  0  0  0  0  0  0  0  0  0
   -1.1273   -0.1850   -0.1864 C   0  0  0  0  0  0  0  0  0  0  0  0
   -0.7200    1.0923    0.5539 C   0  0  0  0  0  0  0  0  0  0  0  0
   -1.6340    2.1277    0.3826 O   0  0  0  0  0  0  0  0  0  0  0  0
    0.6192    1.4564   -0.1255 C   0  0  0  0  0  0  0  0  0  0  0  0
    1.1240    0.0871   -0.3857 C   0  0  0  0  0  0  0  0  0  0  0  0
    1.4321   -0.5914    0.8990 C   0  0  0  0  0  0  0  0  0  0  0  0
    1.1215   -0.7904   -1.4882 C   0  0  0  0  0  0  0  0  0  0  0  0
   -0.1485   -0.2573   -1.2489 C   0  0  0  0  0  0  0  0  0  0  0  0
   -0.9671   -1.2569    1.7285 H   0  0  0  0  0  0  0  0  0  0  0  0
   -0.9602   -2.3104    0.1976 H   0  0  0  0  0  0  0  0  0  0  0  0
   -2.4367   -1.6221    0.8494 H   0  0  0  0  0  0  0  0  0  0  0  0
   -2.1610    0.0598   -0.5941 H   0  0  0  0  0  0  0  0  0  0  0  0
   -0.6048    0.9386    1.6256 H   0  0  0  0  0  0  0  0  0  0  0  0
   -1.2876    2.7836   -0.2698 H   0  0  0  0  0  0  0  0  0  0  0  0
    0.3324    2.0128   -1.0339 H   0  0  0  0  0  0  0  0  0  0  0  0
    1.2440    2.0693    0.5166 H   0  0  0  0  0  0  0  0  0  0  0  0
    2.5710   -0.5665    0.9445 H   0  0  0  0  0  0  0  0  0  0  0  0
    1.1258   -0.1132    1.8203 H   0  0  0  0  0  0  0  0  0  0  0  0
    1.2370   -1.6990    0.9058 H   0  0  0  0  0  0  0  0  0  0  0  0
    1.2210   -1.9093   -1.3765 H   0  0  0  0  0  0  0  0  0  0  0  0
    1.7622   -0.4998   -2.3700 H   0  0  0  0  0  0  0  0  0  0  0  0
   -0.4020    0.5387   -2.0337 H   0  0  0  0  0  0  0  0  0  0  0  0
  1  2  1  0
  2  3  1  0
  3  4  1  0
  3  5  1  0
  5  6  1  0
  6  7  1  0
  6  8  1  0
  8  9  1  0
  9  2  1  0
  9  6  1  0
  1 10  1  0
  1 11  1  0
  1 12  1  0
  2 13  1  0
  3 14  1  0
  4 15  1  0
  5 16  1  0
  5 17  1  0
  7 18  1  0
  7 19  1  0
  7 20  1  0
  8 21  1  0
  8 22  1  0
  9 23  1  0
M  END
