
     RDKit          3D

 23 23  0  0  0  0  0  0  0  0999 V2000
    2.6827   -0.4280   -0.1991 C   0  0  0  0  0  0  0  0  0  0  0  0
    1.1617   -0.3034   -0.3798 C   0  0  0  0  0  0  0  0  0  0  0  0
    0.5825    0.5158    0.7046 C   0  0  0  0  0  0  0  0  0  0  0  0
   -0.3513    1.6055    0.2184 C   0  0  0  0  0  0  0  0  0  0  0  0
   -1.7906    1.2812    0.4132 C   0  0  0  0  0  0  0  0  0  0  0  0
   -2.0747   -0.0599    0.4908 O   0  0  0  0  0  0  0  0  0  0  0  0
   -1.6240   -0.7967   -0.5778 C   0  0  0  0  0  0  0  0  0  0  0  0
   -0.5951   -1.7934   -0.0984 C   0  0  0  0  0  0  0  0  0  0  0  0
    0.6699   -1.5545   -0.5478 O   0  0  0  0  0  0  0  0  0  0  0  0
    3.1262    0.5685   -0.1371 H   0  0  0  0  0  0  0  0  0  0  0  0
    3.0450   -1.0351   -1.0406 H   0  0  0  0  0  0  0  0  0  0  0  0
    2.8132   -0.9490    0.7739 H   0  0  0  0  0  0  0  0  0  0  0  0
    1.0266    0.2598   -1.3495 H   0  0  0  0  0  0  0  0  0  0  0  0
    0.0507   -0.0332    1.4939 H   0  0  0  0  0  0  0  0  0  0  0  0
    1.4218    1.0579    1.2357 H   0  0  0  0  0  0  0  0  0  0  0  0
   -0.1668    1.7841   -0.8731 H   0  0  0  0  0  0  0  0  0  0  0  0
   -0.1504    2.5850    0.7073 H   0  0  0  0  0  0  0  0  0  0  0  0
   -2.1339    1.7425    1.3797 H   0  0  0  0  0  0  0  0  0  0  0  0
   -2.3710    1.8201   -0.3747 H   0  0  0  0  0  0  0  0  0  0  0  0
   -1.2683   -0.1905   -1.4294 H   0  0  0  0  0  0  0  0  0  0  0  0
   -2.5180   -1.3618   -0.9760 H   0  0  0  0  0  0  0  0  0  0  0  0
   -0.8824   -2.8251   -0.4600 H   0  0  0  0  0  0  0  0  0  0  0  0
   -0.6540   -1.8897    1.0258 H   0  0  0  0  0  0  0  0  0  0  0  0
  1  2  1  0
  2  3  1  0
  3  4  1  0
  4  5  1  0
  5  6  1  0
  6  7  1  0
  7  8  1  0
  8  9  1  0
  9  2  1  0
  1 10  1  0
  1 11  1  0
  1 12  1  0
  2 13  1  0
  3 14  1  0
  3 15  1  0
  4 16  1  0
  4 17  1  0
  5 18  1  0
  5 19  1  0
  7 20  1  0
  7 21  1  0
  8 22  1  0
  8 23  1  0
M  END
