
     RDKit          3D

 21 22  0  0  0  0  0  0  0  0999 V2000
    1.6118   -0.8531    0.6451 C   0  0  0  0  0  0  0  0  0  0  0  0
    0.6253   -0.4625   -0.4101 C   0  0  0  0  0  0  0  0  0  0  0  0
    0.4310    1.0479   -0.4751 C   0  0  0  0  0  0  0  0  0  0  0  0
    1.2279    1.7884   -1.2109 O   0  0  0  0  0  0  0  0  0  0  0  0
    0.1123    1.3685    0.9490 C   0  0  0  0  0  0  0  0  0  0  0  0
   -0.6943    0.2470    1.2795 O   0  0  0  0  0  0  0  0  0  0  0  0
   -0.8317   -0.3970    0.0743 C   0  0  0  0  0  0  0  0  0  0  0  0
   -1.6489   -1.5801   -0.0657 C   0  0  0  0  0  0  0  0  0  0  0  0
   -0.9725    0.7043   -0.9920 C   0  0  0  0  0  0  0  0  0  0  0  0
    2.6024   -0.3896    0.3722 H   0  0  0  0  0  0  0  0  0  0  0  0
    1.7306   -1.9575    0.6599 H   0  0  0  0  0  0  0  0  0  0  0  0
    1.3029   -0.5552    1.6550 H   0  0  0  0  0  0  0  0  0  0  0  0
    0.7611   -0.9626   -1.3658 H   0  0  0  0  0  0  0  0  0  0  0  0
    1.8559    2.3208   -0.6689 H   0  0  0  0  0  0  0  0  0  0  0  0
   -0.5793    2.2461    1.0015 H   0  0  0  0  0  0  0  0  0  0  0  0
    0.9676    1.4650    1.6100 H   0  0  0  0  0  0  0  0  0  0  0  0
   -1.1531   -2.4562   -0.5446 H   0  0  0  0  0  0  0  0  0  0  0  0
   -2.5383   -1.3625   -0.7202 H   0  0  0  0  0  0  0  0  0  0  0  0
   -2.0803   -1.9148    0.9024 H   0  0  0  0  0  0  0  0  0  0  0  0
   -0.9916    0.2860   -1.9942 H   0  0  0  0  0  0  0  0  0  0  0  0
   -1.7386    1.4173   -0.7014 H   0  0  0  0  0  0  0  0  0  0  0  0
  1  2  1  0
  2  3  1  0
  3  4  1  0
  3  5  1  0
  5  6  1  0
  6  7  1  0
  7  8  1  0
  7  9  1  0
  7  2  1  0
  9  3  1  0
  1 10  1  0
  1 11  1  0
  1 12  1  0
  2 13  1  0
  4 14  1  0
  5 15  1  0
  5 16  1  0
  8 17  1  0
  8 18  1  0
  8 19  1  0
  9 20  1  0
  9 21  1  0
M  END
