
     RDKit          3D

 20 20  0  0  0  0  0  0  0  0999 V2000
    2.0098    0.6370   -0.0654 C   0  0  0  0  0  0  0  0  0  0  0  0
    0.6984    0.0658   -0.4540 C   0  0  0  0  0  0  0  0  0  0  0  0
   -0.4846    0.4817    0.4357 C   0  0  0  0  0  0  0  0  0  0  0  0
   -1.2518    1.6500   -0.0956 C   0  0  0  0  0  0  0  0  0  0  0  0
   -1.0584   -0.8883    0.0486 C   0  0  0  0  0  0  0  0  0  0  0  0
   -1.4881   -0.8318   -1.2594 O   0  0  0  0  0  0  0  0  0  0  0  0
    0.4108   -1.3450    0.0734 C   0  0  0  0  0  0  0  0  0  0  0  0
    0.8659   -1.4424    1.3718 O   0  0  0  0  0  0  0  0  0  0  0  0
    2.5468    0.9751   -0.9947 H   0  0  0  0  0  0  0  0  0  0  0  0
    2.6285   -0.1281    0.4151 H   0  0  0  0  0  0  0  0  0  0  0  0
    1.9141    1.5199    0.6234 H   0  0  0  0  0  0  0  0  0  0  0  0
    0.4219    0.1199   -1.5365 H   0  0  0  0  0  0  0  0  0  0  0  0
   -0.1923    0.5231    1.4927 H   0  0  0  0  0  0  0  0  0  0  0  0
   -1.0672    1.8199   -1.1723 H   0  0  0  0  0  0  0  0  0  0  0  0
   -2.3377    1.4788    0.0720 H   0  0  0  0  0  0  0  0  0  0  0  0
   -0.9647    2.5396    0.5284 H   0  0  0  0  0  0  0  0  0  0  0  0
   -1.6981   -1.3521    0.7864 H   0  0  0  0  0  0  0  0  0  0  0  0
   -2.2822   -1.3649   -1.4587 H   0  0  0  0  0  0  0  0  0  0  0  0
    0.6485   -2.1543   -0.6139 H   0  0  0  0  0  0  0  0  0  0  0  0
    0.6803   -2.3040    1.8032 H   0  0  0  0  0  0  0  0  0  0  0  0
  1  2  1  0
  2  3  1  0
  3  4  1  0
  3  5  1  0
  5  6  1  0
  5  7  1  0
  7  8  1  0
  7  2  1  0
  1  9  1  0
  1 10  1  0
  1 11  1  0
  2 12  1  0
  3 13  1  0
  4 14  1  0
  4 15  1  0
  4 16  1  0
  5 17  1  0
  6 18  1  0
  7 19  1  0
  8 20  1  0
M  END
