
     RDKit          3D

 25 25  0  0  0  0  0  0  0  0999 V2000
    2.0502    1.4936   -0.1124 C   0  0  0  0  0  0  0  0  0  0  0  0
    1.3754    0.1552   -0.3415 C   0  0  0  0  0  0  0  0  0  0  0  0
    2.0114   -0.8713    0.6080 C   0  0  0  0  0  0  0  0  0  0  0  0
    0.6154   -1.4510    0.7636 C   0  0  0  0  0  0  0  0  0  0  0  0
    0.0937   -0.0446    0.4385 C   0  0  0  0  0  0  0  0  0  0  0  0
   -1.1631   -0.0943   -0.3724 C   0  0  0  0  0  0  0  0  0  0  0  0
   -1.4443    1.1258   -1.1655 C   0  0  0  0  0  0  0  0  0  0  0  0
   -2.3070   -0.3572    0.5987 C   0  0  0  0  0  0  0  0  0  0  0  0
   -1.0763   -1.1826   -1.2504 O   0  0  0  0  0  0  0  0  0  0  0  0
    1.7593    2.2586   -0.8282 H   0  0  0  0  0  0  0  0  0  0  0  0
    1.7129    1.8288    0.9056 H   0  0  0  0  0  0  0  0  0  0  0  0
    3.1515    1.3794   -0.1564 H   0  0  0  0  0  0  0  0  0  0  0  0
    1.3532   -0.1930   -1.3757 H   0  0  0  0  0  0  0  0  0  0  0  0
    2.7550   -1.5210    0.1529 H   0  0  0  0  0  0  0  0  0  0  0  0
    2.2979   -0.3893    1.5769 H   0  0  0  0  0  0  0  0  0  0  0  0
    0.3509   -1.8114    1.7556 H   0  0  0  0  0  0  0  0  0  0  0  0
    0.3251   -2.1273   -0.0803 H   0  0  0  0  0  0  0  0  0  0  0  0
    0.0778    0.5480    1.3613 H   0  0  0  0  0  0  0  0  0  0  0  0
   -1.6380    0.8988   -2.2504 H   0  0  0  0  0  0  0  0  0  0  0  0
   -2.4019    1.6089   -0.8118 H   0  0  0  0  0  0  0  0  0  0  0  0
   -0.6832    1.9039   -1.1411 H   0  0  0  0  0  0  0  0  0  0  0  0
   -2.0377   -1.1969    1.2998 H   0  0  0  0  0  0  0  0  0  0  0  0
   -3.2082   -0.5543    0.0217 H   0  0  0  0  0  0  0  0  0  0  0  0
   -2.4000    0.5407    1.2729 H   0  0  0  0  0  0  0  0  0  0  0  0
   -1.5700   -1.9475   -0.8692 H   0  0  0  0  0  0  0  0  0  0  0  0
  1  2  1  0
  2  3  1  0
  3  4  1  0
  4  5  1  0
  5  6  1  0
  6  7  1  0
  6  8  1  0
  6  9  1  0
  5  2  1  0
  1 10  1  0
  1 11  1  0
  1 12  1  0
  2 13  1  0
  3 14  1  0
  3 15  1  0
  4 16  1  0
  4 17  1  0
  5 18  1  0
  7 19  1  0
  7 20  1  0
  7 21  1  0
  8 22  1  0
  8 23  1  0
  8 24  1  0
  9 25  1  0
M  END
