
     RDKit          3D

 23 24  0  0  0  0  0  0  0  0999 V2000
   -2.1767    1.0506    0.0401 C   0  0  0  0  0  0  0  0  0  0  0  0
   -1.2666   -0.0698    0.3589 C   0  0  0  0  0  0  0  0  0  0  0  0
   -0.9256   -0.9487   -0.8568 C   0  0  0  0  0  0  0  0  0  0  0  0
    0.3388   -0.1431   -0.9946 C   0  0  0  0  0  0  0  0  0  0  0  0
    1.6332   -0.8661   -0.9897 C   0  0  0  0  0  0  0  0  0  0  0  0
    1.7279   -1.5048    0.3299 C   0  0  0  0  0  0  0  0  0  0  0  0
    0.9070   -0.9004    1.1611 C   0  0  0  0  0  0  0  0  0  0  0  0
    0.1863    0.1932    0.4859 C   0  0  0  0  0  0  0  0  0  0  0  0
    0.6974    1.5220    0.8272 C   0  0  0  0  0  0  0  0  0  0  0  0
   -2.7806    0.7553   -0.8675 H   0  0  0  0  0  0  0  0  0  0  0  0
   -2.9243    1.1973    0.8736 H   0  0  0  0  0  0  0  0  0  0  0  0
   -1.7199    2.0101   -0.1824 H   0  0  0  0  0  0  0  0  0  0  0  0
   -1.6826   -0.7382    1.1473 H   0  0  0  0  0  0  0  0  0  0  0  0
   -1.6004   -0.7883   -1.7184 H   0  0  0  0  0  0  0  0  0  0  0  0
   -0.6948   -1.9936   -0.5990 H   0  0  0  0  0  0  0  0  0  0  0  0
    0.2483    0.7331   -1.6639 H   0  0  0  0  0  0  0  0  0  0  0  0
    1.7498   -1.5933   -1.8206 H   0  0  0  0  0  0  0  0  0  0  0  0
    2.4424   -0.0945   -1.0653 H   0  0  0  0  0  0  0  0  0  0  0  0
    2.3752   -2.3439    0.5762 H   0  0  0  0  0  0  0  0  0  0  0  0
    0.7464   -1.1400    2.2170 H   0  0  0  0  0  0  0  0  0  0  0  0
    0.2284    2.3719    0.2980 H   0  0  0  0  0  0  0  0  0  0  0  0
    1.7872    1.5672    0.5263 H   0  0  0  0  0  0  0  0  0  0  0  0
    0.7034    1.7237    1.9166 H   0  0  0  0  0  0  0  0  0  0  0  0
  1  2  1  0
  2  3  1  0
  3  4  1  0
  4  5  1  0
  5  6  1  0
  6  7  2  0
  7  8  1  0
  8  9  1  0
  8  2  1  0
  8  4  1  0
  1 10  1  0
  1 11  1  0
  1 12  1  0
  2 13  1  0
  3 14  1  0
  3 15  1  0
  4 16  1  0
  5 17  1  0
  5 18  1  0
  6 19  1  0
  7 20  1  0
  9 21  1  0
  9 22  1  0
  9 23  1  0
M  END
