
     RDKit          3D

 25 25  0  0  0  0  0  0  0  0999 V2000
    1.8327   -1.1439    0.4522 C   0  0  0  0  0  0  0  0  0  0  0  0
    0.8661   -0.3795   -0.3711 C   0  0  0  0  0  0  0  0  0  0  0  0
    1.4500    1.0105   -0.6268 C   0  0  0  0  0  0  0  0  0  0  0  0
    0.7377    1.9870    0.0738 O   0  0  0  0  0  0  0  0  0  0  0  0
   -0.5011    2.0815   -0.5484 C   0  0  0  0  0  0  0  0  0  0  0  0
   -1.2988    0.8254   -0.4633 C   0  0  0  0  0  0  0  0  0  0  0  0
   -0.5294   -0.3388    0.1267 C   0  0  0  0  0  0  0  0  0  0  0  0
   -0.6762   -0.2619    1.6101 C   0  0  0  0  0  0  0  0  0  0  0  0
   -1.2359   -1.6073   -0.3689 C   0  0  0  0  0  0  0  0  0  0  0  0
    1.4303   -1.6195    1.3478 H   0  0  0  0  0  0  0  0  0  0  0  0
    2.3496   -1.9654   -0.1270 H   0  0  0  0  0  0  0  0  0  0  0  0
    2.6904   -0.4983    0.8066 H   0  0  0  0  0  0  0  0  0  0  0  0
    0.8398   -0.8668   -1.3913 H   0  0  0  0  0  0  0  0  0  0  0  0
    2.4991    1.0742   -0.2634 H   0  0  0  0  0  0  0  0  0  0  0  0
    1.4460    1.2860   -1.6782 H   0  0  0  0  0  0  0  0  0  0  0  0
   -1.0124    2.9699   -0.1073 H   0  0  0  0  0  0  0  0  0  0  0  0
   -0.3969    2.3358   -1.6399 H   0  0  0  0  0  0  0  0  0  0  0  0
   -1.7717    0.5301   -1.4411 H   0  0  0  0  0  0  0  0  0  0  0  0
   -2.1833    1.0447    0.2045 H   0  0  0  0  0  0  0  0  0  0  0  0
   -1.7821   -0.1327    1.8088 H   0  0  0  0  0  0  0  0  0  0  0  0
   -0.3842   -1.1581    2.1580 H   0  0  0  0  0  0  0  0  0  0  0  0
   -0.1733    0.6728    1.9758 H   0  0  0  0  0  0  0  0  0  0  0  0
   -2.2118   -1.3935   -0.8054 H   0  0  0  0  0  0  0  0  0  0  0  0
   -0.6287   -2.1063   -1.1711 H   0  0  0  0  0  0  0  0  0  0  0  0
   -1.3557   -2.3457    0.4388 H   0  0  0  0  0  0  0  0  0  0  0  0
  1  2  1  0
  2  3  1  0
  3  4  1  0
  4  5  1  0
  5  6  1  0
  6  7  1  0
  7  8  1  0
  7  9  1  0
  7  2  1  0
  1 10  1  0
  1 11  1  0
  1 12  1  0
  2 13  1  0
  3 14  1  0
  3 15  1  0
  5 16  1  0
  5 17  1  0
  6 18  1  0
  6 19  1  0
  8 20  1  0
  8 21  1  0
  8 22  1  0
  9 23  1  0
  9 24  1  0
  9 25  1  0
M  END
