
     RDKit          3D

 21 22  0  0  0  0  0  0  0  0999 V2000
    2.1352    0.1319    0.3258 C   0  0  0  0  0  0  0  0  0  0  0  0
    0.9148    0.2665   -0.5474 C   0  0  0  0  0  0  0  0  0  0  0  0
    0.5912   -1.1521   -1.0573 C   0  0  0  0  0  0  0  0  0  0  0  0
   -0.6405   -1.3741   -0.1688 C   0  0  0  0  0  0  0  0  0  0  0  0
   -0.2987   -0.7631    1.0517 O   0  0  0  0  0  0  0  0  0  0  0  0
   -0.3233    0.4404    0.3038 C   0  0  0  0  0  0  0  0  0  0  0  0
   -0.5174    1.6847    1.0284 C   0  0  0  0  0  0  0  0  0  0  0  0
   -1.4582   -0.1721   -0.4629 C   0  0  0  0  0  0  0  0  0  0  0  0
   -2.6266   -0.1502    0.2770 O   0  0  0  0  0  0  0  0  0  0  0  0
    2.6017    1.0774    0.5985 H   0  0  0  0  0  0  0  0  0  0  0  0
    1.7976   -0.4318    1.2444 H   0  0  0  0  0  0  0  0  0  0  0  0
    2.8557   -0.5429   -0.2210 H   0  0  0  0  0  0  0  0  0  0  0  0
    1.0080    0.9825   -1.3550 H   0  0  0  0  0  0  0  0  0  0  0  0
    1.3934   -1.8557   -0.8393 H   0  0  0  0  0  0  0  0  0  0  0  0
    0.2882   -1.1278   -2.1107 H   0  0  0  0  0  0  0  0  0  0  0  0
   -1.0621   -2.3473   -0.1464 H   0  0  0  0  0  0  0  0  0  0  0  0
   -0.4950    1.4959    2.1283 H   0  0  0  0  0  0  0  0  0  0  0  0
    0.1916    2.5116    0.7422 H   0  0  0  0  0  0  0  0  0  0  0  0
   -1.5547    2.0794    0.8271 H   0  0  0  0  0  0  0  0  0  0  0  0
   -1.5443    0.0757   -1.5225 H   0  0  0  0  0  0  0  0  0  0  0  0
   -3.2565   -0.8289   -0.0961 H   0  0  0  0  0  0  0  0  0  0  0  0
  1  2  1  0
  2  3  1  0
  3  4  1  0
  4  5  1  0
  5  6  1  0
  6  7  1  0
  6  8  1  0
  8  9  1  0
  6  2  1  0
  8  4  1  0
  1 10  1  0
  1 11  1  0
  1 12  1  0
  2 13  1  0
  3 14  1  0
  3 15  1  0
  4 16  1  0
  7 17  1  0
  7 18  1  0
  7 19  1  0
  8 20  1  0
  9 21  1  0
M  END
