
     RDKit          3D

 21 22  0  0  0  0  0  0  0  0999 V2000
   -1.3428   -0.0143    1.5744 C   0  0  0  0  0  0  0  0  0  0  0  0
   -1.2326   -0.4652    0.1445 C   0  0  0  0  0  0  0  0  0  0  0  0
   -1.5097    0.7235   -0.7884 C   0  0  0  0  0  0  0  0  0  0  0  0
   -0.2553    0.2762   -1.5561 C   0  0  0  0  0  0  0  0  0  0  0  0
    0.1575   -0.4403   -0.3444 C   0  0  0  0  0  0  0  0  0  0  0  0
    1.1726   -1.4414   -0.2095 C   0  0  0  0  0  0  0  0  0  0  0  0
    1.2655   -0.1096    0.5397 C   0  0  0  0  0  0  0  0  0  0  0  0
    2.2394    0.8886    0.1105 C   0  0  0  0  0  0  0  0  0  0  0  0
    2.5083    1.1000   -1.0374 O   0  0  0  0  0  0  0  0  0  0  0  0
   -2.3626    0.3210    1.8492 H   0  0  0  0  0  0  0  0  0  0  0  0
   -0.9434   -0.7835    2.2617 H   0  0  0  0  0  0  0  0  0  0  0  0
   -0.6776    0.8864    1.6815 H   0  0  0  0  0  0  0  0  0  0  0  0
   -1.8728   -1.3108   -0.1053 H   0  0  0  0  0  0  0  0  0  0  0  0
   -2.4304    0.6488   -1.3655 H   0  0  0  0  0  0  0  0  0  0  0  0
   -1.3655    1.6980   -0.2854 H   0  0  0  0  0  0  0  0  0  0  0  0
   -0.5981   -0.4392   -2.3601 H   0  0  0  0  0  0  0  0  0  0  0  0
    0.3522    1.0841   -1.9513 H   0  0  0  0  0  0  0  0  0  0  0  0
    1.0989   -2.3664    0.3844 H   0  0  0  0  0  0  0  0  0  0  0  0
    1.9291   -1.5313   -1.0394 H   0  0  0  0  0  0  0  0  0  0  0  0
    1.0975   -0.2179    1.6407 H   0  0  0  0  0  0  0  0  0  0  0  0
    2.7698    1.4933    0.8561 H   0  0  0  0  0  0  0  0  0  0  0  0
  1  2  1  0
  2  3  1  0
  3  4  1  0
  4  5  1  0
  5  6  1  0
  6  7  1  0
  7  8  1  0
  8  9  2  0
  5  2  1  0
  7  5  1  0
  1 10  1  0
  1 11  1  0
  1 12  1  0
  2 13  1  0
  3 14  1  0
  3 15  1  0
  4 16  1  0
  4 17  1  0
  6 18  1  0
  6 19  1  0
  7 20  1  0
  8 21  1  0
M  END
