
     RDKit          3D

 19 21  0  0  0  0  0  0  0  0999 V2000
    2.1287   -0.2819   -0.4130 C   0  0  0  0  0  0  0  0  0  0  0  0
    0.8989    0.5904   -0.5031 C   0  0  0  0  0  0  0  0  0  0  0  0
   -0.2869   -0.1654   -1.0330 C   0  0  0  0  0  0  0  0  0  0  0  0
   -1.1362    0.8216   -0.2841 C   0  0  0  0  0  0  0  0  0  0  0  0
   -2.2815    0.0129    0.1647 C   0  0  0  0  0  0  0  0  0  0  0  0
   -1.7010   -1.1511    0.5294 C   0  0  0  0  0  0  0  0  0  0  0  0
   -0.2772   -0.9155    0.2594 C   0  0  0  0  0  0  0  0  0  0  0  0
   -0.0352    0.5005    0.6802 C   0  0  0  0  0  0  0  0  0  0  0  0
    0.1502    0.9536    1.8345 O   0  0  0  0  0  0  0  0  0  0  0  0
    2.0679   -1.1491   -1.1257 H   0  0  0  0  0  0  0  0  0  0  0  0
    2.3033   -0.6735    0.6077 H   0  0  0  0  0  0  0  0  0  0  0  0
    3.0557    0.2799   -0.6871 H   0  0  0  0  0  0  0  0  0  0  0  0
    1.0565    1.6037   -0.9080 H   0  0  0  0  0  0  0  0  0  0  0  0
   -0.4273   -0.5164   -1.9573 H   0  0  0  0  0  0  0  0  0  0  0  0
   -1.2669    1.8059   -0.6511 H   0  0  0  0  0  0  0  0  0  0  0  0
   -3.3219    0.3053    0.1859 H   0  0  0  0  0  0  0  0  0  0  0  0
   -2.1443   -2.0539    0.9261 H   0  0  0  0  0  0  0  0  0  0  0  0
    0.4484   -1.6657    0.4461 H   0  0  0  0  0  0  0  0  0  0  0  0
    0.7690    1.6987    1.9283 H   0  0  0  0  0  0  0  0  0  0  0  0
  1  2  1  0
  2  3  1  0
  3  4  1  0
  4  5  1  0
  5  6  2  0
  6  7  1  0
  7  8  1  0
  8  9  1  0
  8  2  1  0
  7  3  1  0
  8  4  1  0
  1 10  1  0
  1 11  1  0
  1 12  1  0
  2 13  1  0
  3 14  1  0
  4 15  1  0
  5 16  1  0
  6 17  1  0
  7 18  1  0
  9 19  1  0
M  END
