
     RDKit          3D

 21 22  0  0  0  0  0  0  0  0999 V2000
    2.1129    0.5343    0.1515 C   0  0  0  0  0  0  0  0  0  0  0  0
    1.1081   -0.6224    0.2236 C   0  0  0  0  0  0  0  0  0  0  0  0
    0.1906   -0.3092    1.3713 C   0  0  0  0  0  0  0  0  0  0  0  0
   -0.8839    0.5152    0.7296 C   0  0  0  0  0  0  0  0  0  0  0  0
   -2.0419   -0.3003    0.1910 C   0  0  0  0  0  0  0  0  0  0  0  0
   -3.2468    0.3999    0.1642 O   0  0  0  0  0  0  0  0  0  0  0  0
   -0.9872    0.1554   -0.6983 C   0  0  0  0  0  0  0  0  0  0  0  0
    0.2410   -0.6154   -1.0241 C   0  0  0  0  0  0  0  0  0  0  0  0
    0.9862    0.0449   -2.0114 O   0  0  0  0  0  0  0  0  0  0  0  0
    2.8627    0.3241    0.9300 H   0  0  0  0  0  0  0  0  0  0  0  0
    1.5370    1.4500    0.3710 H   0  0  0  0  0  0  0  0  0  0  0  0
    2.6029    0.5325   -0.8318 H   0  0  0  0  0  0  0  0  0  0  0  0
    1.6600   -1.5696    0.3368 H   0  0  0  0  0  0  0  0  0  0  0  0
    0.7169    0.1985    2.1977 H   0  0  0  0  0  0  0  0  0  0  0  0
   -0.1801   -1.2794    1.7756 H   0  0  0  0  0  0  0  0  0  0  0  0
   -1.0242    1.5737    0.9836 H   0  0  0  0  0  0  0  0  0  0  0  0
   -2.1570   -1.3373    0.5585 H   0  0  0  0  0  0  0  0  0  0  0  0
   -3.0981    1.3668    0.2085 H   0  0  0  0  0  0  0  0  0  0  0  0
   -1.2396    0.9820   -1.4221 H   0  0  0  0  0  0  0  0  0  0  0  0
    0.0595   -1.6714   -1.3181 H   0  0  0  0  0  0  0  0  0  0  0  0
    0.7812   -0.3722   -2.8871 H   0  0  0  0  0  0  0  0  0  0  0  0
  1  2  1  0
  2  3  1  0
  3  4  1  0
  4  5  1  0
  5  6  1  0
  5  7  1  0
  7  8  1  0
  8  9  1  0
  8  2  1  0
  7  4  1  0
  1 10  1  0
  1 11  1  0
  1 12  1  0
  2 13  1  0
  3 14  1  0
  3 15  1  0
  4 16  1  0
  5 17  1  0
  6 18  1  0
  7 19  1  0
  8 20  1  0
  9 21  1  0
M  END
