
     RDKit          2D

 23 25  0  0  0  0  0  0  0  0999 V2000
    1.8302    1.1491    0.0000 C   0  0  0  0  0  0  0  0  0  0  0  0
    0.8660    0.0000    0.0000 C   0  0  0  0  0  0  0  0  0  0  0  0
   -0.4330    0.7500    0.0000 C   0  0  0  0  0  0  0  0  0  0  0  0
   -0.4330   -0.7500    0.0000 C   0  0  0  0  0  0  0  0  0  0  0  0
   -1.8819   -1.1382    0.0000 C   0  0  0  0  0  0  0  0  0  0  0  0
   -1.4937   -2.5871    0.0000 C   0  0  0  0  0  0  0  0  0  0  0  0
   -0.0448   -2.1989    0.0000 C   0  0  0  0  0  0  0  0  0  0  0  0
    1.2543   -2.9489    0.0000 C   0  0  0  0  0  0  0  0  0  0  0  0
   -1.1437   -1.9809    0.0000 C   0  0  0  0  0  0  0  0  0  0  0  0
    2.7944    2.2981    0.0000 H   0  0  0  0  0  0  0  0  0  0  0  0
    2.9793    0.1849    0.0000 H   0  0  0  0  0  0  0  0  0  0  0  0
    0.9095    2.1364    0.0000 H   0  0  0  0  0  0  0  0  0  0  0  0
    1.8534   -0.9207    0.0000 H   0  0  0  0  0  0  0  0  0  0  0  0
   -1.9102    1.0105    0.0000 H   0  0  0  0  0  0  0  0  0  0  0  0
   -0.1294    2.0654    0.0000 H   0  0  0  0  0  0  0  0  0  0  0  0
   -3.1809   -0.3882    0.0000 H   0  0  0  0  0  0  0  0  0  0  0  0
   -1.2850   -4.0725    0.0000 H   0  0  0  0  0  0  0  0  0  0  0  0
   -2.3708   -2.7104    0.0000 H   0  0  0  0  0  0  0  0  0  0  0  0
    2.5533   -3.6989    0.0000 H   0  0  0  0  0  0  0  0  0  0  0  0
    0.5043   -4.2479    0.0000 H   0  0  0  0  0  0  0  0  0  0  0  0
    2.0667   -1.8708    0.0000 H   0  0  0  0  0  0  0  0  0  0  0  0
   -1.8181   -2.4335    0.0000 H   0  0  0  0  0  0  0  0  0  0  0  0
   -0.9317   -3.9779    0.0000 H   0  0  0  0  0  0  0  0  0  0  0  0
  1  2  1  0
  2  3  1  0
  3  4  1  0
  4  5  1  0
  5  6  1  0
  6  7  1  0
  7  8  1  0
  7  9  1  0
  4  2  1  0
  9  5  1  0
  7  4  1  0
  1 10  1  0
  1 11  1  0
  1 12  1  0
  2 13  1  0
  3 14  1  0
  3 15  1  0
  5 16  1  0
  6 17  1  0
  6 18  1  0
  8 19  1  0
  8 20  1  0
  8 21  1  0
  9 22  1  0
  9 23  1  0
M  END
