
     RDKit          3D

 15 16  0  0  0  0  0  0  0  0999 V2000
   -1.7804   -0.7456    0.2848 C   0  0  0  0  0  0  0  0  0  0  0  0
   -0.3175   -0.4983    0.6201 C   0  0  0  0  0  0  0  0  0  0  0  0
    0.1303    0.9021    0.3320 C   0  0  0  0  0  0  0  0  0  0  0  0
   -0.1614    1.4888   -1.0151 C   0  0  0  0  0  0  0  0  0  0  0  0
   -0.6577    2.5534   -1.4434 O   0  0  0  0  0  0  0  0  0  0  0  0
    0.3413    0.3731   -1.6304 O   0  0  0  0  0  0  0  0  0  0  0  0
    0.6780   -0.2754   -0.4408 C   0  0  0  0  0  0  0  0  0  0  0  0
    2.1038   -0.5720   -0.1412 C   0  0  0  0  0  0  0  0  0  0  0  0
    2.4278   -1.1366    0.8887 O   0  0  0  0  0  0  0  0  0  0  0  0
   -2.3627   -0.0800    0.9808 H   0  0  0  0  0  0  0  0  0  0  0  0
   -2.0285   -0.4719   -0.7391 H   0  0  0  0  0  0  0  0  0  0  0  0
   -2.0732   -1.7870    0.5518 H   0  0  0  0  0  0  0  0  0  0  0  0
    0.0463   -0.9174    1.5607 H   0  0  0  0  0  0  0  0  0  0  0  0
    0.7707    1.4583    1.0247 H   0  0  0  0  0  0  0  0  0  0  0  0
    2.8834   -0.2915   -0.8337 H   0  0  0  0  0  0  0  0  0  0  0  0
  1  2  1  0
  2  3  1  0
  3  4  1  0
  4  5  2  0
  4  6  1  0
  6  7  1  0
  7  8  1  0
  8  9  2  0
  7  2  1  0
  7  3  1  0
  1 10  1  0
  1 11  1  0
  1 12  1  0
  2 13  1  0
  3 14  1  0
  8 15  1  0
M  END
