
     RDKit          3D

 16 18  0  0  0  0  0  0  0  0999 V2000
    1.8604    0.2969   -0.0197 C   0  0  0  0  0  0  0  0  0  0  0  0
    0.6225   -0.4689    0.2439 C   0  0  0  0  0  0  0  0  0  0  0  0
   -0.3083    0.2245    1.2479 C   0  0  0  0  0  0  0  0  0  0  0  0
   -1.4098   -0.5893    1.1641 O   0  0  0  0  0  0  0  0  0  0  0  0
   -1.6487   -0.6184   -0.2154 C   0  0  0  0  0  0  0  0  0  0  0  0
   -1.1955    0.7126   -0.6562 C   0  0  0  0  0  0  0  0  0  0  0  0
   -0.6916    1.3335    0.5113 O   0  0  0  0  0  0  0  0  0  0  0  0
   -0.3634   -0.4457   -0.9231 C   0  0  0  0  0  0  0  0  0  0  0  0
    2.0911    0.2861   -1.1250 H   0  0  0  0  0  0  0  0  0  0  0  0
    1.7882    1.3370    0.3683 H   0  0  0  0  0  0  0  0  0  0  0  0
    2.7064   -0.2274    0.5150 H   0  0  0  0  0  0  0  0  0  0  0  0
    0.7615   -1.5077    0.5750 H   0  0  0  0  0  0  0  0  0  0  0  0
    0.1207    0.3980    2.2026 H   0  0  0  0  0  0  0  0  0  0  0  0
   -2.4827   -1.1614   -0.6315 H   0  0  0  0  0  0  0  0  0  0  0  0
   -1.7390    1.3060   -1.3856 H   0  0  0  0  0  0  0  0  0  0  0  0
   -0.1116   -0.8759   -1.8718 H   0  0  0  0  0  0  0  0  0  0  0  0
  1  2  1  0
  2  3  1  0
  3  4  1  0
  4  5  1  0
  5  6  1  0
  6  7  1  0
  6  8  1  0
  8  2  1  0
  7  3  1  0
  8  5  1  0
  1  9  1  0
  1 10  1  0
  1 11  1  0
  2 12  1  0
  3 13  1  0
  5 14  1  0
  6 15  1  0
  8 16  1  0
M  END
