
     RDKit          3D

 21 22  0  0  0  0  0  0  0  0999 V2000
   -2.0458   -1.5399   -0.1897 C   0  0  0  0  0  0  0  0  0  0  0  0
   -1.7456   -0.0509    0.0178 C   0  0  0  0  0  0  0  0  0  0  0  0
   -0.8251    0.3095    1.1113 C   0  0  0  0  0  0  0  0  0  0  0  0
    0.3016   -0.4309    1.4052 O   0  0  0  0  0  0  0  0  0  0  0  0
    0.6995   -0.6616    0.1124 C   0  0  0  0  0  0  0  0  0  0  0  0
    2.1250   -0.3664   -0.2233 C   0  0  0  0  0  0  0  0  0  0  0  0
    2.5066    0.9335   -0.0310 O   0  0  0  0  0  0  0  0  0  0  0  0
   -0.3334    0.3013   -0.3645 C   0  0  0  0  0  0  0  0  0  0  0  0
    0.0139    1.6482   -0.8869 C   0  0  0  0  0  0  0  0  0  0  0  0
   -3.0974   -1.6859   -0.5132 H   0  0  0  0  0  0  0  0  0  0  0  0
   -1.8412   -2.1109    0.7372 H   0  0  0  0  0  0  0  0  0  0  0  0
   -1.4200   -1.9316   -1.0372 H   0  0  0  0  0  0  0  0  0  0  0  0
   -2.5767    0.6263   -0.1703 H   0  0  0  0  0  0  0  0  0  0  0  0
   -0.9491    1.2779    1.5960 H   0  0  0  0  0  0  0  0  0  0  0  0
    0.4470   -1.7045   -0.1846 H   0  0  0  0  0  0  0  0  0  0  0  0
    2.3388   -0.6556   -1.2730 H   0  0  0  0  0  0  0  0  0  0  0  0
    2.7623   -1.0250    0.4320 H   0  0  0  0  0  0  0  0  0  0  0  0
    3.4937    0.9929    0.1169 H   0  0  0  0  0  0  0  0  0  0  0  0
    0.5247    1.6066   -1.8513 H   0  0  0  0  0  0  0  0  0  0  0  0
    0.5749    2.2536   -0.1208 H   0  0  0  0  0  0  0  0  0  0  0  0
   -0.9537    2.2133   -1.0219 H   0  0  0  0  0  0  0  0  0  0  0  0
  1  2  1  0
  2  3  1  0
  3  4  1  0
  4  5  1  0
  5  6  1  0
  6  7  1  0
  5  8  1  0
  8  9  1  0
  8  2  1  0
  8  3  1  0
  1 10  1  0
  1 11  1  0
  1 12  1  0
  2 13  1  0
  3 14  1  0
  5 15  1  0
  6 16  1  0
  6 17  1  0
  7 18  1  0
  9 19  1  0
  9 20  1  0
  9 21  1  0
M  END
