
     RDKit          3D

 19 20  0  0  0  0  0  0  0  0999 V2000
    2.1876   -0.4285   -0.4501 C   0  0  0  0  0  0  0  0  0  0  0  0
    0.9907    0.1729    0.2057 C   0  0  0  0  0  0  0  0  0  0  0  0
   -0.0163    0.8155   -0.7483 C   0  0  0  0  0  0  0  0  0  0  0  0
    0.0226    0.1245   -1.9642 O   0  0  0  0  0  0  0  0  0  0  0  0
   -1.0779    0.2493    0.1889 C   0  0  0  0  0  0  0  0  0  0  0  0
   -1.7181    1.0950    1.1798 C   0  0  0  0  0  0  0  0  0  0  0  0
   -2.0587    2.2266    0.9582 O   0  0  0  0  0  0  0  0  0  0  0  0
   -1.2347   -1.1982    0.0790 C   0  0  0  0  0  0  0  0  0  0  0  0
   -0.0268   -0.7366    0.7770 C   0  0  0  0  0  0  0  0  0  0  0  0
    2.2401   -0.1514   -1.5299 H   0  0  0  0  0  0  0  0  0  0  0  0
    2.2483   -1.5338   -0.3078 H   0  0  0  0  0  0  0  0  0  0  0  0
    3.1398   -0.0357    0.0161 H   0  0  0  0  0  0  0  0  0  0  0  0
    1.2921    0.9695    0.9465 H   0  0  0  0  0  0  0  0  0  0  0  0
    0.0209    1.9024   -0.8070 H   0  0  0  0  0  0  0  0  0  0  0  0
   -0.8985   -0.0561   -2.3032 H   0  0  0  0  0  0  0  0  0  0  0  0
   -1.9157    0.7139    2.1909 H   0  0  0  0  0  0  0  0  0  0  0  0
   -1.1724   -1.6090   -0.9719 H   0  0  0  0  0  0  0  0  0  0  0  0
   -2.0136   -1.6784    0.6652 H   0  0  0  0  0  0  0  0  0  0  0  0
   -0.0093   -0.8420    1.8752 H   0  0  0  0  0  0  0  0  0  0  0  0
  1  2  1  0
  2  3  1  0
  3  4  1  0
  3  5  1  0
  5  6  1  0
  6  7  2  0
  5  8  1  0
  8  9  1  0
  9  2  1  0
  9  5  1  0
  1 10  1  0
  1 11  1  0
  1 12  1  0
  2 13  1  0
  3 14  1  0
  4 15  1  0
  6 16  1  0
  8 17  1  0
  8 18  1  0
  9 19  1  0
M  END
