
     RDKit          3D

 15 16  0  0  0  0  0  0  0  0999 V2000
    1.5386   -0.0555    0.3876 C   0  0  0  0  0  0  0  0  0  0  0  0
    0.5584    0.0755   -0.7888 C   0  0  0  0  0  0  0  0  0  0  0  0
   -0.2752    1.2646   -0.4851 C   0  0  0  0  0  0  0  0  0  0  0  0
   -0.2196    2.4161   -1.0351 O   0  0  0  0  0  0  0  0  0  0  0  0
   -1.1669    0.8280    0.5754 C   0  0  0  0  0  0  0  0  0  0  0  0
   -1.6879    1.5528    1.4476 O   0  0  0  0  0  0  0  0  0  0  0  0
   -1.3268   -0.6350    0.4078 C   0  0  0  0  0  0  0  0  0  0  0  0
   -1.7320   -0.9727   -0.8856 O   0  0  0  0  0  0  0  0  0  0  0  0
   -0.3847   -1.0561   -0.6877 C   0  0  0  0  0  0  0  0  0  0  0  0
    2.1871    0.8224    0.4672 H   0  0  0  0  0  0  0  0  0  0  0  0
    2.0737   -1.0136    0.3504 H   0  0  0  0  0  0  0  0  0  0  0  0
    0.8682   -0.0227    1.2955 H   0  0  0  0  0  0  0  0  0  0  0  0
    1.1008    0.1608   -1.7447 H   0  0  0  0  0  0  0  0  0  0  0  0
   -1.5559   -1.2776    1.2492 H   0  0  0  0  0  0  0  0  0  0  0  0
    0.0221   -2.0870   -0.5536 H   0  0  0  0  0  0  0  0  0  0  0  0
  1  2  1  0
  2  3  1  0
  3  4  2  0
  3  5  1  0
  5  6  2  0
  5  7  1  0
  7  8  1  0
  8  9  1  0
  9  2  1  0
  9  7  1  0
  1 10  1  0
  1 11  1  0
  1 12  1  0
  2 13  1  0
  7 14  1  0
  9 15  1  0
M  END
