
     RDKit          3D

 23 23  0  0  0  0  0  0  0  0999 V2000
   -3.3965    0.1802   -0.0386 C   0  0  0  0  0  0  0  0  0  0  0  0
   -1.9840    0.4268   -0.4339 C   0  0  0  0  0  0  0  0  0  0  0  0
   -0.9583    0.0172    0.6321 C   0  0  0  0  0  0  0  0  0  0  0  0
   -0.1776   -0.1584   -0.6528 C   0  0  0  0  0  0  0  0  0  0  0  0
    0.8918   -1.1958   -0.6071 C   0  0  0  0  0  0  0  0  0  0  0  0
    1.8619   -0.7863    0.4784 C   0  0  0  0  0  0  0  0  0  0  0  0
    2.4176    0.5657    0.1015 C   0  0  0  0  0  0  0  0  0  0  0  0
    3.3271    0.9709    1.0877 O   0  0  0  0  0  0  0  0  0  0  0  0
   -1.3951   -0.5868   -1.2275 O   0  0  0  0  0  0  0  0  0  0  0  0
   -4.0247    1.0073   -0.4616 H   0  0  0  0  0  0  0  0  0  0  0  0
   -3.4909    0.2377    1.0701 H   0  0  0  0  0  0  0  0  0  0  0  0
   -3.7150   -0.7955   -0.4448 H   0  0  0  0  0  0  0  0  0  0  0  0
   -1.7250    1.4428   -0.7862 H   0  0  0  0  0  0  0  0  0  0  0  0
   -0.6351    0.8223    1.2931 H   0  0  0  0  0  0  0  0  0  0  0  0
   -1.2685   -0.9253    1.0821 H   0  0  0  0  0  0  0  0  0  0  0  0
    0.0941    0.7800   -1.1459 H   0  0  0  0  0  0  0  0  0  0  0  0
    0.5111   -2.2018   -0.3853 H   0  0  0  0  0  0  0  0  0  0  0  0
    1.4145   -1.1696   -1.6020 H   0  0  0  0  0  0  0  0  0  0  0  0
    1.2343   -0.6586    1.4069 H   0  0  0  0  0  0  0  0  0  0  0  0
    2.6397   -1.5396    0.6593 H   0  0  0  0  0  0  0  0  0  0  0  0
    1.5857    1.3083    0.1117 H   0  0  0  0  0  0  0  0  0  0  0  0
    2.8685    0.5819   -0.8960 H   0  0  0  0  0  0  0  0  0  0  0  0
    3.9245    1.6766    0.7416 H   0  0  0  0  0  0  0  0  0  0  0  0
  1  2  1  0
  2  3  1  0
  3  4  1  0
  4  5  1  0
  5  6  1  0
  6  7  1  0
  7  8  1  0
  4  9  1  0
  9  2  1  0
  1 10  1  0
  1 11  1  0
  1 12  1  0
  2 13  1  0
  3 14  1  0
  3 15  1  0
  4 16  1  0
  5 17  1  0
  5 18  1  0
  6 19  1  0
  6 20  1  0
  7 21  1  0
  7 22  1  0
  8 23  1  0
M  END
