
     RDKit          3D

 23 23  0  0  0  0  0  0  0  0999 V2000
    1.8479   -1.0024   -0.5075 C   0  0  0  0  0  0  0  0  0  0  0  0
    1.2784   -0.0698    0.5589 C   0  0  0  0  0  0  0  0  0  0  0  0
    1.1677    1.3057    0.0316 C   0  0  0  0  0  0  0  0  0  0  0  0
   -0.1706    1.8800   -0.0045 C   0  0  0  0  0  0  0  0  0  0  0  0
   -1.3038    1.2883   -0.3553 C   0  0  0  0  0  0  0  0  0  0  0  0
   -1.4701   -0.1001   -0.7933 C   0  0  0  0  0  0  0  0  0  0  0  0
   -2.8493   -0.3461   -1.0047 O   0  0  0  0  0  0  0  0  0  0  0  0
   -0.9637   -1.1310    0.1466 C   0  0  0  0  0  0  0  0  0  0  0  0
    0.0196   -0.6187    1.1594 C   0  0  0  0  0  0  0  0  0  0  0  0
    1.1795   -1.1531   -1.3502 H   0  0  0  0  0  0  0  0  0  0  0  0
    2.1144   -1.9405    0.0268 H   0  0  0  0  0  0  0  0  0  0  0  0
    2.8165   -0.5222   -0.8341 H   0  0  0  0  0  0  0  0  0  0  0  0
    2.0398   -0.0724    1.3694 H   0  0  0  0  0  0  0  0  0  0  0  0
    1.6082    1.3298   -1.0065 H   0  0  0  0  0  0  0  0  0  0  0  0
    1.8512    1.9966    0.6004 H   0  0  0  0  0  0  0  0  0  0  0  0
   -0.2138    2.9248    0.2978 H   0  0  0  0  0  0  0  0  0  0  0  0
   -2.1946    1.9059   -0.3093 H   0  0  0  0  0  0  0  0  0  0  0  0
   -1.0100   -0.2887   -1.8081 H   0  0  0  0  0  0  0  0  0  0  0  0
   -3.3313   -0.4333   -0.1510 H   0  0  0  0  0  0  0  0  0  0  0  0
   -1.8072   -1.5805    0.7275 H   0  0  0  0  0  0  0  0  0  0  0  0
   -0.5013   -2.0042   -0.3928 H   0  0  0  0  0  0  0  0  0  0  0  0
   -0.4143    0.1323    1.8134 H   0  0  0  0  0  0  0  0  0  0  0  0
    0.3070   -1.5006    1.7855 H   0  0  0  0  0  0  0  0  0  0  0  0
  1  2  1  0
  2  3  1  0
  3  4  1  0
  4  5  2  0
  5  6  1  0
  6  7  1  0
  6  8  1  0
  8  9  1  0
  9  2  1  0
  1 10  1  0
  1 11  1  0
  1 12  1  0
  2 13  1  0
  3 14  1  0
  3 15  1  0
  4 16  1  0
  5 17  1  0
  6 18  1  0
  7 19  1  0
  8 20  1  0
  8 21  1  0
  9 22  1  0
  9 23  1  0
M  END
