
     RDKit          3D

 19 21  0  0  0  0  0  0  0  0999 V2000
    2.5262   -0.8292   -0.0492 C   0  0  0  0  0  0  0  0  0  0  0  0
    1.2371   -0.3435    0.5023 C   0  0  0  0  0  0  0  0  0  0  0  0
    0.6585    0.9014   -0.1871 C   0  0  0  0  0  0  0  0  0  0  0  0
   -0.5392    0.1530    0.0446 C   0  0  0  0  0  0  0  0  0  0  0  0
   -1.7798    0.3461   -0.7670 C   0  0  0  0  0  0  0  0  0  0  0  0
   -2.3278   -0.5247    0.3768 C   0  0  0  0  0  0  0  0  0  0  0  0
   -2.4958   -0.1759    1.6319 O   0  0  0  0  0  0  0  0  0  0  0  0
   -1.4614    0.5056    1.1727 C   0  0  0  0  0  0  0  0  0  0  0  0
    0.0893   -1.0363    0.0429 O   0  0  0  0  0  0  0  0  0  0  0  0
    2.4331   -1.7356   -0.6781 H   0  0  0  0  0  0  0  0  0  0  0  0
    3.1925   -1.0851    0.8271 H   0  0  0  0  0  0  0  0  0  0  0  0
    3.0635   -0.0038   -0.5715 H   0  0  0  0  0  0  0  0  0  0  0  0
    1.1654   -0.2183    1.6026 H   0  0  0  0  0  0  0  0  0  0  0  0
    0.8104    1.8361    0.3490 H   0  0  0  0  0  0  0  0  0  0  0  0
    0.9687    0.9210   -1.2738 H   0  0  0  0  0  0  0  0  0  0  0  0
   -1.8561   -0.1639   -1.7227 H   0  0  0  0  0  0  0  0  0  0  0  0
   -2.1443    1.3781   -0.6878 H   0  0  0  0  0  0  0  0  0  0  0  0
   -1.7878   -1.5244    0.2891 H   0  0  0  0  0  0  0  0  0  0  0  0
   -1.7525    1.5994    1.0388 H   0  0  0  0  0  0  0  0  0  0  0  0
  1  2  1  0
  2  3  1  0
  3  4  1  0
  4  5  1  0
  5  6  1  0
  6  7  1  0
  7  8  1  0
  4  9  1  0
  9  2  1  0
  8  4  1  0
  8  6  1  0
  1 10  1  0
  1 11  1  0
  1 12  1  0
  2 13  1  0
  3 14  1  0
  3 15  1  0
  5 16  1  0
  5 17  1  0
  6 18  1  0
  8 19  1  0
M  END
