
     RDKit          3D

 16 16  0  0  0  0  0  0  0  0999 V2000
   -1.4346    0.9004    0.5258 C   0  0  0  0  0  0  0  0  0  0  0  0
   -0.4464   -0.2076    0.5121 C   0  0  0  0  0  0  0  0  0  0  0  0
   -0.7886   -1.3829   -0.4072 C   0  0  0  0  0  0  0  0  0  0  0  0
    0.6117   -1.5352   -0.5408 O   0  0  0  0  0  0  0  0  0  0  0  0
    0.6528   -0.1216   -0.5131 C   0  0  0  0  0  0  0  0  0  0  0  0
    1.9365    0.4718   -0.0689 C   0  0  0  0  0  0  0  0  0  0  0  0
   -1.3112    1.4640    1.4852 H   0  0  0  0  0  0  0  0  0  0  0  0
   -2.4581    0.4531    0.5648 H   0  0  0  0  0  0  0  0  0  0  0  0
   -1.3144    1.6124   -0.3123 H   0  0  0  0  0  0  0  0  0  0  0  0
   -0.0912   -0.6036    1.4689 H   0  0  0  0  0  0  0  0  0  0  0  0
   -1.1804   -1.0741   -1.4030 H   0  0  0  0  0  0  0  0  0  0  0  0
   -1.3010   -2.2024    0.0880 H   0  0  0  0  0  0  0  0  0  0  0  0
    0.2974    0.2521   -1.4907 H   0  0  0  0  0  0  0  0  0  0  0  0
    2.5814    0.6267   -0.9535 H   0  0  0  0  0  0  0  0  0  0  0  0
    1.7720    1.4765    0.3750 H   0  0  0  0  0  0  0  0  0  0  0  0
    2.4739   -0.1296    0.6697 H   0  0  0  0  0  0  0  0  0  0  0  0
  1  2  1  0
  2  3  1  0
  3  4  1  0
  4  5  1  0
  5  6  1  0
  5  2  1  0
  1  7  1  0
  1  8  1  0
  1  9  1  0
  2 10  1  0
  3 11  1  0
  3 12  1  0
  5 13  1  0
  6 14  1  0
  6 15  1  0
  6 16  1  0
M  END
