
     RDKit          3D

 22 23  0  0  0  0  0  0  0  0999 V2000
   -3.1927    0.3961    0.3972 C   0  0  0  0  0  0  0  0  0  0  0  0
   -1.8413   -0.2709    0.2695 C   0  0  0  0  0  0  0  0  0  0  0  0
   -1.3064   -0.5131   -1.1367 C   0  0  0  0  0  0  0  0  0  0  0  0
   -0.6785    0.5043   -0.2854 C   0  0  0  0  0  0  0  0  0  0  0  0
    0.6763    0.3381    0.3261 C   0  0  0  0  0  0  0  0  0  0  0  0
    1.2655   -1.0187    0.3111 C   0  0  0  0  0  0  0  0  0  0  0  0
    1.8648    0.1033   -0.5234 C   0  0  0  0  0  0  0  0  0  0  0  0
    3.2420    0.5014   -0.1111 C   0  0  0  0  0  0  0  0  0  0  0  0
   -3.5151    0.3673    1.4387 H   0  0  0  0  0  0  0  0  0  0  0  0
   -3.1531    1.4481    0.0115 H   0  0  0  0  0  0  0  0  0  0  0  0
   -3.9673   -0.1091   -0.2167 H   0  0  0  0  0  0  0  0  0  0  0  0
   -1.6571   -1.0501    1.0402 H   0  0  0  0  0  0  0  0  0  0  0  0
   -2.0091   -0.2264   -1.9348 H   0  0  0  0  0  0  0  0  0  0  0  0
   -0.8864   -1.5295   -1.2759 H   0  0  0  0  0  0  0  0  0  0  0  0
   -0.9414    1.5705   -0.5408 H   0  0  0  0  0  0  0  0  0  0  0  0
    0.8434    0.9482    1.2353 H   0  0  0  0  0  0  0  0  0  0  0  0
    0.8531   -1.8527   -0.2609 H   0  0  0  0  0  0  0  0  0  0  0  0
    1.8144   -1.3450    1.2256 H   0  0  0  0  0  0  0  0  0  0  0  0
    1.6835    0.0935   -1.6143 H   0  0  0  0  0  0  0  0  0  0  0  0
    3.2760    1.0722    0.8440 H   0  0  0  0  0  0  0  0  0  0  0  0
    3.8157   -0.4490    0.0966 H   0  0  0  0  0  0  0  0  0  0  0  0
    3.8137    1.0215   -0.8920 H   0  0  0  0  0  0  0  0  0  0  0  0
  1  2  1  0
  2  3  1  0
  3  4  1  0
  4  5  1  0
  5  6  1  0
  6  7  1  0
  7  8  1  0
  4  2  1  0
  7  5  1  0
  1  9  1  0
  1 10  1  0
  1 11  1  0
  2 12  1  0
  3 13  1  0
  3 14  1  0
  4 15  1  0
  5 16  1  0
  6 17  1  0
  6 18  1  0
  7 19  1  0
  8 20  1  0
  8 21  1  0
  8 22  1  0
M  END
