
     RDKit          3D

 22 23  0  0  0  0  0  0  0  0999 V2000
    2.6300    0.1616   -0.3125 C   0  0  0  0  0  0  0  0  0  0  0  0
    1.3044    0.1514    0.3637 C   0  0  0  0  0  0  0  0  0  0  0  0
    0.3805    1.2522   -0.0837 C   0  0  0  0  0  0  0  0  0  0  0  0
   -0.9611    0.7548    0.4243 C   0  0  0  0  0  0  0  0  0  0  0  0
   -1.9847    0.4671   -0.6270 C   0  0  0  0  0  0  0  0  0  0  0  0
   -2.0363   -0.9697   -0.1547 C   0  0  0  0  0  0  0  0  0  0  0  0
   -0.8236   -0.7183    0.6614 C   0  0  0  0  0  0  0  0  0  0  0  0
    0.4693   -1.0621   -0.0735 C   0  0  0  0  0  0  0  0  0  0  0  0
    2.5097    0.2307   -1.4095 H   0  0  0  0  0  0  0  0  0  0  0  0
    3.1449   -0.7942   -0.0724 H   0  0  0  0  0  0  0  0  0  0  0  0
    3.2406    0.9654    0.1145 H   0  0  0  0  0  0  0  0  0  0  0  0
    1.3810    0.1422    1.4494 H   0  0  0  0  0  0  0  0  0  0  0  0
    0.6581    2.2330    0.3472 H   0  0  0  0  0  0  0  0  0  0  0  0
    0.3881    1.2552   -1.1936 H   0  0  0  0  0  0  0  0  0  0  0  0
   -1.3483    1.3436    1.2929 H   0  0  0  0  0  0  0  0  0  0  0  0
   -1.5724    0.5273   -1.6552 H   0  0  0  0  0  0  0  0  0  0  0  0
   -2.9444    1.0228   -0.5385 H   0  0  0  0  0  0  0  0  0  0  0  0
   -1.9388   -1.7097   -0.9706 H   0  0  0  0  0  0  0  0  0  0  0  0
   -2.9076   -1.2304    0.4693 H   0  0  0  0  0  0  0  0  0  0  0  0
   -0.7934   -1.0600    1.6900 H   0  0  0  0  0  0  0  0  0  0  0  0
    0.9049   -2.0036    0.2507 H   0  0  0  0  0  0  0  0  0  0  0  0
    0.2989   -0.9592   -1.1524 H   0  0  0  0  0  0  0  0  0  0  0  0
  1  2  1  0
  2  3  1  0
  3  4  1  0
  4  5  1  0
  5  6  1  0
  6  7  1  0
  7  8  1  0
  8  2  1  0
  7  4  1  0
  1  9  1  0
  1 10  1  0
  1 11  1  0
  2 12  1  0
  3 13  1  0
  3 14  1  0
  4 15  1  0
  5 16  1  0
  5 17  1  0
  6 18  1  0
  6 19  1  0
  7 20  1  0
  8 21  1  0
  8 22  1  0
M  END
