
     RDKit          3D

 19 20  0  0  0  0  0  0  0  0999 V2000
    2.3019    0.0110   -0.0308 C   0  0  0  0  0  0  0  0  0  0  0  0
    1.0125    0.7039    0.1949 C   0  0  0  0  0  0  0  0  0  0  0  0
   -0.0597   -0.0564    0.9184 C   0  0  0  0  0  0  0  0  0  0  0  0
   -1.0048    0.9000    0.2384 C   0  0  0  0  0  0  0  0  0  0  0  0
   -2.3080    0.5120    0.1233 O   0  0  0  0  0  0  0  0  0  0  0  0
   -0.0592    0.4974   -0.8535 C   0  0  0  0  0  0  0  0  0  0  0  0
   -0.1803   -0.8953   -0.3192 C   0  0  0  0  0  0  0  0  0  0  0  0
   -1.4982   -1.5422   -0.5390 C   0  0  0  0  0  0  0  0  0  0  0  0
   -2.1051   -2.1900    0.2951 O   0  0  0  0  0  0  0  0  0  0  0  0
    2.3709   -0.2691   -1.1083 H   0  0  0  0  0  0  0  0  0  0  0  0
    2.3844   -0.8890    0.6153 H   0  0  0  0  0  0  0  0  0  0  0  0
    3.1295    0.7246    0.1711 H   0  0  0  0  0  0  0  0  0  0  0  0
    1.0687    1.7543    0.5602 H   0  0  0  0  0  0  0  0  0  0  0  0
   -0.0738   -0.3506    1.8705 H   0  0  0  0  0  0  0  0  0  0  0  0
   -0.7954    1.9304    0.5711 H   0  0  0  0  0  0  0  0  0  0  0  0
   -2.8654    1.3461    0.0293 H   0  0  0  0  0  0  0  0  0  0  0  0
   -0.0371    0.8057   -1.8001 H   0  0  0  0  0  0  0  0  0  0  0  0
    0.6899   -1.5513   -0.5221 H   0  0  0  0  0  0  0  0  0  0  0  0
   -1.9706   -1.4417   -1.5067 H   0  0  0  0  0  0  0  0  0  0  0  0
  1  2  1  0
  2  3  1  0
  3  4  1  0
  4  5  1  0
  4  6  1  0
  6  7  1  0
  7  8  1  0
  8  9  2  0
  6  2  1  0
  7  3  1  0
  1 10  1  0
  1 11  1  0
  1 12  1  0
  2 13  1  0
  3 14  1  0
  4 15  1  0
  5 16  1  0
  6 17  1  0
  7 18  1  0
  8 19  1  0
M  END
