
     RDKit          3D

 23 24  0  0  0  0  0  0  0  0999 V2000
   -2.4028    0.3947    0.6123 C   0  0  0  0  0  0  0  0  0  0  0  0
   -1.3332    0.3087   -0.4619 C   0  0  0  0  0  0  0  0  0  0  0  0
   -1.2273   -1.1139   -0.8646 C   0  0  0  0  0  0  0  0  0  0  0  0
   -0.0523   -1.7457   -0.7573 C   0  0  0  0  0  0  0  0  0  0  0  0
    1.0243   -1.0357   -0.0467 C   0  0  0  0  0  0  0  0  0  0  0  0
    0.4044   -0.2991    1.1469 C   0  0  0  0  0  0  0  0  0  0  0  0
   -0.0387    0.7534    0.1425 C   0  0  0  0  0  0  0  0  0  0  0  0
    1.1607    0.3393   -0.6942 C   0  0  0  0  0  0  0  0  0  0  0  0
    2.3927    1.0523   -0.1799 C   0  0  0  0  0  0  0  0  0  0  0  0
   -3.0539    1.3036    0.4658 H   0  0  0  0  0  0  0  0  0  0  0  0
   -1.9455    0.4448    1.6224 H   0  0  0  0  0  0  0  0  0  0  0  0
   -3.0861   -0.5037    0.5798 H   0  0  0  0  0  0  0  0  0  0  0  0
   -1.6237    0.8977   -1.3588 H   0  0  0  0  0  0  0  0  0  0  0  0
   -2.1251   -1.5942   -1.2374 H   0  0  0  0  0  0  0  0  0  0  0  0
    0.0304   -2.7220   -1.1924 H   0  0  0  0  0  0  0  0  0  0  0  0
    1.9463   -1.5632    0.1556 H   0  0  0  0  0  0  0  0  0  0  0  0
   -0.4130   -0.9007    1.5655 H   0  0  0  0  0  0  0  0  0  0  0  0
    1.1525    0.0995    1.8498 H   0  0  0  0  0  0  0  0  0  0  0  0
    0.0344    1.7878    0.4742 H   0  0  0  0  0  0  0  0  0  0  0  0
    1.0157    0.3235   -1.7699 H   0  0  0  0  0  0  0  0  0  0  0  0
    2.8245    0.5094    0.7066 H   0  0  0  0  0  0  0  0  0  0  0  0
    3.1609    1.1896   -0.9678 H   0  0  0  0  0  0  0  0  0  0  0  0
    2.1550    2.0738    0.2095 H   0  0  0  0  0  0  0  0  0  0  0  0
  1  2  1  0
  2  3  1  0
  3  4  2  0
  4  5  1  0
  5  6  1  0
  6  7  1  0
  7  8  1  0
  8  9  1  0
  7  2  1  0
  8  5  1  0
  1 10  1  0
  1 11  1  0
  1 12  1  0
  2 13  1  0
  3 14  1  0
  4 15  1  0
  5 16  1  0
  6 17  1  0
  6 18  1  0
  7 19  1  0
  8 20  1  0
  9 21  1  0
  9 22  1  0
  9 23  1  0
M  END
