
     RDKit          3D

 23 24  0  0  0  0  0  0  0  0999 V2000
    3.2993   -0.3458   -0.0549 C   0  0  0  0  0  0  0  0  0  0  0  0
    2.0317    0.4710   -0.0586 C   0  0  0  0  0  0  0  0  0  0  0  0
    1.1410    0.2491   -1.2702 C   0  0  0  0  0  0  0  0  0  0  0  0
    0.1242   -0.3722   -0.3245 C   0  0  0  0  0  0  0  0  0  0  0  0
   -1.1860    0.3408   -0.2402 C   0  0  0  0  0  0  0  0  0  0  0  0
   -1.8816    0.4262   -1.4799 O   0  0  0  0  0  0  0  0  0  0  0  0
   -2.3963   -0.3762   -0.3120 C   0  0  0  0  0  0  0  0  0  0  0  0
   -3.7553    0.1712    0.0477 C   0  0  0  0  0  0  0  0  0  0  0  0
    0.9896   -0.0927    0.8733 C   0  0  0  0  0  0  0  0  0  0  0  0
    3.4787   -0.9016   -0.9756 H   0  0  0  0  0  0  0  0  0  0  0  0
    4.1838    0.3217    0.1290 H   0  0  0  0  0  0  0  0  0  0  0  0
    3.2812   -1.0348    0.8253 H   0  0  0  0  0  0  0  0  0  0  0  0
    2.2361    1.5704    0.0901 H   0  0  0  0  0  0  0  0  0  0  0  0
    0.7939    1.1986   -1.7475 H   0  0  0  0  0  0  0  0  0  0  0  0
    1.5787   -0.4692   -1.9905 H   0  0  0  0  0  0  0  0  0  0  0  0
   -0.0105   -1.4533   -0.5646 H   0  0  0  0  0  0  0  0  0  0  0  0
   -1.1387    1.3042    0.3426 H   0  0  0  0  0  0  0  0  0  0  0  0
   -2.4171   -1.4446   -0.6197 H   0  0  0  0  0  0  0  0  0  0  0  0
   -4.4654   -0.1634   -0.7280 H   0  0  0  0  0  0  0  0  0  0  0  0
   -3.7397    1.2837    0.1446 H   0  0  0  0  0  0  0  0  0  0  0  0
   -4.0440   -0.2932    1.0270 H   0  0  0  0  0  0  0  0  0  0  0  0
    1.3276   -1.0273    1.3897 H   0  0  0  0  0  0  0  0  0  0  0  0
    0.5688    0.6372    1.6076 H   0  0  0  0  0  0  0  0  0  0  0  0
  1  2  1  0
  2  3  1  0
  3  4  1  0
  4  5  1  0
  5  6  1  0
  6  7  1  0
  7  8  1  0
  4  9  1  0
  9  2  1  0
  7  5  1  0
  1 10  1  0
  1 11  1  0
  1 12  1  0
  2 13  1  0
  3 14  1  0
  3 15  1  0
  4 16  1  0
  5 17  1  0
  7 18  1  0
  8 19  1  0
  8 20  1  0
  8 21  1  0
  9 22  1  0
  9 23  1  0
M  END
