
     RDKit          3D

 20 21  0  0  0  0  0  0  0  0999 V2000
   -2.1307   -0.1821    0.3076 C   0  0  0  0  0  0  0  0  0  0  0  0
   -0.9196   -0.1570   -0.6259 C   0  0  0  0  0  0  0  0  0  0  0  0
   -0.0032   -1.2635   -0.3020 C   0  0  0  0  0  0  0  0  0  0  0  0
    1.1795   -0.9521    0.5258 C   0  0  0  0  0  0  0  0  0  0  0  0
    1.7925    0.3739    0.3440 C   0  0  0  0  0  0  0  0  0  0  0  0
    0.8885    1.4855   -0.0128 C   0  0  0  0  0  0  0  0  0  0  0  0
    0.6854    1.5892   -1.4352 O   0  0  0  0  0  0  0  0  0  0  0  0
   -0.3604    1.2105   -0.6084 C   0  0  0  0  0  0  0  0  0  0  0  0
   -1.9384   -0.9034    1.1432 H   0  0  0  0  0  0  0  0  0  0  0  0
   -2.2832    0.8011    0.8027 H   0  0  0  0  0  0  0  0  0  0  0  0
   -3.0642   -0.4155   -0.2216 H   0  0  0  0  0  0  0  0  0  0  0  0
   -1.3333   -0.3422   -1.6617 H   0  0  0  0  0  0  0  0  0  0  0  0
   -0.5988   -2.0553    0.2444 H   0  0  0  0  0  0  0  0  0  0  0  0
    0.3312   -1.8067   -1.2353 H   0  0  0  0  0  0  0  0  0  0  0  0
    0.9427   -1.1014    1.6167 H   0  0  0  0  0  0  0  0  0  0  0  0
    1.9699   -1.7321    0.3127 H   0  0  0  0  0  0  0  0  0  0  0  0
    2.3367    0.6454    1.2951 H   0  0  0  0  0  0  0  0  0  0  0  0
    2.6188    0.3207   -0.4240 H   0  0  0  0  0  0  0  0  0  0  0  0
    1.0442    2.4733    0.5065 H   0  0  0  0  0  0  0  0  0  0  0  0
   -1.1576    2.0118   -0.5717 H   0  0  0  0  0  0  0  0  0  0  0  0
  1  2  1  0
  2  3  1  0
  3  4  1  0
  4  5  1  0
  5  6  1  0
  6  7  1  0
  7  8  1  0
  8  2  1  0
  8  6  1  0
  1  9  1  0
  1 10  1  0
  1 11  1  0
  2 12  1  0
  3 13  1  0
  3 14  1  0
  4 15  1  0
  4 16  1  0
  5 17  1  0
  5 18  1  0
  6 19  1  0
  8 20  1  0
M  END
