
     RDKit          3D

 21 22  0  0  0  0  0  0  0  0999 V2000
   -1.0758    1.6449    0.5406 C   0  0  0  0  0  0  0  0  0  0  0  0
   -0.1384    0.8737   -0.3401 C   0  0  0  0  0  0  0  0  0  0  0  0
   -0.7072   -0.3796   -0.8967 C   0  0  0  0  0  0  0  0  0  0  0  0
   -1.9865   -0.2771   -1.3858 O   0  0  0  0  0  0  0  0  0  0  0  0
   -0.7287   -1.3011    0.3145 C   0  0  0  0  0  0  0  0  0  0  0  0
    0.6605   -1.0462    0.8824 C   0  0  0  0  0  0  0  0  0  0  0  0
    1.6591   -1.4521    0.0069 O   0  0  0  0  0  0  0  0  0  0  0  0
    2.1193   -0.1611   -0.3329 C   0  0  0  0  0  0  0  0  0  0  0  0
    1.0051    0.3840    0.5146 C   0  0  0  0  0  0  0  0  0  0  0  0
   -0.9976    2.7228    0.2257 H   0  0  0  0  0  0  0  0  0  0  0  0
   -0.7535    1.6348    1.6217 H   0  0  0  0  0  0  0  0  0  0  0  0
   -2.1033    1.2690    0.5322 H   0  0  0  0  0  0  0  0  0  0  0  0
    0.3009    1.4770   -1.1565 H   0  0  0  0  0  0  0  0  0  0  0  0
   -0.0075   -0.7979   -1.6301 H   0  0  0  0  0  0  0  0  0  0  0  0
   -2.1690   -1.1425   -1.8741 H   0  0  0  0  0  0  0  0  0  0  0  0
   -1.5046   -0.9485    0.9904 H   0  0  0  0  0  0  0  0  0  0  0  0
   -0.8352   -2.3592    0.0196 H   0  0  0  0  0  0  0  0  0  0  0  0
    0.7923   -1.3136    1.9375 H   0  0  0  0  0  0  0  0  0  0  0  0
    2.0771    0.0692   -1.4109 H   0  0  0  0  0  0  0  0  0  0  0  0
    3.1152    0.0887    0.0824 H   0  0  0  0  0  0  0  0  0  0  0  0
    1.2777    1.0149    1.3586 H   0  0  0  0  0  0  0  0  0  0  0  0
  1  2  1  0
  2  3  1  0
  3  4  1  0
  3  5  1  0
  5  6  1  0
  6  7  1  0
  7  8  1  0
  8  9  1  0
  9  2  1  0
  9  6  1  0
  1 10  1  0
  1 11  1  0
  1 12  1  0
  2 13  1  0
  3 14  1  0
  4 15  1  0
  5 16  1  0
  5 17  1  0
  6 18  1  0
  8 19  1  0
  8 20  1  0
  9 21  1  0
M  END
