
     RDKit          3D

 21 21  0  0  0  0  0  0  0  0999 V2000
    2.8238   -0.0307    0.7148 C   0  0  0  0  0  0  0  0  0  0  0  0
    1.4195   -0.5483    0.7279 C   0  0  0  0  0  0  0  0  0  0  0  0
    0.7364   -0.5540   -0.6294 C   0  0  0  0  0  0  0  0  0  0  0  0
    0.2708    0.3728    0.4323 C   0  0  0  0  0  0  0  0  0  0  0  0
   -1.0998    0.0508    0.9997 C   0  0  0  0  0  0  0  0  0  0  0  0
   -1.5929   -1.2694    0.5213 C   0  0  0  0  0  0  0  0  0  0  0  0
   -1.4075   -2.3140    1.1255 O   0  0  0  0  0  0  0  0  0  0  0  0
   -2.0502    1.1186    0.4900 C   0  0  0  0  0  0  0  0  0  0  0  0
   -2.0285    1.0398   -0.9066 O   0  0  0  0  0  0  0  0  0  0  0  0
    3.0749    0.6172    1.5745 H   0  0  0  0  0  0  0  0  0  0  0  0
    3.5003   -0.9292    0.8024 H   0  0  0  0  0  0  0  0  0  0  0  0
    3.0820    0.4259   -0.2615 H   0  0  0  0  0  0  0  0  0  0  0  0
    1.2497   -1.3924    1.4220 H   0  0  0  0  0  0  0  0  0  0  0  0
    1.2745   -0.1573   -1.4986 H   0  0  0  0  0  0  0  0  0  0  0  0
    0.1827   -1.4956   -0.8222 H   0  0  0  0  0  0  0  0  0  0  0  0
    0.5646    1.4370    0.3324 H   0  0  0  0  0  0  0  0  0  0  0  0
   -1.0875    0.0041    2.1065 H   0  0  0  0  0  0  0  0  0  0  0  0
   -2.1573   -1.3595   -0.4175 H   0  0  0  0  0  0  0  0  0  0  0  0
   -3.0967    0.8992    0.7956 H   0  0  0  0  0  0  0  0  0  0  0  0
   -1.7235    2.1274    0.8363 H   0  0  0  0  0  0  0  0  0  0  0  0
   -1.9352    1.9575   -1.3084 H   0  0  0  0  0  0  0  0  0  0  0  0
  1  2  1  0
  2  3  1  0
  3  4  1  0
  4  5  1  0
  5  6  1  0
  6  7  2  0
  5  8  1  0
  8  9  1  0
  4  2  1  0
  1 10  1  0
  1 11  1  0
  1 12  1  0
  2 13  1  0
  3 14  1  0
  3 15  1  0
  4 16  1  0
  5 17  1  0
  6 18  1  0
  8 19  1  0
  8 20  1  0
  9 21  1  0
M  END
