
     RDKit          3D

 21 23  0  0  0  0  0  0  0  0999 V2000
   -1.8419    1.3344    0.3023 C   0  0  0  0  0  0  0  0  0  0  0  0
   -0.8099    0.7636   -0.6067 C   0  0  0  0  0  0  0  0  0  0  0  0
    0.6137    1.1632   -0.3599 C   0  0  0  0  0  0  0  0  0  0  0  0
    0.5372    0.3199    0.8798 C   0  0  0  0  0  0  0  0  0  0  0  0
    1.9046   -0.2311    0.9869 C   0  0  0  0  0  0  0  0  0  0  0  0
    2.1958   -0.5511   -0.2978 C   0  0  0  0  0  0  0  0  0  0  0  0
    1.0014   -0.1149   -1.0339 C   0  0  0  0  0  0  0  0  0  0  0  0
   -0.1474   -0.5154   -0.1564 C   0  0  0  0  0  0  0  0  0  0  0  0
   -0.7198   -1.7472   -0.0182 C   0  0  0  0  0  0  0  0  0  0  0  0
   -1.6658    2.3671    0.6206 H   0  0  0  0  0  0  0  0  0  0  0  0
   -1.9632    0.6304    1.1637 H   0  0  0  0  0  0  0  0  0  0  0  0
   -2.8302    1.2785   -0.2402 H   0  0  0  0  0  0  0  0  0  0  0  0
   -1.0946    0.6779   -1.6739 H   0  0  0  0  0  0  0  0  0  0  0  0
    1.0275    2.0684   -0.4599 H   0  0  0  0  0  0  0  0  0  0  0  0
    0.0194    0.6634    1.7361 H   0  0  0  0  0  0  0  0  0  0  0  0
    2.5263   -0.3530    1.8648 H   0  0  0  0  0  0  0  0  0  0  0  0
    3.0924   -1.0165   -0.6903 H   0  0  0  0  0  0  0  0  0  0  0  0
    0.9355   -0.2158   -2.0860 H   0  0  0  0  0  0  0  0  0  0  0  0
   -0.3765   -2.3434    0.8654 H   0  0  0  0  0  0  0  0  0  0  0  0
   -0.5595   -2.4452   -0.8897 H   0  0  0  0  0  0  0  0  0  0  0  0
   -1.8449   -1.7334    0.0933 H   0  0  0  0  0  0  0  0  0  0  0  0
  1  2  1  0
  2  3  1  0
  3  4  1  0
  4  5  1  0
  5  6  2  0
  6  7  1  0
  7  8  1  0
  8  9  1  0
  8  2  1  0
  7  3  1  0
  8  4  1  0
  1 10  1  0
  1 11  1  0
  1 12  1  0
  2 13  1  0
  3 14  1  0
  4 15  1  0
  5 16  1  0
  6 17  1  0
  7 18  1  0
  9 19  1  0
  9 20  1  0
  9 21  1  0
M  END
