
     RDKit          3D

 23 25  0  0  0  0  0  0  0  0999 V2000
    2.2182    1.0645    0.9569 C   0  0  0  0  0  0  0  0  0  0  0  0
    1.7621   -0.1570    0.1606 C   0  0  0  0  0  0  0  0  0  0  0  0
    0.7639   -1.0038    0.6668 C   0  0  0  0  0  0  0  0  0  0  0  0
   -0.1173   -2.0481    0.1074 C   0  0  0  0  0  0  0  0  0  0  0  0
   -1.3770   -1.1998   -0.1742 C   0  0  0  0  0  0  0  0  0  0  0  0
   -0.8348    0.2428   -0.2414 C   0  0  0  0  0  0  0  0  0  0  0  0
   -1.6458    1.3202   -0.7855 C   0  0  0  0  0  0  0  0  0  0  0  0
   -1.3071    1.2399    0.7098 C   0  0  0  0  0  0  0  0  0  0  0  0
    0.5695   -0.0385   -0.5752 C   0  0  0  0  0  0  0  0  0  0  0  0
    2.1286    1.9411    0.2790 H   0  0  0  0  0  0  0  0  0  0  0  0
    1.5658    1.2165    1.8473 H   0  0  0  0  0  0  0  0  0  0  0  0
    3.2401    0.9869    1.3174 H   0  0  0  0  0  0  0  0  0  0  0  0
    2.6702   -0.6427   -0.3054 H   0  0  0  0  0  0  0  0  0  0  0  0
    0.2977   -0.6374    1.6353 H   0  0  0  0  0  0  0  0  0  0  0  0
    0.2465   -2.3828   -0.8602 H   0  0  0  0  0  0  0  0  0  0  0  0
   -0.3467   -2.8864    0.7808 H   0  0  0  0  0  0  0  0  0  0  0  0
   -2.1097   -1.3033    0.6270 H   0  0  0  0  0  0  0  0  0  0  0  0
   -1.7815   -1.4397   -1.1813 H   0  0  0  0  0  0  0  0  0  0  0  0
   -2.7056    1.2262   -1.0757 H   0  0  0  0  0  0  0  0  0  0  0  0
   -1.1160    2.1270   -1.3500 H   0  0  0  0  0  0  0  0  0  0  0  0
   -0.5913    1.9688    1.1133 H   0  0  0  0  0  0  0  0  0  0  0  0
   -2.1209    0.9622    1.4023 H   0  0  0  0  0  0  0  0  0  0  0  0
    0.5911   -0.5567   -1.5877 H   0  0  0  0  0  0  0  0  0  0  0  0
  1  2  1  0
  2  3  1  0
  3  4  1  0
  4  5  1  0
  5  6  1  0
  6  7  1  0
  7  8  1  0
  6  9  1  0
  9  2  1  0
  9  3  1  0
  8  6  1  0
  1 10  1  0
  1 11  1  0
  1 12  1  0
  2 13  1  0
  3 14  1  0
  4 15  1  0
  4 16  1  0
  5 17  1  0
  5 18  1  0
  7 19  1  0
  7 20  1  0
  8 21  1  0
  8 22  1  0
  9 23  1  0
M  END
