
     RDKit          3D

 17 17  0  0  0  0  0  0  0  0999 V2000
    2.2363   -0.4027    0.3602 C   0  0  0  0  0  0  0  0  0  0  0  0
    0.9132    0.2243    0.6212 C   0  0  0  0  0  0  0  0  0  0  0  0
    0.1737    0.7243   -0.6275 C   0  0  0  0  0  0  0  0  0  0  0  0
   -1.0716    0.3488    0.1837 C   0  0  0  0  0  0  0  0  0  0  0  0
   -2.1772   -0.1160   -0.7034 C   0  0  0  0  0  0  0  0  0  0  0  0
   -0.2330   -0.6897    0.8131 C   0  0  0  0  0  0  0  0  0  0  0  0
   -0.3726   -1.7873    1.2813 O   0  0  0  0  0  0  0  0  0  0  0  0
    3.0228    0.3744    0.5519 H   0  0  0  0  0  0  0  0  0  0  0  0
    2.3488   -0.7112   -0.6829 H   0  0  0  0  0  0  0  0  0  0  0  0
    2.4535   -1.2199    1.0843 H   0  0  0  0  0  0  0  0  0  0  0  0
    0.9040    1.0400    1.3961 H   0  0  0  0  0  0  0  0  0  0  0  0
    0.2804    1.7826   -0.8343 H   0  0  0  0  0  0  0  0  0  0  0  0
    0.3158    0.0101   -1.4406 H   0  0  0  0  0  0  0  0  0  0  0  0
   -1.3307    1.1946    0.8639 H   0  0  0  0  0  0  0  0  0  0  0  0
   -2.8844   -0.8183   -0.2303 H   0  0  0  0  0  0  0  0  0  0  0  0
   -1.8020   -0.5340   -1.6584 H   0  0  0  0  0  0  0  0  0  0  0  0
   -2.7769    0.7845   -0.9782 H   0  0  0  0  0  0  0  0  0  0  0  0
  1  2  1  0
  2  3  1  0
  3  4  1  0
  4  5  1  0
  4  6  1  0
  6  7  2  0
  6  2  1  0
  1  8  1  0
  1  9  1  0
  1 10  1  0
  2 11  1  0
  3 12  1  0
  3 13  1  0
  4 14  1  0
  5 15  1  0
  5 16  1  0
  5 17  1  0
M  END
