
     RDKit          3D

 18 19  0  0  0  0  0  0  0  0999 V2000
   -2.0878   -0.2253   -0.4568 C   0  0  0  0  0  0  0  0  0  0  0  0
   -0.6403   -0.5034   -0.7586 C   0  0  0  0  0  0  0  0  0  0  0  0
    0.1598   -0.9744    0.3931 C   0  0  0  0  0  0  0  0  0  0  0  0
    1.3025   -1.7059    0.0911 O   0  0  0  0  0  0  0  0  0  0  0  0
    2.2887   -0.7332    0.0271 C   0  0  0  0  0  0  0  0  0  0  0  0
    1.6913    0.3149   -0.6655 O   0  0  0  0  0  0  0  0  0  0  0  0
    0.4215    0.3707   -0.1018 C   0  0  0  0  0  0  0  0  0  0  0  0
   -0.0902    1.6204    0.5067 C   0  0  0  0  0  0  0  0  0  0  0  0
   -2.5551    0.5048   -1.1228 H   0  0  0  0  0  0  0  0  0  0  0  0
   -2.2017    0.0633    0.6274 H   0  0  0  0  0  0  0  0  0  0  0  0
   -2.6378   -1.2100   -0.5094 H   0  0  0  0  0  0  0  0  0  0  0  0
   -0.4170   -0.7594   -1.7979 H   0  0  0  0  0  0  0  0  0  0  0  0
   -0.3400   -1.2090    1.3417 H   0  0  0  0  0  0  0  0  0  0  0  0
    2.5911   -0.4178    1.0319 H   0  0  0  0  0  0  0  0  0  0  0  0
    3.1461   -1.1793   -0.5145 H   0  0  0  0  0  0  0  0  0  0  0  0
    0.4150    2.4841   -0.0195 H   0  0  0  0  0  0  0  0  0  0  0  0
   -1.1772    1.8053    0.3502 H   0  0  0  0  0  0  0  0  0  0  0  0
    0.1311    1.7541    1.5775 H   0  0  0  0  0  0  0  0  0  0  0  0
  1  2  1  0
  2  3  1  0
  3  4  1  0
  4  5  1  0
  5  6  1  0
  6  7  1  0
  7  8  1  0
  7  2  1  0
  7  3  1  0
  1  9  1  0
  1 10  1  0
  1 11  1  0
  2 12  1  0
  3 13  1  0
  5 14  1  0
  5 15  1  0
  8 16  1  0
  8 17  1  0
  8 18  1  0
M  END
