
     RDKit          3D

 23 24  0  0  0  0  0  0  0  0999 V2000
   -2.2539    0.8458    0.2408 C   0  0  0  0  0  0  0  0  0  0  0  0
   -1.4810   -0.1127   -0.6552 C   0  0  0  0  0  0  0  0  0  0  0  0
   -1.2608   -1.3878    0.0709 C   0  0  0  0  0  0  0  0  0  0  0  0
    0.1616   -1.6501    0.4159 C   0  0  0  0  0  0  0  0  0  0  0  0
    1.1074   -0.7237    0.4701 C   0  0  0  0  0  0  0  0  0  0  0  0
    2.4920   -0.2316    0.6870 C   0  0  0  0  0  0  0  0  0  0  0  0
    2.1046    1.0382   -0.0592 C   0  0  0  0  0  0  0  0  0  0  0  0
    0.6589    0.6739    0.1479 C   0  0  0  0  0  0  0  0  0  0  0  0
   -0.1748    0.5149   -1.1110 C   0  0  0  0  0  0  0  0  0  0  0  0
   -1.7835    1.8466    0.1905 H   0  0  0  0  0  0  0  0  0  0  0  0
   -2.2275    0.4642    1.2967 H   0  0  0  0  0  0  0  0  0  0  0  0
   -3.3172    0.8449   -0.0701 H   0  0  0  0  0  0  0  0  0  0  0  0
   -2.0845   -0.3098   -1.5640 H   0  0  0  0  0  0  0  0  0  0  0  0
   -1.8870   -1.4320    0.9864 H   0  0  0  0  0  0  0  0  0  0  0  0
   -1.5332   -2.2360   -0.6265 H   0  0  0  0  0  0  0  0  0  0  0  0
    0.4770   -2.6794    0.6465 H   0  0  0  0  0  0  0  0  0  0  0  0
    2.7401   -0.1208    1.7374 H   0  0  0  0  0  0  0  0  0  0  0  0
    3.2840   -0.7495    0.1344 H   0  0  0  0  0  0  0  0  0  0  0  0
    2.3552    1.9162    0.5858 H   0  0  0  0  0  0  0  0  0  0  0  0
    2.4534    1.0970   -1.0930 H   0  0  0  0  0  0  0  0  0  0  0  0
    0.1463    1.1851    0.9849 H   0  0  0  0  0  0  0  0  0  0  0  0
   -0.3135    1.4353   -1.6639 H   0  0  0  0  0  0  0  0  0  0  0  0
    0.3363   -0.2285   -1.7524 H   0  0  0  0  0  0  0  0  0  0  0  0
  1  2  1  0
  2  3  1  0
  3  4  1  0
  4  5  2  0
  5  6  1  0
  6  7  1  0
  7  8  1  0
  8  9  1  0
  9  2  1  0
  8  5  1  0
  1 10  1  0
  1 11  1  0
  1 12  1  0
  2 13  1  0
  3 14  1  0
  3 15  1  0
  4 16  1  0
  6 17  1  0
  6 18  1  0
  7 19  1  0
  7 20  1  0
  8 21  1  0
  9 22  1  0
  9 23  1  0
M  END
