
     RDKit          3D

 19 19  0  0  0  0  0  0  0  0999 V2000
    2.3990    0.2489   -0.6879 C   0  0  0  0  0  0  0  0  0  0  0  0
    1.1387   -0.5888   -0.5266 C   0  0  0  0  0  0  0  0  0  0  0  0
    0.9333   -0.8244    0.9457 C   0  0  0  0  0  0  0  0  0  0  0  0
   -0.2908   -0.4502    1.2947 C   0  0  0  0  0  0  0  0  0  0  0  0
   -0.9193    0.0435    0.0444 C   0  0  0  0  0  0  0  0  0  0  0  0
   -1.6106    1.3733    0.2534 C   0  0  0  0  0  0  0  0  0  0  0  0
   -1.9461   -0.9033   -0.4661 C   0  0  0  0  0  0  0  0  0  0  0  0
   -1.7900   -1.3690   -1.5770 O   0  0  0  0  0  0  0  0  0  0  0  0
    0.0685    0.2281   -0.8805 O   0  0  0  0  0  0  0  0  0  0  0  0
    2.8223    0.0266   -1.6830 H   0  0  0  0  0  0  0  0  0  0  0  0
    3.1023    0.1127    0.1447 H   0  0  0  0  0  0  0  0  0  0  0  0
    2.1460    1.3473   -0.6943 H   0  0  0  0  0  0  0  0  0  0  0  0
    1.1986   -1.5178   -1.0969 H   0  0  0  0  0  0  0  0  0  0  0  0
    1.7076   -1.2421    1.5820 H   0  0  0  0  0  0  0  0  0  0  0  0
   -0.7441   -0.4918    2.2793 H   0  0  0  0  0  0  0  0  0  0  0  0
   -2.5889    1.4106   -0.2691 H   0  0  0  0  0  0  0  0  0  0  0  0
   -1.0038    2.2097   -0.1620 H   0  0  0  0  0  0  0  0  0  0  0  0
   -1.8029    1.5578    1.3509 H   0  0  0  0  0  0  0  0  0  0  0  0
   -2.8199   -1.1711    0.1482 H   0  0  0  0  0  0  0  0  0  0  0  0
  1  2  1  0
  2  3  1  0
  3  4  2  0
  4  5  1  0
  5  6  1  0
  5  7  1  0
  7  8  2  0
  5  9  1  0
  9  2  1  0
  1 10  1  0
  1 11  1  0
  1 12  1  0
  2 13  1  0
  3 14  1  0
  4 15  1  0
  6 16  1  0
  6 17  1  0
  6 18  1  0
  7 19  1  0
M  END
