
     RDKit          3D

 21 22  0  0  0  0  0  0  0  0999 V2000
   -2.4037    0.1410    1.1177 C   0  0  0  0  0  0  0  0  0  0  0  0
   -2.3337   -0.0824   -0.3583 C   0  0  0  0  0  0  0  0  0  0  0  0
   -1.9590    0.9774   -1.3077 C   0  0  0  0  0  0  0  0  0  0  0  0
   -0.9218   -0.0599   -0.9254 C   0  0  0  0  0  0  0  0  0  0  0  0
    0.1032    0.4540   -0.1331 O   0  0  0  0  0  0  0  0  0  0  0  0
    1.2730   -0.1674   -0.4875 C   0  0  0  0  0  0  0  0  0  0  0  0
    2.4339    0.3493    0.3416 C   0  0  0  0  0  0  0  0  0  0  0  0
    3.1913   -0.4992    1.2006 C   0  0  0  0  0  0  0  0  0  0  0  0
    3.6567   -0.3726   -0.1043 O   0  0  0  0  0  0  0  0  0  0  0  0
   -1.4361    0.4959    1.5275 H   0  0  0  0  0  0  0  0  0  0  0  0
   -3.1728    0.8858    1.4141 H   0  0  0  0  0  0  0  0  0  0  0  0
   -2.6260   -0.8484    1.6063 H   0  0  0  0  0  0  0  0  0  0  0  0
   -2.9757   -0.9153   -0.7542 H   0  0  0  0  0  0  0  0  0  0  0  0
   -2.3058    0.8925   -2.3487 H   0  0  0  0  0  0  0  0  0  0  0  0
   -1.8217    2.0293   -0.9685 H   0  0  0  0  0  0  0  0  0  0  0  0
   -0.6576   -0.8454   -1.6776 H   0  0  0  0  0  0  0  0  0  0  0  0
    1.5347   -0.0751   -1.5595 H   0  0  0  0  0  0  0  0  0  0  0  0
    1.1346   -1.2677   -0.2836 H   0  0  0  0  0  0  0  0  0  0  0  0
    2.6380    1.4220    0.2439 H   0  0  0  0  0  0  0  0  0  0  0  0
    3.7990   -0.0487    2.0141 H   0  0  0  0  0  0  0  0  0  0  0  0
    2.8495   -1.5202    1.4425 H   0  0  0  0  0  0  0  0  0  0  0  0
  1  2  1  0
  2  3  1  0
  3  4  1  0
  4  5  1  0
  5  6  1  0
  6  7  1  0
  7  8  1  0
  8  9  1  0
  4  2  1  0
  9  7  1  0
  1 10  1  0
  1 11  1  0
  1 12  1  0
  2 13  1  0
  3 14  1  0
  3 15  1  0
  4 16  1  0
  6 17  1  0
  6 18  1  0
  7 19  1  0
  8 20  1  0
  8 21  1  0
M  END
