
     RDKit          3D

 21 22  0  0  0  0  0  0  0  0999 V2000
    2.1645   -0.2734   -0.1161 C   0  0  0  0  0  0  0  0  0  0  0  0
    0.7571   -0.6698   -0.3645 C   0  0  0  0  0  0  0  0  0  0  0  0
   -0.0380    0.4148   -1.1006 C   0  0  0  0  0  0  0  0  0  0  0  0
   -0.2887    1.4400   -0.0233 C   0  0  0  0  0  0  0  0  0  0  0  0
   -0.3116    0.6783    1.2849 C   0  0  0  0  0  0  0  0  0  0  0  0
   -0.0848   -0.7709    0.8879 C   0  0  0  0  0  0  0  0  0  0  0  0
   -1.2831   -1.3183    0.5429 O   0  0  0  0  0  0  0  0  0  0  0  0
   -1.9295   -0.7947   -0.5188 C   0  0  0  0  0  0  0  0  0  0  0  0
   -1.2229   -0.1459   -1.4661 O   0  0  0  0  0  0  0  0  0  0  0  0
    2.2721    0.4423    0.6948 H   0  0  0  0  0  0  0  0  0  0  0  0
    2.7522   -1.2049    0.0903 H   0  0  0  0  0  0  0  0  0  0  0  0
    2.5864    0.1062   -1.0902 H   0  0  0  0  0  0  0  0  0  0  0  0
    0.6459   -1.6013   -0.9207 H   0  0  0  0  0  0  0  0  0  0  0  0
    0.4929    0.8067   -1.9657 H   0  0  0  0  0  0  0  0  0  0  0  0
   -1.3126    1.8875   -0.1515 H   0  0  0  0  0  0  0  0  0  0  0  0
    0.4243    2.2674   -0.0182 H   0  0  0  0  0  0  0  0  0  0  0  0
   -1.2871    0.7717    1.8073 H   0  0  0  0  0  0  0  0  0  0  0  0
    0.5189    1.0646    1.9045 H   0  0  0  0  0  0  0  0  0  0  0  0
    0.3892   -1.3456    1.6859 H   0  0  0  0  0  0  0  0  0  0  0  0
   -2.7489   -0.1220   -0.1365 H   0  0  0  0  0  0  0  0  0  0  0  0
   -2.4962   -1.6326   -1.0263 H   0  0  0  0  0  0  0  0  0  0  0  0
  1  2  1  0
  2  3  1  0
  3  4  1  0
  4  5  1  0
  5  6  1  0
  6  7  1  0
  7  8  1  0
  8  9  1  0
  6  2  1  0
  9  3  1  0
  1 10  1  0
  1 11  1  0
  1 12  1  0
  2 13  1  0
  3 14  1  0
  4 15  1  0
  4 16  1  0
  5 17  1  0
  5 18  1  0
  6 19  1  0
  8 20  1  0
  8 21  1  0
M  END
