
     RDKit          3D

 23 24  0  0  0  0  0  0  0  0999 V2000
   -3.1018    0.2042    0.4279 C   0  0  0  0  0  0  0  0  0  0  0  0
   -1.8529   -0.1644   -0.3470 C   0  0  0  0  0  0  0  0  0  0  0  0
   -1.0482    1.0246   -0.8446 C   0  0  0  0  0  0  0  0  0  0  0  0
   -0.5183    0.1698    0.2115 C   0  0  0  0  0  0  0  0  0  0  0  0
    0.6668   -0.7100    0.0267 C   0  0  0  0  0  0  0  0  0  0  0  0
    1.1259   -0.9963   -1.3554 C   0  0  0  0  0  0  0  0  0  0  0  0
    2.4465   -0.9171   -0.8462 O   0  0  0  0  0  0  0  0  0  0  0  0
    1.9816    0.0722    0.0059 C   0  0  0  0  0  0  0  0  0  0  0  0
    2.5492    0.1242    1.3762 C   0  0  0  0  0  0  0  0  0  0  0  0
   -2.8561    0.1015    1.5164 H   0  0  0  0  0  0  0  0  0  0  0  0
   -3.3668    1.2641    0.2313 H   0  0  0  0  0  0  0  0  0  0  0  0
   -3.9349   -0.4755    0.1320 H   0  0  0  0  0  0  0  0  0  0  0  0
   -1.9000   -1.0741   -0.9698 H   0  0  0  0  0  0  0  0  0  0  0  0
   -0.7776    0.9371   -1.9099 H   0  0  0  0  0  0  0  0  0  0  0  0
   -1.4087    2.0453   -0.5827 H   0  0  0  0  0  0  0  0  0  0  0  0
   -0.5726    0.5966    1.2551 H   0  0  0  0  0  0  0  0  0  0  0  0
    0.7730   -1.5647    0.7114 H   0  0  0  0  0  0  0  0  0  0  0  0
    0.9091   -2.0350   -1.7298 H   0  0  0  0  0  0  0  0  0  0  0  0
    0.8951   -0.2141   -2.0993 H   0  0  0  0  0  0  0  0  0  0  0  0
    1.9321    1.0322   -0.5346 H   0  0  0  0  0  0  0  0  0  0  0  0
    2.4288    1.1844    1.7475 H   0  0  0  0  0  0  0  0  0  0  0  0
    2.0122   -0.5003    2.1207 H   0  0  0  0  0  0  0  0  0  0  0  0
    3.6176   -0.1044    1.4568 H   0  0  0  0  0  0  0  0  0  0  0  0
  1  2  1  0
  2  3  1  0
  3  4  1  0
  4  5  1  0
  5  6  1  0
  6  7  1  0
  7  8  1  0
  8  9  1  0
  4  2  1  0
  8  5  1  0
  1 10  1  0
  1 11  1  0
  1 12  1  0
  2 13  1  0
  3 14  1  0
  3 15  1  0
  4 16  1  0
  5 17  1  0
  6 18  1  0
  6 19  1  0
  8 20  1  0
  9 21  1  0
  9 22  1  0
  9 23  1  0
M  END
