
     RDKit          3D

 19 20  0  0  0  0  0  0  0  0999 V2000
   -2.4323   -0.4309    0.1167 C   0  0  0  0  0  0  0  0  0  0  0  0
   -1.2613    0.5086    0.3450 C   0  0  0  0  0  0  0  0  0  0  0  0
   -0.1171    0.0054    0.9932 C   0  0  0  0  0  0  0  0  0  0  0  0
    0.6490   -1.1014    0.8757 O   0  0  0  0  0  0  0  0  0  0  0  0
    1.9561   -0.6690    0.6156 C   0  0  0  0  0  0  0  0  0  0  0  0
    2.1405    0.2515   -0.3405 O   0  0  0  0  0  0  0  0  0  0  0  0
    1.1284    1.1671   -0.6033 C   0  0  0  0  0  0  0  0  0  0  0  0
   -0.1486    0.4450   -0.5146 C   0  0  0  0  0  0  0  0  0  0  0  0
   -0.1792   -0.6021   -1.4722 O   0  0  0  0  0  0  0  0  0  0  0  0
   -3.3390   -0.1100    0.6643 H   0  0  0  0  0  0  0  0  0  0  0  0
   -2.1973   -1.4605    0.5147 H   0  0  0  0  0  0  0  0  0  0  0  0
   -2.6741   -0.5625   -0.9481 H   0  0  0  0  0  0  0  0  0  0  0  0
   -1.6437    1.5353    0.6225 H   0  0  0  0  0  0  0  0  0  0  0  0
    0.3838    0.7170    1.7195 H   0  0  0  0  0  0  0  0  0  0  0  0
    2.3706   -0.3813    1.6255 H   0  0  0  0  0  0  0  0  0  0  0  0
    2.5466   -1.5943    0.3451 H   0  0  0  0  0  0  0  0  0  0  0  0
    1.3471    1.6447   -1.5751 H   0  0  0  0  0  0  0  0  0  0  0  0
    1.1242    2.0002    0.1579 H   0  0  0  0  0  0  0  0  0  0  0  0
    0.3464   -1.3629   -1.1218 H   0  0  0  0  0  0  0  0  0  0  0  0
  1  2  1  0
  2  3  1  0
  3  4  1  0
  4  5  1  0
  5  6  1  0
  6  7  1  0
  7  8  1  0
  8  9  1  0
  8  2  1  0
  8  3  1  0
  1 10  1  0
  1 11  1  0
  1 12  1  0
  2 13  1  0
  3 14  1  0
  5 15  1  0
  5 16  1  0
  7 17  1  0
  7 18  1  0
  9 19  1  0
M  END
