
     RDKit          3D

 19 20  0  0  0  0  0  0  0  0999 V2000
    1.6021   -0.8612   -0.8557 C   0  0  0  0  0  0  0  0  0  0  0  0
    0.6248   -0.8228    0.2849 C   0  0  0  0  0  0  0  0  0  0  0  0
    0.4080    0.5850    0.9188 C   0  0  0  0  0  0  0  0  0  0  0  0
    1.0978    1.7085    0.2218 C   0  0  0  0  0  0  0  0  0  0  0  0
    1.7068    2.5885    0.8202 O   0  0  0  0  0  0  0  0  0  0  0  0
   -0.6486   -0.1637    0.2556 C   0  0  0  0  0  0  0  0  0  0  0  0
   -1.4179    0.2805   -0.9185 C   0  0  0  0  0  0  0  0  0  0  0  0
   -2.5651   -0.2700   -0.2989 O   0  0  0  0  0  0  0  0  0  0  0  0
   -1.8916   -0.6545    0.8829 C   0  0  0  0  0  0  0  0  0  0  0  0
    1.1837   -0.3868   -1.7716 H   0  0  0  0  0  0  0  0  0  0  0  0
    1.9355   -1.8932   -1.0327 H   0  0  0  0  0  0  0  0  0  0  0  0
    2.4955   -0.2777   -0.5434 H   0  0  0  0  0  0  0  0  0  0  0  0
    0.8158   -1.6278    1.0462 H   0  0  0  0  0  0  0  0  0  0  0  0
    0.5094    0.6386    2.0236 H   0  0  0  0  0  0  0  0  0  0  0  0
    1.0957    1.8057   -0.8653 H   0  0  0  0  0  0  0  0  0  0  0  0
   -1.5729    1.3724   -1.0652 H   0  0  0  0  0  0  0  0  0  0  0  0
   -1.2393   -0.2037   -1.8891 H   0  0  0  0  0  0  0  0  0  0  0  0
   -2.2156   -0.0591    1.7455 H   0  0  0  0  0  0  0  0  0  0  0  0
   -1.9240   -1.7586    1.0410 H   0  0  0  0  0  0  0  0  0  0  0  0
  1  2  1  0
  2  3  1  0
  3  4  1  0
  4  5  2  0
  3  6  1  0
  6  7  1  0
  7  8  1  0
  8  9  1  0
  6  2  1  0
  9  6  1  0
  1 10  1  0
  1 11  1  0
  1 12  1  0
  2 13  1  0
  3 14  1  0
  4 15  1  0
  7 16  1  0
  7 17  1  0
  9 18  1  0
  9 19  1  0
M  END
