
     RDKit          3D

 21 21  0  0  0  0  0  0  0  0999 V2000
    2.6741   -0.9418   -0.3362 C   0  0  0  0  0  0  0  0  0  0  0  0
    1.5222    0.0277   -0.4927 C   0  0  0  0  0  0  0  0  0  0  0  0
    0.3013   -0.7352   -0.8407 C   0  0  0  0  0  0  0  0  0  0  0  0
   -0.6555   -0.2570   -0.0583 C   0  0  0  0  0  0  0  0  0  0  0  0
   -2.0744   -0.7226   -0.0499 C   0  0  0  0  0  0  0  0  0  0  0  0
   -2.3361   -1.1921    1.2274 O   0  0  0  0  0  0  0  0  0  0  0  0
   -0.1199    0.8016    0.8039 C   0  0  0  0  0  0  0  0  0  0  0  0
   -0.6386    2.1309    0.3107 C   0  0  0  0  0  0  0  0  0  0  0  0
    1.2422    0.6809    0.7092 O   0  0  0  0  0  0  0  0  0  0  0  0
    3.4975   -0.5030    0.2622 H   0  0  0  0  0  0  0  0  0  0  0  0
    3.0900   -1.2071   -1.3153 H   0  0  0  0  0  0  0  0  0  0  0  0
    2.2544   -1.8567    0.1288 H   0  0  0  0  0  0  0  0  0  0  0  0
    1.7994    0.7777   -1.2363 H   0  0  0  0  0  0  0  0  0  0  0  0
    0.1446   -1.5219   -1.5602 H   0  0  0  0  0  0  0  0  0  0  0  0
   -2.7664    0.1097   -0.3006 H   0  0  0  0  0  0  0  0  0  0  0  0
   -2.2222   -1.5176   -0.8136 H   0  0  0  0  0  0  0  0  0  0  0  0
   -2.7977   -2.0669    1.2101 H   0  0  0  0  0  0  0  0  0  0  0  0
   -0.5245    0.6534    1.8239 H   0  0  0  0  0  0  0  0  0  0  0  0
   -0.6879    2.8524    1.1434 H   0  0  0  0  0  0  0  0  0  0  0  0
   -1.6711    1.9805   -0.0667 H   0  0  0  0  0  0  0  0  0  0  0  0
   -0.0312    2.5071   -0.5491 H   0  0  0  0  0  0  0  0  0  0  0  0
  1  2  1  0
  2  3  1  0
  3  4  2  0
  4  5  1  0
  5  6  1  0
  4  7  1  0
  7  8  1  0
  7  9  1  0
  9  2  1  0
  1 10  1  0
  1 11  1  0
  1 12  1  0
  2 13  1  0
  3 14  1  0
  5 15  1  0
  5 16  1  0
  6 17  1  0
  7 18  1  0
  8 19  1  0
  8 20  1  0
  8 21  1  0
M  END
