
     RDKit          3D

 21 21  0  0  0  0  0  0  0  0999 V2000
    1.7309   -0.4516   -0.7806 C   0  0  0  0  0  0  0  0  0  0  0  0
    0.6445   -0.6089    0.2231 C   0  0  0  0  0  0  0  0  0  0  0  0
    0.9740   -0.0331    1.5694 C   0  0  0  0  0  0  0  0  0  0  0  0
   -0.3232    0.7482    1.5043 C   0  0  0  0  0  0  0  0  0  0  0  0
   -0.5746    0.2100    0.0938 C   0  0  0  0  0  0  0  0  0  0  0  0
   -0.5627    1.3544   -0.8758 C   0  0  0  0  0  0  0  0  0  0  0  0
   -1.8069   -0.4582    0.0614 O   0  0  0  0  0  0  0  0  0  0  0  0
   -2.1058   -1.3857   -0.9168 C   0  0  0  0  0  0  0  0  0  0  0  0
   -1.2298   -1.6147   -1.7860 O   0  0  0  0  0  0  0  0  0  0  0  0
    1.9499    0.5768   -1.0662 H   0  0  0  0  0  0  0  0  0  0  0  0
    1.5487   -1.0830   -1.6811 H   0  0  0  0  0  0  0  0  0  0  0  0
    2.6770   -0.8522   -0.3103 H   0  0  0  0  0  0  0  0  0  0  0  0
    0.4021   -1.7033    0.3484 H   0  0  0  0  0  0  0  0  0  0  0  0
    0.9373   -0.7305    2.4174 H   0  0  0  0  0  0  0  0  0  0  0  0
    1.8852    0.5664    1.5806 H   0  0  0  0  0  0  0  0  0  0  0  0
   -0.1173    1.8155    1.5667 H   0  0  0  0  0  0  0  0  0  0  0  0
   -1.0829    0.4541    2.2470 H   0  0  0  0  0  0  0  0  0  0  0  0
    0.3992    1.8943   -0.9224 H   0  0  0  0  0  0  0  0  0  0  0  0
   -0.9612    1.0834   -1.8804 H   0  0  0  0  0  0  0  0  0  0  0  0
   -1.3022    2.1115   -0.4776 H   0  0  0  0  0  0  0  0  0  0  0  0
   -3.0824   -1.8934   -0.9148 H   0  0  0  0  0  0  0  0  0  0  0  0
  1  2  1  0
  2  3  1  0
  3  4  1  0
  4  5  1  0
  5  6  1  0
  5  7  1  0
  7  8  1  0
  8  9  2  0
  5  2  1  0
  1 10  1  0
  1 11  1  0
  1 12  1  0
  2 13  1  0
  3 14  1  0
  3 15  1  0
  4 16  1  0
  4 17  1  0
  6 18  1  0
  6 19  1  0
  6 20  1  0
  8 21  1  0
M  END
