
     RDKit          3D

 19 21  0  0  0  0  0  0  0  0999 V2000
   -2.6421    0.5158   -0.4995 C   0  0  0  0  0  0  0  0  0  0  0  0
   -1.1698    0.4837   -0.2443 C   0  0  0  0  0  0  0  0  0  0  0  0
   -0.7899   -0.4124    0.9098 C   0  0  0  0  0  0  0  0  0  0  0  0
   -1.2197   -1.4592    0.1053 O   0  0  0  0  0  0  0  0  0  0  0  0
   -0.4433   -0.7123   -0.7926 C   0  0  0  0  0  0  0  0  0  0  0  0
    0.5351   -0.5491    0.2779 C   0  0  0  0  0  0  0  0  0  0  0  0
    1.4823   -1.4430    0.6443 O   0  0  0  0  0  0  0  0  0  0  0  0
    1.7409    0.0162    0.4308 C   0  0  0  0  0  0  0  0  0  0  0  0
    2.7056    0.2673   -0.7228 C   0  0  0  0  0  0  0  0  0  0  0  0
   -3.1158    1.1264    0.2993 H   0  0  0  0  0  0  0  0  0  0  0  0
   -3.0233   -0.5290   -0.3593 H   0  0  0  0  0  0  0  0  0  0  0  0
   -2.8630    0.8967   -1.5143 H   0  0  0  0  0  0  0  0  0  0  0  0
   -0.6129    1.4119   -0.3545 H   0  0  0  0  0  0  0  0  0  0  0  0
   -1.0299   -0.2585    1.8774 H   0  0  0  0  0  0  0  0  0  0  0  0
   -0.3234   -0.9355   -1.7687 H   0  0  0  0  0  0  0  0  0  0  0  0
    2.1088    0.4681    1.3992 H   0  0  0  0  0  0  0  0  0  0  0  0
    3.6162    0.7886   -0.4015 H   0  0  0  0  0  0  0  0  0  0  0  0
    2.8829   -0.6663   -1.2794 H   0  0  0  0  0  0  0  0  0  0  0  0
    2.1611    0.9906   -1.3981 H   0  0  0  0  0  0  0  0  0  0  0  0
  1  2  1  0
  2  3  1  0
  3  4  1  0
  4  5  1  0
  5  6  1  0
  6  7  1  0
  7  8  1  0
  8  9  1  0
  5  2  1  0
  8  6  1  0
  6  3  1  0
  1 10  1  0
  1 11  1  0
  1 12  1  0
  2 13  1  0
  3 14  1  0
  5 15  1  0
  8 16  1  0
  9 17  1  0
  9 18  1  0
  9 19  1  0
M  END
