
     RDKit          3D

 21 23  0  0  0  0  0  0  0  0999 V2000
    2.3658    0.2851    0.8948 C   0  0  0  0  0  0  0  0  0  0  0  0
    1.7042   -0.2023   -0.3530 C   0  0  0  0  0  0  0  0  0  0  0  0
    0.8666    0.9135   -0.9275 C   0  0  0  0  0  0  0  0  0  0  0  0
   -0.3729    0.8217   -0.5292 C   0  0  0  0  0  0  0  0  0  0  0  0
   -0.4821   -0.3916    0.3764 C   0  0  0  0  0  0  0  0  0  0  0  0
    0.6222   -1.2540   -0.0833 C   0  0  0  0  0  0  0  0  0  0  0  0
   -1.8877   -0.6009    0.0325 C   0  0  0  0  0  0  0  0  0  0  0  0
   -2.6553    0.0267   -1.0608 C   0  0  0  0  0  0  0  0  0  0  0  0
   -1.8456    0.9517   -0.2364 C   0  0  0  0  0  0  0  0  0  0  0  0
    1.6211    0.7049    1.6172 H   0  0  0  0  0  0  0  0  0  0  0  0
    3.0143    1.1328    0.6137 H   0  0  0  0  0  0  0  0  0  0  0  0
    2.9153   -0.4894    1.4349 H   0  0  0  0  0  0  0  0  0  0  0  0
    2.4557   -0.5651   -1.0713 H   0  0  0  0  0  0  0  0  0  0  0  0
    1.2796    1.6686   -1.5791 H   0  0  0  0  0  0  0  0  0  0  0  0
   -0.2959   -0.0024    1.4222 H   0  0  0  0  0  0  0  0  0  0  0  0
    1.0381   -1.9411    0.6781 H   0  0  0  0  0  0  0  0  0  0  0  0
    0.4514   -1.7726   -1.0390 H   0  0  0  0  0  0  0  0  0  0  0  0
   -2.5410   -0.9127    0.8991 H   0  0  0  0  0  0  0  0  0  0  0  0
   -2.3131   -0.0608   -2.1299 H   0  0  0  0  0  0  0  0  0  0  0  0
   -3.7403    0.1568   -0.9706 H   0  0  0  0  0  0  0  0  0  0  0  0
   -2.2004    1.5310    0.6053 H   0  0  0  0  0  0  0  0  0  0  0  0
  1  2  1  0
  2  3  1  0
  3  4  2  0
  4  5  1  0
  5  6  1  0
  5  7  1  0
  7  8  1  0
  8  9  1  0
  6  2  1  0
  9  7  1  0
  9  4  1  0
  1 10  1  0
  1 11  1  0
  1 12  1  0
  2 13  1  0
  3 14  1  0
  5 15  1  0
  6 16  1  0
  6 17  1  0
  7 18  1  0
  8 19  1  0
  8 20  1  0
  9 21  1  0
M  END
