
     RDKit          3D

 23 23  0  0  0  0  0  0  0  0999 V2000
   -2.6600    0.1452   -0.5349 C   0  0  0  0  0  0  0  0  0  0  0  0
   -1.3249   -0.0271    0.0953 C   0  0  0  0  0  0  0  0  0  0  0  0
   -0.4040    1.1602   -0.1421 C   0  0  0  0  0  0  0  0  0  0  0  0
    0.6988    1.0136    0.8982 C   0  0  0  0  0  0  0  0  0  0  0  0
    1.4643   -0.2467    0.5738 C   0  0  0  0  0  0  0  0  0  0  0  0
    2.8729    0.1162    0.3573 C   0  0  0  0  0  0  0  0  0  0  0  0
    3.2894    1.2595    0.2578 O   0  0  0  0  0  0  0  0  0  0  0  0
    0.8799   -0.9933   -0.5898 C   0  0  0  0  0  0  0  0  0  0  0  0
   -0.5874   -1.2609   -0.3318 C   0  0  0  0  0  0  0  0  0  0  0  0
   -3.5025    0.0619    0.2090 H   0  0  0  0  0  0  0  0  0  0  0  0
   -2.8426   -0.5418   -1.3809 H   0  0  0  0  0  0  0  0  0  0  0  0
   -2.7220    1.2084   -0.9032 H   0  0  0  0  0  0  0  0  0  0  0  0
   -1.4625   -0.0902    1.2089 H   0  0  0  0  0  0  0  0  0  0  0  0
   -0.9559    2.1043    0.0601 H   0  0  0  0  0  0  0  0  0  0  0  0
   -0.0190    1.1893   -1.1652 H   0  0  0  0  0  0  0  0  0  0  0  0
    1.3471    1.9103    0.9306 H   0  0  0  0  0  0  0  0  0  0  0  0
    0.1553    0.8999    1.8819 H   0  0  0  0  0  0  0  0  0  0  0  0
    1.4045   -0.9348    1.4644 H   0  0  0  0  0  0  0  0  0  0  0  0
    3.6171   -0.6703    0.2766 H   0  0  0  0  0  0  0  0  0  0  0  0
    1.0443   -0.5073   -1.5598 H   0  0  0  0  0  0  0  0  0  0  0  0
    1.3951   -1.9968   -0.6115 H   0  0  0  0  0  0  0  0  0  0  0  0
   -1.0591   -1.7354   -1.2268 H   0  0  0  0  0  0  0  0  0  0  0  0
   -0.6289   -2.0640    0.4613 H   0  0  0  0  0  0  0  0  0  0  0  0
  1  2  1  0
  2  3  1  0
  3  4  1  0
  4  5  1  0
  5  6  1  0
  6  7  2  0
  5  8  1  0
  8  9  1  0
  9  2  1  0
  1 10  1  0
  1 11  1  0
  1 12  1  0
  2 13  1  0
  3 14  1  0
  3 15  1  0
  4 16  1  0
  4 17  1  0
  5 18  1  0
  6 19  1  0
  8 20  1  0
  8 21  1  0
  9 22  1  0
  9 23  1  0
M  END
