
     RDKit          3D

 21 21  0  0  0  0  0  0  0  0999 V2000
   -2.1348   -1.0080    0.0451 C   0  0  0  0  0  0  0  0  0  0  0  0
   -0.9858   -0.2145   -0.5533 C   0  0  0  0  0  0  0  0  0  0  0  0
    0.1038   -1.1600   -0.8409 C   0  0  0  0  0  0  0  0  0  0  0  0
    1.3870   -0.9192   -0.6162 C   0  0  0  0  0  0  0  0  0  0  0  0
    1.7195    0.4072   -0.0321 C   0  0  0  0  0  0  0  0  0  0  0  0
    3.0115    0.4880    0.4405 O   0  0  0  0  0  0  0  0  0  0  0  0
    0.7142    0.6125    1.1013 C   0  0  0  0  0  0  0  0  0  0  0  0
   -0.6143    0.8572    0.4313 C   0  0  0  0  0  0  0  0  0  0  0  0
   -0.5891    2.0851   -0.2301 O   0  0  0  0  0  0  0  0  0  0  0  0
   -3.0241   -0.3914    0.2008 H   0  0  0  0  0  0  0  0  0  0  0  0
   -2.3042   -1.8941   -0.6028 H   0  0  0  0  0  0  0  0  0  0  0  0
   -1.7761   -1.3377    1.0540 H   0  0  0  0  0  0  0  0  0  0  0  0
   -1.3570    0.2049   -1.5149 H   0  0  0  0  0  0  0  0  0  0  0  0
   -0.1636   -2.1307   -1.2707 H   0  0  0  0  0  0  0  0  0  0  0  0
    2.1972   -1.6012   -0.8213 H   0  0  0  0  0  0  0  0  0  0  0  0
    1.5174    1.1898   -0.8134 H   0  0  0  0  0  0  0  0  0  0  0  0
    3.6300    0.3359   -0.3010 H   0  0  0  0  0  0  0  0  0  0  0  0
    0.6455   -0.3498    1.6766 H   0  0  0  0  0  0  0  0  0  0  0  0
    0.9557    1.4706    1.7244 H   0  0  0  0  0  0  0  0  0  0  0  0
   -1.3852    0.9615    1.2353 H   0  0  0  0  0  0  0  0  0  0  0  0
   -1.5476    2.3939   -0.3125 H   0  0  0  0  0  0  0  0  0  0  0  0
  1  2  1  0
  2  3  1  0
  3  4  2  0
  4  5  1  0
  5  6  1  0
  5  7  1  0
  7  8  1  0
  8  9  1  0
  8  2  1  0
  1 10  1  0
  1 11  1  0
  1 12  1  0
  2 13  1  0
  3 14  1  0
  4 15  1  0
  5 16  1  0
  6 17  1  0
  7 18  1  0
  7 19  1  0
  8 20  1  0
  9 21  1  0
M  END
