
     RDKit          3D

 19 20  0  0  0  0  0  0  0  0999 V2000
    2.4769   -0.3958    0.2914 C   0  0  0  0  0  0  0  0  0  0  0  0
    1.4310    0.5036   -0.3160 C   0  0  0  0  0  0  0  0  0  0  0  0
    0.4576    0.9681    0.7565 C   0  0  0  0  0  0  0  0  0  0  0  0
   -0.4881    0.1680   -0.0326 C   0  0  0  0  0  0  0  0  0  0  0  0
   -1.1352   -1.0205    0.6025 C   0  0  0  0  0  0  0  0  0  0  0  0
   -2.4603   -0.4452    0.0912 C   0  0  0  0  0  0  0  0  0  0  0  0
   -1.7569    0.7451   -0.4461 C   0  0  0  0  0  0  0  0  0  0  0  0
   -2.0944    1.7647   -0.9958 O   0  0  0  0  0  0  0  0  0  0  0  0
    0.4244   -0.1606   -1.0086 O   0  0  0  0  0  0  0  0  0  0  0  0
    3.4714    0.0652    0.0603 H   0  0  0  0  0  0  0  0  0  0  0  0
    2.4201   -0.4210    1.4072 H   0  0  0  0  0  0  0  0  0  0  0  0
    2.4094   -1.4348   -0.0519 H   0  0  0  0  0  0  0  0  0  0  0  0
    1.8253    1.3257   -0.9531 H   0  0  0  0  0  0  0  0  0  0  0  0
    0.7127    0.6507    1.7766 H   0  0  0  0  0  0  0  0  0  0  0  0
    0.3623    2.0819    0.7227 H   0  0  0  0  0  0  0  0  0  0  0  0
   -1.0685   -1.1085    1.6971 H   0  0  0  0  0  0  0  0  0  0  0  0
   -0.9039   -1.9621    0.0829 H   0  0  0  0  0  0  0  0  0  0  0  0
   -2.9289   -1.0720   -0.7041 H   0  0  0  0  0  0  0  0  0  0  0  0
   -3.1550   -0.2525    0.9362 H   0  0  0  0  0  0  0  0  0  0  0  0
  1  2  1  0
  2  3  1  0
  3  4  1  0
  4  5  1  0
  5  6  1  0
  6  7  1  0
  7  8  2  0
  4  9  1  0
  9  2  1  0
  7  4  1  0
  1 10  1  0
  1 11  1  0
  1 12  1  0
  2 13  1  0
  3 14  1  0
  3 15  1  0
  5 16  1  0
  5 17  1  0
  6 18  1  0
  6 19  1  0
M  END
