
     RDKit          3D

 21 21  0  0  0  0  0  0  0  0999 V2000
   -2.1394   -1.2373    0.0681 C   0  0  0  0  0  0  0  0  0  0  0  0
   -1.2275   -0.1054    0.5582 C   0  0  0  0  0  0  0  0  0  0  0  0
    0.1627   -0.5725    0.3553 C   0  0  0  0  0  0  0  0  0  0  0  0
    1.0757    0.1618   -0.2188 C   0  0  0  0  0  0  0  0  0  0  0  0
    2.4589   -0.3497   -0.4009 C   0  0  0  0  0  0  0  0  0  0  0  0
    2.5302   -1.6232    0.1179 O   0  0  0  0  0  0  0  0  0  0  0  0
    0.6690    1.5253   -0.6790 C   0  0  0  0  0  0  0  0  0  0  0  0
   -0.6451    1.6016   -1.0562 O   0  0  0  0  0  0  0  0  0  0  0  0
   -1.5518    1.1734   -0.1138 C   0  0  0  0  0  0  0  0  0  0  0  0
   -1.5826   -2.1498   -0.1578 H   0  0  0  0  0  0  0  0  0  0  0  0
   -2.9777   -1.4133    0.7689 H   0  0  0  0  0  0  0  0  0  0  0  0
   -2.6025   -0.8751   -0.8770 H   0  0  0  0  0  0  0  0  0  0  0  0
   -1.3990   -0.0331    1.6533 H   0  0  0  0  0  0  0  0  0  0  0  0
    0.3968   -1.5764    0.7130 H   0  0  0  0  0  0  0  0  0  0  0  0
    3.1284    0.3794    0.1338 H   0  0  0  0  0  0  0  0  0  0  0  0
    2.7321   -0.4213   -1.4824 H   0  0  0  0  0  0  0  0  0  0  0  0
    2.9583   -1.5849    1.0244 H   0  0  0  0  0  0  0  0  0  0  0  0
    0.9585    2.2979    0.0899 H   0  0  0  0  0  0  0  0  0  0  0  0
    1.2915    1.7510   -1.5704 H   0  0  0  0  0  0  0  0  0  0  0  0
   -2.5318    1.0684   -0.6273 H   0  0  0  0  0  0  0  0  0  0  0  0
   -1.7049    1.9831    0.6470 H   0  0  0  0  0  0  0  0  0  0  0  0
  1  2  1  0
  2  3  1  0
  3  4  2  0
  4  5  1  0
  5  6  1  0
  4  7  1  0
  7  8  1  0
  8  9  1  0
  9  2  1  0
  1 10  1  0
  1 11  1  0
  1 12  1  0
  2 13  1  0
  3 14  1  0
  5 15  1  0
  5 16  1  0
  6 17  1  0
  7 18  1  0
  7 19  1  0
  9 20  1  0
  9 21  1  0
M  END
