
     RDKit          3D

 21 22  0  0  0  0  0  0  0  0999 V2000
   -2.0857   -0.8797   -0.3840 C   0  0  0  0  0  0  0  0  0  0  0  0
   -1.0312   -0.6133    0.6577 C   0  0  0  0  0  0  0  0  0  0  0  0
   -0.9149    0.8357    0.9189 C   0  0  0  0  0  0  0  0  0  0  0  0
    0.2048    1.5519    0.1436 C   0  0  0  0  0  0  0  0  0  0  0  0
    1.3472    0.6328    0.2354 C   0  0  0  0  0  0  0  0  0  0  0  0
    2.1164   -0.0779   -0.7094 C   0  0  0  0  0  0  0  0  0  0  0  0
    3.1892   -0.8711   -0.2484 O   0  0  0  0  0  0  0  0  0  0  0  0
    0.8091   -0.5961   -0.5724 C   0  0  0  0  0  0  0  0  0  0  0  0
    0.1634   -1.2955    0.3820 O   0  0  0  0  0  0  0  0  0  0  0  0
   -2.9002   -1.5436   -0.0274 H   0  0  0  0  0  0  0  0  0  0  0  0
   -2.5469    0.0993   -0.7092 H   0  0  0  0  0  0  0  0  0  0  0  0
   -1.6892   -1.3436   -1.3051 H   0  0  0  0  0  0  0  0  0  0  0  0
   -1.4126   -1.1003    1.6055 H   0  0  0  0  0  0  0  0  0  0  0  0
   -0.6630    0.9912    1.9892 H   0  0  0  0  0  0  0  0  0  0  0  0
   -1.8975    1.3109    0.6711 H   0  0  0  0  0  0  0  0  0  0  0  0
   -0.1924    1.6645   -0.8969 H   0  0  0  0  0  0  0  0  0  0  0  0
    0.3305    2.5379    0.6056 H   0  0  0  0  0  0  0  0  0  0  0  0
    1.5959    0.4408    1.3245 H   0  0  0  0  0  0  0  0  0  0  0  0
    2.4119    0.4262   -1.6613 H   0  0  0  0  0  0  0  0  0  0  0  0
    3.0649   -1.7981   -0.5934 H   0  0  0  0  0  0  0  0  0  0  0  0
    0.1002   -0.3718   -1.4260 H   0  0  0  0  0  0  0  0  0  0  0  0
  1  2  1  0
  2  3  1  0
  3  4  1  0
  4  5  1  0
  5  6  1  0
  6  7  1  0
  6  8  1  0
  8  9  1  0
  9  2  1  0
  8  5  1  0
  1 10  1  0
  1 11  1  0
  1 12  1  0
  2 13  1  0
  3 14  1  0
  3 15  1  0
  4 16  1  0
  4 17  1  0
  5 18  1  0
  6 19  1  0
  7 20  1  0
  8 21  1  0
M  END
