
     RDKit          3D

 18 20  0  0  0  0  0  0  0  0999 V2000
    2.0002   -0.2040   -0.5437 C   0  0  0  0  0  0  0  0  0  0  0  0
    0.7362   -0.4432    0.2075 C   0  0  0  0  0  0  0  0  0  0  0  0
   -0.4031   -0.7244   -0.7834 C   0  0  0  0  0  0  0  0  0  0  0  0
   -1.5490   -0.7896    0.1994 C   0  0  0  0  0  0  0  0  0  0  0  0
   -1.2860    0.5615    0.8833 C   0  0  0  0  0  0  0  0  0  0  0  0
   -0.7068    1.3570   -0.2134 C   0  0  0  0  0  0  0  0  0  0  0  0
   -0.5730    0.5149   -1.3438 O   0  0  0  0  0  0  0  0  0  0  0  0
    0.1635    0.8138    0.8295 C   0  0  0  0  0  0  0  0  0  0  0  0
    2.8339   -0.0733    0.1796 H   0  0  0  0  0  0  0  0  0  0  0  0
    1.9488    0.6175   -1.2746 H   0  0  0  0  0  0  0  0  0  0  0  0
    2.2369   -1.1240   -1.1164 H   0  0  0  0  0  0  0  0  0  0  0  0
    0.8800   -1.2597    0.9140 H   0  0  0  0  0  0  0  0  0  0  0  0
   -0.2569   -1.5608   -1.4109 H   0  0  0  0  0  0  0  0  0  0  0  0
   -2.5315   -0.8099   -0.2612 H   0  0  0  0  0  0  0  0  0  0  0  0
   -1.3306   -1.6010    0.9033 H   0  0  0  0  0  0  0  0  0  0  0  0
   -1.9613    0.9272    1.6361 H   0  0  0  0  0  0  0  0  0  0  0  0
   -0.9198    2.4183   -0.3663 H   0  0  0  0  0  0  0  0  0  0  0  0
    0.7186    1.3798    1.5609 H   0  0  0  0  0  0  0  0  0  0  0  0
  1  2  1  0
  2  3  1  0
  3  4  1  0
  4  5  1  0
  5  6  1  0
  6  7  1  0
  6  8  1  0
  8  2  1  0
  7  3  1  0
  8  5  1  0
  1  9  1  0
  1 10  1  0
  1 11  1  0
  2 12  1  0
  3 13  1  0
  4 14  1  0
  4 15  1  0
  5 16  1  0
  6 17  1  0
  8 18  1  0
M  END
