
     RDKit          3D

 19 21  0  0  0  0  0  0  0  0999 V2000
   -2.3474   -0.2932   -0.2328 C   0  0  0  0  0  0  0  0  0  0  0  0
   -1.2001    0.2435    0.4996 C   0  0  0  0  0  0  0  0  0  0  0  0
   -0.1352    0.9747   -0.2604 C   0  0  0  0  0  0  0  0  0  0  0  0
    0.7129    0.6794    0.9526 C   0  0  0  0  0  0  0  0  0  0  0  0
    2.0514    0.7433    0.7398 O   0  0  0  0  0  0  0  0  0  0  0  0
    2.5193   -0.2176   -0.1177 C   0  0  0  0  0  0  0  0  0  0  0  0
    1.6269   -0.4096   -1.1628 O   0  0  0  0  0  0  0  0  0  0  0  0
    0.3065   -0.3571   -0.7784 C   0  0  0  0  0  0  0  0  0  0  0  0
    0.0183   -0.6244    0.6648 C   0  0  0  0  0  0  0  0  0  0  0  0
   -3.1853   -0.4859    0.4979 H   0  0  0  0  0  0  0  0  0  0  0  0
   -2.2103   -1.2143   -0.7909 H   0  0  0  0  0  0  0  0  0  0  0  0
   -2.7620    0.5187   -0.8998 H   0  0  0  0  0  0  0  0  0  0  0  0
   -1.4253    0.7582    1.4483 H   0  0  0  0  0  0  0  0  0  0  0  0
   -0.2073    1.8435   -0.7472 H   0  0  0  0  0  0  0  0  0  0  0  0
    0.2985    1.1570    1.8419 H   0  0  0  0  0  0  0  0  0  0  0  0
    2.7047   -1.1445    0.4655 H   0  0  0  0  0  0  0  0  0  0  0  0
    3.4759    0.1560   -0.5545 H   0  0  0  0  0  0  0  0  0  0  0  0
   -0.3349   -0.8473   -1.5191 H   0  0  0  0  0  0  0  0  0  0  0  0
    0.0936   -1.4803    1.1716 H   0  0  0  0  0  0  0  0  0  0  0  0
  1  2  1  0
  2  3  1  0
  3  4  1  0
  4  5  1  0
  5  6  1  0
  6  7  1  0
  7  8  1  0
  8  9  1  0
  9  2  1  0
  8  3  1  0
  9  4  1  0
  1 10  1  0
  1 11  1  0
  1 12  1  0
  2 13  1  0
  3 14  1  0
  4 15  1  0
  6 16  1  0
  6 17  1  0
  8 18  1  0
  9 19  1  0
M  END
