
     RDKit          3D

 17 18  0  0  0  0  0  0  0  0999 V2000
   -1.8316   -0.0069    0.7179 C   0  0  0  0  0  0  0  0  0  0  0  0
   -1.0596   -0.0819   -0.5205 C   0  0  0  0  0  0  0  0  0  0  0  0
    0.0970    0.9038   -0.5943 C   0  0  0  0  0  0  0  0  0  0  0  0
    1.1214    0.3062   -0.0285 C   0  0  0  0  0  0  0  0  0  0  0  0
    2.4293    0.9213    0.0968 C   0  0  0  0  0  0  0  0  0  0  0  0
    2.6886    2.0796   -0.3273 O   0  0  0  0  0  0  0  0  0  0  0  0
    0.7046   -0.9677    0.4469 C   0  0  0  0  0  0  0  0  0  0  0  0
    0.4162   -2.1518   -0.0195 O   0  0  0  0  0  0  0  0  0  0  0  0
   -0.2244   -1.2998   -0.7563 C   0  0  0  0  0  0  0  0  0  0  0  0
   -2.8046    0.4999    0.5345 H   0  0  0  0  0  0  0  0  0  0  0  0
   -2.0819   -1.0250    1.0708 H   0  0  0  0  0  0  0  0  0  0  0  0
   -1.3717    0.5187    1.5673 H   0  0  0  0  0  0  0  0  0  0  0  0
   -1.7362    0.0529   -1.3861 H   0  0  0  0  0  0  0  0  0  0  0  0
   -0.0134    1.8748   -1.0444 H   0  0  0  0  0  0  0  0  0  0  0  0
    3.2248    0.3725    0.5729 H   0  0  0  0  0  0  0  0  0  0  0  0
    0.1575   -0.8222    1.4402 H   0  0  0  0  0  0  0  0  0  0  0  0
    0.2839   -1.1746   -1.7705 H   0  0  0  0  0  0  0  0  0  0  0  0
  1  2  1  0
  2  3  1  0
  3  4  2  0
  4  5  1  0
  5  6  2  0
  4  7  1  0
  7  8  1  0
  8  9  1  0
  9  2  1  0
  9  7  1  0
  1 10  1  0
  1 11  1  0
  1 12  1  0
  2 13  1  0
  3 14  1  0
  5 15  1  0
  7 16  1  0
  9 17  1  0
M  END
