
     RDKit          3D

 21 22  0  0  0  0  0  0  0  0999 V2000
   -0.1459    1.9734   -0.1918 C   0  0  0  0  0  0  0  0  0  0  0  0
   -0.6941    0.7552    0.4834 C   0  0  0  0  0  0  0  0  0  0  0  0
   -1.4590   -0.0943   -0.4915 C   0  0  0  0  0  0  0  0  0  0  0  0
   -1.7395   -1.5180   -0.2477 C   0  0  0  0  0  0  0  0  0  0  0  0
   -0.3141   -1.1290   -0.3646 C   0  0  0  0  0  0  0  0  0  0  0  0
    0.2507   -0.3495    0.7834 C   0  0  0  0  0  0  0  0  0  0  0  0
   -0.0557   -1.0202    1.9898 O   0  0  0  0  0  0  0  0  0  0  0  0
    1.7096   -0.0519    0.7361 C   0  0  0  0  0  0  0  0  0  0  0  0
    2.1171    0.6016   -0.3982 O   0  0  0  0  0  0  0  0  0  0  0  0
   -0.9560    2.7580   -0.1580 H   0  0  0  0  0  0  0  0  0  0  0  0
   -0.0154    1.7773   -1.2957 H   0  0  0  0  0  0  0  0  0  0  0  0
    0.7503    2.3949    0.2713 H   0  0  0  0  0  0  0  0  0  0  0  0
   -1.2859    1.0531    1.3836 H   0  0  0  0  0  0  0  0  0  0  0  0
   -1.6214    0.2924   -1.5225 H   0  0  0  0  0  0  0  0  0  0  0  0
   -2.0404   -1.8573    0.7789 H   0  0  0  0  0  0  0  0  0  0  0  0
   -2.1553   -2.0936   -1.0703 H   0  0  0  0  0  0  0  0  0  0  0  0
    0.2763   -1.2949   -1.2698 H   0  0  0  0  0  0  0  0  0  0  0  0
    0.0817   -1.9874    1.8190 H   0  0  0  0  0  0  0  0  0  0  0  0
    1.9852    0.4918    1.6594 H   0  0  0  0  0  0  0  0  0  0  0  0
    2.2531   -1.0303    0.7873 H   0  0  0  0  0  0  0  0  0  0  0  0
    3.0587    0.3287   -0.5934 H   0  0  0  0  0  0  0  0  0  0  0  0
  1  2  1  0
  2  3  1  0
  3  4  1  0
  4  5  1  0
  5  6  1  0
  6  7  1  0
  6  8  1  0
  8  9  1  0
  6  2  1  0
  5  3  1  0
  1 10  1  0
  1 11  1  0
  1 12  1  0
  2 13  1  0
  3 14  1  0
  4 15  1  0
  4 16  1  0
  5 17  1  0
  7 18  1  0
  8 19  1  0
  8 20  1  0
  9 21  1  0
M  END
