
     RDKit          3D

 23 24  0  0  0  0  0  0  0  0999 V2000
   -2.6462   -0.3063   -0.4745 C   0  0  0  0  0  0  0  0  0  0  0  0
   -1.2767   -0.1297    0.0887 C   0  0  0  0  0  0  0  0  0  0  0  0
   -0.7750    1.2870   -0.0009 C   0  0  0  0  0  0  0  0  0  0  0  0
    0.7202    1.2510   -0.3199 C   0  0  0  0  0  0  0  0  0  0  0  0
    1.3534    0.3102    0.6639 C   0  0  0  0  0  0  0  0  0  0  0  0
    2.6700   -0.2819    0.2736 C   0  0  0  0  0  0  0  0  0  0  0  0
    2.1057   -1.5242   -0.0212 O   0  0  0  0  0  0  0  0  0  0  0  0
    0.9069   -1.1116    0.4987 C   0  0  0  0  0  0  0  0  0  0  0  0
   -0.2670   -1.1133   -0.4813 C   0  0  0  0  0  0  0  0  0  0  0  0
   -3.1496    0.6979   -0.4897 H   0  0  0  0  0  0  0  0  0  0  0  0
   -3.2929   -0.9271    0.2024 H   0  0  0  0  0  0  0  0  0  0  0  0
   -2.5727   -0.7484   -1.4753 H   0  0  0  0  0  0  0  0  0  0  0  0
   -1.3401   -0.3794    1.1878 H   0  0  0  0  0  0  0  0  0  0  0  0
   -0.8431    1.8111    0.9903 H   0  0  0  0  0  0  0  0  0  0  0  0
   -1.2826    1.8601   -0.7961 H   0  0  0  0  0  0  0  0  0  0  0  0
    1.1564    2.2558   -0.1527 H   0  0  0  0  0  0  0  0  0  0  0  0
    0.9093    0.9911   -1.3694 H   0  0  0  0  0  0  0  0  0  0  0  0
    1.2578    0.6891    1.6933 H   0  0  0  0  0  0  0  0  0  0  0  0
    3.0950    0.1974   -0.6262 H   0  0  0  0  0  0  0  0  0  0  0  0
    3.3485   -0.3028    1.1658 H   0  0  0  0  0  0  0  0  0  0  0  0
    0.5976   -1.5557    1.4582 H   0  0  0  0  0  0  0  0  0  0  0  0
    0.0587   -0.8590   -1.4935 H   0  0  0  0  0  0  0  0  0  0  0  0
   -0.7334   -2.1117   -0.5222 H   0  0  0  0  0  0  0  0  0  0  0  0
  1  2  1  0
  2  3  1  0
  3  4  1  0
  4  5  1  0
  5  6  1  0
  6  7  1  0
  7  8  1  0
  8  9  1  0
  9  2  1  0
  8  5  1  0
  1 10  1  0
  1 11  1  0
  1 12  1  0
  2 13  1  0
  3 14  1  0
  3 15  1  0
  4 16  1  0
  4 17  1  0
  5 18  1  0
  6 19  1  0
  6 20  1  0
  8 21  1  0
  9 22  1  0
  9 23  1  0
M  END
