
     RDKit          3D

 21 21  0  0  0  0  0  0  0  0999 V2000
    2.0907    0.1631   -0.6174 C   0  0  0  0  0  0  0  0  0  0  0  0
    0.8672    0.6067    0.1276 C   0  0  0  0  0  0  0  0  0  0  0  0
   -0.0014    1.5800   -0.5872 C   0  0  0  0  0  0  0  0  0  0  0  0
    0.2008    2.5480   -1.2800 O   0  0  0  0  0  0  0  0  0  0  0  0
   -1.1731    0.8517   -0.0831 C   0  0  0  0  0  0  0  0  0  0  0  0
   -1.7256    1.3925    1.0945 O   0  0  0  0  0  0  0  0  0  0  0  0
   -0.2803   -0.3410    0.1695 C   0  0  0  0  0  0  0  0  0  0  0  0
   -0.5979   -0.9784    1.4863 C   0  0  0  0  0  0  0  0  0  0  0  0
   -0.3628   -1.3555   -0.9407 C   0  0  0  0  0  0  0  0  0  0  0  0
    2.1093    0.4959   -1.6712 H   0  0  0  0  0  0  0  0  0  0  0  0
    2.1560   -0.9405   -0.5321 H   0  0  0  0  0  0  0  0  0  0  0  0
    3.0132    0.5529   -0.0954 H   0  0  0  0  0  0  0  0  0  0  0  0
    1.1322    0.9247    1.1781 H   0  0  0  0  0  0  0  0  0  0  0  0
   -1.9504    0.6915   -0.8574 H   0  0  0  0  0  0  0  0  0  0  0  0
   -1.9841    2.3157    0.8705 H   0  0  0  0  0  0  0  0  0  0  0  0
   -0.3912   -0.3582    2.3606 H   0  0  0  0  0  0  0  0  0  0  0  0
   -1.6901   -1.2656    1.4386 H   0  0  0  0  0  0  0  0  0  0  0  0
   -0.0639   -1.9646    1.5206 H   0  0  0  0  0  0  0  0  0  0  0  0
    0.2819   -2.2258   -0.7326 H   0  0  0  0  0  0  0  0  0  0  0  0
   -0.2121   -0.9347   -1.9411 H   0  0  0  0  0  0  0  0  0  0  0  0
   -1.4184   -1.7583   -0.9081 H   0  0  0  0  0  0  0  0  0  0  0  0
  1  2  1  0
  2  3  1  0
  3  4  2  0
  3  5  1  0
  5  6  1  0
  5  7  1  0
  7  8  1  0
  7  9  1  0
  7  2  1  0
  1 10  1  0
  1 11  1  0
  1 12  1  0
  2 13  1  0
  5 14  1  0
  6 15  1  0
  8 16  1  0
  8 17  1  0
  8 18  1  0
  9 19  1  0
  9 20  1  0
  9 21  1  0
M  END
