
     RDKit          3D

 23 23  0  0  0  0  0  0  0  0999 V2000
   -2.7036   -0.3269   -0.0791 C   0  0  0  0  0  0  0  0  0  0  0  0
   -1.4750    0.0916    0.7074 C   0  0  0  0  0  0  0  0  0  0  0  0
   -0.8579    1.2235    0.0127 C   0  0  0  0  0  0  0  0  0  0  0  0
    0.2831    1.5798   -0.5711 C   0  0  0  0  0  0  0  0  0  0  0  0
    1.5697    0.9128   -0.7982 C   0  0  0  0  0  0  0  0  0  0  0  0
    2.0247    0.2071    0.4403 C   0  0  0  0  0  0  0  0  0  0  0  0
    1.5911   -1.2417    0.3646 C   0  0  0  0  0  0  0  0  0  0  0  0
    0.1544   -1.3725   -0.0464 C   0  0  0  0  0  0  0  0  0  0  0  0
   -0.6347   -0.9436    0.9964 O   0  0  0  0  0  0  0  0  0  0  0  0
   -2.9775    0.4588   -0.8403 H   0  0  0  0  0  0  0  0  0  0  0  0
   -2.5163   -1.2834   -0.6120 H   0  0  0  0  0  0  0  0  0  0  0  0
   -3.5970   -0.4208    0.5763 H   0  0  0  0  0  0  0  0  0  0  0  0
   -1.8603    0.4836    1.6944 H   0  0  0  0  0  0  0  0  0  0  0  0
   -1.5601    2.0593   -0.0536 H   0  0  0  0  0  0  0  0  0  0  0  0
    0.2649    2.5914   -0.9722 H   0  0  0  0  0  0  0  0  0  0  0  0
    2.3592    1.6772   -1.0443 H   0  0  0  0  0  0  0  0  0  0  0  0
    1.5051    0.2428   -1.6887 H   0  0  0  0  0  0  0  0  0  0  0  0
    3.1078    0.2712    0.5879 H   0  0  0  0  0  0  0  0  0  0  0  0
    1.5168    0.6439    1.3200 H   0  0  0  0  0  0  0  0  0  0  0  0
    1.6590   -1.6381    1.4166 H   0  0  0  0  0  0  0  0  0  0  0  0
    2.2792   -1.8388   -0.2312 H   0  0  0  0  0  0  0  0  0  0  0  0
   -0.0442   -2.4706   -0.1734 H   0  0  0  0  0  0  0  0  0  0  0  0
   -0.0883   -0.9067   -1.0060 H   0  0  0  0  0  0  0  0  0  0  0  0
  1  2  1  0
  2  3  1  0
  3  4  2  3
  4  5  1  0
  5  6  1  0
  6  7  1  0
  7  8  1  0
  8  9  1  0
  9  2  1  0
  1 10  1  0
  1 11  1  0
  1 12  1  0
  2 13  1  0
  3 14  1  0
  4 15  1  0
  5 16  1  0
  5 17  1  0
  6 18  1  0
  6 19  1  0
  7 20  1  0
  7 21  1  0
  8 22  1  0
  8 23  1  0
M  END
