
     RDKit          3D

 21 23  0  0  0  0  0  0  0  0999 V2000
    2.8054   -0.2799    0.0973 C   0  0  0  0  0  0  0  0  0  0  0  0
    1.3971    0.2639   -0.1606 C   0  0  0  0  0  0  0  0  0  0  0  0
    0.9999    1.4663    0.6202 C   0  0  0  0  0  0  0  0  0  0  0  0
    0.4358    0.1065    0.9305 C   0  0  0  0  0  0  0  0  0  0  0  0
   -1.0163   -0.1699    0.7238 C   0  0  0  0  0  0  0  0  0  0  0  0
   -1.5048   -1.3774    0.0171 C   0  0  0  0  0  0  0  0  0  0  0  0
   -2.5413   -0.5300   -0.7335 C   0  0  0  0  0  0  0  0  0  0  0  0
   -1.8349    0.6838   -0.2151 C   0  0  0  0  0  0  0  0  0  0  0  0
   -1.8721    0.8222    1.1628 O   0  0  0  0  0  0  0  0  0  0  0  0
    2.8131   -1.3586   -0.0923 H   0  0  0  0  0  0  0  0  0  0  0  0
    3.0289   -0.1280    1.1936 H   0  0  0  0  0  0  0  0  0  0  0  0
    3.5735    0.2934   -0.4409 H   0  0  0  0  0  0  0  0  0  0  0  0
    1.0699    0.2116   -1.2217 H   0  0  0  0  0  0  0  0  0  0  0  0
    1.7252    1.9389    1.3157 H   0  0  0  0  0  0  0  0  0  0  0  0
    0.2857    2.2168    0.1930 H   0  0  0  0  0  0  0  0  0  0  0  0
    0.8208   -0.2986    1.9132 H   0  0  0  0  0  0  0  0  0  0  0  0
   -0.7926   -1.8079   -0.7243 H   0  0  0  0  0  0  0  0  0  0  0  0
   -2.0064   -2.1247    0.6663 H   0  0  0  0  0  0  0  0  0  0  0  0
   -3.5522   -0.6023   -0.2354 H   0  0  0  0  0  0  0  0  0  0  0  0
   -2.5574   -0.6827   -1.8177 H   0  0  0  0  0  0  0  0  0  0  0  0
   -1.2773    1.3567   -0.8527 H   0  0  0  0  0  0  0  0  0  0  0  0
  1  2  1  0
  2  3  1  0
  3  4  1  0
  4  5  1  0
  5  6  1  0
  6  7  1  0
  7  8  1  0
  8  9  1  0
  4  2  1  0
  8  5  1  0
  9  5  1  0
  1 10  1  0
  1 11  1  0
  1 12  1  0
  2 13  1  0
  3 14  1  0
  3 15  1  0
  4 16  1  0
  6 17  1  0
  6 18  1  0
  7 19  1  0
  7 20  1  0
  8 21  1  0
M  END
