
     RDKit          3D

 23 23  0  0  0  0  0  0  0  0999 V2000
   -2.2912    0.9812   -0.7315 C   0  0  0  0  0  0  0  0  0  0  0  0
   -1.0779    0.0775   -0.7992 C   0  0  0  0  0  0  0  0  0  0  0  0
   -1.0818   -1.2378   -0.0918 C   0  0  0  0  0  0  0  0  0  0  0  0
   -2.2928   -1.5840    0.5497 O   0  0  0  0  0  0  0  0  0  0  0  0
   -0.2920   -0.1090    0.4451 C   0  0  0  0  0  0  0  0  0  0  0  0
    1.2005   -0.0960    0.4441 C   0  0  0  0  0  0  0  0  0  0  0  0
    1.8427   -1.1339   -0.3962 C   0  0  0  0  0  0  0  0  0  0  0  0
    1.6510    1.3094    0.0333 C   0  0  0  0  0  0  0  0  0  0  0  0
    1.6424   -0.2467    1.7758 O   0  0  0  0  0  0  0  0  0  0  0  0
   -1.9210    2.0244   -0.9493 H   0  0  0  0  0  0  0  0  0  0  0  0
   -2.6895    1.0219    0.2959 H   0  0  0  0  0  0  0  0  0  0  0  0
   -3.0222    0.6847   -1.4882 H   0  0  0  0  0  0  0  0  0  0  0  0
   -0.6005    0.0773   -1.7976 H   0  0  0  0  0  0  0  0  0  0  0  0
   -0.5868   -2.1006   -0.5607 H   0  0  0  0  0  0  0  0  0  0  0  0
   -2.3087   -1.2652    1.4830 H   0  0  0  0  0  0  0  0  0  0  0  0
   -0.7347    0.3612    1.3714 H   0  0  0  0  0  0  0  0  0  0  0  0
    2.7800   -0.6851   -0.8327 H   0  0  0  0  0  0  0  0  0  0  0  0
    2.1743   -2.0069    0.2264 H   0  0  0  0  0  0  0  0  0  0  0  0
    1.2548   -1.5241   -1.2221 H   0  0  0  0  0  0  0  0  0  0  0  0
    2.6476    1.5089    0.4609 H   0  0  0  0  0  0  0  0  0  0  0  0
    0.9418    2.0082    0.5429 H   0  0  0  0  0  0  0  0  0  0  0  0
    1.5859    1.4656   -1.0416 H   0  0  0  0  0  0  0  0  0  0  0  0
    1.1781    0.4694    2.2824 H   0  0  0  0  0  0  0  0  0  0  0  0
  1  2  1  0
  2  3  1  0
  3  4  1  0
  3  5  1  0
  5  6  1  0
  6  7  1  0
  6  8  1  0
  6  9  1  0
  5  2  1  0
  1 10  1  0
  1 11  1  0
  1 12  1  0
  2 13  1  0
  3 14  1  0
  4 15  1  0
  5 16  1  0
  7 17  1  0
  7 18  1  0
  7 19  1  0
  8 20  1  0
  8 21  1  0
  8 22  1  0
  9 23  1  0
M  END
