
     RDKit          3D

 23 25  0  0  0  0  0  0  0  0999 V2000
    2.4247   -0.9996    0.6489 C   0  0  0  0  0  0  0  0  0  0  0  0
    2.0853   -0.1917   -0.5837 C   0  0  0  0  0  0  0  0  0  0  0  0
    0.8546   -0.4890   -1.3845 C   0  0  0  0  0  0  0  0  0  0  0  0
    1.0274    0.6808   -0.5975 C   0  0  0  0  0  0  0  0  0  0  0  0
   -0.2582    0.5779    0.1712 C   0  0  0  0  0  0  0  0  0  0  0  0
   -0.8375    1.8587    0.6238 C   0  0  0  0  0  0  0  0  0  0  0  0
   -1.0679   -0.6338    0.2521 C   0  0  0  0  0  0  0  0  0  0  0  0
   -2.5446   -0.6657    0.4012 C   0  0  0  0  0  0  0  0  0  0  0  0
   -0.5923   -0.1371   -1.0517 C   0  0  0  0  0  0  0  0  0  0  0  0
    2.1248   -0.3546    1.5245 H   0  0  0  0  0  0  0  0  0  0  0  0
    1.8650   -1.9610    0.6818 H   0  0  0  0  0  0  0  0  0  0  0  0
    3.5137   -1.1766    0.7642 H   0  0  0  0  0  0  0  0  0  0  0  0
    2.9779   -0.0231   -1.2352 H   0  0  0  0  0  0  0  0  0  0  0  0
    0.8721   -1.5393   -1.4695 H   0  0  0  0  0  0  0  0  0  0  0  0
    1.1007    1.6438   -1.1953 H   0  0  0  0  0  0  0  0  0  0  0  0
   -0.2677    2.1936    1.5361 H   0  0  0  0  0  0  0  0  0  0  0  0
   -0.6837    2.6588   -0.1349 H   0  0  0  0  0  0  0  0  0  0  0  0
   -1.8909    1.8420    0.9123 H   0  0  0  0  0  0  0  0  0  0  0  0
   -0.5360   -1.5431    0.6608 H   0  0  0  0  0  0  0  0  0  0  0  0
   -2.9605    0.1098    1.0660 H   0  0  0  0  0  0  0  0  0  0  0  0
   -3.0871   -0.5340   -0.5800 H   0  0  0  0  0  0  0  0  0  0  0  0
   -2.9006   -1.6404    0.7964 H   0  0  0  0  0  0  0  0  0  0  0  0
   -1.2192    0.3238   -1.8072 H   0  0  0  0  0  0  0  0  0  0  0  0
  1  2  1  0
  2  3  1  0
  3  4  1  0
  4  5  1  0
  5  6  1  0
  5  7  1  0
  7  8  1  0
  7  9  1  0
  4  2  1  0
  9  5  1  0
  9  3  1  0
  1 10  1  0
  1 11  1  0
  1 12  1  0
  2 13  1  0
  3 14  1  0
  4 15  1  0
  6 16  1  0
  6 17  1  0
  6 18  1  0
  7 19  1  0
  8 20  1  0
  8 21  1  0
  8 22  1  0
  9 23  1  0
M  END
