
     RDKit          3D

 23 25  0  0  0  0  0  0  0  0999 V2000
    2.5924    0.0142    0.2508 C   0  0  0  0  0  0  0  0  0  0  0  0
    1.2570    0.5859   -0.0953 C   0  0  0  0  0  0  0  0  0  0  0  0
    0.3196   -0.3579   -0.8045 C   0  0  0  0  0  0  0  0  0  0  0  0
    0.2565   -1.0909    0.5058 C   0  0  0  0  0  0  0  0  0  0  0  0
   -1.1291   -1.6378    0.6637 C   0  0  0  0  0  0  0  0  0  0  0  0
   -1.9078   -0.5194   -0.0551 C   0  0  0  0  0  0  0  0  0  0  0  0
   -0.7931    0.4603   -0.2529 C   0  0  0  0  0  0  0  0  0  0  0  0
   -1.1350    1.7381   -0.8398 C   0  0  0  0  0  0  0  0  0  0  0  0
    0.1523    0.3609    0.8926 C   0  0  0  0  0  0  0  0  0  0  0  0
    2.8406   -0.7944   -0.4895 H   0  0  0  0  0  0  0  0  0  0  0  0
    2.6682   -0.3550    1.2978 H   0  0  0  0  0  0  0  0  0  0  0  0
    3.4293    0.7534    0.1410 H   0  0  0  0  0  0  0  0  0  0  0  0
    1.3523    1.5913   -0.5138 H   0  0  0  0  0  0  0  0  0  0  0  0
    0.4308   -0.7481   -1.7171 H   0  0  0  0  0  0  0  0  0  0  0  0
    1.0974   -1.6590    0.8328 H   0  0  0  0  0  0  0  0  0  0  0  0
   -1.3838   -1.6313    1.7464 H   0  0  0  0  0  0  0  0  0  0  0  0
   -1.2830   -2.6079    0.1894 H   0  0  0  0  0  0  0  0  0  0  0  0
   -2.7339   -0.1517    0.5670 H   0  0  0  0  0  0  0  0  0  0  0  0
   -2.2207   -0.9505   -1.0223 H   0  0  0  0  0  0  0  0  0  0  0  0
   -0.5071    2.5993   -0.6004 H   0  0  0  0  0  0  0  0  0  0  0  0
   -2.1847    2.0246   -0.5511 H   0  0  0  0  0  0  0  0  0  0  0  0
   -1.1848    1.6419   -1.9630 H   0  0  0  0  0  0  0  0  0  0  0  0
    0.0666    0.7340    1.8176 H   0  0  0  0  0  0  0  0  0  0  0  0
  1  2  1  0
  2  3  1  0
  3  4  1  0
  4  5  1  0
  5  6  1  0
  6  7  1  0
  7  8  1  0
  7  9  1  0
  9  2  1  0
  7  3  1  0
  9  4  1  0
  1 10  1  0
  1 11  1  0
  1 12  1  0
  2 13  1  0
  3 14  1  0
  4 15  1  0
  5 16  1  0
  5 17  1  0
  6 18  1  0
  6 19  1  0
  8 20  1  0
  8 21  1  0
  8 22  1  0
  9 23  1  0
M  END
