
     RDKit          3D

 17 18  0  0  0  0  0  0  0  0999 V2000
    2.1073   -0.0829    0.5590 C   0  0  0  0  0  0  0  0  0  0  0  0
    1.0567   -0.0376   -0.5130 C   0  0  0  0  0  0  0  0  0  0  0  0
    0.4583    1.2732   -0.7233 C   0  0  0  0  0  0  0  0  0  0  0  0
   -0.8574    1.1411   -0.7442 C   0  0  0  0  0  0  0  0  0  0  0  0
   -1.2931   -0.2393   -0.5552 C   0  0  0  0  0  0  0  0  0  0  0  0
   -2.5861   -0.4601    0.1247 C   0  0  0  0  0  0  0  0  0  0  0  0
   -3.2297   -1.4699   -0.0204 O   0  0  0  0  0  0  0  0  0  0  0  0
   -0.8353   -1.2577   -1.3849 O   0  0  0  0  0  0  0  0  0  0  0  0
   -0.0878   -0.9757   -0.2454 C   0  0  0  0  0  0  0  0  0  0  0  0
    2.1380   -1.1153    0.9813 H   0  0  0  0  0  0  0  0  0  0  0  0
    1.9638    0.6199    1.3746 H   0  0  0  0  0  0  0  0  0  0  0  0
    3.1297    0.0960    0.1331 H   0  0  0  0  0  0  0  0  0  0  0  0
    1.5925   -0.3114   -1.4708 H   0  0  0  0  0  0  0  0  0  0  0  0
    0.9669    2.2522   -0.8508 H   0  0  0  0  0  0  0  0  0  0  0  0
   -1.5533    1.9828   -0.8890 H   0  0  0  0  0  0  0  0  0  0  0  0
   -2.9646    0.3108    0.7725 H   0  0  0  0  0  0  0  0  0  0  0  0
   -0.0059   -1.7261    0.5628 H   0  0  0  0  0  0  0  0  0  0  0  0
  1  2  1  0
  2  3  1  0
  3  4  2  0
  4  5  1  0
  5  6  1  0
  6  7  2  0
  5  8  1  0
  8  9  1  0
  9  2  1  0
  9  5  1  0
  1 10  1  0
  1 11  1  0
  1 12  1  0
  2 13  1  0
  3 14  1  0
  4 15  1  0
  6 16  1  0
  9 17  1  0
M  END
