
     RDKit          3D

 21 22  0  0  0  0  0  0  0  0999 V2000
   -2.4607   -0.6919    0.2799 C   0  0  0  0  0  0  0  0  0  0  0  0
   -1.3945    0.0079   -0.5117 C   0  0  0  0  0  0  0  0  0  0  0  0
   -0.8122    1.1615    0.3132 C   0  0  0  0  0  0  0  0  0  0  0  0
    0.2559    0.1789    0.8202 C   0  0  0  0  0  0  0  0  0  0  0  0
    1.4614    0.7990    0.9139 O   0  0  0  0  0  0  0  0  0  0  0  0
    2.4956    0.1581    0.2456 C   0  0  0  0  0  0  0  0  0  0  0  0
    2.1331    0.1146   -1.2188 C   0  0  0  0  0  0  0  0  0  0  0  0
    0.9028   -0.2679   -1.4939 C   0  0  0  0  0  0  0  0  0  0  0  0
   -0.0179   -0.6199   -0.4015 C   0  0  0  0  0  0  0  0  0  0  0  0
   -2.0470   -1.5702    0.8223 H   0  0  0  0  0  0  0  0  0  0  0  0
   -2.9058    0.0198    0.9841 H   0  0  0  0  0  0  0  0  0  0  0  0
   -3.2726   -1.0612   -0.3875 H   0  0  0  0  0  0  0  0  0  0  0  0
   -1.6820    0.2734   -1.5329 H   0  0  0  0  0  0  0  0  0  0  0  0
   -0.4180    1.9472   -0.3433 H   0  0  0  0  0  0  0  0  0  0  0  0
   -1.4734    1.5557    1.0873 H   0  0  0  0  0  0  0  0  0  0  0  0
   -0.1263   -0.3208    1.7366 H   0  0  0  0  0  0  0  0  0  0  0  0
    3.3887    0.8135    0.3264 H   0  0  0  0  0  0  0  0  0  0  0  0
    2.6648   -0.8334    0.6583 H   0  0  0  0  0  0  0  0  0  0  0  0
    2.8534    0.3851   -1.9906 H   0  0  0  0  0  0  0  0  0  0  0  0
    0.5439   -0.3312   -2.5284 H   0  0  0  0  0  0  0  0  0  0  0  0
   -0.0893   -1.7183   -0.2584 H   0  0  0  0  0  0  0  0  0  0  0  0
  1  2  1  0
  2  3  1  0
  3  4  1  0
  4  5  1  0
  5  6  1  0
  6  7  1  0
  7  8  2  0
  8  9  1  0
  9  2  1  0
  9  4  1  0
  1 10  1  0
  1 11  1  0
  1 12  1  0
  2 13  1  0
  3 14  1  0
  3 15  1  0
  4 16  1  0
  6 17  1  0
  6 18  1  0
  7 19  1  0
  8 20  1  0
  9 21  1  0
M  END
