
     RDKit          3D

 18 19  0  0  0  0  0  0  0  0999 V2000
   -2.5678    0.0503   -0.1311 C   0  0  0  0  0  0  0  0  0  0  0  0
   -1.2647    0.5614   -0.6472 C   0  0  0  0  0  0  0  0  0  0  0  0
   -0.3697   -0.5740   -1.1184 C   0  0  0  0  0  0  0  0  0  0  0  0
    0.3001   -0.3839    0.2486 C   0  0  0  0  0  0  0  0  0  0  0  0
    1.8021   -0.4285    0.1876 C   0  0  0  0  0  0  0  0  0  0  0  0
    2.6500    0.7300    0.3268 C   0  0  0  0  0  0  0  0  0  0  0  0
    2.3504    0.2686   -0.9907 O   0  0  0  0  0  0  0  0  0  0  0  0
   -0.2928    0.8478    0.3115 O   0  0  0  0  0  0  0  0  0  0  0  0
   -2.6726   -1.0565   -0.3053 H   0  0  0  0  0  0  0  0  0  0  0  0
   -3.4587    0.4926   -0.6594 H   0  0  0  0  0  0  0  0  0  0  0  0
   -2.7131    0.1882    0.9591 H   0  0  0  0  0  0  0  0  0  0  0  0
   -1.3012    1.3344   -1.4287 H   0  0  0  0  0  0  0  0  0  0  0  0
    0.3565   -0.2670   -1.9007 H   0  0  0  0  0  0  0  0  0  0  0  0
   -0.8741   -1.5316   -1.2531 H   0  0  0  0  0  0  0  0  0  0  0  0
   -0.1586   -1.1020    0.9509 H   0  0  0  0  0  0  0  0  0  0  0  0
    2.2372   -1.4367    0.2985 H   0  0  0  0  0  0  0  0  0  0  0  0
    2.2642    1.7414    0.5422 H   0  0  0  0  0  0  0  0  0  0  0  0
    3.7128    0.5656    0.6023 H   0  0  0  0  0  0  0  0  0  0  0  0
  1  2  1  0
  2  3  1  0
  3  4  1  0
  4  5  1  0
  5  6  1  0
  6  7  1  0
  4  8  1  0
  8  2  1  0
  7  5  1  0
  1  9  1  0
  1 10  1  0
  1 11  1  0
  2 12  1  0
  3 13  1  0
  3 14  1  0
  4 15  1  0
  5 16  1  0
  6 17  1  0
  6 18  1  0
M  END
