
     RDKit          3D

 20 20  0  0  0  0  0  0  0  0999 V2000
    1.9981    0.3280    0.2304 C   0  0  0  0  0  0  0  0  0  0  0  0
    0.6335    0.5271   -0.3617 C   0  0  0  0  0  0  0  0  0  0  0  0
    0.0945   -0.7790   -0.8478 C   0  0  0  0  0  0  0  0  0  0  0  0
   -0.4576   -0.5477   -2.1263 O   0  0  0  0  0  0  0  0  0  0  0  0
   -0.9856   -1.2146    0.0986 C   0  0  0  0  0  0  0  0  0  0  0  0
   -1.0081   -0.2372    1.2429 C   0  0  0  0  0  0  0  0  0  0  0  0
   -0.3825    0.9997    0.6286 C   0  0  0  0  0  0  0  0  0  0  0  0
   -1.4224    1.6409   -0.0822 O   0  0  0  0  0  0  0  0  0  0  0  0
    2.6476   -0.0890   -0.5764 H   0  0  0  0  0  0  0  0  0  0  0  0
    2.4668    1.2620    0.5686 H   0  0  0  0  0  0  0  0  0  0  0  0
    2.0142   -0.4141    1.0491 H   0  0  0  0  0  0  0  0  0  0  0  0
    0.7199    1.2993   -1.1516 H   0  0  0  0  0  0  0  0  0  0  0  0
    0.8836   -1.5516   -0.9213 H   0  0  0  0  0  0  0  0  0  0  0  0
   -0.6504   -1.4201   -2.5489 H   0  0  0  0  0  0  0  0  0  0  0  0
   -1.9700   -1.2515   -0.4387 H   0  0  0  0  0  0  0  0  0  0  0  0
   -0.8285   -2.2602    0.4682 H   0  0  0  0  0  0  0  0  0  0  0  0
   -0.4416   -0.5542    2.1186 H   0  0  0  0  0  0  0  0  0  0  0  0
   -2.0834   -0.0465    1.4896 H   0  0  0  0  0  0  0  0  0  0  0  0
   -0.0009    1.7049    1.3690 H   0  0  0  0  0  0  0  0  0  0  0  0
   -1.2272    2.6037   -0.2089 H   0  0  0  0  0  0  0  0  0  0  0  0
  1  2  1  0
  2  3  1  0
  3  4  1  0
  3  5  1  0
  5  6  1  0
  6  7  1  0
  7  8  1  0
  7  2  1  0
  1  9  1  0
  1 10  1  0
  1 11  1  0
  2 12  1  0
  3 13  1  0
  4 14  1  0
  5 15  1  0
  5 16  1  0
  6 17  1  0
  6 18  1  0
  7 19  1  0
  8 20  1  0
M  END
