
     RDKit          3D

 23 25  0  0  0  0  0  0  0  0999 V2000
    2.0137   -0.5456    0.4803 C   0  0  0  0  0  0  0  0  0  0  0  0
    1.2281   -0.0422   -0.7002 C   0  0  0  0  0  0  0  0  0  0  0  0
    0.8134    1.3725   -0.4325 C   0  0  0  0  0  0  0  0  0  0  0  0
   -0.6182    1.5311   -0.7929 C   0  0  0  0  0  0  0  0  0  0  0  0
   -1.7158    0.7140   -0.2829 C   0  0  0  0  0  0  0  0  0  0  0  0
   -1.5831   -0.3329    0.7619 C   0  0  0  0  0  0  0  0  0  0  0  0
   -0.5882   -1.3585    0.2921 C   0  0  0  0  0  0  0  0  0  0  0  0
   -0.0244   -0.7988   -0.9677 C   0  0  0  0  0  0  0  0  0  0  0  0
   -0.9790    0.2510   -1.4591 C   0  0  0  0  0  0  0  0  0  0  0  0
    1.6485   -0.1767    1.4477 H   0  0  0  0  0  0  0  0  0  0  0  0
    3.0697   -0.1659    0.3746 H   0  0  0  0  0  0  0  0  0  0  0  0
    2.0945   -1.6450    0.4119 H   0  0  0  0  0  0  0  0  0  0  0  0
    1.8865   -0.1383   -1.5942 H   0  0  0  0  0  0  0  0  0  0  0  0
    1.4306    2.0248   -1.0867 H   0  0  0  0  0  0  0  0  0  0  0  0
    1.0506    1.6986    0.6188 H   0  0  0  0  0  0  0  0  0  0  0  0
   -0.8793    2.4855   -1.2959 H   0  0  0  0  0  0  0  0  0  0  0  0
   -2.7410    1.1522   -0.3593 H   0  0  0  0  0  0  0  0  0  0  0  0
   -1.3360    0.0649    1.7741 H   0  0  0  0  0  0  0  0  0  0  0  0
   -2.5569   -0.8551    0.8717 H   0  0  0  0  0  0  0  0  0  0  0  0
   -1.0624   -2.3701    0.1294 H   0  0  0  0  0  0  0  0  0  0  0  0
    0.1405   -1.5060    1.1014 H   0  0  0  0  0  0  0  0  0  0  0  0
    0.1061   -1.5679   -1.7771 H   0  0  0  0  0  0  0  0  0  0  0  0
   -1.3979    0.2085   -2.4690 H   0  0  0  0  0  0  0  0  0  0  0  0
  1  2  1  0
  2  3  1  0
  3  4  1  0
  4  5  1  0
  5  6  1  0
  6  7  1  0
  7  8  1  0
  8  9  1  0
  8  2  1  0
  9  4  1  0
  9  5  1  0
  1 10  1  0
  1 11  1  0
  1 12  1  0
  2 13  1  0
  3 14  1  0
  3 15  1  0
  4 16  1  0
  5 17  1  0
  6 18  1  0
  6 19  1  0
  7 20  1  0
  7 21  1  0
  8 22  1  0
  9 23  1  0
M  END
