
     RDKit          3D

 20 21  0  0  0  0  0  0  0  0999 V2000
    2.2267    0.7976   -0.1178 C   0  0  0  0  0  0  0  0  0  0  0  0
    1.4449   -0.4571    0.1311 C   0  0  0  0  0  0  0  0  0  0  0  0
    0.3890   -0.3461    1.2295 C   0  0  0  0  0  0  0  0  0  0  0  0
   -0.6371   -0.3778    0.1665 C   0  0  0  0  0  0  0  0  0  0  0  0
    0.3474   -0.5940   -0.9292 C   0  0  0  0  0  0  0  0  0  0  0  0
   -1.9427   -0.9860    0.2404 C   0  0  0  0  0  0  0  0  0  0  0  0
   -1.7719    0.5234    0.1031 C   0  0  0  0  0  0  0  0  0  0  0  0
   -2.0841    1.1318   -1.0908 O   0  0  0  0  0  0  0  0  0  0  0  0
    1.7817    1.6463    0.4468 H   0  0  0  0  0  0  0  0  0  0  0  0
    2.1798    1.1140   -1.1966 H   0  0  0  0  0  0  0  0  0  0  0  0
    3.2811    0.5914    0.1857 H   0  0  0  0  0  0  0  0  0  0  0  0
    2.0514   -1.3718    0.2704 H   0  0  0  0  0  0  0  0  0  0  0  0
    0.4184   -1.1542    1.9661 H   0  0  0  0  0  0  0  0  0  0  0  0
    0.3885    0.6444    1.7517 H   0  0  0  0  0  0  0  0  0  0  0  0
    0.3855   -1.6213   -1.3690 H   0  0  0  0  0  0  0  0  0  0  0  0
    0.3854    0.1651   -1.7258 H   0  0  0  0  0  0  0  0  0  0  0  0
   -2.2773   -1.5526   -0.6785 H   0  0  0  0  0  0  0  0  0  0  0  0
   -2.3627   -1.3580    1.2124 H   0  0  0  0  0  0  0  0  0  0  0  0
   -2.0150    1.0989    1.0432 H   0  0  0  0  0  0  0  0  0  0  0  0
   -2.1889    2.1060   -0.9182 H   0  0  0  0  0  0  0  0  0  0  0  0
  1  2  1  0
  2  3  1  0
  3  4  1  0
  4  5  1  0
  4  6  1  0
  6  7  1  0
  7  8  1  0
  5  2  1  0
  7  4  1  0
  1  9  1  0
  1 10  1  0
  1 11  1  0
  2 12  1  0
  3 13  1  0
  3 14  1  0
  5 15  1  0
  5 16  1  0
  6 17  1  0
  6 18  1  0
  7 19  1  0
  8 20  1  0
M  END
