
     RDKit          3D

 21 21  0  0  0  0  0  0  0  0999 V2000
    2.1288    0.5179    0.4838 C   0  0  0  0  0  0  0  0  0  0  0  0
    0.9301    0.3488   -0.3843 C   0  0  0  0  0  0  0  0  0  0  0  0
   -0.2180    1.1442    0.1897 C   0  0  0  0  0  0  0  0  0  0  0  0
   -1.3691    0.2044    0.3734 C   0  0  0  0  0  0  0  0  0  0  0  0
   -2.5246    0.8675   -0.0975 O   0  0  0  0  0  0  0  0  0  0  0  0
   -1.0637   -1.0325   -0.3999 C   0  0  0  0  0  0  0  0  0  0  0  0
   -1.6755   -1.0663   -1.6521 O   0  0  0  0  0  0  0  0  0  0  0  0
    0.4577   -1.0638   -0.5228 C   0  0  0  0  0  0  0  0  0  0  0  0
    1.0462   -1.8473    0.4485 O   0  0  0  0  0  0  0  0  0  0  0  0
    3.0402    0.8102   -0.1143 H   0  0  0  0  0  0  0  0  0  0  0  0
    1.9765    1.3962    1.1786 H   0  0  0  0  0  0  0  0  0  0  0  0
    2.3481   -0.3545    1.1295 H   0  0  0  0  0  0  0  0  0  0  0  0
    1.2020    0.7030   -1.4185 H   0  0  0  0  0  0  0  0  0  0  0  0
    0.0369    1.5512    1.2091 H   0  0  0  0  0  0  0  0  0  0  0  0
   -0.4268    2.0109   -0.4424 H   0  0  0  0  0  0  0  0  0  0  0  0
   -1.5658   -0.0322    1.4349 H   0  0  0  0  0  0  0  0  0  0  0  0
   -2.4773    1.7786    0.3246 H   0  0  0  0  0  0  0  0  0  0  0  0
   -1.4075   -1.9394    0.1410 H   0  0  0  0  0  0  0  0  0  0  0  0
   -1.5085   -0.2407   -2.1821 H   0  0  0  0  0  0  0  0  0  0  0  0
    0.6602   -1.4986   -1.5379 H   0  0  0  0  0  0  0  0  0  0  0  0
    0.4101   -2.2577    1.0798 H   0  0  0  0  0  0  0  0  0  0  0  0
  1  2  1  0
  2  3  1  0
  3  4  1  0
  4  5  1  0
  4  6  1  0
  6  7  1  0
  6  8  1  0
  8  9  1  0
  8  2  1  0
  1 10  1  0
  1 11  1  0
  1 12  1  0
  2 13  1  0
  3 14  1  0
  3 15  1  0
  4 16  1  0
  5 17  1  0
  6 18  1  0
  7 19  1  0
  8 20  1  0
  9 21  1  0
M  END
