
     RDKit          3D

 23 24  0  0  0  0  0  0  0  0999 V2000
   -1.0014    2.0908   -0.1988 C   0  0  0  0  0  0  0  0  0  0  0  0
   -0.7869    0.6277   -0.5304 C   0  0  0  0  0  0  0  0  0  0  0  0
    0.6323    0.1706   -0.3653 C   0  0  0  0  0  0  0  0  0  0  0  0
    1.2823   -0.6082   -1.4421 C   0  0  0  0  0  0  0  0  0  0  0  0
    1.3779    0.7475    0.7836 C   0  0  0  0  0  0  0  0  0  0  0  0
    0.3818    0.1102    1.7329 C   0  0  0  0  0  0  0  0  0  0  0  0
   -0.4007   -0.3342    0.5333 C   0  0  0  0  0  0  0  0  0  0  0  0
   -0.9654   -1.7228    0.4588 C   0  0  0  0  0  0  0  0  0  0  0  0
   -0.6281   -2.4024   -0.6943 O   0  0  0  0  0  0  0  0  0  0  0  0
   -0.1744    2.7148   -0.6058 H   0  0  0  0  0  0  0  0  0  0  0  0
   -1.9346    2.4090   -0.6927 H   0  0  0  0  0  0  0  0  0  0  0  0
   -1.1349    2.2560    0.8811 H   0  0  0  0  0  0  0  0  0  0  0  0
   -1.3035    0.2082   -1.3989 H   0  0  0  0  0  0  0  0  0  0  0  0
    1.6367   -1.6015   -1.1779 H   0  0  0  0  0  0  0  0  0  0  0  0
    0.5571   -0.6654   -2.3065 H   0  0  0  0  0  0  0  0  0  0  0  0
    2.1470   -0.0340   -1.8435 H   0  0  0  0  0  0  0  0  0  0  0  0
    2.4078    0.3645    0.8892 H   0  0  0  0  0  0  0  0  0  0  0  0
    1.3685    1.8416    0.8747 H   0  0  0  0  0  0  0  0  0  0  0  0
    0.8411   -0.7524    2.2335 H   0  0  0  0  0  0  0  0  0  0  0  0
   -0.1705    0.7917    2.3825 H   0  0  0  0  0  0  0  0  0  0  0  0
   -0.6856   -2.2543    1.3898 H   0  0  0  0  0  0  0  0  0  0  0  0
   -2.0895   -1.6088    0.4592 H   0  0  0  0  0  0  0  0  0  0  0  0
   -1.3569   -2.3488   -1.3626 H   0  0  0  0  0  0  0  0  0  0  0  0
  1  2  1  0
  2  3  1  0
  3  4  1  0
  3  5  1  0
  5  6  1  0
  6  7  1  0
  7  8  1  0
  8  9  1  0
  7  2  1  0
  7  3  1  0
  1 10  1  0
  1 11  1  0
  1 12  1  0
  2 13  1  0
  4 14  1  0
  4 15  1  0
  4 16  1  0
  5 17  1  0
  5 18  1  0
  6 19  1  0
  6 20  1  0
  8 21  1  0
  8 22  1  0
  9 23  1  0
M  END
