
     RDKit          3D

 20 20  0  0  0  0  0  0  0  0999 V2000
    2.5540    0.0391    0.7656 C   0  0  0  0  0  0  0  0  0  0  0  0
    1.1051   -0.3194    0.7399 C   0  0  0  0  0  0  0  0  0  0  0  0
    0.1810    0.8236    0.5152 C   0  0  0  0  0  0  0  0  0  0  0  0
   -0.9420    0.2056   -0.2772 C   0  0  0  0  0  0  0  0  0  0  0  0
   -2.2781    0.3250    0.4181 C   0  0  0  0  0  0  0  0  0  0  0  0
   -1.0561    0.7284   -1.5487 O   0  0  0  0  0  0  0  0  0  0  0  0
   -0.5505   -1.2588   -0.2795 C   0  0  0  0  0  0  0  0  0  0  0  0
    0.8533   -1.1608   -0.3432 O   0  0  0  0  0  0  0  0  0  0  0  0
    3.1300   -0.9305    0.7381 H   0  0  0  0  0  0  0  0  0  0  0  0
    2.8717    0.5945   -0.1267 H   0  0  0  0  0  0  0  0  0  0  0  0
    2.8455    0.5281    1.7223 H   0  0  0  0  0  0  0  0  0  0  0  0
    0.8322   -0.8690    1.6466 H   0  0  0  0  0  0  0  0  0  0  0  0
   -0.2654    1.1758    1.4760 H   0  0  0  0  0  0  0  0  0  0  0  0
    0.6287    1.6971    0.0183 H   0  0  0  0  0  0  0  0  0  0  0  0
   -2.5346    1.3514    0.7062 H   0  0  0  0  0  0  0  0  0  0  0  0
   -3.0405   -0.0633   -0.2981 H   0  0  0  0  0  0  0  0  0  0  0  0
   -2.3526   -0.3435    1.3115 H   0  0  0  0  0  0  0  0  0  0  0  0
   -0.1592    1.0329   -1.8710 H   0  0  0  0  0  0  0  0  0  0  0  0
   -0.8738   -1.7636    0.6472 H   0  0  0  0  0  0  0  0  0  0  0  0
   -0.9487   -1.7927   -1.1581 H   0  0  0  0  0  0  0  0  0  0  0  0
  1  2  1  0
  2  3  1  0
  3  4  1  0
  4  5  1  0
  4  6  1  0
  4  7  1  0
  7  8  1  0
  8  2  1  0
  1  9  1  0
  1 10  1  0
  1 11  1  0
  2 12  1  0
  3 13  1  0
  3 14  1  0
  5 15  1  0
  5 16  1  0
  5 17  1  0
  6 18  1  0
  7 19  1  0
  7 20  1  0
M  END
