
     RDKit          3D

 23 24  0  0  0  0  0  0  0  0999 V2000
    2.6803   -0.8631    0.1534 C   0  0  0  0  0  0  0  0  0  0  0  0
    1.4119   -0.1014    0.4072 C   0  0  0  0  0  0  0  0  0  0  0  0
    1.0160    0.9698   -0.5551 C   0  0  0  0  0  0  0  0  0  0  0  0
   -0.0483    1.9561   -0.1452 C   0  0  0  0  0  0  0  0  0  0  0  0
   -0.8501    1.2233    0.7202 O   0  0  0  0  0  0  0  0  0  0  0  0
   -1.0960   -0.0010    0.1298 C   0  0  0  0  0  0  0  0  0  0  0  0
   -2.2132    0.0021   -0.8567 C   0  0  0  0  0  0  0  0  0  0  0  0
   -1.3280   -1.0622    1.2129 C   0  0  0  0  0  0  0  0  0  0  0  0
    0.2496   -0.3409   -0.4936 C   0  0  0  0  0  0  0  0  0  0  0  0
    2.7938   -1.6385    0.9631 H   0  0  0  0  0  0  0  0  0  0  0  0
    2.6022   -1.4263   -0.7860 H   0  0  0  0  0  0  0  0  0  0  0  0
    3.5186   -0.1397    0.1790 H   0  0  0  0  0  0  0  0  0  0  0  0
    1.2317    0.1317    1.4685 H   0  0  0  0  0  0  0  0  0  0  0  0
    1.6070    1.1451   -1.4785 H   0  0  0  0  0  0  0  0  0  0  0  0
    0.3433    2.8247    0.4060 H   0  0  0  0  0  0  0  0  0  0  0  0
   -0.6809    2.2458   -1.0223 H   0  0  0  0  0  0  0  0  0  0  0  0
   -2.5526    1.0616   -0.9821 H   0  0  0  0  0  0  0  0  0  0  0  0
   -1.8975   -0.4541   -1.8194 H   0  0  0  0  0  0  0  0  0  0  0  0
   -3.1219   -0.5408   -0.4790 H   0  0  0  0  0  0  0  0  0  0  0  0
   -0.3181   -1.2904    1.6584 H   0  0  0  0  0  0  0  0  0  0  0  0
   -2.0169   -0.7256    1.9852 H   0  0  0  0  0  0  0  0  0  0  0  0
   -1.6362   -1.9977    0.7065 H   0  0  0  0  0  0  0  0  0  0  0  0
    0.3054   -0.9785   -1.3724 H   0  0  0  0  0  0  0  0  0  0  0  0
  1  2  1  0
  2  3  1  0
  3  4  1  0
  4  5  1  0
  5  6  1  0
  6  7  1  0
  6  8  1  0
  6  9  1  0
  9  2  1  0
  9  3  1  0
  1 10  1  0
  1 11  1  0
  1 12  1  0
  2 13  1  0
  3 14  1  0
  4 15  1  0
  4 16  1  0
  7 17  1  0
  7 18  1  0
  7 19  1  0
  8 20  1  0
  8 21  1  0
  8 22  1  0
  9 23  1  0
M  END
