
     RDKit          3D

 23 24  0  0  0  0  0  0  0  0999 V2000
    2.0190    0.6180   -0.2516 C   0  0  0  0  0  0  0  0  0  0  0  0
    1.2452   -0.2710    0.6725 C   0  0  0  0  0  0  0  0  0  0  0  0
    0.8505   -1.5699   -0.0089 C   0  0  0  0  0  0  0  0  0  0  0  0
   -0.6043   -1.1468    0.2009 C   0  0  0  0  0  0  0  0  0  0  0  0
   -1.2876   -0.7007   -1.0545 C   0  0  0  0  0  0  0  0  0  0  0  0
   -1.5615    0.7722   -0.9327 C   0  0  0  0  0  0  0  0  0  0  0  0
   -0.7349    1.2734    0.2260 C   0  0  0  0  0  0  0  0  0  0  0  0
   -0.1750    0.0968    0.9376 C   0  0  0  0  0  0  0  0  0  0  0  0
   -0.4632    0.0245    2.3051 O   0  0  0  0  0  0  0  0  0  0  0  0
    3.0207    0.1602   -0.3995 H   0  0  0  0  0  0  0  0  0  0  0  0
    2.1003    1.6574    0.1466 H   0  0  0  0  0  0  0  0  0  0  0  0
    1.5294    0.7078   -1.2459 H   0  0  0  0  0  0  0  0  0  0  0  0
    1.8541   -0.5253    1.5767 H   0  0  0  0  0  0  0  0  0  0  0  0
    1.1020   -1.6148   -1.0942 H   0  0  0  0  0  0  0  0  0  0  0  0
    1.1367   -2.4876    0.5106 H   0  0  0  0  0  0  0  0  0  0  0  0
   -1.1628   -1.8845    0.7836 H   0  0  0  0  0  0  0  0  0  0  0  0
   -0.5811   -0.8377   -1.8948 H   0  0  0  0  0  0  0  0  0  0  0  0
   -2.2397   -1.2555   -1.1846 H   0  0  0  0  0  0  0  0  0  0  0  0
   -2.6536    0.9365   -0.7757 H   0  0  0  0  0  0  0  0  0  0  0  0
   -1.3199    1.2952   -1.8885 H   0  0  0  0  0  0  0  0  0  0  0  0
   -1.4483    1.7929    0.9275 H   0  0  0  0  0  0  0  0  0  0  0  0
    0.0053    1.9929   -0.1523 H   0  0  0  0  0  0  0  0  0  0  0  0
   -0.6313    0.9660    2.5961 H   0  0  0  0  0  0  0  0  0  0  0  0
  1  2  1  0
  2  3  1  0
  3  4  1  0
  4  5  1  0
  5  6  1  0
  6  7  1  0
  7  8  1  0
  8  9  1  0
  8  2  1  0
  8  4  1  0
  1 10  1  0
  1 11  1  0
  1 12  1  0
  2 13  1  0
  3 14  1  0
  3 15  1  0
  4 16  1  0
  5 17  1  0
  5 18  1  0
  6 19  1  0
  6 20  1  0
  7 21  1  0
  7 22  1  0
  9 23  1  0
M  END
