
     RDKit          3D

 17 17  0  0  0  0  0  0  0  0999 V2000
    1.5403    0.9845    0.3670 C   0  0  0  0  0  0  0  0  0  0  0  0
    1.1216   -0.3085   -0.2976 C   0  0  0  0  0  0  0  0  0  0  0  0
    0.3357   -1.3199    0.4625 C   0  0  0  0  0  0  0  0  0  0  0  0
   -0.3145   -0.4882   -0.6443 C   0  0  0  0  0  0  0  0  0  0  0  0
   -0.5579   -1.0862   -1.8573 O   0  0  0  0  0  0  0  0  0  0  0  0
   -1.3494    0.4886   -0.1559 C   0  0  0  0  0  0  0  0  0  0  0  0
   -1.0459    1.0476    1.0578 O   0  0  0  0  0  0  0  0  0  0  0  0
    2.5770    1.2882    0.0844 H   0  0  0  0  0  0  0  0  0  0  0  0
    1.4968    0.9436    1.4602 H   0  0  0  0  0  0  0  0  0  0  0  0
    0.8802    1.7814   -0.0707 H   0  0  0  0  0  0  0  0  0  0  0  0
    1.8943   -0.7258   -0.9647 H   0  0  0  0  0  0  0  0  0  0  0  0
    0.4512   -2.3923    0.2444 H   0  0  0  0  0  0  0  0  0  0  0  0
    0.0972   -1.0715    1.5046 H   0  0  0  0  0  0  0  0  0  0  0  0
   -1.4739   -1.3455   -2.0313 H   0  0  0  0  0  0  0  0  0  0  0  0
   -2.3038   -0.0938   -0.0186 H   0  0  0  0  0  0  0  0  0  0  0  0
   -1.5873    1.2848   -0.8710 H   0  0  0  0  0  0  0  0  0  0  0  0
   -1.7617    1.0131    1.7303 H   0  0  0  0  0  0  0  0  0  0  0  0
  1  2  1  0
  2  3  1  0
  3  4  1  0
  4  5  1  0
  4  6  1  0
  6  7  1  0
  4  2  1  0
  1  8  1  0
  1  9  1  0
  1 10  1  0
  2 11  1  0
  3 12  1  0
  3 13  1  0
  5 14  1  0
  6 15  1  0
  6 16  1  0
  7 17  1  0
M  END
