
     RDKit          3D

 21 22  0  0  0  0  0  0  0  0999 V2000
    2.5519   -0.0783   -0.3448 C   0  0  0  0  0  0  0  0  0  0  0  0
    1.1758   -0.6907   -0.5987 C   0  0  0  0  0  0  0  0  0  0  0  0
    0.5337   -1.1005    0.7108 C   0  0  0  0  0  0  0  0  0  0  0  0
   -0.5852   -0.0976    0.8627 C   0  0  0  0  0  0  0  0  0  0  0  0
   -1.8444   -0.5438    0.1630 C   0  0  0  0  0  0  0  0  0  0  0  0
   -2.4554    0.7273   -0.2603 C   0  0  0  0  0  0  0  0  0  0  0  0
   -1.5017    1.6233   -0.4135 C   0  0  0  0  0  0  0  0  0  0  0  0
   -0.1574    1.0250   -0.1018 C   0  0  0  0  0  0  0  0  0  0  0  0
    0.3813    0.3197   -1.1511 O   0  0  0  0  0  0  0  0  0  0  0  0
    3.1583   -0.6928    0.3371 H   0  0  0  0  0  0  0  0  0  0  0  0
    2.4207    0.9624   -0.0082 H   0  0  0  0  0  0  0  0  0  0  0  0
    3.0646   -0.0692   -1.3291 H   0  0  0  0  0  0  0  0  0  0  0  0
    1.2852   -1.5622   -1.2646 H   0  0  0  0  0  0  0  0  0  0  0  0
    0.1790   -2.1471    0.7064 H   0  0  0  0  0  0  0  0  0  0  0  0
    1.2547   -0.9293    1.5177 H   0  0  0  0  0  0  0  0  0  0  0  0
   -0.7322    0.2700    1.8761 H   0  0  0  0  0  0  0  0  0  0  0  0
   -1.5450   -1.0822   -0.7631 H   0  0  0  0  0  0  0  0  0  0  0  0
   -2.4969   -1.1555    0.8128 H   0  0  0  0  0  0  0  0  0  0  0  0
   -3.5408    0.8433   -0.4068 H   0  0  0  0  0  0  0  0  0  0  0  0
   -1.6579    2.6381   -0.7176 H   0  0  0  0  0  0  0  0  0  0  0  0
    0.5117    1.7400    0.3731 H   0  0  0  0  0  0  0  0  0  0  0  0
  1  2  1  0
  2  3  1  0
  3  4  1  0
  4  5  1  0
  5  6  1  0
  6  7  2  0
  7  8  1  0
  8  9  1  0
  9  2  1  0
  8  4  1  0
  1 10  1  0
  1 11  1  0
  1 12  1  0
  2 13  1  0
  3 14  1  0
  3 15  1  0
  4 16  1  0
  5 17  1  0
  5 18  1  0
  6 19  1  0
  7 20  1  0
  8 21  1  0
M  END
