
     RDKit          3D

 21 22  0  0  0  0  0  0  0  0999 V2000
   -0.8163    1.9859    0.3905 C   0  0  0  0  0  0  0  0  0  0  0  0
   -0.5994    0.6956   -0.3349 C   0  0  0  0  0  0  0  0  0  0  0  0
   -0.7850   -0.5115    0.5706 C   0  0  0  0  0  0  0  0  0  0  0  0
    0.0916   -1.5685   -0.0921 C   0  0  0  0  0  0  0  0  0  0  0  0
   -0.7472   -2.6864   -0.3183 O   0  0  0  0  0  0  0  0  0  0  0  0
    0.4261   -0.9383   -1.3844 C   0  0  0  0  0  0  0  0  0  0  0  0
    1.3336   -0.1102   -1.8186 O   0  0  0  0  0  0  0  0  0  0  0  0
    0.7989    0.4494   -0.7688 C   0  0  0  0  0  0  0  0  0  0  0  0
    1.7580    0.3895    0.4238 C   0  0  0  0  0  0  0  0  0  0  0  0
   -0.7834    2.7976   -0.3645 H   0  0  0  0  0  0  0  0  0  0  0  0
   -1.8503    1.9403    0.8321 H   0  0  0  0  0  0  0  0  0  0  0  0
   -0.1161    2.1736    1.1997 H   0  0  0  0  0  0  0  0  0  0  0  0
   -1.3236    0.6208   -1.1569 H   0  0  0  0  0  0  0  0  0  0  0  0
   -1.8549   -0.7975    0.5685 H   0  0  0  0  0  0  0  0  0  0  0  0
   -0.5009   -0.3173    1.6124 H   0  0  0  0  0  0  0  0  0  0  0  0
    0.9026   -1.9194    0.5268 H   0  0  0  0  0  0  0  0  0  0  0  0
   -1.6019   -2.6031    0.1528 H   0  0  0  0  0  0  0  0  0  0  0  0
   -0.4847   -0.9364   -2.0639 H   0  0  0  0  0  0  0  0  0  0  0  0
    1.2936    0.6171    1.3779 H   0  0  0  0  0  0  0  0  0  0  0  0
    2.3759   -0.5175    0.4196 H   0  0  0  0  0  0  0  0  0  0  0  0
    2.4835    1.2364    0.2275 H   0  0  0  0  0  0  0  0  0  0  0  0
  1  2  1  0
  2  3  1  0
  3  4  1  0
  4  5  1  0
  4  6  1  0
  6  7  1  0
  7  8  1  0
  8  9  1  0
  8  2  1  0
  8  6  1  0
  1 10  1  0
  1 11  1  0
  1 12  1  0
  2 13  1  0
  3 14  1  0
  3 15  1  0
  4 16  1  0
  5 17  1  0
  6 18  1  0
  9 19  1  0
  9 20  1  0
  9 21  1  0
M  END
