
     RDKit          3D

 16 16  0  0  0  0  0  0  0  0999 V2000
    1.8644    0.0109   -0.2534 C   0  0  0  0  0  0  0  0  0  0  0  0
    0.5303   -0.6314   -0.3620 C   0  0  0  0  0  0  0  0  0  0  0  0
   -0.1364   -0.8671    0.9900 C   0  0  0  0  0  0  0  0  0  0  0  0
   -0.7361    0.1353    0.0736 C   0  0  0  0  0  0  0  0  0  0  0  0
   -2.0377   -0.2713   -0.5196 C   0  0  0  0  0  0  0  0  0  0  0  0
   -2.7832   -0.9606    0.1476 O   0  0  0  0  0  0  0  0  0  0  0  0
   -0.5135    1.5670    0.1262 C   0  0  0  0  0  0  0  0  0  0  0  0
    0.2769    2.0908   -0.6588 O   0  0  0  0  0  0  0  0  0  0  0  0
    2.1356    0.5530   -1.1672 H   0  0  0  0  0  0  0  0  0  0  0  0
    2.5979   -0.8255   -0.1057 H   0  0  0  0  0  0  0  0  0  0  0  0
    1.9880    0.6649    0.6535 H   0  0  0  0  0  0  0  0  0  0  0  0
    0.4060   -1.3173   -1.1689 H   0  0  0  0  0  0  0  0  0  0  0  0
    0.3682   -0.6085    1.9266 H   0  0  0  0  0  0  0  0  0  0  0  0
   -0.6342   -1.8588    1.0298 H   0  0  0  0  0  0  0  0  0  0  0  0
   -2.3096    0.0447   -1.5728 H   0  0  0  0  0  0  0  0  0  0  0  0
   -1.0167    2.2739    0.8610 H   0  0  0  0  0  0  0  0  0  0  0  0
  1  2  1  0
  2  3  1  0
  3  4  1  0
  4  5  1  0
  5  6  2  0
  4  7  1  0
  7  8  2  0
  4  2  1  0
  1  9  1  0
  1 10  1  0
  1 11  1  0
  2 12  1  0
  3 13  1  0
  3 14  1  0
  5 15  1  0
  7 16  1  0
M  END
