
     RDKit          3D

 21 22  0  0  0  0  0  0  0  0999 V2000
    2.2009    0.7715   -0.2218 C   0  0  0  0  0  0  0  0  0  0  0  0
    1.2912   -0.3627   -0.0035 C   0  0  0  0  0  0  0  0  0  0  0  0
    0.2286   -0.5238   -1.0747 C   0  0  0  0  0  0  0  0  0  0  0  0
   -0.8589   -1.2305   -0.2907 C   0  0  0  0  0  0  0  0  0  0  0  0
   -2.1257   -0.3680   -0.2636 C   0  0  0  0  0  0  0  0  0  0  0  0
   -1.7127    0.9061    0.4336 C   0  0  0  0  0  0  0  0  0  0  0  0
   -0.5310    0.9730    1.0343 C   0  0  0  0  0  0  0  0  0  0  0  0
    0.3687   -0.1858    1.2088 C   0  0  0  0  0  0  0  0  0  0  0  0
   -0.4317   -1.3372    1.0091 O   0  0  0  0  0  0  0  0  0  0  0  0
    3.1804    0.3764   -0.6110 H   0  0  0  0  0  0  0  0  0  0  0  0
    2.4822    1.3164    0.7211 H   0  0  0  0  0  0  0  0  0  0  0  0
    1.8225    1.4562   -1.0002 H   0  0  0  0  0  0  0  0  0  0  0  0
    1.7693   -1.3530    0.1102 H   0  0  0  0  0  0  0  0  0  0  0  0
   -0.1368    0.4869   -1.3743 H   0  0  0  0  0  0  0  0  0  0  0  0
    0.5791   -1.1060   -1.9243 H   0  0  0  0  0  0  0  0  0  0  0  0
   -1.0735   -2.2225   -0.7606 H   0  0  0  0  0  0  0  0  0  0  0  0
   -2.8672   -0.9005    0.3334 H   0  0  0  0  0  0  0  0  0  0  0  0
   -2.4551   -0.1314   -1.2893 H   0  0  0  0  0  0  0  0  0  0  0  0
   -2.4283    1.7129    0.3998 H   0  0  0  0  0  0  0  0  0  0  0  0
   -0.2126    1.9339    1.4168 H   0  0  0  0  0  0  0  0  0  0  0  0
    0.9106   -0.2119    2.1470 H   0  0  0  0  0  0  0  0  0  0  0  0
  1  2  1  0
  2  3  1  0
  3  4  1  0
  4  5  1  0
  5  6  1  0
  6  7  2  0
  7  8  1  0
  8  9  1  0
  8  2  1  0
  9  4  1  0
  1 10  1  0
  1 11  1  0
  1 12  1  0
  2 13  1  0
  3 14  1  0
  3 15  1  0
  4 16  1  0
  5 17  1  0
  5 18  1  0
  6 19  1  0
  7 20  1  0
  8 21  1  0
M  END
