
     RDKit          3D

 21 22  0  0  0  0  0  0  0  0999 V2000
   -2.3119   -0.7828   -0.0275 C   0  0  0  0  0  0  0  0  0  0  0  0
   -1.4467    0.1005   -0.8823 C   0  0  0  0  0  0  0  0  0  0  0  0
   -0.6972    1.1650   -0.1894 C   0  0  0  0  0  0  0  0  0  0  0  0
    0.1848    0.9159    0.9767 C   0  0  0  0  0  0  0  0  0  0  0  0
    0.7454   -0.3649    0.3827 C   0  0  0  0  0  0  0  0  0  0  0  0
    2.2401   -0.3787    0.2062 C   0  0  0  0  0  0  0  0  0  0  0  0
    0.3103   -1.5324    0.9707 O   0  0  0  0  0  0  0  0  0  0  0  0
    0.0255   -0.0044   -0.8830 C   0  0  0  0  0  0  0  0  0  0  0  0
    0.7614    0.3719   -1.9769 O   0  0  0  0  0  0  0  0  0  0  0  0
   -2.5584   -1.7480   -0.5018 H   0  0  0  0  0  0  0  0  0  0  0  0
   -3.3004   -0.2465    0.0779 H   0  0  0  0  0  0  0  0  0  0  0  0
   -1.9369   -0.8878    1.0120 H   0  0  0  0  0  0  0  0  0  0  0  0
   -1.9070    0.3606   -1.8563 H   0  0  0  0  0  0  0  0  0  0  0  0
   -0.6588    2.1561   -0.6792 H   0  0  0  0  0  0  0  0  0  0  0  0
    0.9917    1.7048    1.0276 H   0  0  0  0  0  0  0  0  0  0  0  0
   -0.2652    0.8216    1.9671 H   0  0  0  0  0  0  0  0  0  0  0  0
    2.5358   -1.4232   -0.0292 H   0  0  0  0  0  0  0  0  0  0  0  0
    2.7933   -0.0548    1.1062 H   0  0  0  0  0  0  0  0  0  0  0  0
    2.5665    0.2548   -0.6415 H   0  0  0  0  0  0  0  0  0  0  0  0
    0.8243   -1.7273    1.7824 H   0  0  0  0  0  0  0  0  0  0  0  0
    1.1032    1.2996   -1.8423 H   0  0  0  0  0  0  0  0  0  0  0  0
  1  2  1  0
  2  3  1  0
  3  4  1  0
  4  5  1  0
  5  6  1  0
  5  7  1  0
  5  8  1  0
  8  9  1  0
  8  2  1  0
  8  3  1  0
  1 10  1  0
  1 11  1  0
  1 12  1  0
  2 13  1  0
  3 14  1  0
  4 15  1  0
  4 16  1  0
  6 17  1  0
  6 18  1  0
  6 19  1  0
  7 20  1  0
  9 21  1  0
M  END
