
     RDKit          3D

 21 22  0  0  0  0  0  0  0  0999 V2000
   -1.2586   -1.8747   -0.4225 C   0  0  0  0  0  0  0  0  0  0  0  0
   -0.1664   -0.9637    0.1384 C   0  0  0  0  0  0  0  0  0  0  0  0
   -0.5580    0.4457    0.3252 C   0  0  0  0  0  0  0  0  0  0  0  0
   -1.8793    0.9778   -0.1705 C   0  0  0  0  0  0  0  0  0  0  0  0
   -1.9153    2.3437    0.1763 O   0  0  0  0  0  0  0  0  0  0  0  0
    0.4201    0.0355   -0.7756 C   0  0  0  0  0  0  0  0  0  0  0  0
    1.7896    0.5954   -0.5993 C   0  0  0  0  0  0  0  0  0  0  0  0
    2.9739   -0.1472   -0.5954 C   0  0  0  0  0  0  0  0  0  0  0  0
    2.3573    0.2225    0.6740 O   0  0  0  0  0  0  0  0  0  0  0  0
   -2.1545   -1.6997    0.2332 H   0  0  0  0  0  0  0  0  0  0  0  0
   -1.5609   -1.5796   -1.4328 H   0  0  0  0  0  0  0  0  0  0  0  0
   -1.0033   -2.9382   -0.3238 H   0  0  0  0  0  0  0  0  0  0  0  0
    0.5013   -1.4357    0.8791 H   0  0  0  0  0  0  0  0  0  0  0  0
   -0.1497    0.9458    1.2298 H   0  0  0  0  0  0  0  0  0  0  0  0
   -1.9837    0.9307   -1.2621 H   0  0  0  0  0  0  0  0  0  0  0  0
   -2.6779    0.4177    0.3610 H   0  0  0  0  0  0  0  0  0  0  0  0
   -1.5402    2.8743   -0.5880 H   0  0  0  0  0  0  0  0  0  0  0  0
    0.0385    0.0659   -1.8256 H   0  0  0  0  0  0  0  0  0  0  0  0
    1.8236    1.7209   -0.6878 H   0  0  0  0  0  0  0  0  0  0  0  0
    2.9782   -1.2447   -0.7919 H   0  0  0  0  0  0  0  0  0  0  0  0
    3.9653    0.3076   -0.6561 H   0  0  0  0  0  0  0  0  0  0  0  0
  1  2  1  0
  2  3  1  0
  3  4  1  0
  4  5  1  0
  3  6  1  0
  6  7  1  0
  7  8  1  0
  8  9  1  0
  6  2  1  0
  9  7  1  0
  1 10  1  0
  1 11  1  0
  1 12  1  0
  2 13  1  0
  3 14  1  0
  4 15  1  0
  4 16  1  0
  5 17  1  0
  6 18  1  0
  7 19  1  0
  8 20  1  0
  8 21  1  0
M  END
