
     RDKit          3D

 23 24  0  0  0  0  0  0  0  0999 V2000
   -2.5643   -0.0013   -0.6832 C   0  0  0  0  0  0  0  0  0  0  0  0
   -1.5036    0.5641    0.2114 C   0  0  0  0  0  0  0  0  0  0  0  0
   -1.6638    0.3187    1.6773 C   0  0  0  0  0  0  0  0  0  0  0  0
   -0.2788    0.0264    1.7179 O   0  0  0  0  0  0  0  0  0  0  0  0
   -0.4098   -0.4546    0.4381 C   0  0  0  0  0  0  0  0  0  0  0  0
    0.7551   -0.3218   -0.4778 C   0  0  0  0  0  0  0  0  0  0  0  0
    1.4922    1.0073   -0.4151 C   0  0  0  0  0  0  0  0  0  0  0  0
    2.7622    0.1915   -0.6883 C   0  0  0  0  0  0  0  0  0  0  0  0
    2.0341   -0.9794   -0.0201 C   0  0  0  0  0  0  0  0  0  0  0  0
   -3.5820    0.3707   -0.4562 H   0  0  0  0  0  0  0  0  0  0  0  0
   -2.5333   -1.1043   -0.6708 H   0  0  0  0  0  0  0  0  0  0  0  0
   -2.3182    0.3089   -1.7241 H   0  0  0  0  0  0  0  0  0  0  0  0
   -1.1751    1.5885    0.0168 H   0  0  0  0  0  0  0  0  0  0  0  0
   -2.2192   -0.6214    1.9223 H   0  0  0  0  0  0  0  0  0  0  0  0
   -1.9537    1.1934    2.2906 H   0  0  0  0  0  0  0  0  0  0  0  0
   -0.8133   -1.4729    0.4246 H   0  0  0  0  0  0  0  0  0  0  0  0
    0.4804   -0.5437   -1.5151 H   0  0  0  0  0  0  0  0  0  0  0  0
    1.2303    1.6698   -1.2668 H   0  0  0  0  0  0  0  0  0  0  0  0
    1.4481    1.4473    0.5845 H   0  0  0  0  0  0  0  0  0  0  0  0
    3.6550    0.5371   -0.1794 H   0  0  0  0  0  0  0  0  0  0  0  0
    2.8283   -0.0170   -1.7701 H   0  0  0  0  0  0  0  0  0  0  0  0
    2.1877   -1.9492   -0.4985 H   0  0  0  0  0  0  0  0  0  0  0  0
    2.1418   -1.0005    1.0820 H   0  0  0  0  0  0  0  0  0  0  0  0
  1  2  1  0
  2  3  1  0
  3  4  1  0
  4  5  1  0
  5  6  1  0
  6  7  1  0
  7  8  1  0
  8  9  1  0
  5  2  1  0
  9  6  1  0
  1 10  1  0
  1 11  1  0
  1 12  1  0
  2 13  1  0
  3 14  1  0
  3 15  1  0
  5 16  1  0
  6 17  1  0
  7 18  1  0
  7 19  1  0
  8 20  1  0
  8 21  1  0
  9 22  1  0
  9 23  1  0
M  END
