
     RDKit          3D

 25 26  0  0  0  0  0  0  0  0999 V2000
   -3.4589    1.0555    0.4668 C   0  0  0  0  0  0  0  0  0  0  0  0
   -2.3239    0.7087   -0.4615 C   0  0  0  0  0  0  0  0  0  0  0  0
   -2.1137   -0.7969   -0.6086 C   0  0  0  0  0  0  0  0  0  0  0  0
   -1.0899    0.1012    0.0553 C   0  0  0  0  0  0  0  0  0  0  0  0
    0.2071    0.2362   -0.6803 C   0  0  0  0  0  0  0  0  0  0  0  0
    1.3488   -0.4624    0.0218 C   0  0  0  0  0  0  0  0  0  0  0  0
    2.6540   -0.3181   -0.7326 C   0  0  0  0  0  0  0  0  0  0  0  0
    3.3372   -0.1665    0.6327 C   0  0  0  0  0  0  0  0  0  0  0  0
    1.9877    0.3599    1.1396 C   0  0  0  0  0  0  0  0  0  0  0  0
   -3.5026    0.2929    1.2557 H   0  0  0  0  0  0  0  0  0  0  0  0
   -4.3988    0.9942   -0.1312 H   0  0  0  0  0  0  0  0  0  0  0  0
   -3.4026    2.0917    0.8466 H   0  0  0  0  0  0  0  0  0  0  0  0
   -2.2497    1.3194   -1.3712 H   0  0  0  0  0  0  0  0  0  0  0  0
   -2.6569   -1.4767    0.0479 H   0  0  0  0  0  0  0  0  0  0  0  0
   -1.9293   -1.1366   -1.6464 H   0  0  0  0  0  0  0  0  0  0  0  0
   -1.0078    0.0466    1.1624 H   0  0  0  0  0  0  0  0  0  0  0  0
    0.0990   -0.2301   -1.6774 H   0  0  0  0  0  0  0  0  0  0  0  0
    0.4526    1.3097   -0.8858 H   0  0  0  0  0  0  0  0  0  0  0  0
    1.1053   -1.4759    0.3352 H   0  0  0  0  0  0  0  0  0  0  0  0
    2.6873    0.6366   -1.3256 H   0  0  0  0  0  0  0  0  0  0  0  0
    2.9126   -1.2252   -1.2783 H   0  0  0  0  0  0  0  0  0  0  0  0
    4.1516    0.5545    0.6619 H   0  0  0  0  0  0  0  0  0  0  0  0
    3.5374   -1.1773    1.0378 H   0  0  0  0  0  0  0  0  0  0  0  0
    1.9264    1.4609    0.9785 H   0  0  0  0  0  0  0  0  0  0  0  0
    1.7270    0.0360    2.1563 H   0  0  0  0  0  0  0  0  0  0  0  0
  1  2  1  0
  2  3  1  0
  3  4  1  0
  4  5  1  0
  5  6  1  0
  6  7  1  0
  7  8  1  0
  8  9  1  0
  4  2  1  0
  9  6  1  0
  1 10  1  0
  1 11  1  0
  1 12  1  0
  2 13  1  0
  3 14  1  0
  3 15  1  0
  4 16  1  0
  5 17  1  0
  5 18  1  0
  6 19  1  0
  7 20  1  0
  7 21  1  0
  8 22  1  0
  8 23  1  0
  9 24  1  0
  9 25  1  0
M  END
