
     RDKit          3D

 21 22  0  0  0  0  0  0  0  0999 V2000
   -2.7824    0.7619    0.3296 C   0  0  0  0  0  0  0  0  0  0  0  0
   -1.6876   -0.1949   -0.0030 C   0  0  0  0  0  0  0  0  0  0  0  0
   -0.3618    0.5193   -0.2994 C   0  0  0  0  0  0  0  0  0  0  0  0
    0.6366   -0.4626    0.1656 C   0  0  0  0  0  0  0  0  0  0  0  0
   -0.1957   -1.6450    0.5892 C   0  0  0  0  0  0  0  0  0  0  0  0
   -1.3666   -1.0426    1.0820 O   0  0  0  0  0  0  0  0  0  0  0  0
    1.6403   -0.8906   -0.8419 O   0  0  0  0  0  0  0  0  0  0  0  0
    1.9608   -0.3325    0.4995 C   0  0  0  0  0  0  0  0  0  0  0  0
    2.7759    0.9227    0.3183 C   0  0  0  0  0  0  0  0  0  0  0  0
   -2.4138    1.7745    0.5762 H   0  0  0  0  0  0  0  0  0  0  0  0
   -3.5238    0.8974   -0.4987 H   0  0  0  0  0  0  0  0  0  0  0  0
   -3.3906    0.3364    1.1770 H   0  0  0  0  0  0  0  0  0  0  0  0
   -1.9868   -0.8292   -0.8621 H   0  0  0  0  0  0  0  0  0  0  0  0
   -0.3482    0.6286   -1.4191 H   0  0  0  0  0  0  0  0  0  0  0  0
   -0.3611    1.4856    0.1988 H   0  0  0  0  0  0  0  0  0  0  0  0
    0.2984   -2.2827    1.3263 H   0  0  0  0  0  0  0  0  0  0  0  0
   -0.4892   -2.1763   -0.3436 H   0  0  0  0  0  0  0  0  0  0  0  0
    2.4969   -1.1262    1.0609 H   0  0  0  0  0  0  0  0  0  0  0  0
    2.1772    1.8304    0.1998 H   0  0  0  0  0  0  0  0  0  0  0  0
    3.5192    0.7687   -0.5053 H   0  0  0  0  0  0  0  0  0  0  0  0
    3.4022    1.0572    1.2435 H   0  0  0  0  0  0  0  0  0  0  0  0
  1  2  1  0
  2  3  1  0
  3  4  1  0
  4  5  1  0
  5  6  1  0
  4  7  1  0
  7  8  1  0
  8  9  1  0
  6  2  1  0
  8  4  1  0
  1 10  1  0
  1 11  1  0
  1 12  1  0
  2 13  1  0
  3 14  1  0
  3 15  1  0
  5 16  1  0
  5 17  1  0
  8 18  1  0
  9 19  1  0
  9 20  1  0
  9 21  1  0
M  END
