
     RDKit          3D

 21 22  0  0  0  0  0  0  0  0999 V2000
   -2.1886   -0.3554    0.2000 C   0  0  0  0  0  0  0  0  0  0  0  0
   -0.9450    0.4996    0.2128 C   0  0  0  0  0  0  0  0  0  0  0  0
   -0.8012    1.0886   -1.2001 C   0  0  0  0  0  0  0  0  0  0  0  0
    0.6516    1.2123   -1.3501 C   0  0  0  0  0  0  0  0  0  0  0  0
    1.3044    0.4019   -0.5583 C   0  0  0  0  0  0  0  0  0  0  0  0
    2.2705   -0.3932    0.2125 C   0  0  0  0  0  0  0  0  0  0  0  0
    1.2463   -0.2328    1.3575 C   0  0  0  0  0  0  0  0  0  0  0  0
    0.2657   -0.3810    0.2329 C   0  0  0  0  0  0  0  0  0  0  0  0
    0.1153   -1.6837   -0.1631 O   0  0  0  0  0  0  0  0  0  0  0  0
   -2.7511   -0.2769   -0.7564 H   0  0  0  0  0  0  0  0  0  0  0  0
   -1.9212   -1.4375    0.3118 H   0  0  0  0  0  0  0  0  0  0  0  0
   -2.8870   -0.1273    1.0204 H   0  0  0  0  0  0  0  0  0  0  0  0
   -0.9784    1.2658    0.9805 H   0  0  0  0  0  0  0  0  0  0  0  0
   -1.1652    0.3295   -1.9213 H   0  0  0  0  0  0  0  0  0  0  0  0
   -1.3391    2.0528   -1.2727 H   0  0  0  0  0  0  0  0  0  0  0  0
    1.0705    1.9424   -2.0821 H   0  0  0  0  0  0  0  0  0  0  0  0
    2.2373   -1.4587   -0.1244 H   0  0  0  0  0  0  0  0  0  0  0  0
    3.2456    0.0232    0.4189 H   0  0  0  0  0  0  0  0  0  0  0  0
    1.3036   -1.0272    2.0930 H   0  0  0  0  0  0  0  0  0  0  0  0
    1.2968    0.8112    1.7319 H   0  0  0  0  0  0  0  0  0  0  0  0
   -0.0305   -2.2536    0.6566 H   0  0  0  0  0  0  0  0  0  0  0  0
  1  2  1  0
  2  3  1  0
  3  4  1  0
  4  5  2  0
  5  6  1  0
  6  7  1  0
  7  8  1  0
  8  9  1  0
  8  2  1  0
  8  5  1  0
  1 10  1  0
  1 11  1  0
  1 12  1  0
  2 13  1  0
  3 14  1  0
  3 15  1  0
  4 16  1  0
  6 17  1  0
  6 18  1  0
  7 19  1  0
  7 20  1  0
  9 21  1  0
M  END
