
     RDKit          3D

 19 19  0  0  0  0  0  0  0  0999 V2000
    1.9846   -0.2577   -0.2943 C   0  0  0  0  0  0  0  0  0  0  0  0
    0.6233   -0.0540    0.3011 C   0  0  0  0  0  0  0  0  0  0  0  0
   -0.0486   -1.3743    0.4762 C   0  0  0  0  0  0  0  0  0  0  0  0
   -1.5024   -1.1807    0.1459 C   0  0  0  0  0  0  0  0  0  0  0  0
   -1.6223    0.2687   -0.2288 C   0  0  0  0  0  0  0  0  0  0  0  0
   -2.6707    0.8745   -0.2700 O   0  0  0  0  0  0  0  0  0  0  0  0
   -0.2732    0.8194   -0.5325 C   0  0  0  0  0  0  0  0  0  0  0  0
   -0.2379    2.2360   -0.0452 C   0  0  0  0  0  0  0  0  0  0  0  0
   -0.3876    2.4048    1.1530 O   0  0  0  0  0  0  0  0  0  0  0  0
    2.1060    0.2256   -1.2771 H   0  0  0  0  0  0  0  0  0  0  0  0
    2.7363    0.1568    0.4130 H   0  0  0  0  0  0  0  0  0  0  0  0
    2.2365   -1.3498   -0.4014 H   0  0  0  0  0  0  0  0  0  0  0  0
    0.6815    0.4258    1.3136 H   0  0  0  0  0  0  0  0  0  0  0  0
    0.3791   -2.1304   -0.2216 H   0  0  0  0  0  0  0  0  0  0  0  0
    0.1071   -1.7641    1.4908 H   0  0  0  0  0  0  0  0  0  0  0  0
   -2.1240   -1.3817    1.0449 H   0  0  0  0  0  0  0  0  0  0  0  0
   -1.8281   -1.7533   -0.7444 H   0  0  0  0  0  0  0  0  0  0  0  0
   -0.0712    0.7597   -1.6145 H   0  0  0  0  0  0  0  0  0  0  0  0
   -0.0885    3.0747   -0.7086 H   0  0  0  0  0  0  0  0  0  0  0  0
  1  2  1  0
  2  3  1  0
  3  4  1  0
  4  5  1  0
  5  6  2  0
  5  7  1  0
  7  8  1  0
  8  9  2  0
  7  2  1  0
  1 10  1  0
  1 11  1  0
  1 12  1  0
  2 13  1  0
  3 14  1  0
  3 15  1  0
  4 16  1  0
  4 17  1  0
  7 18  1  0
  8 19  1  0
M  END
