
     RDKit          3D

 17 18  0  0  0  0  0  0  0  0999 V2000
   -2.3240    0.4518   -0.2733 C   0  0  0  0  0  0  0  0  0  0  0  0
   -1.0731   -0.3541   -0.1293 C   0  0  0  0  0  0  0  0  0  0  0  0
   -0.7009   -0.7552    1.2397 C   0  0  0  0  0  0  0  0  0  0  0  0
   -1.3237   -1.2602    2.1478 O   0  0  0  0  0  0  0  0  0  0  0  0
    0.6869   -0.3122    1.0726 C   0  0  0  0  0  0  0  0  0  0  0  0
    1.4335   -0.4889   -0.1868 C   0  0  0  0  0  0  0  0  0  0  0  0
    2.7194    0.2330   -0.3083 C   0  0  0  0  0  0  0  0  0  0  0  0
    3.5829   -0.1911   -1.0446 O   0  0  0  0  0  0  0  0  0  0  0  0
    0.2241    0.3927   -0.2279 C   0  0  0  0  0  0  0  0  0  0  0  0
   -2.5005    0.6009   -1.3631 H   0  0  0  0  0  0  0  0  0  0  0  0
   -2.1474    1.4439    0.1974 H   0  0  0  0  0  0  0  0  0  0  0  0
   -3.1805   -0.0900    0.1338 H   0  0  0  0  0  0  0  0  0  0  0  0
   -1.0701   -1.1994   -0.8605 H   0  0  0  0  0  0  0  0  0  0  0  0
    1.1479    0.2964    1.8494 H   0  0  0  0  0  0  0  0  0  0  0  0
    1.3434   -1.4001   -0.7983 H   0  0  0  0  0  0  0  0  0  0  0  0
    2.9001    1.1576    0.2677 H   0  0  0  0  0  0  0  0  0  0  0  0
    0.2821    1.4747   -0.1617 H   0  0  0  0  0  0  0  0  0  0  0  0
  1  2  1  0
  2  3  1  0
  3  4  2  0
  3  5  1  0
  5  6  1  0
  6  7  1  0
  7  8  2  0
  6  9  1  0
  9  2  1  0
  9  5  1  0
  1 10  1  0
  1 11  1  0
  1 12  1  0
  2 13  1  0
  5 14  1  0
  6 15  1  0
  7 16  1  0
  9 17  1  0
M  END
