
     RDKit          3D

 23 24  0  0  0  0  0  0  0  0999 V2000
    1.1774    1.3048    0.5495 C   0  0  0  0  0  0  0  0  0  0  0  0
    0.2860    0.1220    0.9436 C   0  0  0  0  0  0  0  0  0  0  0  0
    1.0417   -1.1330    0.5989 C   0  0  0  0  0  0  0  0  0  0  0  0
    2.3990   -0.8583    0.6784 O   0  0  0  0  0  0  0  0  0  0  0  0
    0.6634   -1.5250   -0.7972 C   0  0  0  0  0  0  0  0  0  0  0  0
   -0.3235   -0.4978   -1.3034 C   0  0  0  0  0  0  0  0  0  0  0  0
   -0.8398    0.1117   -0.0447 C   0  0  0  0  0  0  0  0  0  0  0  0
   -1.6390    1.3963   -0.0856 C   0  0  0  0  0  0  0  0  0  0  0  0
   -2.2497    0.1119    0.3348 C   0  0  0  0  0  0  0  0  0  0  0  0
    2.0204    1.3318    1.2377 H   0  0  0  0  0  0  0  0  0  0  0  0
    1.4671    1.0988   -0.5141 H   0  0  0  0  0  0  0  0  0  0  0  0
    0.6109    2.2396    0.6617 H   0  0  0  0  0  0  0  0  0  0  0  0
   -0.0348    0.1830    1.9876 H   0  0  0  0  0  0  0  0  0  0  0  0
    0.8043   -1.9102    1.3456 H   0  0  0  0  0  0  0  0  0  0  0  0
    2.7597   -0.6430   -0.2249 H   0  0  0  0  0  0  0  0  0  0  0  0
    1.5066   -1.5442   -1.5026 H   0  0  0  0  0  0  0  0  0  0  0  0
    0.1288   -2.4914   -0.7408 H   0  0  0  0  0  0  0  0  0  0  0  0
   -1.2031   -0.9921   -1.8106 H   0  0  0  0  0  0  0  0  0  0  0  0
    0.1486    0.2147   -2.0019 H   0  0  0  0  0  0  0  0  0  0  0  0
   -1.7619    1.8123   -1.0818 H   0  0  0  0  0  0  0  0  0  0  0  0
   -1.5092    2.1368    0.7467 H   0  0  0  0  0  0  0  0  0  0  0  0
   -2.9617   -0.4043   -0.3661 H   0  0  0  0  0  0  0  0  0  0  0  0
   -2.4913   -0.0644    1.3892 H   0  0  0  0  0  0  0  0  0  0  0  0
  1  2  1  0
  2  3  1  0
  3  4  1  0
  3  5  1  0
  5  6  1  0
  6  7  1  0
  7  8  1  0
  8  9  1  0
  7  2  1  0
  9  7  1  0
  1 10  1  0
  1 11  1  0
  1 12  1  0
  2 13  1  0
  3 14  1  0
  4 15  1  0
  5 16  1  0
  5 17  1  0
  6 18  1  0
  6 19  1  0
  8 20  1  0
  8 21  1  0
  9 22  1  0
  9 23  1  0
M  END
