
     RDKit          3D

 23 23  0  0  0  0  0  0  0  0999 V2000
   -2.7178   -0.1282   -0.2599 C   0  0  0  0  0  0  0  0  0  0  0  0
   -1.3947    0.4932    0.0695 C   0  0  0  0  0  0  0  0  0  0  0  0
   -0.4656    0.3727   -1.1504 C   0  0  0  0  0  0  0  0  0  0  0  0
    0.6368    0.1025   -0.1721 C   0  0  0  0  0  0  0  0  0  0  0  0
    1.3612    1.3411    0.2845 C   0  0  0  0  0  0  0  0  0  0  0  0
    1.5989   -0.9862   -0.5279 C   0  0  0  0  0  0  0  0  0  0  0  0
    2.5372   -1.0631    0.5220 O   0  0  0  0  0  0  0  0  0  0  0  0
   -0.4139   -0.4060    0.7900 C   0  0  0  0  0  0  0  0  0  0  0  0
   -0.1633   -0.1132    2.1014 O   0  0  0  0  0  0  0  0  0  0  0  0
   -3.1971   -0.6420    0.5754 H   0  0  0  0  0  0  0  0  0  0  0  0
   -2.6489   -0.8409   -1.1192 H   0  0  0  0  0  0  0  0  0  0  0  0
   -3.3986    0.7170   -0.5673 H   0  0  0  0  0  0  0  0  0  0  0  0
   -1.4173    1.5257    0.4492 H   0  0  0  0  0  0  0  0  0  0  0  0
   -0.4376    1.3169   -1.6921 H   0  0  0  0  0  0  0  0  0  0  0  0
   -0.7056   -0.5248   -1.7640 H   0  0  0  0  0  0  0  0  0  0  0  0
    0.6952    2.1504    0.5939 H   0  0  0  0  0  0  0  0  0  0  0  0
    2.0417    1.0948    1.1251 H   0  0  0  0  0  0  0  0  0  0  0  0
    2.0324    1.6434   -0.5611 H   0  0  0  0  0  0  0  0  0  0  0  0
    2.1346   -0.8194   -1.4845 H   0  0  0  0  0  0  0  0  0  0  0  0
    1.0909   -1.9943   -0.5206 H   0  0  0  0  0  0  0  0  0  0  0  0
    3.4452   -0.7904    0.1810 H   0  0  0  0  0  0  0  0  0  0  0  0
   -0.6630   -1.4714    0.5513 H   0  0  0  0  0  0  0  0  0  0  0  0
    0.0495   -0.9778    2.5758 H   0  0  0  0  0  0  0  0  0  0  0  0
  1  2  1  0
  2  3  1  0
  3  4  1  0
  4  5  1  0
  4  6  1  0
  6  7  1  0
  4  8  1  0
  8  9  1  0
  8  2  1  0
  1 10  1  0
  1 11  1  0
  1 12  1  0
  2 13  1  0
  3 14  1  0
  3 15  1  0
  5 16  1  0
  5 17  1  0
  5 18  1  0
  6 19  1  0
  6 20  1  0
  7 21  1  0
  8 22  1  0
  9 23  1  0
M  END
