
     RDKit          3D

 19 20  0  0  0  0  0  0  0  0999 V2000
    0.7524    1.8995    0.1929 C   0  0  0  0  0  0  0  0  0  0  0  0
    0.2660    0.6006    0.7350 C   0  0  0  0  0  0  0  0  0  0  0  0
   -1.2304    0.3297    0.5168 C   0  0  0  0  0  0  0  0  0  0  0  0
   -1.6436    0.8712   -0.6947 O   0  0  0  0  0  0  0  0  0  0  0  0
   -0.8067   -1.1409    0.3702 C   0  0  0  0  0  0  0  0  0  0  0  0
   -1.5586   -1.8677   -0.5174 O   0  0  0  0  0  0  0  0  0  0  0  0
    0.5055   -0.6232   -0.0873 C   0  0  0  0  0  0  0  0  0  0  0  0
    1.6742   -1.2445   -0.4108 C   0  0  0  0  0  0  0  0  0  0  0  0
    0.8228   -0.5571   -1.4181 O   0  0  0  0  0  0  0  0  0  0  0  0
    1.2455    2.4498    1.0469 H   0  0  0  0  0  0  0  0  0  0  0  0
   -0.1115    2.5351   -0.0904 H   0  0  0  0  0  0  0  0  0  0  0  0
    1.4987    1.7949   -0.6247 H   0  0  0  0  0  0  0  0  0  0  0  0
    0.5036    0.4133    1.8178 H   0  0  0  0  0  0  0  0  0  0  0  0
   -1.8606    0.5320    1.3850 H   0  0  0  0  0  0  0  0  0  0  0  0
   -2.3280    0.3511   -1.1505 H   0  0  0  0  0  0  0  0  0  0  0  0
   -0.7995   -1.5927    1.3922 H   0  0  0  0  0  0  0  0  0  0  0  0
   -1.3518   -1.6914   -1.4556 H   0  0  0  0  0  0  0  0  0  0  0  0
    2.6629   -0.7453   -0.3387 H   0  0  0  0  0  0  0  0  0  0  0  0
    1.7594   -2.3145   -0.6687 H   0  0  0  0  0  0  0  0  0  0  0  0
  1  2  1  0
  2  3  1  0
  3  4  1  0
  3  5  1  0
  5  6  1  0
  5  7  1  0
  7  8  1  0
  8  9  1  0
  7  2  1  0
  9  7  1  0
  1 10  1  0
  1 11  1  0
  1 12  1  0
  2 13  1  0
  3 14  1  0
  4 15  1  0
  5 16  1  0
  6 17  1  0
  8 18  1  0
  8 19  1  0
M  END
