
     RDKit          3D

 23 23  0  0  0  0  0  0  0  0999 V2000
    2.2819    0.9402    0.6990 C   0  0  0  0  0  0  0  0  0  0  0  0
    1.8015   -0.2877   -0.0620 C   0  0  0  0  0  0  0  0  0  0  0  0
    1.0187    0.1692   -1.2508 C   0  0  0  0  0  0  0  0  0  0  0  0
   -0.3702   -0.4022   -0.9421 C   0  0  0  0  0  0  0  0  0  0  0  0
   -1.0400    0.5534   -0.0101 C   0  0  0  0  0  0  0  0  0  0  0  0
   -2.4327    0.0753    0.3599 C   0  0  0  0  0  0  0  0  0  0  0  0
   -2.9580    1.0437    1.2300 O   0  0  0  0  0  0  0  0  0  0  0  0
    0.0511   -1.6299   -0.1522 C   0  0  0  0  0  0  0  0  0  0  0  0
    0.9596   -1.0505    0.7365 O   0  0  0  0  0  0  0  0  0  0  0  0
    3.3788    0.9222    0.7944 H   0  0  0  0  0  0  0  0  0  0  0  0
    1.8613    0.9705    1.7325 H   0  0  0  0  0  0  0  0  0  0  0  0
    1.9547    1.8843    0.2150 H   0  0  0  0  0  0  0  0  0  0  0  0
    2.6529   -0.9466   -0.3501 H   0  0  0  0  0  0  0  0  0  0  0  0
    1.4480   -0.3231   -2.1603 H   0  0  0  0  0  0  0  0  0  0  0  0
    0.9784    1.2574   -1.3698 H   0  0  0  0  0  0  0  0  0  0  0  0
   -0.9298   -0.6418   -1.8458 H   0  0  0  0  0  0  0  0  0  0  0  0
   -1.1002    1.5703   -0.4135 H   0  0  0  0  0  0  0  0  0  0  0  0
   -0.4547    0.5781    0.9321 H   0  0  0  0  0  0  0  0  0  0  0  0
   -2.3861   -0.8984    0.8915 H   0  0  0  0  0  0  0  0  0  0  0  0
   -3.0926   -0.0126   -0.5252 H   0  0  0  0  0  0  0  0  0  0  0  0
   -3.4790    0.6376    1.9702 H   0  0  0  0  0  0  0  0  0  0  0  0
   -0.7753   -2.1204    0.3500 H   0  0  0  0  0  0  0  0  0  0  0  0
    0.6320   -2.2891   -0.8294 H   0  0  0  0  0  0  0  0  0  0  0  0
  1  2  1  0
  2  3  1  0
  3  4  1  0
  4  5  1  0
  5  6  1  0
  6  7  1  0
  4  8  1  0
  8  9  1  0
  9  2  1  0
  1 10  1  0
  1 11  1  0
  1 12  1  0
  2 13  1  0
  3 14  1  0
  3 15  1  0
  4 16  1  0
  5 17  1  0
  5 18  1  0
  6 19  1  0
  6 20  1  0
  7 21  1  0
  8 22  1  0
  8 23  1  0
M  END
