
     RDKit          3D

 20 22  0  0  0  0  0  0  0  0999 V2000
    2.1357   -0.3367   -0.1425 C   0  0  0  0  0  0  0  0  0  0  0  0
    0.8997    0.4850   -0.0217 C   0  0  0  0  0  0  0  0  0  0  0  0
   -0.1470    0.1627   -1.0517 C   0  0  0  0  0  0  0  0  0  0  0  0
   -0.6697   -1.1584   -0.5847 C   0  0  0  0  0  0  0  0  0  0  0  0
   -0.8982   -0.8343    0.9002 C   0  0  0  0  0  0  0  0  0  0  0  0
   -1.3383    0.5562    0.8801 C   0  0  0  0  0  0  0  0  0  0  0  0
   -1.2781    1.0732   -0.5547 C   0  0  0  0  0  0  0  0  0  0  0  0
    0.1100    0.1784    1.2312 C   0  0  0  0  0  0  0  0  0  0  0  0
    1.9983   -1.3983    0.0821 H   0  0  0  0  0  0  0  0  0  0  0  0
    2.5619   -0.1676   -1.1552 H   0  0  0  0  0  0  0  0  0  0  0  0
    2.8830    0.0565    0.5729 H   0  0  0  0  0  0  0  0  0  0  0  0
    1.1535    1.5568   -0.0297 H   0  0  0  0  0  0  0  0  0  0  0  0
    0.1091    0.2741   -2.0690 H   0  0  0  0  0  0  0  0  0  0  0  0
   -0.0003   -2.0010   -0.7228 H   0  0  0  0  0  0  0  0  0  0  0  0
   -1.6912   -1.3049   -1.0074 H   0  0  0  0  0  0  0  0  0  0  0  0
   -1.2596   -1.6076    1.5662 H   0  0  0  0  0  0  0  0  0  0  0  0
   -1.9424    1.0544    1.6210 H   0  0  0  0  0  0  0  0  0  0  0  0
   -2.1938    0.8778   -1.1153 H   0  0  0  0  0  0  0  0  0  0  0  0
   -0.8918    2.0941   -0.6120 H   0  0  0  0  0  0  0  0  0  0  0  0
    0.4594    0.4396    2.2131 H   0  0  0  0  0  0  0  0  0  0  0  0
  1  2  1  0
  2  3  1  0
  3  4  1  0
  4  5  1  0
  5  6  1  0
  6  7  1  0
  6  8  1  0
  8  2  1  0
  7  3  1  0
  8  5  1  0
  1  9  1  0
  1 10  1  0
  1 11  1  0
  2 12  1  0
  3 13  1  0
  4 14  1  0
  4 15  1  0
  5 16  1  0
  6 17  1  0
  7 18  1  0
  7 19  1  0
  8 20  1  0
M  END
