
     RDKit          3D

 19 20  0  0  0  0  0  0  0  0999 V2000
   -2.4464   -0.0093    0.7175 C   0  0  0  0  0  0  0  0  0  0  0  0
   -1.2046    0.1282   -0.1100 C   0  0  0  0  0  0  0  0  0  0  0  0
   -0.5646   -1.2455   -0.3533 C   0  0  0  0  0  0  0  0  0  0  0  0
    0.3748   -1.0529   -1.3404 O   0  0  0  0  0  0  0  0  0  0  0  0
    1.2687   -0.0435   -1.1028 C   0  0  0  0  0  0  0  0  0  0  0  0
    1.9834   -0.0172    0.1773 C   0  0  0  0  0  0  0  0  0  0  0  0
    3.2385    0.5437    0.3320 O   0  0  0  0  0  0  0  0  0  0  0  0
    0.9013    0.9978   -0.1758 C   0  0  0  0  0  0  0  0  0  0  0  0
   -0.2459    0.8794    0.5431 O   0  0  0  0  0  0  0  0  0  0  0  0
   -2.2682   -0.6073    1.6440 H   0  0  0  0  0  0  0  0  0  0  0  0
   -3.2938   -0.3932    0.1218 H   0  0  0  0  0  0  0  0  0  0  0  0
   -2.7449    1.0276    1.0273 H   0  0  0  0  0  0  0  0  0  0  0  0
   -1.4896    0.6051   -1.0723 H   0  0  0  0  0  0  0  0  0  0  0  0
   -1.2997   -1.9795   -0.6626 H   0  0  0  0  0  0  0  0  0  0  0  0
   -0.1388   -1.5616    0.6138 H   0  0  0  0  0  0  0  0  0  0  0  0
    1.8095    0.2788   -2.0421 H   0  0  0  0  0  0  0  0  0  0  0  0
    1.7473   -0.7763    0.9604 H   0  0  0  0  0  0  0  0  0  0  0  0
    3.1604    1.1790    1.1126 H   0  0  0  0  0  0  0  0  0  0  0  0
    1.2126    2.0466   -0.3905 H   0  0  0  0  0  0  0  0  0  0  0  0
  1  2  1  0
  2  3  1  0
  3  4  1  0
  4  5  1  0
  5  6  1  0
  6  7  1  0
  6  8  1  0
  8  9  1  0
  9  2  1  0
  8  5  1  0
  1 10  1  0
  1 11  1  0
  1 12  1  0
  2 13  1  0
  3 14  1  0
  3 15  1  0
  5 16  1  0
  6 17  1  0
  7 18  1  0
  8 19  1  0
M  END
