
     RDKit          3D

 17 18  0  0  0  0  0  0  0  0999 V2000
   -1.1364    1.5189    0.4281 C   0  0  0  0  0  0  0  0  0  0  0  0
   -0.6052    0.1455    0.6648 C   0  0  0  0  0  0  0  0  0  0  0  0
    0.5457   -0.2661   -0.2771 C   0  0  0  0  0  0  0  0  0  0  0  0
    1.9051   -0.0250    0.2467 C   0  0  0  0  0  0  0  0  0  0  0  0
    0.0230   -1.6347    0.1053 C   0  0  0  0  0  0  0  0  0  0  0  0
   -1.1273   -2.1944   -0.2206 O   0  0  0  0  0  0  0  0  0  0  0  0
   -1.3205   -0.8889   -0.1792 C   0  0  0  0  0  0  0  0  0  0  0  0
   -2.2428    1.4833    0.6308 H   0  0  0  0  0  0  0  0  0  0  0  0
   -1.0461    1.8503   -0.6234 H   0  0  0  0  0  0  0  0  0  0  0  0
   -0.6581    2.2774    1.0775 H   0  0  0  0  0  0  0  0  0  0  0  0
   -0.4414   -0.0978    1.7074 H   0  0  0  0  0  0  0  0  0  0  0  0
    0.3057    0.0632   -1.2896 H   0  0  0  0  0  0  0  0  0  0  0  0
    2.3238   -0.9510    0.7319 H   0  0  0  0  0  0  0  0  0  0  0  0
    2.0341    0.8142    0.9200 H   0  0  0  0  0  0  0  0  0  0  0  0
    2.5901    0.1483   -0.6322 H   0  0  0  0  0  0  0  0  0  0  0  0
    0.2500   -1.7820    1.2102 H   0  0  0  0  0  0  0  0  0  0  0  0
   -1.3999   -0.4612   -1.2308 H   0  0  0  0  0  0  0  0  0  0  0  0
  1  2  1  0
  2  3  1  0
  3  4  1  0
  3  5  1  0
  5  6  1  0
  6  7  1  0
  7  2  1  0
  7  5  1  0
  1  8  1  0
  1  9  1  0
  1 10  1  0
  2 11  1  0
  3 12  1  0
  4 13  1  0
  4 14  1  0
  4 15  1  0
  5 16  1  0
  7 17  1  0
M  END
