
     RDKit          3D

 19 21  0  0  0  0  0  0  0  0999 V2000
    2.2365    0.5709    1.0009 C   0  0  0  0  0  0  0  0  0  0  0  0
    1.4729   -0.3870    0.0710 C   0  0  0  0  0  0  0  0  0  0  0  0
    0.8374    0.0467   -1.1713 C   0  0  0  0  0  0  0  0  0  0  0  0
   -0.6119   -0.1389   -1.6149 C   0  0  0  0  0  0  0  0  0  0  0  0
   -1.3247    0.9994   -1.5982 O   0  0  0  0  0  0  0  0  0  0  0  0
   -0.9484    0.6128   -0.3204 C   0  0  0  0  0  0  0  0  0  0  0  0
   -2.3062    0.3494    0.3724 C   0  0  0  0  0  0  0  0  0  0  0  0
    0.0710   -0.3246    0.1343 C   0  0  0  0  0  0  0  0  0  0  0  0
   -0.4639   -1.6590    0.0863 O   0  0  0  0  0  0  0  0  0  0  0  0
    2.9457    1.1534    0.3458 H   0  0  0  0  0  0  0  0  0  0  0  0
    2.8459    0.0263    1.7196 H   0  0  0  0  0  0  0  0  0  0  0  0
    1.5386    1.2378    1.5462 H   0  0  0  0  0  0  0  0  0  0  0  0
    2.0966   -1.3164   -0.0797 H   0  0  0  0  0  0  0  0  0  0  0  0
    1.1908    1.0471   -1.3899 H   0  0  0  0  0  0  0  0  0  0  0  0
   -1.0432   -1.1385   -1.6601 H   0  0  0  0  0  0  0  0  0  0  0  0
   -2.9446    1.2558    0.3055 H   0  0  0  0  0  0  0  0  0  0  0  0
   -2.8394   -0.4403   -0.1976 H   0  0  0  0  0  0  0  0  0  0  0  0
   -2.1622   -0.0204    1.3949 H   0  0  0  0  0  0  0  0  0  0  0  0
   -0.5910   -1.8744    1.0552 H   0  0  0  0  0  0  0  0  0  0  0  0
  1  2  1  0
  2  3  1  0
  3  4  1  0
  4  5  1  0
  5  6  1  0
  6  7  1  0
  6  8  1  0
  8  9  1  0
  8  2  1  0
  8  3  1  0
  6  4  1  0
  1 10  1  0
  1 11  1  0
  1 12  1  0
  2 13  1  0
  3 14  1  0
  4 15  1  0
  7 16  1  0
  7 17  1  0
  7 18  1  0
  9 19  1  0
M  END
