
     RDKit          3D

 19 20  0  0  0  0  0  0  0  0999 V2000
    1.6132   -0.8745    0.8812 C   0  0  0  0  0  0  0  0  0  0  0  0
    1.0937   -0.1901   -0.3705 C   0  0  0  0  0  0  0  0  0  0  0  0
    1.0235    1.2662   -0.1461 C   0  0  0  0  0  0  0  0  0  0  0  0
   -0.2095    1.7287   -0.3013 C   0  0  0  0  0  0  0  0  0  0  0  0
   -1.1595    0.6603   -0.6533 C   0  0  0  0  0  0  0  0  0  0  0  0
   -1.3719   -0.4906    0.3428 C   0  0  0  0  0  0  0  0  0  0  0  0
   -1.0840   -0.0996    1.6529 O   0  0  0  0  0  0  0  0  0  0  0  0
   -0.3224   -0.5626   -0.6897 C   0  0  0  0  0  0  0  0  0  0  0  0
   -0.5219   -1.3947   -1.7763 O   0  0  0  0  0  0  0  0  0  0  0  0
    2.6919   -1.1315    0.7334 H   0  0  0  0  0  0  0  0  0  0  0  0
    1.0918   -1.8456    1.0334 H   0  0  0  0  0  0  0  0  0  0  0  0
    1.5081   -0.2398    1.7739 H   0  0  0  0  0  0  0  0  0  0  0  0
    1.7630   -0.4517   -1.2127 H   0  0  0  0  0  0  0  0  0  0  0  0
    1.8929    1.8906    0.1184 H   0  0  0  0  0  0  0  0  0  0  0  0
   -0.4732    2.7755   -0.1799 H   0  0  0  0  0  0  0  0  0  0  0  0
   -1.9795    0.8516   -1.3428 H   0  0  0  0  0  0  0  0  0  0  0  0
   -2.3054   -1.0518    0.2240 H   0  0  0  0  0  0  0  0  0  0  0  0
   -1.7615    0.6198    1.8637 H   0  0  0  0  0  0  0  0  0  0  0  0
   -1.4891   -1.4602   -1.9513 H   0  0  0  0  0  0  0  0  0  0  0  0
  1  2  1  0
  2  3  1  0
  3  4  2  0
  4  5  1  0
  5  6  1  0
  6  7  1  0
  6  8  1  0
  8  9  1  0
  8  2  1  0
  8  5  1  0
  1 10  1  0
  1 11  1  0
  1 12  1  0
  2 13  1  0
  3 14  1  0
  4 15  1  0
  5 16  1  0
  6 17  1  0
  7 18  1  0
  9 19  1  0
M  END
