
     RDKit          3D

 25 26  0  0  0  0  0  0  0  0999 V2000
    2.1783    0.7311   -0.3202 C   0  0  0  0  0  0  0  0  0  0  0  0
    0.9889   -0.1735   -0.2942 C   0  0  0  0  0  0  0  0  0  0  0  0
    1.0313   -1.1258    0.8829 C   0  0  0  0  0  0  0  0  0  0  0  0
   -0.3719   -1.7044    0.8491 C   0  0  0  0  0  0  0  0  0  0  0  0
   -1.2324   -0.5759    0.3661 C   0  0  0  0  0  0  0  0  0  0  0  0
   -1.7549   -0.6972   -1.0391 C   0  0  0  0  0  0  0  0  0  0  0  0
   -1.1063    0.6444   -1.3554 C   0  0  0  0  0  0  0  0  0  0  0  0
   -0.3164    0.5289   -0.0962 C   0  0  0  0  0  0  0  0  0  0  0  0
   -0.3160    1.7095    0.8224 C   0  0  0  0  0  0  0  0  0  0  0  0
    2.5653    0.9004    0.7085 H   0  0  0  0  0  0  0  0  0  0  0  0
    2.9916    0.1876   -0.8715 H   0  0  0  0  0  0  0  0  0  0  0  0
    1.9995    1.6943   -0.8195 H   0  0  0  0  0  0  0  0  0  0  0  0
    0.9723   -0.7476   -1.2454 H   0  0  0  0  0  0  0  0  0  0  0  0
    1.7844   -1.9110    0.6935 H   0  0  0  0  0  0  0  0  0  0  0  0
    1.2174   -0.5563    1.8026 H   0  0  0  0  0  0  0  0  0  0  0  0
   -0.4413   -2.5773    0.1846 H   0  0  0  0  0  0  0  0  0  0  0  0
   -0.6696   -1.9530    1.8971 H   0  0  0  0  0  0  0  0  0  0  0  0
   -2.0045   -0.2466    1.0792 H   0  0  0  0  0  0  0  0  0  0  0  0
   -1.3396   -1.5455   -1.6349 H   0  0  0  0  0  0  0  0  0  0  0  0
   -2.8502   -0.6851   -1.1449 H   0  0  0  0  0  0  0  0  0  0  0  0
   -1.8308    1.4569   -1.4356 H   0  0  0  0  0  0  0  0  0  0  0  0
   -0.4333    0.6252   -2.2474 H   0  0  0  0  0  0  0  0  0  0  0  0
    0.4368    1.5695    1.6051 H   0  0  0  0  0  0  0  0  0  0  0  0
   -0.1660    2.6792    0.3171 H   0  0  0  0  0  0  0  0  0  0  0  0
   -1.3328    1.7720    1.2961 H   0  0  0  0  0  0  0  0  0  0  0  0
  1  2  1  0
  2  3  1  0
  3  4  1  0
  4  5  1  0
  5  6  1  0
  6  7  1  0
  7  8  1  0
  8  9  1  0
  8  2  1  0
  8  5  1  0
  1 10  1  0
  1 11  1  0
  1 12  1  0
  2 13  1  0
  3 14  1  0
  3 15  1  0
  4 16  1  0
  4 17  1  0
  5 18  1  0
  6 19  1  0
  6 20  1  0
  7 21  1  0
  7 22  1  0
  9 23  1  0
  9 24  1  0
  9 25  1  0
M  END
