
     RDKit          3D

 21 22  0  0  0  0  0  0  0  0999 V2000
   -1.7737   -0.5709   -1.0622 C   0  0  0  0  0  0  0  0  0  0  0  0
   -1.1514   -0.0116    0.1972 C   0  0  0  0  0  0  0  0  0  0  0  0
    0.0532   -0.6547    0.7892 C   0  0  0  0  0  0  0  0  0  0  0  0
    0.1236   -0.8607    2.1638 O   0  0  0  0  0  0  0  0  0  0  0  0
    0.8987   -1.5450   -0.0192 C   0  0  0  0  0  0  0  0  0  0  0  0
    1.5110   -0.8810   -0.9698 C   0  0  0  0  0  0  0  0  0  0  0  0
    1.1392    0.5415   -0.9017 C   0  0  0  0  0  0  0  0  0  0  0  0
    0.1490    0.6599    0.1819 C   0  0  0  0  0  0  0  0  0  0  0  0
    0.2513    1.9359    0.9886 C   0  0  0  0  0  0  0  0  0  0  0  0
   -2.0764   -1.6106   -0.8378 H   0  0  0  0  0  0  0  0  0  0  0  0
   -2.6824    0.0355   -1.2847 H   0  0  0  0  0  0  0  0  0  0  0  0
   -1.0929   -0.5238   -1.9266 H   0  0  0  0  0  0  0  0  0  0  0  0
   -1.8996    0.3344    0.9351 H   0  0  0  0  0  0  0  0  0  0  0  0
   -0.2825   -1.7181    2.4462 H   0  0  0  0  0  0  0  0  0  0  0  0
    1.0273   -2.6421    0.1261 H   0  0  0  0  0  0  0  0  0  0  0  0
    2.2180   -1.3286   -1.7292 H   0  0  0  0  0  0  0  0  0  0  0  0
    2.0679    1.1191   -0.6783 H   0  0  0  0  0  0  0  0  0  0  0  0
    0.7232    0.9084   -1.8672 H   0  0  0  0  0  0  0  0  0  0  0  0
   -0.3523    1.8555    1.9152 H   0  0  0  0  0  0  0  0  0  0  0  0
   -0.1501    2.7484    0.3341 H   0  0  0  0  0  0  0  0  0  0  0  0
    1.2990    2.2084    1.1994 H   0  0  0  0  0  0  0  0  0  0  0  0
  1  2  1  0
  2  3  1  0
  3  4  1  0
  3  5  1  0
  5  6  2  0
  6  7  1  0
  7  8  1  0
  8  9  1  0
  8  2  1  0
  8  3  1  0
  1 10  1  0
  1 11  1  0
  1 12  1  0
  2 13  1  0
  4 14  1  0
  5 15  1  0
  6 16  1  0
  7 17  1  0
  7 18  1  0
  9 19  1  0
  9 20  1  0
  9 21  1  0
M  END
