
     RDKit          3D

 21 22  0  0  0  0  0  0  0  0999 V2000
   -2.8152    0.2056    0.1183 C   0  0  0  0  0  0  0  0  0  0  0  0
   -1.5118   -0.5512    0.3702 C   0  0  0  0  0  0  0  0  0  0  0  0
   -0.3782    0.1423    0.8318 C   0  0  0  0  0  0  0  0  0  0  0  0
    0.2398    1.4236    0.4789 C   0  0  0  0  0  0  0  0  0  0  0  0
    1.4305    1.2266   -0.1418 C   0  0  0  0  0  0  0  0  0  0  0  0
    1.8889   -0.1693   -0.3497 C   0  0  0  0  0  0  0  0  0  0  0  0
    2.5365   -0.6673    0.7980 O   0  0  0  0  0  0  0  0  0  0  0  0
    0.8116   -1.1454   -0.7643 C   0  0  0  0  0  0  0  0  0  0  0  0
   -0.4890   -0.4983   -0.6026 C   0  0  0  0  0  0  0  0  0  0  0  0
   -3.4215   -0.2857   -0.6708 H   0  0  0  0  0  0  0  0  0  0  0  0
   -2.6090    1.2690   -0.1175 H   0  0  0  0  0  0  0  0  0  0  0  0
   -3.3853    0.1548    1.0712 H   0  0  0  0  0  0  0  0  0  0  0  0
   -1.7530   -1.5512    0.8292 H   0  0  0  0  0  0  0  0  0  0  0  0
    0.2865   -0.4068    1.5651 H   0  0  0  0  0  0  0  0  0  0  0  0
   -0.1368    2.3991    0.6547 H   0  0  0  0  0  0  0  0  0  0  0  0
    2.0327    2.0909   -0.4784 H   0  0  0  0  0  0  0  0  0  0  0  0
    2.7084   -0.1667   -1.1284 H   0  0  0  0  0  0  0  0  0  0  0  0
    3.4191   -0.2226    0.9231 H   0  0  0  0  0  0  0  0  0  0  0  0
    0.9796   -1.4218   -1.8284 H   0  0  0  0  0  0  0  0  0  0  0  0
    0.8474   -2.0414   -0.1018 H   0  0  0  0  0  0  0  0  0  0  0  0
   -0.6813    0.2155   -1.4569 H   0  0  0  0  0  0  0  0  0  0  0  0
  1  2  1  0
  2  3  1  0
  3  4  1  0
  4  5  2  0
  5  6  1  0
  6  7  1  0
  6  8  1  0
  8  9  1  0
  9  2  1  0
  9  3  1  0
  1 10  1  0
  1 11  1  0
  1 12  1  0
  2 13  1  0
  3 14  1  0
  4 15  1  0
  5 16  1  0
  6 17  1  0
  7 18  1  0
  8 19  1  0
  8 20  1  0
  9 21  1  0
M  END
