
     RDKit          3D

 16 16  0  0  0  0  0  0  0  0999 V2000
    1.5322   -0.5100    0.7729 C   0  0  0  0  0  0  0  0  0  0  0  0
    0.7256   -0.1263   -0.4705 C   0  0  0  0  0  0  0  0  0  0  0  0
   -0.4155   -1.0544   -0.5461 C   0  0  0  0  0  0  0  0  0  0  0  0
   -1.6263   -0.7091   -0.1498 C   0  0  0  0  0  0  0  0  0  0  0  0
   -1.8258    0.6325    0.3758 C   0  0  0  0  0  0  0  0  0  0  0  0
   -2.9832    0.9398    0.7466 O   0  0  0  0  0  0  0  0  0  0  0  0
   -0.7550    1.5201    0.4525 O   0  0  0  0  0  0  0  0  0  0  0  0
    0.3324    1.3209   -0.4365 C   0  0  0  0  0  0  0  0  0  0  0  0
    1.8799   -1.5318    0.6495 H   0  0  0  0  0  0  0  0  0  0  0  0
    2.3544    0.1928    0.9478 H   0  0  0  0  0  0  0  0  0  0  0  0
    0.8515   -0.4702    1.6646 H   0  0  0  0  0  0  0  0  0  0  0  0
    1.4216   -0.2558   -1.3453 H   0  0  0  0  0  0  0  0  0  0  0  0
   -0.2596   -2.0432   -0.9355 H   0  0  0  0  0  0  0  0  0  0  0  0
   -2.4534   -1.4313   -0.2222 H   0  0  0  0  0  0  0  0  0  0  0  0
    1.1866    1.9033   -0.0433 H   0  0  0  0  0  0  0  0  0  0  0  0
    0.0347    1.6228   -1.4604 H   0  0  0  0  0  0  0  0  0  0  0  0
  1  2  1  0
  2  3  1  0
  3  4  2  0
  4  5  1  0
  5  6  2  0
  5  7  1  0
  7  8  1  0
  8  2  1  0
  1  9  1  0
  1 10  1  0
  1 11  1  0
  2 12  1  0
  3 13  1  0
  4 14  1  0
  8 15  1  0
  8 16  1  0
M  END
