
     RDKit          3D

 21 22  0  0  0  0  0  0  0  0999 V2000
    2.2069   -0.4595   -0.0966 C   0  0  0  0  0  0  0  0  0  0  0  0
    1.0139    0.2704    0.4151 C   0  0  0  0  0  0  0  0  0  0  0  0
    0.5412    1.2452   -0.6056 C   0  0  0  0  0  0  0  0  0  0  0  0
   -0.7061    1.3668   -0.9914 C   0  0  0  0  0  0  0  0  0  0  0  0
   -1.7607    0.5130   -0.3937 C   0  0  0  0  0  0  0  0  0  0  0  0
   -1.3218    0.3011    1.0657 C   0  0  0  0  0  0  0  0  0  0  0  0
   -0.1337   -0.6370    0.7998 C   0  0  0  0  0  0  0  0  0  0  0  0
   -0.6686   -1.4357   -0.3418 C   0  0  0  0  0  0  0  0  0  0  0  0
   -1.7254   -0.7745   -0.9154 O   0  0  0  0  0  0  0  0  0  0  0  0
    3.1399   -0.0231    0.3401 H   0  0  0  0  0  0  0  0  0  0  0  0
    2.1501   -1.5558    0.1146 H   0  0  0  0  0  0  0  0  0  0  0  0
    2.2907   -0.3313   -1.2130 H   0  0  0  0  0  0  0  0  0  0  0  0
    1.2675    0.8638    1.3225 H   0  0  0  0  0  0  0  0  0  0  0  0
    1.3203    1.8886   -1.0421 H   0  0  0  0  0  0  0  0  0  0  0  0
   -0.9827    2.0823   -1.7418 H   0  0  0  0  0  0  0  0  0  0  0  0
   -2.7668    0.9284   -0.4577 H   0  0  0  0  0  0  0  0  0  0  0  0
   -2.0821   -0.2056    1.6505 H   0  0  0  0  0  0  0  0  0  0  0  0
   -0.9832    1.2702    1.4413 H   0  0  0  0  0  0  0  0  0  0  0  0
    0.1061   -1.2262    1.6979 H   0  0  0  0  0  0  0  0  0  0  0  0
    0.1124   -1.6478   -1.0949 H   0  0  0  0  0  0  0  0  0  0  0  0
   -1.0178   -2.4332    0.0464 H   0  0  0  0  0  0  0  0  0  0  0  0
  1  2  1  0
  2  3  1  0
  3  4  2  0
  4  5  1  0
  5  6  1  0
  6  7  1  0
  7  8  1  0
  8  9  1  0
  7  2  1  0
  9  5  1  0
  1 10  1  0
  1 11  1  0
  1 12  1  0
  2 13  1  0
  3 14  1  0
  4 15  1  0
  5 16  1  0
  6 17  1  0
  6 18  1  0
  7 19  1  0
  8 20  1  0
  8 21  1  0
M  END
