
     RDKit          3D

 19 21  0  0  0  0  0  0  0  0999 V2000
   -2.4796   -0.7319   -0.3791 C   0  0  0  0  0  0  0  0  0  0  0  0
   -1.4240   -0.7995    0.7177 C   0  0  0  0  0  0  0  0  0  0  0  0
   -0.7833    0.4853    1.0176 C   0  0  0  0  0  0  0  0  0  0  0  0
   -0.4777    1.2723   -0.1193 O   0  0  0  0  0  0  0  0  0  0  0  0
    0.6001    0.4927   -0.3000 C   0  0  0  0  0  0  0  0  0  0  0  0
    1.9144    1.0996    0.2433 C   0  0  0  0  0  0  0  0  0  0  0  0
    1.7244    0.5987   -1.1451 C   0  0  0  0  0  0  0  0  0  0  0  0
    2.4627   -0.5714   -1.4329 O   0  0  0  0  0  0  0  0  0  0  0  0
    0.0176   -0.6846    0.3722 C   0  0  0  0  0  0  0  0  0  0  0  0
   -3.3607   -0.1740    0.0527 H   0  0  0  0  0  0  0  0  0  0  0  0
   -2.7980   -1.7088   -0.7319 H   0  0  0  0  0  0  0  0  0  0  0  0
   -2.1108   -0.0752   -1.1995 H   0  0  0  0  0  0  0  0  0  0  0  0
   -1.7120   -1.4484    1.5661 H   0  0  0  0  0  0  0  0  0  0  0  0
   -0.4062    0.7868    1.9910 H   0  0  0  0  0  0  0  0  0  0  0  0
    2.3426    0.4901    1.0390 H   0  0  0  0  0  0  0  0  0  0  0  0
    1.9295    2.2204    0.3223 H   0  0  0  0  0  0  0  0  0  0  0  0
    1.7662    1.3107   -1.9865 H   0  0  0  0  0  0  0  0  0  0  0  0
    2.0823   -1.3346   -0.9295 H   0  0  0  0  0  0  0  0  0  0  0  0
    0.7125   -1.2284    1.0576 H   0  0  0  0  0  0  0  0  0  0  0  0
  1  2  1  0
  2  3  1  0
  3  4  1  0
  4  5  1  0
  5  6  1  0
  6  7  1  0
  7  8  1  0
  5  9  1  0
  9  2  1  0
  9  3  1  0
  7  5  1  0
  1 10  1  0
  1 11  1  0
  1 12  1  0
  2 13  1  0
  3 14  1  0
  6 15  1  0
  6 16  1  0
  7 17  1  0
  8 18  1  0
  9 19  1  0
M  END
