
     RDKit          3D

 25 26  0  0  0  0  0  0  0  0999 V2000
    0.4985    2.0250    0.0068 C   0  0  0  0  0  0  0  0  0  0  0  0
    0.1822    0.7132    0.6480 C   0  0  0  0  0  0  0  0  0  0  0  0
   -0.9379   -0.0795    0.1147 C   0  0  0  0  0  0  0  0  0  0  0  0
   -1.6021    0.3767   -1.1430 C   0  0  0  0  0  0  0  0  0  0  0  0
   -1.9813   -0.5545    1.1135 C   0  0  0  0  0  0  0  0  0  0  0  0
   -0.0092   -1.2473   -0.2040 C   0  0  0  0  0  0  0  0  0  0  0  0
    0.9159   -1.7128    0.8660 C   0  0  0  0  0  0  0  0  0  0  0  0
    1.1490   -0.3903    0.2624 C   0  0  0  0  0  0  0  0  0  0  0  0
    2.2235   -0.1217   -0.7338 C   0  0  0  0  0  0  0  0  0  0  0  0
    1.2707    2.5254    0.6600 H   0  0  0  0  0  0  0  0  0  0  0  0
   -0.3751    2.6871   -0.0986 H   0  0  0  0  0  0  0  0  0  0  0  0
    0.9798    1.8319   -0.9640 H   0  0  0  0  0  0  0  0  0  0  0  0
    0.1228    0.8491    1.7631 H   0  0  0  0  0  0  0  0  0  0  0  0
   -2.3279    1.1797   -1.0259 H   0  0  0  0  0  0  0  0  0  0  0  0
   -0.8042    0.5830   -1.8926 H   0  0  0  0  0  0  0  0  0  0  0  0
   -2.1530   -0.5184   -1.5583 H   0  0  0  0  0  0  0  0  0  0  0  0
   -2.8417    0.1552    1.1797 H   0  0  0  0  0  0  0  0  0  0  0  0
   -2.3443   -1.5376    0.6951 H   0  0  0  0  0  0  0  0  0  0  0  0
   -1.5457   -0.7010    2.1237 H   0  0  0  0  0  0  0  0  0  0  0  0
    0.0512   -1.6271   -1.2280 H   0  0  0  0  0  0  0  0  0  0  0  0
    1.5708   -2.5545    0.5721 H   0  0  0  0  0  0  0  0  0  0  0  0
    0.4935   -1.6880    1.9058 H   0  0  0  0  0  0  0  0  0  0  0  0
    1.7936   -0.0466   -1.7647 H   0  0  0  0  0  0  0  0  0  0  0  0
    2.9164   -0.9824   -0.7424 H   0  0  0  0  0  0  0  0  0  0  0  0
    2.7545    0.8354   -0.5558 H   0  0  0  0  0  0  0  0  0  0  0  0
  1  2  1  0
  2  3  1  0
  3  4  1  0
  3  5  1  0
  3  6  1  0
  6  7  1  0
  7  8  1  0
  8  9  1  0
  8  2  1  0
  8  6  1  0
  1 10  1  0
  1 11  1  0
  1 12  1  0
  2 13  1  0
  4 14  1  0
  4 15  1  0
  4 16  1  0
  5 17  1  0
  5 18  1  0
  5 19  1  0
  6 20  1  0
  7 21  1  0
  7 22  1  0
  9 23  1  0
  9 24  1  0
  9 25  1  0
M  END
