
     RDKit          3D

 23 25  0  0  0  0  0  0  0  0999 V2000
    3.1443   -0.1066    0.2225 C   0  0  0  0  0  0  0  0  0  0  0  0
    1.6741   -0.0504   -0.1025 C   0  0  0  0  0  0  0  0  0  0  0  0
    0.7736    0.7334    0.8474 C   0  0  0  0  0  0  0  0  0  0  0  0
   -0.5275    1.2647    0.2862 C   0  0  0  0  0  0  0  0  0  0  0  0
   -1.3866    0.0976   -0.0567 C   0  0  0  0  0  0  0  0  0  0  0  0
   -2.8648    0.2877    0.2058 C   0  0  0  0  0  0  0  0  0  0  0  0
   -0.9930   -0.9194   -1.0484 C   0  0  0  0  0  0  0  0  0  0  0  0
   -0.6610   -1.0970    0.3698 C   0  0  0  0  0  0  0  0  0  0  0  0
    0.7333   -0.7221    0.7889 C   0  0  0  0  0  0  0  0  0  0  0  0
    3.3674   -0.6127    1.1759 H   0  0  0  0  0  0  0  0  0  0  0  0
    3.5306    0.9528    0.2064 H   0  0  0  0  0  0  0  0  0  0  0  0
    3.6307   -0.7113   -0.5750 H   0  0  0  0  0  0  0  0  0  0  0  0
    1.4672    0.1882   -1.1625 H   0  0  0  0  0  0  0  0  0  0  0  0
    1.3162    1.3249    1.5903 H   0  0  0  0  0  0  0  0  0  0  0  0
   -0.3741    1.9830   -0.5420 H   0  0  0  0  0  0  0  0  0  0  0  0
   -1.0222    1.8116    1.1417 H   0  0  0  0  0  0  0  0  0  0  0  0
   -3.3133    0.8540   -0.6627 H   0  0  0  0  0  0  0  0  0  0  0  0
   -3.0638    0.8546    1.1156 H   0  0  0  0  0  0  0  0  0  0  0  0
   -3.4195   -0.6835    0.2120 H   0  0  0  0  0  0  0  0  0  0  0  0
   -0.2316   -0.7225   -1.8307 H   0  0  0  0  0  0  0  0  0  0  0  0
   -1.8208   -1.5661   -1.4379 H   0  0  0  0  0  0  0  0  0  0  0  0
   -1.1414   -1.8805    0.9964 H   0  0  0  0  0  0  0  0  0  0  0  0
    1.1823   -1.2804    1.6498 H   0  0  0  0  0  0  0  0  0  0  0  0
  1  2  1  0
  2  3  1  0
  3  4  1  0
  4  5  1  0
  5  6  1  0
  5  7  1  0
  7  8  1  0
  8  9  1  0
  9  2  1  0
  9  3  1  0
  8  5  1  0
  1 10  1  0
  1 11  1  0
  1 12  1  0
  2 13  1  0
  3 14  1  0
  4 15  1  0
  4 16  1  0
  6 17  1  0
  6 18  1  0
  6 19  1  0
  7 20  1  0
  7 21  1  0
  8 22  1  0
  9 23  1  0
M  END
