
     RDKit          3D

 21 23  0  0  0  0  0  0  0  0999 V2000
    2.7742    0.0691   -0.1990 C   0  0  0  0  0  0  0  0  0  0  0  0
    1.3309   -0.4185   -0.0367 C   0  0  0  0  0  0  0  0  0  0  0  0
    0.4242    0.5977    0.6810 C   0  0  0  0  0  0  0  0  0  0  0  0
   -0.5990   -0.0393    1.5704 C   0  0  0  0  0  0  0  0  0  0  0  0
   -1.1334   -1.1927    1.0113 O   0  0  0  0  0  0  0  0  0  0  0  0
   -1.7994   -0.9481   -0.1633 C   0  0  0  0  0  0  0  0  0  0  0  0
   -2.2268    0.4103   -0.5745 C   0  0  0  0  0  0  0  0  0  0  0  0
   -1.0077   -0.2838   -1.1831 C   0  0  0  0  0  0  0  0  0  0  0  0
    0.2932    0.3122   -0.7524 C   0  0  0  0  0  0  0  0  0  0  0  0
    3.4008   -0.7080   -0.6298 H   0  0  0  0  0  0  0  0  0  0  0  0
    2.7863    0.9354   -0.9116 H   0  0  0  0  0  0  0  0  0  0  0  0
    3.1916    0.4096    0.7805 H   0  0  0  0  0  0  0  0  0  0  0  0
    1.2631   -1.4756    0.2674 H   0  0  0  0  0  0  0  0  0  0  0  0
    0.8995    1.5052    1.0873 H   0  0  0  0  0  0  0  0  0  0  0  0
   -0.0888   -0.3622    2.5162 H   0  0  0  0  0  0  0  0  0  0  0  0
   -1.4175    0.6194    1.8746 H   0  0  0  0  0  0  0  0  0  0  0  0
   -2.4828   -1.7807   -0.4880 H   0  0  0  0  0  0  0  0  0  0  0  0
   -3.1116    0.5051   -1.2392 H   0  0  0  0  0  0  0  0  0  0  0  0
   -2.0744    1.2927    0.0629 H   0  0  0  0  0  0  0  0  0  0  0  0
   -1.0633   -0.5908   -2.2398 H   0  0  0  0  0  0  0  0  0  0  0  0
    0.6410    1.1428   -1.4342 H   0  0  0  0  0  0  0  0  0  0  0  0
  1  2  1  0
  2  3  1  0
  3  4  1  0
  4  5  1  0
  5  6  1  0
  6  7  1  0
  7  8  1  0
  8  9  1  0
  9  2  1  0
  9  3  1  0
  8  6  1  0
  1 10  1  0
  1 11  1  0
  1 12  1  0
  2 13  1  0
  3 14  1  0
  4 15  1  0
  4 16  1  0
  6 17  1  0
  7 18  1  0
  7 19  1  0
  8 20  1  0
  9 21  1  0
M  END
