
     RDKit          3D

 19 20  0  0  0  0  0  0  0  0999 V2000
   -0.1412    2.2144    0.1265 C   0  0  0  0  0  0  0  0  0  0  0  0
   -0.3159    0.8161    0.6989 C   0  0  0  0  0  0  0  0  0  0  0  0
    1.0283    0.1520    1.0242 C   0  0  0  0  0  0  0  0  0  0  0  0
    0.8447   -0.6502   -0.2501 C   0  0  0  0  0  0  0  0  0  0  0  0
    1.4474   -1.9790   -0.3666 C   0  0  0  0  0  0  0  0  0  0  0  0
    1.7752   -2.6537    0.6208 O   0  0  0  0  0  0  0  0  0  0  0  0
    0.5290   -0.0119   -1.4221 O   0  0  0  0  0  0  0  0  0  0  0  0
   -0.4144   -0.1842   -0.4426 C   0  0  0  0  0  0  0  0  0  0  0  0
   -1.7068   -0.8798   -0.7054 C   0  0  0  0  0  0  0  0  0  0  0  0
    0.9116    2.5064    0.0362 H   0  0  0  0  0  0  0  0  0  0  0  0
   -0.5866    2.2894   -0.8938 H   0  0  0  0  0  0  0  0  0  0  0  0
   -0.7277    2.9248    0.7711 H   0  0  0  0  0  0  0  0  0  0  0  0
   -1.0755    0.7194    1.4774 H   0  0  0  0  0  0  0  0  0  0  0  0
    1.8762    0.8389    1.0172 H   0  0  0  0  0  0  0  0  0  0  0  0
    0.9070   -0.4527    1.9353 H   0  0  0  0  0  0  0  0  0  0  0  0
    1.6290   -2.4224   -1.3404 H   0  0  0  0  0  0  0  0  0  0  0  0
   -2.1640   -0.4449   -1.6127 H   0  0  0  0  0  0  0  0  0  0  0  0
   -1.4699   -1.9703   -0.8534 H   0  0  0  0  0  0  0  0  0  0  0  0
   -2.3464   -0.8124    0.1796 H   0  0  0  0  0  0  0  0  0  0  0  0
  1  2  1  0
  2  3  1  0
  3  4  1  0
  4  5  1  0
  5  6  2  0
  4  7  1  0
  7  8  1  0
  8  9  1  0
  8  2  1  0
  8  4  1  0
  1 10  1  0
  1 11  1  0
  1 12  1  0
  2 13  1  0
  3 14  1  0
  3 15  1  0
  5 16  1  0
  9 17  1  0
  9 18  1  0
  9 19  1  0
M  END
