
     RDKit          3D

 21 21  0  0  0  0  0  0  0  0999 V2000
    1.2425   -1.7096    0.0630 C   0  0  0  0  0  0  0  0  0  0  0  0
    0.7168   -0.3465    0.4150 C   0  0  0  0  0  0  0  0  0  0  0  0
    1.5124    0.7512   -0.1590 C   0  0  0  0  0  0  0  0  0  0  0  0
    2.6162    0.6610   -0.5948 O   0  0  0  0  0  0  0  0  0  0  0  0
    0.6642    1.9438   -0.0751 C   0  0  0  0  0  0  0  0  0  0  0  0
   -0.7672    1.4314    0.1321 C   0  0  0  0  0  0  0  0  0  0  0  0
   -0.6173   -0.0487   -0.2106 C   0  0  0  0  0  0  0  0  0  0  0  0
   -1.7584   -0.8017    0.3916 C   0  0  0  0  0  0  0  0  0  0  0  0
   -0.5120   -0.1483   -1.5712 O   0  0  0  0  0  0  0  0  0  0  0  0
    0.4680   -2.4769    0.1950 H   0  0  0  0  0  0  0  0  0  0  0  0
    2.0603   -1.9500    0.7923 H   0  0  0  0  0  0  0  0  0  0  0  0
    1.6612   -1.7673   -0.9405 H   0  0  0  0  0  0  0  0  0  0  0  0
    0.6544   -0.2153    1.5140 H   0  0  0  0  0  0  0  0  0  0  0  0
    0.6937    2.5920   -0.9658 H   0  0  0  0  0  0  0  0  0  0  0  0
    0.8852    2.5737    0.8061 H   0  0  0  0  0  0  0  0  0  0  0  0
   -1.4507    1.9408   -0.5755 H   0  0  0  0  0  0  0  0  0  0  0  0
   -1.0795    1.5248    1.1906 H   0  0  0  0  0  0  0  0  0  0  0  0
   -2.6087   -0.7358   -0.3370 H   0  0  0  0  0  0  0  0  0  0  0  0
   -1.5245   -1.8657    0.5523 H   0  0  0  0  0  0  0  0  0  0  0  0
   -2.1058   -0.3072    1.3172 H   0  0  0  0  0  0  0  0  0  0  0  0
   -0.7508   -1.0457   -1.9399 H   0  0  0  0  0  0  0  0  0  0  0  0
  1  2  1  0
  2  3  1  0
  3  4  2  0
  3  5  1  0
  5  6  1  0
  6  7  1  0
  7  8  1  0
  7  9  1  0
  7  2  1  0
  1 10  1  0
  1 11  1  0
  1 12  1  0
  2 13  1  0
  5 14  1  0
  5 15  1  0
  6 16  1  0
  6 17  1  0
  8 18  1  0
  8 19  1  0
  8 20  1  0
  9 21  1  0
M  END
