
     RDKit          3D

 20 20  0  0  0  0  0  0  0  0999 V2000
   -2.5617    0.3611   -0.4115 C   0  0  0  0  0  0  0  0  0  0  0  0
   -1.2114    0.6113    0.1725 C   0  0  0  0  0  0  0  0  0  0  0  0
   -0.0569    0.5865   -0.8366 C   0  0  0  0  0  0  0  0  0  0  0  0
    0.7654    0.0379    0.3392 C   0  0  0  0  0  0  0  0  0  0  0  0
    1.1561    0.9890    1.2532 O   0  0  0  0  0  0  0  0  0  0  0  0
    1.8362   -0.9293   -0.0988 C   0  0  0  0  0  0  0  0  0  0  0  0
    2.9024   -0.2927   -0.6960 O   0  0  0  0  0  0  0  0  0  0  0  0
   -0.5326   -0.6110    0.7782 C   0  0  0  0  0  0  0  0  0  0  0  0
   -3.1814   -0.1319    0.3951 H   0  0  0  0  0  0  0  0  0  0  0  0
   -2.4982   -0.2780   -1.3003 H   0  0  0  0  0  0  0  0  0  0  0  0
   -3.0365    1.3463   -0.6035 H   0  0  0  0  0  0  0  0  0  0  0  0
   -1.0957    1.4756    0.8297 H   0  0  0  0  0  0  0  0  0  0  0  0
   -0.1980   -0.2118   -1.5728 H   0  0  0  0  0  0  0  0  0  0  0  0
    0.2583    1.5656   -1.1990 H   0  0  0  0  0  0  0  0  0  0  0  0
    1.5797    1.7827    0.8711 H   0  0  0  0  0  0  0  0  0  0  0  0
    2.1408   -1.5005    0.8205 H   0  0  0  0  0  0  0  0  0  0  0  0
    1.3955   -1.6573   -0.8100 H   0  0  0  0  0  0  0  0  0  0  0  0
    3.6984   -0.8926   -0.5975 H   0  0  0  0  0  0  0  0  0  0  0  0
   -0.7118   -1.5281    0.1737 H   0  0  0  0  0  0  0  0  0  0  0  0
   -0.6486   -0.7229    1.8638 H   0  0  0  0  0  0  0  0  0  0  0  0
  1  2  1  0
  2  3  1  0
  3  4  1  0
  4  5  1  0
  4  6  1  0
  6  7  1  0
  4  8  1  0
  8  2  1  0
  1  9  1  0
  1 10  1  0
  1 11  1  0
  2 12  1  0
  3 13  1  0
  3 14  1  0
  5 15  1  0
  6 16  1  0
  6 17  1  0
  7 18  1  0
  8 19  1  0
  8 20  1  0
M  END
