
     RDKit          3D

 25 26  0  0  0  0  0  0  0  0999 V2000
   -1.6181    1.6881   -0.7320 C   0  0  0  0  0  0  0  0  0  0  0  0
   -1.5904    0.5976    0.2976 C   0  0  0  0  0  0  0  0  0  0  0  0
   -1.6070   -0.8022   -0.2903 C   0  0  0  0  0  0  0  0  0  0  0  0
   -0.4393   -0.2907    0.4891 C   0  0  0  0  0  0  0  0  0  0  0  0
   -0.2961   -0.9581    1.8631 C   0  0  0  0  0  0  0  0  0  0  0  0
    0.8828   -0.0741   -0.1798 C   0  0  0  0  0  0  0  0  0  0  0  0
    1.5927    1.2392    0.1254 C   0  0  0  0  0  0  0  0  0  0  0  0
    1.2478   -0.7144   -1.4520 C   0  0  0  0  0  0  0  0  0  0  0  0
    1.7716   -1.3371   -0.1602 C   0  0  0  0  0  0  0  0  0  0  0  0
   -2.2072    1.3419   -1.6306 H   0  0  0  0  0  0  0  0  0  0  0  0
   -0.6146    1.9805   -1.1001 H   0  0  0  0  0  0  0  0  0  0  0  0
   -2.1694    2.5888   -0.3724 H   0  0  0  0  0  0  0  0  0  0  0  0
   -2.2140    0.8054    1.2006 H   0  0  0  0  0  0  0  0  0  0  0  0
   -1.5581   -0.9332   -1.3799 H   0  0  0  0  0  0  0  0  0  0  0  0
   -2.3577   -1.4676    0.2004 H   0  0  0  0  0  0  0  0  0  0  0  0
    0.0441   -1.9948    1.6481 H   0  0  0  0  0  0  0  0  0  0  0  0
    0.4444   -0.4168    2.4602 H   0  0  0  0  0  0  0  0  0  0  0  0
   -1.2926   -1.0234    2.3026 H   0  0  0  0  0  0  0  0  0  0  0  0
    0.9426    1.8943    0.7242 H   0  0  0  0  0  0  0  0  0  0  0  0
    1.8897    1.7675   -0.8055 H   0  0  0  0  0  0  0  0  0  0  0  0
    2.5636    1.0373    0.6658 H   0  0  0  0  0  0  0  0  0  0  0  0
    0.4448   -1.2173   -2.0019 H   0  0  0  0  0  0  0  0  0  0  0  0
    2.0162   -0.2514   -2.0723 H   0  0  0  0  0  0  0  0  0  0  0  0
    1.3086   -2.2942    0.0756 H   0  0  0  0  0  0  0  0  0  0  0  0
    2.8155   -1.1653    0.1246 H   0  0  0  0  0  0  0  0  0  0  0  0
  1  2  1  0
  2  3  1  0
  3  4  1  0
  4  5  1  0
  4  6  1  0
  6  7  1  0
  6  8  1  0
  8  9  1  0
  4  2  1  0
  9  6  1  0
  1 10  1  0
  1 11  1  0
  1 12  1  0
  2 13  1  0
  3 14  1  0
  3 15  1  0
  5 16  1  0
  5 17  1  0
  5 18  1  0
  7 19  1  0
  7 20  1  0
  7 21  1  0
  8 22  1  0
  8 23  1  0
  9 24  1  0
  9 25  1  0
M  END
