
     RDKit          3D

 20 21  0  0  0  0  0  0  0  0999 V2000
   -2.3830    0.4145    0.4098 C   0  0  0  0  0  0  0  0  0  0  0  0
   -1.3438   -0.1271   -0.5438 C   0  0  0  0  0  0  0  0  0  0  0  0
   -0.2042    0.8641   -0.6687 C   0  0  0  0  0  0  0  0  0  0  0  0
    0.6636   -0.0761    0.0745 C   0  0  0  0  0  0  0  0  0  0  0  0
    2.0646   -0.2325   -0.3753 C   0  0  0  0  0  0  0  0  0  0  0  0
    2.6815    1.0380   -0.2817 O   0  0  0  0  0  0  0  0  0  0  0  0
    0.2663   -0.7124    1.3493 C   0  0  0  0  0  0  0  0  0  0  0  0
   -0.3608   -1.0997    0.0619 C   0  0  0  0  0  0  0  0  0  0  0  0
   -3.2329    0.7894   -0.2245 H   0  0  0  0  0  0  0  0  0  0  0  0
   -2.0212    1.3263    0.9547 H   0  0  0  0  0  0  0  0  0  0  0  0
   -2.7211   -0.3488    1.1418 H   0  0  0  0  0  0  0  0  0  0  0  0
   -1.7698   -0.4782   -1.5078 H   0  0  0  0  0  0  0  0  0  0  0  0
   -0.3827    1.8505   -0.2280 H   0  0  0  0  0  0  0  0  0  0  0  0
    0.1052    0.9103   -1.7487 H   0  0  0  0  0  0  0  0  0  0  0  0
    2.6290   -0.8892    0.3237 H   0  0  0  0  0  0  0  0  0  0  0  0
    2.1496   -0.6349   -1.4024 H   0  0  0  0  0  0  0  0  0  0  0  0
    3.4262    1.1274   -0.9214 H   0  0  0  0  0  0  0  0  0  0  0  0
   -0.2799   -0.1572    2.1311 H   0  0  0  0  0  0  0  0  0  0  0  0
    0.9792   -1.4495    1.7622 H   0  0  0  0  0  0  0  0  0  0  0  0
   -0.2658   -2.1150   -0.3068 H   0  0  0  0  0  0  0  0  0  0  0  0
  1  2  1  0
  2  3  1  0
  3  4  1  0
  4  5  1  0
  5  6  1  0
  4  7  1  0
  7  8  1  0
  8  2  1  0
  8  4  1  0
  1  9  1  0
  1 10  1  0
  1 11  1  0
  2 12  1  0
  3 13  1  0
  3 14  1  0
  5 15  1  0
  5 16  1  0
  6 17  1  0
  7 18  1  0
  7 19  1  0
  8 20  1  0
M  END
