
     RDKit          3D

 21 22  0  0  0  0  0  0  0  0999 V2000
   -1.7954    1.4399    0.4142 C   0  0  0  0  0  0  0  0  0  0  0  0
   -0.7709    0.4989   -0.1162 C   0  0  0  0  0  0  0  0  0  0  0  0
   -1.1720   -0.9135   -0.3620 C   0  0  0  0  0  0  0  0  0  0  0  0
   -0.9781   -1.3506   -1.6812 O   0  0  0  0  0  0  0  0  0  0  0  0
   -0.0932   -1.4163    0.5770 C   0  0  0  0  0  0  0  0  0  0  0  0
    0.2800    0.0290    0.8334 C   0  0  0  0  0  0  0  0  0  0  0  0
    1.6644    0.4157    0.4682 C   0  0  0  0  0  0  0  0  0  0  0  0
    2.3599    0.0756   -0.7201 C   0  0  0  0  0  0  0  0  0  0  0  0
    1.6786    1.4167   -0.6337 O   0  0  0  0  0  0  0  0  0  0  0  0
   -2.4653    1.0265    1.1731 H   0  0  0  0  0  0  0  0  0  0  0  0
   -1.2343    2.2839    0.9128 H   0  0  0  0  0  0  0  0  0  0  0  0
   -2.3151    1.9213   -0.4401 H   0  0  0  0  0  0  0  0  0  0  0  0
   -0.3153    0.9405   -1.0450 H   0  0  0  0  0  0  0  0  0  0  0  0
   -2.1778   -1.2192   -0.0259 H   0  0  0  0  0  0  0  0  0  0  0  0
   -0.5253   -2.2305   -1.7229 H   0  0  0  0  0  0  0  0  0  0  0  0
   -0.5037   -1.9659    1.4497 H   0  0  0  0  0  0  0  0  0  0  0  0
    0.7252   -1.9821    0.0738 H   0  0  0  0  0  0  0  0  0  0  0  0
    0.0283    0.2693    1.9089 H   0  0  0  0  0  0  0  0  0  0  0  0
    2.2492    0.8984    1.3018 H   0  0  0  0  0  0  0  0  0  0  0  0
    1.9155   -0.4271   -1.5811 H   0  0  0  0  0  0  0  0  0  0  0  0
    3.4454    0.2894   -0.7847 H   0  0  0  0  0  0  0  0  0  0  0  0
  1  2  1  0
  2  3  1  0
  3  4  1  0
  3  5  1  0
  5  6  1  0
  6  7  1  0
  7  8  1  0
  8  9  1  0
  6  2  1  0
  9  7  1  0
  1 10  1  0
  1 11  1  0
  1 12  1  0
  2 13  1  0
  3 14  1  0
  4 15  1  0
  5 16  1  0
  5 17  1  0
  6 18  1  0
  7 19  1  0
  8 20  1  0
  8 21  1  0
M  END
