
     RDKit          3D

 17 17  0  0  0  0  0  0  0  0999 V2000
   -1.8538   -0.0503   -0.5262 C   0  0  0  0  0  0  0  0  0  0  0  0
   -0.7565   -0.0854    0.5368 C   0  0  0  0  0  0  0  0  0  0  0  0
   -0.1837    1.2555    0.7871 C   0  0  0  0  0  0  0  0  0  0  0  0
    1.0821    1.4796    0.2260 O   0  0  0  0  0  0  0  0  0  0  0  0
    1.9001    0.5532   -0.3285 C   0  0  0  0  0  0  0  0  0  0  0  0
    3.0074    0.9113   -0.7880 O   0  0  0  0  0  0  0  0  0  0  0  0
    1.5361   -0.8666   -0.4125 C   0  0  0  0  0  0  0  0  0  0  0  0
    0.1926   -1.1371    0.1721 C   0  0  0  0  0  0  0  0  0  0  0  0
   -0.1035   -2.3077    0.3442 O   0  0  0  0  0  0  0  0  0  0  0  0
   -1.9082   -1.0516   -1.0365 H   0  0  0  0  0  0  0  0  0  0  0  0
   -2.8326    0.1743   -0.0566 H   0  0  0  0  0  0  0  0  0  0  0  0
   -1.6407    0.6827   -1.3110 H   0  0  0  0  0  0  0  0  0  0  0  0
   -1.2836   -0.4274    1.4754 H   0  0  0  0  0  0  0  0  0  0  0  0
   -0.8581    2.0581    0.3643 H   0  0  0  0  0  0  0  0  0  0  0  0
   -0.1180    1.4811    1.8723 H   0  0  0  0  0  0  0  0  0  0  0  0
    2.2579   -1.4759    0.1502 H   0  0  0  0  0  0  0  0  0  0  0  0
    1.5624   -1.1937   -1.4692 H   0  0  0  0  0  0  0  0  0  0  0  0
  1  2  1  0
  2  3  1  0
  3  4  1  0
  4  5  1  0
  5  6  2  0
  5  7  1  0
  7  8  1  0
  8  9  2  0
  8  2  1  0
  1 10  1  0
  1 11  1  0
  1 12  1  0
  2 13  1  0
  3 14  1  0
  3 15  1  0
  7 16  1  0
  7 17  1  0
M  END
