
     RDKit          3D

 16 17  0  0  0  0  0  0  0  0999 V2000
   -1.8466   -0.6002   -0.1153 C   0  0  0  0  0  0  0  0  0  0  0  0
   -0.5560    0.0505   -0.4939 C   0  0  0  0  0  0  0  0  0  0  0  0
    0.6889   -0.7878   -0.2822 C   0  0  0  0  0  0  0  0  0  0  0  0
    1.7391    0.2015   -0.6728 C   0  0  0  0  0  0  0  0  0  0  0  0
    1.3156    1.3199   -0.0491 C   0  0  0  0  0  0  0  0  0  0  0  0
    0.0948    0.8591    0.6456 C   0  0  0  0  0  0  0  0  0  0  0  0
    0.5219   -0.4579    1.1469 C   0  0  0  0  0  0  0  0  0  0  0  0
    0.6720   -1.0192    2.1842 O   0  0  0  0  0  0  0  0  0  0  0  0
   -2.6702    0.0271   -0.5378 H   0  0  0  0  0  0  0  0  0  0  0  0
   -1.9546   -1.6160   -0.5827 H   0  0  0  0  0  0  0  0  0  0  0  0
   -2.0088   -0.6891    0.9670 H   0  0  0  0  0  0  0  0  0  0  0  0
   -0.5780    0.5878   -1.4596 H   0  0  0  0  0  0  0  0  0  0  0  0
    0.7319   -1.7760   -0.6240 H   0  0  0  0  0  0  0  0  0  0  0  0
    2.6191    0.0791   -1.2926 H   0  0  0  0  0  0  0  0  0  0  0  0
    1.7372    2.3154   -0.0384 H   0  0  0  0  0  0  0  0  0  0  0  0
   -0.5065    1.5058    1.2048 H   0  0  0  0  0  0  0  0  0  0  0  0
  1  2  1  0
  2  3  1  0
  3  4  1  0
  4  5  2  0
  5  6  1  0
  6  7  1  0
  7  8  2  0
  6  2  1  0
  7  3  1  0
  1  9  1  0
  1 10  1  0
  1 11  1  0
  2 12  1  0
  3 13  1  0
  4 14  1  0
  5 15  1  0
  6 16  1  0
M  END
