
     RDKit          3D

 16 17  0  0  0  0  0  0  0  0999 V2000
    1.8889   -0.2972    0.5243 C   0  0  0  0  0  0  0  0  0  0  0  0
    0.7045   -0.0585   -0.3608 C   0  0  0  0  0  0  0  0  0  0  0  0
   -0.1281   -1.2280   -0.6850 C   0  0  0  0  0  0  0  0  0  0  0  0
    0.0074   -2.3850   -0.9852 O   0  0  0  0  0  0  0  0  0  0  0  0
   -1.3235   -0.3743   -0.4868 C   0  0  0  0  0  0  0  0  0  0  0  0
   -1.5680    0.0595    0.9097 C   0  0  0  0  0  0  0  0  0  0  0  0
   -0.4327    0.7029    0.2142 C   0  0  0  0  0  0  0  0  0  0  0  0
   -0.6015    2.0103   -0.2046 O   0  0  0  0  0  0  0  0  0  0  0  0
    1.6109   -0.8757    1.4205 H   0  0  0  0  0  0  0  0  0  0  0  0
    2.6718   -0.7922   -0.0941 H   0  0  0  0  0  0  0  0  0  0  0  0
    2.3078    0.7009    0.7969 H   0  0  0  0  0  0  0  0  0  0  0  0
    1.0543    0.4227   -1.3192 H   0  0  0  0  0  0  0  0  0  0  0  0
   -1.8796    0.0163   -1.3430 H   0  0  0  0  0  0  0  0  0  0  0  0
   -2.4853    0.6720    1.0375 H   0  0  0  0  0  0  0  0  0  0  0  0
   -1.4262   -0.6645    1.7340 H   0  0  0  0  0  0  0  0  0  0  0  0
   -0.4007    2.0907   -1.1584 H   0  0  0  0  0  0  0  0  0  0  0  0
  1  2  1  0
  2  3  1  0
  3  4  2  0
  3  5  1  0
  5  6  1  0
  6  7  1  0
  7  8  1  0
  7  2  1  0
  7  5  1  0
  1  9  1  0
  1 10  1  0
  1 11  1  0
  2 12  1  0
  5 13  1  0
  6 14  1  0
  6 15  1  0
  8 16  1  0
M  END
