
     RDKit          3D

 25 26  0  0  0  0  0  0  0  0999 V2000
    3.0512   -0.0530    0.4438 C   0  0  0  0  0  0  0  0  0  0  0  0
    1.7416    0.5012   -0.1140 C   0  0  0  0  0  0  0  0  0  0  0  0
    1.3115   -0.1598   -1.4339 C   0  0  0  0  0  0  0  0  0  0  0  0
    0.5702   -0.3594   -0.1237 C   0  0  0  0  0  0  0  0  0  0  0  0
   -0.8330    0.0960   -0.0944 C   0  0  0  0  0  0  0  0  0  0  0  0
   -1.1582    0.9715   -1.2831 C   0  0  0  0  0  0  0  0  0  0  0  0
   -1.8443   -1.0416    0.0612 C   0  0  0  0  0  0  0  0  0  0  0  0
   -1.9349   -0.7142    1.5342 C   0  0  0  0  0  0  0  0  0  0  0  0
   -1.3592    0.6551    1.1977 C   0  0  0  0  0  0  0  0  0  0  0  0
    3.7289   -0.3698   -0.3776 H   0  0  0  0  0  0  0  0  0  0  0  0
    2.8693   -0.9660    1.0523 H   0  0  0  0  0  0  0  0  0  0  0  0
    3.5401    0.6847    1.1166 H   0  0  0  0  0  0  0  0  0  0  0  0
    1.6763    1.6028   -0.0446 H   0  0  0  0  0  0  0  0  0  0  0  0
    1.9462   -0.9617   -1.8324 H   0  0  0  0  0  0  0  0  0  0  0  0
    0.9250    0.5539   -2.1773 H   0  0  0  0  0  0  0  0  0  0  0  0
    0.7226   -1.3945    0.2887 H   0  0  0  0  0  0  0  0  0  0  0  0
   -2.1840    1.3693   -1.1441 H   0  0  0  0  0  0  0  0  0  0  0  0
   -0.4440    1.8079   -1.3299 H   0  0  0  0  0  0  0  0  0  0  0  0
   -1.0991    0.3024   -2.1823 H   0  0  0  0  0  0  0  0  0  0  0  0
   -2.7667   -0.8691   -0.5160 H   0  0  0  0  0  0  0  0  0  0  0  0
   -1.3659   -2.0261   -0.0792 H   0  0  0  0  0  0  0  0  0  0  0  0
   -2.9619   -0.6929    1.9531 H   0  0  0  0  0  0  0  0  0  0  0  0
   -1.2953   -1.3308    2.1917 H   0  0  0  0  0  0  0  0  0  0  0  0
   -2.2018    1.3480    0.9894 H   0  0  0  0  0  0  0  0  0  0  0  0
   -0.6347    1.0460    1.9036 H   0  0  0  0  0  0  0  0  0  0  0  0
  1  2  1  0
  2  3  1  0
  3  4  1  0
  4  5  1  0
  5  6  1  0
  5  7  1  0
  7  8  1  0
  8  9  1  0
  4  2  1  0
  9  5  1  0
  1 10  1  0
  1 11  1  0
  1 12  1  0
  2 13  1  0
  3 14  1  0
  3 15  1  0
  4 16  1  0
  6 17  1  0
  6 18  1  0
  6 19  1  0
  7 20  1  0
  7 21  1  0
  8 22  1  0
  8 23  1  0
  9 24  1  0
  9 25  1  0
M  END
