
     RDKit          3D

 23 24  0  0  0  0  0  0  0  0999 V2000
   -2.3352    0.7495   -0.6876 C   0  0  0  0  0  0  0  0  0  0  0  0
   -1.4008   -0.4502   -0.6986 C   0  0  0  0  0  0  0  0  0  0  0  0
   -1.4352   -1.2978    0.6029 C   0  0  0  0  0  0  0  0  0  0  0  0
   -0.2785   -0.4767    0.2490 C   0  0  0  0  0  0  0  0  0  0  0  0
    0.0590    0.8081    0.9685 C   0  0  0  0  0  0  0  0  0  0  0  0
    1.2490    1.2982    0.1313 C   0  0  0  0  0  0  0  0  0  0  0  0
    2.0842    0.0452    0.0663 C   0  0  0  0  0  0  0  0  0  0  0  0
    2.9424    0.0288   -1.0204 O   0  0  0  0  0  0  0  0  0  0  0  0
    1.0595   -1.0685   -0.0930 C   0  0  0  0  0  0  0  0  0  0  0  0
   -1.8170    1.6422   -1.1100 H   0  0  0  0  0  0  0  0  0  0  0  0
   -3.2852    0.5405   -1.2317 H   0  0  0  0  0  0  0  0  0  0  0  0
   -2.6197    0.9711    0.3576 H   0  0  0  0  0  0  0  0  0  0  0  0
   -1.2574   -1.0127   -1.6413 H   0  0  0  0  0  0  0  0  0  0  0  0
   -2.1962   -1.0100    1.3406 H   0  0  0  0  0  0  0  0  0  0  0  0
   -1.3396   -2.4005    0.4339 H   0  0  0  0  0  0  0  0  0  0  0  0
    0.3921    0.5733    2.0111 H   0  0  0  0  0  0  0  0  0  0  0  0
   -0.7578    1.5300    0.9910 H   0  0  0  0  0  0  0  0  0  0  0  0
    0.8425    1.5986   -0.8503 H   0  0  0  0  0  0  0  0  0  0  0  0
    1.7239    2.1153    0.6912 H   0  0  0  0  0  0  0  0  0  0  0  0
    2.6450   -0.0253    1.0098 H   0  0  0  0  0  0  0  0  0  0  0  0
    3.3973   -0.8571   -1.0049 H   0  0  0  0  0  0  0  0  0  0  0  0
    1.2606   -1.8949    0.6279 H   0  0  0  0  0  0  0  0  0  0  0  0
    1.0672   -1.4068   -1.1435 H   0  0  0  0  0  0  0  0  0  0  0  0
  1  2  1  0
  2  3  1  0
  3  4  1  0
  4  5  1  0
  5  6  1  0
  6  7  1  0
  7  8  1  0
  7  9  1  0
  4  2  1  0
  9  4  1  0
  1 10  1  0
  1 11  1  0
  1 12  1  0
  2 13  1  0
  3 14  1  0
  3 15  1  0
  5 16  1  0
  5 17  1  0
  6 18  1  0
  6 19  1  0
  7 20  1  0
  8 21  1  0
  9 22  1  0
  9 23  1  0
M  END
