
     RDKit          3D

 25 25  0  0  0  0  0  0  0  0999 V2000
   -2.1505   -0.5262    0.3196 C   0  0  0  0  0  0  0  0  0  0  0  0
   -1.2764    0.0102   -0.7730 C   0  0  0  0  0  0  0  0  0  0  0  0
   -0.8725    1.4442   -0.5517 C   0  0  0  0  0  0  0  0  0  0  0  0
   -0.0308    1.6695    0.6561 C   0  0  0  0  0  0  0  0  0  0  0  0
    1.3977    1.4089    0.3030 C   0  0  0  0  0  0  0  0  0  0  0  0
    2.1011    0.2841    0.2827 C   0  0  0  0  0  0  0  0  0  0  0  0
    1.8230   -1.1350    0.5782 C   0  0  0  0  0  0  0  0  0  0  0  0
    0.4369   -1.5546    0.1815 C   0  0  0  0  0  0  0  0  0  0  0  0
   -0.0724   -0.8785   -1.0419 C   0  0  0  0  0  0  0  0  0  0  0  0
   -2.1247   -1.6206    0.3609 H   0  0  0  0  0  0  0  0  0  0  0  0
   -1.9093   -0.1346    1.3210 H   0  0  0  0  0  0  0  0  0  0  0  0
   -3.2295   -0.2438    0.1424 H   0  0  0  0  0  0  0  0  0  0  0  0
   -1.8834   -0.0009   -1.7053 H   0  0  0  0  0  0  0  0  0  0  0  0
   -0.2537    1.7338   -1.4476 H   0  0  0  0  0  0  0  0  0  0  0  0
   -1.7593    2.0707   -0.5564 H   0  0  0  0  0  0  0  0  0  0  0  0
   -0.2772    1.0736    1.5288 H   0  0  0  0  0  0  0  0  0  0  0  0
   -0.1444    2.7586    0.9362 H   0  0  0  0  0  0  0  0  0  0  0  0
    1.9570    2.2993    0.0117 H   0  0  0  0  0  0  0  0  0  0  0  0
    3.1172    0.4836   -0.0278 H   0  0  0  0  0  0  0  0  0  0  0  0
    2.0046   -1.3816    1.6543 H   0  0  0  0  0  0  0  0  0  0  0  0
    2.5758   -1.7389    0.0070 H   0  0  0  0  0  0  0  0  0  0  0  0
   -0.2195   -1.3947    1.0781 H   0  0  0  0  0  0  0  0  0  0  0  0
    0.4680   -2.6773    0.0665 H   0  0  0  0  0  0  0  0  0  0  0  0
   -0.3771   -1.6771   -1.7696 H   0  0  0  0  0  0  0  0  0  0  0  0
    0.6992   -0.2730   -1.5547 H   0  0  0  0  0  0  0  0  0  0  0  0
  1  2  1  0
  2  3  1  0
  3  4  1  0
  4  5  1  0
  5  6  2  3
  6  7  1  0
  7  8  1  0
  8  9  1  0
  9  2  1  0
  1 10  1  0
  1 11  1  0
  1 12  1  0
  2 13  1  0
  3 14  1  0
  3 15  1  0
  4 16  1  0
  4 17  1  0
  5 18  1  0
  6 19  1  0
  7 20  1  0
  7 21  1  0
  8 22  1  0
  8 23  1  0
  9 24  1  0
  9 25  1  0
M  END
