
     RDKit          3D

 23 24  0  0  0  0  0  0  0  0999 V2000
   -2.3218   -0.6074    0.4642 C   0  0  0  0  0  0  0  0  0  0  0  0
   -0.9277   -0.0974    0.2839 C   0  0  0  0  0  0  0  0  0  0  0  0
   -1.0183    1.1405   -0.5884 C   0  0  0  0  0  0  0  0  0  0  0  0
    0.0722    2.0538   -0.1470 C   0  0  0  0  0  0  0  0  0  0  0  0
    1.2979    1.6499    0.1905 C   0  0  0  0  0  0  0  0  0  0  0  0
    1.9312    0.3307    0.2418 C   0  0  0  0  0  0  0  0  0  0  0  0
    1.3400   -0.7239   -0.5904 C   0  0  0  0  0  0  0  0  0  0  0  0
    0.8857   -1.9734    0.2216 C   0  0  0  0  0  0  0  0  0  0  0  0
   -0.0472   -1.0803   -0.4428 C   0  0  0  0  0  0  0  0  0  0  0  0
   -2.9194    0.2167    0.9338 H   0  0  0  0  0  0  0  0  0  0  0  0
   -2.8113   -0.7788   -0.5373 H   0  0  0  0  0  0  0  0  0  0  0  0
   -2.3998   -1.4963    1.0885 H   0  0  0  0  0  0  0  0  0  0  0  0
   -0.5006    0.1190    1.2777 H   0  0  0  0  0  0  0  0  0  0  0  0
   -0.7949    0.8940   -1.6622 H   0  0  0  0  0  0  0  0  0  0  0  0
   -2.0114    1.6178   -0.5262 H   0  0  0  0  0  0  0  0  0  0  0  0
   -0.1252    3.1210   -0.0902 H   0  0  0  0  0  0  0  0  0  0  0  0
    1.9517    2.4646    0.4851 H   0  0  0  0  0  0  0  0  0  0  0  0
    3.0062    0.4689   -0.0785 H   0  0  0  0  0  0  0  0  0  0  0  0
    2.0189    0.0509    1.3304 H   0  0  0  0  0  0  0  0  0  0  0  0
    1.8490   -0.9682   -1.5634 H   0  0  0  0  0  0  0  0  0  0  0  0
    0.9689   -1.9405    1.3027 H   0  0  0  0  0  0  0  0  0  0  0  0
    1.1228   -2.9539   -0.2409 H   0  0  0  0  0  0  0  0  0  0  0  0
   -0.5669   -1.5076   -1.3528 H   0  0  0  0  0  0  0  0  0  0  0  0
  1  2  1  0
  2  3  1  0
  3  4  1  0
  4  5  2  0
  5  6  1  0
  6  7  1  0
  7  8  1  0
  8  9  1  0
  9  2  1  0
  9  7  1  0
  1 10  1  0
  1 11  1  0
  1 12  1  0
  2 13  1  0
  3 14  1  0
  3 15  1  0
  4 16  1  0
  5 17  1  0
  6 18  1  0
  6 19  1  0
  7 20  1  0
  8 21  1  0
  8 22  1  0
  9 23  1  0
M  END
