
     RDKit          3D

 18 19  0  0  0  0  0  0  0  0999 V2000
    1.9103   -0.1808    0.5159 C   0  0  0  0  0  0  0  0  0  0  0  0
    0.7028   -0.1984   -0.3525 C   0  0  0  0  0  0  0  0  0  0  0  0
   -0.0194    1.0906   -0.5637 C   0  0  0  0  0  0  0  0  0  0  0  0
    0.0030    1.4692   -1.8945 O   0  0  0  0  0  0  0  0  0  0  0  0
   -1.3240    0.5218   -0.1127 C   0  0  0  0  0  0  0  0  0  0  0  0
   -1.7297   -0.8697   -0.3773 C   0  0  0  0  0  0  0  0  0  0  0  0
   -0.5109   -0.6981    0.4215 C   0  0  0  0  0  0  0  0  0  0  0  0
   -0.4649   -0.7791    1.7855 O   0  0  0  0  0  0  0  0  0  0  0  0
    1.9393    0.6237    1.2620 H   0  0  0  0  0  0  0  0  0  0  0  0
    2.8101   -0.2022   -0.1453 H   0  0  0  0  0  0  0  0  0  0  0  0
    1.9023   -1.1403    1.1126 H   0  0  0  0  0  0  0  0  0  0  0  0
    0.8592   -0.8237   -1.2524 H   0  0  0  0  0  0  0  0  0  0  0  0
    0.2992    1.9435    0.0689 H   0  0  0  0  0  0  0  0  0  0  0  0
    0.4224    2.3606   -2.0404 H   0  0  0  0  0  0  0  0  0  0  0  0
   -1.8932    1.0971    0.6350 H   0  0  0  0  0  0  0  0  0  0  0  0
   -2.6228   -1.2290    0.1462 H   0  0  0  0  0  0  0  0  0  0  0  0
   -1.5872   -1.3479   -1.3806 H   0  0  0  0  0  0  0  0  0  0  0  0
   -0.6964   -1.6371    2.1719 H   0  0  0  0  0  0  0  0  0  0  0  0
  1  2  1  0
  2  3  1  0
  3  4  1  0
  3  5  1  0
  5  6  1  0
  6  7  1  0
  7  8  1  0
  7  2  1  0
  7  5  1  0
  1  9  1  0
  1 10  1  0
  1 11  1  0
  2 12  1  0
  3 13  1  0
  4 14  1  0
  5 15  1  0
  6 16  1  0
  6 17  1  0
  8 18  1  0
M  END
