
     RDKit          3D

 19 19  0  0  0  0  0  0  0  0999 V2000
    1.7678   -0.5953   -0.6644 C   0  0  0  0  0  0  0  0  0  0  0  0
    0.8255    0.0078    0.3140 C   0  0  0  0  0  0  0  0  0  0  0  0
    0.0667   -0.9926    1.1940 C   0  0  0  0  0  0  0  0  0  0  0  0
   -1.0984    0.0078    1.1415 C   0  0  0  0  0  0  0  0  0  0  0  0
   -0.5215    0.4366   -0.2164 C   0  0  0  0  0  0  0  0  0  0  0  0
   -0.5816    1.8974   -0.4043 C   0  0  0  0  0  0  0  0  0  0  0  0
   -0.3839    2.6199    0.5511 O   0  0  0  0  0  0  0  0  0  0  0  0
   -1.0959   -0.3853   -1.2737 C   0  0  0  0  0  0  0  0  0  0  0  0
   -2.2706   -0.2793   -1.5543 O   0  0  0  0  0  0  0  0  0  0  0  0
    1.4480   -0.5061   -1.7275 H   0  0  0  0  0  0  0  0  0  0  0  0
    1.9875   -1.6654   -0.3898 H   0  0  0  0  0  0  0  0  0  0  0  0
    2.7280   -0.0044   -0.6097 H   0  0  0  0  0  0  0  0  0  0  0  0
    1.2347    0.8152    0.9685 H   0  0  0  0  0  0  0  0  0  0  0  0
    0.4384   -1.0742    2.2200 H   0  0  0  0  0  0  0  0  0  0  0  0
   -0.1955   -1.9279    0.6711 H   0  0  0  0  0  0  0  0  0  0  0  0
   -2.0886   -0.4439    1.0799 H   0  0  0  0  0  0  0  0  0  0  0  0
   -0.9637    0.8210    1.8801 H   0  0  0  0  0  0  0  0  0  0  0  0
   -0.7944    2.3645   -1.3568 H   0  0  0  0  0  0  0  0  0  0  0  0
   -0.5025   -1.0956   -1.8234 H   0  0  0  0  0  0  0  0  0  0  0  0
  1  2  1  0
  2  3  1  0
  3  4  1  0
  4  5  1  0
  5  6  1  0
  6  7  2  0
  5  8  1  0
  8  9  2  0
  5  2  1  0
  1 10  1  0
  1 11  1  0
  1 12  1  0
  2 13  1  0
  3 14  1  0
  3 15  1  0
  4 16  1  0
  4 17  1  0
  6 18  1  0
  8 19  1  0
M  END
