
     RDKit          3D

 21 21  0  0  0  0  0  0  0  0999 V2000
    2.4805    0.1966   -0.6327 C   0  0  0  0  0  0  0  0  0  0  0  0
    1.3103    0.2025    0.3142 C   0  0  0  0  0  0  0  0  0  0  0  0
    0.8761   -1.2445    0.5009 C   0  0  0  0  0  0  0  0  0  0  0  0
   -0.5976   -1.1855    0.5379 C   0  0  0  0  0  0  0  0  0  0  0  0
   -1.0668   -0.0178    0.1156 C   0  0  0  0  0  0  0  0  0  0  0  0
   -2.5141    0.3132    0.0489 C   0  0  0  0  0  0  0  0  0  0  0  0
   -3.3000   -0.7497    0.4821 O   0  0  0  0  0  0  0  0  0  0  0  0
    0.0887    0.8348   -0.2537 C   0  0  0  0  0  0  0  0  0  0  0  0
   -0.1520    2.1079    0.2728 O   0  0  0  0  0  0  0  0  0  0  0  0
    3.1595    1.0553   -0.4425 H   0  0  0  0  0  0  0  0  0  0  0  0
    3.0765   -0.7259   -0.4279 H   0  0  0  0  0  0  0  0  0  0  0  0
    2.1697    0.1333   -1.6954 H   0  0  0  0  0  0  0  0  0  0  0  0
    1.6013    0.6888    1.2465 H   0  0  0  0  0  0  0  0  0  0  0  0
    1.2528   -1.6522    1.4559 H   0  0  0  0  0  0  0  0  0  0  0  0
    1.1756   -1.8744   -0.3598 H   0  0  0  0  0  0  0  0  0  0  0  0
   -1.2168   -2.0308    0.8821 H   0  0  0  0  0  0  0  0  0  0  0  0
   -2.7714    1.1813    0.6972 H   0  0  0  0  0  0  0  0  0  0  0  0
   -2.8302    0.5162   -1.0092 H   0  0  0  0  0  0  0  0  0  0  0  0
   -3.4088   -1.4495   -0.2061 H   0  0  0  0  0  0  0  0  0  0  0  0
    0.2126    0.9447   -1.3386 H   0  0  0  0  0  0  0  0  0  0  0  0
    0.4543    2.7556   -0.1619 H   0  0  0  0  0  0  0  0  0  0  0  0
  1  2  1  0
  2  3  1  0
  3  4  1  0
  4  5  2  0
  5  6  1  0
  6  7  1  0
  5  8  1  0
  8  9  1  0
  8  2  1  0
  1 10  1  0
  1 11  1  0
  1 12  1  0
  2 13  1  0
  3 14  1  0
  3 15  1  0
  4 16  1  0
  6 17  1  0
  6 18  1  0
  7 19  1  0
  8 20  1  0
  9 21  1  0
M  END
