
     RDKit          3D

 19 19  0  0  0  0  0  0  0  0999 V2000
    2.7541   -0.0746   -0.0536 C   0  0  0  0  0  0  0  0  0  0  0  0
    1.3748   -0.0989    0.5358 C   0  0  0  0  0  0  0  0  0  0  0  0
    0.3716    0.6369   -0.3559 C   0  0  0  0  0  0  0  0  0  0  0  0
   -0.9215    0.1026    0.2272 C   0  0  0  0  0  0  0  0  0  0  0  0
   -2.0896    0.3183   -0.6903 C   0  0  0  0  0  0  0  0  0  0  0  0
   -3.2179   -0.2131   -0.0467 O   0  0  0  0  0  0  0  0  0  0  0  0
   -0.5860   -1.3093    0.4364 C   0  0  0  0  0  0  0  0  0  0  0  0
   -1.3708   -2.2972    0.5032 O   0  0  0  0  0  0  0  0  0  0  0  0
    0.8142   -1.3950    0.5568 O   0  0  0  0  0  0  0  0  0  0  0  0
    2.9733    0.9974   -0.3174 H   0  0  0  0  0  0  0  0  0  0  0  0
    2.7492   -0.6278   -0.9907 H   0  0  0  0  0  0  0  0  0  0  0  0
    3.4575   -0.4402    0.7074 H   0  0  0  0  0  0  0  0  0  0  0  0
    1.3299    0.3701    1.5423 H   0  0  0  0  0  0  0  0  0  0  0  0
    0.5188    0.2546   -1.3786 H   0  0  0  0  0  0  0  0  0  0  0  0
    0.4603    1.7280   -0.2642 H   0  0  0  0  0  0  0  0  0  0  0  0
   -1.1138    0.5681    1.1994 H   0  0  0  0  0  0  0  0  0  0  0  0
   -1.9375   -0.1389   -1.6784 H   0  0  0  0  0  0  0  0  0  0  0  0
   -2.2697    1.4065   -0.7723 H   0  0  0  0  0  0  0  0  0  0  0  0
   -3.2968    0.2125    0.8396 H   0  0  0  0  0  0  0  0  0  0  0  0
  1  2  1  0
  2  3  1  0
  3  4  1  0
  4  5  1  0
  5  6  1  0
  4  7  1  0
  7  8  2  0
  7  9  1  0
  9  2  1  0
  1 10  1  0
  1 11  1  0
  1 12  1  0
  2 13  1  0
  3 14  1  0
  3 15  1  0
  4 16  1  0
  5 17  1  0
  5 18  1  0
  6 19  1  0
M  END
