
     RDKit          3D

 19 19  0  0  0  0  0  0  0  0999 V2000
   -1.8377   -0.9127    0.5643 C   0  0  0  0  0  0  0  0  0  0  0  0
   -0.4839   -0.3985    0.1706 C   0  0  0  0  0  0  0  0  0  0  0  0
   -0.4863    0.9854   -0.3697 C   0  0  0  0  0  0  0  0  0  0  0  0
    0.6042    1.8057    0.2630 C   0  0  0  0  0  0  0  0  0  0  0  0
    1.8585    1.2034    0.2381 O   0  0  0  0  0  0  0  0  0  0  0  0
    2.3257   -0.0733   -0.0354 C   0  0  0  0  0  0  0  0  0  0  0  0
    3.4911   -0.3807    0.3787 O   0  0  0  0  0  0  0  0  0  0  0  0
    1.6128   -1.0477   -0.7315 O   0  0  0  0  0  0  0  0  0  0  0  0
    0.2218   -1.2980   -0.8238 C   0  0  0  0  0  0  0  0  0  0  0  0
   -2.5525   -0.9753   -0.2519 H   0  0  0  0  0  0  0  0  0  0  0  0
   -1.6814   -1.9573    0.9503 H   0  0  0  0  0  0  0  0  0  0  0  0
   -2.1759   -0.3268    1.4390 H   0  0  0  0  0  0  0  0  0  0  0  0
    0.1532   -0.4211    1.0972 H   0  0  0  0  0  0  0  0  0  0  0  0
   -1.4519    1.4788   -0.1724 H   0  0  0  0  0  0  0  0  0  0  0  0
   -0.3745    0.9562   -1.4794 H   0  0  0  0  0  0  0  0  0  0  0  0
    0.3192    1.9203    1.3497 H   0  0  0  0  0  0  0  0  0  0  0  0
    0.6126    2.8442   -0.1550 H   0  0  0  0  0  0  0  0  0  0  0  0
    0.0348   -2.3743   -0.6049 H   0  0  0  0  0  0  0  0  0  0  0  0
   -0.1897   -1.0284   -1.8269 H   0  0  0  0  0  0  0  0  0  0  0  0
  1  2  1  0
  2  3  1  0
  3  4  1  0
  4  5  1  0
  5  6  1  0
  6  7  2  0
  6  8  1  0
  8  9  1  0
  9  2  1  0
  1 10  1  0
  1 11  1  0
  1 12  1  0
  2 13  1  0
  3 14  1  0
  3 15  1  0
  4 16  1  0
  4 17  1  0
  9 18  1  0
  9 19  1  0
M  END
