
     RDKit          3D

 21 22  0  0  0  0  0  0  0  0999 V2000
    1.8173   -1.3776    0.2041 C   0  0  0  0  0  0  0  0  0  0  0  0
    0.8331   -0.3333   -0.1731 C   0  0  0  0  0  0  0  0  0  0  0  0
    1.4825    1.0351   -0.1529 C   0  0  0  0  0  0  0  0  0  0  0  0
    0.7586    1.8315    0.6920 O   0  0  0  0  0  0  0  0  0  0  0  0
   -0.5332    1.3541    0.6609 C   0  0  0  0  0  0  0  0  0  0  0  0
   -1.0897    1.3601   -0.6225 O   0  0  0  0  0  0  0  0  0  0  0  0
   -2.0442    0.3571   -0.6422 C   0  0  0  0  0  0  0  0  0  0  0  0
   -1.5783   -0.7181    0.3173 C   0  0  0  0  0  0  0  0  0  0  0  0
   -0.2872   -0.1534    0.8263 C   0  0  0  0  0  0  0  0  0  0  0  0
    2.3583   -1.6963   -0.7158 H   0  0  0  0  0  0  0  0  0  0  0  0
    1.4174   -2.2663    0.6851 H   0  0  0  0  0  0  0  0  0  0  0  0
    2.5987   -0.8958    0.8469 H   0  0  0  0  0  0  0  0  0  0  0  0
    0.3699   -0.5497   -1.1643 H   0  0  0  0  0  0  0  0  0  0  0  0
    2.5170    0.9481    0.2685 H   0  0  0  0  0  0  0  0  0  0  0  0
    1.4765    1.5032   -1.1583 H   0  0  0  0  0  0  0  0  0  0  0  0
   -1.1959    1.7505    1.4228 H   0  0  0  0  0  0  0  0  0  0  0  0
   -3.0063    0.8087   -0.2870 H   0  0  0  0  0  0  0  0  0  0  0  0
   -2.1361   -0.0776   -1.6606 H   0  0  0  0  0  0  0  0  0  0  0  0
   -1.4375   -1.6978   -0.1650 H   0  0  0  0  0  0  0  0  0  0  0  0
   -2.2922   -0.7577    1.1752 H   0  0  0  0  0  0  0  0  0  0  0  0
   -0.0285   -0.4248    1.8439 H   0  0  0  0  0  0  0  0  0  0  0  0
  1  2  1  0
  2  3  1  0
  3  4  1  0
  4  5  1  0
  5  6  1  0
  6  7  1  0
  7  8  1  0
  8  9  1  0
  9  2  1  0
  9  5  1  0
  1 10  1  0
  1 11  1  0
  1 12  1  0
  2 13  1  0
  3 14  1  0
  3 15  1  0
  5 16  1  0
  7 17  1  0
  7 18  1  0
  8 19  1  0
  8 20  1  0
  9 21  1  0
M  END
