
     RDKit          3D

 25 25  0  0  0  0  0  0  0  0999 V2000
   -0.9739    2.5078    0.2953 C   0  0  0  0  0  0  0  0  0  0  0  0
   -0.4374    1.1337    0.3610 C   0  0  0  0  0  0  0  0  0  0  0  0
    1.0703    1.0460    0.2810 C   0  0  0  0  0  0  0  0  0  0  0  0
    1.4509   -0.3810    0.6030 C   0  0  0  0  0  0  0  0  0  0  0  0
    2.3537   -0.9861   -0.4500 C   0  0  0  0  0  0  0  0  0  0  0  0
    0.3479   -1.1942    0.7480 O   0  0  0  0  0  0  0  0  0  0  0  0
   -0.5101   -1.2015   -0.3174 C   0  0  0  0  0  0  0  0  0  0  0  0
   -1.7408   -2.0080    0.0933 C   0  0  0  0  0  0  0  0  0  0  0  0
   -0.9844    0.2021   -0.7039 C   0  0  0  0  0  0  0  0  0  0  0  0
   -1.9753    2.4718   -0.2111 H   0  0  0  0  0  0  0  0  0  0  0  0
   -0.3522    3.2547   -0.1937 H   0  0  0  0  0  0  0  0  0  0  0  0
   -1.1768    2.8895    1.3356 H   0  0  0  0  0  0  0  0  0  0  0  0
   -0.7226    0.6780    1.3405 H   0  0  0  0  0  0  0  0  0  0  0  0
    1.5228    1.7148    1.0470 H   0  0  0  0  0  0  0  0  0  0  0  0
    1.4700    1.3889   -0.6939 H   0  0  0  0  0  0  0  0  0  0  0  0
    2.0199   -0.4252    1.5622 H   0  0  0  0  0  0  0  0  0  0  0  0
    3.2445   -0.3605   -0.5907 H   0  0  0  0  0  0  0  0  0  0  0  0
    2.5813   -2.0189   -0.1107 H   0  0  0  0  0  0  0  0  0  0  0  0
    1.8387   -1.0923   -1.4289 H   0  0  0  0  0  0  0  0  0  0  0  0
   -0.0934   -1.7200   -1.2125 H   0  0  0  0  0  0  0  0  0  0  0  0
   -1.8511   -2.0610    1.1924 H   0  0  0  0  0  0  0  0  0  0  0  0
   -1.6823   -3.0426   -0.2873 H   0  0  0  0  0  0  0  0  0  0  0  0
   -2.6540   -1.5562   -0.3127 H   0  0  0  0  0  0  0  0  0  0  0  0
   -0.6503    0.4851   -1.7138 H   0  0  0  0  0  0  0  0  0  0  0  0
   -2.0952    0.2750   -0.6327 H   0  0  0  0  0  0  0  0  0  0  0  0
  1  2  1  0
  2  3  1  0
  3  4  1  0
  4  5  1  0
  4  6  1  0
  6  7  1  0
  7  8  1  0
  7  9  1  0
  9  2  1  0
  1 10  1  0
  1 11  1  0
  1 12  1  0
  2 13  1  0
  3 14  1  0
  3 15  1  0
  4 16  1  0
  5 17  1  0
  5 18  1  0
  5 19  1  0
  7 20  1  0
  8 21  1  0
  8 22  1  0
  8 23  1  0
  9 24  1  0
  9 25  1  0
M  END
