
     RDKit          3D

 19 20  0  0  0  0  0  0  0  0999 V2000
   -1.9147   -1.1658    0.3610 C   0  0  0  0  0  0  0  0  0  0  0  0
   -1.1045   -0.0411   -0.2194 C   0  0  0  0  0  0  0  0  0  0  0  0
   -1.3034    1.3074    0.4118 C   0  0  0  0  0  0  0  0  0  0  0  0
    0.1952    1.4161    0.5158 C   0  0  0  0  0  0  0  0  0  0  0  0
    0.7924    0.4968    1.3252 O   0  0  0  0  0  0  0  0  0  0  0  0
    0.3259   -0.0779    0.1633 C   0  0  0  0  0  0  0  0  0  0  0  0
    1.3938   -0.4291   -0.8553 C   0  0  0  0  0  0  0  0  0  0  0  0
    2.7284   -0.3800   -0.2043 C   0  0  0  0  0  0  0  0  0  0  0  0
    2.9642   -1.0530    0.7789 O   0  0  0  0  0  0  0  0  0  0  0  0
   -2.9957   -1.0328    0.2199 H   0  0  0  0  0  0  0  0  0  0  0  0
   -1.6223   -2.0724   -0.2006 H   0  0  0  0  0  0  0  0  0  0  0  0
   -1.6727   -1.3538    1.4364 H   0  0  0  0  0  0  0  0  0  0  0  0
   -1.2373    0.0084   -1.2977 H   0  0  0  0  0  0  0  0  0  0  0  0
   -1.6755    2.1052   -0.2717 H   0  0  0  0  0  0  0  0  0  0  0  0
   -1.7559    1.2875    1.4225 H   0  0  0  0  0  0  0  0  0  0  0  0
    0.7546    2.1212   -0.1252 H   0  0  0  0  0  0  0  0  0  0  0  0
    1.2352   -1.5227   -1.0992 H   0  0  0  0  0  0  0  0  0  0  0  0
    1.3464    0.1300   -1.7884 H   0  0  0  0  0  0  0  0  0  0  0  0
    3.5457    0.2560   -0.5729 H   0  0  0  0  0  0  0  0  0  0  0  0
  1  2  1  0
  2  3  1  0
  3  4  1  0
  4  5  1  0
  5  6  1  0
  6  7  1  0
  7  8  1  0
  8  9  2  0
  6  2  1  0
  6  4  1  0
  1 10  1  0
  1 11  1  0
  1 12  1  0
  2 13  1  0
  3 14  1  0
  3 15  1  0
  4 16  1  0
  7 17  1  0
  7 18  1  0
  8 19  1  0
M  END
