
     RDKit          3D

 17 18  0  0  0  0  0  0  0  0999 V2000
    2.3824    0.1653    0.2528 C   0  0  0  0  0  0  0  0  0  0  0  0
    1.1510    0.1126   -0.6614 C   0  0  0  0  0  0  0  0  0  0  0  0
    0.2908   -0.9828   -0.5128 C   0  0  0  0  0  0  0  0  0  0  0  0
   -0.4855   -1.4898    0.5118 O   0  0  0  0  0  0  0  0  0  0  0  0
   -1.7654   -0.9349    0.2799 C   0  0  0  0  0  0  0  0  0  0  0  0
   -2.8839   -1.3678    0.6905 O   0  0  0  0  0  0  0  0  0  0  0  0
   -1.5204    0.2982   -0.5703 C   0  0  0  0  0  0  0  0  0  0  0  0
   -2.3722    1.3195   -0.2273 O   0  0  0  0  0  0  0  0  0  0  0  0
   -0.0943    0.5179   -0.1731 C   0  0  0  0  0  0  0  0  0  0  0  0
    2.0617    0.3324    1.3224 H   0  0  0  0  0  0  0  0  0  0  0  0
    3.0688    0.9773   -0.0343 H   0  0  0  0  0  0  0  0  0  0  0  0
    2.9284   -0.7788    0.2192 H   0  0  0  0  0  0  0  0  0  0  0  0
    1.4566    0.4568   -1.6929 H   0  0  0  0  0  0  0  0  0  0  0  0
   -0.1346   -1.3797   -1.4897 H   0  0  0  0  0  0  0  0  0  0  0  0
   -1.5875    0.0163   -1.6552 H   0  0  0  0  0  0  0  0  0  0  0  0
   -2.3884    1.9729   -0.9602 H   0  0  0  0  0  0  0  0  0  0  0  0
   -0.1077    0.7645    0.9368 H   0  0  0  0  0  0  0  0  0  0  0  0
  1  2  1  0
  2  3  1  0
  3  4  1  0
  4  5  1  0
  5  6  2  0
  5  7  1  0
  7  8  1  0
  7  9  1  0
  9  2  1  0
  9  3  1  0
  1 10  1  0
  1 11  1  0
  1 12  1  0
  2 13  1  0
  3 14  1  0
  7 15  1  0
  8 16  1  0
  9 17  1  0
M  END
