
     RDKit          3D

 23 25  0  0  0  0  0  0  0  0999 V2000
   -1.9314   -0.7397    0.7069 C   0  0  0  0  0  0  0  0  0  0  0  0
   -0.4806   -0.8447    0.3783 C   0  0  0  0  0  0  0  0  0  0  0  0
   -0.2894   -0.2907   -1.0407 C   0  0  0  0  0  0  0  0  0  0  0  0
   -0.7682    1.1448   -0.7734 C   0  0  0  0  0  0  0  0  0  0  0  0
   -0.3112    1.4731    0.6349 C   0  0  0  0  0  0  0  0  0  0  0  0
    0.3765    0.1898    1.0643 C   0  0  0  0  0  0  0  0  0  0  0  0
    1.6568    0.1267    0.2598 C   0  0  0  0  0  0  0  0  0  0  0  0
    2.0883   -1.1233   -0.4072 C   0  0  0  0  0  0  0  0  0  0  0  0
    1.1821   -0.2662   -1.1661 C   0  0  0  0  0  0  0  0  0  0  0  0
   -2.1963    0.0442    1.4205 H   0  0  0  0  0  0  0  0  0  0  0  0
   -2.3106   -1.7043    1.1584 H   0  0  0  0  0  0  0  0  0  0  0  0
   -2.5453   -0.6375   -0.2366 H   0  0  0  0  0  0  0  0  0  0  0  0
   -0.1551   -1.8654    0.4884 H   0  0  0  0  0  0  0  0  0  0  0  0
   -0.8583   -0.8045   -1.7873 H   0  0  0  0  0  0  0  0  0  0  0  0
   -1.8725    1.2084   -0.7861 H   0  0  0  0  0  0  0  0  0  0  0  0
   -0.3327    1.8559   -1.4773 H   0  0  0  0  0  0  0  0  0  0  0  0
    0.4850    2.2683    0.6042 H   0  0  0  0  0  0  0  0  0  0  0  0
   -1.1244    1.7752    1.2995 H   0  0  0  0  0  0  0  0  0  0  0  0
    0.4940    0.0695    2.1226 H   0  0  0  0  0  0  0  0  0  0  0  0
    2.3188    1.0249    0.2630 H   0  0  0  0  0  0  0  0  0  0  0  0
    3.1644   -1.1176   -0.7276 H   0  0  0  0  0  0  0  0  0  0  0  0
    1.8091   -2.1116    0.0109 H   0  0  0  0  0  0  0  0  0  0  0  0
    1.6006    0.3248   -2.0096 H   0  0  0  0  0  0  0  0  0  0  0  0
  1  2  1  0
  2  3  1  0
  3  4  1  0
  4  5  1  0
  5  6  1  0
  6  7  1  0
  7  8  1  0
  8  9  1  0
  6  2  1  0
  9  7  1  0
  9  3  1  0
  1 10  1  0
  1 11  1  0
  1 12  1  0
  2 13  1  0
  3 14  1  0
  4 15  1  0
  4 16  1  0
  5 17  1  0
  5 18  1  0
  6 19  1  0
  7 20  1  0
  8 21  1  0
  8 22  1  0
  9 23  1  0
M  END
