
     RDKit          3D

 21 22  0  0  0  0  0  0  0  0999 V2000
    2.2299   -0.6970    0.8023 C   0  0  0  0  0  0  0  0  0  0  0  0
    1.5663   -0.0264   -0.3928 C   0  0  0  0  0  0  0  0  0  0  0  0
    1.0188    1.2842    0.0030 C   0  0  0  0  0  0  0  0  0  0  0  0
   -0.2291    1.6405   -0.1844 C   0  0  0  0  0  0  0  0  0  0  0  0
   -1.1445    0.6707   -0.8318 C   0  0  0  0  0  0  0  0  0  0  0  0
   -2.1501    0.1700    0.2040 C   0  0  0  0  0  0  0  0  0  0  0  0
   -1.2877   -1.0784    0.3824 C   0  0  0  0  0  0  0  0  0  0  0  0
   -0.6037   -0.7056   -0.9181 C   0  0  0  0  0  0  0  0  0  0  0  0
    0.7190   -0.8668   -1.0111 O   0  0  0  0  0  0  0  0  0  0  0  0
    1.6392   -1.5902    1.1327 H   0  0  0  0  0  0  0  0  0  0  0  0
    3.2374   -1.0910    0.5539 H   0  0  0  0  0  0  0  0  0  0  0  0
    2.2629   -0.0125    1.6777 H   0  0  0  0  0  0  0  0  0  0  0  0
    2.4158    0.1913   -1.1076 H   0  0  0  0  0  0  0  0  0  0  0  0
    1.6860    1.9961    0.4769 H   0  0  0  0  0  0  0  0  0  0  0  0
   -0.6241    2.5903    0.1030 H   0  0  0  0  0  0  0  0  0  0  0  0
   -1.6805    1.0586   -1.7264 H   0  0  0  0  0  0  0  0  0  0  0  0
   -3.1435   -0.0588   -0.1766 H   0  0  0  0  0  0  0  0  0  0  0  0
   -2.1930    0.7868    1.1293 H   0  0  0  0  0  0  0  0  0  0  0  0
   -0.6828   -1.0042    1.2875 H   0  0  0  0  0  0  0  0  0  0  0  0
   -1.9017   -1.9981    0.3469 H   0  0  0  0  0  0  0  0  0  0  0  0
   -1.1345   -1.2592   -1.7508 H   0  0  0  0  0  0  0  0  0  0  0  0
  1  2  1  0
  2  3  1  0
  3  4  2  0
  4  5  1  0
  5  6  1  0
  6  7  1  0
  7  8  1  0
  8  9  1  0
  9  2  1  0
  8  5  1  0
  1 10  1  0
  1 11  1  0
  1 12  1  0
  2 13  1  0
  3 14  1  0
  4 15  1  0
  5 16  1  0
  6 17  1  0
  6 18  1  0
  7 19  1  0
  7 20  1  0
  8 21  1  0
M  END
