
     RDKit          3D

 20 21  0  0  0  0  0  0  0  0999 V2000
   -0.6955    1.9691    0.2210 C   0  0  0  0  0  0  0  0  0  0  0  0
   -0.5989    0.5456   -0.2521 C   0  0  0  0  0  0  0  0  0  0  0  0
   -1.3001   -0.3867    0.6895 C   0  0  0  0  0  0  0  0  0  0  0  0
   -1.0007   -1.7808    0.1854 C   0  0  0  0  0  0  0  0  0  0  0  0
    0.4852   -1.5444   -0.1539 C   0  0  0  0  0  0  0  0  0  0  0  0
    0.5749   -0.1467    0.4152 C   0  0  0  0  0  0  0  0  0  0  0  0
    1.8561    0.5267    0.4624 C   0  0  0  0  0  0  0  0  0  0  0  0
   -0.2193   -0.1763    1.5782 O   0  0  0  0  0  0  0  0  0  0  0  0
   -1.2328    2.0395    1.2051 H   0  0  0  0  0  0  0  0  0  0  0  0
   -1.1473    2.6449   -0.5106 H   0  0  0  0  0  0  0  0  0  0  0  0
    0.3410    2.3250    0.4425 H   0  0  0  0  0  0  0  0  0  0  0  0
   -0.6969    0.3632   -1.3170 H   0  0  0  0  0  0  0  0  0  0  0  0
   -2.2778   -0.1594    1.0417 H   0  0  0  0  0  0  0  0  0  0  0  0
   -1.0136   -2.4527    1.0398 H   0  0  0  0  0  0  0  0  0  0  0  0
   -1.5772   -2.0768   -0.6834 H   0  0  0  0  0  0  0  0  0  0  0  0
    0.6428   -1.5623   -1.2417 H   0  0  0  0  0  0  0  0  0  0  0  0
    1.1407   -2.2091    0.4069 H   0  0  0  0  0  0  0  0  0  0  0  0
    1.9900    1.0460    1.4397 H   0  0  0  0  0  0  0  0  0  0  0  0
    2.0203    1.2350   -0.3876 H   0  0  0  0  0  0  0  0  0  0  0  0
    2.7091   -0.2000    0.4023 H   0  0  0  0  0  0  0  0  0  0  0  0
  1  2  1  0
  2  3  1  0
  3  4  1  0
  4  5  1  0
  5  6  1  0
  6  7  1  0
  6  8  1  0
  6  2  1  0
  8  3  1  0
  1  9  1  0
  1 10  1  0
  1 11  1  0
  2 12  1  0
  3 13  1  0
  4 14  1  0
  4 15  1  0
  5 16  1  0
  5 17  1  0
  7 18  1  0
  7 19  1  0
  7 20  1  0
M  END
