
     RDKit          3D

 21 23  0  0  0  0  0  0  0  0999 V2000
    2.4209    0.1385    0.0721 C   0  0  0  0  0  0  0  0  0  0  0  0
    0.9410    0.2072    0.1168 C   0  0  0  0  0  0  0  0  0  0  0  0
    0.3322   -0.6322    1.2377 C   0  0  0  0  0  0  0  0  0  0  0  0
   -1.1416   -0.5732    0.8153 C   0  0  0  0  0  0  0  0  0  0  0  0
   -1.6091    0.8295    0.7705 C   0  0  0  0  0  0  0  0  0  0  0  0
   -1.6081    1.3019   -0.4652 C   0  0  0  0  0  0  0  0  0  0  0  0
   -1.1320    0.2522   -1.4043 C   0  0  0  0  0  0  0  0  0  0  0  0
    0.2423   -0.3343   -1.0875 C   0  0  0  0  0  0  0  0  0  0  0  0
   -1.0394   -0.9675   -0.6193 C   0  0  0  0  0  0  0  0  0  0  0  0
    2.8293    1.1595   -0.1666 H   0  0  0  0  0  0  0  0  0  0  0  0
    2.8774   -0.2500    0.9946 H   0  0  0  0  0  0  0  0  0  0  0  0
    2.7231   -0.4840   -0.8207 H   0  0  0  0  0  0  0  0  0  0  0  0
    0.5962    1.2442    0.2764 H   0  0  0  0  0  0  0  0  0  0  0  0
    0.5052   -0.1812    2.2117 H   0  0  0  0  0  0  0  0  0  0  0  0
    0.6170   -1.6980    1.1550 H   0  0  0  0  0  0  0  0  0  0  0  0
   -1.7710   -1.2376    1.4038 H   0  0  0  0  0  0  0  0  0  0  0  0
   -1.9222    1.4302    1.6215 H   0  0  0  0  0  0  0  0  0  0  0  0
   -1.9023    2.2923   -0.7731 H   0  0  0  0  0  0  0  0  0  0  0  0
   -1.4454    0.2842   -2.4660 H   0  0  0  0  0  0  0  0  0  0  0  0
    0.8044   -0.8133   -1.9023 H   0  0  0  0  0  0  0  0  0  0  0  0
   -1.3178   -1.9685   -0.9703 H   0  0  0  0  0  0  0  0  0  0  0  0
  1  2  1  0
  2  3  1  0
  3  4  1  0
  4  5  1  0
  5  6  2  0
  6  7  1  0
  7  8  1  0
  8  9  1  0
  8  2  1  0
  9  4  1  0
  9  7  1  0
  1 10  1  0
  1 11  1  0
  1 12  1  0
  2 13  1  0
  3 14  1  0
  3 15  1  0
  4 16  1  0
  5 17  1  0
  6 18  1  0
  7 19  1  0
  8 20  1  0
  9 21  1  0
M  END
