
     RDKit          3D

 23 24  0  0  0  0  0  0  0  0999 V2000
    2.7647    0.2272   -0.5247 C   0  0  0  0  0  0  0  0  0  0  0  0
    1.2446    0.4361   -0.4342 C   0  0  0  0  0  0  0  0  0  0  0  0
    0.7485    0.6039    0.9697 C   0  0  0  0  0  0  0  0  0  0  0  0
    1.2830   -0.7975    1.1911 C   0  0  0  0  0  0  0  0  0  0  0  0
    0.5839   -0.8649   -0.1422 C   0  0  0  0  0  0  0  0  0  0  0  0
   -0.4945   -0.0846    0.5551 C   0  0  0  0  0  0  0  0  0  0  0  0
   -1.5082    0.6189   -0.2599 C   0  0  0  0  0  0  0  0  0  0  0  0
   -2.6538   -0.3778   -0.5015 C   0  0  0  0  0  0  0  0  0  0  0  0
   -3.6625    0.1664   -1.2535 O   0  0  0  0  0  0  0  0  0  0  0  0
    3.0085   -0.8392   -0.7146 H   0  0  0  0  0  0  0  0  0  0  0  0
    3.1634    0.7757   -1.4205 H   0  0  0  0  0  0  0  0  0  0  0  0
    3.2897    0.6636    0.3407 H   0  0  0  0  0  0  0  0  0  0  0  0
    0.8473    1.0843   -1.2110 H   0  0  0  0  0  0  0  0  0  0  0  0
    0.8797    1.3822    1.5790 H   0  0  0  0  0  0  0  0  0  0  0  0
    2.3604   -0.9236    1.2133 H   0  0  0  0  0  0  0  0  0  0  0  0
    0.6912   -1.3966    1.9350 H   0  0  0  0  0  0  0  0  0  0  0  0
    0.4763   -1.6675   -0.7252 H   0  0  0  0  0  0  0  0  0  0  0  0
   -0.9156   -0.6608    1.4327 H   0  0  0  0  0  0  0  0  0  0  0  0
   -1.1600    0.9739   -1.2386 H   0  0  0  0  0  0  0  0  0  0  0  0
   -1.9372    1.4898    0.2652 H   0  0  0  0  0  0  0  0  0  0  0  0
   -3.0638   -0.6448    0.5116 H   0  0  0  0  0  0  0  0  0  0  0  0
   -2.2445   -1.3124   -0.9257 H   0  0  0  0  0  0  0  0  0  0  0  0
   -3.7010    1.1475   -1.1640 H   0  0  0  0  0  0  0  0  0  0  0  0
  1  2  1  0
  2  3  1  0
  3  4  1  0
  4  5  1  0
  5  6  1  0
  6  7  1  0
  7  8  1  0
  8  9  1  0
  5  2  1  0
  6  3  1  0
  1 10  1  0
  1 11  1  0
  1 12  1  0
  2 13  1  0
  3 14  1  0
  4 15  1  0
  4 16  1  0
  5 17  1  0
  6 18  1  0
  7 19  1  0
  7 20  1  0
  8 21  1  0
  8 22  1  0
  9 23  1  0
M  END
