
     RDKit          3D

 23 24  0  0  0  0  0  0  0  0999 V2000
   -0.2932    2.1625   -0.2673 C   0  0  0  0  0  0  0  0  0  0  0  0
   -0.4546    0.6903   -0.3417 C   0  0  0  0  0  0  0  0  0  0  0  0
   -1.6117    0.1732    0.5176 C   0  0  0  0  0  0  0  0  0  0  0  0
   -1.5613   -1.3468    0.2997 C   0  0  0  0  0  0  0  0  0  0  0  0
   -0.1338   -1.7953    0.4519 C   0  0  0  0  0  0  0  0  0  0  0  0
    0.7486   -1.3950   -0.6892 C   0  0  0  0  0  0  0  0  0  0  0  0
    0.7538   -0.0923    0.0775 C   0  0  0  0  0  0  0  0  0  0  0  0
    2.0563    0.6175    0.0955 C   0  0  0  0  0  0  0  0  0  0  0  0
    0.5409   -0.8412    1.2398 O   0  0  0  0  0  0  0  0  0  0  0  0
   -1.2980    2.6294   -0.3803 H   0  0  0  0  0  0  0  0  0  0  0  0
    0.2985    2.5046   -1.1388 H   0  0  0  0  0  0  0  0  0  0  0  0
    0.2020    2.4651    0.6832 H   0  0  0  0  0  0  0  0  0  0  0  0
   -0.7573    0.4273   -1.3996 H   0  0  0  0  0  0  0  0  0  0  0  0
   -1.3039    0.3868    1.5714 H   0  0  0  0  0  0  0  0  0  0  0  0
   -2.5689    0.6028    0.2419 H   0  0  0  0  0  0  0  0  0  0  0  0
   -2.1834   -1.8859    1.0174 H   0  0  0  0  0  0  0  0  0  0  0  0
   -1.8454   -1.5210   -0.7601 H   0  0  0  0  0  0  0  0  0  0  0  0
    0.0176   -2.8365    0.7729 H   0  0  0  0  0  0  0  0  0  0  0  0
    1.7337   -1.8819   -0.6030 H   0  0  0  0  0  0  0  0  0  0  0  0
    0.3209   -1.3745   -1.6868 H   0  0  0  0  0  0  0  0  0  0  0  0
    2.5301    0.6245    1.1142 H   0  0  0  0  0  0  0  0  0  0  0  0
    2.0316    1.6457   -0.2755 H   0  0  0  0  0  0  0  0  0  0  0  0
    2.7777    0.0408   -0.5407 H   0  0  0  0  0  0  0  0  0  0  0  0
  1  2  1  0
  2  3  1  0
  3  4  1  0
  4  5  1  0
  5  6  1  0
  6  7  1  0
  7  8  1  0
  7  9  1  0
  7  2  1  0
  9  5  1  0
  1 10  1  0
  1 11  1  0
  1 12  1  0
  2 13  1  0
  3 14  1  0
  3 15  1  0
  4 16  1  0
  4 17  1  0
  5 18  1  0
  6 19  1  0
  6 20  1  0
  8 21  1  0
  8 22  1  0
  8 23  1  0
M  END
