
     RDKit          3D

 18 18  0  0  0  0  0  0  0  0999 V2000
   -1.8333   -0.9456    0.5223 C   0  0  0  0  0  0  0  0  0  0  0  0
   -1.0154   -0.2496   -0.5331 C   0  0  0  0  0  0  0  0  0  0  0  0
    0.3306   -0.8826   -0.5847 C   0  0  0  0  0  0  0  0  0  0  0  0
    1.2567   -0.0567   -0.1379 C   0  0  0  0  0  0  0  0  0  0  0  0
    2.6687   -0.3922   -0.0663 C   0  0  0  0  0  0  0  0  0  0  0  0
    3.0837   -1.5293   -0.4423 O   0  0  0  0  0  0  0  0  0  0  0  0
    0.6514    1.2353    0.2703 C   0  0  0  0  0  0  0  0  0  0  0  0
   -0.7938    1.1749   -0.1174 C   0  0  0  0  0  0  0  0  0  0  0  0
   -1.4638   -1.9803    0.6695 H   0  0  0  0  0  0  0  0  0  0  0  0
   -1.7839   -0.4028    1.4772 H   0  0  0  0  0  0  0  0  0  0  0  0
   -2.8928   -0.9504    0.1431 H   0  0  0  0  0  0  0  0  0  0  0  0
   -1.5125   -0.3024   -1.5253 H   0  0  0  0  0  0  0  0  0  0  0  0
    0.5050   -1.8754   -0.9395 H   0  0  0  0  0  0  0  0  0  0  0  0
    3.3794    0.3351    0.3123 H   0  0  0  0  0  0  0  0  0  0  0  0
    1.1587    2.0941   -0.2239 H   0  0  0  0  0  0  0  0  0  0  0  0
    0.7468    1.3847    1.3843 H   0  0  0  0  0  0  0  0  0  0  0  0
   -1.0304    1.8731   -0.9523 H   0  0  0  0  0  0  0  0  0  0  0  0
   -1.4550    1.4700    0.7439 H   0  0  0  0  0  0  0  0  0  0  0  0
  1  2  1  0
  2  3  1  0
  3  4  2  0
  4  5  1  0
  5  6  2  0
  4  7  1  0
  7  8  1  0
  8  2  1  0
  1  9  1  0
  1 10  1  0
  1 11  1  0
  2 12  1  0
  3 13  1  0
  5 14  1  0
  7 15  1  0
  7 16  1  0
  8 17  1  0
  8 18  1  0
M  END
