
     RDKit          3D

 21 23  0  0  0  0  0  0  0  0999 V2000
   -2.4886    0.2305   -0.1233 C   0  0  0  0  0  0  0  0  0  0  0  0
   -1.0137    0.0570   -0.4790 C   0  0  0  0  0  0  0  0  0  0  0  0
   -0.0793    0.6208    0.5913 C   0  0  0  0  0  0  0  0  0  0  0  0
    1.2441    0.9681   -0.0430 C   0  0  0  0  0  0  0  0  0  0  0  0
    1.0696    1.6252   -1.2701 O   0  0  0  0  0  0  0  0  0  0  0  0
    1.9506   -0.3504   -0.3117 C   0  0  0  0  0  0  0  0  0  0  0  0
    0.9771   -1.4255    0.0995 C   0  0  0  0  0  0  0  0  0  0  0  0
   -0.4638   -1.3024   -0.1618 C   0  0  0  0  0  0  0  0  0  0  0  0
    0.1181   -0.7613    1.0832 C   0  0  0  0  0  0  0  0  0  0  0  0
   -2.6333    0.0299    0.9456 H   0  0  0  0  0  0  0  0  0  0  0  0
   -3.0995   -0.4346   -0.7407 H   0  0  0  0  0  0  0  0  0  0  0  0
   -2.7637    1.2837   -0.3154 H   0  0  0  0  0  0  0  0  0  0  0  0
   -0.7786    0.4716   -1.4702 H   0  0  0  0  0  0  0  0  0  0  0  0
   -0.5179    1.3540    1.2613 H   0  0  0  0  0  0  0  0  0  0  0  0
    1.7977    1.6065    0.6522 H   0  0  0  0  0  0  0  0  0  0  0  0
    1.3544    2.5694   -1.1888 H   0  0  0  0  0  0  0  0  0  0  0  0
    2.7996   -0.4017    0.4266 H   0  0  0  0  0  0  0  0  0  0  0  0
    2.3234   -0.4441   -1.3295 H   0  0  0  0  0  0  0  0  0  0  0  0
    1.3975   -2.4076    0.3980 H   0  0  0  0  0  0  0  0  0  0  0  0
   -1.0904   -2.1842   -0.1001 H   0  0  0  0  0  0  0  0  0  0  0  0
   -0.1033   -1.1048    2.0758 H   0  0  0  0  0  0  0  0  0  0  0  0
  1  2  1  0
  2  3  1  0
  3  4  1  0
  4  5  1  0
  4  6  1  0
  6  7  1  0
  7  8  1  0
  8  9  1  0
  8  2  1  0
  9  3  1  0
  9  7  1  0
  1 10  1  0
  1 11  1  0
  1 12  1  0
  2 13  1  0
  3 14  1  0
  4 15  1  0
  5 16  1  0
  6 17  1  0
  6 18  1  0
  7 19  1  0
  8 20  1  0
  9 21  1  0
M  END
