
     RDKit          3D

 23 23  0  0  0  0  0  0  0  0999 V2000
    3.1415    0.3540   -0.2437 C   0  0  0  0  0  0  0  0  0  0  0  0
    1.9023   -0.2219    0.3885 C   0  0  0  0  0  0  0  0  0  0  0  0
    0.8811   -0.7590   -0.6220 C   0  0  0  0  0  0  0  0  0  0  0  0
   -0.1452   -0.2393    0.3847 C   0  0  0  0  0  0  0  0  0  0  0  0
   -1.4033    0.3070   -0.2338 C   0  0  0  0  0  0  0  0  0  0  0  0
   -2.2758    0.7635    0.9320 C   0  0  0  0  0  0  0  0  0  0  0  0
   -2.1675   -0.7840   -0.9525 C   0  0  0  0  0  0  0  0  0  0  0  0
    0.8673    0.7752    0.7675 C   0  0  0  0  0  0  0  0  0  0  0  0
    0.8319    1.9102    1.1974 O   0  0  0  0  0  0  0  0  0  0  0  0
    2.9358    1.0543   -1.0537 H   0  0  0  0  0  0  0  0  0  0  0  0
    3.7689   -0.5155   -0.5617 H   0  0  0  0  0  0  0  0  0  0  0  0
    3.7042    0.8748    0.5473 H   0  0  0  0  0  0  0  0  0  0  0  0
    2.1602   -0.9587    1.1628 H   0  0  0  0  0  0  0  0  0  0  0  0
    0.9138   -0.1689   -1.5625 H   0  0  0  0  0  0  0  0  0  0  0  0
    0.8899   -1.8501   -0.7436 H   0  0  0  0  0  0  0  0  0  0  0  0
   -0.3191   -1.0116    1.1455 H   0  0  0  0  0  0  0  0  0  0  0  0
   -1.2116    1.1604   -0.8918 H   0  0  0  0  0  0  0  0  0  0  0  0
   -3.2804    1.0565    0.6130 H   0  0  0  0  0  0  0  0  0  0  0  0
   -1.7162    1.5919    1.4224 H   0  0  0  0  0  0  0  0  0  0  0  0
   -2.3061   -0.1137    1.6343 H   0  0  0  0  0  0  0  0  0  0  0  0
   -2.0246   -1.7486   -0.3890 H   0  0  0  0  0  0  0  0  0  0  0  0
   -3.2745   -0.5932   -0.9293 H   0  0  0  0  0  0  0  0  0  0  0  0
   -1.8726   -0.8830   -2.0116 H   0  0  0  0  0  0  0  0  0  0  0  0
  1  2  1  0
  2  3  1  0
  3  4  1  0
  4  5  1  0
  5  6  1  0
  5  7  1  0
  4  8  1  0
  8  9  2  0
  8  2  1  0
  1 10  1  0
  1 11  1  0
  1 12  1  0
  2 13  1  0
  3 14  1  0
  3 15  1  0
  4 16  1  0
  5 17  1  0
  6 18  1  0
  6 19  1  0
  6 20  1  0
  7 21  1  0
  7 22  1  0
  7 23  1  0
M  END
