
     RDKit          3D

 23 24  0  0  0  0  0  0  0  0999 V2000
   -3.5882    0.4930    0.5289 C   0  0  0  0  0  0  0  0  0  0  0  0
   -2.4424   -0.4968    0.5493 C   0  0  0  0  0  0  0  0  0  0  0  0
   -1.8875   -0.7718   -0.8342 C   0  0  0  0  0  0  0  0  0  0  0  0
   -1.1037   -0.0026    0.2509 C   0  0  0  0  0  0  0  0  0  0  0  0
    0.0654   -0.6150    0.5869 O   0  0  0  0  0  0  0  0  0  0  0  0
    1.1738    0.1761    0.6737 C   0  0  0  0  0  0  0  0  0  0  0  0
    2.3772   -0.1485    1.4363 C   0  0  0  0  0  0  0  0  0  0  0  0
    2.4071   -0.4359   -0.0157 C   0  0  0  0  0  0  0  0  0  0  0  0
    3.2050    0.4867   -0.9168 C   0  0  0  0  0  0  0  0  0  0  0  0
   -4.2164    0.2599   -0.3811 H   0  0  0  0  0  0  0  0  0  0  0  0
   -4.2487    0.3386    1.3865 H   0  0  0  0  0  0  0  0  0  0  0  0
   -3.2338    1.5404    0.4542 H   0  0  0  0  0  0  0  0  0  0  0  0
   -2.6341   -1.3855    1.1868 H   0  0  0  0  0  0  0  0  0  0  0  0
   -1.6118   -1.8066   -1.0402 H   0  0  0  0  0  0  0  0  0  0  0  0
   -2.2429   -0.1856   -1.6967 H   0  0  0  0  0  0  0  0  0  0  0  0
   -1.0084    1.1035    0.0826 H   0  0  0  0  0  0  0  0  0  0  0  0
    0.9964    1.2533    0.4561 H   0  0  0  0  0  0  0  0  0  0  0  0
    2.3092   -1.0406    2.1050 H   0  0  0  0  0  0  0  0  0  0  0  0
    3.0367    0.6547    1.7801 H   0  0  0  0  0  0  0  0  0  0  0  0
    2.3538   -1.4631   -0.3754 H   0  0  0  0  0  0  0  0  0  0  0  0
    3.4998    1.4187   -0.4430 H   0  0  0  0  0  0  0  0  0  0  0  0
    4.1233   -0.0691   -1.1963 H   0  0  0  0  0  0  0  0  0  0  0  0
    2.6702    0.6963   -1.8671 H   0  0  0  0  0  0  0  0  0  0  0  0
  1  2  1  0
  2  3  1  0
  3  4  1  0
  4  5  1  0
  5  6  1  0
  6  7  1  0
  7  8  1  0
  8  9  1  0
  4  2  1  0
  8  6  1  0
  1 10  1  0
  1 11  1  0
  1 12  1  0
  2 13  1  0
  3 14  1  0
  3 15  1  0
  4 16  1  0
  6 17  1  0
  7 18  1  0
  7 19  1  0
  8 20  1  0
  9 21  1  0
  9 22  1  0
  9 23  1  0
M  END
