
     RDKit          3D

 21 21  0  0  0  0  0  0  0  0999 V2000
    2.7028    0.3624   -0.2857 C   0  0  0  0  0  0  0  0  0  0  0  0
    1.2096    0.3787   -0.3489 C   0  0  0  0  0  0  0  0  0  0  0  0
    0.5654    0.4431    1.0173 C   0  0  0  0  0  0  0  0  0  0  0  0
   -0.7663    0.1797    0.9144 O   0  0  0  0  0  0  0  0  0  0  0  0
   -1.2739    0.0411   -0.3392 C   0  0  0  0  0  0  0  0  0  0  0  0
   -2.7054   -0.4986   -0.1837 C   0  0  0  0  0  0  0  0  0  0  0  0
   -3.3960    0.4513    0.5640 O   0  0  0  0  0  0  0  0  0  0  0  0
   -0.6177   -0.8280   -1.1670 O   0  0  0  0  0  0  0  0  0  0  0  0
    0.7320   -0.9358   -0.9638 C   0  0  0  0  0  0  0  0  0  0  0  0
    3.0830    0.6148   -1.3094 H   0  0  0  0  0  0  0  0  0  0  0  0
    3.1365    0.9914    0.4978 H   0  0  0  0  0  0  0  0  0  0  0  0
    3.0598   -0.6866   -0.0785 H   0  0  0  0  0  0  0  0  0  0  0  0
    0.8473    1.2195   -0.9572 H   0  0  0  0  0  0  0  0  0  0  0  0
    1.0294   -0.3982    1.6100 H   0  0  0  0  0  0  0  0  0  0  0  0
    0.7777    1.3673    1.5615 H   0  0  0  0  0  0  0  0  0  0  0  0
   -1.4094    1.0254   -0.8735 H   0  0  0  0  0  0  0  0  0  0  0  0
   -2.5909   -1.4409    0.4116 H   0  0  0  0  0  0  0  0  0  0  0  0
   -3.1563   -0.7264   -1.1472 H   0  0  0  0  0  0  0  0  0  0  0  0
   -3.4469    1.2709    0.0086 H   0  0  0  0  0  0  0  0  0  0  0  0
    0.9004   -1.7657   -0.2353 H   0  0  0  0  0  0  0  0  0  0  0  0
    1.3188   -1.0655   -1.8911 H   0  0  0  0  0  0  0  0  0  0  0  0
  1  2  1  0
  2  3  1  0
  3  4  1  0
  4  5  1  0
  5  6  1  0
  6  7  1  0
  5  8  1  0
  8  9  1  0
  9  2  1  0
  1 10  1  0
  1 11  1  0
  1 12  1  0
  2 13  1  0
  3 14  1  0
  3 15  1  0
  5 16  1  0
  6 17  1  0
  6 18  1  0
  7 19  1  0
  9 20  1  0
  9 21  1  0
M  END
