
     RDKit          3D

 21 23  0  0  0  0  0  0  0  0999 V2000
    2.2123    0.5708   -0.2941 C   0  0  0  0  0  0  0  0  0  0  0  0
    0.7893    0.1104   -0.4308 C   0  0  0  0  0  0  0  0  0  0  0  0
    0.7240   -1.3373   -0.0043 C   0  0  0  0  0  0  0  0  0  0  0  0
   -0.7220   -1.5177    0.2830 C   0  0  0  0  0  0  0  0  0  0  0  0
   -1.7840   -0.6737   -0.2651 C   0  0  0  0  0  0  0  0  0  0  0  0
   -1.5870    0.3613   -1.1376 O   0  0  0  0  0  0  0  0  0  0  0  0
   -1.1985    1.4828   -0.4010 C   0  0  0  0  0  0  0  0  0  0  0  0
   -0.1607    0.7853    0.4963 C   0  0  0  0  0  0  0  0  0  0  0  0
   -1.0436   -0.3039    1.0327 C   0  0  0  0  0  0  0  0  0  0  0  0
    2.7450    0.2600   -1.2217 H   0  0  0  0  0  0  0  0  0  0  0  0
    2.2908    1.6804   -0.2398 H   0  0  0  0  0  0  0  0  0  0  0  0
    2.7211    0.0925    0.5475 H   0  0  0  0  0  0  0  0  0  0  0  0
    0.5060    0.1649   -1.5016 H   0  0  0  0  0  0  0  0  0  0  0  0
    1.1454   -2.0264   -0.7525 H   0  0  0  0  0  0  0  0  0  0  0  0
    1.2707   -1.3996    0.9796 H   0  0  0  0  0  0  0  0  0  0  0  0
   -1.0190   -2.5128    0.6694 H   0  0  0  0  0  0  0  0  0  0  0  0
   -2.8161   -0.9970   -0.1369 H   0  0  0  0  0  0  0  0  0  0  0  0
   -2.0363    1.8186    0.2166 H   0  0  0  0  0  0  0  0  0  0  0  0
   -0.7317    2.2354   -1.0271 H   0  0  0  0  0  0  0  0  0  0  0  0
    0.2701    1.4415    1.2296 H   0  0  0  0  0  0  0  0  0  0  0  0
   -1.5758   -0.2355    1.9578 H   0  0  0  0  0  0  0  0  0  0  0  0
  1  2  1  0
  2  3  1  0
  3  4  1  0
  4  5  1  0
  5  6  1  0
  6  7  1  0
  7  8  1  0
  8  9  1  0
  8  2  1  0
  9  4  1  0
  9  5  1  0
  1 10  1  0
  1 11  1  0
  1 12  1  0
  2 13  1  0
  3 14  1  0
  3 15  1  0
  4 16  1  0
  5 17  1  0
  7 18  1  0
  7 19  1  0
  8 20  1  0
  9 21  1  0
M  END
