
     RDKit          3D

 23 24  0  0  0  0  0  0  0  0999 V2000
   -2.8250   -0.1597    0.1517 C   0  0  0  0  0  0  0  0  0  0  0  0
   -1.5473   -0.5573   -0.5385 C   0  0  0  0  0  0  0  0  0  0  0  0
   -0.7324   -1.3910    0.4149 C   0  0  0  0  0  0  0  0  0  0  0  0
    0.6719   -0.8563    0.3945 C   0  0  0  0  0  0  0  0  0  0  0  0
    0.9291    0.0996    1.3661 O   0  0  0  0  0  0  0  0  0  0  0  0
    1.4578    0.9404    0.3930 C   0  0  0  0  0  0  0  0  0  0  0  0
    2.9548    0.8460    0.3846 C   0  0  0  0  0  0  0  0  0  0  0  0
    0.7322    0.1977   -0.6837 C   0  0  0  0  0  0  0  0  0  0  0  0
   -0.6808    0.6597   -0.8324 C   0  0  0  0  0  0  0  0  0  0  0  0
   -3.5819   -0.9712    0.0061 H   0  0  0  0  0  0  0  0  0  0  0  0
   -3.2459    0.7917   -0.2062 H   0  0  0  0  0  0  0  0  0  0  0  0
   -2.6025   -0.0979    1.2465 H   0  0  0  0  0  0  0  0  0  0  0  0
   -1.7433   -1.0768   -1.5056 H   0  0  0  0  0  0  0  0  0  0  0  0
   -0.7855   -2.4812    0.1881 H   0  0  0  0  0  0  0  0  0  0  0  0
   -1.1123   -1.2901    1.4631 H   0  0  0  0  0  0  0  0  0  0  0  0
    1.4754   -1.5988    0.2261 H   0  0  0  0  0  0  0  0  0  0  0  0
    1.1253    1.9920    0.4276 H   0  0  0  0  0  0  0  0  0  0  0  0
    3.3446    1.0258    1.4251 H   0  0  0  0  0  0  0  0  0  0  0  0
    3.4208    1.6525   -0.2360 H   0  0  0  0  0  0  0  0  0  0  0  0
    3.3309   -0.1467    0.0397 H   0  0  0  0  0  0  0  0  0  0  0  0
    1.2811   -0.0604   -1.5883 H   0  0  0  0  0  0  0  0  0  0  0  0
   -0.9335    1.4332   -0.0609 H   0  0  0  0  0  0  0  0  0  0  0  0
   -0.9336    1.0489   -1.8276 H   0  0  0  0  0  0  0  0  0  0  0  0
  1  2  1  0
  2  3  1  0
  3  4  1  0
  4  5  1  0
  5  6  1  0
  6  7  1  0
  6  8  1  0
  8  9  1  0
  9  2  1  0
  8  4  1  0
  1 10  1  0
  1 11  1  0
  1 12  1  0
  2 13  1  0
  3 14  1  0
  3 15  1  0
  4 16  1  0
  6 17  1  0
  7 18  1  0
  7 19  1  0
  7 20  1  0
  8 21  1  0
  9 22  1  0
  9 23  1  0
M  END
