
     RDKit          3D

 21 21  0  0  0  0  0  0  0  0999 V2000
    2.7941    0.0935    0.7254 C   0  0  0  0  0  0  0  0  0  0  0  0
    1.3010    0.1603    0.4624 C   0  0  0  0  0  0  0  0  0  0  0  0
    1.0071    0.3151   -0.9895 C   0  0  0  0  0  0  0  0  0  0  0  0
   -0.2490    0.1063   -1.3642 C   0  0  0  0  0  0  0  0  0  0  0  0
   -1.2335   -0.2585   -0.3109 C   0  0  0  0  0  0  0  0  0  0  0  0
   -1.9318    0.9826    0.2342 C   0  0  0  0  0  0  0  0  0  0  0  0
   -2.2306   -1.0122   -0.9387 O   0  0  0  0  0  0  0  0  0  0  0  0
   -0.6268   -1.0856    0.7734 C   0  0  0  0  0  0  0  0  0  0  0  0
    0.7273   -1.0132    0.8818 O   0  0  0  0  0  0  0  0  0  0  0  0
    3.1920   -0.9242    0.6746 H   0  0  0  0  0  0  0  0  0  0  0  0
    3.3641    0.7993    0.1033 H   0  0  0  0  0  0  0  0  0  0  0  0
    2.9617    0.4337    1.7895 H   0  0  0  0  0  0  0  0  0  0  0  0
    0.9199    1.0357    1.0416 H   0  0  0  0  0  0  0  0  0  0  0  0
    1.8162    0.5852   -1.6557 H   0  0  0  0  0  0  0  0  0  0  0  0
   -0.4865    0.2120   -2.4067 H   0  0  0  0  0  0  0  0  0  0  0  0
   -2.4846    0.7000    1.1318 H   0  0  0  0  0  0  0  0  0  0  0  0
   -1.2531    1.8301    0.3565 H   0  0  0  0  0  0  0  0  0  0  0  0
   -2.6781    1.2890   -0.5537 H   0  0  0  0  0  0  0  0  0  0  0  0
   -2.8658   -1.2666   -0.1979 H   0  0  0  0  0  0  0  0  0  0  0  0
   -0.8960   -2.1750    0.6361 H   0  0  0  0  0  0  0  0  0  0  0  0
   -1.1475   -0.8074    1.7366 H   0  0  0  0  0  0  0  0  0  0  0  0
  1  2  1  0
  2  3  1  0
  3  4  2  0
  4  5  1  0
  5  6  1  0
  5  7  1  0
  5  8  1  0
  8  9  1  0
  9  2  1  0
  1 10  1  0
  1 11  1  0
  1 12  1  0
  2 13  1  0
  3 14  1  0
  4 15  1  0
  6 16  1  0
  6 17  1  0
  6 18  1  0
  7 19  1  0
  8 20  1  0
  8 21  1  0
M  END
