
     RDKit          3D

 23 24  0  0  0  0  0  0  0  0999 V2000
    2.4471    0.1718    0.2714 C   0  0  0  0  0  0  0  0  0  0  0  0
    1.0365   -0.2065    0.4835 C   0  0  0  0  0  0  0  0  0  0  0  0
   -0.0199    0.8501    0.2816 C   0  0  0  0  0  0  0  0  0  0  0  0
    0.2456    0.7218   -1.1766 C   0  0  0  0  0  0  0  0  0  0  0  0
    1.4165    1.2215   -1.6802 O   0  0  0  0  0  0  0  0  0  0  0  0
    0.2400   -0.6961   -0.6862 C   0  0  0  0  0  0  0  0  0  0  0  0
   -0.9596   -0.3197    0.1275 C   0  0  0  0  0  0  0  0  0  0  0  0
   -2.2364   -0.1000   -0.5689 C   0  0  0  0  0  0  0  0  0  0  0  0
   -1.1556   -1.0576    1.4268 C   0  0  0  0  0  0  0  0  0  0  0  0
    3.1194   -0.2235    1.0927 H   0  0  0  0  0  0  0  0  0  0  0  0
    2.5947    1.2829    0.3325 H   0  0  0  0  0  0  0  0  0  0  0  0
    2.9111   -0.2516   -0.6614 H   0  0  0  0  0  0  0  0  0  0  0  0
    0.9147   -0.7663    1.4355 H   0  0  0  0  0  0  0  0  0  0  0  0
   -0.1654    1.6702    0.8328 H   0  0  0  0  0  0  0  0  0  0  0  0
   -0.5824    1.0206   -1.8472 H   0  0  0  0  0  0  0  0  0  0  0  0
    1.4594    2.1901   -1.6300 H   0  0  0  0  0  0  0  0  0  0  0  0
    0.3829   -1.5300   -1.2226 H   0  0  0  0  0  0  0  0  0  0  0  0
   -2.6739    0.8913   -0.2530 H   0  0  0  0  0  0  0  0  0  0  0  0
   -2.9686   -0.8645   -0.2292 H   0  0  0  0  0  0  0  0  0  0  0  0
   -2.2141   -0.1831   -1.6702 H   0  0  0  0  0  0  0  0  0  0  0  0
   -0.8901   -0.4484    2.3201 H   0  0  0  0  0  0  0  0  0  0  0  0
   -2.2469   -1.3115    1.5885 H   0  0  0  0  0  0  0  0  0  0  0  0
   -0.6549   -2.0615    1.4325 H   0  0  0  0  0  0  0  0  0  0  0  0
  1  2  1  0
  2  3  1  0
  3  4  1  0
  4  5  1  0
  4  6  1  0
  6  7  1  0
  7  8  1  0
  7  9  1  0
  6  2  1  0
  7  3  1  0
  1 10  1  0
  1 11  1  0
  1 12  1  0
  2 13  1  0
  3 14  1  0
  4 15  1  0
  5 16  1  0
  6 17  1  0
  8 18  1  0
  8 19  1  0
  8 20  1  0
  9 21  1  0
  9 22  1  0
  9 23  1  0
M  END
