
     RDKit          3D

 19 20  0  0  0  0  0  0  0  0999 V2000
   -2.1410    0.2401   -0.5406 C   0  0  0  0  0  0  0  0  0  0  0  0
   -0.7323    0.4285   -0.0778 C   0  0  0  0  0  0  0  0  0  0  0  0
   -0.3234   -0.6427    0.9489 C   0  0  0  0  0  0  0  0  0  0  0  0
    0.6007   -1.4635    0.1466 C   0  0  0  0  0  0  0  0  0  0  0  0
    1.8714   -1.4629   -0.1377 O   0  0  0  0  0  0  0  0  0  0  0  0
    1.4161   -0.2572   -0.4195 C   0  0  0  0  0  0  0  0  0  0  0  0
    1.9019    0.7627    0.5929 C   0  0  0  0  0  0  0  0  0  0  0  0
    0.2666    0.2312   -1.1682 C   0  0  0  0  0  0  0  0  0  0  0  0
    0.0770    0.4460   -2.3209 O   0  0  0  0  0  0  0  0  0  0  0  0
   -2.1093   -0.2941   -1.5130 H   0  0  0  0  0  0  0  0  0  0  0  0
   -2.8100   -0.2233    0.1980 H   0  0  0  0  0  0  0  0  0  0  0  0
   -2.5568    1.2602   -0.7531 H   0  0  0  0  0  0  0  0  0  0  0  0
   -0.6332    1.3938    0.4330 H   0  0  0  0  0  0  0  0  0  0  0  0
   -1.2326   -1.2341    1.2013 H   0  0  0  0  0  0  0  0  0  0  0  0
    0.0524   -0.2154    1.8691 H   0  0  0  0  0  0  0  0  0  0  0  0
    0.0222   -2.0610   -0.6301 H   0  0  0  0  0  0  0  0  0  0  0  0
    1.3748    1.7361    0.5387 H   0  0  0  0  0  0  0  0  0  0  0  0
    1.9918    0.3556    1.6092 H   0  0  0  0  0  0  0  0  0  0  0  0
    2.9636    1.0001    0.2800 H   0  0  0  0  0  0  0  0  0  0  0  0
  1  2  1  0
  2  3  1  0
  3  4  1  0
  4  5  1  0
  5  6  1  0
  6  7  1  0
  6  8  1  0
  8  9  2  0
  8  2  1  0
  6  4  1  0
  1 10  1  0
  1 11  1  0
  1 12  1  0
  2 13  1  0
  3 14  1  0
  3 15  1  0
  4 16  1  0
  7 17  1  0
  7 18  1  0
  7 19  1  0
M  END
