
     RDKit          3D

 21 22  0  0  0  0  0  0  0  0999 V2000
   -0.8503   -1.8492   -0.6372 C   0  0  0  0  0  0  0  0  0  0  0  0
   -0.5671   -0.3864   -0.5398 C   0  0  0  0  0  0  0  0  0  0  0  0
   -1.3584    0.2124    0.6224 C   0  0  0  0  0  0  0  0  0  0  0  0
   -1.3597    1.7060    0.5383 C   0  0  0  0  0  0  0  0  0  0  0  0
   -0.1756    2.2766    0.3644 C   0  0  0  0  0  0  0  0  0  0  0  0
    1.0020    1.3508    0.3630 C   0  0  0  0  0  0  0  0  0  0  0  0
    0.5550   -0.0921    0.3976 C   0  0  0  0  0  0  0  0  0  0  0  0
    1.7177   -1.0187    0.4034 C   0  0  0  0  0  0  0  0  0  0  0  0
   -0.3410   -0.2302    1.4592 O   0  0  0  0  0  0  0  0  0  0  0  0
   -0.8694   -2.2591    0.3999 H   0  0  0  0  0  0  0  0  0  0  0  0
   -0.0793   -2.4262   -1.1821 H   0  0  0  0  0  0  0  0  0  0  0  0
   -1.8310   -2.0768   -1.1067 H   0  0  0  0  0  0  0  0  0  0  0  0
   -0.6171    0.1966   -1.4702 H   0  0  0  0  0  0  0  0  0  0  0  0
   -2.3367   -0.2599    0.7401 H   0  0  0  0  0  0  0  0  0  0  0  0
   -2.3045    2.2264    0.6221 H   0  0  0  0  0  0  0  0  0  0  0  0
   -0.0710    3.3429    0.2320 H   0  0  0  0  0  0  0  0  0  0  0  0
    1.6962    1.5624   -0.4714 H   0  0  0  0  0  0  0  0  0  0  0  0
    1.5539    1.5417    1.3081 H   0  0  0  0  0  0  0  0  0  0  0  0
    2.6884   -0.4707    0.2668 H   0  0  0  0  0  0  0  0  0  0  0  0
    1.6934   -1.7879   -0.3890 H   0  0  0  0  0  0  0  0  0  0  0  0
    1.8543   -1.5585    1.3864 H   0  0  0  0  0  0  0  0  0  0  0  0
  1  2  1  0
  2  3  1  0
  3  4  1  0
  4  5  2  0
  5  6  1  0
  6  7  1  0
  7  8  1  0
  7  9  1  0
  7  2  1  0
  9  3  1  0
  1 10  1  0
  1 11  1  0
  1 12  1  0
  2 13  1  0
  3 14  1  0
  4 15  1  0
  5 16  1  0
  6 17  1  0
  6 18  1  0
  8 19  1  0
  8 20  1  0
  8 21  1  0
M  END
