
     RDKit          3D

 21 22  0  0  0  0  0  0  0  0999 V2000
    2.2417    0.0226    0.2049 C   0  0  0  0  0  0  0  0  0  0  0  0
    0.9805    0.2457   -0.5901 C   0  0  0  0  0  0  0  0  0  0  0  0
    0.1636   -1.0591   -0.7043 C   0  0  0  0  0  0  0  0  0  0  0  0
   -1.0560   -0.6505    0.0691 C   0  0  0  0  0  0  0  0  0  0  0  0
   -2.0512   -1.4960    0.2820 O   0  0  0  0  0  0  0  0  0  0  0  0
   -0.4135    0.0452    1.2794 C   0  0  0  0  0  0  0  0  0  0  0  0
    0.0033    1.0618    0.2041 C   0  0  0  0  0  0  0  0  0  0  0  0
   -1.3761    0.7760   -0.3790 C   0  0  0  0  0  0  0  0  0  0  0  0
   -1.5136    0.9624   -1.7200 O   0  0  0  0  0  0  0  0  0  0  0  0
    2.2885   -1.0670    0.4535 H   0  0  0  0  0  0  0  0  0  0  0  0
    2.2384    0.5494    1.1798 H   0  0  0  0  0  0  0  0  0  0  0  0
    3.1644    0.2359   -0.3679 H   0  0  0  0  0  0  0  0  0  0  0  0
    1.1645    0.6452   -1.5938 H   0  0  0  0  0  0  0  0  0  0  0  0
   -0.0218   -1.3338   -1.7382 H   0  0  0  0  0  0  0  0  0  0  0  0
    0.7311   -1.8362   -0.1383 H   0  0  0  0  0  0  0  0  0  0  0  0
   -1.8930   -2.1663    0.9607 H   0  0  0  0  0  0  0  0  0  0  0  0
    0.4466   -0.4723    1.7020 H   0  0  0  0  0  0  0  0  0  0  0  0
   -1.1223    0.5241    1.9592 H   0  0  0  0  0  0  0  0  0  0  0  0
    0.2344    2.0436    0.5164 H   0  0  0  0  0  0  0  0  0  0  0  0
   -2.1456    1.1870    0.2927 H   0  0  0  0  0  0  0  0  0  0  0  0
   -2.0639    1.7826   -1.8723 H   0  0  0  0  0  0  0  0  0  0  0  0
  1  2  1  0
  2  3  1  0
  3  4  1  0
  4  5  1  0
  4  6  1  0
  6  7  1  0
  7  8  1  0
  8  9  1  0
  7  2  1  0
  8  4  1  0
  1 10  1  0
  1 11  1  0
  1 12  1  0
  2 13  1  0
  3 14  1  0
  3 15  1  0
  5 16  1  0
  6 17  1  0
  6 18  1  0
  7 19  1  0
  8 20  1  0
  9 21  1  0
M  END
