
     RDKit          3D

 18 18  0  0  0  0  0  0  0  0999 V2000
    1.5444   -0.3286    0.4092 C   0  0  0  0  0  0  0  0  0  0  0  0
    0.4910    0.1859   -0.4946 C   0  0  0  0  0  0  0  0  0  0  0  0
    0.2498    1.6703   -0.1942 C   0  0  0  0  0  0  0  0  0  0  0  0
   -0.8828    1.5940    0.7625 C   0  0  0  0  0  0  0  0  0  0  0  0
   -1.3272    2.5630    1.4326 O   0  0  0  0  0  0  0  0  0  0  0  0
   -1.3700    0.2917    0.7997 O   0  0  0  0  0  0  0  0  0  0  0  0
   -0.8590   -0.3886   -0.3282 C   0  0  0  0  0  0  0  0  0  0  0  0
   -0.9122   -1.8742   -0.1827 C   0  0  0  0  0  0  0  0  0  0  0  0
    2.5124   -0.4247   -0.1658 H   0  0  0  0  0  0  0  0  0  0  0  0
    1.3655   -1.3057    0.8577 H   0  0  0  0  0  0  0  0  0  0  0  0
    1.7831    0.4279    1.2070 H   0  0  0  0  0  0  0  0  0  0  0  0
    0.8142    0.1163   -1.5519 H   0  0  0  0  0  0  0  0  0  0  0  0
   -0.0960    2.1811   -1.1350 H   0  0  0  0  0  0  0  0  0  0  0  0
    1.1423    2.1447    0.2302 H   0  0  0  0  0  0  0  0  0  0  0  0
   -1.4867   -0.1047   -1.1931 H   0  0  0  0  0  0  0  0  0  0  0  0
   -0.5244   -2.3478   -1.0809 H   0  0  0  0  0  0  0  0  0  0  0  0
   -2.0029   -2.1545   -0.1236 H   0  0  0  0  0  0  0  0  0  0  0  0
   -0.4415   -2.2462    0.7511 H   0  0  0  0  0  0  0  0  0  0  0  0
  1  2  1  0
  2  3  1  0
  3  4  1  0
  4  5  2  0
  4  6  1  0
  6  7  1  0
  7  8  1  0
  7  2  1  0
  1  9  1  0
  1 10  1  0
  1 11  1  0
  2 12  1  0
  3 13  1  0
  3 14  1  0
  7 15  1  0
  8 16  1  0
  8 17  1  0
  8 18  1  0
M  END
