
     RDKit          3D

 21 21  0  0  0  0  0  0  0  0999 V2000
   -2.2763    0.5379   -0.0750 C   0  0  0  0  0  0  0  0  0  0  0  0
   -1.3242   -0.4559   -0.6977 C   0  0  0  0  0  0  0  0  0  0  0  0
   -0.7734   -1.3095    0.4284 C   0  0  0  0  0  0  0  0  0  0  0  0
    0.2842   -0.4412    1.0267 C   0  0  0  0  0  0  0  0  0  0  0  0
    0.7479    0.5125   -0.0709 C   0  0  0  0  0  0  0  0  0  0  0  0
    2.2167    0.2887   -0.3642 C   0  0  0  0  0  0  0  0  0  0  0  0
    3.0247    0.4959    0.7190 O   0  0  0  0  0  0  0  0  0  0  0  0
   -0.1044    0.1777   -1.2241 C   0  0  0  0  0  0  0  0  0  0  0  0
    0.1350    0.3769   -2.3832 O   0  0  0  0  0  0  0  0  0  0  0  0
   -2.7242    1.2170   -0.8474 H   0  0  0  0  0  0  0  0  0  0  0  0
   -1.7646    1.1254    0.7227 H   0  0  0  0  0  0  0  0  0  0  0  0
   -3.1211   -0.0505    0.3485 H   0  0  0  0  0  0  0  0  0  0  0  0
   -1.8820   -1.0506   -1.4428 H   0  0  0  0  0  0  0  0  0  0  0  0
   -0.4087   -2.2475   -0.0105 H   0  0  0  0  0  0  0  0  0  0  0  0
   -1.5392   -1.4963    1.2175 H   0  0  0  0  0  0  0  0  0  0  0  0
   -0.1420    0.1620    1.8493 H   0  0  0  0  0  0  0  0  0  0  0  0
    1.0988   -1.0847    1.3881 H   0  0  0  0  0  0  0  0  0  0  0  0
    0.6271    1.5736    0.2659 H   0  0  0  0  0  0  0  0  0  0  0  0
    2.5186    0.9871   -1.1651 H   0  0  0  0  0  0  0  0  0  0  0  0
    2.3721   -0.7552   -0.7146 H   0  0  0  0  0  0  0  0  0  0  0  0
    3.0350    1.4366    1.0294 H   0  0  0  0  0  0  0  0  0  0  0  0
  1  2  1  0
  2  3  1  0
  3  4  1  0
  4  5  1  0
  5  6  1  0
  6  7  1  0
  5  8  1  0
  8  9  2  0
  8  2  1  0
  1 10  1  0
  1 11  1  0
  1 12  1  0
  2 13  1  0
  3 14  1  0
  3 15  1  0
  4 16  1  0
  4 17  1  0
  5 18  1  0
  6 19  1  0
  6 20  1  0
  7 21  1  0
M  END
