
     RDKit          3D

 23 23  0  0  0  0  0  0  0  0999 V2000
    2.5677   -0.9490    0.6694 C   0  0  0  0  0  0  0  0  0  0  0  0
    1.2225   -0.3723    0.3461 C   0  0  0  0  0  0  0  0  0  0  0  0
    0.6122   -0.9738   -0.8994 C   0  0  0  0  0  0  0  0  0  0  0  0
   -0.5994   -0.0325   -1.0095 C   0  0  0  0  0  0  0  0  0  0  0  0
   -1.6770   -0.6783   -0.1949 C   0  0  0  0  0  0  0  0  0  0  0  0
   -2.8626    0.0086   -0.1584 O   0  0  0  0  0  0  0  0  0  0  0  0
   -0.0340    1.2134   -0.4635 C   0  0  0  0  0  0  0  0  0  0  0  0
   -0.8339    1.8803    0.6067 C   0  0  0  0  0  0  0  0  0  0  0  0
    1.2647    0.9590   -0.0248 O   0  0  0  0  0  0  0  0  0  0  0  0
    2.8303   -0.6294    1.6962 H   0  0  0  0  0  0  0  0  0  0  0  0
    3.3362   -0.7076   -0.0696 H   0  0  0  0  0  0  0  0  0  0  0  0
    2.4380   -2.0638    0.7208 H   0  0  0  0  0  0  0  0  0  0  0  0
    0.5876   -0.4548    1.2314 H   0  0  0  0  0  0  0  0  0  0  0  0
    0.3237   -2.0104   -0.7975 H   0  0  0  0  0  0  0  0  0  0  0  0
    1.2543   -0.7360   -1.7569 H   0  0  0  0  0  0  0  0  0  0  0  0
   -0.9371    0.0305   -2.0551 H   0  0  0  0  0  0  0  0  0  0  0  0
   -1.8917   -1.6732   -0.6796 H   0  0  0  0  0  0  0  0  0  0  0  0
   -1.3590   -0.9212    0.8389 H   0  0  0  0  0  0  0  0  0  0  0  0
   -3.3185   -0.1744    0.6949 H   0  0  0  0  0  0  0  0  0  0  0  0
    0.0711    1.9601   -1.3036 H   0  0  0  0  0  0  0  0  0  0  0  0
   -0.2775    2.8130    0.8947 H   0  0  0  0  0  0  0  0  0  0  0  0
   -0.9144    1.2778    1.5120 H   0  0  0  0  0  0  0  0  0  0  0  0
   -1.8032    2.2339    0.2019 H   0  0  0  0  0  0  0  0  0  0  0  0
  1  2  1  0
  2  3  1  0
  3  4  1  0
  4  5  1  0
  5  6  1  0
  4  7  1  0
  7  8  1  0
  7  9  1  0
  9  2  1  0
  1 10  1  0
  1 11  1  0
  1 12  1  0
  2 13  1  0
  3 14  1  0
  3 15  1  0
  4 16  1  0
  5 17  1  0
  5 18  1  0
  6 19  1  0
  7 20  1  0
  8 21  1  0
  8 22  1  0
  8 23  1  0
M  END
