
     RDKit          3D

 25 25  0  0  0  0  0  0  0  0999 V2000
   -2.6435    0.8838   -0.5000 C   0  0  0  0  0  0  0  0  0  0  0  0
   -1.1833    0.5359   -0.3413 C   0  0  0  0  0  0  0  0  0  0  0  0
   -0.7996   -0.5452   -1.3089 C   0  0  0  0  0  0  0  0  0  0  0  0
    0.5148   -1.1673   -1.0801 C   0  0  0  0  0  0  0  0  0  0  0  0
    1.2911   -0.7571    0.1043 C   0  0  0  0  0  0  0  0  0  0  0  0
    2.4957    0.1090   -0.2957 C   0  0  0  0  0  0  0  0  0  0  0  0
    2.1180    1.2549   -0.9489 O   0  0  0  0  0  0  0  0  0  0  0  0
    0.5468   -0.1017    1.2059 C   0  0  0  0  0  0  0  0  0  0  0  0
   -0.9410   -0.0842    1.0425 C   0  0  0  0  0  0  0  0  0  0  0  0
   -3.0324    0.4710   -1.4537 H   0  0  0  0  0  0  0  0  0  0  0  0
   -2.7642    2.0028   -0.5985 H   0  0  0  0  0  0  0  0  0  0  0  0
   -3.2365    0.6024    0.3787 H   0  0  0  0  0  0  0  0  0  0  0  0
   -0.5828    1.4359   -0.4679 H   0  0  0  0  0  0  0  0  0  0  0  0
   -0.9158   -0.1023   -2.3426 H   0  0  0  0  0  0  0  0  0  0  0  0
   -1.6364   -1.3046   -1.2600 H   0  0  0  0  0  0  0  0  0  0  0  0
    0.3830   -2.2910   -1.1096 H   0  0  0  0  0  0  0  0  0  0  0  0
    1.1516   -0.9684   -1.9941 H   0  0  0  0  0  0  0  0  0  0  0  0
    1.7702   -1.6785    0.5563 H   0  0  0  0  0  0  0  0  0  0  0  0
    3.1156   -0.5079   -0.9987 H   0  0  0  0  0  0  0  0  0  0  0  0
    3.1041    0.3126    0.6238 H   0  0  0  0  0  0  0  0  0  0  0  0
    2.3844    2.0269   -0.3786 H   0  0  0  0  0  0  0  0  0  0  0  0
    0.7513   -0.5514    2.2219 H   0  0  0  0  0  0  0  0  0  0  0  0
    0.8685    0.9721    1.3250 H   0  0  0  0  0  0  0  0  0  0  0  0
   -1.3916   -1.0973    1.0552 H   0  0  0  0  0  0  0  0  0  0  0  0
   -1.3680    0.5496    1.8425 H   0  0  0  0  0  0  0  0  0  0  0  0
  1  2  1  0
  2  3  1  0
  3  4  1  0
  4  5  1  0
  5  6  1  0
  6  7  1  0
  5  8  1  0
  8  9  1  0
  9  2  1  0
  1 10  1  0
  1 11  1  0
  1 12  1  0
  2 13  1  0
  3 14  1  0
  3 15  1  0
  4 16  1  0
  4 17  1  0
  5 18  1  0
  6 19  1  0
  6 20  1  0
  7 21  1  0
  8 22  1  0
  8 23  1  0
  9 24  1  0
  9 25  1  0
M  END
