
     RDKit          3D

 18 18  0  0  0  0  0  0  0  0999 V2000
   -1.0531   -1.0380    0.6702 C   0  0  0  0  0  0  0  0  0  0  0  0
   -0.3942   -0.5246   -0.5769 C   0  0  0  0  0  0  0  0  0  0  0  0
   -1.0790    0.8222   -0.8885 C   0  0  0  0  0  0  0  0  0  0  0  0
   -0.4318    1.6583    0.1844 C   0  0  0  0  0  0  0  0  0  0  0  0
    0.7561    1.1698    0.4852 C   0  0  0  0  0  0  0  0  0  0  0  0
    0.9876   -0.0175   -0.3587 C   0  0  0  0  0  0  0  0  0  0  0  0
    1.9145   -0.9961    0.2162 C   0  0  0  0  0  0  0  0  0  0  0  0
    2.4118   -0.8514    1.3145 O   0  0  0  0  0  0  0  0  0  0  0  0
   -0.4354   -1.8044    1.2008 H   0  0  0  0  0  0  0  0  0  0  0  0
   -1.2754   -0.2314    1.3793 H   0  0  0  0  0  0  0  0  0  0  0  0
   -2.0305   -1.4996    0.3540 H   0  0  0  0  0  0  0  0  0  0  0  0
   -0.5180   -1.1857   -1.4446 H   0  0  0  0  0  0  0  0  0  0  0  0
   -0.7425    1.1848   -1.8680 H   0  0  0  0  0  0  0  0  0  0  0  0
   -2.1598    0.7555   -0.7630 H   0  0  0  0  0  0  0  0  0  0  0  0
   -0.9256    2.5209    0.6033 H   0  0  0  0  0  0  0  0  0  0  0  0
    1.4743    1.5298    1.2087 H   0  0  0  0  0  0  0  0  0  0  0  0
    1.3442    0.3812   -1.3499 H   0  0  0  0  0  0  0  0  0  0  0  0
    2.1569   -1.8738   -0.3668 H   0  0  0  0  0  0  0  0  0  0  0  0
  1  2  1  0
  2  3  1  0
  3  4  1  0
  4  5  2  0
  5  6  1  0
  6  7  1  0
  7  8  2  0
  6  2  1  0
  1  9  1  0
  1 10  1  0
  1 11  1  0
  2 12  1  0
  3 13  1  0
  3 14  1  0
  4 15  1  0
  5 16  1  0
  6 17  1  0
  7 18  1  0
M  END
