
     RDKit          3D

 19 20  0  0  0  0  0  0  0  0999 V2000
   -2.1343   -0.1378    0.2304 C   0  0  0  0  0  0  0  0  0  0  0  0
   -0.7792    0.4019    0.6284 C   0  0  0  0  0  0  0  0  0  0  0  0
   -0.2142    1.2665   -0.4508 C   0  0  0  0  0  0  0  0  0  0  0  0
    0.9154    0.5329   -1.0986 C   0  0  0  0  0  0  0  0  0  0  0  0
    1.0317   -0.8131   -0.4347 C   0  0  0  0  0  0  0  0  0  0  0  0
    2.1172   -0.9095    0.5246 C   0  0  0  0  0  0  0  0  0  0  0  0
    3.2592   -1.4011    0.5400 O   0  0  0  0  0  0  0  0  0  0  0  0
    1.3786   -0.2197    1.4616 O   0  0  0  0  0  0  0  0  0  0  0  0
    0.2062   -0.7083    0.8088 C   0  0  0  0  0  0  0  0  0  0  0  0
   -2.1853   -1.1952    0.5900 H   0  0  0  0  0  0  0  0  0  0  0  0
   -2.9577    0.4349    0.6789 H   0  0  0  0  0  0  0  0  0  0  0  0
   -2.2184   -0.0963   -0.8648 H   0  0  0  0  0  0  0  0  0  0  0  0
   -0.8456    0.9346    1.6212 H   0  0  0  0  0  0  0  0  0  0  0  0
   -0.9948    1.4459   -1.2021 H   0  0  0  0  0  0  0  0  0  0  0  0
    0.0819    2.2476   -0.0319 H   0  0  0  0  0  0  0  0  0  0  0  0
    0.7602    0.4391   -2.2052 H   0  0  0  0  0  0  0  0  0  0  0  0
    1.8896    1.0664   -0.9588 H   0  0  0  0  0  0  0  0  0  0  0  0
    0.8343   -1.6549   -1.1012 H   0  0  0  0  0  0  0  0  0  0  0  0
   -0.1447   -1.6339    1.2645 H   0  0  0  0  0  0  0  0  0  0  0  0
  1  2  1  0
  2  3  1  0
  3  4  1  0
  4  5  1  0
  5  6  1  0
  6  7  2  0
  6  8  1  0
  8  9  1  0
  9  2  1  0
  9  5  1  0
  1 10  1  0
  1 11  1  0
  1 12  1  0
  2 13  1  0
  3 14  1  0
  3 15  1  0
  4 16  1  0
  4 17  1  0
  5 18  1  0
  9 19  1  0
M  END
