
     RDKit          3D

 19 21  0  0  0  0  0  0  0  0999 V2000
    1.5586    1.1742   -0.2899 C   0  0  0  0  0  0  0  0  0  0  0  0
    1.5564   -0.3099   -0.5882 C   0  0  0  0  0  0  0  0  0  0  0  0
    0.8709   -1.1611    0.4560 C   0  0  0  0  0  0  0  0  0  0  0  0
   -0.0437   -0.5766    1.4506 C   0  0  0  0  0  0  0  0  0  0  0  0
   -1.1334   -0.0956    0.9143 C   0  0  0  0  0  0  0  0  0  0  0  0
   -2.3979    0.4765    0.4101 C   0  0  0  0  0  0  0  0  0  0  0  0
   -2.2497   -0.5396   -0.6174 O   0  0  0  0  0  0  0  0  0  0  0  0
   -0.9439   -0.1231   -0.6097 C   0  0  0  0  0  0  0  0  0  0  0  0
    0.2072   -0.9884   -0.8595 C   0  0  0  0  0  0  0  0  0  0  0  0
    1.2727    1.3953    0.7466 H   0  0  0  0  0  0  0  0  0  0  0  0
    0.9636    1.7548   -1.0417 H   0  0  0  0  0  0  0  0  0  0  0  0
    2.6090    1.5310   -0.4170 H   0  0  0  0  0  0  0  0  0  0  0  0
    2.4342   -0.7577   -1.0778 H   0  0  0  0  0  0  0  0  0  0  0  0
    1.3683   -2.1364    0.7025 H   0  0  0  0  0  0  0  0  0  0  0  0
    0.1965   -0.5626    2.5275 H   0  0  0  0  0  0  0  0  0  0  0  0
   -2.2512    1.4385   -0.0800 H   0  0  0  0  0  0  0  0  0  0  0  0
   -3.2908    0.3280    1.0075 H   0  0  0  0  0  0  0  0  0  0  0  0
   -0.8966    0.9194   -1.0148 H   0  0  0  0  0  0  0  0  0  0  0  0
    0.1698   -1.7667   -1.6192 H   0  0  0  0  0  0  0  0  0  0  0  0
  1  2  1  0
  2  3  1  0
  3  4  1  0
  4  5  2  0
  5  6  1  0
  6  7  1  0
  7  8  1  0
  8  9  1  0
  9  2  1  0
  9  3  1  0
  8  5  1  0
  1 10  1  0
  1 11  1  0
  1 12  1  0
  2 13  1  0
  3 14  1  0
  4 15  1  0
  6 16  1  0
  6 17  1  0
  8 18  1  0
  9 19  1  0
M  END
