
     RDKit          3D

 21 23  0  0  0  0  0  0  0  0999 V2000
    2.2730    0.3911    0.6543 C   0  0  0  0  0  0  0  0  0  0  0  0
    1.5898   -0.6201   -0.2774 C   0  0  0  0  0  0  0  0  0  0  0  0
    0.8591    0.0834   -1.4700 C   0  0  0  0  0  0  0  0  0  0  0  0
    0.1671   -0.4825   -0.3995 C   0  0  0  0  0  0  0  0  0  0  0  0
   -0.8706   -1.5323   -0.3165 C   0  0  0  0  0  0  0  0  0  0  0  0
   -1.7662   -0.2837   -0.3125 C   0  0  0  0  0  0  0  0  0  0  0  0
   -1.9479    0.6856    0.6974 C   0  0  0  0  0  0  0  0  0  0  0  0
   -2.0035    2.0718    0.3970 O   0  0  0  0  0  0  0  0  0  0  0  0
   -0.6185    0.1465    0.7011 C   0  0  0  0  0  0  0  0  0  0  0  0
    1.5147    0.9739    1.2300 H   0  0  0  0  0  0  0  0  0  0  0  0
    2.7565    1.1300   -0.0257 H   0  0  0  0  0  0  0  0  0  0  0  0
    2.9652   -0.0919    1.3353 H   0  0  0  0  0  0  0  0  0  0  0  0
    2.1731   -1.5097   -0.5265 H   0  0  0  0  0  0  0  0  0  0  0  0
    1.0586    1.1495   -1.6158 H   0  0  0  0  0  0  0  0  0  0  0  0
    0.9466   -0.4908   -2.4400 H   0  0  0  0  0  0  0  0  0  0  0  0
   -0.9312   -2.1143    0.6224 H   0  0  0  0  0  0  0  0  0  0  0  0
   -1.0689   -2.1692   -1.1715 H   0  0  0  0  0  0  0  0  0  0  0  0
   -1.6316    0.1697   -1.3483 H   0  0  0  0  0  0  0  0  0  0  0  0
   -2.7356    0.4609    1.4797 H   0  0  0  0  0  0  0  0  0  0  0  0
   -2.2344    2.5976    1.2029 H   0  0  0  0  0  0  0  0  0  0  0  0
   -0.4954   -0.5655    1.5834 H   0  0  0  0  0  0  0  0  0  0  0  0
  1  2  1  0
  2  3  1  0
  3  4  1  0
  4  5  1  0
  5  6  1  0
  6  7  1  0
  7  8  1  0
  7  9  1  0
  4  2  1  0
  9  6  1  0
  9  4  1  0
  1 10  1  0
  1 11  1  0
  1 12  1  0
  2 13  1  0
  3 14  1  0
  3 15  1  0
  5 16  1  0
  5 17  1  0
  6 18  1  0
  7 19  1  0
  8 20  1  0
  9 21  1  0
M  END
