
     RDKit          3D

 21 22  0  0  0  0  0  0  0  0999 V2000
    1.9946   -0.1201   -0.1883 C   0  0  0  0  0  0  0  0  0  0  0  0
    0.8820   -0.0832    0.7900 C   0  0  0  0  0  0  0  0  0  0  0  0
    0.0488   -1.3207    0.9439 C   0  0  0  0  0  0  0  0  0  0  0  0
   -0.3588   -1.7615   -0.4462 C   0  0  0  0  0  0  0  0  0  0  0  0
   -0.7353   -0.3618   -0.9805 C   0  0  0  0  0  0  0  0  0  0  0  0
   -0.4514    0.4017    0.2976 C   0  0  0  0  0  0  0  0  0  0  0  0
   -0.7726    1.8198    0.3467 C   0  0  0  0  0  0  0  0  0  0  0  0
   -2.1451    2.0049    0.1983 O   0  0  0  0  0  0  0  0  0  0  0  0
   -1.0213   -0.4434    1.2508 O   0  0  0  0  0  0  0  0  0  0  0  0
    2.8754   -0.5834    0.3041 H   0  0  0  0  0  0  0  0  0  0  0  0
    1.7980   -0.6934   -1.0978 H   0  0  0  0  0  0  0  0  0  0  0  0
    2.3041    0.9071   -0.4650 H   0  0  0  0  0  0  0  0  0  0  0  0
    1.1474    0.3433    1.7485 H   0  0  0  0  0  0  0  0  0  0  0  0
    0.3042   -2.0562    1.6711 H   0  0  0  0  0  0  0  0  0  0  0  0
    0.4427   -2.2148   -1.0233 H   0  0  0  0  0  0  0  0  0  0  0  0
   -1.2855   -2.3591   -0.3756 H   0  0  0  0  0  0  0  0  0  0  0  0
   -0.0961   -0.0598   -1.8058 H   0  0  0  0  0  0  0  0  0  0  0  0
   -1.8134   -0.3237   -1.2129 H   0  0  0  0  0  0  0  0  0  0  0  0
   -0.4309    2.2598    1.2857 H   0  0  0  0  0  0  0  0  0  0  0  0
   -0.2988    2.3311   -0.5217 H   0  0  0  0  0  0  0  0  0  0  0  0
   -2.3880    2.3134   -0.7196 H   0  0  0  0  0  0  0  0  0  0  0  0
  1  2  1  0
  2  3  1  0
  3  4  1  0
  4  5  1  0
  5  6  1  0
  6  7  1  0
  7  8  1  0
  6  9  1  0
  6  2  1  0
  9  3  1  0
  1 10  1  0
  1 11  1  0
  1 12  1  0
  2 13  1  0
  3 14  1  0
  4 15  1  0
  4 16  1  0
  5 17  1  0
  5 18  1  0
  7 19  1  0
  7 20  1  0
  8 21  1  0
M  END
