
     RDKit          3D

 22 22  0  0  0  0  0  0  0  0999 V2000
   -1.5688   -1.2957   -0.5731 C   0  0  0  0  0  0  0  0  0  0  0  0
   -0.4585   -0.5939    0.1227 C   0  0  0  0  0  0  0  0  0  0  0  0
    0.8548   -1.2113   -0.3799 C   0  0  0  0  0  0  0  0  0  0  0  0
    1.9289   -0.4986    0.4324 C   0  0  0  0  0  0  0  0  0  0  0  0
    1.8617    0.9593   -0.0370 C   0  0  0  0  0  0  0  0  0  0  0  0
    0.6646    1.5423    0.2304 O   0  0  0  0  0  0  0  0  0  0  0  0
   -0.4543    0.8714   -0.1503 C   0  0  0  0  0  0  0  0  0  0  0  0
   -1.6218    1.5047    0.6257 C   0  0  0  0  0  0  0  0  0  0  0  0
   -2.3600   -0.6484   -0.9515 H   0  0  0  0  0  0  0  0  0  0  0  0
   -2.0208   -2.0196    0.1613 H   0  0  0  0  0  0  0  0  0  0  0  0
   -1.2205   -1.9474   -1.4260 H   0  0  0  0  0  0  0  0  0  0  0  0
   -0.4482   -0.7714    1.2271 H   0  0  0  0  0  0  0  0  0  0  0  0
    0.8805   -2.2917   -0.2556 H   0  0  0  0  0  0  0  0  0  0  0  0
    0.9425   -0.8817   -1.4420 H   0  0  0  0  0  0  0  0  0  0  0  0
    2.9228   -0.9039    0.2874 H   0  0  0  0  0  0  0  0  0  0  0  0
    1.5656   -0.4992    1.4805 H   0  0  0  0  0  0  0  0  0  0  0  0
    2.6481    1.4836    0.5727 H   0  0  0  0  0  0  0  0  0  0  0  0
    2.1392    1.0611   -1.0941 H   0  0  0  0  0  0  0  0  0  0  0  0
   -0.7389    1.0257   -1.2301 H   0  0  0  0  0  0  0  0  0  0  0  0
   -2.5687    1.0028    0.4241 H   0  0  0  0  0  0  0  0  0  0  0  0
   -1.3272    1.5300    1.6918 H   0  0  0  0  0  0  0  0  0  0  0  0
   -1.6209    2.5818    0.2835 H   0  0  0  0  0  0  0  0  0  0  0  0
  1  2  1  0
  2  3  1  0
  3  4  1  0
  4  5  1  0
  5  6  1  0
  6  7  1  0
  7  8  1  0
  7  2  1  0
  1  9  1  0
  1 10  1  0
  1 11  1  0
  2 12  1  0
  3 13  1  0
  3 14  1  0
  4 15  1  0
  4 16  1  0
  5 17  1  0
  5 18  1  0
  7 19  1  0
  8 20  1  0
  8 21  1  0
  8 22  1  0
M  END
