
     RDKit          3D

 19 20  0  0  0  0  0  0  0  0999 V2000
    1.7791    1.1278   -0.3025 C   0  0  0  0  0  0  0  0  0  0  0  0
    0.7717    0.2395    0.3517 C   0  0  0  0  0  0  0  0  0  0  0  0
    0.9375   -1.2251   -0.0390 C   0  0  0  0  0  0  0  0  0  0  0  0
   -0.3783   -1.7803    0.4169 C   0  0  0  0  0  0  0  0  0  0  0  0
   -0.5838   -2.8181    1.0240 O   0  0  0  0  0  0  0  0  0  0  0  0
   -1.3902   -0.7854   -0.0338 C   0  0  0  0  0  0  0  0  0  0  0  0
   -1.7213    0.3999    0.7727 C   0  0  0  0  0  0  0  0  0  0  0  0
   -0.6092    0.5342   -0.1594 C   0  0  0  0  0  0  0  0  0  0  0  0
   -0.6946    1.1697   -1.3767 O   0  0  0  0  0  0  0  0  0  0  0  0
    2.4831    1.4815    0.4792 H   0  0  0  0  0  0  0  0  0  0  0  0
    1.3194    2.0205   -0.7872 H   0  0  0  0  0  0  0  0  0  0  0  0
    2.3634    0.5443   -1.0353 H   0  0  0  0  0  0  0  0  0  0  0  0
    0.7544    0.2958    1.4471 H   0  0  0  0  0  0  0  0  0  0  0  0
    0.9656   -1.2652   -1.1625 H   0  0  0  0  0  0  0  0  0  0  0  0
    1.7937   -1.7018    0.4313 H   0  0  0  0  0  0  0  0  0  0  0  0
   -2.0064   -1.0844   -0.8922 H   0  0  0  0  0  0  0  0  0  0  0  0
   -2.7244    0.8571    0.5630 H   0  0  0  0  0  0  0  0  0  0  0  0
   -1.5095    0.4012    1.8717 H   0  0  0  0  0  0  0  0  0  0  0  0
   -1.5502    1.5888   -1.5690 H   0  0  0  0  0  0  0  0  0  0  0  0
  1  2  1  0
  2  3  1  0
  3  4  1  0
  4  5  2  0
  4  6  1  0
  6  7  1  0
  7  8  1  0
  8  9  1  0
  8  2  1  0
  8  6  1  0
  1 10  1  0
  1 11  1  0
  1 12  1  0
  2 13  1  0
  3 14  1  0
  3 15  1  0
  6 16  1  0
  7 17  1  0
  7 18  1  0
  9 19  1  0
M  END
