
     RDKit          3D

 21 22  0  0  0  0  0  0  0  0999 V2000
   -1.5461    1.4793    0.0880 C   0  0  0  0  0  0  0  0  0  0  0  0
   -0.3030    0.7240   -0.2016 C   0  0  0  0  0  0  0  0  0  0  0  0
    0.8512    1.4101    0.4408 C   0  0  0  0  0  0  0  0  0  0  0  0
    2.0182    0.7779    0.3699 C   0  0  0  0  0  0  0  0  0  0  0  0
    2.1075   -0.5169   -0.3128 C   0  0  0  0  0  0  0  0  0  0  0  0
    1.9763   -1.6209    0.6406 O   0  0  0  0  0  0  0  0  0  0  0  0
    0.9292   -1.3710   -0.2413 C   0  0  0  0  0  0  0  0  0  0  0  0
   -0.3152   -0.6928    0.3300 C   0  0  0  0  0  0  0  0  0  0  0  0
   -1.5396   -1.3806   -0.2390 C   0  0  0  0  0  0  0  0  0  0  0  0
   -1.4219    2.0391    1.0545 H   0  0  0  0  0  0  0  0  0  0  0  0
   -1.6303    2.2981   -0.6860 H   0  0  0  0  0  0  0  0  0  0  0  0
   -2.4688    0.9090    0.1042 H   0  0  0  0  0  0  0  0  0  0  0  0
   -0.1030    0.6284   -1.3088 H   0  0  0  0  0  0  0  0  0  0  0  0
    0.7147    2.3676    0.9290 H   0  0  0  0  0  0  0  0  0  0  0  0
    2.8853    1.2426    0.8250 H   0  0  0  0  0  0  0  0  0  0  0  0
    2.8288   -0.6904   -1.1223 H   0  0  0  0  0  0  0  0  0  0  0  0
    0.8067   -2.1344   -1.0258 H   0  0  0  0  0  0  0  0  0  0  0  0
   -0.3351   -0.7348    1.4274 H   0  0  0  0  0  0  0  0  0  0  0  0
   -2.4298   -1.1148    0.3573 H   0  0  0  0  0  0  0  0  0  0  0  0
   -1.6141   -1.1355   -1.3053 H   0  0  0  0  0  0  0  0  0  0  0  0
   -1.4109   -2.4840   -0.1237 H   0  0  0  0  0  0  0  0  0  0  0  0
  1  2  1  0
  2  3  1  0
  3  4  2  0
  4  5  1  0
  5  6  1  0
  6  7  1  0
  7  8  1  0
  8  9  1  0
  8  2  1  0
  7  5  1  0
  1 10  1  0
  1 11  1  0
  1 12  1  0
  2 13  1  0
  3 14  1  0
  4 15  1  0
  5 16  1  0
  7 17  1  0
  8 18  1  0
  9 19  1  0
  9 20  1  0
  9 21  1  0
M  END
