
     RDKit          3D

 21 22  0  0  0  0  0  0  0  0999 V2000
   -2.6448   -0.4096    0.3843 C   0  0  0  0  0  0  0  0  0  0  0  0
   -1.2133    0.0561    0.5721 C   0  0  0  0  0  0  0  0  0  0  0  0
   -0.7222    0.4560   -0.8334 C   0  0  0  0  0  0  0  0  0  0  0  0
    0.6746   -0.0216   -0.8734 C   0  0  0  0  0  0  0  0  0  0  0  0
    1.9260    0.5959   -0.6547 C   0  0  0  0  0  0  0  0  0  0  0  0
    3.0928   -0.1745   -0.8137 O   0  0  0  0  0  0  0  0  0  0  0  0
    1.1849    0.4314    0.5397 C   0  0  0  0  0  0  0  0  0  0  0  0
    0.8358   -0.7226    1.3680 C   0  0  0  0  0  0  0  0  0  0  0  0
   -0.5143   -1.0331    1.0701 O   0  0  0  0  0  0  0  0  0  0  0  0
   -3.1978   -0.5027    1.3184 H   0  0  0  0  0  0  0  0  0  0  0  0
   -3.1580    0.2705   -0.3322 H   0  0  0  0  0  0  0  0  0  0  0  0
   -2.6142   -1.4108   -0.1321 H   0  0  0  0  0  0  0  0  0  0  0  0
   -1.2419    0.9192    1.2485 H   0  0  0  0  0  0  0  0  0  0  0  0
   -1.3138   -0.0002   -1.6217 H   0  0  0  0  0  0  0  0  0  0  0  0
   -0.8441    1.5577   -0.8956 H   0  0  0  0  0  0  0  0  0  0  0  0
    0.6957   -1.1304   -1.0838 H   0  0  0  0  0  0  0  0  0  0  0  0
    2.0971    1.6210   -1.0592 H   0  0  0  0  0  0  0  0  0  0  0  0
    3.8309    0.2970   -0.3423 H   0  0  0  0  0  0  0  0  0  0  0  0
    0.7289    1.3729    0.9655 H   0  0  0  0  0  0  0  0  0  0  0  0
    0.9910   -0.5496    2.4339 H   0  0  0  0  0  0  0  0  0  0  0  0
    1.4066   -1.6226    0.9931 H   0  0  0  0  0  0  0  0  0  0  0  0
  1  2  1  0
  2  3  1  0
  3  4  1  0
  4  5  1  0
  5  6  1  0
  5  7  1  0
  7  8  1  0
  8  9  1  0
  9  2  1  0
  7  4  1  0
  1 10  1  0
  1 11  1  0
  1 12  1  0
  2 13  1  0
  3 14  1  0
  3 15  1  0
  4 16  1  0
  5 17  1  0
  6 18  1  0
  7 19  1  0
  8 20  1  0
  8 21  1  0
M  END
