
     RDKit          3D

 23 24  0  0  0  0  0  0  0  0999 V2000
   -2.9614    0.2552    0.5721 C   0  0  0  0  0  0  0  0  0  0  0  0
   -2.2473   -0.2006   -0.6848 C   0  0  0  0  0  0  0  0  0  0  0  0
   -1.1976   -1.2504   -0.3270 C   0  0  0  0  0  0  0  0  0  0  0  0
   -0.1429   -0.2997   -0.8163 C   0  0  0  0  0  0  0  0  0  0  0  0
    0.7707    0.0883    0.1315 O   0  0  0  0  0  0  0  0  0  0  0  0
    2.0799   -0.1318   -0.2754 C   0  0  0  0  0  0  0  0  0  0  0  0
    3.0149    1.0270    0.0688 C   0  0  0  0  0  0  0  0  0  0  0  0
    3.1797   -0.3196    0.6807 C   0  0  0  0  0  0  0  0  0  0  0  0
   -1.1823    0.7259   -1.1938 C   0  0  0  0  0  0  0  0  0  0  0  0
   -4.0585    0.3290    0.3882 H   0  0  0  0  0  0  0  0  0  0  0  0
   -2.8568   -0.5359    1.3718 H   0  0  0  0  0  0  0  0  0  0  0  0
   -2.5166    1.1945    0.9363 H   0  0  0  0  0  0  0  0  0  0  0  0
   -2.9495   -0.5308   -1.4705 H   0  0  0  0  0  0  0  0  0  0  0  0
   -1.1239   -1.4688    0.7599 H   0  0  0  0  0  0  0  0  0  0  0  0
   -1.3370   -2.1557   -0.9544 H   0  0  0  0  0  0  0  0  0  0  0  0
    0.3590   -0.7073   -1.7079 H   0  0  0  0  0  0  0  0  0  0  0  0
    2.1597   -0.5811   -1.2917 H   0  0  0  0  0  0  0  0  0  0  0  0
    3.6485    1.3449   -0.7837 H   0  0  0  0  0  0  0  0  0  0  0  0
    2.6322    1.8475    0.7015 H   0  0  0  0  0  0  0  0  0  0  0  0
    4.0556   -0.8969    0.3329 H   0  0  0  0  0  0  0  0  0  0  0  0
    2.9913   -0.3785    1.7676 H   0  0  0  0  0  0  0  0  0  0  0  0
   -1.2100    0.9535   -2.2814 H   0  0  0  0  0  0  0  0  0  0  0  0
   -1.1075    1.6913   -0.6432 H   0  0  0  0  0  0  0  0  0  0  0  0
  1  2  1  0
  2  3  1  0
  3  4  1  0
  4  5  1  0
  5  6  1  0
  6  7  1  0
  7  8  1  0
  4  9  1  0
  9  2  1  0
  8  6  1  0
  1 10  1  0
  1 11  1  0
  1 12  1  0
  2 13  1  0
  3 14  1  0
  3 15  1  0
  4 16  1  0
  6 17  1  0
  7 18  1  0
  7 19  1  0
  8 20  1  0
  8 21  1  0
  9 22  1  0
  9 23  1  0
M  END
