
     RDKit          3D

 21 21  0  0  0  0  0  0  0  0999 V2000
   -1.6104    1.3952   -0.0176 C   0  0  0  0  0  0  0  0  0  0  0  0
   -0.9156    0.1648    0.4724 C   0  0  0  0  0  0  0  0  0  0  0  0
   -1.6943   -1.1229    0.3254 C   0  0  0  0  0  0  0  0  0  0  0  0
   -0.9505   -1.3440   -0.9890 C   0  0  0  0  0  0  0  0  0  0  0  0
    0.1036   -0.4185   -0.5170 C   0  0  0  0  0  0  0  0  0  0  0  0
    1.1826   -0.8668    0.1483 O   0  0  0  0  0  0  0  0  0  0  0  0
    2.4109   -0.3765   -0.1874 C   0  0  0  0  0  0  0  0  0  0  0  0
    2.5302    1.0909   -0.0185 C   0  0  0  0  0  0  0  0  0  0  0  0
    1.6012    1.7544    0.3823 O   0  0  0  0  0  0  0  0  0  0  0  0
   -1.8801    2.0829    0.8312 H   0  0  0  0  0  0  0  0  0  0  0  0
   -2.5072    1.0702   -0.5868 H   0  0  0  0  0  0  0  0  0  0  0  0
   -0.9279    1.9730   -0.6750 H   0  0  0  0  0  0  0  0  0  0  0  0
   -0.5513    0.2695    1.4941 H   0  0  0  0  0  0  0  0  0  0  0  0
   -2.7659   -0.9199    0.2208 H   0  0  0  0  0  0  0  0  0  0  0  0
   -1.5047   -1.8729    1.0995 H   0  0  0  0  0  0  0  0  0  0  0  0
   -1.5635   -0.9073   -1.8069 H   0  0  0  0  0  0  0  0  0  0  0  0
   -0.6993   -2.3711   -1.2201 H   0  0  0  0  0  0  0  0  0  0  0  0
    0.3610    0.3327   -1.2956 H   0  0  0  0  0  0  0  0  0  0  0  0
    3.1453   -0.8268    0.5418 H   0  0  0  0  0  0  0  0  0  0  0  0
    2.7786   -0.6837   -1.1837 H   0  0  0  0  0  0  0  0  0  0  0  0
    3.4574    1.5770   -0.2555 H   0  0  0  0  0  0  0  0  0  0  0  0
  1  2  1  0
  2  3  1  0
  3  4  1  0
  4  5  1  0
  5  6  1  0
  6  7  1  0
  7  8  1  0
  8  9  2  0
  5  2  1  0
  1 10  1  0
  1 11  1  0
  1 12  1  0
  2 13  1  0
  3 14  1  0
  3 15  1  0
  4 16  1  0
  4 17  1  0
  5 18  1  0
  7 19  1  0
  7 20  1  0
  8 21  1  0
M  END
