
     RDKit          3D

 23 24  0  0  0  0  0  0  0  0999 V2000
    2.3627    0.5758    0.8037 C   0  0  0  0  0  0  0  0  0  0  0  0
    0.9284    0.5861    0.3694 C   0  0  0  0  0  0  0  0  0  0  0  0
    0.7218   -0.2193   -0.9252 C   0  0  0  0  0  0  0  0  0  0  0  0
   -0.5159   -0.9950   -0.5644 C   0  0  0  0  0  0  0  0  0  0  0  0
   -0.1274   -1.4331    0.8623 C   0  0  0  0  0  0  0  0  0  0  0  0
   -0.0166    0.0139    1.3783 C   0  0  0  0  0  0  0  0  0  0  0  0
   -1.2991    0.4808    1.0629 O   0  0  0  0  0  0  0  0  0  0  0  0
   -1.6446   -0.0499   -0.1621 C   0  0  0  0  0  0  0  0  0  0  0  0
   -1.9655    0.9534   -1.2110 C   0  0  0  0  0  0  0  0  0  0  0  0
    2.3769    0.7354    1.9107 H   0  0  0  0  0  0  0  0  0  0  0  0
    2.8627   -0.3957    0.5727 H   0  0  0  0  0  0  0  0  0  0  0  0
    2.9321    1.4342    0.3618 H   0  0  0  0  0  0  0  0  0  0  0  0
    0.6467    1.6384    0.1506 H   0  0  0  0  0  0  0  0  0  0  0  0
    0.6063    0.4500   -1.7776 H   0  0  0  0  0  0  0  0  0  0  0  0
    1.5434   -0.9646   -1.0575 H   0  0  0  0  0  0  0  0  0  0  0  0
   -0.7942   -1.7963   -1.2055 H   0  0  0  0  0  0  0  0  0  0  0  0
    0.8331   -1.9430    0.8680 H   0  0  0  0  0  0  0  0  0  0  0  0
   -0.9534   -1.9708    1.3467 H   0  0  0  0  0  0  0  0  0  0  0  0
    0.2562    0.0855    2.4041 H   0  0  0  0  0  0  0  0  0  0  0  0
   -2.5440   -0.7099   -0.0183 H   0  0  0  0  0  0  0  0  0  0  0  0
   -3.0423    1.2497   -1.1169 H   0  0  0  0  0  0  0  0  0  0  0  0
   -1.8561    0.4470   -2.2108 H   0  0  0  0  0  0  0  0  0  0  0  0
   -1.3113    1.8274   -1.2309 H   0  0  0  0  0  0  0  0  0  0  0  0
  1  2  1  0
  2  3  1  0
  3  4  1  0
  4  5  1  0
  5  6  1  0
  6  7  1  0
  7  8  1  0
  8  9  1  0
  6  2  1  0
  8  4  1  0
  1 10  1  0
  1 11  1  0
  1 12  1  0
  2 13  1  0
  3 14  1  0
  3 15  1  0
  4 16  1  0
  5 17  1  0
  5 18  1  0
  6 19  1  0
  8 20  1  0
  9 21  1  0
  9 22  1  0
  9 23  1  0
M  END
