
     RDKit          3D

 19 20  0  0  0  0  0  0  0  0999 V2000
   -2.7987    0.0678   -0.3471 C   0  0  0  0  0  0  0  0  0  0  0  0
   -1.3786   -0.4334   -0.4075 C   0  0  0  0  0  0  0  0  0  0  0  0
   -0.7177   -0.5137    0.9674 C   0  0  0  0  0  0  0  0  0  0  0  0
   -0.2989    0.5005   -0.0639 C   0  0  0  0  0  0  0  0  0  0  0  0
    1.0811    0.3913   -0.5958 C   0  0  0  0  0  0  0  0  0  0  0  0
    1.9434    1.4040   -0.1333 O   0  0  0  0  0  0  0  0  0  0  0  0
    2.9281    0.4989    0.1436 C   0  0  0  0  0  0  0  0  0  0  0  0
    1.9032   -0.5964    0.1085 C   0  0  0  0  0  0  0  0  0  0  0  0
    1.9324   -1.7381    0.5333 O   0  0  0  0  0  0  0  0  0  0  0  0
   -3.2952    0.0672   -1.3342 H   0  0  0  0  0  0  0  0  0  0  0  0
   -2.8456    1.0688    0.0911 H   0  0  0  0  0  0  0  0  0  0  0  0
   -3.3672   -0.6111    0.3149 H   0  0  0  0  0  0  0  0  0  0  0  0
   -1.2300   -1.2595   -1.1175 H   0  0  0  0  0  0  0  0  0  0  0  0
   -1.2572   -0.0556    1.8347 H   0  0  0  0  0  0  0  0  0  0  0  0
   -0.2014   -1.4498    1.1377 H   0  0  0  0  0  0  0  0  0  0  0  0
   -0.6270    1.5646    0.0891 H   0  0  0  0  0  0  0  0  0  0  0  0
    1.1735    0.2136   -1.6945 H   0  0  0  0  0  0  0  0  0  0  0  0
    3.3801    0.5411    1.1407 H   0  0  0  0  0  0  0  0  0  0  0  0
    3.6757    0.3398   -0.6671 H   0  0  0  0  0  0  0  0  0  0  0  0
  1  2  1  0
  2  3  1  0
  3  4  1  0
  4  5  1  0
  5  6  1  0
  6  7  1  0
  7  8  1  0
  8  9  2  0
  4  2  1  0
  8  5  1  0
  1 10  1  0
  1 11  1  0
  1 12  1  0
  2 13  1  0
  3 14  1  0
  3 15  1  0
  4 16  1  0
  5 17  1  0
  7 18  1  0
  7 19  1  0
M  END
