
     RDKit          3D

 20 21  0  0  0  0  0  0  0  0999 V2000
    2.3494    0.2464   -0.0589 C   0  0  0  0  0  0  0  0  0  0  0  0
    0.9991   -0.1500   -0.6468 C   0  0  0  0  0  0  0  0  0  0  0  0
    0.0529    1.0082   -0.7315 C   0  0  0  0  0  0  0  0  0  0  0  0
   -1.1345    0.6975    0.1233 C   0  0  0  0  0  0  0  0  0  0  0  0
   -2.3040    0.0500   -0.5573 C   0  0  0  0  0  0  0  0  0  0  0  0
   -1.9757   -1.2113   -0.0820 O   0  0  0  0  0  0  0  0  0  0  0  0
   -0.9508   -0.6719    0.6987 C   0  0  0  0  0  0  0  0  0  0  0  0
    0.3973   -1.1677    0.2811 C   0  0  0  0  0  0  0  0  0  0  0  0
    3.0000   -0.6365   -0.1515 H   0  0  0  0  0  0  0  0  0  0  0  0
    2.1745    0.3974    1.0368 H   0  0  0  0  0  0  0  0  0  0  0  0
    2.7401    1.1482   -0.5586 H   0  0  0  0  0  0  0  0  0  0  0  0
    1.1969   -0.5767   -1.6440 H   0  0  0  0  0  0  0  0  0  0  0  0
    0.5528    1.9148   -0.3090 H   0  0  0  0  0  0  0  0  0  0  0  0
   -0.1905    1.2252   -1.7867 H   0  0  0  0  0  0  0  0  0  0  0  0
   -1.4514    1.4929    0.8374 H   0  0  0  0  0  0  0  0  0  0  0  0
   -2.2716    0.0737   -1.6750 H   0  0  0  0  0  0  0  0  0  0  0  0
   -3.2913    0.3983   -0.1667 H   0  0  0  0  0  0  0  0  0  0  0  0
   -1.1861   -0.7856    1.7828 H   0  0  0  0  0  0  0  0  0  0  0  0
    0.2955   -2.1283   -0.2520 H   0  0  0  0  0  0  0  0  0  0  0  0
    0.9974   -1.3247    1.2061 H   0  0  0  0  0  0  0  0  0  0  0  0
  1  2  1  0
  2  3  1  0
  3  4  1  0
  4  5  1  0
  5  6  1  0
  6  7  1  0
  7  8  1  0
  8  2  1  0
  7  4  1  0
  1  9  1  0
  1 10  1  0
  1 11  1  0
  2 12  1  0
  3 13  1  0
  3 14  1  0
  4 15  1  0
  5 16  1  0
  5 17  1  0
  7 18  1  0
  8 19  1  0
  8 20  1  0
M  END
