
     RDKit          3D

 18 19  0  0  0  0  0  0  0  0999 V2000
    1.6694    0.3825    0.7008 C   0  0  0  0  0  0  0  0  0  0  0  0
    1.1741   -0.3505   -0.5199 C   0  0  0  0  0  0  0  0  0  0  0  0
    0.1132    0.3234   -1.3128 C   0  0  0  0  0  0  0  0  0  0  0  0
   -0.6544    1.3800   -0.5896 C   0  0  0  0  0  0  0  0  0  0  0  0
   -1.4295    0.8360    0.3296 C   0  0  0  0  0  0  0  0  0  0  0  0
   -1.2721   -0.6333    0.3280 C   0  0  0  0  0  0  0  0  0  0  0  0
   -1.1554   -1.1039    1.6081 O   0  0  0  0  0  0  0  0  0  0  0  0
   -0.1492   -0.9732   -0.5844 C   0  0  0  0  0  0  0  0  0  0  0  0
    1.4226   -0.1536    1.6231 H   0  0  0  0  0  0  0  0  0  0  0  0
    2.7731    0.4953    0.6763 H   0  0  0  0  0  0  0  0  0  0  0  0
    1.2685    1.4313    0.6943 H   0  0  0  0  0  0  0  0  0  0  0  0
    1.9754   -0.8387   -1.1139 H   0  0  0  0  0  0  0  0  0  0  0  0
    0.1349    0.3317   -2.4181 H   0  0  0  0  0  0  0  0  0  0  0  0
   -0.5676    2.4178   -0.8070 H   0  0  0  0  0  0  0  0  0  0  0  0
   -2.0812    1.3807    0.9849 H   0  0  0  0  0  0  0  0  0  0  0  0
   -2.2161   -1.0732   -0.1041 H   0  0  0  0  0  0  0  0  0  0  0  0
   -0.7227   -1.9653    1.7162 H   0  0  0  0  0  0  0  0  0  0  0  0
   -0.2830   -1.8872   -1.2115 H   0  0  0  0  0  0  0  0  0  0  0  0
  1  2  1  0
  2  3  1  0
  3  4  1  0
  4  5  2  0
  5  6  1  0
  6  7  1  0
  6  8  1  0
  8  2  1  0
  8  3  1  0
  1  9  1  0
  1 10  1  0
  1 11  1  0
  2 12  1  0
  3 13  1  0
  4 14  1  0
  5 15  1  0
  6 16  1  0
  7 17  1  0
  8 18  1  0
M  END
