
     RDKit          3D

 21 23  0  0  0  0  0  0  0  0999 V2000
   -1.5483   -1.4304   -0.8849 C   0  0  0  0  0  0  0  0  0  0  0  0
   -0.9203   -0.6211    0.1983 C   0  0  0  0  0  0  0  0  0  0  0  0
   -1.2476    0.8781    0.0853 C   0  0  0  0  0  0  0  0  0  0  0  0
   -0.9225    1.9308    0.9787 C   0  0  0  0  0  0  0  0  0  0  0  0
    0.0127    0.8615    1.0551 C   0  0  0  0  0  0  0  0  0  0  0  0
    0.4458   -0.0963   -0.0242 C   0  0  0  0  0  0  0  0  0  0  0  0
    1.6345   -0.8943    0.1515 C   0  0  0  0  0  0  0  0  0  0  0  0
    2.1712    0.2540   -0.7161 C   0  0  0  0  0  0  0  0  0  0  0  0
    0.8467    0.3771   -1.2073 O   0  0  0  0  0  0  0  0  0  0  0  0
   -1.6308   -0.8736   -1.8264 H   0  0  0  0  0  0  0  0  0  0  0  0
   -2.5537   -1.7653   -0.5049 H   0  0  0  0  0  0  0  0  0  0  0  0
   -0.9906   -2.3685   -1.0874 H   0  0  0  0  0  0  0  0  0  0  0  0
   -1.0880   -0.9375    1.2223 H   0  0  0  0  0  0  0  0  0  0  0  0
   -0.9888    1.1179   -0.9972 H   0  0  0  0  0  0  0  0  0  0  0  0
   -1.6677    2.1531    1.8003 H   0  0  0  0  0  0  0  0  0  0  0  0
   -0.4988    2.9181    0.6175 H   0  0  0  0  0  0  0  0  0  0  0  0
   -0.1451    0.2175    1.9823 H   0  0  0  0  0  0  0  0  0  0  0  0
    2.1273   -0.9765    1.1295 H   0  0  0  0  0  0  0  0  0  0  0  0
    1.6582   -1.8143   -0.4560 H   0  0  0  0  0  0  0  0  0  0  0  0
    2.3938    1.1115   -0.0650 H   0  0  0  0  0  0  0  0  0  0  0  0
    2.9120   -0.0419   -1.4516 H   0  0  0  0  0  0  0  0  0  0  0  0
  1  2  1  0
  2  3  1  0
  3  4  1  0
  4  5  1  0
  5  6  1  0
  6  7  1  0
  7  8  1  0
  8  9  1  0
  6  2  1  0
  5  3  1  0
  9  6  1  0
  1 10  1  0
  1 11  1  0
  1 12  1  0
  2 13  1  0
  3 14  1  0
  4 15  1  0
  4 16  1  0
  5 17  1  0
  7 18  1  0
  7 19  1  0
  8 20  1  0
  8 21  1  0
M  END
