
     RDKit          3D

 20 21  0  0  0  0  0  0  0  0999 V2000
   -2.4071    0.5920    0.1648 C   0  0  0  0  0  0  0  0  0  0  0  0
   -1.4019   -0.5655    0.1032 C   0  0  0  0  0  0  0  0  0  0  0  0
   -0.6334   -0.6196   -1.2415 C   0  0  0  0  0  0  0  0  0  0  0  0
   -0.0089   -0.2821    0.0204 C   0  0  0  0  0  0  0  0  0  0  0  0
    0.6831    0.9897    0.3326 C   0  0  0  0  0  0  0  0  0  0  0  0
    1.9881    0.1793    0.2931 C   0  0  0  0  0  0  0  0  0  0  0  0
    2.4336    0.0250   -1.0144 O   0  0  0  0  0  0  0  0  0  0  0  0
    1.1124   -1.0361    0.6445 C   0  0  0  0  0  0  0  0  0  0  0  0
   -1.8203    1.5005    0.3964 H   0  0  0  0  0  0  0  0  0  0  0  0
   -2.8557    0.6234   -0.8614 H   0  0  0  0  0  0  0  0  0  0  0  0
   -3.1485    0.4582    0.9482 H   0  0  0  0  0  0  0  0  0  0  0  0
   -1.8011   -1.5414    0.4272 H   0  0  0  0  0  0  0  0  0  0  0  0
   -0.9090    0.1041   -2.0149 H   0  0  0  0  0  0  0  0  0  0  0  0
   -0.4303   -1.6483   -1.6452 H   0  0  0  0  0  0  0  0  0  0  0  0
    0.6096    1.7795   -0.4124 H   0  0  0  0  0  0  0  0  0  0  0  0
    0.4774    1.2990    1.3978 H   0  0  0  0  0  0  0  0  0  0  0  0
    2.7228    0.4491    1.0441 H   0  0  0  0  0  0  0  0  0  0  0  0
    2.9169    0.8223   -1.3200 H   0  0  0  0  0  0  0  0  0  0  0  0
    1.4269   -1.9354    0.1163 H   0  0  0  0  0  0  0  0  0  0  0  0
    1.0454   -1.1937    1.7528 H   0  0  0  0  0  0  0  0  0  0  0  0
  1  2  1  0
  2  3  1  0
  3  4  1  0
  4  5  1  0
  5  6  1  0
  6  7  1  0
  6  8  1  0
  4  2  1  0
  8  4  1  0
  1  9  1  0
  1 10  1  0
  1 11  1  0
  2 12  1  0
  3 13  1  0
  3 14  1  0
  5 15  1  0
  5 16  1  0
  6 17  1  0
  7 18  1  0
  8 19  1  0
  8 20  1  0
M  END
