
     RDKit          3D

 19 20  0  0  0  0  0  0  0  0999 V2000
   -1.6453   -1.0738   -0.3926 C   0  0  0  0  0  0  0  0  0  0  0  0
   -0.8050   -0.1959    0.4861 C   0  0  0  0  0  0  0  0  0  0  0  0
   -1.3997    1.1823    0.4306 C   0  0  0  0  0  0  0  0  0  0  0  0
   -2.3556    1.6475    1.1002 O   0  0  0  0  0  0  0  0  0  0  0  0
   -0.7065    1.9164   -0.5193 O   0  0  0  0  0  0  0  0  0  0  0  0
    0.4080    1.1930   -1.0057 C   0  0  0  0  0  0  0  0  0  0  0  0
    0.5647    0.0664   -0.0487 C   0  0  0  0  0  0  0  0  0  0  0  0
    1.6342    0.1116    1.0220 C   0  0  0  0  0  0  0  0  0  0  0  0
    1.6531   -0.8975   -0.0660 C   0  0  0  0  0  0  0  0  0  0  0  0
   -1.1027   -1.5363   -1.2266 H   0  0  0  0  0  0  0  0  0  0  0  0
   -2.1006   -1.9142    0.1992 H   0  0  0  0  0  0  0  0  0  0  0  0
   -2.5219   -0.5276   -0.8380 H   0  0  0  0  0  0  0  0  0  0  0  0
   -0.8412   -0.5713    1.5116 H   0  0  0  0  0  0  0  0  0  0  0  0
    0.2035    0.7676   -2.0244 H   0  0  0  0  0  0  0  0  0  0  0  0
    1.3297    1.7874   -1.0248 H   0  0  0  0  0  0  0  0  0  0  0  0
    2.2714    1.0012    1.0148 H   0  0  0  0  0  0  0  0  0  0  0  0
    1.4028   -0.2815    2.0329 H   0  0  0  0  0  0  0  0  0  0  0  0
    2.4541   -0.7207   -0.8415 H   0  0  0  0  0  0  0  0  0  0  0  0
    1.5570   -1.9545    0.1903 H   0  0  0  0  0  0  0  0  0  0  0  0
  1  2  1  0
  2  3  1  0
  3  4  2  0
  3  5  1  0
  5  6  1  0
  6  7  1  0
  7  8  1  0
  8  9  1  0
  7  2  1  0
  9  7  1  0
  1 10  1  0
  1 11  1  0
  1 12  1  0
  2 13  1  0
  6 14  1  0
  6 15  1  0
  8 16  1  0
  8 17  1  0
  9 18  1  0
  9 19  1  0
M  END
