
     RDKit          2D

 21 23  0  0  0  0  0  0  0  0999 V2000
   -3.8461   -1.0692    0.0000 C   0  0  0  0  0  0  0  0  0  0  0  0
   -2.3972   -0.6810    0.0000 C   0  0  0  0  0  0  0  0  0  0  0  0
   -2.1625   -2.1625    0.0000 C   0  0  0  0  0  0  0  0  0  0  0  0
   -0.6810   -2.3972    0.0000 C   0  0  0  0  0  0  0  0  0  0  0  0
   -0.0000   -1.0607    0.0000 C   0  0  0  0  0  0  0  0  0  0  0  0
    1.0607    0.0000    0.0000 C   0  0  0  0  0  0  0  0  0  0  0  0
    0.0000    1.0607    0.0000 O   0  0  0  0  0  0  0  0  0  0  0  0
   -1.0607    0.0000    0.0000 C   0  0  0  0  0  0  0  0  0  0  0  0
   -1.4815   -0.8260    0.0000 C   0  0  0  0  0  0  0  0  0  0  0  0
   -5.2949   -1.4574    0.0000 H   0  0  0  0  0  0  0  0  0  0  0  0
   -3.6373   -2.5546    0.0000 H   0  0  0  0  0  0  0  0  0  0  0  0
   -4.2343    0.3797    0.0000 H   0  0  0  0  0  0  0  0  0  0  0  0
   -2.9347    0.7194    0.0000 H   0  0  0  0  0  0  0  0  0  0  0  0
   -3.0860   -3.3446    0.0000 H   0  0  0  0  0  0  0  0  0  0  0  0
    0.7194   -2.9347    0.0000 H   0  0  0  0  0  0  0  0  0  0  0  0
   -1.0692   -3.8461    0.0000 H   0  0  0  0  0  0  0  0  0  0  0  0
    2.1213    1.0607    0.0000 H   0  0  0  0  0  0  0  0  0  0  0  0
    2.1213   -1.0607    0.0000 H   0  0  0  0  0  0  0  0  0  0  0  0
   -1.9423    1.2135    0.0000 H   0  0  0  0  0  0  0  0  0  0  0  0
   -1.4677   -0.0290    0.0000 H   0  0  0  0  0  0  0  0  0  0  0  0
   -2.7102    0.0344    0.0000 H   0  0  0  0  0  0  0  0  0  0  0  0
  1  2  1  0
  2  3  1  0
  3  4  1  0
  4  5  1  0
  5  6  1  0
  6  7  1  0
  7  8  1  0
  5  9  1  0
  8  2  1  0
  9  3  1  0
  8  5  1  0
  1 10  1  0
  1 11  1  0
  1 12  1  0
  2 13  1  0
  3 14  1  0
  4 15  1  0
  4 16  1  0
  6 17  1  0
  6 18  1  0
  8 19  1  0
  9 20  1  0
  9 21  1  0
M  END
