
     RDKit          3D

 23 24  0  0  0  0  0  0  0  0999 V2000
   -1.5756   -1.8672    0.5589 C   0  0  0  0  0  0  0  0  0  0  0  0
   -0.2343   -1.2487    0.2684 C   0  0  0  0  0  0  0  0  0  0  0  0
   -0.0766    0.1263    0.8306 C   0  0  0  0  0  0  0  0  0  0  0  0
   -1.1068    0.5076   -0.2235 C   0  0  0  0  0  0  0  0  0  0  0  0
   -1.1872    1.9278   -0.5887 C   0  0  0  0  0  0  0  0  0  0  0  0
   -0.1322   -0.3799   -0.9405 C   0  0  0  0  0  0  0  0  0  0  0  0
    0.9213    0.3941   -0.2114 C   0  0  0  0  0  0  0  0  0  0  0  0
    2.2952   -0.1529   -0.1171 C   0  0  0  0  0  0  0  0  0  0  0  0
    2.8773    0.3517    1.0734 O   0  0  0  0  0  0  0  0  0  0  0  0
   -2.1267   -1.3185    1.3801 H   0  0  0  0  0  0  0  0  0  0  0  0
   -1.4244   -2.8873    0.9719 H   0  0  0  0  0  0  0  0  0  0  0  0
   -2.2064   -1.9980   -0.3427 H   0  0  0  0  0  0  0  0  0  0  0  0
    0.5665   -1.9687    0.3522 H   0  0  0  0  0  0  0  0  0  0  0  0
   -0.1148    0.4072    1.7918 H   0  0  0  0  0  0  0  0  0  0  0  0
   -2.0795    0.0264   -0.1477 H   0  0  0  0  0  0  0  0  0  0  0  0
   -0.9856    2.1343   -1.6806 H   0  0  0  0  0  0  0  0  0  0  0  0
   -0.5471    2.6097    0.0337 H   0  0  0  0  0  0  0  0  0  0  0  0
   -2.2239    2.2948   -0.4232 H   0  0  0  0  0  0  0  0  0  0  0  0
   -0.1464   -0.6470   -1.9052 H   0  0  0  0  0  0  0  0  0  0  0  0
    0.9762    1.4271   -0.6271 H   0  0  0  0  0  0  0  0  0  0  0  0
    2.3884   -1.2497   -0.0305 H   0  0  0  0  0  0  0  0  0  0  0  0
    2.9456    0.2390   -0.9550 H   0  0  0  0  0  0  0  0  0  0  0  0
    3.1969    1.2718    0.9322 H   0  0  0  0  0  0  0  0  0  0  0  0
  1  2  1  0
  2  3  1  0
  3  4  1  0
  4  5  1  0
  4  6  1  0
  6  7  1  0
  7  8  1  0
  8  9  1  0
  6  2  1  0
  7  3  1  0
  1 10  1  0
  1 11  1  0
  1 12  1  0
  2 13  1  0
  3 14  1  0
  4 15  1  0
  5 16  1  0
  5 17  1  0
  5 18  1  0
  6 19  1  0
  7 20  1  0
  8 21  1  0
  8 22  1  0
  9 23  1  0
M  END
