
     RDKit          3D

 19 20  0  0  0  0  0  0  0  0999 V2000
   -2.1296   -0.4580   -0.1255 C   0  0  0  0  0  0  0  0  0  0  0  0
   -0.9077    0.1151    0.5044 C   0  0  0  0  0  0  0  0  0  0  0  0
   -0.1706    1.0824   -0.4425 C   0  0  0  0  0  0  0  0  0  0  0  0
    1.2109    0.4893   -0.3295 C   0  0  0  0  0  0  0  0  0  0  0  0
    2.2443    1.0766   -0.9182 O   0  0  0  0  0  0  0  0  0  0  0  0
    0.9246   -0.9760   -0.6166 C   0  0  0  0  0  0  0  0  0  0  0  0
    0.1975   -0.8637    0.7287 C   0  0  0  0  0  0  0  0  0  0  0  0
    1.3382    0.0506    1.0993 C   0  0  0  0  0  0  0  0  0  0  0  0
    2.0162    0.2988    2.0772 O   0  0  0  0  0  0  0  0  0  0  0  0
   -2.8284   -0.7664    0.7050 H   0  0  0  0  0  0  0  0  0  0  0  0
   -1.9550   -1.3826   -0.7104 H   0  0  0  0  0  0  0  0  0  0  0  0
   -2.7033    0.2879   -0.7158 H   0  0  0  0  0  0  0  0  0  0  0  0
   -1.1725    0.6799    1.4323 H   0  0  0  0  0  0  0  0  0  0  0  0
   -0.2407    2.1096   -0.0980 H   0  0  0  0  0  0  0  0  0  0  0  0
   -0.5087    0.9149   -1.4858 H   0  0  0  0  0  0  0  0  0  0  0  0
    2.5627    1.8500   -0.4260 H   0  0  0  0  0  0  0  0  0  0  0  0
    0.2797   -1.1231   -1.4792 H   0  0  0  0  0  0  0  0  0  0  0  0
    1.7849   -1.6427   -0.4946 H   0  0  0  0  0  0  0  0  0  0  0  0
    0.0574   -1.7425    1.2955 H   0  0  0  0  0  0  0  0  0  0  0  0
  1  2  1  0
  2  3  1  0
  3  4  1  0
  4  5  1  0
  4  6  1  0
  6  7  1  0
  7  8  1  0
  8  9  2  0
  7  2  1  0
  8  4  1  0
  1 10  1  0
  1 11  1  0
  1 12  1  0
  2 13  1  0
  3 14  1  0
  3 15  1  0
  5 16  1  0
  6 17  1  0
  6 18  1  0
  7 19  1  0
M  END
