
     RDKit          3D

 19 20  0  0  0  0  0  0  0  0999 V2000
   -2.6116   -0.3610    0.2396 C   0  0  0  0  0  0  0  0  0  0  0  0
   -1.2014   -0.2016   -0.2431 C   0  0  0  0  0  0  0  0  0  0  0  0
   -0.2795    0.4221    0.8054 C   0  0  0  0  0  0  0  0  0  0  0  0
    0.5727    1.4776    0.2580 C   0  0  0  0  0  0  0  0  0  0  0  0
    1.7665    1.2161   -0.2361 C   0  0  0  0  0  0  0  0  0  0  0  0
    2.2580   -0.1873   -0.2370 C   0  0  0  0  0  0  0  0  0  0  0  0
    1.1548   -1.1506   -0.4033 C   0  0  0  0  0  0  0  0  0  0  0  0
    1.2610   -2.0773   -1.1518 O   0  0  0  0  0  0  0  0  0  0  0  0
   -0.0824   -0.9523    0.3694 C   0  0  0  0  0  0  0  0  0  0  0  0
   -2.9742    0.6769    0.4899 H   0  0  0  0  0  0  0  0  0  0  0  0
   -3.3006   -0.7316   -0.5358 H   0  0  0  0  0  0  0  0  0  0  0  0
   -2.6903   -0.9288    1.1853 H   0  0  0  0  0  0  0  0  0  0  0  0
   -1.1343    0.1444   -1.2952 H   0  0  0  0  0  0  0  0  0  0  0  0
   -0.6794    0.5624    1.8355 H   0  0  0  0  0  0  0  0  0  0  0  0
    0.1883    2.5288    0.2645 H   0  0  0  0  0  0  0  0  0  0  0  0
    2.3648    2.0325   -0.6319 H   0  0  0  0  0  0  0  0  0  0  0  0
    2.7651   -0.4287    0.7240 H   0  0  0  0  0  0  0  0  0  0  0  0
    2.9671   -0.2728   -1.0863 H   0  0  0  0  0  0  0  0  0  0  0  0
   -0.3448   -1.7687    1.1052 H   0  0  0  0  0  0  0  0  0  0  0  0
  1  2  1  0
  2  3  1  0
  3  4  1  0
  4  5  2  0
  5  6  1  0
  6  7  1  0
  7  8  2  0
  7  9  1  0
  9  2  1  0
  9  3  1  0
  1 10  1  0
  1 11  1  0
  1 12  1  0
  2 13  1  0
  3 14  1  0
  4 15  1  0
  5 16  1  0
  6 17  1  0
  6 18  1  0
  9 19  1  0
M  END
