
     RDKit          3D

 16 17  0  0  0  0  0  0  0  0999 V2000
    1.5635    0.2379    0.9028 C   0  0  0  0  0  0  0  0  0  0  0  0
    0.9181    0.5211   -0.4213 C   0  0  0  0  0  0  0  0  0  0  0  0
    0.5640   -0.7935   -1.0595 C   0  0  0  0  0  0  0  0  0  0  0  0
    1.2953   -1.6386   -1.5276 O   0  0  0  0  0  0  0  0  0  0  0  0
   -0.8743   -0.6168   -0.8843 C   0  0  0  0  0  0  0  0  0  0  0  0
   -1.5155   -0.0012    0.2733 C   0  0  0  0  0  0  0  0  0  0  0  0
   -1.2603   -0.4295    1.5855 O   0  0  0  0  0  0  0  0  0  0  0  0
   -0.5300    0.8429   -0.4328 C   0  0  0  0  0  0  0  0  0  0  0  0
    1.5822    1.1149    1.5826 H   0  0  0  0  0  0  0  0  0  0  0  0
    1.0617   -0.6150    1.3631 H   0  0  0  0  0  0  0  0  0  0  0  0
    2.6106   -0.1071    0.6783 H   0  0  0  0  0  0  0  0  0  0  0  0
    1.5120    1.1958   -1.0803 H   0  0  0  0  0  0  0  0  0  0  0  0
   -1.4595   -0.6759   -1.8437 H   0  0  0  0  0  0  0  0  0  0  0  0
   -2.5733    0.3120    0.1469 H   0  0  0  0  0  0  0  0  0  0  0  0
   -2.0309   -0.9846    1.8605 H   0  0  0  0  0  0  0  0  0  0  0  0
   -0.8637    1.6375   -1.1436 H   0  0  0  0  0  0  0  0  0  0  0  0
  1  2  1  0
  2  3  1  0
  3  4  2  0
  3  5  1  0
  5  6  1  0
  6  7  1  0
  6  8  1  0
  8  2  1  0
  8  5  1  0
  1  9  1  0
  1 10  1  0
  1 11  1  0
  2 12  1  0
  5 13  1  0
  6 14  1  0
  7 15  1  0
  8 16  1  0
M  END
