
     RDKit          3D

 25 25  0  0  0  0  0  0  0  0999 V2000
    2.5699   -0.6419    0.0833 C   0  0  0  0  0  0  0  0  0  0  0  0
    1.5041    0.2860   -0.4353 C   0  0  0  0  0  0  0  0  0  0  0  0
    1.1815    1.3920    0.5399 C   0  0  0  0  0  0  0  0  0  0  0  0
    0.0745    2.0704    0.0021 O   0  0  0  0  0  0  0  0  0  0  0  0
   -1.0658    1.3307    0.2384 C   0  0  0  0  0  0  0  0  0  0  0  0
   -0.9553   -0.1119   -0.1047 C   0  0  0  0  0  0  0  0  0  0  0  0
   -1.2325   -0.9562    1.1406 C   0  0  0  0  0  0  0  0  0  0  0  0
   -2.1149   -0.4415   -1.0563 C   0  0  0  0  0  0  0  0  0  0  0  0
    0.3026   -0.5054   -0.7970 C   0  0  0  0  0  0  0  0  0  0  0  0
    3.5465   -0.1417    0.1325 H   0  0  0  0  0  0  0  0  0  0  0  0
    2.2880   -1.1283    1.0390 H   0  0  0  0  0  0  0  0  0  0  0  0
    2.6590   -1.4722   -0.6596 H   0  0  0  0  0  0  0  0  0  0  0  0
    1.9565    0.7965   -1.3362 H   0  0  0  0  0  0  0  0  0  0  0  0
    1.0006    1.0367    1.5640 H   0  0  0  0  0  0  0  0  0  0  0  0
    2.0277    2.1152    0.6039 H   0  0  0  0  0  0  0  0  0  0  0  0
   -1.8983    1.8538   -0.3212 H   0  0  0  0  0  0  0  0  0  0  0  0
   -1.3226    1.4853    1.3248 H   0  0  0  0  0  0  0  0  0  0  0  0
   -0.5457   -0.7568    1.9534 H   0  0  0  0  0  0  0  0  0  0  0  0
   -2.2513   -0.6548    1.4836 H   0  0  0  0  0  0  0  0  0  0  0  0
   -1.2228   -2.0374    0.9130 H   0  0  0  0  0  0  0  0  0  0  0  0
   -3.0242    0.0726   -0.6676 H   0  0  0  0  0  0  0  0  0  0  0  0
   -1.8644   -0.0216   -2.0440 H   0  0  0  0  0  0  0  0  0  0  0  0
   -2.2227   -1.5432   -1.0701 H   0  0  0  0  0  0  0  0  0  0  0  0
    0.4598   -1.6013   -0.6174 H   0  0  0  0  0  0  0  0  0  0  0  0
    0.1500   -0.4250   -1.9092 H   0  0  0  0  0  0  0  0  0  0  0  0
  1  2  1  0
  2  3  1  0
  3  4  1  0
  4  5  1  0
  5  6  1  0
  6  7  1  0
  6  8  1  0
  6  9  1  0
  9  2  1  0
  1 10  1  0
  1 11  1  0
  1 12  1  0
  2 13  1  0
  3 14  1  0
  3 15  1  0
  5 16  1  0
  5 17  1  0
  7 18  1  0
  7 19  1  0
  7 20  1  0
  8 21  1  0
  8 22  1  0
  8 23  1  0
  9 24  1  0
  9 25  1  0
M  END
