
     RDKit          3D

 23 24  0  0  0  0  0  0  0  0999 V2000
   -1.8914   -1.3804   -0.8466 C   0  0  0  0  0  0  0  0  0  0  0  0
   -1.2111   -0.6435    0.2683 C   0  0  0  0  0  0  0  0  0  0  0  0
    0.1559   -0.0951   -0.0417 C   0  0  0  0  0  0  0  0  0  0  0  0
    1.3158   -0.7980    0.5787 C   0  0  0  0  0  0  0  0  0  0  0  0
    2.5814   -0.0886    0.1391 C   0  0  0  0  0  0  0  0  0  0  0  0
    2.6214   -0.1658   -1.2609 O   0  0  0  0  0  0  0  0  0  0  0  0
   -0.2609    1.1640    0.7110 C   0  0  0  0  0  0  0  0  0  0  0  0
   -1.3228    1.9523    0.0463 C   0  0  0  0  0  0  0  0  0  0  0  0
   -1.7507    0.6908    0.6325 C   0  0  0  0  0  0  0  0  0  0  0  0
   -1.3095   -1.3034   -1.8064 H   0  0  0  0  0  0  0  0  0  0  0  0
   -2.9092   -1.0211   -1.0672 H   0  0  0  0  0  0  0  0  0  0  0  0
   -1.9440   -2.4901   -0.6470 H   0  0  0  0  0  0  0  0  0  0  0  0
   -1.1232   -1.3293    1.1611 H   0  0  0  0  0  0  0  0  0  0  0  0
    0.3570    0.1111   -1.1202 H   0  0  0  0  0  0  0  0  0  0  0  0
    1.3798   -1.8378    0.1569 H   0  0  0  0  0  0  0  0  0  0  0  0
    1.2969   -0.8655    1.6642 H   0  0  0  0  0  0  0  0  0  0  0  0
    2.6198    0.9611    0.4345 H   0  0  0  0  0  0  0  0  0  0  0  0
    3.4929   -0.6260    0.5076 H   0  0  0  0  0  0  0  0  0  0  0  0
    2.9197    0.7085   -1.6430 H   0  0  0  0  0  0  0  0  0  0  0  0
    0.0949    1.3443    1.7202 H   0  0  0  0  0  0  0  0  0  0  0  0
   -1.1801    2.1047   -1.0460 H   0  0  0  0  0  0  0  0  0  0  0  0
   -1.6205    2.8805    0.5644 H   0  0  0  0  0  0  0  0  0  0  0  0
   -2.3118    0.7275    1.5963 H   0  0  0  0  0  0  0  0  0  0  0  0
  1  2  1  0
  2  3  1  0
  3  4  1  0
  4  5  1  0
  5  6  1  0
  3  7  1  0
  7  8  1  0
  8  9  1  0
  9  2  1  0
  9  7  1  0
  1 10  1  0
  1 11  1  0
  1 12  1  0
  2 13  1  0
  3 14  1  0
  4 15  1  0
  4 16  1  0
  5 17  1  0
  5 18  1  0
  6 19  1  0
  7 20  1  0
  8 21  1  0
  8 22  1  0
  9 23  1  0
M  END
