
     RDKit          3D

 19 20  0  0  0  0  0  0  0  0999 V2000
    2.1780    0.4993    0.1841 C   0  0  0  0  0  0  0  0  0  0  0  0
    1.0102   -0.4202    0.4382 C   0  0  0  0  0  0  0  0  0  0  0  0
   -0.1573    0.3158    1.0683 C   0  0  0  0  0  0  0  0  0  0  0  0
   -1.3228   -0.0238    0.2262 C   0  0  0  0  0  0  0  0  0  0  0  0
   -1.8854    1.0910   -0.6066 C   0  0  0  0  0  0  0  0  0  0  0  0
   -2.5739    0.4315    0.4107 O   0  0  0  0  0  0  0  0  0  0  0  0
   -0.9813   -1.2932   -0.4846 C   0  0  0  0  0  0  0  0  0  0  0  0
    0.4631   -1.0007   -0.8264 C   0  0  0  0  0  0  0  0  0  0  0  0
    1.0000   -1.2038   -1.8788 O   0  0  0  0  0  0  0  0  0  0  0  0
    2.0972    1.4357    0.7428 H   0  0  0  0  0  0  0  0  0  0  0  0
    3.0946   -0.0630    0.4748 H   0  0  0  0  0  0  0  0  0  0  0  0
    2.1959    0.7004   -0.9193 H   0  0  0  0  0  0  0  0  0  0  0  0
    1.2841   -1.2828    1.0847 H   0  0  0  0  0  0  0  0  0  0  0  0
    0.0943    1.3923    1.0561 H   0  0  0  0  0  0  0  0  0  0  0  0
   -0.2798    0.0502    2.1507 H   0  0  0  0  0  0  0  0  0  0  0  0
   -1.6194    2.1493   -0.3359 H   0  0  0  0  0  0  0  0  0  0  0  0
   -2.0899    0.8580   -1.6576 H   0  0  0  0  0  0  0  0  0  0  0  0
   -0.9303   -2.1305    0.2456 H   0  0  0  0  0  0  0  0  0  0  0  0
   -1.5774   -1.5054   -1.3731 H   0  0  0  0  0  0  0  0  0  0  0  0
  1  2  1  0
  2  3  1  0
  3  4  1  0
  4  5  1  0
  5  6  1  0
  4  7  1  0
  7  8  1  0
  8  9  2  0
  8  2  1  0
  6  4  1  0
  1 10  1  0
  1 11  1  0
  1 12  1  0
  2 13  1  0
  3 14  1  0
  3 15  1  0
  5 16  1  0
  5 17  1  0
  7 18  1  0
  7 19  1  0
M  END
