
     RDKit          3D

 23 24  0  0  0  0  0  0  0  0999 V2000
   -1.2450    1.6098    0.2111 C   0  0  0  0  0  0  0  0  0  0  0  0
   -1.0024    0.1694    0.4769 C   0  0  0  0  0  0  0  0  0  0  0  0
   -1.8387   -0.6620   -0.5159 C   0  0  0  0  0  0  0  0  0  0  0  0
   -0.5204   -0.8549   -1.2858 C   0  0  0  0  0  0  0  0  0  0  0  0
    0.1528   -0.5200   -0.0154 C   0  0  0  0  0  0  0  0  0  0  0  0
    0.5901   -1.6793    0.8563 C   0  0  0  0  0  0  0  0  0  0  0  0
    1.5424   -0.7759    1.3885 O   0  0  0  0  0  0  0  0  0  0  0  0
    1.5267   -0.1801    0.1019 C   0  0  0  0  0  0  0  0  0  0  0  0
    2.0377    1.2106    0.0520 C   0  0  0  0  0  0  0  0  0  0  0  0
   -0.8202    2.2199    1.0217 H   0  0  0  0  0  0  0  0  0  0  0  0
   -2.3628    1.7736    0.2777 H   0  0  0  0  0  0  0  0  0  0  0  0
   -0.9708    1.9321   -0.8031 H   0  0  0  0  0  0  0  0  0  0  0  0
   -1.3582   -0.0916    1.5118 H   0  0  0  0  0  0  0  0  0  0  0  0
   -2.1254   -1.6536   -0.1051 H   0  0  0  0  0  0  0  0  0  0  0  0
   -2.6028   -0.1016   -1.0511 H   0  0  0  0  0  0  0  0  0  0  0  0
   -0.3929   -0.0150   -2.0299 H   0  0  0  0  0  0  0  0  0  0  0  0
   -0.3912   -1.8627   -1.6861 H   0  0  0  0  0  0  0  0  0  0  0  0
   -0.1662   -1.9340    1.6186 H   0  0  0  0  0  0  0  0  0  0  0  0
    1.0349   -2.5344    0.3301 H   0  0  0  0  0  0  0  0  0  0  0  0
    2.1918   -0.8356   -0.5391 H   0  0  0  0  0  0  0  0  0  0  0  0
    2.6030    1.4148    1.0050 H   0  0  0  0  0  0  0  0  0  0  0  0
    2.8088    1.3689   -0.7589 H   0  0  0  0  0  0  0  0  0  0  0  0
    1.3085    2.0019   -0.0614 H   0  0  0  0  0  0  0  0  0  0  0  0
  1  2  1  0
  2  3  1  0
  3  4  1  0
  4  5  1  0
  5  6  1  0
  6  7  1  0
  7  8  1  0
  8  9  1  0
  5  2  1  0
  8  5  1  0
  1 10  1  0
  1 11  1  0
  1 12  1  0
  2 13  1  0
  3 14  1  0
  3 15  1  0
  4 16  1  0
  4 17  1  0
  6 18  1  0
  6 19  1  0
  8 20  1  0
  9 21  1  0
  9 22  1  0
  9 23  1  0
M  END
