
     RDKit          3D

 21 22  0  0  0  0  0  0  0  0999 V2000
    2.4899   -0.3860    0.0866 C   0  0  0  0  0  0  0  0  0  0  0  0
    1.4554    0.7053    0.0110 C   0  0  0  0  0  0  0  0  0  0  0  0
    0.3315    0.3292   -0.9527 C   0  0  0  0  0  0  0  0  0  0  0  0
   -0.7841    0.0573   -0.0160 C   0  0  0  0  0  0  0  0  0  0  0  0
   -2.0871    0.5866   -0.4605 C   0  0  0  0  0  0  0  0  0  0  0  0
   -2.2594   -0.6185   -1.1866 O   0  0  0  0  0  0  0  0  0  0  0  0
   -1.5232   -1.2255   -0.1428 C   0  0  0  0  0  0  0  0  0  0  0  0
   -0.2978    0.3298    1.3516 C   0  0  0  0  0  0  0  0  0  0  0  0
    0.8883    0.9940    1.2127 O   0  0  0  0  0  0  0  0  0  0  0  0
    3.4730   -0.0787   -0.3436 H   0  0  0  0  0  0  0  0  0  0  0  0
    2.6715   -0.6042    1.1506 H   0  0  0  0  0  0  0  0  0  0  0  0
    2.1694   -1.2727   -0.4757 H   0  0  0  0  0  0  0  0  0  0  0  0
    1.9908    1.6249   -0.3569 H   0  0  0  0  0  0  0  0  0  0  0  0
    0.0830    1.2800   -1.5081 H   0  0  0  0  0  0  0  0  0  0  0  0
    0.6079   -0.4922   -1.6195 H   0  0  0  0  0  0  0  0  0  0  0  0
   -2.0166    1.4368   -1.1762 H   0  0  0  0  0  0  0  0  0  0  0  0
   -2.9103    0.6462    0.2759 H   0  0  0  0  0  0  0  0  0  0  0  0
   -0.9729   -2.1173   -0.4213 H   0  0  0  0  0  0  0  0  0  0  0  0
   -2.2205   -1.3603    0.7155 H   0  0  0  0  0  0  0  0  0  0  0  0
   -1.0208    0.8256    2.0152 H   0  0  0  0  0  0  0  0  0  0  0  0
   -0.0681   -0.6602    1.8408 H   0  0  0  0  0  0  0  0  0  0  0  0
  1  2  1  0
  2  3  1  0
  3  4  1  0
  4  5  1  0
  5  6  1  0
  6  7  1  0
  4  8  1  0
  8  9  1  0
  9  2  1  0
  7  4  1  0
  1 10  1  0
  1 11  1  0
  1 12  1  0
  2 13  1  0
  3 14  1  0
  3 15  1  0
  5 16  1  0
  5 17  1  0
  7 18  1  0
  7 19  1  0
  8 20  1  0
  8 21  1  0
M  END
