
     RDKit          3D

 19 20  0  0  0  0  0  0  0  0999 V2000
    1.8256   -0.5223    0.4818 C   0  0  0  0  0  0  0  0  0  0  0  0
    0.9109    0.4989   -0.1100 C   0  0  0  0  0  0  0  0  0  0  0  0
    0.3895    1.5311    0.8192 C   0  0  0  0  0  0  0  0  0  0  0  0
    0.8473    2.2125    1.6993 O   0  0  0  0  0  0  0  0  0  0  0  0
   -0.9400    1.3564    0.1907 C   0  0  0  0  0  0  0  0  0  0  0  0
   -0.4792    0.0201   -0.2501 C   0  0  0  0  0  0  0  0  0  0  0  0
   -0.9678   -0.5720   -1.4812 C   0  0  0  0  0  0  0  0  0  0  0  0
   -1.2561   -1.7549   -0.7578 O   0  0  0  0  0  0  0  0  0  0  0  0
   -0.9180   -1.1768    0.4860 C   0  0  0  0  0  0  0  0  0  0  0  0
    1.6657   -1.5088   -0.0341 H   0  0  0  0  0  0  0  0  0  0  0  0
    2.8842   -0.2352    0.2184 H   0  0  0  0  0  0  0  0  0  0  0  0
    1.7082   -0.6171    1.5773 H   0  0  0  0  0  0  0  0  0  0  0  0
    1.3004    0.9849   -1.0376 H   0  0  0  0  0  0  0  0  0  0  0  0
   -1.0514    2.0408   -0.6998 H   0  0  0  0  0  0  0  0  0  0  0  0
   -1.8074    1.3594    0.8729 H   0  0  0  0  0  0  0  0  0  0  0  0
   -0.2759   -0.7647   -2.3181 H   0  0  0  0  0  0  0  0  0  0  0  0
   -1.9434   -0.1401   -1.8132 H   0  0  0  0  0  0  0  0  0  0  0  0
   -1.8120   -1.0295    1.1505 H   0  0  0  0  0  0  0  0  0  0  0  0
   -0.0805   -1.6828    1.0058 H   0  0  0  0  0  0  0  0  0  0  0  0
  1  2  1  0
  2  3  1  0
  3  4  2  0
  3  5  1  0
  5  6  1  0
  6  7  1  0
  7  8  1  0
  8  9  1  0
  6  2  1  0
  9  6  1  0
  1 10  1  0
  1 11  1  0
  1 12  1  0
  2 13  1  0
  5 14  1  0
  5 15  1  0
  7 16  1  0
  7 17  1  0
  9 18  1  0
  9 19  1  0
M  END
