
     RDKit          3D

 21 24  0  0  0  0  0  0  0  0999 V2000
   -1.0194    1.8702    0.0016 C   0  0  0  0  0  0  0  0  0  0  0  0
   -0.5841    0.5696    0.5456 C   0  0  0  0  0  0  0  0  0  0  0  0
   -1.5071   -0.5858    0.2177 C   0  0  0  0  0  0  0  0  0  0  0  0
   -0.8984   -1.3162   -0.8907 C   0  0  0  0  0  0  0  0  0  0  0  0
   -0.6857   -1.7519    0.5586 C   0  0  0  0  0  0  0  0  0  0  0  0
    0.7313   -1.3542    0.4361 C   0  0  0  0  0  0  0  0  0  0  0  0
    0.5377   -0.9655   -0.9570 C   0  0  0  0  0  0  0  0  0  0  0  0
    0.7366    0.0731    0.0568 C   0  0  0  0  0  0  0  0  0  0  0  0
    1.9466    0.9157    0.0173 C   0  0  0  0  0  0  0  0  0  0  0  0
   -0.1522    2.3649   -0.5218 H   0  0  0  0  0  0  0  0  0  0  0  0
   -1.9109    1.8494   -0.6323 H   0  0  0  0  0  0  0  0  0  0  0  0
   -1.2394    2.5673    0.8625 H   0  0  0  0  0  0  0  0  0  0  0  0
   -0.5261    0.5877    1.6741 H   0  0  0  0  0  0  0  0  0  0  0  0
   -2.5788   -0.5069    0.3555 H   0  0  0  0  0  0  0  0  0  0  0  0
   -1.4015   -1.9862   -1.5693 H   0  0  0  0  0  0  0  0  0  0  0  0
   -1.0402   -2.7218    0.8488 H   0  0  0  0  0  0  0  0  0  0  0  0
    1.5664   -1.8915    0.8488 H   0  0  0  0  0  0  0  0  0  0  0  0
    1.1932   -1.1931   -1.7777 H   0  0  0  0  0  0  0  0  0  0  0  0
    2.1254    1.2753   -1.0362 H   0  0  0  0  0  0  0  0  0  0  0  0
    2.8244    0.3492    0.3325 H   0  0  0  0  0  0  0  0  0  0  0  0
    1.8823    1.8505    0.6294 H   0  0  0  0  0  0  0  0  0  0  0  0
  1  2  1  0
  2  3  1  0
  3  4  1  0
  4  5  1  0
  5  6  1  0
  6  7  1  0
  7  8  1  0
  8  9  1  0
  8  2  1  0
  5  3  1  0
  8  6  1  0
  7  4  1  0
  1 10  1  0
  1 11  1  0
  1 12  1  0
  2 13  1  0
  3 14  1  0
  4 15  1  0
  5 16  1  0
  6 17  1  0
  7 18  1  0
  9 19  1  0
  9 20  1  0
  9 21  1  0
M  END
