
     RDKit          3D

 21 21  0  0  0  0  0  0  0  0999 V2000
   -2.1386    0.4825    0.2017 C   0  0  0  0  0  0  0  0  0  0  0  0
   -1.1260   -0.4264   -0.4527 C   0  0  0  0  0  0  0  0  0  0  0  0
   -0.6159    0.2720   -1.6549 C   0  0  0  0  0  0  0  0  0  0  0  0
    0.5546    0.7831   -1.3757 C   0  0  0  0  0  0  0  0  0  0  0  0
    0.9492    0.4796    0.0401 C   0  0  0  0  0  0  0  0  0  0  0  0
    2.3886    0.0268    0.0089 C   0  0  0  0  0  0  0  0  0  0  0  0
    0.0664   -0.6974    0.3862 C   0  0  0  0  0  0  0  0  0  0  0  0
   -0.1915   -0.8337    1.8147 C   0  0  0  0  0  0  0  0  0  0  0  0
   -0.2036   -1.9275    2.3487 O   0  0  0  0  0  0  0  0  0  0  0  0
   -2.9813    0.5865   -0.5393 H   0  0  0  0  0  0  0  0  0  0  0  0
   -1.7456    1.5082    0.3417 H   0  0  0  0  0  0  0  0  0  0  0  0
   -2.5487    0.0790    1.1342 H   0  0  0  0  0  0  0  0  0  0  0  0
   -1.6670   -1.3579   -0.7228 H   0  0  0  0  0  0  0  0  0  0  0  0
   -1.1485    0.3425   -2.6253 H   0  0  0  0  0  0  0  0  0  0  0  0
    1.1834    1.3551   -2.0522 H   0  0  0  0  0  0  0  0  0  0  0  0
    0.7711    1.3646    0.6519 H   0  0  0  0  0  0  0  0  0  0  0  0
    2.4696   -0.9711    0.5290 H   0  0  0  0  0  0  0  0  0  0  0  0
    3.0615    0.7189    0.5391 H   0  0  0  0  0  0  0  0  0  0  0  0
    2.7331   -0.1890   -1.0390 H   0  0  0  0  0  0  0  0  0  0  0  0
    0.5696   -1.6178    0.0156 H   0  0  0  0  0  0  0  0  0  0  0  0
   -0.3802    0.0220    2.4501 H   0  0  0  0  0  0  0  0  0  0  0  0
  1  2  1  0
  2  3  1  0
  3  4  2  0
  4  5  1  0
  5  6  1  0
  5  7  1  0
  7  8  1  0
  8  9  2  0
  7  2  1  0
  1 10  1  0
  1 11  1  0
  1 12  1  0
  2 13  1  0
  3 14  1  0
  4 15  1  0
  5 16  1  0
  6 17  1  0
  6 18  1  0
  6 19  1  0
  7 20  1  0
  8 21  1  0
M  END
