
     RDKit          3D

 21 22  0  0  0  0  0  0  0  0999 V2000
   -2.2669    0.4972    0.6597 C   0  0  0  0  0  0  0  0  0  0  0  0
   -0.7858    0.3915    0.2045 C   0  0  0  0  0  0  0  0  0  0  0  0
   -0.7737   -0.1524   -1.2364 C   0  0  0  0  0  0  0  0  0  0  0  0
    0.3709   -1.1668   -1.2421 C   0  0  0  0  0  0  0  0  0  0  0  0
    1.1198   -0.7169   -0.0525 C   0  0  0  0  0  0  0  0  0  0  0  0
    2.0238    0.4409   -0.2897 C   0  0  0  0  0  0  0  0  0  0  0  0
    1.7721    1.5909    0.4128 O   0  0  0  0  0  0  0  0  0  0  0  0
    1.1124   -1.0755    1.2265 O   0  0  0  0  0  0  0  0  0  0  0  0
   -0.0842   -0.6922    0.8871 C   0  0  0  0  0  0  0  0  0  0  0  0
   -2.2049    1.0409    1.6310 H   0  0  0  0  0  0  0  0  0  0  0  0
   -2.7633    1.0988   -0.1022 H   0  0  0  0  0  0  0  0  0  0  0  0
   -2.6990   -0.5112    0.7495 H   0  0  0  0  0  0  0  0  0  0  0  0
   -0.4350    1.4090    0.2793 H   0  0  0  0  0  0  0  0  0  0  0  0
   -0.6081    0.6498   -1.9624 H   0  0  0  0  0  0  0  0  0  0  0  0
   -1.7424   -0.6727   -1.3724 H   0  0  0  0  0  0  0  0  0  0  0  0
   -0.0090   -2.2032   -1.2032 H   0  0  0  0  0  0  0  0  0  0  0  0
    0.9504   -0.9698   -2.1585 H   0  0  0  0  0  0  0  0  0  0  0  0
    2.2249    0.6271   -1.3735 H   0  0  0  0  0  0  0  0  0  0  0  0
    3.0439    0.1001    0.0820 H   0  0  0  0  0  0  0  0  0  0  0  0
    2.5182    1.9449    0.9314 H   0  0  0  0  0  0  0  0  0  0  0  0
   -0.7644   -1.6303    0.8339 H   0  0  0  0  0  0  0  0  0  0  0  0
  1  2  1  0
  2  3  1  0
  3  4  1  0
  4  5  1  0
  5  6  1  0
  6  7  1  0
  5  8  1  0
  8  9  1  0
  9  2  1  0
  9  5  1  0
  1 10  1  0
  1 11  1  0
  1 12  1  0
  2 13  1  0
  3 14  1  0
  3 15  1  0
  4 16  1  0
  4 17  1  0
  6 18  1  0
  6 19  1  0
  7 20  1  0
  9 21  1  0
M  END
