
     RDKit          3D

 21 21  0  0  0  0  0  0  0  0999 V2000
   -2.7642    0.3013   -0.4143 C   0  0  0  0  0  0  0  0  0  0  0  0
   -1.4700   -0.4006   -0.2167 C   0  0  0  0  0  0  0  0  0  0  0  0
   -0.6166   -0.4209   -1.4886 C   0  0  0  0  0  0  0  0  0  0  0  0
    0.6029   -0.8310   -1.0048 O   0  0  0  0  0  0  0  0  0  0  0  0
    0.7786   -0.3347    0.2599 C   0  0  0  0  0  0  0  0  0  0  0  0
    2.0031    0.5260    0.4208 C   0  0  0  0  0  0  0  0  0  0  0  0
    3.1849   -0.3148    0.0818 C   0  0  0  0  0  0  0  0  0  0  0  0
    4.3014    0.1942    0.1472 O   0  0  0  0  0  0  0  0  0  0  0  0
   -0.4903    0.3966    0.6508 C   0  0  0  0  0  0  0  0  0  0  0  0
   -3.2572   -0.1855   -1.3056 H   0  0  0  0  0  0  0  0  0  0  0  0
   -3.4112    0.1229    0.4403 H   0  0  0  0  0  0  0  0  0  0  0  0
   -2.5804    1.3582   -0.6563 H   0  0  0  0  0  0  0  0  0  0  0  0
   -1.5424   -1.4047    0.2055 H   0  0  0  0  0  0  0  0  0  0  0  0
   -1.0589   -1.0814   -2.2322 H   0  0  0  0  0  0  0  0  0  0  0  0
   -0.4945    0.6300   -1.8474 H   0  0  0  0  0  0  0  0  0  0  0  0
    0.8852   -1.1676    1.0149 H   0  0  0  0  0  0  0  0  0  0  0  0
    1.9060    1.4009   -0.2610 H   0  0  0  0  0  0  0  0  0  0  0  0
    2.0867    0.8085    1.4790 H   0  0  0  0  0  0  0  0  0  0  0  0
    3.1117   -1.3464   -0.2178 H   0  0  0  0  0  0  0  0  0  0  0  0
   -0.7237    0.3461    1.7072 H   0  0  0  0  0  0  0  0  0  0  0  0
   -0.4511    1.4029    0.2254 H   0  0  0  0  0  0  0  0  0  0  0  0
  1  2  1  0
  2  3  1  0
  3  4  1  0
  4  5  1  0
  5  6  1  0
  6  7  1  0
  7  8  2  0
  5  9  1  0
  9  2  1  0
  1 10  1  0
  1 11  1  0
  1 12  1  0
  2 13  1  0
  3 14  1  0
  3 15  1  0
  5 16  1  0
  6 17  1  0
  6 18  1  0
  7 19  1  0
  9 20  1  0
  9 21  1  0
M  END
