
     RDKit          3D

 19 20  0  0  0  0  0  0  0  0999 V2000
    2.6132   -0.1262    0.3394 C   0  0  0  0  0  0  0  0  0  0  0  0
    1.3264   -0.0894   -0.4048 C   0  0  0  0  0  0  0  0  0  0  0  0
    0.4392    1.1111   -0.1700 C   0  0  0  0  0  0  0  0  0  0  0  0
   -0.6456    0.1675    0.1246 C   0  0  0  0  0  0  0  0  0  0  0  0
   -1.8793    0.4005    0.8047 C   0  0  0  0  0  0  0  0  0  0  0  0
   -1.8511   -0.0294   -0.6824 C   0  0  0  0  0  0  0  0  0  0  0  0
   -2.1881   -1.3777   -0.9337 O   0  0  0  0  0  0  0  0  0  0  0  0
    0.2930   -0.9229    0.3139 C   0  0  0  0  0  0  0  0  0  0  0  0
    0.3529   -2.0185    0.7935 O   0  0  0  0  0  0  0  0  0  0  0  0
    2.5432   -0.6958    1.3115 H   0  0  0  0  0  0  0  0  0  0  0  0
    3.0460    0.8456    0.5859 H   0  0  0  0  0  0  0  0  0  0  0  0
    3.3344   -0.7430   -0.2747 H   0  0  0  0  0  0  0  0  0  0  0  0
    1.3507   -0.3403   -1.4781 H   0  0  0  0  0  0  0  0  0  0  0  0
    0.3488    1.7669   -1.0586 H   0  0  0  0  0  0  0  0  0  0  0  0
    0.7419    1.7525    0.6973 H   0  0  0  0  0  0  0  0  0  0  0  0
   -2.2056    1.4407    1.0018 H   0  0  0  0  0  0  0  0  0  0  0  0
   -2.2836   -0.3213    1.5320 H   0  0  0  0  0  0  0  0  0  0  0  0
   -2.1982    0.6902   -1.4293 H   0  0  0  0  0  0  0  0  0  0  0  0
   -3.1383   -1.5105   -1.0730 H   0  0  0  0  0  0  0  0  0  0  0  0
  1  2  1  0
  2  3  1  0
  3  4  1  0
  4  5  1  0
  5  6  1  0
  6  7  1  0
  4  8  1  0
  8  9  2  0
  8  2  1  0
  6  4  1  0
  1 10  1  0
  1 11  1  0
  1 12  1  0
  2 13  1  0
  3 14  1  0
  3 15  1  0
  5 16  1  0
  5 17  1  0
  6 18  1  0
  7 19  1  0
M  END
