
     RDKit          3D

 19 21  0  0  0  0  0  0  0  0999 V2000
    2.2905   -0.2228    0.3813 C   0  0  0  0  0  0  0  0  0  0  0  0
    1.0450   -0.3987   -0.4158 C   0  0  0  0  0  0  0  0  0  0  0  0
   -0.1853   -0.8074    0.3344 C   0  0  0  0  0  0  0  0  0  0  0  0
   -0.1936    0.5667    0.9246 C   0  0  0  0  0  0  0  0  0  0  0  0
   -1.6374    0.8963    1.0228 C   0  0  0  0  0  0  0  0  0  0  0  0
   -2.1205    0.4532   -0.1473 C   0  0  0  0  0  0  0  0  0  0  0  0
   -0.9577   -0.1682   -0.7884 C   0  0  0  0  0  0  0  0  0  0  0  0
   -1.0521   -0.7750   -1.9668 O   0  0  0  0  0  0  0  0  0  0  0  0
    0.1488    0.8030   -0.5124 C   0  0  0  0  0  0  0  0  0  0  0  0
    2.7541    0.7575    0.0617 H   0  0  0  0  0  0  0  0  0  0  0  0
    2.1684   -0.2797    1.4653 H   0  0  0  0  0  0  0  0  0  0  0  0
    3.0506   -0.9891    0.1015 H   0  0  0  0  0  0  0  0  0  0  0  0
    1.1489   -1.0023   -1.3470 H   0  0  0  0  0  0  0  0  0  0  0  0
   -0.3783   -1.6791    0.7822 H   0  0  0  0  0  0  0  0  0  0  0  0
    0.4737    0.8361    1.7003 H   0  0  0  0  0  0  0  0  0  0  0  0
   -2.1598    1.3768    1.8438 H   0  0  0  0  0  0  0  0  0  0  0  0
   -3.1269    0.5297   -0.5372 H   0  0  0  0  0  0  0  0  0  0  0  0
   -1.6043   -1.5695   -1.9314 H   0  0  0  0  0  0  0  0  0  0  0  0
    0.3363    1.6727   -0.9716 H   0  0  0  0  0  0  0  0  0  0  0  0
  1  2  1  0
  2  3  1  0
  3  4  1  0
  4  5  1  0
  5  6  2  0
  6  7  1  0
  7  8  1  0
  7  9  1  0
  9  2  1  0
  7  3  1  0
  9  4  1  0
  1 10  1  0
  1 11  1  0
  1 12  1  0
  2 13  1  0
  3 14  1  0
  4 15  1  0
  5 16  1  0
  6 17  1  0
  8 18  1  0
  9 19  1  0
M  END
