
     RDKit          3D

 19 20  0  0  0  0  0  0  0  0999 V2000
   -2.0305   -0.5074   -0.0426 C   0  0  0  0  0  0  0  0  0  0  0  0
   -0.9073    0.4797   -0.0939 C   0  0  0  0  0  0  0  0  0  0  0  0
    0.0327    0.1748   -1.2452 C   0  0  0  0  0  0  0  0  0  0  0  0
    1.4132    0.3691   -0.6596 C   0  0  0  0  0  0  0  0  0  0  0  0
    1.6831   -0.8957    0.1115 C   0  0  0  0  0  0  0  0  0  0  0  0
    0.7781   -0.9005    1.0874 C   0  0  0  0  0  0  0  0  0  0  0  0
    0.0242    0.4132    1.0838 C   0  0  0  0  0  0  0  0  0  0  0  0
    1.1257    1.2648    0.5040 C   0  0  0  0  0  0  0  0  0  0  0  0
    1.5750    2.2945    0.8853 O   0  0  0  0  0  0  0  0  0  0  0  0
   -2.6557   -0.3346   -0.9441 H   0  0  0  0  0  0  0  0  0  0  0  0
   -1.6878   -1.5441   -0.0830 H   0  0  0  0  0  0  0  0  0  0  0  0
   -2.6724   -0.2948    0.8273 H   0  0  0  0  0  0  0  0  0  0  0  0
   -1.2678    1.4987   -0.2066 H   0  0  0  0  0  0  0  0  0  0  0  0
   -0.1220   -0.9089   -1.4821 H   0  0  0  0  0  0  0  0  0  0  0  0
   -0.1642    0.7951   -2.1246 H   0  0  0  0  0  0  0  0  0  0  0  0
    2.1799    0.6799   -1.3170 H   0  0  0  0  0  0  0  0  0  0  0  0
    2.4424   -1.5958   -0.1163 H   0  0  0  0  0  0  0  0  0  0  0  0
    0.5965   -1.7133    1.7862 H   0  0  0  0  0  0  0  0  0  0  0  0
   -0.3430    0.7253    2.0296 H   0  0  0  0  0  0  0  0  0  0  0  0
  1  2  1  0
  2  3  1  0
  3  4  1  0
  4  5  1  0
  5  6  2  0
  6  7  1  0
  7  8  1  0
  8  9  2  0
  7  2  1  0
  8  4  1  0
  1 10  1  0
  1 11  1  0
  1 12  1  0
  2 13  1  0
  3 14  1  0
  3 15  1  0
  4 16  1  0
  5 17  1  0
  6 18  1  0
  7 19  1  0
M  END
