
     RDKit          3D

 21 22  0  0  0  0  0  0  0  0999 V2000
   -1.5679   -1.0779    0.6489 C   0  0  0  0  0  0  0  0  0  0  0  0
   -1.3527    0.0766   -0.2776 C   0  0  0  0  0  0  0  0  0  0  0  0
   -0.5147    1.2171    0.3157 C   0  0  0  0  0  0  0  0  0  0  0  0
    0.4746    0.6614    1.2630 C   0  0  0  0  0  0  0  0  0  0  0  0
    1.5088   -0.1328    1.0171 C   0  0  0  0  0  0  0  0  0  0  0  0
    1.7255   -0.9085   -0.2451 C   0  0  0  0  0  0  0  0  0  0  0  0
    0.5791   -1.1307   -0.9293 O   0  0  0  0  0  0  0  0  0  0  0  0
   -0.2211   -0.1278   -1.2955 C   0  0  0  0  0  0  0  0  0  0  0  0
    0.1676    1.2722   -1.0626 C   0  0  0  0  0  0  0  0  0  0  0  0
   -2.6744   -1.1789    0.8040 H   0  0  0  0  0  0  0  0  0  0  0  0
   -1.1758   -2.0230    0.1873 H   0  0  0  0  0  0  0  0  0  0  0  0
   -1.0973   -0.8958    1.6375 H   0  0  0  0  0  0  0  0  0  0  0  0
   -2.2367    0.5131   -0.7555 H   0  0  0  0  0  0  0  0  0  0  0  0
   -1.0587    2.1057    0.6035 H   0  0  0  0  0  0  0  0  0  0  0  0
    0.3378    0.9374    2.2866 H   0  0  0  0  0  0  0  0  0  0  0  0
    2.2838   -0.2632    1.7573 H   0  0  0  0  0  0  0  0  0  0  0  0
    2.4334   -0.3479   -0.8851 H   0  0  0  0  0  0  0  0  0  0  0  0
    2.2071   -1.8846   -0.0317 H   0  0  0  0  0  0  0  0  0  0  0  0
   -0.6272   -0.2943   -2.3376 H   0  0  0  0  0  0  0  0  0  0  0  0
   -0.4366    1.9691   -1.6863 H   0  0  0  0  0  0  0  0  0  0  0  0
    1.2454    1.5127   -1.0146 H   0  0  0  0  0  0  0  0  0  0  0  0
  1  2  1  0
  2  3  1  0
  3  4  1  0
  4  5  2  0
  5  6  1  0
  6  7  1  0
  7  8  1  0
  8  9  1  0
  8  2  1  0
  9  3  1  0
  1 10  1  0
  1 11  1  0
  1 12  1  0
  2 13  1  0
  3 14  1  0
  4 15  1  0
  5 16  1  0
  6 17  1  0
  6 18  1  0
  8 19  1  0
  9 20  1  0
  9 21  1  0
M  END
