
     RDKit          3D

 23 24  0  0  0  0  0  0  0  0999 V2000
   -1.1439   -1.7804    0.3206 C   0  0  0  0  0  0  0  0  0  0  0  0
   -0.2031   -0.9562   -0.5943 C   0  0  0  0  0  0  0  0  0  0  0  0
    1.1171   -1.0211    0.0205 C   0  0  0  0  0  0  0  0  0  0  0  0
    2.0801    0.1083   -0.2153 C   0  0  0  0  0  0  0  0  0  0  0  0
    1.5977    1.2179    0.6416 C   0  0  0  0  0  0  0  0  0  0  0  0
    0.4323    1.8103    0.5554 C   0  0  0  0  0  0  0  0  0  0  0  0
   -0.6786    1.5607   -0.3683 C   0  0  0  0  0  0  0  0  0  0  0  0
   -1.8466    0.7966    0.1110 C   0  0  0  0  0  0  0  0  0  0  0  0
   -0.8534    0.2821   -0.9777 C   0  0  0  0  0  0  0  0  0  0  0  0
   -0.8902   -1.4463    1.3454 H   0  0  0  0  0  0  0  0  0  0  0  0
   -2.1873   -1.6380    0.0472 H   0  0  0  0  0  0  0  0  0  0  0  0
   -0.8504   -2.8494    0.2645 H   0  0  0  0  0  0  0  0  0  0  0  0
   -0.1592   -1.6398   -1.5081 H   0  0  0  0  0  0  0  0  0  0  0  0
    1.0243   -1.1076    1.1450 H   0  0  0  0  0  0  0  0  0  0  0  0
    1.6756   -1.9591   -0.2601 H   0  0  0  0  0  0  0  0  0  0  0  0
    3.0698   -0.2212    0.1626 H   0  0  0  0  0  0  0  0  0  0  0  0
    2.1689    0.3899   -1.2752 H   0  0  0  0  0  0  0  0  0  0  0  0
    2.2463    1.5838    1.4078 H   0  0  0  0  0  0  0  0  0  0  0  0
    0.2558    2.6006    1.2664 H   0  0  0  0  0  0  0  0  0  0  0  0
   -0.8622    2.4724   -1.0228 H   0  0  0  0  0  0  0  0  0  0  0  0
   -1.7850    0.3718    1.1116 H   0  0  0  0  0  0  0  0  0  0  0  0
   -2.8303    1.1398   -0.1891 H   0  0  0  0  0  0  0  0  0  0  0  0
   -1.3779    0.2850   -1.9888 H   0  0  0  0  0  0  0  0  0  0  0  0
  1  2  1  0
  2  3  1  0
  3  4  1  0
  4  5  1  0
  5  6  2  0
  6  7  1  0
  7  8  1  0
  8  9  1  0
  9  2  1  0
  9  7  1  0
  1 10  1  0
  1 11  1  0
  1 12  1  0
  2 13  1  0
  3 14  1  0
  3 15  1  0
  4 16  1  0
  4 17  1  0
  5 18  1  0
  6 19  1  0
  7 20  1  0
  8 21  1  0
  8 22  1  0
  9 23  1  0
M  END
