
     RDKit          3D

 21 23  0  0  0  0  0  0  0  0999 V2000
   -2.6523    0.3450    0.0721 C   0  0  0  0  0  0  0  0  0  0  0  0
   -1.1704    0.0905    0.3490 C   0  0  0  0  0  0  0  0  0  0  0  0
   -0.3301   -0.5221   -0.7342 C   0  0  0  0  0  0  0  0  0  0  0  0
    0.6963   -1.5405   -0.3393 C   0  0  0  0  0  0  0  0  0  0  0  0
    1.5216   -0.9724    0.7398 C   0  0  0  0  0  0  0  0  0  0  0  0
    2.7839   -0.6096    0.8158 O   0  0  0  0  0  0  0  0  0  0  0  0
    2.1625    0.2432    0.0237 C   0  0  0  0  0  0  0  0  0  0  0  0
    1.1500    1.2832    0.2590 C   0  0  0  0  0  0  0  0  0  0  0  0
   -0.1415    0.8543   -0.3892 C   0  0  0  0  0  0  0  0  0  0  0  0
   -2.8949    0.2134   -0.9980 H   0  0  0  0  0  0  0  0  0  0  0  0
   -3.2101   -0.3879    0.6855 H   0  0  0  0  0  0  0  0  0  0  0  0
   -2.8683    1.3706    0.4059 H   0  0  0  0  0  0  0  0  0  0  0  0
   -0.9694   -0.1025    1.4086 H   0  0  0  0  0  0  0  0  0  0  0  0
   -0.9099   -0.7814   -1.6487 H   0  0  0  0  0  0  0  0  0  0  0  0
    1.3511   -1.7002   -1.2429 H   0  0  0  0  0  0  0  0  0  0  0  0
    0.2033   -2.5003   -0.1243 H   0  0  0  0  0  0  0  0  0  0  0  0
    0.9374   -0.7777    1.6716 H   0  0  0  0  0  0  0  0  0  0  0  0
    2.4264    0.1317   -1.0537 H   0  0  0  0  0  0  0  0  0  0  0  0
    1.5122    2.2474   -0.1540 H   0  0  0  0  0  0  0  0  0  0  0  0
    0.9698    1.4920    1.3541 H   0  0  0  0  0  0  0  0  0  0  0  0
   -0.5677    1.6233   -1.1007 H   0  0  0  0  0  0  0  0  0  0  0  0
  1  2  1  0
  2  3  1  0
  3  4  1  0
  4  5  1  0
  5  6  1  0
  6  7  1  0
  7  8  1  0
  8  9  1  0
  9  2  1  0
  9  3  1  0
  7  5  1  0
  1 10  1  0
  1 11  1  0
  1 12  1  0
  2 13  1  0
  3 14  1  0
  4 15  1  0
  4 16  1  0
  5 17  1  0
  7 18  1  0
  8 19  1  0
  8 20  1  0
  9 21  1  0
M  END
