
     RDKit          3D

 23 23  0  0  0  0  0  0  0  0999 V2000
   -1.3658   -1.4620   -0.6943 C   0  0  0  0  0  0  0  0  0  0  0  0
   -1.0690   -0.1927    0.0215 C   0  0  0  0  0  0  0  0  0  0  0  0
   -1.6142    1.0022   -0.7710 C   0  0  0  0  0  0  0  0  0  0  0  0
   -0.5871    1.3481   -1.6122 O   0  0  0  0  0  0  0  0  0  0  0  0
    0.6101    1.0913   -0.9949 C   0  0  0  0  0  0  0  0  0  0  0  0
    0.3602    0.1593    0.1574 C   0  0  0  0  0  0  0  0  0  0  0  0
    0.5494    0.9565    1.4358 C   0  0  0  0  0  0  0  0  0  0  0  0
    1.3060   -0.9967    0.2090 C   0  0  0  0  0  0  0  0  0  0  0  0
    2.6052   -0.5023    0.3373 O   0  0  0  0  0  0  0  0  0  0  0  0
   -1.6625   -2.2638    0.0273 H   0  0  0  0  0  0  0  0  0  0  0  0
   -0.6080   -1.8145   -1.3845 H   0  0  0  0  0  0  0  0  0  0  0  0
   -2.2984   -1.2891   -1.3089 H   0  0  0  0  0  0  0  0  0  0  0  0
   -1.5735   -0.1900    0.9956 H   0  0  0  0  0  0  0  0  0  0  0  0
   -1.8533    1.8031   -0.0267 H   0  0  0  0  0  0  0  0  0  0  0  0
   -2.4933    0.7163   -1.3791 H   0  0  0  0  0  0  0  0  0  0  0  0
    1.0703    2.0470   -0.6723 H   0  0  0  0  0  0  0  0  0  0  0  0
    1.2886    0.5490   -1.7165 H   0  0  0  0  0  0  0  0  0  0  0  0
    1.1997    1.8477    1.2607 H   0  0  0  0  0  0  0  0  0  0  0  0
   -0.4126    1.3684    1.8177 H   0  0  0  0  0  0  0  0  0  0  0  0
    0.9871    0.3438    2.2498 H   0  0  0  0  0  0  0  0  0  0  0  0
    1.0559   -1.5933    1.1109 H   0  0  0  0  0  0  0  0  0  0  0  0
    1.2910   -1.6537   -0.6569 H   0  0  0  0  0  0  0  0  0  0  0  0
    3.2140   -1.2745    0.1861 H   0  0  0  0  0  0  0  0  0  0  0  0
  1  2  1  0
  2  3  1  0
  3  4  1  0
  4  5  1  0
  5  6  1  0
  6  7  1  0
  6  8  1  0
  8  9  1  0
  6  2  1  0
  1 10  1  0
  1 11  1  0
  1 12  1  0
  2 13  1  0
  3 14  1  0
  3 15  1  0
  5 16  1  0
  5 17  1  0
  7 18  1  0
  7 19  1  0
  7 20  1  0
  8 21  1  0
  8 22  1  0
  9 23  1  0
M  END
