
     RDKit          3D

 23 25  0  0  0  0  0  0  0  0999 V2000
    2.9185    0.5226   -0.0440 C   0  0  0  0  0  0  0  0  0  0  0  0
    1.6327    0.0954   -0.6669 C   0  0  0  0  0  0  0  0  0  0  0  0
    0.8981   -1.0326    0.0167 C   0  0  0  0  0  0  0  0  0  0  0  0
    0.6357   -0.0425    1.1195 C   0  0  0  0  0  0  0  0  0  0  0  0
    0.3851    0.7414   -0.1358 C   0  0  0  0  0  0  0  0  0  0  0  0
   -0.3285   -0.4885   -0.6332 C   0  0  0  0  0  0  0  0  0  0  0  0
   -1.6342   -0.7875    0.0418 C   0  0  0  0  0  0  0  0  0  0  0  0
   -2.8514   -0.2006   -0.6763 C   0  0  0  0  0  0  0  0  0  0  0  0
   -2.3537    0.4673    0.5504 C   0  0  0  0  0  0  0  0  0  0  0  0
    3.7020    0.6768   -0.8366 H   0  0  0  0  0  0  0  0  0  0  0  0
    2.7681    1.5257    0.4088 H   0  0  0  0  0  0  0  0  0  0  0  0
    3.3397   -0.2046    0.6738 H   0  0  0  0  0  0  0  0  0  0  0  0
    1.6099    0.0722   -1.7746 H   0  0  0  0  0  0  0  0  0  0  0  0
    1.1990   -1.9791    0.1065 H   0  0  0  0  0  0  0  0  0  0  0  0
    1.5110    0.2100    1.7103 H   0  0  0  0  0  0  0  0  0  0  0  0
   -0.2363   -0.2442    1.7560 H   0  0  0  0  0  0  0  0  0  0  0  0
    0.0969    1.6916   -0.2245 H   0  0  0  0  0  0  0  0  0  0  0  0
   -0.3001   -0.5698   -1.7295 H   0  0  0  0  0  0  0  0  0  0  0  0
   -1.7874   -1.7345    0.5858 H   0  0  0  0  0  0  0  0  0  0  0  0
   -2.6930    0.3059   -1.6408 H   0  0  0  0  0  0  0  0  0  0  0  0
   -3.7960   -0.7908   -0.5799 H   0  0  0  0  0  0  0  0  0  0  0  0
   -1.8661    1.4412    0.4351 H   0  0  0  0  0  0  0  0  0  0  0  0
   -2.8500    0.3246    1.5369 H   0  0  0  0  0  0  0  0  0  0  0  0
  1  2  1  0
  2  3  1  0
  3  4  1  0
  4  5  1  0
  5  6  1  0
  6  7  1  0
  7  8  1  0
  8  9  1  0
  5  2  1  0
  9  7  1  0
  6  3  1  0
  1 10  1  0
  1 11  1  0
  1 12  1  0
  2 13  1  0
  3 14  1  0
  4 15  1  0
  4 16  1  0
  5 17  1  0
  6 18  1  0
  7 19  1  0
  8 20  1  0
  8 21  1  0
  9 22  1  0
  9 23  1  0
M  END
