
     RDKit          3D

 21 21  0  0  0  0  0  0  0  0999 V2000
   -1.5197    1.6138   -0.3152 C   0  0  0  0  0  0  0  0  0  0  0  0
   -1.2612    0.1230   -0.4274 C   0  0  0  0  0  0  0  0  0  0  0  0
   -1.0195   -0.5405    0.9212 C   0  0  0  0  0  0  0  0  0  0  0  0
   -1.8178   -1.7964    1.1227 C   0  0  0  0  0  0  0  0  0  0  0  0
    0.0633   -0.4364   -0.0664 C   0  0  0  0  0  0  0  0  0  0  0  0
    1.1129    0.4269    0.1015 O   0  0  0  0  0  0  0  0  0  0  0  0
    2.3083   -0.0226   -0.4063 C   0  0  0  0  0  0  0  0  0  0  0  0
    3.3985    0.9610   -0.1893 C   0  0  0  0  0  0  0  0  0  0  0  0
    3.1209    1.9962    0.3829 O   0  0  0  0  0  0  0  0  0  0  0  0
   -1.3116    2.1491   -1.2503 H   0  0  0  0  0  0  0  0  0  0  0  0
   -0.9243    2.0781    0.4945 H   0  0  0  0  0  0  0  0  0  0  0  0
   -2.5993    1.7229   -0.0766 H   0  0  0  0  0  0  0  0  0  0  0  0
   -1.8818   -0.3764   -1.1695 H   0  0  0  0  0  0  0  0  0  0  0  0
   -0.9317    0.0935    1.8232 H   0  0  0  0  0  0  0  0  0  0  0  0
   -1.8693   -2.4166    0.2065 H   0  0  0  0  0  0  0  0  0  0  0  0
   -1.5130   -2.3737    2.0186 H   0  0  0  0  0  0  0  0  0  0  0  0
   -2.8843   -1.4781    1.3155 H   0  0  0  0  0  0  0  0  0  0  0  0
    0.3301   -1.3894   -0.5959 H   0  0  0  0  0  0  0  0  0  0  0  0
    2.5935   -1.0409   -0.0515 H   0  0  0  0  0  0  0  0  0  0  0  0
    2.1867   -0.1063   -1.5255 H   0  0  0  0  0  0  0  0  0  0  0  0
    4.4192    0.8127   -0.5080 H   0  0  0  0  0  0  0  0  0  0  0  0
  1  2  1  0
  2  3  1  0
  3  4  1  0
  3  5  1  0
  5  6  1  0
  6  7  1  0
  7  8  1  0
  8  9  2  0
  5  2  1  0
  1 10  1  0
  1 11  1  0
  1 12  1  0
  2 13  1  0
  3 14  1  0
  4 15  1  0
  4 16  1  0
  4 17  1  0
  5 18  1  0
  7 19  1  0
  7 20  1  0
  8 21  1  0
M  END
