
     RDKit          3D

 21 22  0  0  0  0  0  0  0  0999 V2000
    1.5630    1.1774   -0.8584 C   0  0  0  0  0  0  0  0  0  0  0  0
    1.5289   -0.3144   -0.6104 C   0  0  0  0  0  0  0  0  0  0  0  0
    1.2693   -0.8237    0.7395 C   0  0  0  0  0  0  0  0  0  0  0  0
    0.5552   -0.0582    1.7848 C   0  0  0  0  0  0  0  0  0  0  0  0
   -0.8061    0.1766    1.3085 C   0  0  0  0  0  0  0  0  0  0  0  0
   -0.9555   -0.3574    0.1145 C   0  0  0  0  0  0  0  0  0  0  0  0
   -2.2384   -0.2914   -0.6512 C   0  0  0  0  0  0  0  0  0  0  0  0
   -1.9929    0.3707   -1.8478 O   0  0  0  0  0  0  0  0  0  0  0  0
    0.2514   -1.0163   -0.3816 C   0  0  0  0  0  0  0  0  0  0  0  0
    1.2129    1.4731   -1.8442 H   0  0  0  0  0  0  0  0  0  0  0  0
    2.6229    1.4942   -0.6810 H   0  0  0  0  0  0  0  0  0  0  0  0
    0.9697    1.7326   -0.0822 H   0  0  0  0  0  0  0  0  0  0  0  0
    2.2748   -0.8687   -1.2197 H   0  0  0  0  0  0  0  0  0  0  0  0
    1.8357   -1.7332    1.0691 H   0  0  0  0  0  0  0  0  0  0  0  0
    1.0549    0.9004    2.0596 H   0  0  0  0  0  0  0  0  0  0  0  0
    0.5493   -0.6303    2.7614 H   0  0  0  0  0  0  0  0  0  0  0  0
   -1.5869    0.7300    1.8890 H   0  0  0  0  0  0  0  0  0  0  0  0
   -2.6505   -1.3146   -0.8342 H   0  0  0  0  0  0  0  0  0  0  0  0
   -3.0240    0.2462   -0.0840 H   0  0  0  0  0  0  0  0  0  0  0  0
   -2.5642    1.1723   -1.9088 H   0  0  0  0  0  0  0  0  0  0  0  0
    0.1307   -2.0651   -0.7227 H   0  0  0  0  0  0  0  0  0  0  0  0
  1  2  1  0
  2  3  1  0
  3  4  1  0
  4  5  1  0
  5  6  2  0
  6  7  1  0
  7  8  1  0
  6  9  1  0
  9  2  1  0
  9  3  1  0
  1 10  1  0
  1 11  1  0
  1 12  1  0
  2 13  1  0
  3 14  1  0
  4 15  1  0
  4 16  1  0
  5 17  1  0
  7 18  1  0
  7 19  1  0
  8 20  1  0
  9 21  1  0
M  END
