
     RDKit          3D

 23 23  0  0  0  0  0  0  0  0999 V2000
    2.2470   -0.8336    0.8885 C   0  0  0  0  0  0  0  0  0  0  0  0
    1.6286    0.0611   -0.1762 C   0  0  0  0  0  0  0  0  0  0  0  0
    0.6950   -0.7955   -0.9466 C   0  0  0  0  0  0  0  0  0  0  0  0
   -0.5930   -0.8173   -1.1336 C   0  0  0  0  0  0  0  0  0  0  0  0
   -1.6279    0.0684   -0.6021 C   0  0  0  0  0  0  0  0  0  0  0  0
   -2.3050   -0.6685    0.5585 C   0  0  0  0  0  0  0  0  0  0  0  0
   -1.1337    1.4062   -0.1435 C   0  0  0  0  0  0  0  0  0  0  0  0
   -0.2237    1.1852    0.8927 O   0  0  0  0  0  0  0  0  0  0  0  0
    1.0387    1.2984    0.3738 C   0  0  0  0  0  0  0  0  0  0  0  0
    2.4010   -1.8421    0.4276 H   0  0  0  0  0  0  0  0  0  0  0  0
    3.2176   -0.4603    1.2324 H   0  0  0  0  0  0  0  0  0  0  0  0
    1.5132   -0.9797    1.7031 H   0  0  0  0  0  0  0  0  0  0  0  0
    2.4489    0.3477   -0.8843 H   0  0  0  0  0  0  0  0  0  0  0  0
    1.2493   -1.5873   -1.4709 H   0  0  0  0  0  0  0  0  0  0  0  0
   -0.9723   -1.5934   -1.7697 H   0  0  0  0  0  0  0  0  0  0  0  0
   -2.4248    0.1852   -1.3791 H   0  0  0  0  0  0  0  0  0  0  0  0
   -3.1089   -0.0776    1.0008 H   0  0  0  0  0  0  0  0  0  0  0  0
   -2.6611   -1.6383    0.1167 H   0  0  0  0  0  0  0  0  0  0  0  0
   -1.4825   -0.9095    1.2787 H   0  0  0  0  0  0  0  0  0  0  0  0
   -1.9735    1.9654    0.2706 H   0  0  0  0  0  0  0  0  0  0  0  0
   -0.6956    1.9250   -1.0015 H   0  0  0  0  0  0  0  0  0  0  0  0
    1.7139    1.6737    1.1866 H   0  0  0  0  0  0  0  0  0  0  0  0
    1.0489    2.0867   -0.4225 H   0  0  0  0  0  0  0  0  0  0  0  0
  1  2  1  0
  2  3  1  0
  3  4  2  0
  4  5  1  0
  5  6  1  0
  5  7  1  0
  7  8  1  0
  8  9  1  0
  9  2  1  0
  1 10  1  0
  1 11  1  0
  1 12  1  0
  2 13  1  0
  3 14  1  0
  4 15  1  0
  5 16  1  0
  6 17  1  0
  6 18  1  0
  6 19  1  0
  7 20  1  0
  7 21  1  0
  9 22  1  0
  9 23  1  0
M  END
