
     RDKit          3D

 17 18  0  0  0  0  0  0  0  0999 V2000
    1.8444   -0.3687    0.2904 C   0  0  0  0  0  0  0  0  0  0  0  0
    0.7300    0.1164   -0.6236 C   0  0  0  0  0  0  0  0  0  0  0  0
    0.1132    1.4360   -0.1905 C   0  0  0  0  0  0  0  0  0  0  0  0
   -1.1591    0.7139    0.1204 C   0  0  0  0  0  0  0  0  0  0  0  0
   -1.1373   -0.4822    1.0021 C   0  0  0  0  0  0  0  0  0  0  0  0
   -0.5769   -0.5407   -0.3709 C   0  0  0  0  0  0  0  0  0  0  0  0
   -1.1514   -1.3234   -1.3369 O   0  0  0  0  0  0  0  0  0  0  0  0
    1.4638   -0.5760    1.3038 H   0  0  0  0  0  0  0  0  0  0  0  0
    2.6452    0.3875    0.2548 H   0  0  0  0  0  0  0  0  0  0  0  0
    2.1765   -1.3470   -0.1247 H   0  0  0  0  0  0  0  0  0  0  0  0
    1.0631    0.0653   -1.6651 H   0  0  0  0  0  0  0  0  0  0  0  0
    0.0547    2.1036   -1.0726 H   0  0  0  0  0  0  0  0  0  0  0  0
    0.6426    1.9133    0.6428 H   0  0  0  0  0  0  0  0  0  0  0  0
   -2.1104    1.1319   -0.2087 H   0  0  0  0  0  0  0  0  0  0  0  0
   -0.4859   -0.5172    1.9021 H   0  0  0  0  0  0  0  0  0  0  0  0
   -2.1147   -1.0071    1.1216 H   0  0  0  0  0  0  0  0  0  0  0  0
   -1.9979   -1.7058   -1.0448 H   0  0  0  0  0  0  0  0  0  0  0  0
  1  2  1  0
  2  3  1  0
  3  4  1  0
  4  5  1  0
  5  6  1  0
  6  7  1  0
  6  2  1  0
  6  4  1  0
  1  8  1  0
  1  9  1  0
  1 10  1  0
  2 11  1  0
  3 12  1  0
  3 13  1  0
  4 14  1  0
  5 15  1  0
  5 16  1  0
  7 17  1  0
M  END
