
     RDKit          3D

 19 21  0  0  0  0  0  0  0  0999 V2000
    2.1916   -0.5620    0.2583 C   0  0  0  0  0  0  0  0  0  0  0  0
    1.0719   -0.2924   -0.6791 C   0  0  0  0  0  0  0  0  0  0  0  0
   -0.0254   -1.3326   -0.7383 C   0  0  0  0  0  0  0  0  0  0  0  0
   -0.9507   -1.1003   -1.7111 O   0  0  0  0  0  0  0  0  0  0  0  0
   -1.0256   -0.3320   -0.5886 C   0  0  0  0  0  0  0  0  0  0  0  0
   -2.2794   -0.4093    0.2080 C   0  0  0  0  0  0  0  0  0  0  0  0
    0.0194    0.6721   -0.2367 C   0  0  0  0  0  0  0  0  0  0  0  0
   -0.0340    2.0252   -0.2244 C   0  0  0  0  0  0  0  0  0  0  0  0
    0.0256    1.2634    0.9864 O   0  0  0  0  0  0  0  0  0  0  0  0
    2.0829   -1.4287    0.9028 H   0  0  0  0  0  0  0  0  0  0  0  0
    2.3616    0.3704    0.8667 H   0  0  0  0  0  0  0  0  0  0  0  0
    3.1380   -0.7025   -0.3425 H   0  0  0  0  0  0  0  0  0  0  0  0
    1.4313    0.0251   -1.7027 H   0  0  0  0  0  0  0  0  0  0  0  0
    0.0567   -2.2649   -0.1886 H   0  0  0  0  0  0  0  0  0  0  0  0
   -2.3042   -1.1955    0.9640 H   0  0  0  0  0  0  0  0  0  0  0  0
   -3.1327   -0.5831   -0.4990 H   0  0  0  0  0  0  0  0  0  0  0  0
   -2.4699    0.5616    0.6981 H   0  0  0  0  0  0  0  0  0  0  0  0
   -0.9974    2.5895   -0.3913 H   0  0  0  0  0  0  0  0  0  0  0  0
    0.8404    2.6959   -0.4235 H   0  0  0  0  0  0  0  0  0  0  0  0
  1  2  1  0
  2  3  1  0
  3  4  1  0
  4  5  1  0
  5  6  1  0
  5  7  1  0
  7  8  1  0
  8  9  1  0
  7  2  1  0
  5  3  1  0
  9  7  1  0
  1 10  1  0
  1 11  1  0
  1 12  1  0
  2 13  1  0
  3 14  1  0
  6 15  1  0
  6 16  1  0
  6 17  1  0
  8 18  1  0
  8 19  1  0
M  END
