
     RDKit          3D

 21 22  0  0  0  0  0  0  0  0999 V2000
   -1.7639    1.1534    0.4984 C   0  0  0  0  0  0  0  0  0  0  0  0
   -1.1436    0.1351   -0.4232 C   0  0  0  0  0  0  0  0  0  0  0  0
   -1.8456   -1.2026   -0.2792 C   0  0  0  0  0  0  0  0  0  0  0  0
   -0.5111   -1.8308   -0.4359 C   0  0  0  0  0  0  0  0  0  0  0  0
   -0.1078   -2.8895   -0.8562 O   0  0  0  0  0  0  0  0  0  0  0  0
    0.0582   -0.5878    0.1457 C   0  0  0  0  0  0  0  0  0  0  0  0
    1.3783   -0.1952   -0.4090 C   0  0  0  0  0  0  0  0  0  0  0  0
    1.9260    1.1684   -0.3347 C   0  0  0  0  0  0  0  0  0  0  0  0
    2.4364    0.1295    0.6188 C   0  0  0  0  0  0  0  0  0  0  0  0
   -2.6407    1.5777   -0.0325 H   0  0  0  0  0  0  0  0  0  0  0  0
   -1.0871    2.0078    0.7095 H   0  0  0  0  0  0  0  0  0  0  0  0
   -2.1292    0.7111    1.4301 H   0  0  0  0  0  0  0  0  0  0  0  0
   -1.0876    0.4249   -1.4728 H   0  0  0  0  0  0  0  0  0  0  0  0
   -2.2056   -1.3297    0.7678 H   0  0  0  0  0  0  0  0  0  0  0  0
   -2.5838   -1.4261   -1.0605 H   0  0  0  0  0  0  0  0  0  0  0  0
    0.0035   -0.5324    1.2545 H   0  0  0  0  0  0  0  0  0  0  0  0
    1.7538   -0.8368   -1.2565 H   0  0  0  0  0  0  0  0  0  0  0  0
    2.6615    1.4812   -1.1012 H   0  0  0  0  0  0  0  0  0  0  0  0
    1.3254    2.0296    0.0489 H   0  0  0  0  0  0  0  0  0  0  0  0
    2.1188    0.3031    1.6760 H   0  0  0  0  0  0  0  0  0  0  0  0
    3.4439   -0.2910    0.5121 H   0  0  0  0  0  0  0  0  0  0  0  0
  1  2  1  0
  2  3  1  0
  3  4  1  0
  4  5  2  0
  4  6  1  0
  6  7  1  0
  7  8  1  0
  8  9  1  0
  6  2  1  0
  9  7  1  0
  1 10  1  0
  1 11  1  0
  1 12  1  0
  2 13  1  0
  3 14  1  0
  3 15  1  0
  6 16  1  0
  7 17  1  0
  8 18  1  0
  8 19  1  0
  9 20  1  0
  9 21  1  0
M  END
