
     RDKit          3D

 21 22  0  0  0  0  0  0  0  0999 V2000
   -2.4799    0.1647   -0.3747 C   0  0  0  0  0  0  0  0  0  0  0  0
   -1.0824    0.4128    0.1261 C   0  0  0  0  0  0  0  0  0  0  0  0
   -0.5414   -0.9231    0.6719 C   0  0  0  0  0  0  0  0  0  0  0  0
    0.5193   -1.1327   -0.3912 C   0  0  0  0  0  0  0  0  0  0  0  0
   -0.2193   -0.7917   -1.5500 O   0  0  0  0  0  0  0  0  0  0  0  0
   -0.1375    0.5335   -1.0512 C   0  0  0  0  0  0  0  0  0  0  0  0
    1.2193    0.1731   -0.5643 C   0  0  0  0  0  0  0  0  0  0  0  0
    1.7497    0.8383    0.6499 C   0  0  0  0  0  0  0  0  0  0  0  0
    2.6789   -0.0017    1.2613 O   0  0  0  0  0  0  0  0  0  0  0  0
   -3.1576   -0.2533    0.3873 H   0  0  0  0  0  0  0  0  0  0  0  0
   -2.8791    1.1335   -0.7829 H   0  0  0  0  0  0  0  0  0  0  0  0
   -2.4086   -0.5814   -1.1991 H   0  0  0  0  0  0  0  0  0  0  0  0
   -0.9909    1.2274    0.8366 H   0  0  0  0  0  0  0  0  0  0  0  0
   -1.2939   -1.7302    0.5530 H   0  0  0  0  0  0  0  0  0  0  0  0
   -0.1472   -0.8220    1.6772 H   0  0  0  0  0  0  0  0  0  0  0  0
    1.0598   -2.0507   -0.4069 H   0  0  0  0  0  0  0  0  0  0  0  0
   -0.2827    1.3237   -1.7491 H   0  0  0  0  0  0  0  0  0  0  0  0
    1.9363    0.1267   -1.4017 H   0  0  0  0  0  0  0  0  0  0  0  0
    2.3318    1.7408    0.3218 H   0  0  0  0  0  0  0  0  0  0  0  0
    0.9820    1.1943    1.3303 H   0  0  0  0  0  0  0  0  0  0  0  0
    3.1434   -0.5818    0.6367 H   0  0  0  0  0  0  0  0  0  0  0  0
  1  2  1  0
  2  3  1  0
  3  4  1  0
  4  5  1  0
  5  6  1  0
  6  7  1  0
  7  8  1  0
  8  9  1  0
  6  2  1  0
  7  4  1  0
  1 10  1  0
  1 11  1  0
  1 12  1  0
  2 13  1  0
  3 14  1  0
  3 15  1  0
  4 16  1  0
  6 17  1  0
  7 18  1  0
  8 19  1  0
  8 20  1  0
  9 21  1  0
M  END
