
     RDKit          3D

 21 23  0  0  0  0  0  0  0  0999 V2000
   -2.2728   -0.5299   -0.6352 C   0  0  0  0  0  0  0  0  0  0  0  0
   -1.0734    0.3062   -0.3508 C   0  0  0  0  0  0  0  0  0  0  0  0
    0.2127   -0.1018   -1.0069 C   0  0  0  0  0  0  0  0  0  0  0  0
    0.2238   -1.2603   -0.0641 C   0  0  0  0  0  0  0  0  0  0  0  0
    1.6555   -1.4282    0.2769 C   0  0  0  0  0  0  0  0  0  0  0  0
    2.0689   -0.0812    0.4129 O   0  0  0  0  0  0  0  0  0  0  0  0
    0.9198    0.6108    0.1071 C   0  0  0  0  0  0  0  0  0  0  0  0
    0.9563    2.0725    0.1043 C   0  0  0  0  0  0  0  0  0  0  0  0
   -0.2046   -0.1008    0.7923 C   0  0  0  0  0  0  0  0  0  0  0  0
   -3.1893    0.0772   -0.3721 H   0  0  0  0  0  0  0  0  0  0  0  0
   -2.3993   -0.7622   -1.7193 H   0  0  0  0  0  0  0  0  0  0  0  0
   -2.3520   -1.4408   -0.0314 H   0  0  0  0  0  0  0  0  0  0  0  0
   -1.2865    1.3678   -0.4786 H   0  0  0  0  0  0  0  0  0  0  0  0
    0.4360   -0.0906   -1.9821 H   0  0  0  0  0  0  0  0  0  0  0  0
   -0.4238   -2.0854   -0.2065 H   0  0  0  0  0  0  0  0  0  0  0  0
    1.8208   -1.9679    1.2385 H   0  0  0  0  0  0  0  0  0  0  0  0
    2.1983   -1.9083   -0.5729 H   0  0  0  0  0  0  0  0  0  0  0  0
    1.2801    2.4277   -0.9183 H   0  0  0  0  0  0  0  0  0  0  0  0
    0.0565    2.5979    0.4619 H   0  0  0  0  0  0  0  0  0  0  0  0
    1.7936    2.4144    0.7778 H   0  0  0  0  0  0  0  0  0  0  0  0
   -0.4208   -0.1171    1.7698 H   0  0  0  0  0  0  0  0  0  0  0  0
  1  2  1  0
  2  3  1  0
  3  4  1  0
  4  5  1  0
  5  6  1  0
  6  7  1  0
  7  8  1  0
  7  9  1  0
  9  2  1  0
  7  3  1  0
  9  4  1  0
  1 10  1  0
  1 11  1  0
  1 12  1  0
  2 13  1  0
  3 14  1  0
  4 15  1  0
  5 16  1  0
  5 17  1  0
  8 18  1  0
  8 19  1  0
  8 20  1  0
  9 21  1  0
M  END
