
     RDKit          3D

 21 22  0  0  0  0  0  0  0  0999 V2000
   -2.7790    0.4617   -0.3602 C   0  0  0  0  0  0  0  0  0  0  0  0
   -1.6235   -0.4502   -0.1000 C   0  0  0  0  0  0  0  0  0  0  0  0
   -0.7946   -0.0578    1.1183 C   0  0  0  0  0  0  0  0  0  0  0  0
    0.3827   -0.3237    0.2641 C   0  0  0  0  0  0  0  0  0  0  0  0
    1.4500   -1.2560    0.5227 C   0  0  0  0  0  0  0  0  0  0  0  0
    1.7148    0.2032    0.4505 C   0  0  0  0  0  0  0  0  0  0  0  0
    2.3869    0.8111   -0.7595 C   0  0  0  0  0  0  0  0  0  0  0  0
   -0.4188   -0.2368   -0.9437 C   0  0  0  0  0  0  0  0  0  0  0  0
   -0.1732   -0.0634   -2.1198 O   0  0  0  0  0  0  0  0  0  0  0  0
   -2.5821    1.1085   -1.2303 H   0  0  0  0  0  0  0  0  0  0  0  0
   -2.9514    1.0572    0.5726 H   0  0  0  0  0  0  0  0  0  0  0  0
   -3.7112   -0.1133   -0.5655 H   0  0  0  0  0  0  0  0  0  0  0  0
   -1.9566   -1.5134   -0.0638 H   0  0  0  0  0  0  0  0  0  0  0  0
   -0.9303    1.0439    1.2793 H   0  0  0  0  0  0  0  0  0  0  0  0
   -0.9462   -0.6677    2.0100 H   0  0  0  0  0  0  0  0  0  0  0  0
    1.5415   -1.7581    1.5083 H   0  0  0  0  0  0  0  0  0  0  0  0
    1.7754   -1.9298   -0.3159 H   0  0  0  0  0  0  0  0  0  0  0  0
    1.9292    0.6971    1.4405 H   0  0  0  0  0  0  0  0  0  0  0  0
    3.0117    0.0881   -1.3116 H   0  0  0  0  0  0  0  0  0  0  0  0
    1.6429    1.2498   -1.4552 H   0  0  0  0  0  0  0  0  0  0  0  0
    3.0318    1.6493   -0.4301 H   0  0  0  0  0  0  0  0  0  0  0  0
  1  2  1  0
  2  3  1  0
  3  4  1  0
  4  5  1  0
  5  6  1  0
  6  7  1  0
  4  8  1  0
  8  9  2  0
  8  2  1  0
  6  4  1  0
  1 10  1  0
  1 11  1  0
  1 12  1  0
  2 13  1  0
  3 14  1  0
  3 15  1  0
  5 16  1  0
  5 17  1  0
  6 18  1  0
  7 19  1  0
  7 20  1  0
  7 21  1  0
M  END
