
     RDKit          3D

 17 17  0  0  0  0  0  0  0  0999 V2000
   -1.8371   -0.7196   -0.3589 C   0  0  0  0  0  0  0  0  0  0  0  0
   -0.9972    0.0945    0.6011 C   0  0  0  0  0  0  0  0  0  0  0  0
   -0.3119    1.3165    0.1425 C   0  0  0  0  0  0  0  0  0  0  0  0
   -0.0608    2.3793    1.0004 O   0  0  0  0  0  0  0  0  0  0  0  0
    0.4682    0.0269    0.4763 C   0  0  0  0  0  0  0  0  0  0  0  0
    1.1363   -0.5509   -0.6954 C   0  0  0  0  0  0  0  0  0  0  0  0
    0.5883   -0.6582   -1.8203 O   0  0  0  0  0  0  0  0  0  0  0  0
    2.4958   -1.0223   -0.5526 C   0  0  0  0  0  0  0  0  0  0  0  0
    3.0949   -0.9388    0.5564 O   0  0  0  0  0  0  0  0  0  0  0  0
   -1.5368   -1.7701   -0.2550 H   0  0  0  0  0  0  0  0  0  0  0  0
   -1.6996   -0.3158   -1.3795 H   0  0  0  0  0  0  0  0  0  0  0  0
   -2.9160   -0.6541   -0.1301 H   0  0  0  0  0  0  0  0  0  0  0  0
   -1.4054    0.1183    1.6358 H   0  0  0  0  0  0  0  0  0  0  0  0
   -0.3780    1.6303   -0.9182 H   0  0  0  0  0  0  0  0  0  0  0  0
   -0.7152    2.4626    1.7226 H   0  0  0  0  0  0  0  0  0  0  0  0
    1.0722    0.0580    1.4026 H   0  0  0  0  0  0  0  0  0  0  0  0
    3.0025   -1.4565   -1.4276 H   0  0  0  0  0  0  0  0  0  0  0  0
  1  2  1  0
  2  3  1  0
  3  4  1  0
  3  5  1  0
  5  6  1  0
  6  7  2  0
  6  8  1  0
  8  9  2  0
  5  2  1  0
  1 10  1  0
  1 11  1  0
  1 12  1  0
  2 13  1  0
  3 14  1  0
  4 15  1  0
  5 16  1  0
  8 17  1  0
M  END
