
     RDKit          3D

 19 20  0  0  0  0  0  0  0  0999 V2000
   -2.3586   -0.3767    0.3572 C   0  0  0  0  0  0  0  0  0  0  0  0
   -0.9581   -0.1426   -0.1502 C   0  0  0  0  0  0  0  0  0  0  0  0
   -0.4518    1.2259    0.2675 C   0  0  0  0  0  0  0  0  0  0  0  0
    0.7487    0.5934    0.9121 C   0  0  0  0  0  0  0  0  0  0  0  0
    1.9141    0.5873    0.0123 C   0  0  0  0  0  0  0  0  0  0  0  0
    2.6410    1.5132   -0.2317 O   0  0  0  0  0  0  0  0  0  0  0  0
    2.0219   -0.7689   -0.5334 C   0  0  0  0  0  0  0  0  0  0  0  0
    1.0151   -1.5347   -0.0121 O   0  0  0  0  0  0  0  0  0  0  0  0
    0.1379   -0.7587    0.6755 C   0  0  0  0  0  0  0  0  0  0  0  0
   -2.5801    0.2056    1.2770 H   0  0  0  0  0  0  0  0  0  0  0  0
   -2.6029   -1.4211    0.5412 H   0  0  0  0  0  0  0  0  0  0  0  0
   -3.0576   -0.0002   -0.4176 H   0  0  0  0  0  0  0  0  0  0  0  0
   -0.8546   -0.3873   -1.2101 H   0  0  0  0  0  0  0  0  0  0  0  0
   -0.2193    1.8199   -0.6330 H   0  0  0  0  0  0  0  0  0  0  0  0
   -1.0853    1.7152    1.0322 H   0  0  0  0  0  0  0  0  0  0  0  0
    0.9375    0.8576    1.9669 H   0  0  0  0  0  0  0  0  0  0  0  0
    3.0480   -1.1810   -0.3166 H   0  0  0  0  0  0  0  0  0  0  0  0
    1.9488   -0.7371   -1.6570 H   0  0  0  0  0  0  0  0  0  0  0  0
   -0.2448   -1.2097    1.6242 H   0  0  0  0  0  0  0  0  0  0  0  0
  1  2  1  0
  2  3  1  0
  3  4  1  0
  4  5  1  0
  5  6  2  0
  5  7  1  0
  7  8  1  0
  8  9  1  0
  9  2  1  0
  9  4  1  0
  1 10  1  0
  1 11  1  0
  1 12  1  0
  2 13  1  0
  3 14  1  0
  3 15  1  0
  4 16  1  0
  7 17  1  0
  7 18  1  0
  9 19  1  0
M  END
