
     RDKit          3D

 21 23  0  0  0  0  0  0  0  0999 V2000
    2.2630   -0.1115    0.8643 C   0  0  0  0  0  0  0  0  0  0  0  0
    1.2697   -0.0899   -0.2491 C   0  0  0  0  0  0  0  0  0  0  0  0
    0.5285    1.2574   -0.3271 C   0  0  0  0  0  0  0  0  0  0  0  0
   -0.8853    0.7368   -0.3499 C   0  0  0  0  0  0  0  0  0  0  0  0
   -1.8982    1.5930   -0.5408 O   0  0  0  0  0  0  0  0  0  0  0  0
   -0.8727   -0.5675   -1.1017 C   0  0  0  0  0  0  0  0  0  0  0  0
   -1.9292   -1.0192   -0.1350 C   0  0  0  0  0  0  0  0  0  0  0  0
   -0.9457   -0.2820    0.7295 C   0  0  0  0  0  0  0  0  0  0  0  0
    0.1087   -1.0097   -0.0670 C   0  0  0  0  0  0  0  0  0  0  0  0
    3.0983   -0.8098    0.5664 H   0  0  0  0  0  0  0  0  0  0  0  0
    1.7715   -0.5159    1.7648 H   0  0  0  0  0  0  0  0  0  0  0  0
    2.6913    0.8839    1.0093 H   0  0  0  0  0  0  0  0  0  0  0  0
    1.7501   -0.2361   -1.2359 H   0  0  0  0  0  0  0  0  0  0  0  0
    0.7670    1.8380    0.5753 H   0  0  0  0  0  0  0  0  0  0  0  0
    0.7176    1.7695   -1.2746 H   0  0  0  0  0  0  0  0  0  0  0  0
   -2.0853    2.1747    0.2130 H   0  0  0  0  0  0  0  0  0  0  0  0
   -0.8458   -0.6998   -2.0908 H   0  0  0  0  0  0  0  0  0  0  0  0
   -1.8715   -2.0999    0.0530 H   0  0  0  0  0  0  0  0  0  0  0  0
   -2.9251   -0.5994   -0.2385 H   0  0  0  0  0  0  0  0  0  0  0  0
   -0.9732   -0.1619    1.7209 H   0  0  0  0  0  0  0  0  0  0  0  0
    0.2664   -2.0508    0.1139 H   0  0  0  0  0  0  0  0  0  0  0  0
  1  2  1  0
  2  3  1  0
  3  4  1  0
  4  5  1  0
  4  6  1  0
  6  7  1  0
  7  8  1  0
  8  9  1  0
  9  2  1  0
  8  4  1  0
  9  6  1  0
  1 10  1  0
  1 11  1  0
  1 12  1  0
  2 13  1  0
  3 14  1  0
  3 15  1  0
  5 16  1  0
  6 17  1  0
  7 18  1  0
  7 19  1  0
  8 20  1  0
  9 21  1  0
M  END
