
     RDKit          3D

 21 22  0  0  0  0  0  0  0  0999 V2000
    2.5338   -0.2323    0.0333 C   0  0  0  0  0  0  0  0  0  0  0  0
    1.0182   -0.2943   -0.1746 C   0  0  0  0  0  0  0  0  0  0  0  0
    0.4840    1.0762    0.1004 C   0  0  0  0  0  0  0  0  0  0  0  0
   -0.8050    1.3805   -0.6047 C   0  0  0  0  0  0  0  0  0  0  0  0
   -1.1806    0.4737   -1.5599 O   0  0  0  0  0  0  0  0  0  0  0  0
   -1.9067    0.4867   -0.3997 C   0  0  0  0  0  0  0  0  0  0  0  0
   -1.6528   -0.4757    0.7116 C   0  0  0  0  0  0  0  0  0  0  0  0
   -0.7632   -1.5872    0.2144 C   0  0  0  0  0  0  0  0  0  0  0  0
    0.5400   -1.2724    0.6639 O   0  0  0  0  0  0  0  0  0  0  0  0
    3.0231   -0.8731   -0.7129 H   0  0  0  0  0  0  0  0  0  0  0  0
    2.7980   -0.5230    1.0748 H   0  0  0  0  0  0  0  0  0  0  0  0
    2.8840    0.8174   -0.0869 H   0  0  0  0  0  0  0  0  0  0  0  0
    0.8380   -0.5376   -1.2287 H   0  0  0  0  0  0  0  0  0  0  0  0
    0.4504    1.3122    1.1944 H   0  0  0  0  0  0  0  0  0  0  0  0
    1.2461    1.8036   -0.3107 H   0  0  0  0  0  0  0  0  0  0  0  0
   -1.0099    2.4637   -0.7162 H   0  0  0  0  0  0  0  0  0  0  0  0
   -2.9421    0.8749   -0.5128 H   0  0  0  0  0  0  0  0  0  0  0  0
   -2.5935   -0.8577    1.1482 H   0  0  0  0  0  0  0  0  0  0  0  0
   -1.1637    0.1111    1.5447 H   0  0  0  0  0  0  0  0  0  0  0  0
   -0.7192   -1.5601   -0.9127 H   0  0  0  0  0  0  0  0  0  0  0  0
   -1.0788   -2.5868    0.5342 H   0  0  0  0  0  0  0  0  0  0  0  0
  1  2  1  0
  2  3  1  0
  3  4  1  0
  4  5  1  0
  5  6  1  0
  6  7  1  0
  7  8  1  0
  8  9  1  0
  9  2  1  0
  6  4  1  0
  1 10  1  0
  1 11  1  0
  1 12  1  0
  2 13  1  0
  3 14  1  0
  3 15  1  0
  4 16  1  0
  6 17  1  0
  7 18  1  0
  7 19  1  0
  8 20  1  0
  8 21  1  0
M  END
