
     RDKit          3D

 21 22  0  0  0  0  0  0  0  0999 V2000
    2.1428   -0.4770   -0.3512 C   0  0  0  0  0  0  0  0  0  0  0  0
    0.8818    0.3084   -0.7140 C   0  0  0  0  0  0  0  0  0  0  0  0
   -0.2472   -0.6984   -0.9455 C   0  0  0  0  0  0  0  0  0  0  0  0
   -1.1908   -0.4970    0.2138 C   0  0  0  0  0  0  0  0  0  0  0  0
   -2.0182   -1.5016    0.5026 O   0  0  0  0  0  0  0  0  0  0  0  0
   -1.7884    0.8477    0.0474 C   0  0  0  0  0  0  0  0  0  0  0  0
   -0.8255    1.7465    0.2175 C   0  0  0  0  0  0  0  0  0  0  0  0
    0.4352    1.0141    0.5336 C   0  0  0  0  0  0  0  0  0  0  0  0
   -0.1614   -0.1738    1.3161 C   0  0  0  0  0  0  0  0  0  0  0  0
    2.9510   -0.2962   -1.0948 H   0  0  0  0  0  0  0  0  0  0  0  0
    2.5374   -0.1804    0.6412 H   0  0  0  0  0  0  0  0  0  0  0  0
    1.9093   -1.5648   -0.2712 H   0  0  0  0  0  0  0  0  0  0  0  0
    1.0350    0.9674   -1.5774 H   0  0  0  0  0  0  0  0  0  0  0  0
    0.1155   -1.7186   -1.0593 H   0  0  0  0  0  0  0  0  0  0  0  0
   -0.8171   -0.4475   -1.8769 H   0  0  0  0  0  0  0  0  0  0  0  0
   -2.3689   -1.9263   -0.2953 H   0  0  0  0  0  0  0  0  0  0  0  0
   -2.8245    1.0269   -0.1721 H   0  0  0  0  0  0  0  0  0  0  0  0
   -0.8764    2.8258    0.1532 H   0  0  0  0  0  0  0  0  0  0  0  0
    1.1715    1.5616    1.0746 H   0  0  0  0  0  0  0  0  0  0  0  0
   -0.6428    0.1510    2.2376 H   0  0  0  0  0  0  0  0  0  0  0  0
    0.5818   -0.9679    1.4201 H   0  0  0  0  0  0  0  0  0  0  0  0
  1  2  1  0
  2  3  1  0
  3  4  1  0
  4  5  1  0
  4  6  1  0
  6  7  2  0
  7  8  1  0
  8  9  1  0
  8  2  1  0
  9  4  1  0
  1 10  1  0
  1 11  1  0
  1 12  1  0
  2 13  1  0
  3 14  1  0
  3 15  1  0
  5 16  1  0
  6 17  1  0
  7 18  1  0
  8 19  1  0
  9 20  1  0
  9 21  1  0
M  END
