
     RDKit          3D

 22 23  0  0  0  0  0  0  0  0999 V2000
   -2.0742   -0.3034   -0.5506 C   0  0  0  0  0  0  0  0  0  0  0  0
   -0.9429   -0.0706    0.4140 C   0  0  0  0  0  0  0  0  0  0  0  0
   -0.2235   -1.4200    0.6318 C   0  0  0  0  0  0  0  0  0  0  0  0
    0.8266   -1.2845   -0.4015 C   0  0  0  0  0  0  0  0  0  0  0  0
    2.1605   -0.8672   -0.4131 C   0  0  0  0  0  0  0  0  0  0  0  0
    1.3367    0.1027    0.1717 C   0  0  0  0  0  0  0  0  0  0  0  0
    0.1210    0.8323   -0.2441 C   0  0  0  0  0  0  0  0  0  0  0  0
    0.1248    2.2036    0.3641 C   0  0  0  0  0  0  0  0  0  0  0  0
   -2.5554    0.6467   -0.8221 H   0  0  0  0  0  0  0  0  0  0  0  0
   -2.7933   -0.9857   -0.0772 H   0  0  0  0  0  0  0  0  0  0  0  0
   -1.7439   -0.7826   -1.4904 H   0  0  0  0  0  0  0  0  0  0  0  0
   -1.3198    0.3455    1.3391 H   0  0  0  0  0  0  0  0  0  0  0  0
   -0.9119   -2.2623    0.5058 H   0  0  0  0  0  0  0  0  0  0  0  0
    0.2182   -1.4753    1.6351 H   0  0  0  0  0  0  0  0  0  0  0  0
    0.3001   -1.2205   -1.4077 H   0  0  0  0  0  0  0  0  0  0  0  0
    2.6679   -0.6163   -1.3894 H   0  0  0  0  0  0  0  0  0  0  0  0
    2.9061   -1.4283    0.2184 H   0  0  0  0  0  0  0  0  0  0  0  0
    1.3992    0.1581    1.3054 H   0  0  0  0  0  0  0  0  0  0  0  0
   -0.0559    0.8384   -1.3270 H   0  0  0  0  0  0  0  0  0  0  0  0
   -0.6670    2.8367   -0.0660 H   0  0  0  0  0  0  0  0  0  0  0  0
    1.1412    2.6448    0.1428 H   0  0  0  0  0  0  0  0  0  0  0  0
    0.0857    2.1081    1.4612 H   0  0  0  0  0  0  0  0  0  0  0  0
  1  2  1  0
  2  3  1  0
  3  4  1  0
  4  5  1  0
  5  6  1  0
  6  7  1  0
  7  8  1  0
  7  2  1  0
  6  4  1  0
  1  9  1  0
  1 10  1  0
  1 11  1  0
  2 12  1  0
  3 13  1  0
  3 14  1  0
  4 15  1  0
  5 16  1  0
  5 17  1  0
  6 18  1  0
  7 19  1  0
  8 20  1  0
  8 21  1  0
  8 22  1  0
M  END
