
     RDKit          3D

 19 20  0  0  0  0  0  0  0  0999 V2000
    1.9316    0.8618   -0.4453 C   0  0  0  0  0  0  0  0  0  0  0  0
    1.5356   -0.4210    0.2376 C   0  0  0  0  0  0  0  0  0  0  0  0
    0.5657   -0.3154    1.3779 C   0  0  0  0  0  0  0  0  0  0  0  0
    0.2138   -1.0239    0.0887 C   0  0  0  0  0  0  0  0  0  0  0  0
   -0.8841   -0.4632   -0.7593 C   0  0  0  0  0  0  0  0  0  0  0  0
   -1.4755    0.8539   -0.5680 C   0  0  0  0  0  0  0  0  0  0  0  0
   -2.1951   -0.2893    0.0311 C   0  0  0  0  0  0  0  0  0  0  0  0
    1.2301    1.6825   -0.3241 H   0  0  0  0  0  0  0  0  0  0  0  0
    2.1969    0.6763   -1.5217 H   0  0  0  0  0  0  0  0  0  0  0  0
    2.8938    1.1938    0.0426 H   0  0  0  0  0  0  0  0  0  0  0  0
    2.4160   -1.0941    0.4147 H   0  0  0  0  0  0  0  0  0  0  0  0
    0.6565   -0.9886    2.2474 H   0  0  0  0  0  0  0  0  0  0  0  0
    0.0294    0.6547    1.5086 H   0  0  0  0  0  0  0  0  0  0  0  0
    0.1934   -2.1550    0.1020 H   0  0  0  0  0  0  0  0  0  0  0  0
   -0.9503   -0.9365   -1.7624 H   0  0  0  0  0  0  0  0  0  0  0  0
   -1.1235    1.6266    0.1210 H   0  0  0  0  0  0  0  0  0  0  0  0
   -1.9896    1.3002   -1.4688 H   0  0  0  0  0  0  0  0  0  0  0  0
   -2.1855   -0.3897    1.1126 H   0  0  0  0  0  0  0  0  0  0  0  0
   -3.0593   -0.7730   -0.4608 H   0  0  0  0  0  0  0  0  0  0  0  0
  1  2  1  0
  2  3  1  0
  3  4  1  0
  4  5  1  0
  5  6  1  0
  6  7  1  0
  4  2  1  0
  7  5  1  0
  1  8  1  0
  1  9  1  0
  1 10  1  0
  2 11  1  0
  3 12  1  0
  3 13  1  0
  4 14  1  0
  5 15  1  0
  6 16  1  0
  6 17  1  0
  7 18  1  0
  7 19  1  0
M  END
