
     RDKit          3D

 24 24  0  0  0  0  0  0  0  0999 V2000
    2.3756    0.1208   -0.2708 C   0  0  0  0  0  0  0  0  0  0  0  0
    1.1252    0.4659    0.4497 C   0  0  0  0  0  0  0  0  0  0  0  0
    0.2566    1.5238   -0.2478 C   0  0  0  0  0  0  0  0  0  0  0  0
   -0.9148    0.7805    0.4116 C   0  0  0  0  0  0  0  0  0  0  0  0
   -2.1795    0.7748   -0.3616 C   0  0  0  0  0  0  0  0  0  0  0  0
   -0.0489   -0.4680    0.2547 C   0  0  0  0  0  0  0  0  0  0  0  0
   -0.1152   -1.1193   -1.0905 C   0  0  0  0  0  0  0  0  0  0  0  0
   -0.3182   -1.4275    1.3654 C   0  0  0  0  0  0  0  0  0  0  0  0
    3.2359    0.5361    0.3314 H   0  0  0  0  0  0  0  0  0  0  0  0
    2.5776   -0.9393   -0.3996 H   0  0  0  0  0  0  0  0  0  0  0  0
    2.4459    0.6754   -1.2485 H   0  0  0  0  0  0  0  0  0  0  0  0
    1.2154    0.7599    1.5146 H   0  0  0  0  0  0  0  0  0  0  0  0
    0.2899    1.4281   -1.3425 H   0  0  0  0  0  0  0  0  0  0  0  0
    0.4033    2.5426    0.0978 H   0  0  0  0  0  0  0  0  0  0  0  0
   -0.9494    1.0693    1.4691 H   0  0  0  0  0  0  0  0  0  0  0  0
   -2.7130   -0.1847   -0.1420 H   0  0  0  0  0  0  0  0  0  0  0  0
   -2.0527    0.9673   -1.4220 H   0  0  0  0  0  0  0  0  0  0  0  0
   -2.8364    1.5818    0.0444 H   0  0  0  0  0  0  0  0  0  0  0  0
    0.7579   -0.8925   -1.7337 H   0  0  0  0  0  0  0  0  0  0  0  0
   -0.1640   -2.2349   -0.9912 H   0  0  0  0  0  0  0  0  0  0  0  0
   -1.0472   -0.8009   -1.5816 H   0  0  0  0  0  0  0  0  0  0  0  0
   -1.0147   -2.2132    0.9573 H   0  0  0  0  0  0  0  0  0  0  0  0
   -0.8950   -0.9676    2.2117 H   0  0  0  0  0  0  0  0  0  0  0  0
    0.5655   -1.9782    1.7242 H   0  0  0  0  0  0  0  0  0  0  0  0
  1  2  1  0
  2  3  1  0
  3  4  1  0
  4  5  1  0
  4  6  1  0
  6  7  1  0
  6  8  1  0
  6  2  1  0
  1  9  1  0
  1 10  1  0
  1 11  1  0
  2 12  1  0
  3 13  1  0
  3 14  1  0
  4 15  1  0
  5 16  1  0
  5 17  1  0
  5 18  1  0
  7 19  1  0
  7 20  1  0
  7 21  1  0
  8 22  1  0
  8 23  1  0
  8 24  1  0
M  END
