
     RDKit          3D

 23 23  0  0  0  0  0  0  0  0999 V2000
    2.3149   -0.8928   -0.0809 C   0  0  0  0  0  0  0  0  0  0  0  0
    1.3225   -0.1044   -0.8839 C   0  0  0  0  0  0  0  0  0  0  0  0
    1.0617    1.1975   -0.1566 C   0  0  0  0  0  0  0  0  0  0  0  0
   -0.1728    0.8397    0.6404 C   0  0  0  0  0  0  0  0  0  0  0  0
   -0.9822    1.9574    0.6855 O   0  0  0  0  0  0  0  0  0  0  0  0
   -0.7715   -0.3048   -0.1212 C   0  0  0  0  0  0  0  0  0  0  0  0
   -2.0731    0.1992   -0.7571 C   0  0  0  0  0  0  0  0  0  0  0  0
   -1.1972   -1.4484    0.7923 C   0  0  0  0  0  0  0  0  0  0  0  0
    0.1188   -0.7194   -1.0706 O   0  0  0  0  0  0  0  0  0  0  0  0
    3.1675   -0.2216    0.1732 H   0  0  0  0  0  0  0  0  0  0  0  0
    1.8839   -1.2032    0.8996 H   0  0  0  0  0  0  0  0  0  0  0  0
    2.6456   -1.8234   -0.5904 H   0  0  0  0  0  0  0  0  0  0  0  0
    1.8116    0.1608   -1.8506 H   0  0  0  0  0  0  0  0  0  0  0  0
    1.9310    1.4396    0.4581 H   0  0  0  0  0  0  0  0  0  0  0  0
    0.8706    2.0415   -0.8662 H   0  0  0  0  0  0  0  0  0  0  0  0
    0.1652    0.5398    1.6523 H   0  0  0  0  0  0  0  0  0  0  0  0
   -0.8828    2.5545   -0.1065 H   0  0  0  0  0  0  0  0  0  0  0  0
   -2.7778    0.4609    0.0698 H   0  0  0  0  0  0  0  0  0  0  0  0
   -1.9200    1.0888   -1.3685 H   0  0  0  0  0  0  0  0  0  0  0  0
   -2.5762   -0.5996   -1.3358 H   0  0  0  0  0  0  0  0  0  0  0  0
   -0.3748   -1.8761    1.3593 H   0  0  0  0  0  0  0  0  0  0  0  0
   -1.9432   -1.0580    1.5211 H   0  0  0  0  0  0  0  0  0  0  0  0
   -1.6219   -2.2280    0.1221 H   0  0  0  0  0  0  0  0  0  0  0  0
  1  2  1  0
  2  3  1  0
  3  4  1  0
  4  5  1  0
  4  6  1  0
  6  7  1  0
  6  8  1  0
  6  9  1  0
  9  2  1  0
  1 10  1  0
  1 11  1  0
  1 12  1  0
  2 13  1  0
  3 14  1  0
  3 15  1  0
  4 16  1  0
  5 17  1  0
  7 18  1  0
  7 19  1  0
  7 20  1  0
  8 21  1  0
  8 22  1  0
  8 23  1  0
M  END
