
     RDKit          3D

 21 22  0  0  0  0  0  0  0  0999 V2000
    2.7846    0.0103   -0.5493 C   0  0  0  0  0  0  0  0  0  0  0  0
    1.6205    0.1779    0.4296 C   0  0  0  0  0  0  0  0  0  0  0  0
    0.5924    0.9736   -0.2659 C   0  0  0  0  0  0  0  0  0  0  0  0
   -0.6442    0.6419   -0.4505 C   0  0  0  0  0  0  0  0  0  0  0  0
   -2.0301    0.7203   -0.8845 C   0  0  0  0  0  0  0  0  0  0  0  0
   -2.3252    0.0279    0.4684 C   0  0  0  0  0  0  0  0  0  0  0  0
   -1.0598   -0.7091    0.1008 C   0  0  0  0  0  0  0  0  0  0  0  0
   -0.1439   -1.1330    1.2041 C   0  0  0  0  0  0  0  0  0  0  0  0
    1.1939   -1.0485    0.8502 O   0  0  0  0  0  0  0  0  0  0  0  0
    2.9419   -1.0711   -0.7501 H   0  0  0  0  0  0  0  0  0  0  0  0
    3.6922    0.5143   -0.1572 H   0  0  0  0  0  0  0  0  0  0  0  0
    2.5742    0.4759   -1.5322 H   0  0  0  0  0  0  0  0  0  0  0  0
    1.9921    0.7171    1.3535 H   0  0  0  0  0  0  0  0  0  0  0  0
    0.9195    1.9523   -0.6678 H   0  0  0  0  0  0  0  0  0  0  0  0
   -2.4939    1.7176   -0.9595 H   0  0  0  0  0  0  0  0  0  0  0  0
   -2.2753    0.0139   -1.7058 H   0  0  0  0  0  0  0  0  0  0  0  0
   -3.2453   -0.5390    0.4922 H   0  0  0  0  0  0  0  0  0  0  0  0
   -2.1548    0.7780    1.2723 H   0  0  0  0  0  0  0  0  0  0  0  0
   -1.2208   -1.4122   -0.7163 H   0  0  0  0  0  0  0  0  0  0  0  0
   -0.3609   -2.2062    1.3940 H   0  0  0  0  0  0  0  0  0  0  0  0
   -0.3572   -0.6018    2.1543 H   0  0  0  0  0  0  0  0  0  0  0  0
  1  2  1  0
  2  3  1  0
  3  4  2  0
  4  5  1  0
  5  6  1  0
  6  7  1  0
  7  8  1  0
  8  9  1  0
  9  2  1  0
  7  4  1  0
  1 10  1  0
  1 11  1  0
  1 12  1  0
  2 13  1  0
  3 14  1  0
  5 15  1  0
  5 16  1  0
  6 17  1  0
  6 18  1  0
  7 19  1  0
  8 20  1  0
  8 21  1  0
M  END
