
     RDKit          3D

 21 23  0  0  0  0  0  0  0  0999 V2000
    2.6344   -0.4766    0.1764 C   0  0  0  0  0  0  0  0  0  0  0  0
    1.1750   -0.4539    0.6265 C   0  0  0  0  0  0  0  0  0  0  0  0
    0.2113   -0.8081   -0.4675 C   0  0  0  0  0  0  0  0  0  0  0  0
   -1.1307   -1.3316   -0.0548 C   0  0  0  0  0  0  0  0  0  0  0  0
   -1.9501   -0.1365    0.3181 C   0  0  0  0  0  0  0  0  0  0  0  0
   -2.0632    1.0136   -0.6081 C   0  0  0  0  0  0  0  0  0  0  0  0
   -1.0092    0.9651    0.5044 C   0  0  0  0  0  0  0  0  0  0  0  0
    0.3463    0.5911    0.0286 C   0  0  0  0  0  0  0  0  0  0  0  0
    0.9522    1.5412   -0.8047 O   0  0  0  0  0  0  0  0  0  0  0  0
    2.7288   -0.1249   -0.8752 H   0  0  0  0  0  0  0  0  0  0  0  0
    3.2669    0.1400    0.8526 H   0  0  0  0  0  0  0  0  0  0  0  0
    2.9879   -1.5295    0.2329 H   0  0  0  0  0  0  0  0  0  0  0  0
    1.0208   -0.8410    1.6468 H   0  0  0  0  0  0  0  0  0  0  0  0
    0.5892   -0.9732   -1.4984 H   0  0  0  0  0  0  0  0  0  0  0  0
   -1.0762   -1.9882    0.8533 H   0  0  0  0  0  0  0  0  0  0  0  0
   -1.5576   -1.8761   -0.9289 H   0  0  0  0  0  0  0  0  0  0  0  0
   -2.8125   -0.2498    1.0237 H   0  0  0  0  0  0  0  0  0  0  0  0
   -1.7230    0.9262   -1.6554 H   0  0  0  0  0  0  0  0  0  0  0  0
   -2.8453    1.7602   -0.4422 H   0  0  0  0  0  0  0  0  0  0  0  0
   -1.1572    1.6092    1.3886 H   0  0  0  0  0  0  0  0  0  0  0  0
    1.4126    2.2427   -0.3167 H   0  0  0  0  0  0  0  0  0  0  0  0
  1  2  1  0
  2  3  1  0
  3  4  1  0
  4  5  1  0
  5  6  1  0
  6  7  1  0
  7  8  1  0
  8  9  1  0
  8  2  1  0
  8  3  1  0
  7  5  1  0
  1 10  1  0
  1 11  1  0
  1 12  1  0
  2 13  1  0
  3 14  1  0
  4 15  1  0
  4 16  1  0
  5 17  1  0
  6 18  1  0
  6 19  1  0
  7 20  1  0
  9 21  1  0
M  END
