
     RDKit          3D

 19 20  0  0  0  0  0  0  0  0999 V2000
    2.5036    0.7497    0.1040 C   0  0  0  0  0  0  0  0  0  0  0  0
    1.1878    0.1302   -0.2362 C   0  0  0  0  0  0  0  0  0  0  0  0
    1.0494   -1.1720    0.5151 C   0  0  0  0  0  0  0  0  0  0  0  0
   -0.2255   -1.2451    0.8894 C   0  0  0  0  0  0  0  0  0  0  0  0
   -0.8569   -0.0327    0.3891 C   0  0  0  0  0  0  0  0  0  0  0  0
   -2.2833    0.2285    0.3265 C   0  0  0  0  0  0  0  0  0  0  0  0
   -1.6275   -0.2003   -0.9537 C   0  0  0  0  0  0  0  0  0  0  0  0
   -1.4065    0.7398   -1.9331 O   0  0  0  0  0  0  0  0  0  0  0  0
    0.1348    0.8957    0.3211 O   0  0  0  0  0  0  0  0  0  0  0  0
    3.2970    0.1554   -0.4097 H   0  0  0  0  0  0  0  0  0  0  0  0
    2.6351    0.7013    1.2019 H   0  0  0  0  0  0  0  0  0  0  0  0
    2.5416    1.8022   -0.2110 H   0  0  0  0  0  0  0  0  0  0  0  0
    0.9774    0.0253   -1.2969 H   0  0  0  0  0  0  0  0  0  0  0  0
    1.8309   -1.9021    0.7112 H   0  0  0  0  0  0  0  0  0  0  0  0
   -0.7230   -2.0306    1.4512 H   0  0  0  0  0  0  0  0  0  0  0  0
   -2.9580   -0.5240    0.8225 H   0  0  0  0  0  0  0  0  0  0  0  0
   -2.6229    1.2688    0.4322 H   0  0  0  0  0  0  0  0  0  0  0  0
   -1.7303   -1.2344   -1.3234 H   0  0  0  0  0  0  0  0  0  0  0  0
   -1.7238    1.6445   -1.6931 H   0  0  0  0  0  0  0  0  0  0  0  0
  1  2  1  0
  2  3  1  0
  3  4  2  0
  4  5  1  0
  5  6  1  0
  6  7  1  0
  7  8  1  0
  5  9  1  0
  9  2  1  0
  7  5  1  0
  1 10  1  0
  1 11  1  0
  1 12  1  0
  2 13  1  0
  3 14  1  0
  4 15  1  0
  6 16  1  0
  6 17  1  0
  7 18  1  0
  8 19  1  0
M  END
