
     RDKit          3D

 19 20  0  0  0  0  0  0  0  0999 V2000
    1.9704   -0.9589    0.0631 C   0  0  0  0  0  0  0  0  0  0  0  0
    1.0345    0.0691   -0.4686 C   0  0  0  0  0  0  0  0  0  0  0  0
    0.5597    1.0481    0.5023 C   0  0  0  0  0  0  0  0  0  0  0  0
    1.0649    1.3343    1.5700 O   0  0  0  0  0  0  0  0  0  0  0  0
   -0.6843    1.6656   -0.0342 C   0  0  0  0  0  0  0  0  0  0  0  0
   -1.2219    0.5704   -0.9364 C   0  0  0  0  0  0  0  0  0  0  0  0
   -1.4307   -0.7399   -0.2493 C   0  0  0  0  0  0  0  0  0  0  0  0
   -1.4373   -0.7616    1.1191 O   0  0  0  0  0  0  0  0  0  0  0  0
   -0.2275   -0.4860   -1.0592 C   0  0  0  0  0  0  0  0  0  0  0  0
    1.6892   -1.4137    1.0113 H   0  0  0  0  0  0  0  0  0  0  0  0
    2.9923   -0.4792    0.1142 H   0  0  0  0  0  0  0  0  0  0  0  0
    2.0869   -1.7455   -0.7369 H   0  0  0  0  0  0  0  0  0  0  0  0
    1.5672    0.6238   -1.2838 H   0  0  0  0  0  0  0  0  0  0  0  0
   -1.3813    1.8032    0.8144 H   0  0  0  0  0  0  0  0  0  0  0  0
   -0.4878    2.5914   -0.5916 H   0  0  0  0  0  0  0  0  0  0  0  0
   -1.9114    0.8578   -1.7601 H   0  0  0  0  0  0  0  0  0  0  0  0
   -2.1978   -1.3945   -0.7214 H   0  0  0  0  0  0  0  0  0  0  0  0
   -1.8902   -1.5561    1.4802 H   0  0  0  0  0  0  0  0  0  0  0  0
   -0.0947   -1.0285   -1.9966 H   0  0  0  0  0  0  0  0  0  0  0  0
  1  2  1  0
  2  3  1  0
  3  4  2  0
  3  5  1  0
  5  6  1  0
  6  7  1  0
  7  8  1  0
  7  9  1  0
  9  2  1  0
  9  6  1  0
  1 10  1  0
  1 11  1  0
  1 12  1  0
  2 13  1  0
  5 14  1  0
  5 15  1  0
  6 16  1  0
  7 17  1  0
  8 18  1  0
  9 19  1  0
M  END
