
     RDKit          3D

 23 25  0  0  0  0  0  0  0  0999 V2000
    2.8597    0.3264   -0.1067 C   0  0  0  0  0  0  0  0  0  0  0  0
    1.5347   -0.2969   -0.0241 C   0  0  0  0  0  0  0  0  0  0  0  0
    0.6892   -0.0289    1.1996 C   0  0  0  0  0  0  0  0  0  0  0  0
    0.4648    1.3505    0.6325 C   0  0  0  0  0  0  0  0  0  0  0  0
    0.3512    0.4292   -0.5657 C   0  0  0  0  0  0  0  0  0  0  0  0
   -0.4306   -0.4224    0.3617 C   0  0  0  0  0  0  0  0  0  0  0  0
   -1.0658   -1.6623    0.1480 C   0  0  0  0  0  0  0  0  0  0  0  0
   -1.8376   -0.3615    0.5571 C   0  0  0  0  0  0  0  0  0  0  0  0
   -2.6825    0.2083   -0.5653 C   0  0  0  0  0  0  0  0  0  0  0  0
    2.9081    1.3674   -0.4231 H   0  0  0  0  0  0  0  0  0  0  0  0
    3.4604   -0.2508   -0.8696 H   0  0  0  0  0  0  0  0  0  0  0  0
    3.4227    0.2023    0.8430 H   0  0  0  0  0  0  0  0  0  0  0  0
    1.5760   -1.3911   -0.2046 H   0  0  0  0  0  0  0  0  0  0  0  0
    0.9396   -0.2472    2.1474 H   0  0  0  0  0  0  0  0  0  0  0  0
   -0.4850    1.7922    0.9643 H   0  0  0  0  0  0  0  0  0  0  0  0
    1.2989    2.0351    0.6490 H   0  0  0  0  0  0  0  0  0  0  0  0
    0.1544    0.7039   -1.5055 H   0  0  0  0  0  0  0  0  0  0  0  0
   -1.2558   -2.0518   -0.8517 H   0  0  0  0  0  0  0  0  0  0  0  0
   -1.0558   -2.4464    0.9355 H   0  0  0  0  0  0  0  0  0  0  0  0
   -2.3041   -0.3883    1.5689 H   0  0  0  0  0  0  0  0  0  0  0  0
   -3.6008    0.6884   -0.1986 H   0  0  0  0  0  0  0  0  0  0  0  0
   -2.8833   -0.5509   -1.3587 H   0  0  0  0  0  0  0  0  0  0  0  0
   -2.0585    0.9949   -1.0794 H   0  0  0  0  0  0  0  0  0  0  0  0
  1  2  1  0
  2  3  1  0
  3  4  1  0
  4  5  1  0
  5  6  1  0
  6  7  1  0
  7  8  1  0
  8  9  1  0
  5  2  1  0
  8  6  1  0
  6  3  1  0
  1 10  1  0
  1 11  1  0
  1 12  1  0
  2 13  1  0
  3 14  1  0
  4 15  1  0
  4 16  1  0
  5 17  1  0
  7 18  1  0
  7 19  1  0
  8 20  1  0
  9 21  1  0
  9 22  1  0
  9 23  1  0
M  END
