
     RDKit          3D

 18 18  0  0  0  0  0  0  0  0999 V2000
   -1.6196   -0.6289    0.6009 C   0  0  0  0  0  0  0  0  0  0  0  0
   -0.6421    0.4609    0.4125 C   0  0  0  0  0  0  0  0  0  0  0  0
   -0.8033    1.1509   -0.9288 C   0  0  0  0  0  0  0  0  0  0  0  0
    0.5846    1.1711   -1.0306 O   0  0  0  0  0  0  0  0  0  0  0  0
    0.7162    0.1925   -0.0419 C   0  0  0  0  0  0  0  0  0  0  0  0
    1.0437   -1.1234   -0.6912 C   0  0  0  0  0  0  0  0  0  0  0  0
    1.7480    0.5031    0.9893 C   0  0  0  0  0  0  0  0  0  0  0  0
    2.3550    1.5345    0.8814 O   0  0  0  0  0  0  0  0  0  0  0  0
   -1.2881   -1.3445    1.3746 H   0  0  0  0  0  0  0  0  0  0  0  0
   -1.8123   -1.1626   -0.3435 H   0  0  0  0  0  0  0  0  0  0  0  0
   -2.5792   -0.1817    0.9652 H   0  0  0  0  0  0  0  0  0  0  0  0
   -0.6801    1.1871    1.2675 H   0  0  0  0  0  0  0  0  0  0  0  0
   -1.3433    0.5453   -1.6514 H   0  0  0  0  0  0  0  0  0  0  0  0
   -1.1694    2.2075   -0.8631 H   0  0  0  0  0  0  0  0  0  0  0  0
    0.3748   -1.3620   -1.5500 H   0  0  0  0  0  0  0  0  0  0  0  0
    1.1802   -1.9481    0.0113 H   0  0  0  0  0  0  0  0  0  0  0  0
    2.0564   -0.9691   -1.1747 H   0  0  0  0  0  0  0  0  0  0  0  0
    1.8788   -0.2325    1.7725 H   0  0  0  0  0  0  0  0  0  0  0  0
  1  2  1  0
  2  3  1  0
  3  4  1  0
  4  5  1  0
  5  6  1  0
  5  7  1  0
  7  8  2  0
  5  2  1  0
  1  9  1  0
  1 10  1  0
  1 11  1  0
  2 12  1  0
  3 13  1  0
  3 14  1  0
  6 15  1  0
  6 16  1  0
  6 17  1  0
  7 18  1  0
M  END
