
     RDKit          3D

 19 20  0  0  0  0  0  0  0  0999 V2000
    2.4576   -0.3832   -0.1106 C   0  0  0  0  0  0  0  0  0  0  0  0
    1.0479   -0.0362   -0.6169 C   0  0  0  0  0  0  0  0  0  0  0  0
   -0.0256   -0.9159   -0.3916 C   0  0  0  0  0  0  0  0  0  0  0  0
   -1.5072   -0.7881   -0.2878 C   0  0  0  0  0  0  0  0  0  0  0  0
   -1.5866   -0.5086    1.2023 C   0  0  0  0  0  0  0  0  0  0  0  0
   -2.6017   -0.6988    1.9374 O   0  0  0  0  0  0  0  0  0  0  0  0
   -0.3204   -0.0117    1.5514 O   0  0  0  0  0  0  0  0  0  0  0  0
    0.1630    0.4769    0.3467 C   0  0  0  0  0  0  0  0  0  0  0  0
   -0.7463    1.6118   -0.1602 C   0  0  0  0  0  0  0  0  0  0  0  0
    2.8278   -1.2798   -0.6508 H   0  0  0  0  0  0  0  0  0  0  0  0
    2.4176   -0.6366    0.9777 H   0  0  0  0  0  0  0  0  0  0  0  0
    3.1292    0.4644   -0.2167 H   0  0  0  0  0  0  0  0  0  0  0  0
    1.1333    0.4426   -1.6220 H   0  0  0  0  0  0  0  0  0  0  0  0
    0.2594   -1.8291    0.2220 H   0  0  0  0  0  0  0  0  0  0  0  0
   -2.0043   -1.7458   -0.4830 H   0  0  0  0  0  0  0  0  0  0  0  0
   -1.9609    0.0038   -0.8766 H   0  0  0  0  0  0  0  0  0  0  0  0
   -0.1882    2.5488    0.1360 H   0  0  0  0  0  0  0  0  0  0  0  0
   -0.7736    1.6430   -1.2688 H   0  0  0  0  0  0  0  0  0  0  0  0
   -1.7212    1.6425    0.3116 H   0  0  0  0  0  0  0  0  0  0  0  0
  1  2  1  0
  2  3  1  0
  3  4  1  0
  4  5  1  0
  5  6  2  0
  5  7  1  0
  7  8  1  0
  8  9  1  0
  8  2  1  0
  8  3  1  0
  1 10  1  0
  1 11  1  0
  1 12  1  0
  2 13  1  0
  3 14  1  0
  4 15  1  0
  4 16  1  0
  9 17  1  0
  9 18  1  0
  9 19  1  0
M  END
