
     RDKit          3D

 19 20  0  0  0  0  0  0  0  0999 V2000
   -2.2051   -0.5912    0.8872 C   0  0  0  0  0  0  0  0  0  0  0  0
   -0.7468   -0.1821    0.8818 C   0  0  0  0  0  0  0  0  0  0  0  0
   -0.3175    0.6386   -0.2490 C   0  0  0  0  0  0  0  0  0  0  0  0
    1.1475    1.0818   -0.1690 C   0  0  0  0  0  0  0  0  0  0  0  0
    1.4863    1.9882   -1.1427 O   0  0  0  0  0  0  0  0  0  0  0  0
    1.4820   -0.3641   -0.4737 C   0  0  0  0  0  0  0  0  0  0  0  0
    2.5641   -0.8891    0.1762 O   0  0  0  0  0  0  0  0  0  0  0  0
    0.1305   -0.8335   -0.0874 C   0  0  0  0  0  0  0  0  0  0  0  0
   -0.4415   -1.7731   -0.9226 O   0  0  0  0  0  0  0  0  0  0  0  0
   -2.7841   -0.0399    0.0959 H   0  0  0  0  0  0  0  0  0  0  0  0
   -2.2346   -1.6688    0.6031 H   0  0  0  0  0  0  0  0  0  0  0  0
   -2.6840   -0.4608    1.8727 H   0  0  0  0  0  0  0  0  0  0  0  0
   -0.3937    0.1588    1.8916 H   0  0  0  0  0  0  0  0  0  0  0  0
   -0.8769    0.8029   -1.1650 H   0  0  0  0  0  0  0  0  0  0  0  0
    1.4357    1.4091    0.8534 H   0  0  0  0  0  0  0  0  0  0  0  0
    1.0247    2.8456   -0.9197 H   0  0  0  0  0  0  0  0  0  0  0  0
    1.6365   -0.4519   -1.5893 H   0  0  0  0  0  0  0  0  0  0  0  0
    2.9098   -0.3566    0.9159 H   0  0  0  0  0  0  0  0  0  0  0  0
   -1.1330   -1.3138   -1.4595 H   0  0  0  0  0  0  0  0  0  0  0  0
  1  2  1  0
  2  3  1  0
  3  4  1  0
  4  5  1  0
  4  6  1  0
  6  7  1  0
  6  8  1  0
  8  9  1  0
  8  2  1  0
  8  3  1  0
  1 10  1  0
  1 11  1  0
  1 12  1  0
  2 13  1  0
  3 14  1  0
  4 15  1  0
  5 16  1  0
  6 17  1  0
  7 18  1  0
  9 19  1  0
M  END
