
     RDKit          3D

 20 21  0  0  0  0  0  0  0  0999 V2000
    2.0711   -0.6176    0.6781 C   0  0  0  0  0  0  0  0  0  0  0  0
    0.8289    0.2357    0.5786 C   0  0  0  0  0  0  0  0  0  0  0  0
    1.0667    1.2418   -0.5550 C   0  0  0  0  0  0  0  0  0  0  0  0
   -0.3293    1.4724   -1.0986 C   0  0  0  0  0  0  0  0  0  0  0  0
   -1.1273    0.4828   -0.7520 C   0  0  0  0  0  0  0  0  0  0  0  0
   -2.2546   -0.4643   -0.5254 C   0  0  0  0  0  0  0  0  0  0  0  0
   -1.5401   -0.7661    0.8189 C   0  0  0  0  0  0  0  0  0  0  0  0
   -0.2933   -0.5561    0.0085 C   0  0  0  0  0  0  0  0  0  0  0  0
    2.2546   -1.1118   -0.3106 H   0  0  0  0  0  0  0  0  0  0  0  0
    2.9720    0.0226    0.8471 H   0  0  0  0  0  0  0  0  0  0  0  0
    1.9792   -1.4230    1.4185 H   0  0  0  0  0  0  0  0  0  0  0  0
    0.6093    0.7283    1.5248 H   0  0  0  0  0  0  0  0  0  0  0  0
    1.7048    0.8031   -1.3294 H   0  0  0  0  0  0  0  0  0  0  0  0
    1.5139    2.1655   -0.1546 H   0  0  0  0  0  0  0  0  0  0  0  0
   -0.5605    2.3517   -1.6816 H   0  0  0  0  0  0  0  0  0  0  0  0
   -2.1859   -1.3754   -1.1591 H   0  0  0  0  0  0  0  0  0  0  0  0
   -3.2421   -0.0182   -0.4012 H   0  0  0  0  0  0  0  0  0  0  0  0
   -1.7294    0.0448    1.5348 H   0  0  0  0  0  0  0  0  0  0  0  0
   -1.7076   -1.7913    1.1702 H   0  0  0  0  0  0  0  0  0  0  0  0
   -0.0304   -1.4248   -0.6121 H   0  0  0  0  0  0  0  0  0  0  0  0
  1  2  1  0
  2  3  1  0
  3  4  1  0
  4  5  2  0
  5  6  1  0
  6  7  1  0
  7  8  1  0
  8  2  1  0
  8  5  1  0
  1  9  1  0
  1 10  1  0
  1 11  1  0
  2 12  1  0
  3 13  1  0
  3 14  1  0
  4 15  1  0
  6 16  1  0
  6 17  1  0
  7 18  1  0
  7 19  1  0
  8 20  1  0
M  END
