
     RDKit          3D

 23 25  0  0  0  0  0  0  0  0999 V2000
    2.4496    0.1206   -0.1390 C   0  0  0  0  0  0  0  0  0  0  0  0
    1.1993   -0.2576    0.5664 C   0  0  0  0  0  0  0  0  0  0  0  0
    0.3335   -1.2299   -0.2533 C   0  0  0  0  0  0  0  0  0  0  0  0
   -0.9101   -0.3835   -0.4574 C   0  0  0  0  0  0  0  0  0  0  0  0
   -2.1578   -0.8478   -0.9803 C   0  0  0  0  0  0  0  0  0  0  0  0
   -1.9921   -0.6964    0.5398 C   0  0  0  0  0  0  0  0  0  0  0  0
   -0.3097    0.9508   -0.5656 C   0  0  0  0  0  0  0  0  0  0  0  0
   -0.0920    2.0465    0.2935 C   0  0  0  0  0  0  0  0  0  0  0  0
    0.2774    0.8346    0.9035 C   0  0  0  0  0  0  0  0  0  0  0  0
    2.8036   -0.7621   -0.7348 H   0  0  0  0  0  0  0  0  0  0  0  0
    3.2357    0.3188    0.6487 H   0  0  0  0  0  0  0  0  0  0  0  0
    2.3963    1.0405   -0.7406 H   0  0  0  0  0  0  0  0  0  0  0  0
    1.4973   -0.8369    1.4898 H   0  0  0  0  0  0  0  0  0  0  0  0
    0.8654   -1.3957   -1.2361 H   0  0  0  0  0  0  0  0  0  0  0  0
    0.1352   -2.1585    0.2759 H   0  0  0  0  0  0  0  0  0  0  0  0
   -2.8077   -0.1068   -1.4914 H   0  0  0  0  0  0  0  0  0  0  0  0
   -2.2365   -1.8964   -1.3383 H   0  0  0  0  0  0  0  0  0  0  0  0
   -2.5054    0.1186    1.0496 H   0  0  0  0  0  0  0  0  0  0  0  0
   -1.9433   -1.6353    1.1286 H   0  0  0  0  0  0  0  0  0  0  0  0
    0.4715    0.8905   -1.3937 H   0  0  0  0  0  0  0  0  0  0  0  0
    0.7397    2.7925    0.1129 H   0  0  0  0  0  0  0  0  0  0  0  0
   -0.9870    2.6206    0.6373 H   0  0  0  0  0  0  0  0  0  0  0  0
   -0.4628    0.4730    1.6844 H   0  0  0  0  0  0  0  0  0  0  0  0
  1  2  1  0
  2  3  1  0
  3  4  1  0
  4  5  1  0
  5  6  1  0
  4  7  1  0
  7  8  1  0
  8  9  1  0
  9  2  1  0
  6  4  1  0
  9  7  1  0
  1 10  1  0
  1 11  1  0
  1 12  1  0
  2 13  1  0
  3 14  1  0
  3 15  1  0
  5 16  1  0
  5 17  1  0
  6 18  1  0
  6 19  1  0
  7 20  1  0
  8 21  1  0
  8 22  1  0
  9 23  1  0
M  END
