
     RDKit          3D

 17 18  0  0  0  0  0  0  0  0999 V2000
    2.1561    0.7027    0.2632 C   0  0  0  0  0  0  0  0  0  0  0  0
    0.8824    0.0019    0.5350 C   0  0  0  0  0  0  0  0  0  0  0  0
    0.2403   -0.5712   -0.7381 C   0  0  0  0  0  0  0  0  0  0  0  0
   -1.0860   -0.9977   -0.1427 C   0  0  0  0  0  0  0  0  0  0  0  0
   -2.2197   -0.5566   -0.8601 O   0  0  0  0  0  0  0  0  0  0  0  0
   -2.2622    0.5894   -0.0817 C   0  0  0  0  0  0  0  0  0  0  0  0
   -2.9023    1.6655   -0.1944 O   0  0  0  0  0  0  0  0  0  0  0  0
   -1.2999    0.0889    0.9051 C   0  0  0  0  0  0  0  0  0  0  0  0
   -0.1338    0.8011    0.9968 O   0  0  0  0  0  0  0  0  0  0  0  0
    2.3789    0.8876   -0.7946 H   0  0  0  0  0  0  0  0  0  0  0  0
    2.9933    0.0542    0.6567 H   0  0  0  0  0  0  0  0  0  0  0  0
    2.2583    1.6559    0.8415 H   0  0  0  0  0  0  0  0  0  0  0  0
    0.9852   -0.8673    1.2222 H   0  0  0  0  0  0  0  0  0  0  0  0
    0.8244   -1.3889   -1.1492 H   0  0  0  0  0  0  0  0  0  0  0  0
    0.0320    0.2482   -1.4673 H   0  0  0  0  0  0  0  0  0  0  0  0
   -1.1204   -2.0282    0.2386 H   0  0  0  0  0  0  0  0  0  0  0  0
   -1.7266   -0.2854    1.8644 H   0  0  0  0  0  0  0  0  0  0  0  0
  1  2  1  0
  2  3  1  0
  3  4  1  0
  4  5  1  0
  5  6  1  0
  6  7  2  0
  6  8  1  0
  8  9  1  0
  9  2  1  0
  8  4  1  0
  1 10  1  0
  1 11  1  0
  1 12  1  0
  2 13  1  0
  3 14  1  0
  3 15  1  0
  4 16  1  0
  8 17  1  0
M  END
