
     RDKit          3D

 23 23  0  0  0  0  0  0  0  0999 V2000
   -0.4020    1.5783    1.2735 C   0  0  0  0  0  0  0  0  0  0  0  0
   -0.2718    0.9870   -0.0876 C   0  0  0  0  0  0  0  0  0  0  0  0
   -1.4552    0.0841   -0.3579 C   0  0  0  0  0  0  0  0  0  0  0  0
   -0.8115   -1.3088   -0.4148 C   0  0  0  0  0  0  0  0  0  0  0  0
   -1.5873   -2.2122   -1.0987 O   0  0  0  0  0  0  0  0  0  0  0  0
    0.4672   -0.9604   -1.1860 C   0  0  0  0  0  0  0  0  0  0  0  0
    0.9687    0.2142   -0.3327 C   0  0  0  0  0  0  0  0  0  0  0  0
    1.5811   -0.3954    0.8968 C   0  0  0  0  0  0  0  0  0  0  0  0
    1.8867    0.9744   -1.0589 O   0  0  0  0  0  0  0  0  0  0  0  0
   -0.5068    2.6968    1.1980 H   0  0  0  0  0  0  0  0  0  0  0  0
    0.4480    1.4010    1.9390 H   0  0  0  0  0  0  0  0  0  0  0  0
   -1.3639    1.2509    1.7601 H   0  0  0  0  0  0  0  0  0  0  0  0
   -0.3296    1.8022   -0.8642 H   0  0  0  0  0  0  0  0  0  0  0  0
   -2.2352    0.1414    0.4093 H   0  0  0  0  0  0  0  0  0  0  0  0
   -1.8789    0.2396   -1.3829 H   0  0  0  0  0  0  0  0  0  0  0  0
   -0.6084   -1.5888    0.6206 H   0  0  0  0  0  0  0  0  0  0  0  0
   -2.2115   -2.6423   -0.4491 H   0  0  0  0  0  0  0  0  0  0  0  0
    0.1667   -0.6087   -2.1746 H   0  0  0  0  0  0  0  0  0  0  0  0
    1.1870   -1.7937   -1.1825 H   0  0  0  0  0  0  0  0  0  0  0  0
    0.8648   -0.5819    1.7019 H   0  0  0  0  0  0  0  0  0  0  0  0
    2.0056   -1.4085    0.6268 H   0  0  0  0  0  0  0  0  0  0  0  0
    2.4656    0.2013    1.1985 H   0  0  0  0  0  0  0  0  0  0  0  0
    1.6207    1.9295   -1.0347 H   0  0  0  0  0  0  0  0  0  0  0  0
  1  2  1  0
  2  3  1  0
  3  4  1  0
  4  5  1  0
  4  6  1  0
  6  7  1  0
  7  8  1  0
  7  9  1  0
  7  2  1  0
  1 10  1  0
  1 11  1  0
  1 12  1  0
  2 13  1  0
  3 14  1  0
  3 15  1  0
  4 16  1  0
  5 17  1  0
  6 18  1  0
  6 19  1  0
  8 20  1  0
  8 21  1  0
  8 22  1  0
  9 23  1  0
M  END
