
     RDKit          3D

 23 24  0  0  0  0  0  0  0  0999 V2000
    2.5186   -0.4030    0.2966 C   0  0  0  0  0  0  0  0  0  0  0  0
    1.2905    0.4714    0.5296 C   0  0  0  0  0  0  0  0  0  0  0  0
    1.2327    1.6778   -0.4153 C   0  0  0  0  0  0  0  0  0  0  0  0
    0.7077    0.7971   -1.3872 O   0  0  0  0  0  0  0  0  0  0  0  0
    0.1986    0.0580   -0.3809 C   0  0  0  0  0  0  0  0  0  0  0  0
   -0.1999   -1.3384   -0.4298 C   0  0  0  0  0  0  0  0  0  0  0  0
   -1.1676   -0.1985   -0.0550 C   0  0  0  0  0  0  0  0  0  0  0  0
   -1.6208   -0.1225    1.3878 C   0  0  0  0  0  0  0  0  0  0  0  0
   -2.2620    0.0118   -1.0978 C   0  0  0  0  0  0  0  0  0  0  0  0
    2.2070   -1.4145   -0.0907 H   0  0  0  0  0  0  0  0  0  0  0  0
    3.0755   -0.6015    1.2233 H   0  0  0  0  0  0  0  0  0  0  0  0
    3.1083    0.0545   -0.5066 H   0  0  0  0  0  0  0  0  0  0  0  0
    1.0583    0.6905    1.5729 H   0  0  0  0  0  0  0  0  0  0  0  0
    2.2377    2.0435   -0.6090 H   0  0  0  0  0  0  0  0  0  0  0  0
    0.4743    2.3938   -0.0881 H   0  0  0  0  0  0  0  0  0  0  0  0
   -0.3154   -1.8163   -1.4089 H   0  0  0  0  0  0  0  0  0  0  0  0
    0.1607   -1.9837    0.4190 H   0  0  0  0  0  0  0  0  0  0  0  0
   -1.9727    0.9070    1.5913 H   0  0  0  0  0  0  0  0  0  0  0  0
   -2.4724   -0.8286    1.5117 H   0  0  0  0  0  0  0  0  0  0  0  0
   -0.7588   -0.3907    2.0325 H   0  0  0  0  0  0  0  0  0  0  0  0
   -1.8152   -0.2122   -2.0959 H   0  0  0  0  0  0  0  0  0  0  0  0
   -3.0002   -0.8066   -0.9181 H   0  0  0  0  0  0  0  0  0  0  0  0
   -2.6849    1.0110   -1.0812 H   0  0  0  0  0  0  0  0  0  0  0  0
  1  2  1  0
  2  3  1  0
  3  4  1  0
  4  5  1  0
  5  6  1  0
  6  7  1  0
  7  8  1  0
  7  9  1  0
  5  2  1  0
  7  5  1  0
  1 10  1  0
  1 11  1  0
  1 12  1  0
  2 13  1  0
  3 14  1  0
  3 15  1  0
  6 16  1  0
  6 17  1  0
  8 18  1  0
  8 19  1  0
  8 20  1  0
  9 21  1  0
  9 22  1  0
  9 23  1  0
M  END
