
     RDKit          3D

 19 19  0  0  0  0  0  0  0  0999 V2000
   -2.0355   -0.0962   -0.5164 C   0  0  0  0  0  0  0  0  0  0  0  0
   -1.0929   -0.0101    0.6775 C   0  0  0  0  0  0  0  0  0  0  0  0
   -0.3648    1.2846    0.7125 C   0  0  0  0  0  0  0  0  0  0  0  0
    0.8399    1.5238    0.2283 C   0  0  0  0  0  0  0  0  0  0  0  0
    1.7689    0.5969   -0.4616 C   0  0  0  0  0  0  0  0  0  0  0  0
    1.0568   -0.3175   -1.2248 O   0  0  0  0  0  0  0  0  0  0  0  0
    0.8644   -1.4506   -0.4309 C   0  0  0  0  0  0  0  0  0  0  0  0
   -0.1334   -1.1183    0.6273 C   0  0  0  0  0  0  0  0  0  0  0  0
   -0.1081   -1.9053    1.5551 O   0  0  0  0  0  0  0  0  0  0  0  0
   -1.7687   -0.9624   -1.1586 H   0  0  0  0  0  0  0  0  0  0  0  0
   -3.0948   -0.1623   -0.2075 H   0  0  0  0  0  0  0  0  0  0  0  0
   -1.8576    0.8159   -1.1500 H   0  0  0  0  0  0  0  0  0  0  0  0
   -1.6613   -0.0930    1.6385 H   0  0  0  0  0  0  0  0  0  0  0  0
   -0.8852    2.1195    1.1888 H   0  0  0  0  0  0  0  0  0  0  0  0
    1.2202    2.5264    0.3394 H   0  0  0  0  0  0  0  0  0  0  0  0
    2.4083    1.1989   -1.1635 H   0  0  0  0  0  0  0  0  0  0  0  0
    2.4629    0.0920    0.2666 H   0  0  0  0  0  0  0  0  0  0  0  0
    1.8038   -1.7285    0.1182 H   0  0  0  0  0  0  0  0  0  0  0  0
    0.5771   -2.3140   -1.0387 H   0  0  0  0  0  0  0  0  0  0  0  0
  1  2  1  0
  2  3  1  0
  3  4  2  0
  4  5  1  0
  5  6  1  0
  6  7  1  0
  7  8  1  0
  8  9  2  0
  8  2  1  0
  1 10  1  0
  1 11  1  0
  1 12  1  0
  2 13  1  0
  3 14  1  0
  4 15  1  0
  5 16  1  0
  5 17  1  0
  7 18  1  0
  7 19  1  0
M  END
