
     RDKit          3D

 19 21  0  0  0  0  0  0  0  0999 V2000
   -1.9118   -0.4468   -0.5547 C   0  0  0  0  0  0  0  0  0  0  0  0
   -1.1571    0.1597    0.5696 C   0  0  0  0  0  0  0  0  0  0  0  0
   -0.4637    1.4765    0.1662 C   0  0  0  0  0  0  0  0  0  0  0  0
    0.9654    1.0273    0.4993 C   0  0  0  0  0  0  0  0  0  0  0  0
    0.7363    0.3863    1.7430 O   0  0  0  0  0  0  0  0  0  0  0  0
    0.0900   -0.6021    0.9569 C   0  0  0  0  0  0  0  0  0  0  0  0
    1.1280   -0.3125   -0.0652 C   0  0  0  0  0  0  0  0  0  0  0  0
    2.1790   -1.0458   -0.5043 C   0  0  0  0  0  0  0  0  0  0  0  0
    1.0328   -0.6480   -1.3685 O   0  0  0  0  0  0  0  0  0  0  0  0
   -1.2887   -0.9151   -1.3199 H   0  0  0  0  0  0  0  0  0  0  0  0
   -2.5273    0.3772   -1.0239 H   0  0  0  0  0  0  0  0  0  0  0  0
   -2.6714   -1.1434   -0.1255 H   0  0  0  0  0  0  0  0  0  0  0  0
   -1.7982    0.3458    1.4331 H   0  0  0  0  0  0  0  0  0  0  0  0
   -0.7937    2.3102    0.7809 H   0  0  0  0  0  0  0  0  0  0  0  0
   -0.6052    1.5897   -0.9145 H   0  0  0  0  0  0  0  0  0  0  0  0
    1.7280    1.7696    0.4702 H   0  0  0  0  0  0  0  0  0  0  0  0
   -0.0080   -1.5744    1.3874 H   0  0  0  0  0  0  0  0  0  0  0  0
    2.2212   -2.1519   -0.5047 H   0  0  0  0  0  0  0  0  0  0  0  0
    3.1442   -0.6022   -0.8738 H   0  0  0  0  0  0  0  0  0  0  0  0
  1  2  1  0
  2  3  1  0
  3  4  1  0
  4  5  1  0
  5  6  1  0
  6  7  1  0
  7  8  1  0
  8  9  1  0
  6  2  1  0
  9  7  1  0
  7  4  1  0
  1 10  1  0
  1 11  1  0
  1 12  1  0
  2 13  1  0
  3 14  1  0
  3 15  1  0
  4 16  1  0
  6 17  1  0
  8 18  1  0
  8 19  1  0
M  END
