
     RDKit          3D

 23 25  0  0  0  0  0  0  0  0999 V2000
    2.7366    0.1847    0.3758 C   0  0  0  0  0  0  0  0  0  0  0  0
    1.3843   -0.3484    0.0025 C   0  0  0  0  0  0  0  0  0  0  0  0
    0.6572    0.4330   -1.0762 C   0  0  0  0  0  0  0  0  0  0  0  0
   -0.3723   -0.4821   -1.7287 C   0  0  0  0  0  0  0  0  0  0  0  0
   -1.5701   -0.4841   -0.8351 C   0  0  0  0  0  0  0  0  0  0  0  0
   -1.1234    0.2019    0.4382 C   0  0  0  0  0  0  0  0  0  0  0  0
   -2.1719    0.5068    1.4536 C   0  0  0  0  0  0  0  0  0  0  0  0
    0.2594    0.0406    0.9429 C   0  0  0  0  0  0  0  0  0  0  0  0
   -0.1008    1.1304    0.0015 C   0  0  0  0  0  0  0  0  0  0  0  0
    3.4963   -0.4423   -0.1751 H   0  0  0  0  0  0  0  0  0  0  0  0
    2.9833    0.0500    1.4481 H   0  0  0  0  0  0  0  0  0  0  0  0
    2.8678    1.2258    0.0544 H   0  0  0  0  0  0  0  0  0  0  0  0
    1.3994   -1.4362   -0.1296 H   0  0  0  0  0  0  0  0  0  0  0  0
    1.2705    1.0212   -1.7496 H   0  0  0  0  0  0  0  0  0  0  0  0
   -0.5625   -0.1666   -2.7584 H   0  0  0  0  0  0  0  0  0  0  0  0
    0.0479   -1.5280   -1.7422 H   0  0  0  0  0  0  0  0  0  0  0  0
   -2.0427   -1.4472   -0.6816 H   0  0  0  0  0  0  0  0  0  0  0  0
   -2.3379    0.1974   -1.2937 H   0  0  0  0  0  0  0  0  0  0  0  0
   -1.8308    0.0665    2.4337 H   0  0  0  0  0  0  0  0  0  0  0  0
   -2.3193    1.5922    1.6180 H   0  0  0  0  0  0  0  0  0  0  0  0
   -3.1149   -0.0310    1.2149 H   0  0  0  0  0  0  0  0  0  0  0  0
    0.4628    0.3281    1.9696 H   0  0  0  0  0  0  0  0  0  0  0  0
   -0.0190    2.1787    0.2171 H   0  0  0  0  0  0  0  0  0  0  0  0
  1  2  1  0
  2  3  1  0
  3  4  1  0
  4  5  1  0
  5  6  1  0
  6  7  1  0
  6  8  1  0
  8  9  1  0
  8  2  1  0
  9  3  1  0
  9  6  1  0
  1 10  1  0
  1 11  1  0
  1 12  1  0
  2 13  1  0
  3 14  1  0
  4 15  1  0
  4 16  1  0
  5 17  1  0
  5 18  1  0
  7 19  1  0
  7 20  1  0
  7 21  1  0
  8 22  1  0
  9 23  1  0
M  END
