
     RDKit          3D

 20 21  0  0  0  0  0  0  0  0999 V2000
    2.5857   -0.1981   -0.0849 C   0  0  0  0  0  0  0  0  0  0  0  0
    1.3235    0.5890   -0.1941 C   0  0  0  0  0  0  0  0  0  0  0  0
    0.5291    0.3288   -1.4907 C   0  0  0  0  0  0  0  0  0  0  0  0
   -0.6495    0.6501   -0.6420 C   0  0  0  0  0  0  0  0  0  0  0  0
   -1.8419   -0.2686   -0.6823 C   0  0  0  0  0  0  0  0  0  0  0  0
   -2.0848   -0.4096    0.8303 C   0  0  0  0  0  0  0  0  0  0  0  0
   -0.7012   -0.5606    1.3250 C   0  0  0  0  0  0  0  0  0  0  0  0
    0.1394    0.0347    0.5014 C   0  0  0  0  0  0  0  0  0  0  0  0
    2.4883   -1.2257   -0.4440 H   0  0  0  0  0  0  0  0  0  0  0  0
    3.3856    0.3509   -0.6001 H   0  0  0  0  0  0  0  0  0  0  0  0
    2.8741   -0.2133    1.0021 H   0  0  0  0  0  0  0  0  0  0  0  0
    1.4737    1.6621   -0.0043 H   0  0  0  0  0  0  0  0  0  0  0  0
    0.7194    1.0788   -2.2779 H   0  0  0  0  0  0  0  0  0  0  0  0
    0.6404   -0.7249   -1.8044 H   0  0  0  0  0  0  0  0  0  0  0  0
   -0.8496    1.7105   -0.5451 H   0  0  0  0  0  0  0  0  0  0  0  0
   -1.6220   -1.2451   -1.1078 H   0  0  0  0  0  0  0  0  0  0  0  0
   -2.7052    0.2566   -1.1205 H   0  0  0  0  0  0  0  0  0  0  0  0
   -2.4805    0.5482    1.2300 H   0  0  0  0  0  0  0  0  0  0  0  0
   -2.7395   -1.2618    1.0476 H   0  0  0  0  0  0  0  0  0  0  0  0
   -0.4852   -1.1020    2.2496 H   0  0  0  0  0  0  0  0  0  0  0  0
  1  2  1  0
  2  3  1  0
  3  4  1  0
  4  5  1  0
  5  6  1  0
  6  7  1  0
  7  8  2  0
  8  2  1  0
  8  4  1  0
  1  9  1  0
  1 10  1  0
  1 11  1  0
  2 12  1  0
  3 13  1  0
  3 14  1  0
  4 15  1  0
  5 16  1  0
  5 17  1  0
  6 18  1  0
  6 19  1  0
  7 20  1  0
M  END
