
     RDKit          3D

 19 21  0  0  0  0  0  0  0  0999 V2000
    1.7540    1.1096    0.1805 C   0  0  0  0  0  0  0  0  0  0  0  0
    0.9020    0.0720   -0.4688 C   0  0  0  0  0  0  0  0  0  0  0  0
    1.3790   -1.3481   -0.1832 C   0  0  0  0  0  0  0  0  0  0  0  0
    0.8183   -2.4782   -0.5663 O   0  0  0  0  0  0  0  0  0  0  0  0
   -0.1402   -1.5835   -0.4730 C   0  0  0  0  0  0  0  0  0  0  0  0
   -0.2083   -0.4041    0.4917 C   0  0  0  0  0  0  0  0  0  0  0  0
   -1.4498    0.3720    0.4758 C   0  0  0  0  0  0  0  0  0  0  0  0
   -2.2323    0.5008   -0.7330 C   0  0  0  0  0  0  0  0  0  0  0  0
   -1.5658    1.5898   -0.1760 O   0  0  0  0  0  0  0  0  0  0  0  0
    1.7399    2.0432   -0.3897 H   0  0  0  0  0  0  0  0  0  0  0  0
    2.8085    0.7158    0.2458 H   0  0  0  0  0  0  0  0  0  0  0  0
    1.4498    1.3183    1.2380 H   0  0  0  0  0  0  0  0  0  0  0  0
    0.5615    0.2571   -1.4889 H   0  0  0  0  0  0  0  0  0  0  0  0
    1.6604   -1.3813    0.9182 H   0  0  0  0  0  0  0  0  0  0  0  0
   -0.4681   -1.1977   -1.4915 H   0  0  0  0  0  0  0  0  0  0  0  0
    0.2521   -0.6501    1.4649 H   0  0  0  0  0  0  0  0  0  0  0  0
   -2.0223    0.3587    1.4467 H   0  0  0  0  0  0  0  0  0  0  0  0
   -1.8871    0.2456   -1.7414 H   0  0  0  0  0  0  0  0  0  0  0  0
   -3.3515    0.4600   -0.6482 H   0  0  0  0  0  0  0  0  0  0  0  0
  1  2  1  0
  2  3  1  0
  3  4  1  0
  4  5  1  0
  5  6  1  0
  6  7  1  0
  7  8  1  0
  8  9  1  0
  6  2  1  0
  9  7  1  0
  5  3  1  0
  1 10  1  0
  1 11  1  0
  1 12  1  0
  2 13  1  0
  3 14  1  0
  5 15  1  0
  6 16  1  0
  7 17  1  0
  8 18  1  0
  8 19  1  0
M  END
