
     RDKit          3D

 17 17  0  0  0  0  0  0  0  0999 V2000
   -1.8469   -1.8386   -0.5948 C   0  0  0  0  0  0  0  0  0  0  0  0
   -0.9918   -0.7751    0.0541 C   0  0  0  0  0  0  0  0  0  0  0  0
   -1.2875    0.6505   -0.3471 C   0  0  0  0  0  0  0  0  0  0  0  0
   -1.1002    1.6174    0.6352 O   0  0  0  0  0  0  0  0  0  0  0  0
    0.0186   -0.0763   -0.7762 C   0  0  0  0  0  0  0  0  0  0  0  0
    1.2447    0.3362   -0.0748 C   0  0  0  0  0  0  0  0  0  0  0  0
    2.2519    0.6964    0.5130 C   0  0  0  0  0  0  0  0  0  0  0  0
    3.4481    1.0983    1.1991 C   0  0  0  0  0  0  0  0  0  0  0  0
    3.3992    1.9256    2.1712 O   0  0  0  0  0  0  0  0  0  0  0  0
   -2.4852   -2.2874    0.1867 H   0  0  0  0  0  0  0  0  0  0  0  0
   -2.5434   -1.3949   -1.3621 H   0  0  0  0  0  0  0  0  0  0  0  0
   -1.2410   -2.5810   -1.1539 H   0  0  0  0  0  0  0  0  0  0  0  0
   -0.7762   -0.9358    1.1268 H   0  0  0  0  0  0  0  0  0  0  0  0
   -2.0297    0.8283   -1.1372 H   0  0  0  0  0  0  0  0  0  0  0  0
   -0.5333    2.3444    0.2807 H   0  0  0  0  0  0  0  0  0  0  0  0
    0.0751   -0.3179   -1.8381 H   0  0  0  0  0  0  0  0  0  0  0  0
    4.3974    0.7097    0.9047 H   0  0  0  0  0  0  0  0  0  0  0  0
  1  2  1  0
  2  3  1  0
  3  4  1  0
  3  5  1  0
  5  6  1  0
  6  7  3  0
  7  8  1  0
  8  9  2  0
  5  2  1  0
  1 10  1  0
  1 11  1  0
  1 12  1  0
  2 13  1  0
  3 14  1  0
  4 15  1  0
  5 16  1  0
  8 17  1  0
M  END
