
     RDKit          3D

 23 24  0  0  0  0  0  0  0  0999 V2000
    3.3319   -0.1188    0.0576 C   0  0  0  0  0  0  0  0  0  0  0  0
    1.9504   -0.0078    0.6213 C   0  0  0  0  0  0  0  0  0  0  0  0
    1.3323    1.4018    0.4682 C   0  0  0  0  0  0  0  0  0  0  0  0
    0.7577    0.1910   -0.2076 C   0  0  0  0  0  0  0  0  0  0  0  0
   -0.5634   -0.2930    0.3281 C   0  0  0  0  0  0  0  0  0  0  0  0
   -0.6110   -1.6689    0.5853 O   0  0  0  0  0  0  0  0  0  0  0  0
   -1.9257   -1.6717    0.0867 C   0  0  0  0  0  0  0  0  0  0  0  0
   -1.6965   -0.3551   -0.6381 C   0  0  0  0  0  0  0  0  0  0  0  0
   -2.7897    0.6732   -0.3806 C   0  0  0  0  0  0  0  0  0  0  0  0
    3.7032    0.8636   -0.3578 H   0  0  0  0  0  0  0  0  0  0  0  0
    3.4242   -0.8372   -0.7706 H   0  0  0  0  0  0  0  0  0  0  0  0
    4.0362   -0.3365    0.9037 H   0  0  0  0  0  0  0  0  0  0  0  0
    1.7856   -0.4582    1.6403 H   0  0  0  0  0  0  0  0  0  0  0  0
    0.8039    1.8129    1.3592 H   0  0  0  0  0  0  0  0  0  0  0  0
    1.8556    2.1142   -0.1933 H   0  0  0  0  0  0  0  0  0  0  0  0
    0.8319    0.1254   -1.3269 H   0  0  0  0  0  0  0  0  0  0  0  0
   -0.8759    0.2411    1.2537 H   0  0  0  0  0  0  0  0  0  0  0  0
   -2.0712   -2.5428   -0.5852 H   0  0  0  0  0  0  0  0  0  0  0  0
   -2.7078   -1.5492    0.8761 H   0  0  0  0  0  0  0  0  0  0  0  0
   -1.4477   -0.4447   -1.6984 H   0  0  0  0  0  0  0  0  0  0  0  0
   -2.3455    1.6874   -0.3685 H   0  0  0  0  0  0  0  0  0  0  0  0
   -3.5327    0.6446   -1.1896 H   0  0  0  0  0  0  0  0  0  0  0  0
   -3.2458    0.5288    0.6267 H   0  0  0  0  0  0  0  0  0  0  0  0
  1  2  1  0
  2  3  1  0
  3  4  1  0
  4  5  1  0
  5  6  1  0
  6  7  1  0
  7  8  1  0
  8  9  1  0
  4  2  1  0
  8  5  1  0
  1 10  1  0
  1 11  1  0
  1 12  1  0
  2 13  1  0
  3 14  1  0
  3 15  1  0
  4 16  1  0
  5 17  1  0
  7 18  1  0
  7 19  1  0
  8 20  1  0
  9 21  1  0
  9 22  1  0
  9 23  1  0
M  END
