
     RDKit          3D

 23 24  0  0  0  0  0  0  0  0999 V2000
    2.3013    0.0876   -0.0270 C   0  0  0  0  0  0  0  0  0  0  0  0
    0.9512    0.1177    0.7027 C   0  0  0  0  0  0  0  0  0  0  0  0
    0.3289   -1.2354    0.7365 C   0  0  0  0  0  0  0  0  0  0  0  0
   -1.0443   -1.2838    0.1310 C   0  0  0  0  0  0  0  0  0  0  0  0
   -1.9164   -0.1257    0.5337 C   0  0  0  0  0  0  0  0  0  0  0  0
   -1.1659    0.6980   -0.4933 C   0  0  0  0  0  0  0  0  0  0  0  0
   -0.9281   -0.6120   -1.2444 C   0  0  0  0  0  0  0  0  0  0  0  0
    0.0886    1.2009    0.1684 C   0  0  0  0  0  0  0  0  0  0  0  0
    0.7786    2.0613   -0.7188 O   0  0  0  0  0  0  0  0  0  0  0  0
    2.4776    0.9907   -0.6110 H   0  0  0  0  0  0  0  0  0  0  0  0
    2.3224   -0.7805   -0.7412 H   0  0  0  0  0  0  0  0  0  0  0  0
    3.1386   -0.0581    0.6557 H   0  0  0  0  0  0  0  0  0  0  0  0
    1.2264    0.3785    1.7675 H   0  0  0  0  0  0  0  0  0  0  0  0
    0.3546   -1.7011    1.7553 H   0  0  0  0  0  0  0  0  0  0  0  0
    0.9699   -1.9284    0.1129 H   0  0  0  0  0  0  0  0  0  0  0  0
   -1.4824   -2.2725    0.1317 H   0  0  0  0  0  0  0  0  0  0  0  0
   -1.8209    0.2225    1.5726 H   0  0  0  0  0  0  0  0  0  0  0  0
   -2.9527   -0.2968    0.1879 H   0  0  0  0  0  0  0  0  0  0  0  0
   -1.7304    1.4536   -1.0249 H   0  0  0  0  0  0  0  0  0  0  0  0
   -1.8060   -0.8422   -1.8763 H   0  0  0  0  0  0  0  0  0  0  0  0
    0.0585   -0.7026   -1.6960 H   0  0  0  0  0  0  0  0  0  0  0  0
   -0.2580    1.8895    0.9951 H   0  0  0  0  0  0  0  0  0  0  0  0
    0.1086    2.7388   -1.0182 H   0  0  0  0  0  0  0  0  0  0  0  0
  1  2  1  0
  2  3  1  0
  3  4  1  0
  4  5  1  0
  5  6  1  0
  6  7  1  0
  6  8  1  0
  8  9  1  0
  8  2  1  0
  7  4  1  0
  1 10  1  0
  1 11  1  0
  1 12  1  0
  2 13  1  0
  3 14  1  0
  3 15  1  0
  4 16  1  0
  5 17  1  0
  5 18  1  0
  6 19  1  0
  7 20  1  0
  7 21  1  0
  8 22  1  0
  9 23  1  0
M  END
