
     RDKit          3D

 19 21  0  0  0  0  0  0  0  0999 V2000
    1.8047    0.5984   -0.8976 C   0  0  0  0  0  0  0  0  0  0  0  0
    1.0953   -0.3549   -0.0133 C   0  0  0  0  0  0  0  0  0  0  0  0
   -0.1861   -0.9545   -0.5378 C   0  0  0  0  0  0  0  0  0  0  0  0
   -0.9527    0.0093   -1.3583 C   0  0  0  0  0  0  0  0  0  0  0  0
   -1.4854    0.9571   -0.5994 C   0  0  0  0  0  0  0  0  0  0  0  0
   -1.1145    0.7054    0.8233 C   0  0  0  0  0  0  0  0  0  0  0  0
    0.2906    0.2264    1.1202 C   0  0  0  0  0  0  0  0  0  0  0  0
   -0.7736   -0.7201    0.8301 C   0  0  0  0  0  0  0  0  0  0  0  0
   -1.2717   -1.6761    1.6125 O   0  0  0  0  0  0  0  0  0  0  0  0
    2.6109    0.0349   -1.4472 H   0  0  0  0  0  0  0  0  0  0  0  0
    2.3742    1.3654   -0.3001 H   0  0  0  0  0  0  0  0  0  0  0  0
    1.1999    1.1373   -1.6195 H   0  0  0  0  0  0  0  0  0  0  0  0
    1.7737   -1.1752    0.3206 H   0  0  0  0  0  0  0  0  0  0  0  0
   -0.1590   -1.9873   -0.8626 H   0  0  0  0  0  0  0  0  0  0  0  0
   -1.0778   -0.0301   -2.4333 H   0  0  0  0  0  0  0  0  0  0  0  0
   -2.0898    1.7847   -0.9218 H   0  0  0  0  0  0  0  0  0  0  0  0
   -1.6502    1.2048    1.6212 H   0  0  0  0  0  0  0  0  0  0  0  0
    0.7258    0.4277    2.0927 H   0  0  0  0  0  0  0  0  0  0  0  0
   -1.1145   -1.5532    2.5702 H   0  0  0  0  0  0  0  0  0  0  0  0
  1  2  1  0
  2  3  1  0
  3  4  1  0
  4  5  2  0
  5  6  1  0
  6  7  1  0
  7  8  1  0
  8  9  1  0
  7  2  1  0
  8  3  1  0
  8  6  1  0
  1 10  1  0
  1 11  1  0
  1 12  1  0
  2 13  1  0
  3 14  1  0
  4 15  1  0
  5 16  1  0
  6 17  1  0
  7 18  1  0
  9 19  1  0
M  END
