
     RDKit          3D

 23 24  0  0  0  0  0  0  0  0999 V2000
    2.0943   -0.8377   -0.2357 C   0  0  0  0  0  0  0  0  0  0  0  0
    0.9156   -0.3130    0.5048 C   0  0  0  0  0  0  0  0  0  0  0  0
   -0.3861   -1.0153    0.3785 C   0  0  0  0  0  0  0  0  0  0  0  0
   -0.5845   -1.9880   -0.7142 C   0  0  0  0  0  0  0  0  0  0  0  0
   -0.9677    0.3470   -0.0466 C   0  0  0  0  0  0  0  0  0  0  0  0
   -2.2969    0.7497    0.4456 C   0  0  0  0  0  0  0  0  0  0  0  0
   -0.4907    0.7557   -1.2718 O   0  0  0  0  0  0  0  0  0  0  0  0
    0.2533    0.9069   -0.1012 C   0  0  0  0  0  0  0  0  0  0  0  0
    0.8161    2.2538    0.1127 C   0  0  0  0  0  0  0  0  0  0  0  0
    1.9266   -1.0544   -1.2896 H   0  0  0  0  0  0  0  0  0  0  0  0
    2.8852   -0.0298   -0.2085 H   0  0  0  0  0  0  0  0  0  0  0  0
    2.5172   -1.6820    0.3421 H   0  0  0  0  0  0  0  0  0  0  0  0
    1.1776   -0.1012    1.5605 H   0  0  0  0  0  0  0  0  0  0  0  0
   -0.8096   -1.3354    1.3622 H   0  0  0  0  0  0  0  0  0  0  0  0
    0.3015   -2.2869   -1.2742 H   0  0  0  0  0  0  0  0  0  0  0  0
   -1.3486   -1.6435   -1.4722 H   0  0  0  0  0  0  0  0  0  0  0  0
   -1.0262   -2.9247   -0.2913 H   0  0  0  0  0  0  0  0  0  0  0  0
   -2.7258   -0.1022    1.0480 H   0  0  0  0  0  0  0  0  0  0  0  0
   -2.3211    1.6285    1.0975 H   0  0  0  0  0  0  0  0  0  0  0  0
   -2.9818    0.8743   -0.4308 H   0  0  0  0  0  0  0  0  0  0  0  0
    0.5074    2.6755    1.0765 H   0  0  0  0  0  0  0  0  0  0  0  0
    0.6026    2.9573   -0.7199 H   0  0  0  0  0  0  0  0  0  0  0  0
    1.9416    2.1651    0.1277 H   0  0  0  0  0  0  0  0  0  0  0  0
  1  2  1  0
  2  3  1  0
  3  4  1  0
  3  5  1  0
  5  6  1  0
  5  7  1  0
  7  8  1  0
  8  9  1  0
  8  2  1  0
  8  5  1  0
  1 10  1  0
  1 11  1  0
  1 12  1  0
  2 13  1  0
  3 14  1  0
  4 15  1  0
  4 16  1  0
  4 17  1  0
  6 18  1  0
  6 19  1  0
  6 20  1  0
  9 21  1  0
  9 22  1  0
  9 23  1  0
M  END
