
     RDKit          3D

 23 24  0  0  0  0  0  0  0  0999 V2000
   -1.3617   -1.8684   -0.5134 C   0  0  0  0  0  0  0  0  0  0  0  0
   -0.7633   -0.5063   -0.6436 C   0  0  0  0  0  0  0  0  0  0  0  0
   -1.6698    0.5437   -0.0098 C   0  0  0  0  0  0  0  0  0  0  0  0
   -0.3968    1.1688    0.5640 C   0  0  0  0  0  0  0  0  0  0  0  0
    0.0315    2.3017   -0.3341 C   0  0  0  0  0  0  0  0  0  0  0  0
    0.2962   -0.1377    0.3587 C   0  0  0  0  0  0  0  0  0  0  0  0
    1.7005   -0.0561   -0.2065 C   0  0  0  0  0  0  0  0  0  0  0  0
    2.3191   -1.2426   -0.8301 C   0  0  0  0  0  0  0  0  0  0  0  0
    1.8699   -0.1017   -1.5823 O   0  0  0  0  0  0  0  0  0  0  0  0
   -2.4598   -1.8002   -0.2759 H   0  0  0  0  0  0  0  0  0  0  0  0
   -1.3276   -2.3726   -1.5136 H   0  0  0  0  0  0  0  0  0  0  0  0
   -0.9073   -2.4841    0.2643 H   0  0  0  0  0  0  0  0  0  0  0  0
   -0.4329   -0.2109   -1.6598 H   0  0  0  0  0  0  0  0  0  0  0  0
   -2.3529    0.1335    0.7740 H   0  0  0  0  0  0  0  0  0  0  0  0
   -2.1661    1.1319   -0.7845 H   0  0  0  0  0  0  0  0  0  0  0  0
   -0.4665    1.4404    1.6307 H   0  0  0  0  0  0  0  0  0  0  0  0
    0.1278    1.9295   -1.3662 H   0  0  0  0  0  0  0  0  0  0  0  0
   -0.8322    3.0294   -0.3508 H   0  0  0  0  0  0  0  0  0  0  0  0
    0.9473    2.8017    0.0327 H   0  0  0  0  0  0  0  0  0  0  0  0
    0.3157   -0.7435    1.2827 H   0  0  0  0  0  0  0  0  0  0  0  0
    2.3762    0.5937    0.3854 H   0  0  0  0  0  0  0  0  0  0  0  0
    3.4137   -1.3881   -0.7849 H   0  0  0  0  0  0  0  0  0  0  0  0
    1.7391   -2.1621   -0.9221 H   0  0  0  0  0  0  0  0  0  0  0  0
  1  2  1  0
  2  3  1  0
  3  4  1  0
  4  5  1  0
  4  6  1  0
  6  7  1  0
  7  8  1  0
  8  9  1  0
  6  2  1  0
  9  7  1  0
  1 10  1  0
  1 11  1  0
  1 12  1  0
  2 13  1  0
  3 14  1  0
  3 15  1  0
  4 16  1  0
  5 17  1  0
  5 18  1  0
  5 19  1  0
  6 20  1  0
  7 21  1  0
  8 22  1  0
  8 23  1  0
M  END
