
     RDKit          3D

 21 23  0  0  0  0  0  0  0  0999 V2000
   -1.1510    1.7006    0.0408 C   0  0  0  0  0  0  0  0  0  0  0  0
   -0.0295    0.8418   -0.4051 C   0  0  0  0  0  0  0  0  0  0  0  0
   -0.3852   -0.3339   -1.2931 C   0  0  0  0  0  0  0  0  0  0  0  0
   -1.5253   -1.0939   -0.6449 C   0  0  0  0  0  0  0  0  0  0  0  0
   -0.9593   -2.0855    0.1545 O   0  0  0  0  0  0  0  0  0  0  0  0
    0.2990   -1.5756    0.5365 C   0  0  0  0  0  0  0  0  0  0  0  0
    0.8066   -1.0163   -0.7023 C   0  0  0  0  0  0  0  0  0  0  0  0
    0.5466   -0.1294    0.5651 C   0  0  0  0  0  0  0  0  0  0  0  0
    1.7687    0.3352    1.2977 C   0  0  0  0  0  0  0  0  0  0  0  0
   -0.9383    2.7977   -0.1228 H   0  0  0  0  0  0  0  0  0  0  0  0
   -1.2755    1.6040    1.1428 H   0  0  0  0  0  0  0  0  0  0  0  0
   -2.1110    1.5227   -0.5023 H   0  0  0  0  0  0  0  0  0  0  0  0
    0.7918    1.4280   -0.8915 H   0  0  0  0  0  0  0  0  0  0  0  0
   -0.4289   -0.1671   -2.3560 H   0  0  0  0  0  0  0  0  0  0  0  0
   -2.1028   -0.4356    0.0688 H   0  0  0  0  0  0  0  0  0  0  0  0
   -2.2544   -1.4724   -1.3619 H   0  0  0  0  0  0  0  0  0  0  0  0
    0.8972   -2.2059    1.1834 H   0  0  0  0  0  0  0  0  0  0  0  0
    1.7887   -1.0149   -1.1056 H   0  0  0  0  0  0  0  0  0  0  0  0
    2.2765    1.1294    0.6967 H   0  0  0  0  0  0  0  0  0  0  0  0
    1.4901    0.6739    2.2915 H   0  0  0  0  0  0  0  0  0  0  0  0
    2.4961   -0.5028    1.4077 H   0  0  0  0  0  0  0  0  0  0  0  0
  1  2  1  0
  2  3  1  0
  3  4  1  0
  4  5  1  0
  5  6  1  0
  6  7  1  0
  7  8  1  0
  8  9  1  0
  8  2  1  0
  7  3  1  0
  8  6  1  0
  1 10  1  0
  1 11  1  0
  1 12  1  0
  2 13  1  0
  3 14  1  0
  4 15  1  0
  4 16  1  0
  6 17  1  0
  7 18  1  0
  9 19  1  0
  9 20  1  0
  9 21  1  0
M  END
