
     RDKit          3D

 23 24  0  0  0  0  0  0  0  0999 V2000
   -1.7338   -0.8661    0.7545 C   0  0  0  0  0  0  0  0  0  0  0  0
   -1.2134    0.1950   -0.1349 C   0  0  0  0  0  0  0  0  0  0  0  0
   -0.1830    1.0988    0.5252 C   0  0  0  0  0  0  0  0  0  0  0  0
    0.9409    0.2982    1.1425 C   0  0  0  0  0  0  0  0  0  0  0  0
    1.5956   -0.5684    0.1158 C   0  0  0  0  0  0  0  0  0  0  0  0
    0.5845   -1.3427   -0.6860 C   0  0  0  0  0  0  0  0  0  0  0  0
   -0.3754   -0.3116   -1.2867 C   0  0  0  0  0  0  0  0  0  0  0  0
    0.3759    0.7533   -1.7165 O   0  0  0  0  0  0  0  0  0  0  0  0
    0.4013    1.7243   -0.7503 C   0  0  0  0  0  0  0  0  0  0  0  0
   -2.6828   -0.4773    1.2296 H   0  0  0  0  0  0  0  0  0  0  0  0
   -2.0217   -1.7963    0.2214 H   0  0  0  0  0  0  0  0  0  0  0  0
   -1.0886   -1.1625    1.5866 H   0  0  0  0  0  0  0  0  0  0  0  0
   -2.0212    0.8561   -0.5082 H   0  0  0  0  0  0  0  0  0  0  0  0
   -0.6135    1.8371    1.1928 H   0  0  0  0  0  0  0  0  0  0  0  0
    1.7128    1.0622    1.4553 H   0  0  0  0  0  0  0  0  0  0  0  0
    0.6598   -0.2264    2.0597 H   0  0  0  0  0  0  0  0  0  0  0  0
    2.3252   -1.2550    0.5449 H   0  0  0  0  0  0  0  0  0  0  0  0
    2.1386    0.0973   -0.6032 H   0  0  0  0  0  0  0  0  0  0  0  0
    0.0016   -1.9658    0.0268 H   0  0  0  0  0  0  0  0  0  0  0  0
    1.0407   -1.9607   -1.4514 H   0  0  0  0  0  0  0  0  0  0  0  0
   -0.9570   -0.7278   -2.1072 H   0  0  0  0  0  0  0  0  0  0  0  0
    1.3760    2.1592   -0.5358 H   0  0  0  0  0  0  0  0  0  0  0  0
   -0.2626    2.5792   -1.0748 H   0  0  0  0  0  0  0  0  0  0  0  0
  1  2  1  0
  2  3  1  0
  3  4  1  0
  4  5  1  0
  5  6  1  0
  6  7  1  0
  7  8  1  0
  8  9  1  0
  7  2  1  0
  9  3  1  0
  1 10  1  0
  1 11  1  0
  1 12  1  0
  2 13  1  0
  3 14  1  0
  4 15  1  0
  4 16  1  0
  5 17  1  0
  5 18  1  0
  6 19  1  0
  6 20  1  0
  7 21  1  0
  9 22  1  0
  9 23  1  0
M  END
