
     RDKit          3D

 21 22  0  0  0  0  0  0  0  0999 V2000
   -2.2116   -0.2559    0.1786 C   0  0  0  0  0  0  0  0  0  0  0  0
   -0.8664   -0.3697   -0.5245 C   0  0  0  0  0  0  0  0  0  0  0  0
   -0.3272   -1.7240   -0.4195 C   0  0  0  0  0  0  0  0  0  0  0  0
    0.9159   -1.6843   -0.0053 C   0  0  0  0  0  0  0  0  0  0  0  0
    1.3454   -0.2924    0.2137 C   0  0  0  0  0  0  0  0  0  0  0  0
    2.5171    0.1766   -0.3666 O   0  0  0  0  0  0  0  0  0  0  0  0
    0.7207    0.4056    1.3653 C   0  0  0  0  0  0  0  0  0  0  0  0
    0.1494    0.5508    0.0126 C   0  0  0  0  0  0  0  0  0  0  0  0
    0.2650    1.9384   -0.5844 C   0  0  0  0  0  0  0  0  0  0  0  0
   -2.5929    0.7640   -0.0526 H   0  0  0  0  0  0  0  0  0  0  0  0
   -2.8705   -1.0250   -0.3011 H   0  0  0  0  0  0  0  0  0  0  0  0
   -2.0642   -0.4495    1.2413 H   0  0  0  0  0  0  0  0  0  0  0  0
   -1.0597   -0.1890   -1.6182 H   0  0  0  0  0  0  0  0  0  0  0  0
   -0.8839   -2.6785   -0.6559 H   0  0  0  0  0  0  0  0  0  0  0  0
    1.5751   -2.5405    0.1661 H   0  0  0  0  0  0  0  0  0  0  0  0
    3.2221   -0.5368   -0.3511 H   0  0  0  0  0  0  0  0  0  0  0  0
    1.3052    1.2353    1.7905 H   0  0  0  0  0  0  0  0  0  0  0  0
    0.1611   -0.2217    2.1039 H   0  0  0  0  0  0  0  0  0  0  0  0
    0.6883    2.6594    0.1360 H   0  0  0  0  0  0  0  0  0  0  0  0
    0.7948    1.9653   -1.5370 H   0  0  0  0  0  0  0  0  0  0  0  0
   -0.7838    2.2719   -0.7918 H   0  0  0  0  0  0  0  0  0  0  0  0
  1  2  1  0
  2  3  1  0
  3  4  2  0
  4  5  1  0
  5  6  1  0
  5  7  1  0
  7  8  1  0
  8  9  1  0
  8  2  1  0
  8  5  1  0
  1 10  1  0
  1 11  1  0
  1 12  1  0
  2 13  1  0
  3 14  1  0
  4 15  1  0
  6 16  1  0
  7 17  1  0
  7 18  1  0
  9 19  1  0
  9 20  1  0
  9 21  1  0
M  END
