
     RDKit          3D

 21 21  0  0  0  0  0  0  0  0999 V2000
   -2.6315    0.1965    0.6412 C   0  0  0  0  0  0  0  0  0  0  0  0
   -1.2414    0.1526    0.1422 C   0  0  0  0  0  0  0  0  0  0  0  0
   -0.4597   -1.0673    0.6031 C   0  0  0  0  0  0  0  0  0  0  0  0
    0.7295   -1.1638   -0.3094 C   0  0  0  0  0  0  0  0  0  0  0  0
    1.3406    0.1270   -0.6792 C   0  0  0  0  0  0  0  0  0  0  0  0
    2.6486    0.2909    0.0379 C   0  0  0  0  0  0  0  0  0  0  0  0
    3.7214    0.0451   -0.4877 O   0  0  0  0  0  0  0  0  0  0  0  0
    0.5379    1.3456   -0.4699 C   0  0  0  0  0  0  0  0  0  0  0  0
   -0.4644    1.2495    0.4683 O   0  0  0  0  0  0  0  0  0  0  0  0
   -3.0168   -0.8186    0.8948 H   0  0  0  0  0  0  0  0  0  0  0  0
   -3.3073    0.5833   -0.1773 H   0  0  0  0  0  0  0  0  0  0  0  0
   -2.7509    0.9196    1.4709 H   0  0  0  0  0  0  0  0  0  0  0  0
   -1.2596    0.0888   -0.9806 H   0  0  0  0  0  0  0  0  0  0  0  0
   -1.0563   -1.9948    0.5574 H   0  0  0  0  0  0  0  0  0  0  0  0
   -0.1258   -0.9662    1.6600 H   0  0  0  0  0  0  0  0  0  0  0  0
    1.5132   -1.8364    0.1404 H   0  0  0  0  0  0  0  0  0  0  0  0
    0.3829   -1.7279   -1.2215 H   0  0  0  0  0  0  0  0  0  0  0  0
    1.6148    0.0771   -1.7751 H   0  0  0  0  0  0  0  0  0  0  0  0
    2.5919    0.6441    1.0628 H   0  0  0  0  0  0  0  0  0  0  0  0
    1.1964    2.2036   -0.1423 H   0  0  0  0  0  0  0  0  0  0  0  0
    0.0367    1.6511   -1.4359 H   0  0  0  0  0  0  0  0  0  0  0  0
  1  2  1  0
  2  3  1  0
  3  4  1  0
  4  5  1  0
  5  6  1  0
  6  7  2  0
  5  8  1  0
  8  9  1  0
  9  2  1  0
  1 10  1  0
  1 11  1  0
  1 12  1  0
  2 13  1  0
  3 14  1  0
  3 15  1  0
  4 16  1  0
  4 17  1  0
  5 18  1  0
  6 19  1  0
  8 20  1  0
  8 21  1  0
M  END
