
     RDKit          3D

 25 26  0  0  0  0  0  0  0  0999 V2000
    1.6656   -1.4663   -0.9867 C   0  0  0  0  0  0  0  0  0  0  0  0
    1.0685   -0.4348   -0.0586 C   0  0  0  0  0  0  0  0  0  0  0  0
    2.1896    0.5455    0.3474 C   0  0  0  0  0  0  0  0  0  0  0  0
    1.0531    1.5703    0.4129 C   0  0  0  0  0  0  0  0  0  0  0  0
    0.4144    0.7353   -0.6852 C   0  0  0  0  0  0  0  0  0  0  0  0
   -1.0490    0.9186   -0.6663 C   0  0  0  0  0  0  0  0  0  0  0  0
   -1.8174    1.0135    0.6095 C   0  0  0  0  0  0  0  0  0  0  0  0
   -2.0824   -0.0870   -0.4587 C   0  0  0  0  0  0  0  0  0  0  0  0
   -1.8769   -1.4598    0.0517 C   0  0  0  0  0  0  0  0  0  0  0  0
    1.5744   -1.1817   -2.0390 H   0  0  0  0  0  0  0  0  0  0  0  0
    1.2051   -2.4794   -0.7887 H   0  0  0  0  0  0  0  0  0  0  0  0
    2.7346   -1.5955   -0.7446 H   0  0  0  0  0  0  0  0  0  0  0  0
    0.6545   -0.8469    0.8602 H   0  0  0  0  0  0  0  0  0  0  0  0
    2.8303    0.7632   -0.5175 H   0  0  0  0  0  0  0  0  0  0  0  0
    2.6599    0.3191    1.3000 H   0  0  0  0  0  0  0  0  0  0  0  0
    1.3444    2.5887    0.1160 H   0  0  0  0  0  0  0  0  0  0  0  0
    0.5208    1.4371    1.3510 H   0  0  0  0  0  0  0  0  0  0  0  0
    0.9139    1.0071   -1.6392 H   0  0  0  0  0  0  0  0  0  0  0  0
   -1.3490    1.7560   -1.3791 H   0  0  0  0  0  0  0  0  0  0  0  0
   -2.6447    1.7403    0.7388 H   0  0  0  0  0  0  0  0  0  0  0  0
   -1.3589    0.7029    1.5454 H   0  0  0  0  0  0  0  0  0  0  0  0
   -3.0586    0.0326   -1.0167 H   0  0  0  0  0  0  0  0  0  0  0  0
   -1.1391   -2.0548   -0.5490 H   0  0  0  0  0  0  0  0  0  0  0  0
   -2.8227   -2.0358   -0.0237 H   0  0  0  0  0  0  0  0  0  0  0  0
   -1.6304   -1.4881    1.1378 H   0  0  0  0  0  0  0  0  0  0  0  0
  1  2  1  0
  2  3  1  0
  3  4  1  0
  4  5  1  0
  5  6  1  0
  6  7  1  0
  7  8  1  0
  8  9  1  0
  5  2  1  0
  8  6  1  0
  1 10  1  0
  1 11  1  0
  1 12  1  0
  2 13  1  0
  3 14  1  0
  3 15  1  0
  4 16  1  0
  4 17  1  0
  5 18  1  0
  6 19  1  0
  7 20  1  0
  7 21  1  0
  8 22  1  0
  9 23  1  0
  9 24  1  0
  9 25  1  0
M  END
