
     RDKit          3D

 21 21  0  0  0  0  0  0  0  0999 V2000
    1.7923    0.7554   -0.9671 C   0  0  0  0  0  0  0  0  0  0  0  0
    0.9246    0.6505    0.2730 C   0  0  0  0  0  0  0  0  0  0  0  0
    0.7384   -0.6827    0.9005 C   0  0  0  0  0  0  0  0  0  0  0  0
    0.5780   -0.8333    2.2620 O   0  0  0  0  0  0  0  0  0  0  0  0
   -0.4040    0.0146    0.2010 C   0  0  0  0  0  0  0  0  0  0  0  0
   -1.5046    0.6243    1.0450 C   0  0  0  0  0  0  0  0  0  0  0  0
   -1.6875    1.9666    0.6406 O   0  0  0  0  0  0  0  0  0  0  0  0
   -0.8922   -0.6870   -1.0327 C   0  0  0  0  0  0  0  0  0  0  0  0
   -0.0927   -1.7537   -1.4152 O   0  0  0  0  0  0  0  0  0  0  0  0
    2.6221    1.4651   -0.8107 H   0  0  0  0  0  0  0  0  0  0  0  0
    1.2336    1.0774   -1.8532 H   0  0  0  0  0  0  0  0  0  0  0  0
    2.2648   -0.2278   -1.2273 H   0  0  0  0  0  0  0  0  0  0  0  0
    1.0502    1.4888    0.9855 H   0  0  0  0  0  0  0  0  0  0  0  0
    1.2446   -1.5288    0.3654 H   0  0  0  0  0  0  0  0  0  0  0  0
    1.2949   -1.4524    2.5754 H   0  0  0  0  0  0  0  0  0  0  0  0
   -2.4708    0.0916    0.9185 H   0  0  0  0  0  0  0  0  0  0  0  0
   -1.1458    0.6330    2.0878 H   0  0  0  0  0  0  0  0  0  0  0  0
   -2.0461    1.9478   -0.2946 H   0  0  0  0  0  0  0  0  0  0  0  0
   -0.9984   -0.0229   -1.9117 H   0  0  0  0  0  0  0  0  0  0  0  0
   -1.9010   -1.1283   -0.7892 H   0  0  0  0  0  0  0  0  0  0  0  0
   -0.6006   -2.3982   -1.9530 H   0  0  0  0  0  0  0  0  0  0  0  0
  1  2  1  0
  2  3  1  0
  3  4  1  0
  3  5  1  0
  5  6  1  0
  6  7  1  0
  5  8  1  0
  8  9  1  0
  5  2  1  0
  1 10  1  0
  1 11  1  0
  1 12  1  0
  2 13  1  0
  3 14  1  0
  4 15  1  0
  6 16  1  0
  6 17  1  0
  7 18  1  0
  8 19  1  0
  8 20  1  0
  9 21  1  0
M  END
