
     RDKit          3D

 21 21  0  0  0  0  0  0  0  0999 V2000
   -2.1202    0.7206    0.5021 C   0  0  0  0  0  0  0  0  0  0  0  0
   -1.2277    0.2103   -0.5875 C   0  0  0  0  0  0  0  0  0  0  0  0
    0.0478    0.9749   -0.7517 C   0  0  0  0  0  0  0  0  0  0  0  0
    0.4204    1.9953   -1.2845 O   0  0  0  0  0  0  0  0  0  0  0  0
    0.7322   -0.0673    0.0435 C   0  0  0  0  0  0  0  0  0  0  0  0
    0.8499    0.3583    1.4836 C   0  0  0  0  0  0  0  0  0  0  0  0
    2.0532   -0.5477   -0.5155 C   0  0  0  0  0  0  0  0  0  0  0  0
   -0.4072   -1.0079   -0.2580 C   0  0  0  0  0  0  0  0  0  0  0  0
   -0.1416   -1.7464   -1.4132 O   0  0  0  0  0  0  0  0  0  0  0  0
   -1.9492    0.0888    1.4064 H   0  0  0  0  0  0  0  0  0  0  0  0
   -1.9675    1.8045    0.7092 H   0  0  0  0  0  0  0  0  0  0  0  0
   -3.1909    0.5784    0.2387 H   0  0  0  0  0  0  0  0  0  0  0  0
   -1.7540    0.1701   -1.5402 H   0  0  0  0  0  0  0  0  0  0  0  0
    0.1682    1.1768    1.7139 H   0  0  0  0  0  0  0  0  0  0  0  0
    1.8957    0.7661    1.6010 H   0  0  0  0  0  0  0  0  0  0  0  0
    0.7933   -0.4915    2.1873 H   0  0  0  0  0  0  0  0  0  0  0  0
    2.7924    0.2739   -0.4770 H   0  0  0  0  0  0  0  0  0  0  0  0
    1.9735   -0.8962   -1.5452 H   0  0  0  0  0  0  0  0  0  0  0  0
    2.3782   -1.3909    0.1550 H   0  0  0  0  0  0  0  0  0  0  0  0
   -0.7634   -1.6343    0.5560 H   0  0  0  0  0  0  0  0  0  0  0  0
   -0.5832   -1.3358   -2.2239 H   0  0  0  0  0  0  0  0  0  0  0  0
  1  2  1  0
  2  3  1  0
  3  4  2  0
  3  5  1  0
  5  6  1  0
  5  7  1  0
  5  8  1  0
  8  9  1  0
  8  2  1  0
  1 10  1  0
  1 11  1  0
  1 12  1  0
  2 13  1  0
  6 14  1  0
  6 15  1  0
  6 16  1  0
  7 17  1  0
  7 18  1  0
  7 19  1  0
  8 20  1  0
  9 21  1  0
M  END
