
     RDKit          3D

 17 18  0  0  0  0  0  0  0  0999 V2000
   -0.7940   -1.6487    0.3499 C   0  0  0  0  0  0  0  0  0  0  0  0
   -0.4430   -0.4234   -0.4623 C   0  0  0  0  0  0  0  0  0  0  0  0
    0.8905    0.0929   -0.1812 C   0  0  0  0  0  0  0  0  0  0  0  0
    2.1701   -0.6659   -0.1473 C   0  0  0  0  0  0  0  0  0  0  0  0
    3.2700   -0.1402    0.1036 O   0  0  0  0  0  0  0  0  0  0  0  0
    0.8398    1.3911    0.0561 C   0  0  0  0  0  0  0  0  0  0  0  0
   -0.5634    1.8514   -0.0500 C   0  0  0  0  0  0  0  0  0  0  0  0
   -1.2766    1.3130    1.1590 O   0  0  0  0  0  0  0  0  0  0  0  0
   -1.3612    0.7205   -0.1349 C   0  0  0  0  0  0  0  0  0  0  0  0
   -1.8386   -1.9168    0.0859 H   0  0  0  0  0  0  0  0  0  0  0  0
   -0.1282   -2.4740    0.0663 H   0  0  0  0  0  0  0  0  0  0  0  0
   -0.7573   -1.3668    1.4089 H   0  0  0  0  0  0  0  0  0  0  0  0
   -0.5975   -0.6172   -1.5651 H   0  0  0  0  0  0  0  0  0  0  0  0
    2.1038   -1.7090   -0.3527 H   0  0  0  0  0  0  0  0  0  0  0  0
    1.7018    2.0465    0.2978 H   0  0  0  0  0  0  0  0  0  0  0  0
   -0.7805    2.9139   -0.2151 H   0  0  0  0  0  0  0  0  0  0  0  0
   -2.4356    0.6327   -0.4188 H   0  0  0  0  0  0  0  0  0  0  0  0
  1  2  1  0
  2  3  1  0
  3  4  1  0
  4  5  2  0
  3  6  2  0
  6  7  1  0
  7  8  1  0
  8  9  1  0
  9  2  1  0
  9  7  1  0
  1 10  1  0
  1 11  1  0
  1 12  1  0
  2 13  1  0
  4 14  1  0
  6 15  1  0
  7 16  1  0
  9 17  1  0
M  END
