
     RDKit          3D

 17 18  0  0  0  0  0  0  0  0999 V2000
    1.6052   -0.6578    0.5514 C   0  0  0  0  0  0  0  0  0  0  0  0
    0.7298   -0.0445   -0.5476 C   0  0  0  0  0  0  0  0  0  0  0  0
    0.5072    1.3921   -0.2413 C   0  0  0  0  0  0  0  0  0  0  0  0
   -0.6947    1.6589    0.4568 O   0  0  0  0  0  0  0  0  0  0  0  0
   -1.7581    0.7867    0.4801 C   0  0  0  0  0  0  0  0  0  0  0  0
   -2.7934    1.1031    1.1009 O   0  0  0  0  0  0  0  0  0  0  0  0
   -1.6880   -0.4975   -0.2099 C   0  0  0  0  0  0  0  0  0  0  0  0
   -0.9166   -1.4390    0.6482 O   0  0  0  0  0  0  0  0  0  0  0  0
   -0.4758   -0.8950   -0.6908 C   0  0  0  0  0  0  0  0  0  0  0  0
    1.3198   -1.7208    0.7061 H   0  0  0  0  0  0  0  0  0  0  0  0
    2.6582   -0.5033    0.3162 H   0  0  0  0  0  0  0  0  0  0  0  0
    1.2861   -0.1225    1.4917 H   0  0  0  0  0  0  0  0  0  0  0  0
    1.3196   -0.1030   -1.5102 H   0  0  0  0  0  0  0  0  0  0  0  0
    1.3305    1.7562    0.4082 H   0  0  0  0  0  0  0  0  0  0  0  0
    0.5433    2.0495   -1.1564 H   0  0  0  0  0  0  0  0  0  0  0  0
   -2.6470   -0.9590   -0.4801 H   0  0  0  0  0  0  0  0  0  0  0  0
   -0.3263   -1.8040   -1.3233 H   0  0  0  0  0  0  0  0  0  0  0  0
  1  2  1  0
  2  3  1  0
  3  4  1  0
  4  5  1  0
  5  6  2  0
  5  7  1  0
  7  8  1  0
  8  9  1  0
  9  2  1  0
  9  7  1  0
  1 10  1  0
  1 11  1  0
  1 12  1  0
  2 13  1  0
  3 14  1  0
  3 15  1  0
  7 16  1  0
  9 17  1  0
M  END
