
     RDKit          3D

 22 22  0  0  0  0  0  0  0  0999 V2000
    2.7513   -0.1787    0.3409 C   0  0  0  0  0  0  0  0  0  0  0  0
    1.2988   -0.1929   -0.0803 C   0  0  0  0  0  0  0  0  0  0  0  0
    0.8273    1.2009   -0.3016 C   0  0  0  0  0  0  0  0  0  0  0  0
   -0.4804    1.3200   -0.5149 C   0  0  0  0  0  0  0  0  0  0  0  0
   -1.2106   -0.0035   -0.4850 C   0  0  0  0  0  0  0  0  0  0  0  0
   -2.6994    0.2065   -0.6194 C   0  0  0  0  0  0  0  0  0  0  0  0
   -0.9346   -0.5401    0.9043 C   0  0  0  0  0  0  0  0  0  0  0  0
    0.5209   -0.9419    0.9524 C   0  0  0  0  0  0  0  0  0  0  0  0
    2.7696    0.2267    1.3830 H   0  0  0  0  0  0  0  0  0  0  0  0
    3.3793    0.4348   -0.3302 H   0  0  0  0  0  0  0  0  0  0  0  0
    3.1058   -1.2320    0.3729 H   0  0  0  0  0  0  0  0  0  0  0  0
    1.2632   -0.7024   -1.0745 H   0  0  0  0  0  0  0  0  0  0  0  0
    1.4992    2.0669   -0.2911 H   0  0  0  0  0  0  0  0  0  0  0  0
   -0.9357    2.2628   -0.6858 H   0  0  0  0  0  0  0  0  0  0  0  0
   -0.7963   -0.7156   -1.2082 H   0  0  0  0  0  0  0  0  0  0  0  0
   -2.9879   -0.1015   -1.6285 H   0  0  0  0  0  0  0  0  0  0  0  0
   -2.8984    1.2719   -0.4003 H   0  0  0  0  0  0  0  0  0  0  0  0
   -3.2565   -0.4165    0.1144 H   0  0  0  0  0  0  0  0  0  0  0  0
   -1.6159   -1.3947    1.1234 H   0  0  0  0  0  0  0  0  0  0  0  0
   -1.0614    0.2738    1.6773 H   0  0  0  0  0  0  0  0  0  0  0  0
    0.5262   -2.0531    0.7465 H   0  0  0  0  0  0  0  0  0  0  0  0
    0.9357   -0.7915    1.9871 H   0  0  0  0  0  0  0  0  0  0  0  0
  1  2  1  0
  2  3  1  0
  3  4  2  0
  4  5  1  0
  5  6  1  0
  5  7  1  0
  7  8  1  0
  8  2  1  0
  1  9  1  0
  1 10  1  0
  1 11  1  0
  2 12  1  0
  3 13  1  0
  4 14  1  0
  5 15  1  0
  6 16  1  0
  6 17  1  0
  6 18  1  0
  7 19  1  0
  7 20  1  0
  8 21  1  0
  8 22  1  0
M  END
