
     RDKit          3D

 21 21  0  0  0  0  0  0  0  0999 V2000
   -2.0792   -0.9413    0.0056 C   0  0  0  0  0  0  0  0  0  0  0  0
   -0.6414   -0.6434    0.3302 C   0  0  0  0  0  0  0  0  0  0  0  0
    0.2764   -1.3356   -0.6147 C   0  0  0  0  0  0  0  0  0  0  0  0
    1.5647   -1.0590   -0.4794 C   0  0  0  0  0  0  0  0  0  0  0  0
    1.9608   -0.1159    0.5668 C   0  0  0  0  0  0  0  0  0  0  0  0
    3.1075   -0.1810    1.0824 O   0  0  0  0  0  0  0  0  0  0  0  0
    1.0330    0.9466    1.0576 C   0  0  0  0  0  0  0  0  0  0  0  0
   -0.3166    0.8104    0.3670 C   0  0  0  0  0  0  0  0  0  0  0  0
   -0.1936    1.4170   -1.0189 C   0  0  0  0  0  0  0  0  0  0  0  0
   -2.7190   -0.2879    0.6032 H   0  0  0  0  0  0  0  0  0  0  0  0
   -2.3006   -0.9295   -1.0771 H   0  0  0  0  0  0  0  0  0  0  0  0
   -2.2616   -1.9950    0.3567 H   0  0  0  0  0  0  0  0  0  0  0  0
   -0.4512   -1.0473    1.3674 H   0  0  0  0  0  0  0  0  0  0  0  0
   -0.0761   -2.0253   -1.3706 H   0  0  0  0  0  0  0  0  0  0  0  0
    2.3118   -1.5121   -1.1194 H   0  0  0  0  0  0  0  0  0  0  0  0
    0.8739    0.8698    2.1665 H   0  0  0  0  0  0  0  0  0  0  0  0
    1.5131    1.9186    0.8278 H   0  0  0  0  0  0  0  0  0  0  0  0
   -1.0599    1.3452    0.9834 H   0  0  0  0  0  0  0  0  0  0  0  0
   -0.6757    0.7470   -1.7417 H   0  0  0  0  0  0  0  0  0  0  0  0
    0.8510    1.6068   -1.3037 H   0  0  0  0  0  0  0  0  0  0  0  0
   -0.7174    2.4120   -0.9891 H   0  0  0  0  0  0  0  0  0  0  0  0
  1  2  1  0
  2  3  1  0
  3  4  2  0
  4  5  1  0
  5  6  2  0
  5  7  1  0
  7  8  1  0
  8  9  1  0
  8  2  1  0
  1 10  1  0
  1 11  1  0
  1 12  1  0
  2 13  1  0
  3 14  1  0
  4 15  1  0
  7 16  1  0
  7 17  1  0
  8 18  1  0
  9 19  1  0
  9 20  1  0
  9 21  1  0
M  END
