
     RDKit          3D

 21 21  0  0  0  0  0  0  0  0999 V2000
    1.7963    0.5971    0.4377 C   0  0  0  0  0  0  0  0  0  0  0  0
    0.7713    0.2229   -0.5975 C   0  0  0  0  0  0  0  0  0  0  0  0
    0.7927   -1.2941   -0.7684 C   0  0  0  0  0  0  0  0  0  0  0  0
   -0.3961   -1.7769   -1.2857 O   0  0  0  0  0  0  0  0  0  0  0  0
   -1.4340   -1.7416   -0.3283 C   0  0  0  0  0  0  0  0  0  0  0  0
   -1.2297   -0.5230    0.5178 C   0  0  0  0  0  0  0  0  0  0  0  0
   -1.5120   -0.4531    1.6824 O   0  0  0  0  0  0  0  0  0  0  0  0
   -0.6248    0.6446   -0.2238 C   0  0  0  0  0  0  0  0  0  0  0  0
   -0.6949    1.8481    0.6351 C   0  0  0  0  0  0  0  0  0  0  0  0
    2.1113    1.6578    0.3273 H   0  0  0  0  0  0  0  0  0  0  0  0
    2.6810   -0.0667    0.3057 H   0  0  0  0  0  0  0  0  0  0  0  0
    1.3779    0.4643    1.4375 H   0  0  0  0  0  0  0  0  0  0  0  0
    1.0934    0.6387   -1.5751 H   0  0  0  0  0  0  0  0  0  0  0  0
    1.0465   -1.8017    0.1901 H   0  0  0  0  0  0  0  0  0  0  0  0
    1.5970   -1.5966   -1.4821 H   0  0  0  0  0  0  0  0  0  0  0  0
   -2.3745   -1.5356   -0.9195 H   0  0  0  0  0  0  0  0  0  0  0  0
   -1.4959   -2.6590    0.2582 H   0  0  0  0  0  0  0  0  0  0  0  0
   -1.1867    0.7851   -1.1738 H   0  0  0  0  0  0  0  0  0  0  0  0
    0.2203    2.1211    1.1501 H   0  0  0  0  0  0  0  0  0  0  0  0
   -1.0315    2.7183    0.0021 H   0  0  0  0  0  0  0  0  0  0  0  0
   -1.5076    1.7504    1.4102 H   0  0  0  0  0  0  0  0  0  0  0  0
  1  2  1  0
  2  3  1  0
  3  4  1  0
  4  5  1  0
  5  6  1  0
  6  7  2  0
  6  8  1  0
  8  9  1  0
  8  2  1  0
  1 10  1  0
  1 11  1  0
  1 12  1  0
  2 13  1  0
  3 14  1  0
  3 15  1  0
  5 16  1  0
  5 17  1  0
  8 18  1  0
  9 19  1  0
  9 20  1  0
  9 21  1  0
M  END
