
     RDKit          3D

 19 20  0  0  0  0  0  0  0  0999 V2000
   -2.2593    0.8039   -0.4489 C   0  0  0  0  0  0  0  0  0  0  0  0
   -1.3657   -0.3632   -0.1579 C   0  0  0  0  0  0  0  0  0  0  0  0
   -0.7061   -0.3186    1.2343 C   0  0  0  0  0  0  0  0  0  0  0  0
    0.0791   -0.1838   -0.0170 C   0  0  0  0  0  0  0  0  0  0  0  0
    1.0830   -1.2485   -0.2778 C   0  0  0  0  0  0  0  0  0  0  0  0
    2.3686   -0.5670   -0.0180 C   0  0  0  0  0  0  0  0  0  0  0  0
    2.1873    0.7428   -0.0706 C   0  0  0  0  0  0  0  0  0  0  0  0
    0.7918    1.0394   -0.3634 C   0  0  0  0  0  0  0  0  0  0  0  0
    0.3445    2.1092   -0.8089 O   0  0  0  0  0  0  0  0  0  0  0  0
   -3.2010    0.6421    0.1530 H   0  0  0  0  0  0  0  0  0  0  0  0
   -2.5180    0.8068   -1.5284 H   0  0  0  0  0  0  0  0  0  0  0  0
   -1.8573    1.7702   -0.1016 H   0  0  0  0  0  0  0  0  0  0  0  0
   -1.7573   -1.3316   -0.5073 H   0  0  0  0  0  0  0  0  0  0  0  0
   -0.6364   -1.2881    1.7881 H   0  0  0  0  0  0  0  0  0  0  0  0
   -0.9032    0.5729    1.8633 H   0  0  0  0  0  0  0  0  0  0  0  0
    0.9504   -2.1543    0.3460 H   0  0  0  0  0  0  0  0  0  0  0  0
    1.0599   -1.4857   -1.3634 H   0  0  0  0  0  0  0  0  0  0  0  0
    3.3483   -1.0253    0.1911 H   0  0  0  0  0  0  0  0  0  0  0  0
    2.9914    1.4786    0.0874 H   0  0  0  0  0  0  0  0  0  0  0  0
  1  2  1  0
  2  3  1  0
  3  4  1  0
  4  5  1  0
  5  6  1  0
  6  7  2  0
  7  8  1  0
  8  9  2  0
  4  2  1  0
  8  4  1  0
  1 10  1  0
  1 11  1  0
  1 12  1  0
  2 13  1  0
  3 14  1  0
  3 15  1  0
  5 16  1  0
  5 17  1  0
  6 18  1  0
  7 19  1  0
M  END
