
     RDKit          3D

 23 24  0  0  0  0  0  0  0  0999 V2000
    1.5757   -1.0163   -1.1389 C   0  0  0  0  0  0  0  0  0  0  0  0
    0.8296   -0.5077    0.0709 C   0  0  0  0  0  0  0  0  0  0  0  0
    0.3135    0.8815   -0.1059 C   0  0  0  0  0  0  0  0  0  0  0  0
    0.9714    1.8997    0.7758 C   0  0  0  0  0  0  0  0  0  0  0  0
   -1.1854    0.8102    0.0867 C   0  0  0  0  0  0  0  0  0  0  0  0
   -1.9064    0.1149   -1.0393 C   0  0  0  0  0  0  0  0  0  0  0  0
   -1.5900   -0.5896    0.2067 C   0  0  0  0  0  0  0  0  0  0  0  0
   -0.3433   -1.3990    0.3982 C   0  0  0  0  0  0  0  0  0  0  0  0
   -0.2643   -1.6765    1.7812 O   0  0  0  0  0  0  0  0  0  0  0  0
    1.0470   -0.8418   -2.0877 H   0  0  0  0  0  0  0  0  0  0  0  0
    1.7068   -2.1168   -1.0478 H   0  0  0  0  0  0  0  0  0  0  0  0
    2.6045   -0.5849   -1.1448 H   0  0  0  0  0  0  0  0  0  0  0  0
    1.5790   -0.4790    0.9074 H   0  0  0  0  0  0  0  0  0  0  0  0
    0.4670    1.2295   -1.1656 H   0  0  0  0  0  0  0  0  0  0  0  0
    1.6751    1.4208    1.4920 H   0  0  0  0  0  0  0  0  0  0  0  0
    0.1996    2.4020    1.3684 H   0  0  0  0  0  0  0  0  0  0  0  0
    1.5447    2.6729    0.1983 H   0  0  0  0  0  0  0  0  0  0  0  0
   -1.6796    1.5513    0.7097 H   0  0  0  0  0  0  0  0  0  0  0  0
   -2.9424    0.4161   -1.2108 H   0  0  0  0  0  0  0  0  0  0  0  0
   -1.3349   -0.1568   -1.9589 H   0  0  0  0  0  0  0  0  0  0  0  0
   -2.4432   -0.8930    0.8614 H   0  0  0  0  0  0  0  0  0  0  0  0
   -0.3176   -2.3365   -0.1732 H   0  0  0  0  0  0  0  0  0  0  0  0
   -0.5067   -0.8011    2.2162 H   0  0  0  0  0  0  0  0  0  0  0  0
  1  2  1  0
  2  3  1  0
  3  4  1  0
  3  5  1  0
  5  6  1  0
  6  7  1  0
  7  8  1  0
  8  9  1  0
  8  2  1  0
  7  5  1  0
  1 10  1  0
  1 11  1  0
  1 12  1  0
  2 13  1  0
  3 14  1  0
  4 15  1  0
  4 16  1  0
  4 17  1  0
  5 18  1  0
  6 19  1  0
  6 20  1  0
  7 21  1  0
  8 22  1  0
  9 23  1  0
M  END
