
     RDKit          3D

 23 24  0  0  0  0  0  0  0  0999 V2000
    2.6495   -0.7172   -0.4964 C   0  0  0  0  0  0  0  0  0  0  0  0
    1.2429   -0.8281   -0.0102 C   0  0  0  0  0  0  0  0  0  0  0  0
    0.1936   -0.9115   -1.1501 C   0  0  0  0  0  0  0  0  0  0  0  0
   -0.6957   -0.2799   -0.1130 C   0  0  0  0  0  0  0  0  0  0  0  0
   -1.1737   -1.1558    0.9909 C   0  0  0  0  0  0  0  0  0  0  0  0
   -1.6239    0.8197   -0.5482 C   0  0  0  0  0  0  0  0  0  0  0  0
   -1.2644    1.9272    0.4584 C   0  0  0  0  0  0  0  0  0  0  0  0
    0.2054    1.6980    0.6385 C   0  0  0  0  0  0  0  0  0  0  0  0
    0.5700    0.4726    0.3001 C   0  0  0  0  0  0  0  0  0  0  0  0
    3.0174   -1.7152   -0.7372 H   0  0  0  0  0  0  0  0  0  0  0  0
    3.2626   -0.3095    0.3430 H   0  0  0  0  0  0  0  0  0  0  0  0
    2.7259   -0.1034   -1.4134 H   0  0  0  0  0  0  0  0  0  0  0  0
    1.0746   -1.5835    0.7498 H   0  0  0  0  0  0  0  0  0  0  0  0
   -0.0420   -1.9488   -1.4264 H   0  0  0  0  0  0  0  0  0  0  0  0
    0.3995   -0.2076   -1.9631 H   0  0  0  0  0  0  0  0  0  0  0  0
   -1.0987   -2.2353    0.7776 H   0  0  0  0  0  0  0  0  0  0  0  0
   -2.2554   -0.9145    1.1676 H   0  0  0  0  0  0  0  0  0  0  0  0
   -0.6583   -0.9023    1.9630 H   0  0  0  0  0  0  0  0  0  0  0  0
   -1.4654    1.1858   -1.5571 H   0  0  0  0  0  0  0  0  0  0  0  0
   -2.6636    0.5301   -0.2959 H   0  0  0  0  0  0  0  0  0  0  0  0
   -1.4274    2.8791   -0.0690 H   0  0  0  0  0  0  0  0  0  0  0  0
   -1.8341    1.8127    1.3799 H   0  0  0  0  0  0  0  0  0  0  0  0
    0.8611    2.4874    1.0112 H   0  0  0  0  0  0  0  0  0  0  0  0
  1  2  1  0
  2  3  1  0
  3  4  1  0
  4  5  1  0
  4  6  1  0
  6  7  1  0
  7  8  1  0
  8  9  2  0
  9  2  1  0
  9  4  1  0
  1 10  1  0
  1 11  1  0
  1 12  1  0
  2 13  1  0
  3 14  1  0
  3 15  1  0
  5 16  1  0
  5 17  1  0
  5 18  1  0
  6 19  1  0
  6 20  1  0
  7 21  1  0
  7 22  1  0
  8 23  1  0
M  END
