
     RDKit          3D

 20 21  0  0  0  0  0  0  0  0999 V2000
    1.8042   -0.8176    0.0131 C   0  0  0  0  0  0  0  0  0  0  0  0
    0.7333    0.0424    0.6161 C   0  0  0  0  0  0  0  0  0  0  0  0
   -0.6720   -0.2828    0.2401 C   0  0  0  0  0  0  0  0  0  0  0  0
   -1.4241   -1.3786    0.5428 C   0  0  0  0  0  0  0  0  0  0  0  0
   -0.9870    1.1665    0.5402 C   0  0  0  0  0  0  0  0  0  0  0  0
    0.3223    1.2219   -0.2221 C   0  0  0  0  0  0  0  0  0  0  0  0
    0.9883    2.2404   -0.5139 O   0  0  0  0  0  0  0  0  0  0  0  0
   -0.3114    0.2205   -1.1495 C   0  0  0  0  0  0  0  0  0  0  0  0
    2.6405   -1.0373    0.7125 H   0  0  0  0  0  0  0  0  0  0  0  0
    1.4071   -1.8219   -0.2952 H   0  0  0  0  0  0  0  0  0  0  0  0
    2.2589   -0.3824   -0.8975 H   0  0  0  0  0  0  0  0  0  0  0  0
    0.9425    0.2566    1.6734 H   0  0  0  0  0  0  0  0  0  0  0  0
   -1.0683   -1.9704    1.4273 H   0  0  0  0  0  0  0  0  0  0  0  0
   -1.5018   -2.1462   -0.2851 H   0  0  0  0  0  0  0  0  0  0  0  0
   -2.5070   -1.1655    0.7889 H   0  0  0  0  0  0  0  0  0  0  0  0
   -0.8828    1.4577    1.6030 H   0  0  0  0  0  0  0  0  0  0  0  0
   -1.8505    1.5934    0.0288 H   0  0  0  0  0  0  0  0  0  0  0  0
    0.9048    2.5869   -1.4209 H   0  0  0  0  0  0  0  0  0  0  0  0
    0.3620   -0.4439   -1.6978 H   0  0  0  0  0  0  0  0  0  0  0  0
   -1.1589    0.6603   -1.7041 H   0  0  0  0  0  0  0  0  0  0  0  0
  1  2  1  0
  2  3  1  0
  3  4  1  0
  3  5  1  0
  5  6  1  0
  6  7  1  0
  6  8  1  0
  6  2  1  0
  8  3  1  0
  1  9  1  0
  1 10  1  0
  1 11  1  0
  2 12  1  0
  4 13  1  0
  4 14  1  0
  4 15  1  0
  5 16  1  0
  5 17  1  0
  7 18  1  0
  8 19  1  0
  8 20  1  0
M  END
