
     RDKit          3D

 19 21  0  0  0  0  0  0  0  0999 V2000
    1.6830    0.6236    1.3929 C   0  0  0  0  0  0  0  0  0  0  0  0
    0.9881   -0.4182    0.5912 C   0  0  0  0  0  0  0  0  0  0  0  0
    0.3443    0.0290   -0.6666 C   0  0  0  0  0  0  0  0  0  0  0  0
   -0.1371   -1.0954   -1.5588 C   0  0  0  0  0  0  0  0  0  0  0  0
   -1.0838   -1.4940   -0.4356 C   0  0  0  0  0  0  0  0  0  0  0  0
   -0.4768   -0.4726    0.4612 C   0  0  0  0  0  0  0  0  0  0  0  0
   -1.3050    0.5635    0.8316 O   0  0  0  0  0  0  0  0  0  0  0  0
   -1.1048    1.6110   -0.0374 C   0  0  0  0  0  0  0  0  0  0  0  0
   -0.0701    1.3152   -0.8751 O   0  0  0  0  0  0  0  0  0  0  0  0
    1.7658    0.3866    2.4769 H   0  0  0  0  0  0  0  0  0  0  0  0
    1.1690    1.6115    1.3425 H   0  0  0  0  0  0  0  0  0  0  0  0
    2.7084    0.8197    0.9663 H   0  0  0  0  0  0  0  0  0  0  0  0
    1.5137   -1.3946    0.5471 H   0  0  0  0  0  0  0  0  0  0  0  0
   -0.6016   -0.8037   -2.4973 H   0  0  0  0  0  0  0  0  0  0  0  0
    0.6724   -1.8700   -1.6225 H   0  0  0  0  0  0  0  0  0  0  0  0
   -2.1303   -1.2616   -0.7790 H   0  0  0  0  0  0  0  0  0  0  0  0
   -0.9920   -2.5468   -0.1024 H   0  0  0  0  0  0  0  0  0  0  0  0
   -2.0201    1.8729   -0.6326 H   0  0  0  0  0  0  0  0  0  0  0  0
   -0.9232    2.5240    0.5976 H   0  0  0  0  0  0  0  0  0  0  0  0
  1  2  1  0
  2  3  1  0
  3  4  1  0
  4  5  1  0
  5  6  1  0
  6  7  1  0
  7  8  1  0
  8  9  1  0
  6  2  1  0
  6  3  1  0
  9  3  1  0
  1 10  1  0
  1 11  1  0
  1 12  1  0
  2 13  1  0
  4 14  1  0
  4 15  1  0
  5 16  1  0
  5 17  1  0
  8 18  1  0
  8 19  1  0
M  END
