
     RDKit          3D

 19 19  0  0  0  0  0  0  0  0999 V2000
    1.4939   -0.7814    0.8461 C   0  0  0  0  0  0  0  0  0  0  0  0
    0.8040   -0.0554   -0.2358 C   0  0  0  0  0  0  0  0  0  0  0  0
    0.7833    1.4498   -0.0676 C   0  0  0  0  0  0  0  0  0  0  0  0
   -0.4560    1.8860   -0.5954 O   0  0  0  0  0  0  0  0  0  0  0  0
   -1.0942    0.8117   -1.2011 C   0  0  0  0  0  0  0  0  0  0  0  0
   -1.8452    0.8671   -2.1893 O   0  0  0  0  0  0  0  0  0  0  0  0
   -0.6595   -0.3714   -0.3888 C   0  0  0  0  0  0  0  0  0  0  0  0
   -1.4188   -0.3242    0.9002 C   0  0  0  0  0  0  0  0  0  0  0  0
   -0.8867   -1.5526   -1.0684 O   0  0  0  0  0  0  0  0  0  0  0  0
    2.0283   -1.6707    0.4179 H   0  0  0  0  0  0  0  0  0  0  0  0
    2.3239   -0.1273    1.2399 H   0  0  0  0  0  0  0  0  0  0  0  0
    0.8987   -1.0800    1.7022 H   0  0  0  0  0  0  0  0  0  0  0  0
    1.2806   -0.2919   -1.2298 H   0  0  0  0  0  0  0  0  0  0  0  0
    1.5736    1.8923   -0.7139 H   0  0  0  0  0  0  0  0  0  0  0  0
    0.9237    1.7304    0.9814 H   0  0  0  0  0  0  0  0  0  0  0  0
   -0.8221    0.0140    1.7551 H   0  0  0  0  0  0  0  0  0  0  0  0
   -1.9001   -1.3238    1.0643 H   0  0  0  0  0  0  0  0  0  0  0  0
   -2.2934    0.3894    0.8423 H   0  0  0  0  0  0  0  0  0  0  0  0
   -0.7340   -1.4618   -2.0594 H   0  0  0  0  0  0  0  0  0  0  0  0
  1  2  1  0
  2  3  1  0
  3  4  1  0
  4  5  1  0
  5  6  2  0
  5  7  1  0
  7  8  1  0
  7  9  1  0
  7  2  1  0
  1 10  1  0
  1 11  1  0
  1 12  1  0
  2 13  1  0
  3 14  1  0
  3 15  1  0
  8 16  1  0
  8 17  1  0
  8 18  1  0
  9 19  1  0
M  END
