
     RDKit          3D

 25 26  0  0  0  0  0  0  0  0999 V2000
   -1.0597    1.4429   -1.1600 C   0  0  0  0  0  0  0  0  0  0  0  0
   -1.0374    0.8865    0.2475 C   0  0  0  0  0  0  0  0  0  0  0  0
   -2.1718   -0.0862    0.4882 C   0  0  0  0  0  0  0  0  0  0  0  0
   -1.4961   -1.4282    0.2854 C   0  0  0  0  0  0  0  0  0  0  0  0
   -0.1822   -1.2130    1.0270 C   0  0  0  0  0  0  0  0  0  0  0  0
    0.2268    0.1938    0.5880 C   0  0  0  0  0  0  0  0  0  0  0  0
    1.1959    0.0520   -0.5365 C   0  0  0  0  0  0  0  0  0  0  0  0
    2.4874   -0.6696   -0.1387 C   0  0  0  0  0  0  0  0  0  0  0  0
    2.4827    0.7438   -0.5964 C   0  0  0  0  0  0  0  0  0  0  0  0
   -1.9894    2.0159   -1.3082 H   0  0  0  0  0  0  0  0  0  0  0  0
   -0.1706    2.1018   -1.2524 H   0  0  0  0  0  0  0  0  0  0  0  0
   -1.0261    0.5715   -1.8479 H   0  0  0  0  0  0  0  0  0  0  0  0
   -1.2455    1.7654    0.9239 H   0  0  0  0  0  0  0  0  0  0  0  0
   -3.0244    0.0753   -0.1868 H   0  0  0  0  0  0  0  0  0  0  0  0
   -2.5418   -0.0454    1.5408 H   0  0  0  0  0  0  0  0  0  0  0  0
   -1.2782   -1.5799   -0.7863 H   0  0  0  0  0  0  0  0  0  0  0  0
   -2.0260   -2.2556    0.7607 H   0  0  0  0  0  0  0  0  0  0  0  0
    0.5588   -1.9632    0.6777 H   0  0  0  0  0  0  0  0  0  0  0  0
   -0.3308   -1.2105    2.1115 H   0  0  0  0  0  0  0  0  0  0  0  0
    0.7162    0.7141    1.4313 H   0  0  0  0  0  0  0  0  0  0  0  0
    0.7587   -0.3486   -1.4828 H   0  0  0  0  0  0  0  0  0  0  0  0
    2.8740   -1.4616   -0.7974 H   0  0  0  0  0  0  0  0  0  0  0  0
    2.6838   -0.8396    0.9368 H   0  0  0  0  0  0  0  0  0  0  0  0
    2.7328    1.5564    0.1235 H   0  0  0  0  0  0  0  0  0  0  0  0
    2.8627    0.9820   -1.6281 H   0  0  0  0  0  0  0  0  0  0  0  0
  1  2  1  0
  2  3  1  0
  3  4  1  0
  4  5  1  0
  5  6  1  0
  6  7  1  0
  7  8  1  0
  8  9  1  0
  6  2  1  0
  9  7  1  0
  1 10  1  0
  1 11  1  0
  1 12  1  0
  2 13  1  0
  3 14  1  0
  3 15  1  0
  4 16  1  0
  4 17  1  0
  5 18  1  0
  5 19  1  0
  6 20  1  0
  7 21  1  0
  8 22  1  0
  8 23  1  0
  9 24  1  0
  9 25  1  0
M  END
