
     RDKit          2D

 17 19  0  0  0  0  0  0  0  0999 V2000
   -1.9330    2.2500    0.0000 C   0  0  0  0  0  0  0  0  0  0  0  0
   -1.9330    0.7500    0.0000 C   0  0  0  0  0  0  0  0  0  0  0  0
   -1.9330   -0.7500    0.0000 C   0  0  0  0  0  0  0  0  0  0  0  0
    0.1160   -1.2990    0.0000 C   0  0  0  0  0  0  0  0  0  0  0  0
    0.6780   -2.6898    0.0000 O   0  0  0  0  0  0  0  0  0  0  0  0
    0.8660    0.0000    0.0000 C   0  0  0  0  0  0  0  0  0  0  0  0
    2.3660    0.0000    0.0000 O   0  0  0  0  0  0  0  0  0  0  0  0
   -0.4330    0.7500    0.0000 C   0  0  0  0  0  0  0  0  0  0  0  0
   -0.4330   -0.7500    0.0000 C   0  0  0  0  0  0  0  0  0  0  0  0
   -1.9330    3.7500    0.0000 H   0  0  0  0  0  0  0  0  0  0  0  0
   -3.4330    2.2500    0.0000 H   0  0  0  0  0  0  0  0  0  0  0  0
   -0.7271    2.3981    0.0000 H   0  0  0  0  0  0  0  0  0  0  0  0
   -3.4330    0.7500    0.0000 H   0  0  0  0  0  0  0  0  0  0  0  0
   -2.9937   -1.8107    0.0000 H   0  0  0  0  0  0  0  0  0  0  0  0
    3.1160    1.2990    0.0000 H   0  0  0  0  0  0  0  0  0  0  0  0
    0.0222    1.8765    0.0000 H   0  0  0  0  0  0  0  0  0  0  0  0
   -0.2243   -2.2354    0.0000 H   0  0  0  0  0  0  0  0  0  0  0  0
  1  2  1  0
  2  3  1  0
  3  4  1  0
  4  5  2  0
  4  6  1  0
  6  7  1  0
  6  8  1  0
  8  9  1  0
  8  2  1  0
  9  3  1  0
  9  6  1  0
  1 10  1  0
  1 11  1  0
  1 12  1  0
  2 13  1  0
  3 14  1  0
  7 15  1  0
  8 16  1  0
  9 17  1  0
M  END
