
     RDKit          3D

 23 23  0  0  0  0  0  0  0  0999 V2000
    2.2515    0.0961   -0.5925 C   0  0  0  0  0  0  0  0  0  0  0  0
    1.2182   -0.0292    0.5084 C   0  0  0  0  0  0  0  0  0  0  0  0
    0.5670    1.3003    0.7156 C   0  0  0  0  0  0  0  0  0  0  0  0
    0.7542    2.2534    1.4186 O   0  0  0  0  0  0  0  0  0  0  0  0
   -0.4075    0.8995   -0.3395 C   0  0  0  0  0  0  0  0  0  0  0  0
   -1.7728    1.4150   -0.0310 C   0  0  0  0  0  0  0  0  0  0  0  0
   -0.1345   -0.5333    0.0536 C   0  0  0  0  0  0  0  0  0  0  0  0
   -0.9865   -0.9654    1.2200 C   0  0  0  0  0  0  0  0  0  0  0  0
   -0.1363   -1.5384   -1.0381 C   0  0  0  0  0  0  0  0  0  0  0  0
    3.1512    0.5520   -0.1239 H   0  0  0  0  0  0  0  0  0  0  0  0
    1.9202    0.8277   -1.3711 H   0  0  0  0  0  0  0  0  0  0  0  0
    2.5557   -0.8658   -1.0184 H   0  0  0  0  0  0  0  0  0  0  0  0
    1.6200   -0.5037    1.4037 H   0  0  0  0  0  0  0  0  0  0  0  0
   -0.1154    1.1667   -1.3728 H   0  0  0  0  0  0  0  0  0  0  0  0
   -2.5157    1.0565   -0.7957 H   0  0  0  0  0  0  0  0  0  0  0  0
   -1.7418    2.5282   -0.1816 H   0  0  0  0  0  0  0  0  0  0  0  0
   -2.0904    1.2088    0.9987 H   0  0  0  0  0  0  0  0  0  0  0  0
   -0.8605   -2.0703    1.3882 H   0  0  0  0  0  0  0  0  0  0  0  0
   -0.7393   -0.4126    2.1412 H   0  0  0  0  0  0  0  0  0  0  0  0
   -2.0721   -0.8311    1.0036 H   0  0  0  0  0  0  0  0  0  0  0  0
   -0.5162   -1.1521   -2.0064 H   0  0  0  0  0  0  0  0  0  0  0  0
   -0.8128   -2.4097   -0.7935 H   0  0  0  0  0  0  0  0  0  0  0  0
    0.8636   -1.9927   -1.1871 H   0  0  0  0  0  0  0  0  0  0  0  0
  1  2  1  0
  2  3  1  0
  3  4  2  0
  3  5  1  0
  5  6  1  0
  5  7  1  0
  7  8  1  0
  7  9  1  0
  7  2  1  0
  1 10  1  0
  1 11  1  0
  1 12  1  0
  2 13  1  0
  5 14  1  0
  6 15  1  0
  6 16  1  0
  6 17  1  0
  8 18  1  0
  8 19  1  0
  8 20  1  0
  9 21  1  0
  9 22  1  0
  9 23  1  0
M  END
