
     RDKit          3D

 21 22  0  0  0  0  0  0  0  0999 V2000
    2.0096   -0.3899    0.3765 C   0  0  0  0  0  0  0  0  0  0  0  0
    0.4932   -0.3946    0.4020 C   0  0  0  0  0  0  0  0  0  0  0  0
    0.0239   -1.7330   -0.0617 C   0  0  0  0  0  0  0  0  0  0  0  0
   -1.2042   -1.7350   -0.6746 O   0  0  0  0  0  0  0  0  0  0  0  0
   -2.0748   -0.7726   -0.1919 C   0  0  0  0  0  0  0  0  0  0  0  0
   -1.5373    0.6079   -0.4862 C   0  0  0  0  0  0  0  0  0  0  0  0
   -0.6623    0.6371   -1.5690 O   0  0  0  0  0  0  0  0  0  0  0  0
   -0.0980    0.7619   -0.3221 C   0  0  0  0  0  0  0  0  0  0  0  0
    0.5068    2.1059   -0.0318 C   0  0  0  0  0  0  0  0  0  0  0  0
    2.4347   -0.6557    1.3866 H   0  0  0  0  0  0  0  0  0  0  0  0
    2.3785   -1.1390   -0.3474 H   0  0  0  0  0  0  0  0  0  0  0  0
    2.4354    0.5891    0.1258 H   0  0  0  0  0  0  0  0  0  0  0  0
    0.2136   -0.2817    1.4909 H   0  0  0  0  0  0  0  0  0  0  0  0
   -0.0586   -2.4220    0.8290 H   0  0  0  0  0  0  0  0  0  0  0  0
    0.7682   -2.2078   -0.7281 H   0  0  0  0  0  0  0  0  0  0  0  0
   -2.3599   -0.9167    0.8620 H   0  0  0  0  0  0  0  0  0  0  0  0
   -3.0267   -0.8881   -0.7805 H   0  0  0  0  0  0  0  0  0  0  0  0
   -2.1796    1.4545   -0.2527 H   0  0  0  0  0  0  0  0  0  0  0  0
   -0.1635    2.9033   -0.4685 H   0  0  0  0  0  0  0  0  0  0  0  0
    1.4814    2.2532   -0.5807 H   0  0  0  0  0  0  0  0  0  0  0  0
    0.6196    2.2234    1.0514 H   0  0  0  0  0  0  0  0  0  0  0  0
  1  2  1  0
  2  3  1  0
  3  4  1  0
  4  5  1  0
  5  6  1  0
  6  7  1  0
  7  8  1  0
  8  9  1  0
  8  2  1  0
  8  6  1  0
  1 10  1  0
  1 11  1  0
  1 12  1  0
  2 13  1  0
  3 14  1  0
  3 15  1  0
  5 16  1  0
  5 17  1  0
  6 18  1  0
  9 19  1  0
  9 20  1  0
  9 21  1  0
M  END
