
     RDKit          3D

 21 22  0  0  0  0  0  0  0  0999 V2000
    1.8091    0.9476    0.3290 C   0  0  0  0  0  0  0  0  0  0  0  0
    1.3940   -0.0319   -0.7569 C   0  0  0  0  0  0  0  0  0  0  0  0
    1.1339   -1.3597   -0.0353 C   0  0  0  0  0  0  0  0  0  0  0  0
   -0.1135   -0.9910    0.7716 C   0  0  0  0  0  0  0  0  0  0  0  0
   -0.8810   -0.0674   -0.1243 C   0  0  0  0  0  0  0  0  0  0  0  0
   -2.3356   -0.1297   -0.2783 C   0  0  0  0  0  0  0  0  0  0  0  0
   -1.6710    1.0638    0.4055 C   0  0  0  0  0  0  0  0  0  0  0  0
    0.0221    0.2753   -1.2598 C   0  0  0  0  0  0  0  0  0  0  0  0
   -0.3490    0.7035   -2.3246 O   0  0  0  0  0  0  0  0  0  0  0  0
    0.9009    1.4677    0.7059 H   0  0  0  0  0  0  0  0  0  0  0  0
    2.5969    1.6316   -0.0169 H   0  0  0  0  0  0  0  0  0  0  0  0
    2.2256    0.4108    1.2257 H   0  0  0  0  0  0  0  0  0  0  0  0
    2.1167   -0.1262   -1.5605 H   0  0  0  0  0  0  0  0  0  0  0  0
    0.9098   -2.1454   -0.7858 H   0  0  0  0  0  0  0  0  0  0  0  0
    1.9862   -1.6127    0.6202 H   0  0  0  0  0  0  0  0  0  0  0  0
    0.1614   -0.5585    1.7357 H   0  0  0  0  0  0  0  0  0  0  0  0
   -0.6867   -1.9156    0.9612 H   0  0  0  0  0  0  0  0  0  0  0  0
   -2.9047   -0.8208    0.3849 H   0  0  0  0  0  0  0  0  0  0  0  0
   -2.7700    0.0315   -1.2964 H   0  0  0  0  0  0  0  0  0  0  0  0
   -1.8381    1.2151    1.4855 H   0  0  0  0  0  0  0  0  0  0  0  0
   -1.7069    2.0119   -0.1865 H   0  0  0  0  0  0  0  0  0  0  0  0
  1  2  1  0
  2  3  1  0
  3  4  1  0
  4  5  1  0
  5  6  1  0
  6  7  1  0
  5  8  1  0
  8  9  2  0
  8  2  1  0
  7  5  1  0
  1 10  1  0
  1 11  1  0
  1 12  1  0
  2 13  1  0
  3 14  1  0
  3 15  1  0
  4 16  1  0
  4 17  1  0
  6 18  1  0
  6 19  1  0
  7 20  1  0
  7 21  1  0
M  END
