
     RDKit          3D

 15 16  0  0  0  0  0  0  0  0999 V2000
   -1.9999   -0.2673    0.1122 C   0  0  0  0  0  0  0  0  0  0  0  0
   -0.5637   -0.4660   -0.2251 C   0  0  0  0  0  0  0  0  0  0  0  0
    0.4330   -0.0570    0.8066 C   0  0  0  0  0  0  0  0  0  0  0  0
    0.1149    1.2589    0.4966 O   0  0  0  0  0  0  0  0  0  0  0  0
    0.1916    0.6920   -0.7660 C   0  0  0  0  0  0  0  0  0  0  0  0
    1.4535    0.0303   -0.2823 C   0  0  0  0  0  0  0  0  0  0  0  0
    2.5351    0.8451   -0.0635 O   0  0  0  0  0  0  0  0  0  0  0  0
   -2.6329   -0.8265   -0.6124 H   0  0  0  0  0  0  0  0  0  0  0  0
   -2.1816   -0.7719    1.1027 H   0  0  0  0  0  0  0  0  0  0  0  0
   -2.3161    0.7747    0.2206 H   0  0  0  0  0  0  0  0  0  0  0  0
   -0.3838   -1.4005   -0.7700 H   0  0  0  0  0  0  0  0  0  0  0  0
    0.5568   -0.4422    1.7296 H   0  0  0  0  0  0  0  0  0  0  0  0
    0.0682    1.1637   -1.6478 H   0  0  0  0  0  0  0  0  0  0  0  0
    1.6362   -0.9438   -0.7531 H   0  0  0  0  0  0  0  0  0  0  0  0
    3.0887    0.4105    0.6518 H   0  0  0  0  0  0  0  0  0  0  0  0
  1  2  1  0
  2  3  1  0
  3  4  1  0
  4  5  1  0
  5  6  1  0
  6  7  1  0
  5  2  1  0
  6  3  1  0
  1  8  1  0
  1  9  1  0
  1 10  1  0
  2 11  1  0
  3 12  1  0
  5 13  1  0
  6 14  1  0
  7 15  1  0
M  END
