
     RDKit          3D

 17 19  0  0  0  0  0  0  0  0999 V2000
    2.3691   -0.6289    0.9225 C   0  0  0  0  0  0  0  0  0  0  0  0
    0.9868   -0.0275    1.0440 C   0  0  0  0  0  0  0  0  0  0  0  0
    0.5786    0.8777   -0.0364 C   0  0  0  0  0  0  0  0  0  0  0  0
   -0.7805    1.4615    0.0689 C   0  0  0  0  0  0  0  0  0  0  0  0
   -1.1760    2.5900    0.2296 O   0  0  0  0  0  0  0  0  0  0  0  0
   -1.3458    0.1456   -0.0987 C   0  0  0  0  0  0  0  0  0  0  0  0
   -2.6035   -0.3290   -0.3000 C   0  0  0  0  0  0  0  0  0  0  0  0
   -1.9005   -0.0303   -1.4654 O   0  0  0  0  0  0  0  0  0  0  0  0
   -0.0512   -0.5465    0.1228 C   0  0  0  0  0  0  0  0  0  0  0  0
    2.3147   -1.5330    0.2935 H   0  0  0  0  0  0  0  0  0  0  0  0
    2.8384   -0.8249    1.9074 H   0  0  0  0  0  0  0  0  0  0  0  0
    3.0648    0.0813    0.3989 H   0  0  0  0  0  0  0  0  0  0  0  0
    0.6442    0.2412    2.0675 H   0  0  0  0  0  0  0  0  0  0  0  0
    1.1538    0.9993   -0.9727 H   0  0  0  0  0  0  0  0  0  0  0  0
   -3.5250    0.2575   -0.0562 H   0  0  0  0  0  0  0  0  0  0  0  0
   -2.8184   -1.4340   -0.2039 H   0  0  0  0  0  0  0  0  0  0  0  0
    0.2505   -1.3000   -0.6038 H   0  0  0  0  0  0  0  0  0  0  0  0
  1  2  1  0
  2  3  1  0
  3  4  1  0
  4  5  2  0
  4  6  1  0
  6  7  1  0
  7  8  1  0
  6  9  1  0
  9  2  1  0
  9  3  1  0
  8  6  1  0
  1 10  1  0
  1 11  1  0
  1 12  1  0
  2 13  1  0
  3 14  1  0
  7 15  1  0
  7 16  1  0
  9 17  1  0
M  END
