
     RDKit          3D

 23 24  0  0  0  0  0  0  0  0999 V2000
   -2.5027    0.3041    0.7003 C   0  0  0  0  0  0  0  0  0  0  0  0
   -1.4727    0.9831   -0.1918 C   0  0  0  0  0  0  0  0  0  0  0  0
   -1.1843   -0.0410   -1.3018 C   0  0  0  0  0  0  0  0  0  0  0  0
   -0.3158   -0.9909   -0.4538 C   0  0  0  0  0  0  0  0  0  0  0  0
    0.5302    0.0706    0.2226 C   0  0  0  0  0  0  0  0  0  0  0  0
    1.4584   -0.3899    1.2758 C   0  0  0  0  0  0  0  0  0  0  0  0
    2.6326   -0.1972    0.3260 C   0  0  0  0  0  0  0  0  0  0  0  0
    1.7013    0.4254   -0.6884 C   0  0  0  0  0  0  0  0  0  0  0  0
   -0.2682    1.1526    0.4699 O   0  0  0  0  0  0  0  0  0  0  0  0
   -3.0468   -0.5027    0.1724 H   0  0  0  0  0  0  0  0  0  0  0  0
   -2.0060   -0.1863    1.5758 H   0  0  0  0  0  0  0  0  0  0  0  0
   -3.2664    1.0134    1.0636 H   0  0  0  0  0  0  0  0  0  0  0  0
   -1.8459    1.9278   -0.6048 H   0  0  0  0  0  0  0  0  0  0  0  0
   -0.5332    0.3940   -2.0677 H   0  0  0  0  0  0  0  0  0  0  0  0
   -2.0887   -0.5261   -1.6622 H   0  0  0  0  0  0  0  0  0  0  0  0
    0.2467   -1.6590   -1.0991 H   0  0  0  0  0  0  0  0  0  0  0  0
   -0.9707   -1.5006    0.2858 H   0  0  0  0  0  0  0  0  0  0  0  0
    1.3591   -1.4032    1.6712 H   0  0  0  0  0  0  0  0  0  0  0  0
    1.5451    0.3679    2.1087 H   0  0  0  0  0  0  0  0  0  0  0  0
    3.3740    0.5474    0.6511 H   0  0  0  0  0  0  0  0  0  0  0  0
    3.0917   -1.1610    0.0214 H   0  0  0  0  0  0  0  0  0  0  0  0
    1.8141    1.5087   -0.8450 H   0  0  0  0  0  0  0  0  0  0  0  0
    1.7482   -0.1371   -1.6300 H   0  0  0  0  0  0  0  0  0  0  0  0
  1  2  1  0
  2  3  1  0
  3  4  1  0
  4  5  1  0
  5  6  1  0
  6  7  1  0
  7  8  1  0
  5  9  1  0
  9  2  1  0
  8  5  1  0
  1 10  1  0
  1 11  1  0
  1 12  1  0
  2 13  1  0
  3 14  1  0
  3 15  1  0
  4 16  1  0
  4 17  1  0
  6 18  1  0
  6 19  1  0
  7 20  1  0
  7 21  1  0
  8 22  1  0
  8 23  1  0
M  END
