
     RDKit          3D

 21 22  0  0  0  0  0  0  0  0999 V2000
   -1.3913   -1.5063    0.2882 C   0  0  0  0  0  0  0  0  0  0  0  0
   -0.7336   -0.6502   -0.7467 C   0  0  0  0  0  0  0  0  0  0  0  0
   -0.7390    0.8325   -0.4932 C   0  0  0  0  0  0  0  0  0  0  0  0
   -1.5734    1.2962    0.6663 C   0  0  0  0  0  0  0  0  0  0  0  0
    0.7364    0.8863   -0.3021 C   0  0  0  0  0  0  0  0  0  0  0  0
    1.4841   -0.1098    0.4937 C   0  0  0  0  0  0  0  0  0  0  0  0
    2.9619   -0.0474    0.3490 C   0  0  0  0  0  0  0  0  0  0  0  0
    3.5132    0.2844   -0.6861 O   0  0  0  0  0  0  0  0  0  0  0  0
    0.7674   -0.6037   -0.7085 C   0  0  0  0  0  0  0  0  0  0  0  0
   -1.1322   -2.5652    0.0589 H   0  0  0  0  0  0  0  0  0  0  0  0
   -2.4931   -1.4157    0.1419 H   0  0  0  0  0  0  0  0  0  0  0  0
   -1.1666   -1.2441    1.3182 H   0  0  0  0  0  0  0  0  0  0  0  0
   -1.0832   -0.9613   -1.7651 H   0  0  0  0  0  0  0  0  0  0  0  0
   -1.0819    1.3617   -1.4227 H   0  0  0  0  0  0  0  0  0  0  0  0
   -1.3679    2.3899    0.7917 H   0  0  0  0  0  0  0  0  0  0  0  0
   -2.6438    1.2482    0.3243 H   0  0  0  0  0  0  0  0  0  0  0  0
   -1.3936    0.7635    1.6002 H   0  0  0  0  0  0  0  0  0  0  0  0
    1.2791    1.5928   -0.9565 H   0  0  0  0  0  0  0  0  0  0  0  0
    1.1366   -0.4286    1.4951 H   0  0  0  0  0  0  0  0  0  0  0  0
    3.5900   -0.3043    1.1888 H   0  0  0  0  0  0  0  0  0  0  0  0
    1.3310   -0.8189   -1.6356 H   0  0  0  0  0  0  0  0  0  0  0  0
  1  2  1  0
  2  3  1  0
  3  4  1  0
  3  5  1  0
  5  6  1  0
  6  7  1  0
  7  8  2  0
  6  9  1  0
  9  2  1  0
  9  5  1  0
  1 10  1  0
  1 11  1  0
  1 12  1  0
  2 13  1  0
  3 14  1  0
  4 15  1  0
  4 16  1  0
  4 17  1  0
  5 18  1  0
  6 19  1  0
  7 20  1  0
  9 21  1  0
M  END
