
     RDKit          3D

 21 22  0  0  0  0  0  0  0  0999 V2000
   -2.5194    0.1300    0.3277 C   0  0  0  0  0  0  0  0  0  0  0  0
   -1.2960    0.0321   -0.5647 C   0  0  0  0  0  0  0  0  0  0  0  0
   -0.3697    1.1960   -0.3264 C   0  0  0  0  0  0  0  0  0  0  0  0
    1.0273    0.6571   -0.4578 C   0  0  0  0  0  0  0  0  0  0  0  0
    1.7943    1.1148    0.6371 O   0  0  0  0  0  0  0  0  0  0  0  0
    2.6042   -0.0031    0.8453 C   0  0  0  0  0  0  0  0  0  0  0  0
    1.6208   -1.0050    0.9946 O   0  0  0  0  0  0  0  0  0  0  0  0
    0.9330   -0.8330   -0.2139 C   0  0  0  0  0  0  0  0  0  0  0  0
   -0.5109   -1.1885   -0.1259 C   0  0  0  0  0  0  0  0  0  0  0  0
   -2.4010    0.9680    1.0601 H   0  0  0  0  0  0  0  0  0  0  0  0
   -3.4335    0.2539   -0.2773 H   0  0  0  0  0  0  0  0  0  0  0  0
   -2.6637   -0.7809    0.9422 H   0  0  0  0  0  0  0  0  0  0  0  0
   -1.5608   -0.0064   -1.6392 H   0  0  0  0  0  0  0  0  0  0  0  0
   -0.4827    2.0079   -1.0673 H   0  0  0  0  0  0  0  0  0  0  0  0
   -0.5698    1.6356    0.6724 H   0  0  0  0  0  0  0  0  0  0  0  0
    1.5110    0.8810   -1.4132 H   0  0  0  0  0  0  0  0  0  0  0  0
    3.2705    0.0743    1.6906 H   0  0  0  0  0  0  0  0  0  0  0  0
    3.0981   -0.2089   -0.1315 H   0  0  0  0  0  0  0  0  0  0  0  0
    1.4773   -1.4298   -0.9666 H   0  0  0  0  0  0  0  0  0  0  0  0
   -0.8026   -1.5074    0.8972 H   0  0  0  0  0  0  0  0  0  0  0  0
   -0.7262   -1.9877   -0.8832 H   0  0  0  0  0  0  0  0  0  0  0  0
  1  2  1  0
  2  3  1  0
  3  4  1  0
  4  5  1  0
  5  6  1  0
  6  7  1  0
  7  8  1  0
  8  9  1  0
  9  2  1  0
  8  4  1  0
  1 10  1  0
  1 11  1  0
  1 12  1  0
  2 13  1  0
  3 14  1  0
  3 15  1  0
  4 16  1  0
  6 17  1  0
  6 18  1  0
  8 19  1  0
  9 20  1  0
  9 21  1  0
M  END
