
     RDKit          3D

 21 23  0  0  0  0  0  0  0  0999 V2000
    2.2158    0.3437    0.5860 C   0  0  0  0  0  0  0  0  0  0  0  0
    1.0170   -0.4759    0.2447 C   0  0  0  0  0  0  0  0  0  0  0  0
    0.7323   -0.4922   -1.2244 C   0  0  0  0  0  0  0  0  0  0  0  0
   -0.7289   -0.2009   -1.4077 C   0  0  0  0  0  0  0  0  0  0  0  0
   -1.3394    0.0098   -0.0674 C   0  0  0  0  0  0  0  0  0  0  0  0
   -1.6187    1.4164    0.4334 C   0  0  0  0  0  0  0  0  0  0  0  0
   -0.4643    1.2922    1.2214 O   0  0  0  0  0  0  0  0  0  0  0  0
   -0.2434   -0.0286    0.9453 C   0  0  0  0  0  0  0  0  0  0  0  0
   -1.3336   -1.0275    0.9903 C   0  0  0  0  0  0  0  0  0  0  0  0
    2.0370    1.1493    1.3087 H   0  0  0  0  0  0  0  0  0  0  0  0
    2.6691    0.8015   -0.3311 H   0  0  0  0  0  0  0  0  0  0  0  0
    3.0393   -0.2954    1.0116 H   0  0  0  0  0  0  0  0  0  0  0  0
    1.2001   -1.5330    0.6005 H   0  0  0  0  0  0  0  0  0  0  0  0
    0.9662   -1.5093   -1.6415 H   0  0  0  0  0  0  0  0  0  0  0  0
    1.3545    0.2416   -1.7893 H   0  0  0  0  0  0  0  0  0  0  0  0
   -0.9033    0.7153   -2.0184 H   0  0  0  0  0  0  0  0  0  0  0  0
   -1.2278   -1.0276   -1.9818 H   0  0  0  0  0  0  0  0  0  0  0  0
   -1.5688    2.1293   -0.3847 H   0  0  0  0  0  0  0  0  0  0  0  0
   -2.5220    1.4943    1.0966 H   0  0  0  0  0  0  0  0  0  0  0  0
   -2.1570   -0.9572    1.7391 H   0  0  0  0  0  0  0  0  0  0  0  0
   -1.1239   -2.0458    0.6687 H   0  0  0  0  0  0  0  0  0  0  0  0
  1  2  1  0
  2  3  1  0
  3  4  1  0
  4  5  1  0
  5  6  1  0
  6  7  1  0
  7  8  1  0
  8  9  1  0
  8  2  1  0
  8  5  1  0
  9  5  1  0
  1 10  1  0
  1 11  1  0
  1 12  1  0
  2 13  1  0
  3 14  1  0
  3 15  1  0
  4 16  1  0
  4 17  1  0
  6 18  1  0
  6 19  1  0
  9 20  1  0
  9 21  1  0
M  END
