
     RDKit          3D

 21 23  0  0  0  0  0  0  0  0999 V2000
    2.3340    0.1436   -0.3144 C   0  0  0  0  0  0  0  0  0  0  0  0
    0.9427   -0.3374   -0.7330 C   0  0  0  0  0  0  0  0  0  0  0  0
    0.1938   -0.7480    0.5379 C   0  0  0  0  0  0  0  0  0  0  0  0
   -1.0588   -1.5350    0.1777 C   0  0  0  0  0  0  0  0  0  0  0  0
   -2.1001   -0.4995   -0.1720 C   0  0  0  0  0  0  0  0  0  0  0  0
   -1.3405    0.8303   -0.2702 C   0  0  0  0  0  0  0  0  0  0  0  0
    0.0206    0.8341   -0.8376 C   0  0  0  0  0  0  0  0  0  0  0  0
   -0.2485    0.6728    0.6562 C   0  0  0  0  0  0  0  0  0  0  0  0
    0.2236    1.5464    1.5574 O   0  0  0  0  0  0  0  0  0  0  0  0
    2.3104    1.1816    0.0624 H   0  0  0  0  0  0  0  0  0  0  0  0
    2.6604   -0.5022    0.5233 H   0  0  0  0  0  0  0  0  0  0  0  0
    3.0465    0.1252   -1.1556 H   0  0  0  0  0  0  0  0  0  0  0  0
    0.9339   -1.0724   -1.5371 H   0  0  0  0  0  0  0  0  0  0  0  0
    0.8099   -1.1673    1.3292 H   0  0  0  0  0  0  0  0  0  0  0  0
   -1.3519   -2.1862    1.0151 H   0  0  0  0  0  0  0  0  0  0  0  0
   -0.8079   -2.1264   -0.7340 H   0  0  0  0  0  0  0  0  0  0  0  0
   -2.8234   -0.4789    0.6762 H   0  0  0  0  0  0  0  0  0  0  0  0
   -2.5898   -0.6574   -1.1283 H   0  0  0  0  0  0  0  0  0  0  0  0
   -1.9585    1.7019   -0.4350 H   0  0  0  0  0  0  0  0  0  0  0  0
    0.4032    1.8085   -1.2046 H   0  0  0  0  0  0  0  0  0  0  0  0
    0.4005    2.4664    1.2478 H   0  0  0  0  0  0  0  0  0  0  0  0
  1  2  1  0
  2  3  1  0
  3  4  1  0
  4  5  1  0
  5  6  1  0
  6  7  1  0
  7  8  1  0
  8  9  1  0
  7  2  1  0
  8  3  1  0
  8  6  1  0
  1 10  1  0
  1 11  1  0
  1 12  1  0
  2 13  1  0
  3 14  1  0
  4 15  1  0
  4 16  1  0
  5 17  1  0
  5 18  1  0
  6 19  1  0
  7 20  1  0
  9 21  1  0
M  END
