
     RDKit          3D

 22 23  0  0  0  0  0  0  0  0999 V2000
   -1.6619   -1.3782    0.2024 C   0  0  0  0  0  0  0  0  0  0  0  0
   -1.3747    0.0761   -0.0140 C   0  0  0  0  0  0  0  0  0  0  0  0
   -0.9039    0.5572   -1.3582 C   0  0  0  0  0  0  0  0  0  0  0  0
   -0.0902    0.7141   -0.0653 C   0  0  0  0  0  0  0  0  0  0  0  0
   -0.0479    2.1522    0.5049 C   0  0  0  0  0  0  0  0  0  0  0  0
    1.2573    0.1387   -0.1592 C   0  0  0  0  0  0  0  0  0  0  0  0
    1.7218   -0.7393    0.9587 C   0  0  0  0  0  0  0  0  0  0  0  0
    1.5857   -1.2604   -0.4400 C   0  0  0  0  0  0  0  0  0  0  0  0
   -1.1138   -1.7139    1.0999 H   0  0  0  0  0  0  0  0  0  0  0  0
   -1.5218   -2.0070   -0.6969 H   0  0  0  0  0  0  0  0  0  0  0  0
   -2.7440   -1.5686    0.4768 H   0  0  0  0  0  0  0  0  0  0  0  0
   -2.2478    0.7104    0.3398 H   0  0  0  0  0  0  0  0  0  0  0  0
   -0.6234   -0.2496   -2.0547 H   0  0  0  0  0  0  0  0  0  0  0  0
   -1.2550    1.4833   -1.8024 H   0  0  0  0  0  0  0  0  0  0  0  0
   -0.1717    2.0195    1.6024 H   0  0  0  0  0  0  0  0  0  0  0  0
   -0.9584    2.6765    0.1537 H   0  0  0  0  0  0  0  0  0  0  0  0
    0.8904    2.6459    0.2571 H   0  0  0  0  0  0  0  0  0  0  0  0
    2.0163    0.8818   -0.5596 H   0  0  0  0  0  0  0  0  0  0  0  0
    1.0656   -1.0746    1.7630 H   0  0  0  0  0  0  0  0  0  0  0  0
    2.7596   -0.5198    1.3483 H   0  0  0  0  0  0  0  0  0  0  0  0
    2.5597   -1.4809   -0.9293 H   0  0  0  0  0  0  0  0  0  0  0  0
    0.8584   -2.0637   -0.6276 H   0  0  0  0  0  0  0  0  0  0  0  0
  1  2  1  0
  2  3  1  0
  3  4  1  0
  4  5  1  0
  4  6  1  0
  6  7  1  0
  7  8  1  0
  4  2  1  0
  8  6  1  0
  1  9  1  0
  1 10  1  0
  1 11  1  0
  2 12  1  0
  3 13  1  0
  3 14  1  0
  5 15  1  0
  5 16  1  0
  5 17  1  0
  6 18  1  0
  7 19  1  0
  7 20  1  0
  8 21  1  0
  8 22  1  0
M  END
