
     RDKit          3D

 21 23  0  0  0  0  0  0  0  0999 V2000
    2.2311    0.0303    0.1212 C   0  0  0  0  0  0  0  0  0  0  0  0
    0.9068   -0.5319   -0.2072 C   0  0  0  0  0  0  0  0  0  0  0  0
   -0.0666   -0.7571    0.9074 C   0  0  0  0  0  0  0  0  0  0  0  0
   -0.1616    0.7535    0.9984 C   0  0  0  0  0  0  0  0  0  0  0  0
   -0.2055    0.4547   -0.4823 C   0  0  0  0  0  0  0  0  0  0  0  0
   -0.2567    1.3686   -1.5030 C   0  0  0  0  0  0  0  0  0  0  0  0
   -1.1195   -0.6413   -0.1224 C   0  0  0  0  0  0  0  0  0  0  0  0
   -1.9062   -1.5029   -0.7865 C   0  0  0  0  0  0  0  0  0  0  0  0
   -2.4372   -0.4877    0.1944 O   0  0  0  0  0  0  0  0  0  0  0  0
    2.3807    0.9858   -0.4637 H   0  0  0  0  0  0  0  0  0  0  0  0
    2.4379    0.1709    1.1973 H   0  0  0  0  0  0  0  0  0  0  0  0
    3.0175   -0.7005   -0.2298 H   0  0  0  0  0  0  0  0  0  0  0  0
    0.9253   -1.3806   -0.9197 H   0  0  0  0  0  0  0  0  0  0  0  0
    0.0138   -1.3859    1.6813 H   0  0  0  0  0  0  0  0  0  0  0  0
   -1.1494    1.1182    1.3305 H   0  0  0  0  0  0  0  0  0  0  0  0
    0.7145    1.2722    1.3728 H   0  0  0  0  0  0  0  0  0  0  0  0
    0.3685    1.0945   -2.3875 H   0  0  0  0  0  0  0  0  0  0  0  0
    0.1341    2.3855   -1.2005 H   0  0  0  0  0  0  0  0  0  0  0  0
   -1.2803    1.5703   -1.8832 H   0  0  0  0  0  0  0  0  0  0  0  0
   -2.1419   -2.5420   -0.4427 H   0  0  0  0  0  0  0  0  0  0  0  0
   -2.4053   -1.2750   -1.7493 H   0  0  0  0  0  0  0  0  0  0  0  0
  1  2  1  0
  2  3  1  0
  3  4  1  0
  4  5  1  0
  5  6  1  0
  5  7  1  0
  7  8  1  0
  8  9  1  0
  5  2  1  0
  9  7  1  0
  7  3  1  0
  1 10  1  0
  1 11  1  0
  1 12  1  0
  2 13  1  0
  3 14  1  0
  4 15  1  0
  4 16  1  0
  6 17  1  0
  6 18  1  0
  6 19  1  0
  8 20  1  0
  8 21  1  0
M  END
