
     RDKit          3D

 21 21  0  0  0  0  0  0  0  0999 V2000
   -2.6735    0.0733   -0.6524 C   0  0  0  0  0  0  0  0  0  0  0  0
   -1.5132   -0.6236    0.0323 C   0  0  0  0  0  0  0  0  0  0  0  0
   -0.8546    0.4231    0.9128 C   0  0  0  0  0  0  0  0  0  0  0  0
    0.5739    0.0329    1.1246 C   0  0  0  0  0  0  0  0  0  0  0  0
    1.2465    0.2621   -0.2365 C   0  0  0  0  0  0  0  0  0  0  0  0
    2.7352    0.2078   -0.1275 C   0  0  0  0  0  0  0  0  0  0  0  0
    0.6773   -0.7934   -1.0993 C   0  0  0  0  0  0  0  0  0  0  0  0
    1.4056   -1.2707   -1.9895 O   0  0  0  0  0  0  0  0  0  0  0  0
   -0.6193   -1.1988   -0.8837 O   0  0  0  0  0  0  0  0  0  0  0  0
   -2.2581    0.9548   -1.2216 H   0  0  0  0  0  0  0  0  0  0  0  0
   -3.2544   -0.5943   -1.2972 H   0  0  0  0  0  0  0  0  0  0  0  0
   -3.2972    0.5099    0.1551 H   0  0  0  0  0  0  0  0  0  0  0  0
   -1.9162   -1.4042    0.7062 H   0  0  0  0  0  0  0  0  0  0  0  0
   -1.3995    0.5491    1.8739 H   0  0  0  0  0  0  0  0  0  0  0  0
   -0.8648    1.3965    0.3784 H   0  0  0  0  0  0  0  0  0  0  0  0
    1.0813    0.5722    1.9305 H   0  0  0  0  0  0  0  0  0  0  0  0
    0.6164   -1.0545    1.3532 H   0  0  0  0  0  0  0  0  0  0  0  0
    0.8945    1.2420   -0.6708 H   0  0  0  0  0  0  0  0  0  0  0  0
    3.0936   -0.1263    0.8763 H   0  0  0  0  0  0  0  0  0  0  0  0
    3.2163   -0.4227   -0.9128 H   0  0  0  0  0  0  0  0  0  0  0  0
    3.1103    1.2647   -0.2522 H   0  0  0  0  0  0  0  0  0  0  0  0
  1  2  1  0
  2  3  1  0
  3  4  1  0
  4  5  1  0
  5  6  1  0
  5  7  1  0
  7  8  2  0
  7  9  1  0
  9  2  1  0
  1 10  1  0
  1 11  1  0
  1 12  1  0
  2 13  1  0
  3 14  1  0
  3 15  1  0
  4 16  1  0
  4 17  1  0
  5 18  1  0
  6 19  1  0
  6 20  1  0
  6 21  1  0
M  END
