
     RDKit          3D

 23 23  0  0  0  0  0  0  0  0999 V2000
    2.4990    0.7937   -0.1451 C   0  0  0  0  0  0  0  0  0  0  0  0
    1.3176    0.0101    0.3622 C   0  0  0  0  0  0  0  0  0  0  0  0
    1.1364   -1.3104   -0.3863 C   0  0  0  0  0  0  0  0  0  0  0  0
   -0.0603   -1.9519    0.2688 C   0  0  0  0  0  0  0  0  0  0  0  0
   -1.1535   -1.2120    0.3678 C   0  0  0  0  0  0  0  0  0  0  0  0
   -1.1583    0.1522   -0.1453 C   0  0  0  0  0  0  0  0  0  0  0  0
   -2.3190    0.9743    0.3802 C   0  0  0  0  0  0  0  0  0  0  0  0
   -1.3353    0.0963   -1.5482 O   0  0  0  0  0  0  0  0  0  0  0  0
    0.0963    0.8722    0.1706 C   0  0  0  0  0  0  0  0  0  0  0  0
    2.5309    0.6847   -1.2429 H   0  0  0  0  0  0  0  0  0  0  0  0
    2.2991    1.8763    0.0778 H   0  0  0  0  0  0  0  0  0  0  0  0
    3.4481    0.5222    0.3415 H   0  0  0  0  0  0  0  0  0  0  0  0
    1.4371   -0.2777    1.4303 H   0  0  0  0  0  0  0  0  0  0  0  0
    0.9473   -1.1170   -1.4531 H   0  0  0  0  0  0  0  0  0  0  0  0
    2.0485   -1.9066   -0.2162 H   0  0  0  0  0  0  0  0  0  0  0  0
    0.0437   -2.9661    0.6150 H   0  0  0  0  0  0  0  0  0  0  0  0
   -2.0177   -1.6806    0.8435 H   0  0  0  0  0  0  0  0  0  0  0  0
   -3.2639    0.3737    0.3813 H   0  0  0  0  0  0  0  0  0  0  0  0
   -2.1192    1.3500    1.4141 H   0  0  0  0  0  0  0  0  0  0  0  0
   -2.4651    1.8438   -0.2918 H   0  0  0  0  0  0  0  0  0  0  0  0
   -2.2796   -0.1896   -1.6685 H   0  0  0  0  0  0  0  0  0  0  0  0
    0.3473    1.5764   -0.6731 H   0  0  0  0  0  0  0  0  0  0  0  0
    0.0207    1.4860    1.1172 H   0  0  0  0  0  0  0  0  0  0  0  0
  1  2  1  0
  2  3  1  0
  3  4  1  0
  4  5  2  0
  5  6  1  0
  6  7  1  0
  6  8  1  0
  6  9  1  0
  9  2  1  0
  1 10  1  0
  1 11  1  0
  1 12  1  0
  2 13  1  0
  3 14  1  0
  3 15  1  0
  4 16  1  0
  5 17  1  0
  7 18  1  0
  7 19  1  0
  7 20  1  0
  8 21  1  0
  9 22  1  0
  9 23  1  0
M  END
