
     RDKit          3D

 21 21  0  0  0  0  0  0  0  0999 V2000
   -2.4332   -0.0639    1.0249 C   0  0  0  0  0  0  0  0  0  0  0  0
   -1.7795   -0.2273   -0.3379 C   0  0  0  0  0  0  0  0  0  0  0  0
   -0.5049   -1.0488   -0.2993 C   0  0  0  0  0  0  0  0  0  0  0  0
    0.1734    0.2662    0.0990 C   0  0  0  0  0  0  0  0  0  0  0  0
    1.5154    0.4768   -0.5220 C   0  0  0  0  0  0  0  0  0  0  0  0
    2.5122   -0.5927   -0.1671 C   0  0  0  0  0  0  0  0  0  0  0  0
    1.9929    1.7092   -0.1382 O   0  0  0  0  0  0  0  0  0  0  0  0
   -0.9258    0.9567   -0.6253 C   0  0  0  0  0  0  0  0  0  0  0  0
   -1.1212    2.0031   -1.2104 O   0  0  0  0  0  0  0  0  0  0  0  0
   -3.4658    0.3067    0.8757 H   0  0  0  0  0  0  0  0  0  0  0  0
   -2.5076   -1.0355    1.5587 H   0  0  0  0  0  0  0  0  0  0  0  0
   -1.8788    0.6218    1.6739 H   0  0  0  0  0  0  0  0  0  0  0  0
   -2.4602   -0.5445   -1.1285 H   0  0  0  0  0  0  0  0  0  0  0  0
   -0.2012   -1.2948   -1.3296 H   0  0  0  0  0  0  0  0  0  0  0  0
   -0.4619   -1.8387    0.4482 H   0  0  0  0  0  0  0  0  0  0  0  0
    0.1165    0.4047    1.1978 H   0  0  0  0  0  0  0  0  0  0  0  0
    1.3897    0.4722   -1.6234 H   0  0  0  0  0  0  0  0  0  0  0  0
    3.3756   -0.4912   -0.8608 H   0  0  0  0  0  0  0  0  0  0  0  0
    2.9167   -0.3773    0.8589 H   0  0  0  0  0  0  0  0  0  0  0  0
    2.0887   -1.5967   -0.2610 H   0  0  0  0  0  0  0  0  0  0  0  0
    1.6589    1.8942    0.7662 H   0  0  0  0  0  0  0  0  0  0  0  0
  1  2  1  0
  2  3  1  0
  3  4  1  0
  4  5  1  0
  5  6  1  0
  5  7  1  0
  4  8  1  0
  8  9  2  0
  8  2  1  0
  1 10  1  0
  1 11  1  0
  1 12  1  0
  2 13  1  0
  3 14  1  0
  3 15  1  0
  4 16  1  0
  5 17  1  0
  6 18  1  0
  6 19  1  0
  6 20  1  0
  7 21  1  0
M  END
