
     RDKit          3D

 20 21  0  0  0  0  0  0  0  0999 V2000
   -1.1613    0.8507   -1.1089 C   0  0  0  0  0  0  0  0  0  0  0  0
   -0.5672    0.9150    0.2543 C   0  0  0  0  0  0  0  0  0  0  0  0
   -1.2001   -0.2165    1.0949 C   0  0  0  0  0  0  0  0  0  0  0  0
   -0.1511   -1.3495    1.0589 C   0  0  0  0  0  0  0  0  0  0  0  0
    0.5790   -0.9564   -0.1651 C   0  0  0  0  0  0  0  0  0  0  0  0
    1.7349   -0.2118   -0.4443 C   0  0  0  0  0  0  0  0  0  0  0  0
    1.9681    0.2687   -1.7521 O   0  0  0  0  0  0  0  0  0  0  0  0
    0.8480    0.5129    0.3622 C   0  0  0  0  0  0  0  0  0  0  0  0
   -1.9174    0.0189   -1.2135 H   0  0  0  0  0  0  0  0  0  0  0  0
   -1.7674    1.7821   -1.3068 H   0  0  0  0  0  0  0  0  0  0  0  0
   -0.4051    0.8187   -1.9176 H   0  0  0  0  0  0  0  0  0  0  0  0
   -0.7620    1.8564    0.7984 H   0  0  0  0  0  0  0  0  0  0  0  0
   -1.3435    0.1346    2.1332 H   0  0  0  0  0  0  0  0  0  0  0  0
   -2.1504   -0.5452    0.6772 H   0  0  0  0  0  0  0  0  0  0  0  0
    0.4597   -1.3094    1.9788 H   0  0  0  0  0  0  0  0  0  0  0  0
   -0.6756   -2.3165    0.9217 H   0  0  0  0  0  0  0  0  0  0  0  0
   -0.1500   -1.0292   -1.0328 H   0  0  0  0  0  0  0  0  0  0  0  0
    2.7135   -0.5785   -0.0221 H   0  0  0  0  0  0  0  0  0  0  0  0
    2.7987    0.7714   -1.7726 H   0  0  0  0  0  0  0  0  0  0  0  0
    1.1492    0.5835    1.4561 H   0  0  0  0  0  0  0  0  0  0  0  0
  1  2  1  0
  2  3  1  0
  3  4  1  0
  4  5  1  0
  5  6  1  0
  6  7  1  0
  6  8  1  0
  8  2  1  0
  8  5  1  0
  1  9  1  0
  1 10  1  0
  1 11  1  0
  2 12  1  0
  3 13  1  0
  3 14  1  0
  4 15  1  0
  4 16  1  0
  5 17  1  0
  6 18  1  0
  7 19  1  0
  8 20  1  0
M  END
