
     RDKit          3D

 19 20  0  0  0  0  0  0  0  0999 V2000
    1.9068   -0.3511    0.5309 C   0  0  0  0  0  0  0  0  0  0  0  0
    0.7595   -0.3590   -0.4375 C   0  0  0  0  0  0  0  0  0  0  0  0
    0.3664    1.0140   -0.9830 C   0  0  0  0  0  0  0  0  0  0  0  0
   -0.5504    0.8887    0.1865 C   0  0  0  0  0  0  0  0  0  0  0  0
    0.0130    1.4982    1.3374 O   0  0  0  0  0  0  0  0  0  0  0  0
   -1.7819    0.3391    0.3158 C   0  0  0  0  0  0  0  0  0  0  0  0
   -0.5973   -0.5154    0.1240 C   0  0  0  0  0  0  0  0  0  0  0  0
   -1.1549   -1.7510   -0.2555 C   0  0  0  0  0  0  0  0  0  0  0  0
   -1.5317   -1.9528   -1.4192 O   0  0  0  0  0  0  0  0  0  0  0  0
    1.6179   -0.1809    1.5770 H   0  0  0  0  0  0  0  0  0  0  0  0
    2.3710   -1.3714    0.5113 H   0  0  0  0  0  0  0  0  0  0  0  0
    2.7029    0.3495    0.1941 H   0  0  0  0  0  0  0  0  0  0  0  0
    1.0593   -0.9557   -1.3256 H   0  0  0  0  0  0  0  0  0  0  0  0
   -0.0658    0.9990   -1.9808 H   0  0  0  0  0  0  0  0  0  0  0  0
    1.1841    1.7403   -0.9192 H   0  0  0  0  0  0  0  0  0  0  0  0
   -0.1896    2.4769    1.2305 H   0  0  0  0  0  0  0  0  0  0  0  0
   -2.2720    0.2046    1.3138 H   0  0  0  0  0  0  0  0  0  0  0  0
   -2.5693    0.4926   -0.4760 H   0  0  0  0  0  0  0  0  0  0  0  0
   -1.2680   -2.5656    0.4754 H   0  0  0  0  0  0  0  0  0  0  0  0
  1  2  1  0
  2  3  1  0
  3  4  1  0
  4  5  1  0
  4  6  1  0
  6  7  1  0
  7  8  1  0
  8  9  2  0
  7  2  1  0
  7  4  1  0
  1 10  1  0
  1 11  1  0
  1 12  1  0
  2 13  1  0
  3 14  1  0
  3 15  1  0
  5 16  1  0
  6 17  1  0
  6 18  1  0
  8 19  1  0
M  END
