
     RDKit          3D

 15 16  0  0  0  0  0  0  0  0999 V2000
    1.5953   -0.4959   -0.5126 C   0  0  0  0  0  0  0  0  0  0  0  0
    0.3752   -0.7690    0.3141 C   0  0  0  0  0  0  0  0  0  0  0  0
   -0.8568   -1.1126   -0.4323 C   0  0  0  0  0  0  0  0  0  0  0  0
   -1.0682   -1.8643   -1.3555 O   0  0  0  0  0  0  0  0  0  0  0  0
   -1.6907   -0.2145    0.3603 C   0  0  0  0  0  0  0  0  0  0  0  0
   -1.3951    0.1419    1.6547 O   0  0  0  0  0  0  0  0  0  0  0  0
   -0.3745    0.4434    0.8085 C   0  0  0  0  0  0  0  0  0  0  0  0
   -0.1753    1.7570    0.2092 C   0  0  0  0  0  0  0  0  0  0  0  0
   -0.9458    2.6611    0.4557 O   0  0  0  0  0  0  0  0  0  0  0  0
    1.8853   -1.4754   -0.9870 H   0  0  0  0  0  0  0  0  0  0  0  0
    1.4483    0.2705   -1.2773 H   0  0  0  0  0  0  0  0  0  0  0  0
    2.4241   -0.2552    0.1807 H   0  0  0  0  0  0  0  0  0  0  0  0
    0.5979   -1.4648    1.1488 H   0  0  0  0  0  0  0  0  0  0  0  0
   -2.4650    0.4218   -0.1117 H   0  0  0  0  0  0  0  0  0  0  0  0
    0.6454    1.9558   -0.4555 H   0  0  0  0  0  0  0  0  0  0  0  0
  1  2  1  0
  2  3  1  0
  3  4  2  0
  3  5  1  0
  5  6  1  0
  6  7  1  0
  7  8  1  0
  8  9  2  0
  7  2  1  0
  7  5  1  0
  1 10  1  0
  1 11  1  0
  1 12  1  0
  2 13  1  0
  5 14  1  0
  8 15  1  0
M  END
