
     RDKit          3D

 23 25  0  0  0  0  0  0  0  0999 V2000
    2.3026    0.2230    0.8080 C   0  0  0  0  0  0  0  0  0  0  0  0
    1.3957   -0.7849    0.1551 C   0  0  0  0  0  0  0  0  0  0  0  0
    1.2262   -0.8495   -1.3118 C   0  0  0  0  0  0  0  0  0  0  0  0
    0.1451   -0.4222   -0.4371 C   0  0  0  0  0  0  0  0  0  0  0  0
   -1.1077   -1.2951   -0.2356 C   0  0  0  0  0  0  0  0  0  0  0  0
   -2.1710   -0.2813    0.2391 C   0  0  0  0  0  0  0  0  0  0  0  0
   -1.2925    0.7977    0.7320 C   0  0  0  0  0  0  0  0  0  0  0  0
   -0.7941    1.9926    0.1934 C   0  0  0  0  0  0  0  0  0  0  0  0
   -0.4683    0.8950   -0.6203 C   0  0  0  0  0  0  0  0  0  0  0  0
    3.3403   -0.2125    0.8723 H   0  0  0  0  0  0  0  0  0  0  0  0
    1.9689    0.2787    1.8861 H   0  0  0  0  0  0  0  0  0  0  0  0
    2.2802    1.2074    0.3569 H   0  0  0  0  0  0  0  0  0  0  0  0
    1.4649   -1.7997    0.6496 H   0  0  0  0  0  0  0  0  0  0  0  0
    1.7568   -0.0418   -1.8828 H   0  0  0  0  0  0  0  0  0  0  0  0
    1.1279   -1.7731   -1.8722 H   0  0  0  0  0  0  0  0  0  0  0  0
   -0.9317   -2.0138    0.5828 H   0  0  0  0  0  0  0  0  0  0  0  0
   -1.3777   -1.7412   -1.1932 H   0  0  0  0  0  0  0  0  0  0  0  0
   -2.7624   -0.7051    1.0764 H   0  0  0  0  0  0  0  0  0  0  0  0
   -2.8003    0.0096   -0.6049 H   0  0  0  0  0  0  0  0  0  0  0  0
   -0.7013    0.3910    1.6150 H   0  0  0  0  0  0  0  0  0  0  0  0
   -1.5406    2.7661   -0.1555 H   0  0  0  0  0  0  0  0  0  0  0  0
    0.0407    2.5388    0.7126 H   0  0  0  0  0  0  0  0  0  0  0  0
   -1.1013    0.8205   -1.5659 H   0  0  0  0  0  0  0  0  0  0  0  0
  1  2  1  0
  2  3  1  0
  3  4  1  0
  4  5  1  0
  5  6  1  0
  6  7  1  0
  7  8  1  0
  8  9  1  0
  4  2  1  0
  9  7  1  0
  9  4  1  0
  1 10  1  0
  1 11  1  0
  1 12  1  0
  2 13  1  0
  3 14  1  0
  3 15  1  0
  5 16  1  0
  5 17  1  0
  6 18  1  0
  6 19  1  0
  7 20  1  0
  8 21  1  0
  8 22  1  0
  9 23  1  0
M  END
