
     RDKit          3D

 21 22  0  0  0  0  0  0  0  0999 V2000
    2.5105    1.2220   -0.4144 C   0  0  0  0  0  0  0  0  0  0  0  0
    1.4597    0.5938    0.4782 C   0  0  0  0  0  0  0  0  0  0  0  0
    1.5868   -0.9099    0.4875 C   0  0  0  0  0  0  0  0  0  0  0  0
    0.2756   -0.9999   -0.2264 C   0  0  0  0  0  0  0  0  0  0  0  0
   -0.9535   -0.3737    0.3782 C   0  0  0  0  0  0  0  0  0  0  0  0
   -2.1983   -0.5350   -0.4309 C   0  0  0  0  0  0  0  0  0  0  0  0
   -3.3856    0.1048    0.2157 C   0  0  0  0  0  0  0  0  0  0  0  0
   -4.4826    0.0664   -0.3116 O   0  0  0  0  0  0  0  0  0  0  0  0
    0.1218    0.4701   -0.1893 C   0  0  0  0  0  0  0  0  0  0  0  0
    2.8476    0.5451   -1.2194 H   0  0  0  0  0  0  0  0  0  0  0  0
    2.1172    2.1642   -0.8730 H   0  0  0  0  0  0  0  0  0  0  0  0
    3.4213    1.4462    0.2125 H   0  0  0  0  0  0  0  0  0  0  0  0
    1.4591    0.9919    1.5046 H   0  0  0  0  0  0  0  0  0  0  0  0
    2.4049   -1.2973   -0.1617 H   0  0  0  0  0  0  0  0  0  0  0  0
    1.6375   -1.3827    1.4758 H   0  0  0  0  0  0  0  0  0  0  0  0
    0.1895   -1.5735   -1.1703 H   0  0  0  0  0  0  0  0  0  0  0  0
   -1.0596   -0.5030    1.4746 H   0  0  0  0  0  0  0  0  0  0  0  0
   -2.4249   -1.6295   -0.5839 H   0  0  0  0  0  0  0  0  0  0  0  0
   -2.1259   -0.0890   -1.4437 H   0  0  0  0  0  0  0  0  0  0  0  0
   -3.2973    0.6147    1.1636 H   0  0  0  0  0  0  0  0  0  0  0  0
   -0.1039    1.0746   -1.0652 H   0  0  0  0  0  0  0  0  0  0  0  0
  1  2  1  0
  2  3  1  0
  3  4  1  0
  4  5  1  0
  5  6  1  0
  6  7  1  0
  7  8  2  0
  5  9  1  0
  9  2  1  0
  9  4  1  0
  1 10  1  0
  1 11  1  0
  1 12  1  0
  2 13  1  0
  3 14  1  0
  3 15  1  0
  4 16  1  0
  5 17  1  0
  6 18  1  0
  6 19  1  0
  7 20  1  0
  9 21  1  0
M  END
