
     RDKit          3D

 23 24  0  0  0  0  0  0  0  0999 V2000
    2.8283   -0.6765    0.0753 C   0  0  0  0  0  0  0  0  0  0  0  0
    1.4810   -0.2591    0.5858 C   0  0  0  0  0  0  0  0  0  0  0  0
    0.9702    0.9872   -0.1321 C   0  0  0  0  0  0  0  0  0  0  0  0
   -0.5052    0.8698    0.2937 C   0  0  0  0  0  0  0  0  0  0  0  0
   -1.3007    1.7463   -0.5809 C   0  0  0  0  0  0  0  0  0  0  0  0
   -0.6928   -0.5878    0.1586 C   0  0  0  0  0  0  0  0  0  0  0  0
   -1.6505   -1.2263   -0.7542 C   0  0  0  0  0  0  0  0  0  0  0  0
   -1.8155   -1.3281    0.7734 C   0  0  0  0  0  0  0  0  0  0  0  0
    0.5529   -1.2100    0.2598 O   0  0  0  0  0  0  0  0  0  0  0  0
    2.7766   -0.7069   -1.0329 H   0  0  0  0  0  0  0  0  0  0  0  0
    3.0327   -1.6933    0.4811 H   0  0  0  0  0  0  0  0  0  0  0  0
    3.5816    0.0638    0.3743 H   0  0  0  0  0  0  0  0  0  0  0  0
    1.5090    0.0067    1.6635 H   0  0  0  0  0  0  0  0  0  0  0  0
    1.4281    1.9045    0.2189 H   0  0  0  0  0  0  0  0  0  0  0  0
    1.0198    0.7924   -1.2039 H   0  0  0  0  0  0  0  0  0  0  0  0
   -0.5028    1.2044    1.3727 H   0  0  0  0  0  0  0  0  0  0  0  0
   -0.6719    2.2856   -1.3494 H   0  0  0  0  0  0  0  0  0  0  0  0
   -1.7143    2.5869    0.0514 H   0  0  0  0  0  0  0  0  0  0  0  0
   -2.1431    1.3107   -1.1002 H   0  0  0  0  0  0  0  0  0  0  0  0
   -2.4704   -0.6961   -1.2591 H   0  0  0  0  0  0  0  0  0  0  0  0
   -1.3782   -2.1784   -1.2898 H   0  0  0  0  0  0  0  0  0  0  0  0
   -1.6510   -2.3654    1.1784 H   0  0  0  0  0  0  0  0  0  0  0  0
   -2.6839   -0.8305    1.2156 H   0  0  0  0  0  0  0  0  0  0  0  0
  1  2  1  0
  2  3  1  0
  3  4  1  0
  4  5  1  0
  4  6  1  0
  6  7  1  0
  7  8  1  0
  6  9  1  0
  9  2  1  0
  8  6  1  0
  1 10  1  0
  1 11  1  0
  1 12  1  0
  2 13  1  0
  3 14  1  0
  3 15  1  0
  4 16  1  0
  5 17  1  0
  5 18  1  0
  5 19  1  0
  7 20  1  0
  7 21  1  0
  8 22  1  0
  8 23  1  0
M  END
