
     RDKit          3D

 21 22  0  0  0  0  0  0  0  0999 V2000
    2.7339    0.5233    0.0204 C   0  0  0  0  0  0  0  0  0  0  0  0
    1.2755    0.4072    0.3317 C   0  0  0  0  0  0  0  0  0  0  0  0
    0.7237   -1.0246    0.2807 C   0  0  0  0  0  0  0  0  0  0  0  0
   -0.3017   -0.3241   -0.4778 C   0  0  0  0  0  0  0  0  0  0  0  0
   -1.0850   -0.9898   -1.5307 C   0  0  0  0  0  0  0  0  0  0  0  0
   -2.1531   -0.1171   -1.2035 O   0  0  0  0  0  0  0  0  0  0  0  0
   -1.6647   -0.1502    0.1036 C   0  0  0  0  0  0  0  0  0  0  0  0
   -1.9052    1.0978    0.9049 C   0  0  0  0  0  0  0  0  0  0  0  0
    0.4399    0.7707   -0.7524 O   0  0  0  0  0  0  0  0  0  0  0  0
    3.2575   -0.4339    0.0045 H   0  0  0  0  0  0  0  0  0  0  0  0
    2.9295    1.0611   -0.9441 H   0  0  0  0  0  0  0  0  0  0  0  0
    3.2439    1.1473    0.8084 H   0  0  0  0  0  0  0  0  0  0  0  0
    0.9357    0.9846    1.2166 H   0  0  0  0  0  0  0  0  0  0  0  0
    1.4025   -1.7296   -0.2137 H   0  0  0  0  0  0  0  0  0  0  0  0
    0.3619   -1.3835    1.2722 H   0  0  0  0  0  0  0  0  0  0  0  0
   -0.8006   -0.8692   -2.5741 H   0  0  0  0  0  0  0  0  0  0  0  0
   -1.3863   -2.0238   -1.2162 H   0  0  0  0  0  0  0  0  0  0  0  0
   -2.0455   -1.0584    0.6014 H   0  0  0  0  0  0  0  0  0  0  0  0
   -1.4844    0.9231    1.9160 H   0  0  0  0  0  0  0  0  0  0  0  0
   -1.4696    1.9786    0.4066 H   0  0  0  0  0  0  0  0  0  0  0  0
   -3.0079    1.2107    1.0455 H   0  0  0  0  0  0  0  0  0  0  0  0
  1  2  1  0
  2  3  1  0
  3  4  1  0
  4  5  1  0
  5  6  1  0
  6  7  1  0
  7  8  1  0
  4  9  1  0
  9  2  1  0
  7  4  1  0
  1 10  1  0
  1 11  1  0
  1 12  1  0
  2 13  1  0
  3 14  1  0
  3 15  1  0
  5 16  1  0
  5 17  1  0
  7 18  1  0
  8 19  1  0
  8 20  1  0
  8 21  1  0
M  END
