
     RDKit          3D

 19 20  0  0  0  0  0  0  0  0999 V2000
   -1.4608   -1.0179    0.8336 C   0  0  0  0  0  0  0  0  0  0  0  0
   -0.5281   -0.4386   -0.1816 C   0  0  0  0  0  0  0  0  0  0  0  0
   -1.1511    0.7518   -0.8581 C   0  0  0  0  0  0  0  0  0  0  0  0
   -0.3739    1.9165   -0.3644 C   0  0  0  0  0  0  0  0  0  0  0  0
   -0.8152    3.0351   -0.3142 O   0  0  0  0  0  0  0  0  0  0  0  0
    0.9609    1.3826    0.0130 C   0  0  0  0  0  0  0  0  0  0  0  0
    1.0320    0.8697    1.2824 O   0  0  0  0  0  0  0  0  0  0  0  0
    0.8066   -0.0654    0.3201 C   0  0  0  0  0  0  0  0  0  0  0  0
    1.9499   -1.0297    0.0665 C   0  0  0  0  0  0  0  0  0  0  0  0
   -2.2464   -0.2871    1.1694 H   0  0  0  0  0  0  0  0  0  0  0  0
   -0.9086   -1.3417    1.7328 H   0  0  0  0  0  0  0  0  0  0  0  0
   -2.0579   -1.8705    0.3946 H   0  0  0  0  0  0  0  0  0  0  0  0
   -0.3940   -1.2190   -0.9815 H   0  0  0  0  0  0  0  0  0  0  0  0
   -0.9772    0.7203   -1.9728 H   0  0  0  0  0  0  0  0  0  0  0  0
   -2.2138    0.7978   -0.5967 H   0  0  0  0  0  0  0  0  0  0  0  0
    1.8496    1.6493   -0.5683 H   0  0  0  0  0  0  0  0  0  0  0  0
    2.8055   -0.8278    0.7267 H   0  0  0  0  0  0  0  0  0  0  0  0
    1.5342   -2.0517    0.3045 H   0  0  0  0  0  0  0  0  0  0  0  0
    2.1884   -0.9736   -1.0060 H   0  0  0  0  0  0  0  0  0  0  0  0
  1  2  1  0
  2  3  1  0
  3  4  1  0
  4  5  2  0
  4  6  1  0
  6  7  1  0
  7  8  1  0
  8  9  1  0
  8  2  1  0
  8  6  1  0
  1 10  1  0
  1 11  1  0
  1 12  1  0
  2 13  1  0
  3 14  1  0
  3 15  1  0
  6 16  1  0
  9 17  1  0
  9 18  1  0
  9 19  1  0
M  END
