
     RDKit          3D

 25 25  0  0  0  0  0  0  0  0999 V2000
    2.3961    0.0624   -0.5365 C   0  0  0  0  0  0  0  0  0  0  0  0
    0.9680   -0.4228   -0.3978 C   0  0  0  0  0  0  0  0  0  0  0  0
    0.9425   -1.4666    0.6760 C   0  0  0  0  0  0  0  0  0  0  0  0
   -0.3144   -1.7178    1.1856 O   0  0  0  0  0  0  0  0  0  0  0  0
   -1.2765   -1.4331    0.1895 C   0  0  0  0  0  0  0  0  0  0  0  0
   -1.3471    0.0928    0.1556 C   0  0  0  0  0  0  0  0  0  0  0  0
   -2.3528    0.5962   -0.8267 C   0  0  0  0  0  0  0  0  0  0  0  0
   -0.0093    0.6917   -0.1784 C   0  0  0  0  0  0  0  0  0  0  0  0
    0.3825    1.6266    0.9292 C   0  0  0  0  0  0  0  0  0  0  0  0
    2.9641   -0.6181   -1.2203 H   0  0  0  0  0  0  0  0  0  0  0  0
    2.4574    1.0789   -0.9552 H   0  0  0  0  0  0  0  0  0  0  0  0
    2.9007   -0.0038    0.4564 H   0  0  0  0  0  0  0  0  0  0  0  0
    0.7063   -0.8922   -1.3844 H   0  0  0  0  0  0  0  0  0  0  0  0
    1.6897   -1.2120    1.4517 H   0  0  0  0  0  0  0  0  0  0  0  0
    1.2828   -2.4295    0.1925 H   0  0  0  0  0  0  0  0  0  0  0  0
   -0.9902   -1.8563   -0.7884 H   0  0  0  0  0  0  0  0  0  0  0  0
   -2.2827   -1.7890    0.5033 H   0  0  0  0  0  0  0  0  0  0  0  0
   -1.6802    0.3876    1.1879 H   0  0  0  0  0  0  0  0  0  0  0  0
   -3.2760    0.0060   -0.7389 H   0  0  0  0  0  0  0  0  0  0  0  0
   -2.5672    1.6647   -0.5621 H   0  0  0  0  0  0  0  0  0  0  0  0
   -1.9044    0.5987   -1.8316 H   0  0  0  0  0  0  0  0  0  0  0  0
   -0.0450    1.2974   -1.1162 H   0  0  0  0  0  0  0  0  0  0  0  0
    1.4753    1.8452    0.9504 H   0  0  0  0  0  0  0  0  0  0  0  0
    0.0131    1.2941    1.9303 H   0  0  0  0  0  0  0  0  0  0  0  0
   -0.1329    2.5988    0.7283 H   0  0  0  0  0  0  0  0  0  0  0  0
  1  2  1  0
  2  3  1  0
  3  4  1  0
  4  5  1  0
  5  6  1  0
  6  7  1  0
  6  8  1  0
  8  9  1  0
  8  2  1  0
  1 10  1  0
  1 11  1  0
  1 12  1  0
  2 13  1  0
  3 14  1  0
  3 15  1  0
  5 16  1  0
  5 17  1  0
  6 18  1  0
  7 19  1  0
  7 20  1  0
  7 21  1  0
  8 22  1  0
  9 23  1  0
  9 24  1  0
  9 25  1  0
M  END
