
     RDKit          3D

 23 23  0  0  0  0  0  0  0  0999 V2000
   -1.4071    1.6436    0.3665 C   0  0  0  0  0  0  0  0  0  0  0  0
   -1.4467    0.3108   -0.2870 C   0  0  0  0  0  0  0  0  0  0  0  0
   -2.3213   -0.7293    0.3948 C   0  0  0  0  0  0  0  0  0  0  0  0
   -1.2780   -1.7585   -0.0095 C   0  0  0  0  0  0  0  0  0  0  0  0
   -0.2639   -0.6045   -0.0086 C   0  0  0  0  0  0  0  0  0  0  0  0
    0.5869   -0.6050   -1.0814 O   0  0  0  0  0  0  0  0  0  0  0  0
    1.9250   -0.4960   -0.7986 C   0  0  0  0  0  0  0  0  0  0  0  0
    2.2474    0.7875   -0.0754 C   0  0  0  0  0  0  0  0  0  0  0  0
    3.6225    0.8698    0.1993 O   0  0  0  0  0  0  0  0  0  0  0  0
   -2.4262    1.9768    0.6592 H   0  0  0  0  0  0  0  0  0  0  0  0
   -0.7891    1.6924    1.2746 H   0  0  0  0  0  0  0  0  0  0  0  0
   -0.9572    2.3671   -0.3551 H   0  0  0  0  0  0  0  0  0  0  0  0
   -1.6775    0.3277   -1.3586 H   0  0  0  0  0  0  0  0  0  0  0  0
   -2.4165   -0.5670    1.4746 H   0  0  0  0  0  0  0  0  0  0  0  0
   -3.2920   -0.8733   -0.1217 H   0  0  0  0  0  0  0  0  0  0  0  0
   -1.4091   -2.1239   -1.0283 H   0  0  0  0  0  0  0  0  0  0  0  0
   -1.0745   -2.5149    0.7759 H   0  0  0  0  0  0  0  0  0  0  0  0
    0.1494   -0.5233    1.0003 H   0  0  0  0  0  0  0  0  0  0  0  0
    2.4549   -0.4573   -1.7901 H   0  0  0  0  0  0  0  0  0  0  0  0
    2.3059   -1.3572   -0.2421 H   0  0  0  0  0  0  0  0  0  0  0  0
    1.6680    0.8120    0.8613 H   0  0  0  0  0  0  0  0  0  0  0  0
    1.9748    1.6825   -0.6685 H   0  0  0  0  0  0  0  0  0  0  0  0
    3.8243    0.1399    0.8184 H   0  0  0  0  0  0  0  0  0  0  0  0
  1  2  1  0
  2  3  1  0
  3  4  1  0
  4  5  1  0
  5  6  1  0
  6  7  1  0
  7  8  1  0
  8  9  1  0
  5  2  1  0
  1 10  1  0
  1 11  1  0
  1 12  1  0
  2 13  1  0
  3 14  1  0
  3 15  1  0
  4 16  1  0
  4 17  1  0
  5 18  1  0
  7 19  1  0
  7 20  1  0
  8 21  1  0
  8 22  1  0
  9 23  1  0
M  END
