
     RDKit          3D

 21 22  0  0  0  0  0  0  0  0999 V2000
   -2.0901   -0.8979    0.0623 C   0  0  0  0  0  0  0  0  0  0  0  0
   -0.9403   -0.5106   -0.8137 C   0  0  0  0  0  0  0  0  0  0  0  0
    0.3098   -1.2576   -0.4834 C   0  0  0  0  0  0  0  0  0  0  0  0
    0.6515   -2.3386   -0.8741 O   0  0  0  0  0  0  0  0  0  0  0  0
    1.0942   -0.4019    0.4501 C   0  0  0  0  0  0  0  0  0  0  0  0
    2.3152    0.1803   -0.1136 C   0  0  0  0  0  0  0  0  0  0  0  0
    0.0319    0.5365    0.8843 C   0  0  0  0  0  0  0  0  0  0  0  0
   -0.4284    1.7921    0.4574 C   0  0  0  0  0  0  0  0  0  0  0  0
   -0.4348    0.8718   -0.5951 C   0  0  0  0  0  0  0  0  0  0  0  0
   -2.9213   -1.3697   -0.5331 H   0  0  0  0  0  0  0  0  0  0  0  0
   -1.8237   -1.6757    0.8237 H   0  0  0  0  0  0  0  0  0  0  0  0
   -2.5522   -0.0130    0.5520 H   0  0  0  0  0  0  0  0  0  0  0  0
   -1.2455   -0.6678   -1.8684 H   0  0  0  0  0  0  0  0  0  0  0  0
    1.3901   -1.0882    1.2980 H   0  0  0  0  0  0  0  0  0  0  0  0
    3.1942   -0.4556    0.1217 H   0  0  0  0  0  0  0  0  0  0  0  0
    2.3347    0.3382   -1.2036 H   0  0  0  0  0  0  0  0  0  0  0  0
    2.5124    1.1637    0.3865 H   0  0  0  0  0  0  0  0  0  0  0  0
   -0.7258   -0.0544    1.4940 H   0  0  0  0  0  0  0  0  0  0  0  0
    0.3153    2.6440    0.4663 H   0  0  0  0  0  0  0  0  0  0  0  0
   -1.4034    2.1951    0.8281 H   0  0  0  0  0  0  0  0  0  0  0  0
    0.4160    1.0092   -1.3393 H   0  0  0  0  0  0  0  0  0  0  0  0
  1  2  1  0
  2  3  1  0
  3  4  2  0
  3  5  1  0
  5  6  1  0
  5  7  1  0
  7  8  1  0
  8  9  1  0
  9  2  1  0
  9  7  1  0
  1 10  1  0
  1 11  1  0
  1 12  1  0
  2 13  1  0
  5 14  1  0
  6 15  1  0
  6 16  1  0
  6 17  1  0
  7 18  1  0
  8 19  1  0
  8 20  1  0
  9 21  1  0
M  END
