
     RDKit          3D

 25 26  0  0  0  0  0  0  0  0999 V2000
   -2.2928   -1.0173   -0.6978 C   0  0  0  0  0  0  0  0  0  0  0  0
   -1.5623   -0.6816    0.5563 C   0  0  0  0  0  0  0  0  0  0  0  0
   -0.1622   -1.2603    0.5685 C   0  0  0  0  0  0  0  0  0  0  0  0
    0.3139    0.0781    1.0892 C   0  0  0  0  0  0  0  0  0  0  0  0
    1.6343    0.5555    0.6347 C   0  0  0  0  0  0  0  0  0  0  0  0
    2.0650    0.7477   -0.7469 C   0  0  0  0  0  0  0  0  0  0  0  0
    2.5439   -0.4534    0.0065 C   0  0  0  0  0  0  0  0  0  0  0  0
   -0.9383    0.6960    0.6069 C   0  0  0  0  0  0  0  0  0  0  0  0
   -0.8694    1.4309   -0.6791 C   0  0  0  0  0  0  0  0  0  0  0  0
   -3.0911   -0.2981   -0.9604 H   0  0  0  0  0  0  0  0  0  0  0  0
   -2.7363   -2.0265   -0.5728 H   0  0  0  0  0  0  0  0  0  0  0  0
   -1.5448   -1.1254   -1.5266 H   0  0  0  0  0  0  0  0  0  0  0  0
   -2.1055   -0.9247    1.4982 H   0  0  0  0  0  0  0  0  0  0  0  0
   -0.0383   -2.1064    1.2522 H   0  0  0  0  0  0  0  0  0  0  0  0
    0.1803   -1.4245   -0.4643 H   0  0  0  0  0  0  0  0  0  0  0  0
    0.2912    0.0408    2.2278 H   0  0  0  0  0  0  0  0  0  0  0  0
    2.1110    1.2858    1.3747 H   0  0  0  0  0  0  0  0  0  0  0  0
    1.5129    0.5113   -1.6533 H   0  0  0  0  0  0  0  0  0  0  0  0
    2.8861    1.4968   -0.9531 H   0  0  0  0  0  0  0  0  0  0  0  0
    2.1992   -1.4422   -0.2885 H   0  0  0  0  0  0  0  0  0  0  0  0
    3.5850   -0.4633    0.4069 H   0  0  0  0  0  0  0  0  0  0  0  0
   -1.4346    1.3614    1.3785 H   0  0  0  0  0  0  0  0  0  0  0  0
    0.0195    2.0928   -0.6825 H   0  0  0  0  0  0  0  0  0  0  0  0
   -1.7321    2.1300   -0.8031 H   0  0  0  0  0  0  0  0  0  0  0  0
   -0.8346    0.7966   -1.5720 H   0  0  0  0  0  0  0  0  0  0  0  0
  1  2  1  0
  2  3  1  0
  3  4  1  0
  4  5  1  0
  5  6  1  0
  6  7  1  0
  4  8  1  0
  8  9  1  0
  8  2  1  0
  7  5  1  0
  1 10  1  0
  1 11  1  0
  1 12  1  0
  2 13  1  0
  3 14  1  0
  3 15  1  0
  4 16  1  0
  5 17  1  0
  6 18  1  0
  6 19  1  0
  7 20  1  0
  7 21  1  0
  8 22  1  0
  9 23  1  0
  9 24  1  0
  9 25  1  0
M  END
