
     RDKit          3D

 21 22  0  0  0  0  0  0  0  0999 V2000
    3.1290   -0.5619   -0.0178 C   0  0  0  0  0  0  0  0  0  0  0  0
    1.7443    0.0326    0.1731 C   0  0  0  0  0  0  0  0  0  0  0  0
    0.6011   -0.8721    0.4584 C   0  0  0  0  0  0  0  0  0  0  0  0
   -0.5037   -0.2423    1.0440 O   0  0  0  0  0  0  0  0  0  0  0  0
   -1.2252    0.3324    0.0287 C   0  0  0  0  0  0  0  0  0  0  0  0
   -1.7731    1.7099    0.4057 C   0  0  0  0  0  0  0  0  0  0  0  0
   -2.4197   -0.5318   -0.2850 C   0  0  0  0  0  0  0  0  0  0  0  0
   -0.3857    0.5213   -1.0519 O   0  0  0  0  0  0  0  0  0  0  0  0
    0.7304   -0.2537   -0.8708 C   0  0  0  0  0  0  0  0  0  0  0  0
    3.5559   -0.9161    0.9528 H   0  0  0  0  0  0  0  0  0  0  0  0
    3.7910    0.1925   -0.5118 H   0  0  0  0  0  0  0  0  0  0  0  0
    3.0014   -1.4433   -0.6991 H   0  0  0  0  0  0  0  0  0  0  0  0
    1.7770    1.0097    0.7049 H   0  0  0  0  0  0  0  0  0  0  0  0
    0.7070   -1.9603    0.5119 H   0  0  0  0  0  0  0  0  0  0  0  0
   -2.3087    2.0662   -0.5155 H   0  0  0  0  0  0  0  0  0  0  0  0
   -2.4350    1.6694    1.2757 H   0  0  0  0  0  0  0  0  0  0  0  0
   -0.9078    2.3891    0.5200 H   0  0  0  0  0  0  0  0  0  0  0  0
   -2.4256   -1.4417    0.3535 H   0  0  0  0  0  0  0  0  0  0  0  0
   -3.3811   -0.0265   -0.1208 H   0  0  0  0  0  0  0  0  0  0  0  0
   -2.3492   -0.8562   -1.3355 H   0  0  0  0  0  0  0  0  0  0  0  0
    1.0777   -0.8171   -1.7651 H   0  0  0  0  0  0  0  0  0  0  0  0
  1  2  1  0
  2  3  1  0
  3  4  1  0
  4  5  1  0
  5  6  1  0
  5  7  1  0
  5  8  1  0
  8  9  1  0
  9  2  1  0
  9  3  1  0
  1 10  1  0
  1 11  1  0
  1 12  1  0
  2 13  1  0
  3 14  1  0
  6 15  1  0
  6 16  1  0
  6 17  1  0
  7 18  1  0
  7 19  1  0
  7 20  1  0
  9 21  1  0
M  END
