
     RDKit          3D

 23 24  0  0  0  0  0  0  0  0999 V2000
    2.8470    0.4255    0.9926 C   0  0  0  0  0  0  0  0  0  0  0  0
    1.4585    0.7998    0.5686 C   0  0  0  0  0  0  0  0  0  0  0  0
    1.0771    0.0130   -0.6806 C   0  0  0  0  0  0  0  0  0  0  0  0
   -0.1450   -0.4079    0.0875 C   0  0  0  0  0  0  0  0  0  0  0  0
   -0.2807   -1.9102    0.1329 C   0  0  0  0  0  0  0  0  0  0  0  0
   -1.3774    0.2666   -0.4257 C   0  0  0  0  0  0  0  0  0  0  0  0
   -2.7073   -0.0407    0.2336 C   0  0  0  0  0  0  0  0  0  0  0  0
   -2.0666    1.3339    0.3383 C   0  0  0  0  0  0  0  0  0  0  0  0
    0.4256    0.1492    1.2245 O   0  0  0  0  0  0  0  0  0  0  0  0
    3.4261   -0.0569    0.1519 H   0  0  0  0  0  0  0  0  0  0  0  0
    3.4300    1.3419    1.2474 H   0  0  0  0  0  0  0  0  0  0  0  0
    2.8992   -0.2582    1.8413 H   0  0  0  0  0  0  0  0  0  0  0  0
    1.3132    1.8793    0.5106 H   0  0  0  0  0  0  0  0  0  0  0  0
    1.7534   -0.8113   -0.9314 H   0  0  0  0  0  0  0  0  0  0  0  0
    0.8961    0.7452   -1.4991 H   0  0  0  0  0  0  0  0  0  0  0  0
   -0.4014   -2.2781   -0.9068 H   0  0  0  0  0  0  0  0  0  0  0  0
    0.6022   -2.3683    0.6458 H   0  0  0  0  0  0  0  0  0  0  0  0
   -1.1649   -2.2450    0.6921 H   0  0  0  0  0  0  0  0  0  0  0  0
   -1.4515    0.3665   -1.5337 H   0  0  0  0  0  0  0  0  0  0  0  0
   -3.6055   -0.1621   -0.3996 H   0  0  0  0  0  0  0  0  0  0  0  0
   -2.7058   -0.6064    1.1674 H   0  0  0  0  0  0  0  0  0  0  0  0
   -2.5474    2.1730   -0.2117 H   0  0  0  0  0  0  0  0  0  0  0  0
   -1.6749    1.6512    1.3261 H   0  0  0  0  0  0  0  0  0  0  0  0
  1  2  1  0
  2  3  1  0
  3  4  1  0
  4  5  1  0
  4  6  1  0
  6  7  1  0
  7  8  1  0
  4  9  1  0
  9  2  1  0
  8  6  1  0
  1 10  1  0
  1 11  1  0
  1 12  1  0
  2 13  1  0
  3 14  1  0
  3 15  1  0
  5 16  1  0
  5 17  1  0
  5 18  1  0
  6 19  1  0
  7 20  1  0
  7 21  1  0
  8 22  1  0
  8 23  1  0
M  END
