
     RDKit          3D

 19 20  0  0  0  0  0  0  0  0999 V2000
    2.5127   -0.4288    0.0640 C   0  0  0  0  0  0  0  0  0  0  0  0
    1.2367    0.2958   -0.3503 C   0  0  0  0  0  0  0  0  0  0  0  0
    0.4044    0.6369    0.8568 C   0  0  0  0  0  0  0  0  0  0  0  0
   -0.9955    0.5102    0.3420 C   0  0  0  0  0  0  0  0  0  0  0  0
   -1.9053    1.5030    0.6343 O   0  0  0  0  0  0  0  0  0  0  0  0
   -1.5455   -0.8453    0.1366 C   0  0  0  0  0  0  0  0  0  0  0  0
   -2.9017   -1.0427   -0.0460 O   0  0  0  0  0  0  0  0  0  0  0  0
   -0.8669   -0.1062   -0.9825 C   0  0  0  0  0  0  0  0  0  0  0  0
    0.4529   -0.4770   -1.1904 O   0  0  0  0  0  0  0  0  0  0  0  0
    2.4467   -0.8123    1.1073 H   0  0  0  0  0  0  0  0  0  0  0  0
    3.3497    0.2923   -0.0105 H   0  0  0  0  0  0  0  0  0  0  0  0
    2.6919   -1.2679   -0.6311 H   0  0  0  0  0  0  0  0  0  0  0  0
    1.4702    1.2640   -0.8648 H   0  0  0  0  0  0  0  0  0  0  0  0
    0.5417   -0.0965    1.6873 H   0  0  0  0  0  0  0  0  0  0  0  0
    0.6433    1.6738    1.2060 H   0  0  0  0  0  0  0  0  0  0  0  0
   -2.0399    2.1590   -0.0776 H   0  0  0  0  0  0  0  0  0  0  0  0
   -1.0357   -1.6624    0.6672 H   0  0  0  0  0  0  0  0  0  0  0  0
   -3.0033   -1.8069   -0.6845 H   0  0  0  0  0  0  0  0  0  0  0  0
   -1.4563    0.2112   -1.8638 H   0  0  0  0  0  0  0  0  0  0  0  0
  1  2  1  0
  2  3  1  0
  3  4  1  0
  4  5  1  0
  4  6  1  0
  6  7  1  0
  6  8  1  0
  8  9  1  0
  9  2  1  0
  8  4  1  0
  1 10  1  0
  1 11  1  0
  1 12  1  0
  2 13  1  0
  3 14  1  0
  3 15  1  0
  5 16  1  0
  6 17  1  0
  7 18  1  0
  8 19  1  0
M  END
