
     RDKit          3D

 23 24  0  0  0  0  0  0  0  0999 V2000
   -2.6194   -0.5497   -0.3429 C   0  0  0  0  0  0  0  0  0  0  0  0
   -1.6992   -0.0936    0.7726 C   0  0  0  0  0  0  0  0  0  0  0  0
   -0.6205   -1.1822    0.8929 C   0  0  0  0  0  0  0  0  0  0  0  0
    0.0164   -0.9965   -0.3557 O   0  0  0  0  0  0  0  0  0  0  0  0
    0.3465    0.3508   -0.2737 C   0  0  0  0  0  0  0  0  0  0  0  0
   -0.8274    1.0708    0.3214 C   0  0  0  0  0  0  0  0  0  0  0  0
    1.1360    1.0471   -1.2787 C   0  0  0  0  0  0  0  0  0  0  0  0
    1.7355    0.6659    0.0553 C   0  0  0  0  0  0  0  0  0  0  0  0
    2.7451   -0.4835   -0.0585 C   0  0  0  0  0  0  0  0  0  0  0  0
   -3.2063   -1.4005    0.0709 H   0  0  0  0  0  0  0  0  0  0  0  0
   -2.0007   -0.9823   -1.1584 H   0  0  0  0  0  0  0  0  0  0  0  0
   -3.2400    0.2496   -0.7523 H   0  0  0  0  0  0  0  0  0  0  0  0
   -2.2094    0.0892    1.7169 H   0  0  0  0  0  0  0  0  0  0  0  0
   -1.1237   -2.1425    0.9706 H   0  0  0  0  0  0  0  0  0  0  0  0
    0.0470   -0.9514    1.7345 H   0  0  0  0  0  0  0  0  0  0  0  0
   -0.5567    1.6986    1.2048 H   0  0  0  0  0  0  0  0  0  0  0  0
   -1.3491    1.7410   -0.3795 H   0  0  0  0  0  0  0  0  0  0  0  0
    1.4990    0.5848   -2.2060 H   0  0  0  0  0  0  0  0  0  0  0  0
    0.9680    2.1581   -1.3599 H   0  0  0  0  0  0  0  0  0  0  0  0
    2.0489    1.4411    0.7639 H   0  0  0  0  0  0  0  0  0  0  0  0
    2.2862   -1.2720   -0.7150 H   0  0  0  0  0  0  0  0  0  0  0  0
    3.6491   -0.1316   -0.5700 H   0  0  0  0  0  0  0  0  0  0  0  0
    2.9748   -0.9113    0.9468 H   0  0  0  0  0  0  0  0  0  0  0  0
  1  2  1  0
  2  3  1  0
  3  4  1  0
  4  5  1  0
  5  6  1  0
  5  7  1  0
  7  8  1  0
  8  9  1  0
  6  2  1  0
  8  5  1  0
  1 10  1  0
  1 11  1  0
  1 12  1  0
  2 13  1  0
  3 14  1  0
  3 15  1  0
  6 16  1  0
  6 17  1  0
  7 18  1  0
  7 19  1  0
  8 20  1  0
  9 21  1  0
  9 22  1  0
  9 23  1  0
M  END
