
     RDKit          3D

 23 23  0  0  0  0  0  0  0  0999 V2000
   -2.1260   -1.3510    0.2811 C   0  0  0  0  0  0  0  0  0  0  0  0
   -0.7723   -0.6910    0.3843 C   0  0  0  0  0  0  0  0  0  0  0  0
    0.2856   -1.2816   -0.5445 C   0  0  0  0  0  0  0  0  0  0  0  0
    0.8063    0.1583   -0.6652 C   0  0  0  0  0  0  0  0  0  0  0  0
    1.3144    0.4742   -1.8996 O   0  0  0  0  0  0  0  0  0  0  0  0
    1.8011    0.3941    0.4480 C   0  0  0  0  0  0  0  0  0  0  0  0
    2.9480   -0.3784    0.2698 O   0  0  0  0  0  0  0  0  0  0  0  0
   -0.6015    0.5859   -0.3718 C   0  0  0  0  0  0  0  0  0  0  0  0
   -0.7759    1.8545    0.3924 C   0  0  0  0  0  0  0  0  0  0  0  0
   -2.8199   -0.7774    0.9080 H   0  0  0  0  0  0  0  0  0  0  0  0
   -2.4429   -1.4721   -0.7613 H   0  0  0  0  0  0  0  0  0  0  0  0
   -2.0338   -2.3596    0.7438 H   0  0  0  0  0  0  0  0  0  0  0  0
   -0.4702   -0.6243    1.4394 H   0  0  0  0  0  0  0  0  0  0  0  0
    0.9825   -1.9775   -0.0880 H   0  0  0  0  0  0  0  0  0  0  0  0
   -0.1726   -1.5635   -1.5105 H   0  0  0  0  0  0  0  0  0  0  0  0
    1.4125    1.4552   -1.9440 H   0  0  0  0  0  0  0  0  0  0  0  0
    1.4053    0.1781    1.4416 H   0  0  0  0  0  0  0  0  0  0  0  0
    2.1486    1.4641    0.3659 H   0  0  0  0  0  0  0  0  0  0  0  0
    2.8606   -1.2547    0.7603 H   0  0  0  0  0  0  0  0  0  0  0  0
   -1.2026    0.5781   -1.2977 H   0  0  0  0  0  0  0  0  0  0  0  0
   -0.0311    2.0090    1.1805 H   0  0  0  0  0  0  0  0  0  0  0  0
   -0.6930    2.7024   -0.3099 H   0  0  0  0  0  0  0  0  0  0  0  0
   -1.8234    1.8772    0.7771 H   0  0  0  0  0  0  0  0  0  0  0  0
  1  2  1  0
  2  3  1  0
  3  4  1  0
  4  5  1  0
  4  6  1  0
  6  7  1  0
  4  8  1  0
  8  9  1  0
  8  2  1  0
  1 10  1  0
  1 11  1  0
  1 12  1  0
  2 13  1  0
  3 14  1  0
  3 15  1  0
  5 16  1  0
  6 17  1  0
  6 18  1  0
  7 19  1  0
  8 20  1  0
  9 21  1  0
  9 22  1  0
  9 23  1  0
M  END
