
     RDKit          3D

 18 18  0  0  0  0  0  0  0  0999 V2000
   -2.4965   -0.2328    0.0393 C   0  0  0  0  0  0  0  0  0  0  0  0
   -1.0338   -0.2355   -0.2817 C   0  0  0  0  0  0  0  0  0  0  0  0
   -0.4787    1.0839    0.1418 C   0  0  0  0  0  0  0  0  0  0  0  0
    0.8389    1.2116    0.0326 C   0  0  0  0  0  0  0  0  0  0  0  0
    1.5690    0.0099   -0.5000 C   0  0  0  0  0  0  0  0  0  0  0  0
    2.9068    0.1786   -0.0752 O   0  0  0  0  0  0  0  0  0  0  0  0
    1.0222   -1.1832    0.2253 C   0  0  0  0  0  0  0  0  0  0  0  0
   -0.3260   -1.2258    0.3607 O   0  0  0  0  0  0  0  0  0  0  0  0
   -3.0391   -1.1090   -0.3620 H   0  0  0  0  0  0  0  0  0  0  0  0
   -2.9358    0.7080   -0.3726 H   0  0  0  0  0  0  0  0  0  0  0  0
   -2.6054   -0.1472    1.1450 H   0  0  0  0  0  0  0  0  0  0  0  0
   -0.9543   -0.3230   -1.4056 H   0  0  0  0  0  0  0  0  0  0  0  0
   -1.1166    1.8964    0.5191 H   0  0  0  0  0  0  0  0  0  0  0  0
    1.3060    2.1220    0.3148 H   0  0  0  0  0  0  0  0  0  0  0  0
    1.5401   -0.0545   -1.5846 H   0  0  0  0  0  0  0  0  0  0  0  0
    2.8777    0.5899    0.8470 H   0  0  0  0  0  0  0  0  0  0  0  0
    1.5009   -1.1899    1.2457 H   0  0  0  0  0  0  0  0  0  0  0  0
    1.4246   -2.0994   -0.2896 H   0  0  0  0  0  0  0  0  0  0  0  0
  1  2  1  0
  2  3  1  0
  3  4  2  0
  4  5  1  0
  5  6  1  0
  5  7  1  0
  7  8  1  0
  8  2  1  0
  1  9  1  0
  1 10  1  0
  1 11  1  0
  2 12  1  0
  3 13  1  0
  4 14  1  0
  5 15  1  0
  6 16  1  0
  7 17  1  0
  7 18  1  0
M  END
