
     RDKit          3D

 23 24  0  0  0  0  0  0  0  0999 V2000
    1.8071    1.3245   -0.2795 C   0  0  0  0  0  0  0  0  0  0  0  0
    1.4131    0.1423   -1.1223 C   0  0  0  0  0  0  0  0  0  0  0  0
    1.8826   -1.2268   -0.6363 C   0  0  0  0  0  0  0  0  0  0  0  0
    0.4010   -0.8263   -0.7273 C   0  0  0  0  0  0  0  0  0  0  0  0
   -0.3150   -0.7852    0.5944 C   0  0  0  0  0  0  0  0  0  0  0  0
   -1.1243    0.3652    0.9979 C   0  0  0  0  0  0  0  0  0  0  0  0
   -1.3473    1.5603    0.1102 C   0  0  0  0  0  0  0  0  0  0  0  0
   -1.8537   -0.8975    0.5344 C   0  0  0  0  0  0  0  0  0  0  0  0
   -2.4849   -1.6415    1.5130 O   0  0  0  0  0  0  0  0  0  0  0  0
    1.3543    2.2373   -0.6995 H   0  0  0  0  0  0  0  0  0  0  0  0
    1.5436    1.1331    0.7739 H   0  0  0  0  0  0  0  0  0  0  0  0
    2.9134    1.4618   -0.3391 H   0  0  0  0  0  0  0  0  0  0  0  0
    1.5613    0.3176   -2.2177 H   0  0  0  0  0  0  0  0  0  0  0  0
    2.2810   -1.9238   -1.3896 H   0  0  0  0  0  0  0  0  0  0  0  0
    2.3508   -1.2325    0.3535 H   0  0  0  0  0  0  0  0  0  0  0  0
   -0.1820   -1.3272   -1.5545 H   0  0  0  0  0  0  0  0  0  0  0  0
    0.1253   -1.3861    1.4438 H   0  0  0  0  0  0  0  0  0  0  0  0
   -1.2272    0.6057    2.0904 H   0  0  0  0  0  0  0  0  0  0  0  0
   -0.8581    2.4597    0.5183 H   0  0  0  0  0  0  0  0  0  0  0  0
   -1.0192    1.4264   -0.9210 H   0  0  0  0  0  0  0  0  0  0  0  0
   -2.4650    1.7250    0.0976 H   0  0  0  0  0  0  0  0  0  0  0  0
   -2.3100   -0.8808   -0.4767 H   0  0  0  0  0  0  0  0  0  0  0  0
   -2.4468   -2.6312    1.3360 H   0  0  0  0  0  0  0  0  0  0  0  0
  1  2  1  0
  2  3  1  0
  3  4  1  0
  4  5  1  0
  5  6  1  0
  6  7  1  0
  6  8  1  0
  8  9  1  0
  4  2  1  0
  8  5  1  0
  1 10  1  0
  1 11  1  0
  1 12  1  0
  2 13  1  0
  3 14  1  0
  3 15  1  0
  4 16  1  0
  5 17  1  0
  6 18  1  0
  7 19  1  0
  7 20  1  0
  7 21  1  0
  8 22  1  0
  9 23  1  0
M  END
