
     RDKit          3D

 21 21  0  0  0  0  0  0  0  0999 V2000
    2.4271   -0.0601    0.2267 C   0  0  0  0  0  0  0  0  0  0  0  0
    1.0495    0.0291   -0.4056 C   0  0  0  0  0  0  0  0  0  0  0  0
    0.2605   -1.2117   -0.3016 C   0  0  0  0  0  0  0  0  0  0  0  0
   -1.1739   -1.0952   -0.0152 C   0  0  0  0  0  0  0  0  0  0  0  0
   -1.8382    0.1958   -0.3355 C   0  0  0  0  0  0  0  0  0  0  0  0
   -2.8255    0.4684    0.6421 O   0  0  0  0  0  0  0  0  0  0  0  0
   -0.9378    1.3635   -0.3349 C   0  0  0  0  0  0  0  0  0  0  0  0
   -1.2824    2.4101   -0.8232 O   0  0  0  0  0  0  0  0  0  0  0  0
    0.3880    1.2306    0.2714 C   0  0  0  0  0  0  0  0  0  0  0  0
    2.9547    0.8976   -0.0466 H   0  0  0  0  0  0  0  0  0  0  0  0
    2.2807   -0.0765    1.3170 H   0  0  0  0  0  0  0  0  0  0  0  0
    3.0301   -0.8754   -0.1763 H   0  0  0  0  0  0  0  0  0  0  0  0
    1.2307    0.2930   -1.4877 H   0  0  0  0  0  0  0  0  0  0  0  0
    0.7531   -1.8752    0.4696 H   0  0  0  0  0  0  0  0  0  0  0  0
    0.3908   -1.7896   -1.2630 H   0  0  0  0  0  0  0  0  0  0  0  0
   -1.7478   -1.9043   -0.5583 H   0  0  0  0  0  0  0  0  0  0  0  0
   -1.3554   -1.3336    1.0731 H   0  0  0  0  0  0  0  0  0  0  0  0
   -2.3920    0.1973   -1.3052 H   0  0  0  0  0  0  0  0  0  0  0  0
   -2.4906    0.1325    1.5248 H   0  0  0  0  0  0  0  0  0  0  0  0
    0.2409    0.9029    1.3409 H   0  0  0  0  0  0  0  0  0  0  0  0
    1.0376    2.1007    0.1875 H   0  0  0  0  0  0  0  0  0  0  0  0
  1  2  1  0
  2  3  1  0
  3  4  1  0
  4  5  1  0
  5  6  1  0
  5  7  1  0
  7  8  2  0
  7  9  1  0
  9  2  1  0
  1 10  1  0
  1 11  1  0
  1 12  1  0
  2 13  1  0
  3 14  1  0
  3 15  1  0
  4 16  1  0
  4 17  1  0
  5 18  1  0
  6 19  1  0
  9 20  1  0
  9 21  1  0
M  END
