
     RDKit          3D

 20 20  0  0  0  0  0  0  0  0999 V2000
   -2.7553   -0.4307   -0.1675 C   0  0  0  0  0  0  0  0  0  0  0  0
   -1.4569    0.0914    0.3332 C   0  0  0  0  0  0  0  0  0  0  0  0
   -0.3030   -0.8621    0.0098 C   0  0  0  0  0  0  0  0  0  0  0  0
    0.8027    0.0360    0.5253 C   0  0  0  0  0  0  0  0  0  0  0  0
    2.1496   -0.3366   -0.0218 C   0  0  0  0  0  0  0  0  0  0  0  0
    3.1668    0.4665    0.4339 O   0  0  0  0  0  0  0  0  0  0  0  0
    0.3169    1.3796    0.0495 C   0  0  0  0  0  0  0  0  0  0  0  0
   -1.0205    1.2428   -0.2895 O   0  0  0  0  0  0  0  0  0  0  0  0
   -3.5509    0.2678    0.1000 H   0  0  0  0  0  0  0  0  0  0  0  0
   -2.7382   -0.5925   -1.2619 H   0  0  0  0  0  0  0  0  0  0  0  0
   -2.9602   -1.3862    0.3579 H   0  0  0  0  0  0  0  0  0  0  0  0
   -1.4739    0.2178    1.4152 H   0  0  0  0  0  0  0  0  0  0  0  0
   -0.1913   -0.9286   -1.0856 H   0  0  0  0  0  0  0  0  0  0  0  0
   -0.3839   -1.8086    0.5305 H   0  0  0  0  0  0  0  0  0  0  0  0
    0.7515    0.0268    1.6174 H   0  0  0  0  0  0  0  0  0  0  0  0
    2.0763   -0.3592   -1.1293 H   0  0  0  0  0  0  0  0  0  0  0  0
    2.3591   -1.3716    0.3255 H   0  0  0  0  0  0  0  0  0  0  0  0
    3.9167    0.4278   -0.2079 H   0  0  0  0  0  0  0  0  0  0  0  0
    0.3653    2.1547    0.8604 H   0  0  0  0  0  0  0  0  0  0  0  0
    0.9291    1.7650   -0.8062 H   0  0  0  0  0  0  0  0  0  0  0  0
  1  2  1  0
  2  3  1  0
  3  4  1  0
  4  5  1  0
  5  6  1  0
  4  7  1  0
  7  8  1  0
  8  2  1  0
  1  9  1  0
  1 10  1  0
  1 11  1  0
  2 12  1  0
  3 13  1  0
  3 14  1  0
  4 15  1  0
  5 16  1  0
  5 17  1  0
  6 18  1  0
  7 19  1  0
  7 20  1  0
M  END
