
     RDKit          3D

 19 19  0  0  0  0  0  0  0  0999 V2000
    1.7109    0.0792    0.9826 C   0  0  0  0  0  0  0  0  0  0  0  0
    1.3069    0.2994   -0.4677 C   0  0  0  0  0  0  0  0  0  0  0  0
    0.6789   -0.9105   -1.0531 C   0  0  0  0  0  0  0  0  0  0  0  0
   -0.5181   -1.3977   -0.6868 C   0  0  0  0  0  0  0  0  0  0  0  0
   -1.5300   -1.0017    0.2810 C   0  0  0  0  0  0  0  0  0  0  0  0
   -1.7303    0.4560    0.4164 C   0  0  0  0  0  0  0  0  0  0  0  0
   -0.9886    1.5089    0.0807 C   0  0  0  0  0  0  0  0  0  0  0  0
    0.3237    1.4090   -0.5636 C   0  0  0  0  0  0  0  0  0  0  0  0
    0.6221    2.4092   -1.2820 O   0  0  0  0  0  0  0  0  0  0  0  0
    2.7994    0.0444    1.0495 H   0  0  0  0  0  0  0  0  0  0  0  0
    1.3354   -0.9375    1.2636 H   0  0  0  0  0  0  0  0  0  0  0  0
    1.2175    0.7873    1.6600 H   0  0  0  0  0  0  0  0  0  0  0  0
    2.2039    0.6145   -1.0528 H   0  0  0  0  0  0  0  0  0  0  0  0
    1.2368   -1.4132   -1.8183 H   0  0  0  0  0  0  0  0  0  0  0  0
   -0.7692   -2.3021   -1.2613 H   0  0  0  0  0  0  0  0  0  0  0  0
   -2.5068   -1.4228   -0.0342 H   0  0  0  0  0  0  0  0  0  0  0  0
   -1.3536   -1.4282    1.3115 H   0  0  0  0  0  0  0  0  0  0  0  0
   -2.6731    0.7078    0.8840 H   0  0  0  0  0  0  0  0  0  0  0  0
   -1.3658    2.4981    0.2906 H   0  0  0  0  0  0  0  0  0  0  0  0
  1  2  1  0
  2  3  1  0
  3  4  2  0
  4  5  1  0
  5  6  1  0
  6  7  2  0
  7  8  1  0
  8  9  2  0
  8  2  1  0
  1 10  1  0
  1 11  1  0
  1 12  1  0
  2 13  1  0
  3 14  1  0
  4 15  1  0
  5 16  1  0
  5 17  1  0
  6 18  1  0
  7 19  1  0
M  END
