
     RDKit          3D

 21 21  0  0  0  0  0  0  0  0999 V2000
    2.6302    0.0974    0.2061 C   0  0  0  0  0  0  0  0  0  0  0  0
    1.2283    0.4160   -0.2248 C   0  0  0  0  0  0  0  0  0  0  0  0
    0.7964   -0.5869   -1.2585 C   0  0  0  0  0  0  0  0  0  0  0  0
   -0.5065   -0.8346   -1.1114 C   0  0  0  0  0  0  0  0  0  0  0  0
   -1.0389   -0.0368    0.0056 C   0  0  0  0  0  0  0  0  0  0  0  0
   -2.1466   -0.7155    0.7591 C   0  0  0  0  0  0  0  0  0  0  0  0
   -1.4871    1.3076   -0.4428 C   0  0  0  0  0  0  0  0  0  0  0  0
   -1.5435    2.1977    0.3872 O   0  0  0  0  0  0  0  0  0  0  0  0
    0.2099    0.1377    0.8643 C   0  0  0  0  0  0  0  0  0  0  0  0
    3.2898    0.2434   -0.6634 H   0  0  0  0  0  0  0  0  0  0  0  0
    2.7142   -0.9470    0.5205 H   0  0  0  0  0  0  0  0  0  0  0  0
    2.9522    0.8230    0.9796 H   0  0  0  0  0  0  0  0  0  0  0  0
    1.1212    1.4468   -0.5645 H   0  0  0  0  0  0  0  0  0  0  0  0
    1.4340   -1.0307   -1.9948 H   0  0  0  0  0  0  0  0  0  0  0  0
   -1.1038   -1.5132   -1.7082 H   0  0  0  0  0  0  0  0  0  0  0  0
   -1.9707   -1.8032    0.8828 H   0  0  0  0  0  0  0  0  0  0  0  0
   -3.0668   -0.6176    0.1456 H   0  0  0  0  0  0  0  0  0  0  0  0
   -2.3191   -0.2072    1.7149 H   0  0  0  0  0  0  0  0  0  0  0  0
   -1.7421    1.4298   -1.4879 H   0  0  0  0  0  0  0  0  0  0  0  0
    0.1026    0.9764    1.5563 H   0  0  0  0  0  0  0  0  0  0  0  0
    0.4465   -0.7829    1.4342 H   0  0  0  0  0  0  0  0  0  0  0  0
  1  2  1  0
  2  3  1  0
  3  4  2  0
  4  5  1  0
  5  6  1  0
  5  7  1  0
  7  8  2  0
  5  9  1  0
  9  2  1  0
  1 10  1  0
  1 11  1  0
  1 12  1  0
  2 13  1  0
  3 14  1  0
  4 15  1  0
  6 16  1  0
  6 17  1  0
  6 18  1  0
  7 19  1  0
  9 20  1  0
  9 21  1  0
M  END
