
     RDKit          3D

 21 21  0  0  0  0  0  0  0  0999 V2000
   -2.6129   -0.1066    0.2888 C   0  0  0  0  0  0  0  0  0  0  0  0
   -1.0898    0.0479    0.3533 C   0  0  0  0  0  0  0  0  0  0  0  0
   -0.4968   -1.2897    0.4102 C   0  0  0  0  0  0  0  0  0  0  0  0
    0.7442   -1.7682    0.3608 C   0  0  0  0  0  0  0  0  0  0  0  0
    2.0820   -1.1519    0.2254 C   0  0  0  0  0  0  0  0  0  0  0  0
    2.5179    0.0799    0.0024 C   0  0  0  0  0  0  0  0  0  0  0  0
    1.8065    1.3394   -0.2010 C   0  0  0  0  0  0  0  0  0  0  0  0
    0.5629    1.6831   -0.5249 C   0  0  0  0  0  0  0  0  0  0  0  0
   -0.6462    0.8679   -0.8201 C   0  0  0  0  0  0  0  0  0  0  0  0
   -3.0524   -0.1213    1.3026 H   0  0  0  0  0  0  0  0  0  0  0  0
   -3.0788    0.7005   -0.3056 H   0  0  0  0  0  0  0  0  0  0  0  0
   -2.8848   -1.0990   -0.1721 H   0  0  0  0  0  0  0  0  0  0  0  0
   -0.8863    0.6559    1.2760 H   0  0  0  0  0  0  0  0  0  0  0  0
   -1.2171   -2.1157    0.5190 H   0  0  0  0  0  0  0  0  0  0  0  0
    0.8279   -2.8271    0.4320 H   0  0  0  0  0  0  0  0  0  0  0  0
    2.9032   -1.8502    0.3291 H   0  0  0  0  0  0  0  0  0  0  0  0
    3.5932    0.1988   -0.0411 H   0  0  0  0  0  0  0  0  0  0  0  0
    2.4712    2.1782   -0.0454 H   0  0  0  0  0  0  0  0  0  0  0  0
    0.4091    2.7678   -0.5828 H   0  0  0  0  0  0  0  0  0  0  0  0
   -1.4692    1.5750   -1.0644 H   0  0  0  0  0  0  0  0  0  0  0  0
   -0.4836    0.2355   -1.7422 H   0  0  0  0  0  0  0  0  0  0  0  0
  1  2  1  0
  2  3  1  0
  3  4  2  3
  4  5  1  0
  5  6  2  3
  6  7  1  0
  7  8  2  3
  8  9  1  0
  9  2  1  0
  1 10  1  0
  1 11  1  0
  1 12  1  0
  2 13  1  0
  3 14  1  0
  4 15  1  0
  5 16  1  0
  6 17  1  0
  7 18  1  0
  8 19  1  0
  9 20  1  0
  9 21  1  0
M  END
