
     RDKit          3D

 20 21  0  0  0  0  0  0  0  0999 V2000
    2.5305    0.3008   -0.6457 C   0  0  0  0  0  0  0  0  0  0  0  0
    1.1646    0.1829   -0.0791 C   0  0  0  0  0  0  0  0  0  0  0  0
    0.8652   -1.1902    0.4933 C   0  0  0  0  0  0  0  0  0  0  0  0
   -0.6515   -1.0451    0.6920 C   0  0  0  0  0  0  0  0  0  0  0  0
   -0.9769    0.0385   -0.2883 C   0  0  0  0  0  0  0  0  0  0  0  0
   -2.3349    0.2787   -0.7820 C   0  0  0  0  0  0  0  0  0  0  0  0
   -1.6920    1.2811    0.1399 C   0  0  0  0  0  0  0  0  0  0  0  0
    0.1549    0.2643   -1.0623 O   0  0  0  0  0  0  0  0  0  0  0  0
    3.2559   -0.0738    0.1031 H   0  0  0  0  0  0  0  0  0  0  0  0
    2.6447   -0.1455   -1.6348 H   0  0  0  0  0  0  0  0  0  0  0  0
    2.7601    1.3924   -0.7602 H   0  0  0  0  0  0  0  0  0  0  0  0
    0.9493    0.9150    0.6958 H   0  0  0  0  0  0  0  0  0  0  0  0
    0.9783   -1.9776   -0.2865 H   0  0  0  0  0  0  0  0  0  0  0  0
    1.3855   -1.4002    1.4252 H   0  0  0  0  0  0  0  0  0  0  0  0
   -1.1803   -1.9850    0.5372 H   0  0  0  0  0  0  0  0  0  0  0  0
   -0.7544   -0.6446    1.7393 H   0  0  0  0  0  0  0  0  0  0  0  0
   -2.4906    0.5114   -1.8463 H   0  0  0  0  0  0  0  0  0  0  0  0
   -3.1418   -0.3586   -0.3206 H   0  0  0  0  0  0  0  0  0  0  0  0
   -2.0539    1.4058    1.1710 H   0  0  0  0  0  0  0  0  0  0  0  0
   -1.4127    2.2496   -0.3634 H   0  0  0  0  0  0  0  0  0  0  0  0
  1  2  1  0
  2  3  1  0
  3  4  1  0
  4  5  1  0
  5  6  1  0
  6  7  1  0
  5  8  1  0
  8  2  1  0
  7  5  1  0
  1  9  1  0
  1 10  1  0
  1 11  1  0
  2 12  1  0
  3 13  1  0
  3 14  1  0
  4 15  1  0
  4 16  1  0
  6 17  1  0
  6 18  1  0
  7 19  1  0
  7 20  1  0
M  END
