
     RDKit          3D

 19 20  0  0  0  0  0  0  0  0999 V2000
   -2.0667    0.6671    0.5828 C   0  0  0  0  0  0  0  0  0  0  0  0
   -1.2052   -0.2068   -0.2658 C   0  0  0  0  0  0  0  0  0  0  0  0
   -0.1397    0.5096   -1.0802 C   0  0  0  0  0  0  0  0  0  0  0  0
    0.9104   -0.3779   -0.4873 C   0  0  0  0  0  0  0  0  0  0  0  0
    2.1366    0.1355   -0.0698 O   0  0  0  0  0  0  0  0  0  0  0  0
    2.3201    1.1009    0.8970 C   0  0  0  0  0  0  0  0  0  0  0  0
    1.3066    1.5686    1.4597 O   0  0  0  0  0  0  0  0  0  0  0  0
    0.7035   -1.8581   -0.3956 C   0  0  0  0  0  0  0  0  0  0  0  0
   -0.0866   -0.9319    0.4474 C   0  0  0  0  0  0  0  0  0  0  0  0
   -2.4604    0.0582    1.4464 H   0  0  0  0  0  0  0  0  0  0  0  0
   -1.5510    1.5438    0.9850 H   0  0  0  0  0  0  0  0  0  0  0  0
   -2.9624    0.9494   -0.0005 H   0  0  0  0  0  0  0  0  0  0  0  0
   -1.8358   -0.8844   -0.8863 H   0  0  0  0  0  0  0  0  0  0  0  0
    0.0196    1.5614   -0.8405 H   0  0  0  0  0  0  0  0  0  0  0  0
   -0.2268    0.3015   -2.1833 H   0  0  0  0  0  0  0  0  0  0  0  0
    3.3366    1.3976    1.1119 H   0  0  0  0  0  0  0  0  0  0  0  0
    0.1551   -2.3214   -1.2413 H   0  0  0  0  0  0  0  0  0  0  0  0
    1.5521   -2.4336   -0.0167 H   0  0  0  0  0  0  0  0  0  0  0  0
    0.0941   -0.7795    1.5108 H   0  0  0  0  0  0  0  0  0  0  0  0
  1  2  1  0
  2  3  1  0
  3  4  1  0
  4  5  1  0
  5  6  1  0
  6  7  2  0
  4  8  1  0
  8  9  1  0
  9  2  1  0
  9  4  1  0
  1 10  1  0
  1 11  1  0
  1 12  1  0
  2 13  1  0
  3 14  1  0
  3 15  1  0
  6 16  1  0
  8 17  1  0
  8 18  1  0
  9 19  1  0
M  END
