
     RDKit          3D

 20 21  0  0  0  0  0  0  0  0999 V2000
    1.8133   -0.8040   -0.3252 C   0  0  0  0  0  0  0  0  0  0  0  0
    0.8789    0.1080    0.3978 C   0  0  0  0  0  0  0  0  0  0  0  0
    0.7974    1.5003   -0.2322 C   0  0  0  0  0  0  0  0  0  0  0  0
   -0.7304    1.4193   -0.0994 C   0  0  0  0  0  0  0  0  0  0  0  0
   -0.5566   -0.0259    0.2063 C   0  0  0  0  0  0  0  0  0  0  0  0
   -1.1215   -0.9608   -0.7833 C   0  0  0  0  0  0  0  0  0  0  0  0
   -2.1754   -1.2197    0.1227 O   0  0  0  0  0  0  0  0  0  0  0  0
   -1.4180   -0.6771    1.1857 C   0  0  0  0  0  0  0  0  0  0  0  0
    2.8079   -0.2819   -0.4209 H   0  0  0  0  0  0  0  0  0  0  0  0
    1.4920   -1.0197   -1.3515 H   0  0  0  0  0  0  0  0  0  0  0  0
    2.0106   -1.7075    0.2660 H   0  0  0  0  0  0  0  0  0  0  0  0
    1.1711    0.1836    1.4695 H   0  0  0  0  0  0  0  0  0  0  0  0
    1.1527    1.4698   -1.2700 H   0  0  0  0  0  0  0  0  0  0  0  0
    1.2395    2.2841    0.3967 H   0  0  0  0  0  0  0  0  0  0  0  0
   -1.2049    1.5580   -1.0876 H   0  0  0  0  0  0  0  0  0  0  0  0
   -1.1377    2.0731    0.6688 H   0  0  0  0  0  0  0  0  0  0  0  0
   -0.5507   -1.8399   -1.0848 H   0  0  0  0  0  0  0  0  0  0  0  0
   -1.5466   -0.4444   -1.6825 H   0  0  0  0  0  0  0  0  0  0  0  0
   -0.9271   -1.5311    1.7188 H   0  0  0  0  0  0  0  0  0  0  0  0
   -1.9945   -0.0843    1.9049 H   0  0  0  0  0  0  0  0  0  0  0  0
  1  2  1  0
  2  3  1  0
  3  4  1  0
  4  5  1  0
  5  6  1  0
  6  7  1  0
  7  8  1  0
  5  2  1  0
  8  5  1  0
  1  9  1  0
  1 10  1  0
  1 11  1  0
  2 12  1  0
  3 13  1  0
  3 14  1  0
  4 15  1  0
  4 16  1  0
  6 17  1  0
  6 18  1  0
  8 19  1  0
  8 20  1  0
M  END
