
     RDKit          3D

 19 20  0  0  0  0  0  0  0  0999 V2000
   -1.6882   -0.2510   -1.3261 C   0  0  0  0  0  0  0  0  0  0  0  0
   -0.4046   -0.4841   -0.6115 C   0  0  0  0  0  0  0  0  0  0  0  0
   -0.4696   -0.3987    0.9063 C   0  0  0  0  0  0  0  0  0  0  0  0
   -0.4850   -1.6048    1.5630 O   0  0  0  0  0  0  0  0  0  0  0  0
    0.7653    0.4162    0.9842 C   0  0  0  0  0  0  0  0  0  0  0  0
    1.8618    0.3904    0.0228 C   0  0  0  0  0  0  0  0  0  0  0  0
    2.4050   -0.8060   -0.4605 O   0  0  0  0  0  0  0  0  0  0  0  0
    0.5370    0.7083   -0.5318 C   0  0  0  0  0  0  0  0  0  0  0  0
    0.0980    1.9630   -0.8130 O   0  0  0  0  0  0  0  0  0  0  0  0
   -1.9979    0.7860   -1.2299 H   0  0  0  0  0  0  0  0  0  0  0  0
   -1.5713   -0.6073   -2.3728 H   0  0  0  0  0  0  0  0  0  0  0  0
   -2.4862   -0.8922   -0.8661 H   0  0  0  0  0  0  0  0  0  0  0  0
    0.1228   -1.4419   -0.8709 H   0  0  0  0  0  0  0  0  0  0  0  0
   -1.3970    0.1879    1.1764 H   0  0  0  0  0  0  0  0  0  0  0  0
   -0.9011   -1.4522    2.4699 H   0  0  0  0  0  0  0  0  0  0  0  0
    0.6912    1.3051    1.6585 H   0  0  0  0  0  0  0  0  0  0  0  0
    2.5898    1.2131    0.0574 H   0  0  0  0  0  0  0  0  0  0  0  0
    2.4494   -1.5025    0.2133 H   0  0  0  0  0  0  0  0  0  0  0  0
   -0.1193    2.4708    0.0312 H   0  0  0  0  0  0  0  0  0  0  0  0
  1  2  1  0
  2  3  1  0
  3  4  1  0
  3  5  1  0
  5  6  1  0
  6  7  1  0
  6  8  1  0
  8  9  1  0
  8  2  1  0
  8  5  1  0
  1 10  1  0
  1 11  1  0
  1 12  1  0
  2 13  1  0
  3 14  1  0
  4 15  1  0
  5 16  1  0
  6 17  1  0
  7 18  1  0
  9 19  1  0
M  END
