
     RDKit          3D

 20 20  0  0  0  0  0  0  0  0999 V2000
   -1.8724    0.5362    0.5586 C   0  0  0  0  0  0  0  0  0  0  0  0
   -0.9164   -0.2189   -0.3254 C   0  0  0  0  0  0  0  0  0  0  0  0
   -0.3610   -1.4431    0.3372 C   0  0  0  0  0  0  0  0  0  0  0  0
    1.1389   -1.3577    0.0370 C   0  0  0  0  0  0  0  0  0  0  0  0
    1.3398    0.1517    0.2158 C   0  0  0  0  0  0  0  0  0  0  0  0
    2.5958    0.4884   -0.2075 O   0  0  0  0  0  0  0  0  0  0  0  0
    0.2325    0.6843   -0.6677 C   0  0  0  0  0  0  0  0  0  0  0  0
   -0.0234    2.0156   -0.3558 O   0  0  0  0  0  0  0  0  0  0  0  0
   -1.3506    0.8507    1.4736 H   0  0  0  0  0  0  0  0  0  0  0  0
   -2.7555   -0.0892    0.8185 H   0  0  0  0  0  0  0  0  0  0  0  0
   -2.2106    1.4317    0.0215 H   0  0  0  0  0  0  0  0  0  0  0  0
   -1.4215   -0.5501   -1.2608 H   0  0  0  0  0  0  0  0  0  0  0  0
   -0.8035   -2.3802    0.0078 H   0  0  0  0  0  0  0  0  0  0  0  0
   -0.4415   -1.2755    1.4449 H   0  0  0  0  0  0  0  0  0  0  0  0
    1.3535   -1.5643   -1.0254 H   0  0  0  0  0  0  0  0  0  0  0  0
    1.7405   -1.9283    0.7459 H   0  0  0  0  0  0  0  0  0  0  0  0
    1.1517    0.3456    1.2911 H   0  0  0  0  0  0  0  0  0  0  0  0
    2.7439    1.4350   -0.3709 H   0  0  0  0  0  0  0  0  0  0  0  0
    0.5393    0.5307   -1.7159 H   0  0  0  0  0  0  0  0  0  0  0  0
   -0.6794    2.3374   -1.0225 H   0  0  0  0  0  0  0  0  0  0  0  0
  1  2  1  0
  2  3  1  0
  3  4  1  0
  4  5  1  0
  5  6  1  0
  5  7  1  0
  7  8  1  0
  7  2  1  0
  1  9  1  0
  1 10  1  0
  1 11  1  0
  2 12  1  0
  3 13  1  0
  3 14  1  0
  4 15  1  0
  4 16  1  0
  5 17  1  0
  6 18  1  0
  7 19  1  0
  8 20  1  0
M  END
