
     RDKit          3D

 21 22  0  0  0  0  0  0  0  0999 V2000
    1.8623   -1.0750   -0.5804 C   0  0  0  0  0  0  0  0  0  0  0  0
    1.2304    0.2742   -0.5895 C   0  0  0  0  0  0  0  0  0  0  0  0
    0.9267    0.9568    0.7553 C   0  0  0  0  0  0  0  0  0  0  0  0
    1.1793    2.4164    0.8165 C   0  0  0  0  0  0  0  0  0  0  0  0
    1.7806    2.8763    1.7646 O   0  0  0  0  0  0  0  0  0  0  0  0
   -0.1649    0.4923   -0.1136 C   0  0  0  0  0  0  0  0  0  0  0  0
   -0.9820   -0.7289    0.2042 C   0  0  0  0  0  0  0  0  0  0  0  0
   -2.3597   -0.6630    0.6778 C   0  0  0  0  0  0  0  0  0  0  0  0
   -2.1497   -0.9942   -0.7694 C   0  0  0  0  0  0  0  0  0  0  0  0
    2.9800   -0.9156   -0.5840 H   0  0  0  0  0  0  0  0  0  0  0  0
    1.6617   -1.6408    0.3532 H   0  0  0  0  0  0  0  0  0  0  0  0
    1.6206   -1.6366   -1.4979 H   0  0  0  0  0  0  0  0  0  0  0  0
    1.6314    0.9500   -1.3984 H   0  0  0  0  0  0  0  0  0  0  0  0
    1.3163    0.3859    1.6018 H   0  0  0  0  0  0  0  0  0  0  0  0
    0.8486    3.0993    0.0457 H   0  0  0  0  0  0  0  0  0  0  0  0
   -0.7234    1.2750   -0.6673 H   0  0  0  0  0  0  0  0  0  0  0  0
   -0.3735   -1.6145    0.4847 H   0  0  0  0  0  0  0  0  0  0  0  0
   -2.9031    0.2776    0.8647 H   0  0  0  0  0  0  0  0  0  0  0  0
   -2.7317   -1.5224    1.2855 H   0  0  0  0  0  0  0  0  0  0  0  0
   -2.3640   -0.1917   -1.5208 H   0  0  0  0  0  0  0  0  0  0  0  0
   -2.2860   -2.0212   -1.1326 H   0  0  0  0  0  0  0  0  0  0  0  0
  1  2  1  0
  2  3  1  0
  3  4  1  0
  4  5  2  0
  3  6  1  0
  6  7  1  0
  7  8  1  0
  8  9  1  0
  6  2  1  0
  9  7  1  0
  1 10  1  0
  1 11  1  0
  1 12  1  0
  2 13  1  0
  3 14  1  0
  4 15  1  0
  6 16  1  0
  7 17  1  0
  8 18  1  0
  8 19  1  0
  9 20  1  0
  9 21  1  0
M  END
