
     RDKit          3D

 19 21  0  0  0  0  0  0  0  0999 V2000
    2.5226    0.2572    0.6209 C   0  0  0  0  0  0  0  0  0  0  0  0
    1.0327    0.4427    0.7036 C   0  0  0  0  0  0  0  0  0  0  0  0
    0.3286    0.5693   -0.5957 C   0  0  0  0  0  0  0  0  0  0  0  0
   -1.1409    0.8537   -0.5211 C   0  0  0  0  0  0  0  0  0  0  0  0
   -1.8979    0.6964    0.7187 C   0  0  0  0  0  0  0  0  0  0  0  0
   -1.3072   -0.5064    0.1418 C   0  0  0  0  0  0  0  0  0  0  0  0
   -2.0401   -1.4529   -0.5493 O   0  0  0  0  0  0  0  0  0  0  0  0
    0.1819   -0.6572    0.2340 C   0  0  0  0  0  0  0  0  0  0  0  0
    0.7914   -1.8458   -0.1082 O   0  0  0  0  0  0  0  0  0  0  0  0
    2.8913    0.2810   -0.4472 H   0  0  0  0  0  0  0  0  0  0  0  0
    2.8590   -0.6817    1.0866 H   0  0  0  0  0  0  0  0  0  0  0  0
    3.0095    1.1639    1.0852 H   0  0  0  0  0  0  0  0  0  0  0  0
    0.6981    1.0002    1.5941 H   0  0  0  0  0  0  0  0  0  0  0  0
    0.8299    0.5447   -1.5578 H   0  0  0  0  0  0  0  0  0  0  0  0
   -1.6903    1.0852   -1.4384 H   0  0  0  0  0  0  0  0  0  0  0  0
   -1.4511    1.1081    1.6527 H   0  0  0  0  0  0  0  0  0  0  0  0
   -2.9916    0.8017    0.6615 H   0  0  0  0  0  0  0  0  0  0  0  0
   -2.7657   -1.0673   -1.0869 H   0  0  0  0  0  0  0  0  0  0  0  0
    0.1398   -2.5928    0.0136 H   0  0  0  0  0  0  0  0  0  0  0  0
  1  2  1  0
  2  3  1  0
  3  4  1  0
  4  5  1  0
  5  6  1  0
  6  7  1  0
  6  8  1  0
  8  9  1  0
  8  2  1  0
  8  3  1  0
  6  4  1  0
  1 10  1  0
  1 11  1  0
  1 12  1  0
  2 13  1  0
  3 14  1  0
  4 15  1  0
  5 16  1  0
  5 17  1  0
  7 18  1  0
  9 19  1  0
M  END
