
     RDKit          3D

 23 24  0  0  0  0  0  0  0  0999 V2000
    2.2898    0.3195    0.7827 C   0  0  0  0  0  0  0  0  0  0  0  0
    1.3188   -0.3990   -0.1456 C   0  0  0  0  0  0  0  0  0  0  0  0
    0.8551    0.5090   -1.2589 C   0  0  0  0  0  0  0  0  0  0  0  0
   -0.2785    1.2636   -0.5827 C   0  0  0  0  0  0  0  0  0  0  0  0
   -0.9476    0.1500    0.1858 C   0  0  0  0  0  0  0  0  0  0  0  0
   -2.2533    0.3391    0.7838 C   0  0  0  0  0  0  0  0  0  0  0  0
   -2.1568   -0.5379   -0.4240 C   0  0  0  0  0  0  0  0  0  0  0  0
    0.1105   -0.7570    0.6722 C   0  0  0  0  0  0  0  0  0  0  0  0
   -0.1669   -2.1098    0.4249 O   0  0  0  0  0  0  0  0  0  0  0  0
    1.7162    0.7941    1.6062 H   0  0  0  0  0  0  0  0  0  0  0  0
    2.9517   -0.4839    1.1966 H   0  0  0  0  0  0  0  0  0  0  0  0
    2.8838    1.0419    0.2018 H   0  0  0  0  0  0  0  0  0  0  0  0
    1.7872   -1.2773   -0.6149 H   0  0  0  0  0  0  0  0  0  0  0  0
    0.4559   -0.0828   -2.0984 H   0  0  0  0  0  0  0  0  0  0  0  0
    1.6390    1.1940   -1.6166 H   0  0  0  0  0  0  0  0  0  0  0  0
   -0.9875    1.7016   -1.2834 H   0  0  0  0  0  0  0  0  0  0  0  0
    0.1642    1.9642    0.1367 H   0  0  0  0  0  0  0  0  0  0  0  0
   -2.7591    1.3256    0.5674 H   0  0  0  0  0  0  0  0  0  0  0  0
   -2.5307   -0.1014    1.7518 H   0  0  0  0  0  0  0  0  0  0  0  0
   -2.2937   -1.6326   -0.2462 H   0  0  0  0  0  0  0  0  0  0  0  0
   -2.3969   -0.1658   -1.4299 H   0  0  0  0  0  0  0  0  0  0  0  0
    0.2879   -0.6113    1.7754 H   0  0  0  0  0  0  0  0  0  0  0  0
    0.3107   -2.4438   -0.3845 H   0  0  0  0  0  0  0  0  0  0  0  0
  1  2  1  0
  2  3  1  0
  3  4  1  0
  4  5  1  0
  5  6  1  0
  6  7  1  0
  5  8  1  0
  8  9  1  0
  8  2  1  0
  7  5  1  0
  1 10  1  0
  1 11  1  0
  1 12  1  0
  2 13  1  0
  3 14  1  0
  3 15  1  0
  4 16  1  0
  4 17  1  0
  6 18  1  0
  6 19  1  0
  7 20  1  0
  7 21  1  0
  8 22  1  0
  9 23  1  0
M  END
