
     RDKit          3D

 21 23  0  0  0  0  0  0  0  0999 V2000
   -2.6159    1.0772   -0.3537 C   0  0  0  0  0  0  0  0  0  0  0  0
   -1.4856    0.3631    0.4140 C   0  0  0  0  0  0  0  0  0  0  0  0
   -0.1041    0.7298    0.2850 C   0  0  0  0  0  0  0  0  0  0  0  0
    1.1090   -0.1081    0.0772 C   0  0  0  0  0  0  0  0  0  0  0  0
    2.4418    0.3938    0.2846 C   0  0  0  0  0  0  0  0  0  0  0  0
    1.8525   -0.8937    0.9524 C   0  0  0  0  0  0  0  0  0  0  0  0
    0.4539   -0.4153   -1.2268 C   0  0  0  0  0  0  0  0  0  0  0  0
   -0.7456   -0.6070   -0.2874 C   0  0  0  0  0  0  0  0  0  0  0  0
   -0.4248   -1.7595    0.4924 O   0  0  0  0  0  0  0  0  0  0  0  0
   -2.4859    2.1578   -0.0838 H   0  0  0  0  0  0  0  0  0  0  0  0
   -3.5982    0.7694    0.0007 H   0  0  0  0  0  0  0  0  0  0  0  0
   -2.4626    0.9592   -1.4462 H   0  0  0  0  0  0  0  0  0  0  0  0
   -1.8359    0.1902    1.4769 H   0  0  0  0  0  0  0  0  0  0  0  0
   -0.0005    1.5599   -0.4914 H   0  0  0  0  0  0  0  0  0  0  0  0
    3.2847    0.2678   -0.3839 H   0  0  0  0  0  0  0  0  0  0  0  0
    2.5625    1.2641    0.9919 H   0  0  0  0  0  0  0  0  0  0  0  0
    1.7135   -0.8125    2.0648 H   0  0  0  0  0  0  0  0  0  0  0  0
    2.3775   -1.7974    0.6592 H   0  0  0  0  0  0  0  0  0  0  0  0
    0.3389    0.4217   -1.9373 H   0  0  0  0  0  0  0  0  0  0  0  0
    0.7179   -1.3297   -1.7447 H   0  0  0  0  0  0  0  0  0  0  0  0
   -1.0935   -2.4308    0.2561 H   0  0  0  0  0  0  0  0  0  0  0  0
  1  2  1  0
  2  3  1  0
  3  4  1  0
  4  5  1  0
  5  6  1  0
  4  7  1  0
  7  8  1  0
  8  9  1  0
  8  2  1  0
  8  3  1  0
  6  4  1  0
  1 10  1  0
  1 11  1  0
  1 12  1  0
  2 13  1  0
  3 14  1  0
  5 15  1  0
  5 16  1  0
  6 17  1  0
  6 18  1  0
  7 19  1  0
  7 20  1  0
  9 21  1  0
M  END
