
     RDKit          3D

 21 22  0  0  0  0  0  0  0  0999 V2000
    2.3514   -0.4520    0.4522 C   0  0  0  0  0  0  0  0  0  0  0  0
    0.8682   -0.5346    0.5056 C   0  0  0  0  0  0  0  0  0  0  0  0
    0.1885   -0.8276   -0.8078 C   0  0  0  0  0  0  0  0  0  0  0  0
   -1.2778   -1.1729   -0.7291 C   0  0  0  0  0  0  0  0  0  0  0  0
   -1.5066    0.1473   -0.0417 C   0  0  0  0  0  0  0  0  0  0  0  0
   -1.9804    0.0729    1.3466 C   0  0  0  0  0  0  0  0  0  0  0  0
   -2.1834   -0.9863    1.9381 O   0  0  0  0  0  0  0  0  0  0  0  0
   -0.0318    0.4392   -0.0983 C   0  0  0  0  0  0  0  0  0  0  0  0
    0.3486    1.7679   -0.6090 C   0  0  0  0  0  0  0  0  0  0  0  0
    2.7369   -0.5952   -0.5998 H   0  0  0  0  0  0  0  0  0  0  0  0
    2.7751   -1.3263    1.0188 H   0  0  0  0  0  0  0  0  0  0  0  0
    2.7778    0.5016    0.7918 H   0  0  0  0  0  0  0  0  0  0  0  0
    0.4339   -1.1440    1.3511 H   0  0  0  0  0  0  0  0  0  0  0  0
    0.7493   -0.9250   -1.7333 H   0  0  0  0  0  0  0  0  0  0  0  0
   -1.7483   -1.2821   -1.7255 H   0  0  0  0  0  0  0  0  0  0  0  0
   -1.4526   -1.9995   -0.0234 H   0  0  0  0  0  0  0  0  0  0  0  0
   -2.1096    0.8394   -0.7001 H   0  0  0  0  0  0  0  0  0  0  0  0
   -2.1634    0.9767    1.8856 H   0  0  0  0  0  0  0  0  0  0  0  0
    0.1571    1.8761   -1.6940 H   0  0  0  0  0  0  0  0  0  0  0  0
    1.3763    2.0878   -0.4196 H   0  0  0  0  0  0  0  0  0  0  0  0
   -0.3093    2.5366   -0.1081 H   0  0  0  0  0  0  0  0  0  0  0  0
  1  2  1  0
  2  3  1  0
  3  4  1  0
  4  5  1  0
  5  6  1  0
  6  7  2  0
  5  8  1  0
  8  9  1  0
  8  2  1  0
  8  3  1  0
  1 10  1  0
  1 11  1  0
  1 12  1  0
  2 13  1  0
  3 14  1  0
  4 15  1  0
  4 16  1  0
  5 17  1  0
  6 18  1  0
  9 19  1  0
  9 20  1  0
  9 21  1  0
M  END
