
     RDKit          3D

 21 22  0  0  0  0  0  0  0  0999 V2000
   -2.7877    0.2875    0.3139 C   0  0  0  0  0  0  0  0  0  0  0  0
   -1.2807    0.2510    0.3540 C   0  0  0  0  0  0  0  0  0  0  0  0
   -0.6737   -0.5356   -0.8130 C   0  0  0  0  0  0  0  0  0  0  0  0
    0.3675   -1.4592   -0.3961 C   0  0  0  0  0  0  0  0  0  0  0  0
    1.6015   -1.3296    0.0131 C   0  0  0  0  0  0  0  0  0  0  0  0
    2.3926   -0.0963    0.1957 C   0  0  0  0  0  0  0  0  0  0  0  0
    1.5015    1.1019    0.5314 C   0  0  0  0  0  0  0  0  0  0  0  0
    0.7640    1.3961   -0.5550 O   0  0  0  0  0  0  0  0  0  0  0  0
   -0.4709    0.8904   -0.6988 C   0  0  0  0  0  0  0  0  0  0  0  0
   -3.2248    1.1538    0.7980 H   0  0  0  0  0  0  0  0  0  0  0  0
   -3.1242   -0.6307    0.8728 H   0  0  0  0  0  0  0  0  0  0  0  0
   -3.1882    0.1591   -0.7111 H   0  0  0  0  0  0  0  0  0  0  0  0
   -0.8665    0.1410    1.3524 H   0  0  0  0  0  0  0  0  0  0  0  0
   -1.3616   -0.9208   -1.6061 H   0  0  0  0  0  0  0  0  0  0  0  0
    0.0382   -2.5107   -0.4330 H   0  0  0  0  0  0  0  0  0  0  0  0
    2.1114   -2.2478    0.2495 H   0  0  0  0  0  0  0  0  0  0  0  0
    3.1413   -0.2617    0.9967 H   0  0  0  0  0  0  0  0  0  0  0  0
    2.9439    0.1662   -0.7263 H   0  0  0  0  0  0  0  0  0  0  0  0
    2.2362    1.9479    0.6939 H   0  0  0  0  0  0  0  0  0  0  0  0
    0.9878    0.9742    1.4826 H   0  0  0  0  0  0  0  0  0  0  0  0
   -1.1076    1.5231   -1.3981 H   0  0  0  0  0  0  0  0  0  0  0  0
  1  2  1  0
  2  3  1  0
  3  4  1  0
  4  5  2  0
  5  6  1  0
  6  7  1  0
  7  8  1  0
  8  9  1  0
  9  2  1  0
  9  3  1  0
  1 10  1  0
  1 11  1  0
  1 12  1  0
  2 13  1  0
  3 14  1  0
  4 15  1  0
  5 16  1  0
  6 17  1  0
  6 18  1  0
  7 19  1  0
  7 20  1  0
  9 21  1  0
M  END
