
     RDKit          3D

 21 23  0  0  0  0  0  0  0  0999 V2000
    0.2071    2.1613   -0.1994 C   0  0  0  0  0  0  0  0  0  0  0  0
   -0.0867    0.6921   -0.5268 C   0  0  0  0  0  0  0  0  0  0  0  0
   -1.3938    0.2534    0.0088 C   0  0  0  0  0  0  0  0  0  0  0  0
   -2.3036   -0.7689   -0.3030 C   0  0  0  0  0  0  0  0  0  0  0  0
   -1.0144   -1.2832   -0.0705 C   0  0  0  0  0  0  0  0  0  0  0  0
   -0.0344   -1.2156    1.0076 C   0  0  0  0  0  0  0  0  0  0  0  0
    0.3878   -0.1352    1.6970 O   0  0  0  0  0  0  0  0  0  0  0  0
    0.8444   -0.0857    0.4224 C   0  0  0  0  0  0  0  0  0  0  0  0
    2.1617   -0.5343   -0.0405 C   0  0  0  0  0  0  0  0  0  0  0  0
   -0.5974    2.8266   -0.5008 H   0  0  0  0  0  0  0  0  0  0  0  0
    0.3787    2.2410    0.9109 H   0  0  0  0  0  0  0  0  0  0  0  0
    1.1874    2.3749   -0.6701 H   0  0  0  0  0  0  0  0  0  0  0  0
    0.0972    0.4508   -1.5698 H   0  0  0  0  0  0  0  0  0  0  0  0
   -1.4806    0.6618    1.0670 H   0  0  0  0  0  0  0  0  0  0  0  0
   -3.1143   -1.0427    0.4343 H   0  0  0  0  0  0  0  0  0  0  0  0
   -2.7588   -0.7844   -1.3281 H   0  0  0  0  0  0  0  0  0  0  0  0
   -0.4703   -1.5922   -1.0229 H   0  0  0  0  0  0  0  0  0  0  0  0
    0.4852   -2.1716    1.2659 H   0  0  0  0  0  0  0  0  0  0  0  0
    2.9286    0.2504   -0.0310 H   0  0  0  0  0  0  0  0  0  0  0  0
    2.4980   -1.4063    0.5555 H   0  0  0  0  0  0  0  0  0  0  0  0
    2.0780   -0.8921   -1.1063 H   0  0  0  0  0  0  0  0  0  0  0  0
  1  2  1  0
  2  3  1  0
  3  4  1  0
  4  5  1  0
  5  6  1  0
  6  7  1  0
  7  8  1  0
  8  9  1  0
  8  2  1  0
  5  3  1  0
  8  6  1  0
  1 10  1  0
  1 11  1  0
  1 12  1  0
  2 13  1  0
  3 14  1  0
  4 15  1  0
  4 16  1  0
  5 17  1  0
  6 18  1  0
  9 19  1  0
  9 20  1  0
  9 21  1  0
M  END
