
     RDKit          3D

 23 24  0  0  0  0  0  0  0  0999 V2000
    2.4777   -0.5454    1.0745 C   0  0  0  0  0  0  0  0  0  0  0  0
    2.0207    0.7621    0.5057 C   0  0  0  0  0  0  0  0  0  0  0  0
    2.1173    0.8496   -1.0056 C   0  0  0  0  0  0  0  0  0  0  0  0
    0.7600    0.7676   -0.3867 C   0  0  0  0  0  0  0  0  0  0  0  0
    0.0696   -0.4064   -0.3270 O   0  0  0  0  0  0  0  0  0  0  0  0
   -1.2938   -0.2979   -0.2755 C   0  0  0  0  0  0  0  0  0  0  0  0
   -2.0519    0.3803   -1.3917 C   0  0  0  0  0  0  0  0  0  0  0  0
   -1.9692   -1.5128    0.3688 C   0  0  0  0  0  0  0  0  0  0  0  0
   -1.9931   -0.2038    1.0681 C   0  0  0  0  0  0  0  0  0  0  0  0
    1.6678   -1.3117    1.0177 H   0  0  0  0  0  0  0  0  0  0  0  0
    2.8018   -0.4814    2.1356 H   0  0  0  0  0  0  0  0  0  0  0  0
    3.3344   -0.9463    0.4943 H   0  0  0  0  0  0  0  0  0  0  0  0
    2.1899    1.6675    1.1069 H   0  0  0  0  0  0  0  0  0  0  0  0
    2.4882    1.8105   -1.3658 H   0  0  0  0  0  0  0  0  0  0  0  0
    2.5316   -0.0227   -1.5649 H   0  0  0  0  0  0  0  0  0  0  0  0
    0.2020    1.7411   -0.3909 H   0  0  0  0  0  0  0  0  0  0  0  0
   -1.5090    0.3613   -2.3566 H   0  0  0  0  0  0  0  0  0  0  0  0
   -3.0497   -0.0882   -1.4748 H   0  0  0  0  0  0  0  0  0  0  0  0
   -2.2245    1.4414   -1.0714 H   0  0  0  0  0  0  0  0  0  0  0  0
   -2.8952   -1.8961   -0.1092 H   0  0  0  0  0  0  0  0  0  0  0  0
   -1.3520   -2.2895    0.8209 H   0  0  0  0  0  0  0  0  0  0  0  0
   -1.3577   -0.0634    1.9845 H   0  0  0  0  0  0  0  0  0  0  0  0
   -2.9648    0.2843    1.1433 H   0  0  0  0  0  0  0  0  0  0  0  0
  1  2  1  0
  2  3  1  0
  3  4  1  0
  4  5  1  0
  5  6  1  0
  6  7  1  0
  6  8  1  0
  8  9  1  0
  4  2  1  0
  9  6  1  0
  1 10  1  0
  1 11  1  0
  1 12  1  0
  2 13  1  0
  3 14  1  0
  3 15  1  0
  4 16  1  0
  7 17  1  0
  7 18  1  0
  7 19  1  0
  8 20  1  0
  8 21  1  0
  9 22  1  0
  9 23  1  0
M  END
