
     RDKit          3D

 21 21  0  0  0  0  0  0  0  0999 V2000
    2.5985    0.0097    0.3987 C   0  0  0  0  0  0  0  0  0  0  0  0
    1.2669    0.3453   -0.1918 C   0  0  0  0  0  0  0  0  0  0  0  0
    0.7850   -0.7025   -1.1833 C   0  0  0  0  0  0  0  0  0  0  0  0
   -0.5709   -0.5068   -1.2544 O   0  0  0  0  0  0  0  0  0  0  0  0
   -1.0279   -0.0280   -0.0538 C   0  0  0  0  0  0  0  0  0  0  0  0
   -1.9282   -1.0520    0.5842 C   0  0  0  0  0  0  0  0  0  0  0  0
   -1.7862    1.2921   -0.2381 C   0  0  0  0  0  0  0  0  0  0  0  0
    0.1521    0.2891    0.7844 C   0  0  0  0  0  0  0  0  0  0  0  0
    0.2545    0.4699    1.9715 O   0  0  0  0  0  0  0  0  0  0  0  0
    3.3068    0.8302    0.0985 H   0  0  0  0  0  0  0  0  0  0  0  0
    3.0430   -0.9264    0.0193 H   0  0  0  0  0  0  0  0  0  0  0  0
    2.6100   -0.0380    1.4908 H   0  0  0  0  0  0  0  0  0  0  0  0
    1.2767    1.3195   -0.7523 H   0  0  0  0  0  0  0  0  0  0  0  0
    1.0402   -1.7317   -0.8272 H   0  0  0  0  0  0  0  0  0  0  0  0
    1.3092   -0.5042   -2.1547 H   0  0  0  0  0  0  0  0  0  0  0  0
   -1.4041   -2.0221    0.5627 H   0  0  0  0  0  0  0  0  0  0  0  0
   -2.8241   -1.1486   -0.0464 H   0  0  0  0  0  0  0  0  0  0  0  0
   -2.2635   -0.7654    1.5903 H   0  0  0  0  0  0  0  0  0  0  0  0
   -2.2744    1.5479    0.6992 H   0  0  0  0  0  0  0  0  0  0  0  0
   -1.0283    2.0890   -0.4669 H   0  0  0  0  0  0  0  0  0  0  0  0
   -2.5352    1.2330   -1.0307 H   0  0  0  0  0  0  0  0  0  0  0  0
  1  2  1  0
  2  3  1  0
  3  4  1  0
  4  5  1  0
  5  6  1  0
  5  7  1  0
  5  8  1  0
  8  9  2  0
  8  2  1  0
  1 10  1  0
  1 11  1  0
  1 12  1  0
  2 13  1  0
  3 14  1  0
  3 15  1  0
  6 16  1  0
  6 17  1  0
  6 18  1  0
  7 19  1  0
  7 20  1  0
  7 21  1  0
M  END
