
     RDKit          3D

 23 24  0  0  0  0  0  0  0  0999 V2000
   -2.2170   -0.7378   -0.1707 C   0  0  0  0  0  0  0  0  0  0  0  0
   -0.9822   -0.2535    0.5345 C   0  0  0  0  0  0  0  0  0  0  0  0
   -0.0680   -1.4663    0.6903 C   0  0  0  0  0  0  0  0  0  0  0  0
    1.2371   -0.8246    1.0373 C   0  0  0  0  0  0  0  0  0  0  0  0
    2.2888   -1.3205    0.2972 O   0  0  0  0  0  0  0  0  0  0  0  0
    2.1982   -0.2557   -0.6124 C   0  0  0  0  0  0  0  0  0  0  0  0
    1.2390    0.4633    0.2580 C   0  0  0  0  0  0  0  0  0  0  0  0
   -0.1470    0.6837   -0.2650 C   0  0  0  0  0  0  0  0  0  0  0  0
   -0.5218    2.1262    0.1006 C   0  0  0  0  0  0  0  0  0  0  0  0
   -1.8835   -1.2629   -1.0913 H   0  0  0  0  0  0  0  0  0  0  0  0
   -2.6906   -1.4994    0.5051 H   0  0  0  0  0  0  0  0  0  0  0  0
   -2.9744    0.0316   -0.3406 H   0  0  0  0  0  0  0  0  0  0  0  0
   -1.1575    0.1582    1.5299 H   0  0  0  0  0  0  0  0  0  0  0  0
   -0.0144   -2.0748   -0.2170 H   0  0  0  0  0  0  0  0  0  0  0  0
   -0.5074   -2.0735    1.5015 H   0  0  0  0  0  0  0  0  0  0  0  0
    1.4087   -0.6550    2.1078 H   0  0  0  0  0  0  0  0  0  0  0  0
    3.1899    0.2624   -0.6852 H   0  0  0  0  0  0  0  0  0  0  0  0
    1.8730   -0.5578   -1.6163 H   0  0  0  0  0  0  0  0  0  0  0  0
    1.6923    1.2959    0.8211 H   0  0  0  0  0  0  0  0  0  0  0  0
   -0.2488    0.5675   -1.3525 H   0  0  0  0  0  0  0  0  0  0  0  0
   -1.3557    2.4990   -0.5118 H   0  0  0  0  0  0  0  0  0  0  0  0
    0.3606    2.7682   -0.1068 H   0  0  0  0  0  0  0  0  0  0  0  0
   -0.7191    2.1259    1.1851 H   0  0  0  0  0  0  0  0  0  0  0  0
  1  2  1  0
  2  3  1  0
  3  4  1  0
  4  5  1  0
  5  6  1  0
  6  7  1  0
  7  8  1  0
  8  9  1  0
  8  2  1  0
  7  4  1  0
  1 10  1  0
  1 11  1  0
  1 12  1  0
  2 13  1  0
  3 14  1  0
  3 15  1  0
  4 16  1  0
  6 17  1  0
  6 18  1  0
  7 19  1  0
  8 20  1  0
  9 21  1  0
  9 22  1  0
  9 23  1  0
M  END
