
     RDKit          3D

 21 22  0  0  0  0  0  0  0  0999 V2000
   -2.3092   -0.2438   -0.9633 C   0  0  0  0  0  0  0  0  0  0  0  0
   -1.3969   -0.3370    0.2286 C   0  0  0  0  0  0  0  0  0  0  0  0
   -0.2496   -1.3321    0.0720 C   0  0  0  0  0  0  0  0  0  0  0  0
    0.6959   -0.2275    0.2470 C   0  0  0  0  0  0  0  0  0  0  0  0
    1.8310   -0.0700   -0.6972 C   0  0  0  0  0  0  0  0  0  0  0  0
    2.3524    0.6753    0.5411 C   0  0  0  0  0  0  0  0  0  0  0  0
    1.5708   -0.2316    1.2970 O   0  0  0  0  0  0  0  0  0  0  0  0
   -0.3732    0.8065    0.2341 C   0  0  0  0  0  0  0  0  0  0  0  0
   -0.4485    1.6256    1.3450 O   0  0  0  0  0  0  0  0  0  0  0  0
   -3.1307    0.4298   -0.7081 H   0  0  0  0  0  0  0  0  0  0  0  0
   -1.7562    0.1469   -1.8261 H   0  0  0  0  0  0  0  0  0  0  0  0
   -2.7554   -1.2381   -1.1739 H   0  0  0  0  0  0  0  0  0  0  0  0
   -1.8881   -0.3856    1.2186 H   0  0  0  0  0  0  0  0  0  0  0  0
   -0.2614   -1.7986   -0.9329 H   0  0  0  0  0  0  0  0  0  0  0  0
   -0.2639   -2.1195    0.8772 H   0  0  0  0  0  0  0  0  0  0  0  0
    2.3754   -1.0016   -0.9183 H   0  0  0  0  0  0  0  0  0  0  0  0
    1.6513    0.6062   -1.5452 H   0  0  0  0  0  0  0  0  0  0  0  0
    3.4243    0.6113    0.7012 H   0  0  0  0  0  0  0  0  0  0  0  0
    1.8666    1.6560    0.5785 H   0  0  0  0  0  0  0  0  0  0  0  0
   -0.3551    1.3728   -0.7237 H   0  0  0  0  0  0  0  0  0  0  0  0
   -0.5794    1.0551    2.1486 H   0  0  0  0  0  0  0  0  0  0  0  0
  1  2  1  0
  2  3  1  0
  3  4  1  0
  4  5  1  0
  5  6  1  0
  6  7  1  0
  4  8  1  0
  8  9  1  0
  8  2  1  0
  7  4  1  0
  1 10  1  0
  1 11  1  0
  1 12  1  0
  2 13  1  0
  3 14  1  0
  3 15  1  0
  5 16  1  0
  5 17  1  0
  6 18  1  0
  6 19  1  0
  8 20  1  0
  9 21  1  0
M  END
