
     RDKit          3D

 20 21  0  0  0  0  0  0  0  0999 V2000
    2.6625   -0.0598   -0.2568 C   0  0  0  0  0  0  0  0  0  0  0  0
    1.3826    0.5513    0.1700 C   0  0  0  0  0  0  0  0  0  0  0  0
    0.1960    0.3250   -0.7792 C   0  0  0  0  0  0  0  0  0  0  0  0
   -0.6454    0.3608    0.4817 C   0  0  0  0  0  0  0  0  0  0  0  0
   -1.8655   -0.4967    0.4264 C   0  0  0  0  0  0  0  0  0  0  0  0
   -2.8323   -0.1282   -0.6844 C   0  0  0  0  0  0  0  0  0  0  0  0
   -1.9982   -1.3398   -0.6746 O   0  0  0  0  0  0  0  0  0  0  0  0
    0.5621   -0.2722    1.1734 C   0  0  0  0  0  0  0  0  0  0  0  0
    2.9727   -0.9531    0.3120 H   0  0  0  0  0  0  0  0  0  0  0  0
    2.6857   -0.2540   -1.3553 H   0  0  0  0  0  0  0  0  0  0  0  0
    3.4767    0.7051   -0.0914 H   0  0  0  0  0  0  0  0  0  0  0  0
    1.3936    1.5977    0.5181 H   0  0  0  0  0  0  0  0  0  0  0  0
    0.0180    1.1185   -1.4955 H   0  0  0  0  0  0  0  0  0  0  0  0
    0.2088   -0.7226   -1.1714 H   0  0  0  0  0  0  0  0  0  0  0  0
   -0.7869    1.3906    0.8664 H   0  0  0  0  0  0  0  0  0  0  0  0
   -2.3621   -0.7613    1.3739 H   0  0  0  0  0  0  0  0  0  0  0  0
   -3.8980   -0.3437   -0.5651 H   0  0  0  0  0  0  0  0  0  0  0  0
   -2.5004    0.6152   -1.4511 H   0  0  0  0  0  0  0  0  0  0  0  0
    0.6879    0.0461    2.2104 H   0  0  0  0  0  0  0  0  0  0  0  0
    0.6420   -1.3789    0.9925 H   0  0  0  0  0  0  0  0  0  0  0  0
  1  2  1  0
  2  3  1  0
  3  4  1  0
  4  5  1  0
  5  6  1  0
  6  7  1  0
  4  8  1  0
  8  2  1  0
  7  5  1  0
  1  9  1  0
  1 10  1  0
  1 11  1  0
  2 12  1  0
  3 13  1  0
  3 14  1  0
  4 15  1  0
  5 16  1  0
  6 17  1  0
  6 18  1  0
  8 19  1  0
  8 20  1  0
M  END
