
     RDKit          3D

 23 25  0  0  0  0  0  0  0  0999 V2000
    2.6936    0.2592   -0.2782 C   0  0  0  0  0  0  0  0  0  0  0  0
    1.2377    0.1663   -0.6143 C   0  0  0  0  0  0  0  0  0  0  0  0
    0.7936   -1.2640   -0.7918 C   0  0  0  0  0  0  0  0  0  0  0  0
   -0.4495   -1.4473    0.0445 C   0  0  0  0  0  0  0  0  0  0  0  0
   -1.6024   -0.6751   -0.5851 C   0  0  0  0  0  0  0  0  0  0  0  0
   -1.1385    0.5347    0.1663 C   0  0  0  0  0  0  0  0  0  0  0  0
   -2.1156    1.5287    0.7113 C   0  0  0  0  0  0  0  0  0  0  0  0
    0.3360    0.7247    0.4560 C   0  0  0  0  0  0  0  0  0  0  0  0
   -0.3687   -0.3679    1.0758 C   0  0  0  0  0  0  0  0  0  0  0  0
    2.7711    0.6047    0.7752 H   0  0  0  0  0  0  0  0  0  0  0  0
    3.1948   -0.7416   -0.3213 H   0  0  0  0  0  0  0  0  0  0  0  0
    3.2527    0.9772   -0.9304 H   0  0  0  0  0  0  0  0  0  0  0  0
    1.0368    0.7269   -1.5440 H   0  0  0  0  0  0  0  0  0  0  0  0
    1.5978   -1.9919   -0.5283 H   0  0  0  0  0  0  0  0  0  0  0  0
    0.5678   -1.4549   -1.8666 H   0  0  0  0  0  0  0  0  0  0  0  0
   -0.6743   -2.4509    0.3861 H   0  0  0  0  0  0  0  0  0  0  0  0
   -2.5565   -1.1246   -0.2123 H   0  0  0  0  0  0  0  0  0  0  0  0
   -1.5605   -0.6113   -1.6942 H   0  0  0  0  0  0  0  0  0  0  0  0
   -2.3206    2.3201   -0.0416 H   0  0  0  0  0  0  0  0  0  0  0  0
   -1.6038    2.0610    1.5581 H   0  0  0  0  0  0  0  0  0  0  0  0
   -3.0206    1.0801    1.1426 H   0  0  0  0  0  0  0  0  0  0  0  0
    0.5889    1.6402    0.9925 H   0  0  0  0  0  0  0  0  0  0  0  0
   -0.6598   -0.4944    2.0997 H   0  0  0  0  0  0  0  0  0  0  0  0
  1  2  1  0
  2  3  1  0
  3  4  1  0
  4  5  1  0
  5  6  1  0
  6  7  1  0
  6  8  1  0
  8  9  1  0
  8  2  1  0
  9  4  1  0
  9  6  1  0
  1 10  1  0
  1 11  1  0
  1 12  1  0
  2 13  1  0
  3 14  1  0
  3 15  1  0
  4 16  1  0
  5 17  1  0
  5 18  1  0
  7 19  1  0
  7 20  1  0
  7 21  1  0
  8 22  1  0
  9 23  1  0
M  END
