
     RDKit          3D

 23 23  0  0  0  0  0  0  0  0999 V2000
    2.3662    0.4398   -0.0324 C   0  0  0  0  0  0  0  0  0  0  0  0
    0.9898   -0.1152    0.3455 C   0  0  0  0  0  0  0  0  0  0  0  0
    0.6612   -1.2950   -0.4980 C   0  0  0  0  0  0  0  0  0  0  0  0
   -0.7608   -1.7312   -0.1177 C   0  0  0  0  0  0  0  0  0  0  0  0
   -1.6509   -0.6329   -0.6249 C   0  0  0  0  0  0  0  0  0  0  0  0
   -1.3846    0.6710    0.0304 C   0  0  0  0  0  0  0  0  0  0  0  0
   -1.9523    1.6769   -0.7865 O   0  0  0  0  0  0  0  0  0  0  0  0
    0.0198    0.9933    0.3197 C   0  0  0  0  0  0  0  0  0  0  0  0
    0.0914    1.6523    1.5708 O   0  0  0  0  0  0  0  0  0  0  0  0
    2.9191   -0.2545   -0.6695 H   0  0  0  0  0  0  0  0  0  0  0  0
    2.2219    1.3840   -0.6236 H   0  0  0  0  0  0  0  0  0  0  0  0
    2.9287    0.7388    0.8714 H   0  0  0  0  0  0  0  0  0  0  0  0
    1.1105   -0.4882    1.4048 H   0  0  0  0  0  0  0  0  0  0  0  0
    1.3222   -2.1230   -0.2390 H   0  0  0  0  0  0  0  0  0  0  0  0
    0.7048   -1.0763   -1.5861 H   0  0  0  0  0  0  0  0  0  0  0  0
   -0.8196   -1.6931    1.0058 H   0  0  0  0  0  0  0  0  0  0  0  0
   -1.0236   -2.7014   -0.5342 H   0  0  0  0  0  0  0  0  0  0  0  0
   -1.4322   -0.5230   -1.7228 H   0  0  0  0  0  0  0  0  0  0  0  0
   -2.7227   -0.8661   -0.5357 H   0  0  0  0  0  0  0  0  0  0  0  0
   -1.9918    0.7009    0.9808 H   0  0  0  0  0  0  0  0  0  0  0  0
   -1.9091    2.5571   -0.3828 H   0  0  0  0  0  0  0  0  0  0  0  0
    0.3814    1.7708   -0.4155 H   0  0  0  0  0  0  0  0  0  0  0  0
   -0.0698    0.9150    2.2395 H   0  0  0  0  0  0  0  0  0  0  0  0
  1  2  1  0
  2  3  1  0
  3  4  1  0
  4  5  1  0
  5  6  1  0
  6  7  1  0
  6  8  1  0
  8  9  1  0
  8  2  1  0
  1 10  1  0
  1 11  1  0
  1 12  1  0
  2 13  1  0
  3 14  1  0
  3 15  1  0
  4 16  1  0
  4 17  1  0
  5 18  1  0
  5 19  1  0
  6 20  1  0
  7 21  1  0
  8 22  1  0
  9 23  1  0
M  END
