
     RDKit          3D

 19 19  0  0  0  0  0  0  0  0999 V2000
   -1.1876   -1.2498    1.3003 C   0  0  0  0  0  0  0  0  0  0  0  0
   -0.7192   -1.2959   -0.1385 C   0  0  0  0  0  0  0  0  0  0  0  0
   -1.4044   -0.2219   -0.9576 C   0  0  0  0  0  0  0  0  0  0  0  0
   -0.2566    0.6459   -1.3856 C   0  0  0  0  0  0  0  0  0  0  0  0
    0.7601    0.3284   -0.3081 C   0  0  0  0  0  0  0  0  0  0  0  0
    2.0120    0.7540   -0.7589 O   0  0  0  0  0  0  0  0  0  0  0  0
    2.8213    1.6101   -0.0296 C   0  0  0  0  0  0  0  0  0  0  0  0
    2.3471    1.9919    1.0954 O   0  0  0  0  0  0  0  0  0  0  0  0
    0.6480   -1.0602   -0.2438 O   0  0  0  0  0  0  0  0  0  0  0  0
   -1.9621   -2.0150    1.5011 H   0  0  0  0  0  0  0  0  0  0  0  0
   -1.6777   -0.2539    1.4476 H   0  0  0  0  0  0  0  0  0  0  0  0
   -0.3474   -1.2818    2.0249 H   0  0  0  0  0  0  0  0  0  0  0  0
   -0.9201   -2.2872   -0.5840 H   0  0  0  0  0  0  0  0  0  0  0  0
   -2.1366    0.3342   -0.3419 H   0  0  0  0  0  0  0  0  0  0  0  0
   -1.8661   -0.6612   -1.8675 H   0  0  0  0  0  0  0  0  0  0  0  0
    0.1357    0.2626   -2.3459 H   0  0  0  0  0  0  0  0  0  0  0  0
   -0.5099    1.7205   -1.4191 H   0  0  0  0  0  0  0  0  0  0  0  0
    0.4701    0.7265    0.6688 H   0  0  0  0  0  0  0  0  0  0  0  0
    3.7932    1.9528   -0.3579 H   0  0  0  0  0  0  0  0  0  0  0  0
  1  2  1  0
  2  3  1  0
  3  4  1  0
  4  5  1  0
  5  6  1  0
  6  7  1  0
  7  8  2  0
  5  9  1  0
  9  2  1  0
  1 10  1  0
  1 11  1  0
  1 12  1  0
  2 13  1  0
  3 14  1  0
  3 15  1  0
  4 16  1  0
  4 17  1  0
  5 18  1  0
  7 19  1  0
M  END
