
     RDKit          3D

 21 22  0  0  0  0  0  0  0  0999 V2000
    2.1559    0.3690   -0.3930 C   0  0  0  0  0  0  0  0  0  0  0  0
    1.0327   -0.1158    0.5049 C   0  0  0  0  0  0  0  0  0  0  0  0
    0.3090   -1.2074   -0.2523 C   0  0  0  0  0  0  0  0  0  0  0  0
   -1.1154   -0.7385   -0.5724 C   0  0  0  0  0  0  0  0  0  0  0  0
   -1.7471   -0.5467    0.7904 C   0  0  0  0  0  0  0  0  0  0  0  0
   -1.0907    0.3425    1.5246 C   0  0  0  0  0  0  0  0  0  0  0  0
    0.0489    0.9851    0.8179 C   0  0  0  0  0  0  0  0  0  0  0  0
   -0.3472    1.5107   -0.4165 O   0  0  0  0  0  0  0  0  0  0  0  0
   -1.0738    0.6485   -1.1901 C   0  0  0  0  0  0  0  0  0  0  0  0
    1.7943    0.4316   -1.4538 H   0  0  0  0  0  0  0  0  0  0  0  0
    2.5620    1.3364   -0.0977 H   0  0  0  0  0  0  0  0  0  0  0  0
    2.9388   -0.4193   -0.3749 H   0  0  0  0  0  0  0  0  0  0  0  0
    1.4754   -0.4484    1.4422 H   0  0  0  0  0  0  0  0  0  0  0  0
    0.1903   -2.0670    0.4600 H   0  0  0  0  0  0  0  0  0  0  0  0
    0.8038   -1.5019   -1.1800 H   0  0  0  0  0  0  0  0  0  0  0  0
   -1.6597   -1.4249   -1.2017 H   0  0  0  0  0  0  0  0  0  0  0  0
   -2.6175   -1.0954    1.0619 H   0  0  0  0  0  0  0  0  0  0  0  0
   -1.3040    0.6231    2.5395 H   0  0  0  0  0  0  0  0  0  0  0  0
    0.4374    1.7858    1.4339 H   0  0  0  0  0  0  0  0  0  0  0  0
   -2.1296    1.0055   -1.2175 H   0  0  0  0  0  0  0  0  0  0  0  0
   -0.6635    0.5273   -2.2252 H   0  0  0  0  0  0  0  0  0  0  0  0
  1  2  1  0
  2  3  1  0
  3  4  1  0
  4  5  1  0
  5  6  2  0
  6  7  1  0
  7  8  1  0
  8  9  1  0
  7  2  1  0
  9  4  1  0
  1 10  1  0
  1 11  1  0
  1 12  1  0
  2 13  1  0
  3 14  1  0
  3 15  1  0
  4 16  1  0
  5 17  1  0
  6 18  1  0
  7 19  1  0
  9 20  1  0
  9 21  1  0
M  END
