
     RDKit          3D

 23 24  0  0  0  0  0  0  0  0999 V2000
   -1.5778    1.2195   -1.0499 C   0  0  0  0  0  0  0  0  0  0  0  0
   -1.2735    0.3611    0.1266 C   0  0  0  0  0  0  0  0  0  0  0  0
   -2.1763   -0.8804    0.1940 C   0  0  0  0  0  0  0  0  0  0  0  0
   -1.5432   -1.6180    1.1751 O   0  0  0  0  0  0  0  0  0  0  0  0
   -0.1944   -1.4482    1.0630 C   0  0  0  0  0  0  0  0  0  0  0  0
    0.0466   -0.3377    0.0462 C   0  0  0  0  0  0  0  0  0  0  0  0
    1.2220    0.5202    0.4035 C   0  0  0  0  0  0  0  0  0  0  0  0
    2.5499   -0.2115    0.3144 C   0  0  0  0  0  0  0  0  0  0  0  0
    2.2066    0.8537   -0.7408 C   0  0  0  0  0  0  0  0  0  0  0  0
   -2.3674    0.8033   -1.7155 H   0  0  0  0  0  0  0  0  0  0  0  0
   -0.6713    1.5276   -1.6128 H   0  0  0  0  0  0  0  0  0  0  0  0
   -2.0141    2.1840   -0.6608 H   0  0  0  0  0  0  0  0  0  0  0  0
   -1.4341    0.8859    1.0889 H   0  0  0  0  0  0  0  0  0  0  0  0
   -2.0480   -1.4094   -0.7679 H   0  0  0  0  0  0  0  0  0  0  0  0
   -3.2022   -0.6270    0.4437 H   0  0  0  0  0  0  0  0  0  0  0  0
    0.3830   -2.3489    0.8281 H   0  0  0  0  0  0  0  0  0  0  0  0
    0.2338   -1.0530    2.0278 H   0  0  0  0  0  0  0  0  0  0  0  0
    0.1504   -0.8031   -0.9324 H   0  0  0  0  0  0  0  0  0  0  0  0
    1.1538    1.2284    1.2259 H   0  0  0  0  0  0  0  0  0  0  0  0
    2.5830   -1.2313   -0.0975 H   0  0  0  0  0  0  0  0  0  0  0  0
    3.3588    0.0558    1.0310 H   0  0  0  0  0  0  0  0  0  0  0  0
    2.6922    1.8256   -0.6384 H   0  0  0  0  0  0  0  0  0  0  0  0
    1.9225    0.5036   -1.7522 H   0  0  0  0  0  0  0  0  0  0  0  0
  1  2  1  0
  2  3  1  0
  3  4  1  0
  4  5  1  0
  5  6  1  0
  6  7  1  0
  7  8  1  0
  8  9  1  0
  6  2  1  0
  9  7  1  0
  1 10  1  0
  1 11  1  0
  1 12  1  0
  2 13  1  0
  3 14  1  0
  3 15  1  0
  5 16  1  0
  5 17  1  0
  6 18  1  0
  7 19  1  0
  8 20  1  0
  8 21  1  0
  9 22  1  0
  9 23  1  0
M  END
