
     RDKit          3D

 19 20  0  0  0  0  0  0  0  0999 V2000
    2.1170   -0.5773    0.0838 C   0  0  0  0  0  0  0  0  0  0  0  0
    0.7479   -0.1174    0.3865 C   0  0  0  0  0  0  0  0  0  0  0  0
    0.4254    1.2494   -0.2561 C   0  0  0  0  0  0  0  0  0  0  0  0
   -1.0959    1.1905   -0.5238 C   0  0  0  0  0  0  0  0  0  0  0  0
   -1.4629    0.0870    0.3833 C   0  0  0  0  0  0  0  0  0  0  0  0
   -1.6276   -1.2998    0.2469 C   0  0  0  0  0  0  0  0  0  0  0  0
   -0.3603   -0.8895   -0.1992 C   0  0  0  0  0  0  0  0  0  0  0  0
    2.1755   -1.5510   -0.4378 H   0  0  0  0  0  0  0  0  0  0  0  0
    2.6753    0.2314   -0.4252 H   0  0  0  0  0  0  0  0  0  0  0  0
    2.6682   -0.7385    1.0577 H   0  0  0  0  0  0  0  0  0  0  0  0
    0.5856    0.0396    1.4717 H   0  0  0  0  0  0  0  0  0  0  0  0
    0.9748    1.3132   -1.2242 H   0  0  0  0  0  0  0  0  0  0  0  0
    0.6380    2.0735    0.4269 H   0  0  0  0  0  0  0  0  0  0  0  0
   -1.3037    0.9005   -1.5626 H   0  0  0  0  0  0  0  0  0  0  0  0
   -1.5549    2.1451   -0.2193 H   0  0  0  0  0  0  0  0  0  0  0  0
   -1.2874    0.4384    1.4490 H   0  0  0  0  0  0  0  0  0  0  0  0
   -2.3954   -1.6729   -0.4855 H   0  0  0  0  0  0  0  0  0  0  0  0
   -1.6723   -1.9593    1.1573 H   0  0  0  0  0  0  0  0  0  0  0  0
   -0.2473   -0.8631   -1.3296 H   0  0  0  0  0  0  0  0  0  0  0  0
  1  2  1  0
  2  3  1  0
  3  4  1  0
  4  5  1  0
  5  6  1  0
  6  7  1  0
  7  2  1  0
  7  5  1  0
  1  8  1  0
  1  9  1  0
  1 10  1  0
  2 11  1  0
  3 12  1  0
  3 13  1  0
  4 14  1  0
  4 15  1  0
  5 16  1  0
  6 17  1  0
  6 18  1  0
  7 19  1  0
M  END
