
     RDKit          3D

 23 24  0  0  0  0  0  0  0  0999 V2000
   -2.6772    0.2372    0.4825 C   0  0  0  0  0  0  0  0  0  0  0  0
   -1.4020    0.4048   -0.3382 C   0  0  0  0  0  0  0  0  0  0  0  0
   -0.7857   -0.9718   -0.4553 C   0  0  0  0  0  0  0  0  0  0  0  0
    0.4229   -0.9663    0.4344 C   0  0  0  0  0  0  0  0  0  0  0  0
    1.6794   -1.1217   -0.4107 C   0  0  0  0  0  0  0  0  0  0  0  0
    1.9064    0.3602   -0.2402 C   0  0  0  0  0  0  0  0  0  0  0  0
    3.1662    0.5595    0.3576 O   0  0  0  0  0  0  0  0  0  0  0  0
    0.7733    0.4567    0.7333 C   0  0  0  0  0  0  0  0  0  0  0  0
   -0.4010    1.2892    0.3213 C   0  0  0  0  0  0  0  0  0  0  0  0
   -3.3831   -0.3254   -0.1953 H   0  0  0  0  0  0  0  0  0  0  0  0
   -3.1204    1.1854    0.7792 H   0  0  0  0  0  0  0  0  0  0  0  0
   -2.4980   -0.4650    1.3359 H   0  0  0  0  0  0  0  0  0  0  0  0
   -1.7185    0.7969   -1.3391 H   0  0  0  0  0  0  0  0  0  0  0  0
   -1.4588   -1.7744   -0.0984 H   0  0  0  0  0  0  0  0  0  0  0  0
   -0.5611   -1.1613   -1.5134 H   0  0  0  0  0  0  0  0  0  0  0  0
    0.3837   -1.5645    1.3441 H   0  0  0  0  0  0  0  0  0  0  0  0
    2.3774   -1.7887    0.1004 H   0  0  0  0  0  0  0  0  0  0  0  0
    1.4899   -1.4300   -1.4538 H   0  0  0  0  0  0  0  0  0  0  0  0
    1.8140    0.9765   -1.1423 H   0  0  0  0  0  0  0  0  0  0  0  0
    3.8655    0.7374   -0.2928 H   0  0  0  0  0  0  0  0  0  0  0  0
    1.1309    0.6832    1.7481 H   0  0  0  0  0  0  0  0  0  0  0  0
   -0.8786    1.6948    1.2544 H   0  0  0  0  0  0  0  0  0  0  0  0
   -0.1254    2.1875   -0.2726 H   0  0  0  0  0  0  0  0  0  0  0  0
  1  2  1  0
  2  3  1  0
  3  4  1  0
  4  5  1  0
  5  6  1  0
  6  7  1  0
  6  8  1  0
  8  9  1  0
  9  2  1  0
  8  4  1  0
  1 10  1  0
  1 11  1  0
  1 12  1  0
  2 13  1  0
  3 14  1  0
  3 15  1  0
  4 16  1  0
  5 17  1  0
  5 18  1  0
  6 19  1  0
  7 20  1  0
  8 21  1  0
  9 22  1  0
  9 23  1  0
M  END
