
     RDKit          3D

 19 20  0  0  0  0  0  0  0  0999 V2000
   -1.9629   -0.1144   -0.5955 C   0  0  0  0  0  0  0  0  0  0  0  0
   -1.1084    0.6908    0.3333 C   0  0  0  0  0  0  0  0  0  0  0  0
   -0.2558   -0.0321    1.3064 C   0  0  0  0  0  0  0  0  0  0  0  0
    0.4159   -1.1150    0.4699 C   0  0  0  0  0  0  0  0  0  0  0  0
    0.9056   -0.1741   -0.6480 C   0  0  0  0  0  0  0  0  0  0  0  0
    2.3599   -0.0123   -0.4966 C   0  0  0  0  0  0  0  0  0  0  0  0
    2.8152    0.2606    0.5843 O   0  0  0  0  0  0  0  0  0  0  0  0
    0.2429    1.0880   -0.1530 C   0  0  0  0  0  0  0  0  0  0  0  0
    0.6396    1.0621    1.2063 O   0  0  0  0  0  0  0  0  0  0  0  0
   -2.5254    0.6137   -1.2260 H   0  0  0  0  0  0  0  0  0  0  0  0
   -2.7418   -0.6446    0.0061 H   0  0  0  0  0  0  0  0  0  0  0  0
   -1.4182   -0.7742   -1.2719 H   0  0  0  0  0  0  0  0  0  0  0  0
   -1.6607    1.5088    0.7839 H   0  0  0  0  0  0  0  0  0  0  0  0
   -0.6071   -0.2895    2.2764 H   0  0  0  0  0  0  0  0  0  0  0  0
   -0.3174   -1.8334    0.0899 H   0  0  0  0  0  0  0  0  0  0  0  0
    1.2499   -1.5966    0.9837 H   0  0  0  0  0  0  0  0  0  0  0  0
    0.5719   -0.5014   -1.6264 H   0  0  0  0  0  0  0  0  0  0  0  0
    3.0091   -0.1353   -1.3368 H   0  0  0  0  0  0  0  0  0  0  0  0
    0.3877    1.9989   -0.6861 H   0  0  0  0  0  0  0  0  0  0  0  0
  1  2  1  0
  2  3  1  0
  3  4  1  0
  4  5  1  0
  5  6  1  0
  6  7  2  0
  5  8  1  0
  8  9  1  0
  8  2  1  0
  9  3  1  0
  1 10  1  0
  1 11  1  0
  1 12  1  0
  2 13  1  0
  3 14  1  0
  4 15  1  0
  4 16  1  0
  5 17  1  0
  6 18  1  0
  8 19  1  0
M  END
