
     RDKit          3D

 19 20  0  0  0  0  0  0  0  0999 V2000
   -0.9530    1.6187    0.1130 C   0  0  0  0  0  0  0  0  0  0  0  0
   -0.3528    0.4603   -0.5958 C   0  0  0  0  0  0  0  0  0  0  0  0
   -0.7885   -0.9128   -0.1499 C   0  0  0  0  0  0  0  0  0  0  0  0
   -1.9228   -1.4320   -0.2426 O   0  0  0  0  0  0  0  0  0  0  0  0
    0.5147   -1.3934   -0.7228 C   0  0  0  0  0  0  0  0  0  0  0  0
    0.8926   -0.1386    0.0134 C   0  0  0  0  0  0  0  0  0  0  0  0
    2.0956    0.4530    0.1164 C   0  0  0  0  0  0  0  0  0  0  0  0
    2.9270    0.1742    0.9946 O   0  0  0  0  0  0  0  0  0  0  0  0
   -0.0028   -0.6320    1.1143 C   0  0  0  0  0  0  0  0  0  0  0  0
   -1.0038    2.4726   -0.6205 H   0  0  0  0  0  0  0  0  0  0  0  0
   -2.0187    1.4416    0.4068 H   0  0  0  0  0  0  0  0  0  0  0  0
   -0.3339    1.9724    0.9555 H   0  0  0  0  0  0  0  0  0  0  0  0
   -0.3034    0.5442   -1.7128 H   0  0  0  0  0  0  0  0  0  0  0  0
   -2.6777   -0.8057   -0.3572 H   0  0  0  0  0  0  0  0  0  0  0  0
    0.9109   -2.3417   -0.2864 H   0  0  0  0  0  0  0  0  0  0  0  0
    0.6096   -1.2785   -1.8066 H   0  0  0  0  0  0  0  0  0  0  0  0
    2.4622    1.2430   -0.5675 H   0  0  0  0  0  0  0  0  0  0  0  0
   -0.4335    0.1094    1.7831 H   0  0  0  0  0  0  0  0  0  0  0  0
    0.3783   -1.5546    1.5652 H   0  0  0  0  0  0  0  0  0  0  0  0
  1  2  1  0
  2  3  1  0
  3  4  1  0
  3  5  1  0
  5  6  1  0
  6  7  1  0
  7  8  2  0
  6  9  1  0
  6  2  1  0
  9  3  1  0
  1 10  1  0
  1 11  1  0
  1 12  1  0
  2 13  1  0
  4 14  1  0
  5 15  1  0
  5 16  1  0
  7 17  1  0
  9 18  1  0
  9 19  1  0
M  END
