
     RDKit          3D

 21 22  0  0  0  0  0  0  0  0999 V2000
    2.3128    0.8486   -0.0674 C   0  0  0  0  0  0  0  0  0  0  0  0
    2.4679   -0.6059    0.3429 C   0  0  0  0  0  0  0  0  0  0  0  0
    2.0111   -1.0175    1.6932 C   0  0  0  0  0  0  0  0  0  0  0  0
    1.2892   -1.4566    0.4680 C   0  0  0  0  0  0  0  0  0  0  0  0
   -0.0177   -0.8153    0.2697 C   0  0  0  0  0  0  0  0  0  0  0  0
   -1.0842   -0.2709    0.0997 C   0  0  0  0  0  0  0  0  0  0  0  0
   -2.3874    0.3709   -0.0918 C   0  0  0  0  0  0  0  0  0  0  0  0
   -2.5669    1.4172   -1.1118 C   0  0  0  0  0  0  0  0  0  0  0  0
   -3.1002    0.0757   -1.4375 C   0  0  0  0  0  0  0  0  0  0  0  0
    2.7833    1.4521    0.7611 H   0  0  0  0  0  0  0  0  0  0  0  0
    1.2636    1.1167   -0.2403 H   0  0  0  0  0  0  0  0  0  0  0  0
    2.8685    1.0261   -1.0215 H   0  0  0  0  0  0  0  0  0  0  0  0
    3.4204   -1.0740   -0.0432 H   0  0  0  0  0  0  0  0  0  0  0  0
    1.5699   -0.2405    2.3584 H   0  0  0  0  0  0  0  0  0  0  0  0
    2.5165   -1.8214    2.2637 H   0  0  0  0  0  0  0  0  0  0  0  0
    1.3887   -2.5346    0.1534 H   0  0  0  0  0  0  0  0  0  0  0  0
   -3.0198    0.3260    0.8212 H   0  0  0  0  0  0  0  0  0  0  0  0
   -3.3469    2.1832   -0.9087 H   0  0  0  0  0  0  0  0  0  0  0  0
   -1.6867    1.7872   -1.6739 H   0  0  0  0  0  0  0  0  0  0  0  0
   -2.5296   -0.5701   -2.1586 H   0  0  0  0  0  0  0  0  0  0  0  0
   -4.1523   -0.1970   -1.3417 H   0  0  0  0  0  0  0  0  0  0  0  0
  1  2  1  0
  2  3  1  0
  3  4  1  0
  4  5  1  0
  5  6  3  0
  6  7  1  0
  7  8  1  0
  8  9  1  0
  4  2  1  0
  9  7  1  0
  1 10  1  0
  1 11  1  0
  1 12  1  0
  2 13  1  0
  3 14  1  0
  3 15  1  0
  4 16  1  0
  7 17  1  0
  8 18  1  0
  8 19  1  0
  9 20  1  0
  9 21  1  0
M  END
