
     RDKit          3D

 19 20  0  0  0  0  0  0  0  0999 V2000
   -2.1331    0.9131    0.3700 C   0  0  0  0  0  0  0  0  0  0  0  0
   -1.2949    0.1540   -0.6649 C   0  0  0  0  0  0  0  0  0  0  0  0
   -1.1614   -1.2758   -0.2865 C   0  0  0  0  0  0  0  0  0  0  0  0
    0.0980   -1.6263   -0.0766 C   0  0  0  0  0  0  0  0  0  0  0  0
    0.9977   -0.4672   -0.2871 C   0  0  0  0  0  0  0  0  0  0  0  0
    2.2390   -0.3247    0.5446 C   0  0  0  0  0  0  0  0  0  0  0  0
    2.4476    1.0350    0.8442 O   0  0  0  0  0  0  0  0  0  0  0  0
    0.9749    0.1907   -1.5092 O   0  0  0  0  0  0  0  0  0  0  0  0
    0.1220    0.6583   -0.5059 C   0  0  0  0  0  0  0  0  0  0  0  0
   -1.8158    0.5608    1.3648 H   0  0  0  0  0  0  0  0  0  0  0  0
   -3.2017    0.8368    0.1800 H   0  0  0  0  0  0  0  0  0  0  0  0
   -1.8501    1.9894    0.2237 H   0  0  0  0  0  0  0  0  0  0  0  0
   -1.6807    0.2973   -1.6876 H   0  0  0  0  0  0  0  0  0  0  0  0
   -2.0285   -1.9592   -0.1946 H   0  0  0  0  0  0  0  0  0  0  0  0
    0.3725   -2.6420    0.2094 H   0  0  0  0  0  0  0  0  0  0  0  0
    3.1181   -0.6879    0.0027 H   0  0  0  0  0  0  0  0  0  0  0  0
    2.0696   -0.8173    1.5220 H   0  0  0  0  0  0  0  0  0  0  0  0
    2.4079    1.5413   -0.0255 H   0  0  0  0  0  0  0  0  0  0  0  0
    0.3191    1.6237   -0.0234 H   0  0  0  0  0  0  0  0  0  0  0  0
  1  2  1  0
  2  3  1  0
  3  4  2  0
  4  5  1  0
  5  6  1  0
  6  7  1  0
  5  8  1  0
  8  9  1  0
  9  2  1  0
  9  5  1  0
  1 10  1  0
  1 11  1  0
  1 12  1  0
  2 13  1  0
  3 14  1  0
  4 15  1  0
  6 16  1  0
  6 17  1  0
  7 18  1  0
  9 19  1  0
M  END
