
     RDKit          3D

 27 27  0  0  0  0  0  0  0  0999 V2000
    2.6888   -0.9198    0.4469 C   0  0  0  0  0  0  0  0  0  0  0  0
    1.9205   -0.1561   -0.6027 C   0  0  0  0  0  0  0  0  0  0  0  0
    1.1392    0.9610    0.0396 C   0  0  0  0  0  0  0  0  0  0  0  0
   -0.1323    0.2887   -0.4174 C   0  0  0  0  0  0  0  0  0  0  0  0
   -0.8905    1.2109   -1.3466 C   0  0  0  0  0  0  0  0  0  0  0  0
   -0.9832   -0.2862    0.6789 C   0  0  0  0  0  0  0  0  0  0  0  0
   -1.4430    0.7402    1.6719 C   0  0  0  0  0  0  0  0  0  0  0  0
   -2.1356   -1.0350    0.0626 C   0  0  0  0  0  0  0  0  0  0  0  0
    0.6568   -0.7998   -1.0880 C   0  0  0  0  0  0  0  0  0  0  0  0
    3.1205   -1.8633    0.0734 H   0  0  0  0  0  0  0  0  0  0  0  0
    3.5387   -0.2475    0.7559 H   0  0  0  0  0  0  0  0  0  0  0  0
    2.0546   -1.0249    1.3316 H   0  0  0  0  0  0  0  0  0  0  0  0
    2.5745    0.1241   -1.4394 H   0  0  0  0  0  0  0  0  0  0  0  0
    1.3757    1.9213   -0.4369 H   0  0  0  0  0  0  0  0  0  0  0  0
    1.2154    1.0034    1.1572 H   0  0  0  0  0  0  0  0  0  0  0  0
   -1.9245    0.8724   -1.4328 H   0  0  0  0  0  0  0  0  0  0  0  0
   -0.3712    1.3090   -2.3227 H   0  0  0  0  0  0  0  0  0  0  0  0
   -0.8918    2.2169   -0.8440 H   0  0  0  0  0  0  0  0  0  0  0  0
   -0.3673   -1.0246    1.2235 H   0  0  0  0  0  0  0  0  0  0  0  0
   -1.7768    0.2367    2.5816 H   0  0  0  0  0  0  0  0  0  0  0  0
   -0.6389    1.4734    1.8743 H   0  0  0  0  0  0  0  0  0  0  0  0
   -2.2998    1.2976    1.2209 H   0  0  0  0  0  0  0  0  0  0  0  0
   -2.0681   -1.1234   -1.0358 H   0  0  0  0  0  0  0  0  0  0  0  0
   -3.0997   -0.5066    0.2766 H   0  0  0  0  0  0  0  0  0  0  0  0
   -2.2326   -2.0663    0.4557 H   0  0  0  0  0  0  0  0  0  0  0  0
    0.4845   -1.8212   -0.7029 H   0  0  0  0  0  0  0  0  0  0  0  0
    0.4861   -0.7808   -2.1815 H   0  0  0  0  0  0  0  0  0  0  0  0
  1  2  1  0
  2  3  1  0
  3  4  1  0
  4  5  1  0
  4  6  1  0
  6  7  1  0
  6  8  1  0
  4  9  1  0
  9  2  1  0
  1 10  1  0
  1 11  1  0
  1 12  1  0
  2 13  1  0
  3 14  1  0
  3 15  1  0
  5 16  1  0
  5 17  1  0
  5 18  1  0
  6 19  1  0
  7 20  1  0
  7 21  1  0
  7 22  1  0
  8 23  1  0
  8 24  1  0
  8 25  1  0
  9 26  1  0
  9 27  1  0
M  END
