
     RDKit          3D

 17 18  0  0  0  0  0  0  0  0999 V2000
   -1.8402    0.9632   -0.2854 C   0  0  0  0  0  0  0  0  0  0  0  0
   -0.5129    0.2873   -0.4160 C   0  0  0  0  0  0  0  0  0  0  0  0
   -0.2251   -0.7241    0.6710 C   0  0  0  0  0  0  0  0  0  0  0  0
    0.8074   -1.6862    0.1729 C   0  0  0  0  0  0  0  0  0  0  0  0
    2.0414   -1.0029   -0.0842 O   0  0  0  0  0  0  0  0  0  0  0  0
    1.9128    0.3913   -0.2352 C   0  0  0  0  0  0  0  0  0  0  0  0
    2.8366    1.0381   -0.7642 O   0  0  0  0  0  0  0  0  0  0  0  0
    0.6493    0.9705    0.2669 C   0  0  0  0  0  0  0  0  0  0  0  0
    0.2896    0.2968    1.4409 O   0  0  0  0  0  0  0  0  0  0  0  0
   -2.4696    0.4576    0.5032 H   0  0  0  0  0  0  0  0  0  0  0  0
   -1.7925    2.0459   -0.1219 H   0  0  0  0  0  0  0  0  0  0  0  0
   -2.3706    0.8248   -1.2723 H   0  0  0  0  0  0  0  0  0  0  0  0
   -0.2281   -0.0358   -1.4401 H   0  0  0  0  0  0  0  0  0  0  0  0
   -1.0973   -1.1941    1.1271 H   0  0  0  0  0  0  0  0  0  0  0  0
    0.9616   -2.5325    0.8877 H   0  0  0  0  0  0  0  0  0  0  0  0
    0.4062   -2.1550   -0.7544 H   0  0  0  0  0  0  0  0  0  0  0  0
    0.6314    2.0549    0.3040 H   0  0  0  0  0  0  0  0  0  0  0  0
  1  2  1  0
  2  3  1  0
  3  4  1  0
  4  5  1  0
  5  6  1  0
  6  7  2  0
  6  8  1  0
  8  9  1  0
  8  2  1  0
  9  3  1  0
  1 10  1  0
  1 11  1  0
  1 12  1  0
  2 13  1  0
  3 14  1  0
  4 15  1  0
  4 16  1  0
  8 17  1  0
M  END
