
     RDKit          3D

 21 21  0  0  0  0  0  0  0  0999 V2000
    2.6176   -0.3043    0.3014 C   0  0  0  0  0  0  0  0  0  0  0  0
    1.1158   -0.2201    0.1765 C   0  0  0  0  0  0  0  0  0  0  0  0
    0.7420    1.2148    0.0316 C   0  0  0  0  0  0  0  0  0  0  0  0
   -0.4475    1.8074   -0.0056 C   0  0  0  0  0  0  0  0  0  0  0  0
   -1.8795    1.3316    0.0765 C   0  0  0  0  0  0  0  0  0  0  0  0
   -2.0128    0.1662   -0.7121 O   0  0  0  0  0  0  0  0  0  0  0  0
   -1.5947   -0.9596   -0.0436 C   0  0  0  0  0  0  0  0  0  0  0  0
   -0.4496   -1.6729   -0.7054 C   0  0  0  0  0  0  0  0  0  0  0  0
    0.6455   -0.8812   -0.9449 O   0  0  0  0  0  0  0  0  0  0  0  0
    3.0378    0.4687   -0.3864 H   0  0  0  0  0  0  0  0  0  0  0  0
    2.9026    0.0165    1.3224 H   0  0  0  0  0  0  0  0  0  0  0  0
    3.0019   -1.2965    0.0606 H   0  0  0  0  0  0  0  0  0  0  0  0
    0.6288   -0.6040    1.1154 H   0  0  0  0  0  0  0  0  0  0  0  0
    1.5900    1.8828   -0.0583 H   0  0  0  0  0  0  0  0  0  0  0  0
   -0.3329    2.8652   -0.1210 H   0  0  0  0  0  0  0  0  0  0  0  0
   -2.4915    2.1318   -0.3432 H   0  0  0  0  0  0  0  0  0  0  0  0
   -2.1468    1.1191    1.1182 H   0  0  0  0  0  0  0  0  0  0  0  0
   -2.4633   -1.6822   -0.0594 H   0  0  0  0  0  0  0  0  0  0  0  0
   -1.4018   -0.7833    1.0379 H   0  0  0  0  0  0  0  0  0  0  0  0
   -0.2326   -2.5909   -0.1481 H   0  0  0  0  0  0  0  0  0  0  0  0
   -0.8293   -2.0091   -1.7125 H   0  0  0  0  0  0  0  0  0  0  0  0
  1  2  1  0
  2  3  1  0
  3  4  2  3
  4  5  1  0
  5  6  1  0
  6  7  1  0
  7  8  1  0
  8  9  1  0
  9  2  1  0
  1 10  1  0
  1 11  1  0
  1 12  1  0
  2 13  1  0
  3 14  1  0
  4 15  1  0
  5 16  1  0
  5 17  1  0
  7 18  1  0
  7 19  1  0
  8 20  1  0
  8 21  1  0
M  END
