
     RDKit          3D

 21 22  0  0  0  0  0  0  0  0999 V2000
   -1.9240   -0.1794   -0.9576 C   0  0  0  0  0  0  0  0  0  0  0  0
   -0.4977    0.2403   -0.7116 C   0  0  0  0  0  0  0  0  0  0  0  0
    0.3705   -1.0004   -0.4567 C   0  0  0  0  0  0  0  0  0  0  0  0
   -0.4079   -1.6753    0.5817 C   0  0  0  0  0  0  0  0  0  0  0  0
   -0.7853   -0.6531    1.3937 C   0  0  0  0  0  0  0  0  0  0  0  0
   -0.1531    0.5251    0.7261 C   0  0  0  0  0  0  0  0  0  0  0  0
   -0.2458    1.7280    1.2394 O   0  0  0  0  0  0  0  0  0  0  0  0
    1.2306   -0.0522    0.3897 C   0  0  0  0  0  0  0  0  0  0  0  0
    2.0635    0.8446   -0.4720 C   0  0  0  0  0  0  0  0  0  0  0  0
   -2.1351   -1.0488   -0.3169 H   0  0  0  0  0  0  0  0  0  0  0  0
   -2.0232   -0.5071   -2.0018 H   0  0  0  0  0  0  0  0  0  0  0  0
   -2.6136    0.6845   -0.7321 H   0  0  0  0  0  0  0  0  0  0  0  0
   -0.1308    0.9206   -1.4637 H   0  0  0  0  0  0  0  0  0  0  0  0
    0.8042   -1.4921   -1.2690 H   0  0  0  0  0  0  0  0  0  0  0  0
   -0.6375   -2.7265    0.6931 H   0  0  0  0  0  0  0  0  0  0  0  0
   -1.3836   -0.6840    2.2851 H   0  0  0  0  0  0  0  0  0  0  0  0
   -0.2029    2.4398    0.5819 H   0  0  0  0  0  0  0  0  0  0  0  0
    1.7236   -0.5277    1.2474 H   0  0  0  0  0  0  0  0  0  0  0  0
    1.9095    1.9029   -0.2200 H   0  0  0  0  0  0  0  0  0  0  0  0
    1.8940    0.6681   -1.5725 H   0  0  0  0  0  0  0  0  0  0  0  0
    3.1446    0.5928   -0.3153 H   0  0  0  0  0  0  0  0  0  0  0  0
  1  2  1  0
  2  3  1  0
  3  4  1  0
  4  5  2  0
  5  6  1  0
  6  7  1  0
  6  8  1  0
  8  9  1  0
  6  2  1  0
  8  3  1  0
  1 10  1  0
  1 11  1  0
  1 12  1  0
  2 13  1  0
  3 14  1  0
  4 15  1  0
  5 16  1  0
  7 17  1  0
  8 18  1  0
  9 19  1  0
  9 20  1  0
  9 21  1  0
M  END
