
     RDKit          3D

 23 24  0  0  0  0  0  0  0  0999 V2000
    1.6738   -1.3019   -0.7466 C   0  0  0  0  0  0  0  0  0  0  0  0
    1.1192   -0.0285   -0.2627 C   0  0  0  0  0  0  0  0  0  0  0  0
   -0.1431    0.4177   -0.9909 C   0  0  0  0  0  0  0  0  0  0  0  0
   -1.2525   -0.5757   -0.7786 C   0  0  0  0  0  0  0  0  0  0  0  0
   -1.4370   -0.9688    0.6435 C   0  0  0  0  0  0  0  0  0  0  0  0
   -0.2986   -1.0251    1.3949 O   0  0  0  0  0  0  0  0  0  0  0  0
    0.6198   -0.0324    1.1533 C   0  0  0  0  0  0  0  0  0  0  0  0
   -0.0273    1.3577    1.2298 C   0  0  0  0  0  0  0  0  0  0  0  0
   -0.4438    1.6900   -0.1881 C   0  0  0  0  0  0  0  0  0  0  0  0
    2.2838   -1.7902    0.0397 H   0  0  0  0  0  0  0  0  0  0  0  0
    0.9420   -2.0065   -1.1888 H   0  0  0  0  0  0  0  0  0  0  0  0
    2.4066   -1.0739   -1.5764 H   0  0  0  0  0  0  0  0  0  0  0  0
    1.8546    0.7878   -0.3759 H   0  0  0  0  0  0  0  0  0  0  0  0
    0.0110    0.6130   -2.0461 H   0  0  0  0  0  0  0  0  0  0  0  0
   -1.0108   -1.4623   -1.4271 H   0  0  0  0  0  0  0  0  0  0  0  0
   -2.1815   -0.1110   -1.1946 H   0  0  0  0  0  0  0  0  0  0  0  0
   -1.8963   -2.0019    0.6631 H   0  0  0  0  0  0  0  0  0  0  0  0
   -2.2304   -0.3244    1.1251 H   0  0  0  0  0  0  0  0  0  0  0  0
    1.4321   -0.1261    1.8851 H   0  0  0  0  0  0  0  0  0  0  0  0
    0.7251    2.0964    1.6136 H   0  0  0  0  0  0  0  0  0  0  0  0
   -0.9084    1.3634    1.8815 H   0  0  0  0  0  0  0  0  0  0  0  0
   -1.4786    2.0092   -0.2820 H   0  0  0  0  0  0  0  0  0  0  0  0
    0.2404    2.4935   -0.5717 H   0  0  0  0  0  0  0  0  0  0  0  0
  1  2  1  0
  2  3  1  0
  3  4  1  0
  4  5  1  0
  5  6  1  0
  6  7  1  0
  7  8  1  0
  8  9  1  0
  7  2  1  0
  9  3  1  0
  1 10  1  0
  1 11  1  0
  1 12  1  0
  2 13  1  0
  3 14  1  0
  4 15  1  0
  4 16  1  0
  5 17  1  0
  5 18  1  0
  7 19  1  0
  8 20  1  0
  8 21  1  0
  9 22  1  0
  9 23  1  0
M  END
