
     RDKit          3D

 21 22  0  0  0  0  0  0  0  0999 V2000
   -1.7674    1.4734   -0.1239 C   0  0  0  0  0  0  0  0  0  0  0  0
   -0.5307    0.7822   -0.6570 C   0  0  0  0  0  0  0  0  0  0  0  0
   -0.3549   -0.6630   -0.5753 C   0  0  0  0  0  0  0  0  0  0  0  0
   -1.5112   -1.5638   -0.1273 C   0  0  0  0  0  0  0  0  0  0  0  0
    0.3373    0.1758    0.4366 C   0  0  0  0  0  0  0  0  0  0  0  0
   -0.1623    0.1012    1.7197 O   0  0  0  0  0  0  0  0  0  0  0  0
    1.8017    0.4971    0.3112 C   0  0  0  0  0  0  0  0  0  0  0  0
    2.6755   -0.6017   -0.2345 C   0  0  0  0  0  0  0  0  0  0  0  0
    2.3568    0.5845   -0.9569 O   0  0  0  0  0  0  0  0  0  0  0  0
   -2.6506    0.7859   -0.1032 H   0  0  0  0  0  0  0  0  0  0  0  0
   -1.9850    2.3744   -0.7392 H   0  0  0  0  0  0  0  0  0  0  0  0
   -1.6306    1.8317    0.9238 H   0  0  0  0  0  0  0  0  0  0  0  0
   -0.0179    1.2968   -1.5069 H   0  0  0  0  0  0  0  0  0  0  0  0
    0.2771   -1.1710   -1.3395 H   0  0  0  0  0  0  0  0  0  0  0  0
   -2.3568   -1.3715   -0.7981 H   0  0  0  0  0  0  0  0  0  0  0  0
   -1.7748   -1.2411    0.9019 H   0  0  0  0  0  0  0  0  0  0  0  0
   -1.2456   -2.6221   -0.2029 H   0  0  0  0  0  0  0  0  0  0  0  0
    0.4952    0.3585    2.3878 H   0  0  0  0  0  0  0  0  0  0  0  0
    2.1929    1.1367    1.1285 H   0  0  0  0  0  0  0  0  0  0  0  0
    3.6570   -0.6763    0.2359 H   0  0  0  0  0  0  0  0  0  0  0  0
    2.1944   -1.4875   -0.6809 H   0  0  0  0  0  0  0  0  0  0  0  0
  1  2  1  0
  2  3  1  0
  3  4  1  0
  3  5  1  0
  5  6  1  0
  5  7  1  0
  7  8  1  0
  8  9  1  0
  5  2  1  0
  9  7  1  0
  1 10  1  0
  1 11  1  0
  1 12  1  0
  2 13  1  0
  3 14  1  0
  4 15  1  0
  4 16  1  0
  4 17  1  0
  6 18  1  0
  7 19  1  0
  8 20  1  0
  8 21  1  0
M  END
