
     RDKit          3D

 19 20  0  0  0  0  0  0  0  0999 V2000
    2.0602   -1.0794    0.0227 C   0  0  0  0  0  0  0  0  0  0  0  0
    0.7370   -0.6799    0.5465 C   0  0  0  0  0  0  0  0  0  0  0  0
   -0.3697   -0.5563   -0.4293 C   0  0  0  0  0  0  0  0  0  0  0  0
   -1.7376   -0.3318    0.1651 C   0  0  0  0  0  0  0  0  0  0  0  0
   -2.7666   -0.2644   -0.7760 O   0  0  0  0  0  0  0  0  0  0  0  0
   -1.2377    1.0071    0.6388 C   0  0  0  0  0  0  0  0  0  0  0  0
    0.1674    0.6621    0.3080 C   0  0  0  0  0  0  0  0  0  0  0  0
    1.0012    1.6389   -0.3692 C   0  0  0  0  0  0  0  0  0  0  0  0
    0.8311    2.8279   -0.2162 O   0  0  0  0  0  0  0  0  0  0  0  0
    2.6225   -1.7782    0.7100 H   0  0  0  0  0  0  0  0  0  0  0  0
    1.8945   -1.6567   -0.9333 H   0  0  0  0  0  0  0  0  0  0  0  0
    2.7541   -0.2750   -0.2186 H   0  0  0  0  0  0  0  0  0  0  0  0
    0.4459   -1.1530    1.5190 H   0  0  0  0  0  0  0  0  0  0  0  0
   -0.2245   -0.6001   -1.5111 H   0  0  0  0  0  0  0  0  0  0  0  0
   -1.9819   -0.9765    1.0471 H   0  0  0  0  0  0  0  0  0  0  0  0
   -2.9100   -1.1711   -1.1310 H   0  0  0  0  0  0  0  0  0  0  0  0
   -1.4590    1.2501    1.6965 H   0  0  0  0  0  0  0  0  0  0  0  0
   -1.6225    1.8025   -0.0412 H   0  0  0  0  0  0  0  0  0  0  0  0
    1.7956    1.3337   -1.0276 H   0  0  0  0  0  0  0  0  0  0  0  0
  1  2  1  0
  2  3  1  0
  3  4  1  0
  4  5  1  0
  4  6  1  0
  6  7  1  0
  7  8  1  0
  8  9  2  0
  7  2  1  0
  7  3  1  0
  1 10  1  0
  1 11  1  0
  1 12  1  0
  2 13  1  0
  3 14  1  0
  4 15  1  0
  5 16  1  0
  6 17  1  0
  6 18  1  0
  8 19  1  0
M  END
