
     RDKit          3D

 17 18  0  0  0  0  0  0  0  0999 V2000
    2.4536    0.1392    0.3009 C   0  0  0  0  0  0  0  0  0  0  0  0
    1.0616    0.4122   -0.1296 C   0  0  0  0  0  0  0  0  0  0  0  0
    0.2548   -0.7211   -0.6650 C   0  0  0  0  0  0  0  0  0  0  0  0
   -0.7667   -0.0928    0.1709 C   0  0  0  0  0  0  0  0  0  0  0  0
   -1.8989    0.6968   -0.2714 C   0  0  0  0  0  0  0  0  0  0  0  0
   -2.0506   -0.5847    0.5630 C   0  0  0  0  0  0  0  0  0  0  0  0
    0.1972    0.4410    0.9919 O   0  0  0  0  0  0  0  0  0  0  0  0
    3.0937   -0.3588   -0.4379 H   0  0  0  0  0  0  0  0  0  0  0  0
    2.4696   -0.4531    1.2307 H   0  0  0  0  0  0  0  0  0  0  0  0
    2.9377    1.1134    0.5438 H   0  0  0  0  0  0  0  0  0  0  0  0
    0.8887    1.3270   -0.7469 H   0  0  0  0  0  0  0  0  0  0  0  0
    0.0470   -0.6913   -1.7733 H   0  0  0  0  0  0  0  0  0  0  0  0
    0.5989   -1.7464   -0.4217 H   0  0  0  0  0  0  0  0  0  0  0  0
   -2.0877    1.6558    0.2902 H   0  0  0  0  0  0  0  0  0  0  0  0
   -2.2895    0.7033   -1.2972 H   0  0  0  0  0  0  0  0  0  0  0  0
   -2.5488   -1.3954    0.0158 H   0  0  0  0  0  0  0  0  0  0  0  0
   -2.3606   -0.4452    1.6358 H   0  0  0  0  0  0  0  0  0  0  0  0
  1  2  1  0
  2  3  1  0
  3  4  1  0
  4  5  1  0
  5  6  1  0
  4  7  1  0
  7  2  1  0
  6  4  1  0
  1  8  1  0
  1  9  1  0
  1 10  1  0
  2 11  1  0
  3 12  1  0
  3 13  1  0
  5 14  1  0
  5 15  1  0
  6 16  1  0
  6 17  1  0
M  END
