
     RDKit          3D

 17 19  0  0  0  0  0  0  0  0999 V2000
    1.8438    0.6349   -0.6491 C   0  0  0  0  0  0  0  0  0  0  0  0
    1.1228   -0.1263    0.4383 C   0  0  0  0  0  0  0  0  0  0  0  0
    0.5113   -1.4761    0.0864 C   0  0  0  0  0  0  0  0  0  0  0  0
   -0.3062   -0.3223    0.2748 C   0  0  0  0  0  0  0  0  0  0  0  0
   -1.1537    0.3412   -0.7007 C   0  0  0  0  0  0  0  0  0  0  0  0
   -1.2538    0.6015   -1.8933 O   0  0  0  0  0  0  0  0  0  0  0  0
   -2.0763    0.6909    0.4431 C   0  0  0  0  0  0  0  0  0  0  0  0
   -1.5552    1.3280    1.5445 O   0  0  0  0  0  0  0  0  0  0  0  0
   -1.2995   -0.0588    1.3371 C   0  0  0  0  0  0  0  0  0  0  0  0
    2.6825    0.0474   -1.0537 H   0  0  0  0  0  0  0  0  0  0  0  0
    1.1292    0.9287   -1.4487 H   0  0  0  0  0  0  0  0  0  0  0  0
    2.2693    1.5447   -0.1750 H   0  0  0  0  0  0  0  0  0  0  0  0
    1.4944    0.0220    1.4855 H   0  0  0  0  0  0  0  0  0  0  0  0
    0.7136   -1.8690   -0.9465 H   0  0  0  0  0  0  0  0  0  0  0  0
    0.5921   -2.2540    0.8851 H   0  0  0  0  0  0  0  0  0  0  0  0
   -3.1482    0.7304    0.2715 H   0  0  0  0  0  0  0  0  0  0  0  0
   -1.5661   -0.7631    2.1164 H   0  0  0  0  0  0  0  0  0  0  0  0
  1  2  1  0
  2  3  1  0
  3  4  1  0
  4  5  1  0
  5  6  2  0
  5  7  1  0
  7  8  1  0
  8  9  1  0
  4  2  1  0
  9  7  1  0
  9  4  1  0
  1 10  1  0
  1 11  1  0
  1 12  1  0
  2 13  1  0
  3 14  1  0
  3 15  1  0
  7 16  1  0
  9 17  1  0
M  END
