
     RDKit          3D

 21 22  0  0  0  0  0  0  0  0999 V2000
   -2.1996   -0.9468    0.1338 C   0  0  0  0  0  0  0  0  0  0  0  0
   -1.2696   -0.2247   -0.7873 C   0  0  0  0  0  0  0  0  0  0  0  0
   -0.7111    0.9914   -0.0224 C   0  0  0  0  0  0  0  0  0  0  0  0
    0.7609    0.5624   -0.0457 C   0  0  0  0  0  0  0  0  0  0  0  0
    1.7149    1.4725    0.5485 C   0  0  0  0  0  0  0  0  0  0  0  0
    0.8879    0.1429   -1.3523 O   0  0  0  0  0  0  0  0  0  0  0  0
    0.0493   -0.9372   -0.9748 C   0  0  0  0  0  0  0  0  0  0  0  0
    0.7638   -0.8912    0.3337 C   0  0  0  0  0  0  0  0  0  0  0  0
    2.0117   -1.4430    0.2568 O   0  0  0  0  0  0  0  0  0  0  0  0
   -2.3138   -2.0205   -0.1054 H   0  0  0  0  0  0  0  0  0  0  0  0
   -1.8385   -0.8326    1.1876 H   0  0  0  0  0  0  0  0  0  0  0  0
   -3.1833   -0.4478    0.0922 H   0  0  0  0  0  0  0  0  0  0  0  0
   -1.7123    0.0624   -1.7399 H   0  0  0  0  0  0  0  0  0  0  0  0
   -1.1038    1.0485    0.9833 H   0  0  0  0  0  0  0  0  0  0  0  0
   -0.7762    1.8958   -0.6249 H   0  0  0  0  0  0  0  0  0  0  0  0
    1.1897    2.1343    1.3003 H   0  0  0  0  0  0  0  0  0  0  0  0
    2.5732    1.0531    1.0625 H   0  0  0  0  0  0  0  0  0  0  0  0
    2.1012    2.1984   -0.2177 H   0  0  0  0  0  0  0  0  0  0  0  0
    0.0849   -1.8121   -1.5838 H   0  0  0  0  0  0  0  0  0  0  0  0
    0.2064   -1.1677    1.2326 H   0  0  0  0  0  0  0  0  0  0  0  0
    2.7643   -0.8381    0.3229 H   0  0  0  0  0  0  0  0  0  0  0  0
  1  2  1  0
  2  3  1  0
  3  4  1  0
  4  5  1  0
  4  6  1  0
  6  7  1  0
  7  8  1  0
  8  9  1  0
  7  2  1  0
  8  4  1  0
  1 10  1  0
  1 11  1  0
  1 12  1  0
  2 13  1  0
  3 14  1  0
  3 15  1  0
  5 16  1  0
  5 17  1  0
  5 18  1  0
  7 19  1  0
  8 20  1  0
  9 21  1  0
M  END
