
     RDKit          3D

 21 22  0  0  0  0  0  0  0  0999 V2000
   -1.7863    1.2011   -0.1493 C   0  0  0  0  0  0  0  0  0  0  0  0
   -0.7146    0.4321   -0.8369 C   0  0  0  0  0  0  0  0  0  0  0  0
   -0.6638   -1.1011   -0.5841 C   0  0  0  0  0  0  0  0  0  0  0  0
   -1.6720   -1.5667    0.4335 C   0  0  0  0  0  0  0  0  0  0  0  0
   -2.3249   -2.5956    0.2610 O   0  0  0  0  0  0  0  0  0  0  0  0
    0.3974   -0.2248   -0.1911 C   0  0  0  0  0  0  0  0  0  0  0  0
    1.7576   -0.1378   -0.7867 C   0  0  0  0  0  0  0  0  0  0  0  0
    2.2043    0.5806    0.4959 C   0  0  0  0  0  0  0  0  0  0  0  0
    0.9397    0.0077    1.1480 C   0  0  0  0  0  0  0  0  0  0  0  0
   -2.2438    1.9732   -0.8145 H   0  0  0  0  0  0  0  0  0  0  0  0
   -2.6458    0.5248    0.1247 H   0  0  0  0  0  0  0  0  0  0  0  0
   -1.3969    1.7215    0.7298 H   0  0  0  0  0  0  0  0  0  0  0  0
   -0.5781    0.7018   -1.9255 H   0  0  0  0  0  0  0  0  0  0  0  0
   -0.5626   -1.7447   -1.4755 H   0  0  0  0  0  0  0  0  0  0  0  0
   -1.7849   -0.9477    1.3145 H   0  0  0  0  0  0  0  0  0  0  0  0
    1.8083    0.5912   -1.6217 H   0  0  0  0  0  0  0  0  0  0  0  0
    2.2676   -1.0781   -0.9882 H   0  0  0  0  0  0  0  0  0  0  0  0
    3.1434    0.2137    0.9040 H   0  0  0  0  0  0  0  0  0  0  0  0
    2.1624    1.6873    0.4214 H   0  0  0  0  0  0  0  0  0  0  0  0
    0.4424    0.6819    1.8421 H   0  0  0  0  0  0  0  0  0  0  0  0
    1.2505   -0.9202    1.6985 H   0  0  0  0  0  0  0  0  0  0  0  0
  1  2  1  0
  2  3  1  0
  3  4  1  0
  4  5  2  0
  3  6  1  0
  6  7  1  0
  7  8  1  0
  8  9  1  0
  6  2  1  0
  9  6  1  0
  1 10  1  0
  1 11  1  0
  1 12  1  0
  2 13  1  0
  3 14  1  0
  4 15  1  0
  7 16  1  0
  7 17  1  0
  8 18  1  0
  8 19  1  0
  9 20  1  0
  9 21  1  0
M  END
