
     RDKit          3D

 21 22  0  0  0  0  0  0  0  0999 V2000
   -1.9386   -1.0885    0.3012 C   0  0  0  0  0  0  0  0  0  0  0  0
   -1.0671    0.1150    0.5215 C   0  0  0  0  0  0  0  0  0  0  0  0
   -1.3017    1.2859   -0.3734 C   0  0  0  0  0  0  0  0  0  0  0  0
    0.2245    1.4762   -0.4189 C   0  0  0  0  0  0  0  0  0  0  0  0
    0.3302    0.0375    0.0041 C   0  0  0  0  0  0  0  0  0  0  0  0
    1.3423   -0.3111    1.0236 C   0  0  0  0  0  0  0  0  0  0  0  0
    2.1401   -1.2628    0.3462 O   0  0  0  0  0  0  0  0  0  0  0  0
    1.9870   -0.8758   -1.0038 C   0  0  0  0  0  0  0  0  0  0  0  0
    0.5754   -0.7886   -1.0590 O   0  0  0  0  0  0  0  0  0  0  0  0
   -1.5780   -1.8766    1.0174 H   0  0  0  0  0  0  0  0  0  0  0  0
   -1.8522   -1.5294   -0.6990 H   0  0  0  0  0  0  0  0  0  0  0  0
   -2.9643   -0.8525    0.6058 H   0  0  0  0  0  0  0  0  0  0  0  0
   -1.0735    0.3971    1.5948 H   0  0  0  0  0  0  0  0  0  0  0  0
   -1.7382    1.0776   -1.3668 H   0  0  0  0  0  0  0  0  0  0  0  0
   -1.7711    2.1581    0.1155 H   0  0  0  0  0  0  0  0  0  0  0  0
    0.5799    2.2030    0.3420 H   0  0  0  0  0  0  0  0  0  0  0  0
    0.5209    1.7021   -1.4496 H   0  0  0  0  0  0  0  0  0  0  0  0
    1.9269    0.5107    1.4324 H   0  0  0  0  0  0  0  0  0  0  0  0
    0.8285   -0.9090    1.8286 H   0  0  0  0  0  0  0  0  0  0  0  0
    2.3904   -1.6052   -1.6956 H   0  0  0  0  0  0  0  0  0  0  0  0
    2.4385    0.1363   -1.0672 H   0  0  0  0  0  0  0  0  0  0  0  0
  1  2  1  0
  2  3  1  0
  3  4  1  0
  4  5  1  0
  5  6  1  0
  6  7  1  0
  7  8  1  0
  8  9  1  0
  5  2  1  0
  9  5  1  0
  1 10  1  0
  1 11  1  0
  1 12  1  0
  2 13  1  0
  3 14  1  0
  3 15  1  0
  4 16  1  0
  4 17  1  0
  6 18  1  0
  6 19  1  0
  8 20  1  0
  8 21  1  0
M  END
