
     RDKit          3D

 19 20  0  0  0  0  0  0  0  0999 V2000
    1.7967   -0.3940    1.1711 C   0  0  0  0  0  0  0  0  0  0  0  0
    1.0340    0.3816    0.1161 C   0  0  0  0  0  0  0  0  0  0  0  0
    0.2877   -0.3621   -0.8979 C   0  0  0  0  0  0  0  0  0  0  0  0
   -0.0222    0.1169   -2.1422 O   0  0  0  0  0  0  0  0  0  0  0  0
   -0.3508   -1.6653   -0.4151 C   0  0  0  0  0  0  0  0  0  0  0  0
   -1.2115   -0.8301    0.4713 C   0  0  0  0  0  0  0  0  0  0  0  0
   -2.2017   -1.0905    1.1305 O   0  0  0  0  0  0  0  0  0  0  0  0
   -0.4260    0.3905    0.2478 C   0  0  0  0  0  0  0  0  0  0  0  0
   -1.1501    1.6691   -0.1157 C   0  0  0  0  0  0  0  0  0  0  0  0
    1.1223   -0.9099    1.8657 H   0  0  0  0  0  0  0  0  0  0  0  0
    2.5341   -1.0548    0.6896 H   0  0  0  0  0  0  0  0  0  0  0  0
    2.3623    0.3540    1.7956 H   0  0  0  0  0  0  0  0  0  0  0  0
    1.5142    1.3195   -0.1971 H   0  0  0  0  0  0  0  0  0  0  0  0
   -0.9401    0.5008   -2.1360 H   0  0  0  0  0  0  0  0  0  0  0  0
   -0.8813   -2.2178   -1.2085 H   0  0  0  0  0  0  0  0  0  0  0  0
    0.4335   -2.2475    0.1246 H   0  0  0  0  0  0  0  0  0  0  0  0
   -2.1209    1.5022   -0.5941 H   0  0  0  0  0  0  0  0  0  0  0  0
   -1.3122    2.2237    0.8296 H   0  0  0  0  0  0  0  0  0  0  0  0
   -0.4680    2.3137   -0.7354 H   0  0  0  0  0  0  0  0  0  0  0  0
  1  2  1  0
  2  3  1  0
  3  4  1  0
  3  5  1  0
  5  6  1  0
  6  7  2  0
  6  8  1  0
  8  9  1  0
  8  2  1  0
  8  3  1  0
  1 10  1  0
  1 11  1  0
  1 12  1  0
  2 13  1  0
  4 14  1  0
  5 15  1  0
  5 16  1  0
  9 17  1  0
  9 18  1  0
  9 19  1  0
M  END
