
     RDKit          3D

 21 21  0  0  0  0  0  0  0  0999 V2000
   -0.7256    1.4332    0.8936 C   0  0  0  0  0  0  0  0  0  0  0  0
   -0.3042    0.7168   -0.3314 C   0  0  0  0  0  0  0  0  0  0  0  0
   -1.5028   -0.1025   -0.8284 C   0  0  0  0  0  0  0  0  0  0  0  0
   -1.2165   -1.4368   -0.1724 C   0  0  0  0  0  0  0  0  0  0  0  0
    0.1346   -1.5663   -0.3325 O   0  0  0  0  0  0  0  0  0  0  0  0
    0.7305   -0.3322   -0.1759 C   0  0  0  0  0  0  0  0  0  0  0  0
    1.4756   -0.3305    1.1234 C   0  0  0  0  0  0  0  0  0  0  0  0
    1.7319   -0.1693   -1.2677 C   0  0  0  0  0  0  0  0  0  0  0  0
    2.4146    0.8497   -1.3681 O   0  0  0  0  0  0  0  0  0  0  0  0
   -1.8391    1.3828    1.0542 H   0  0  0  0  0  0  0  0  0  0  0  0
   -0.5170    2.5372    0.7832 H   0  0  0  0  0  0  0  0  0  0  0  0
   -0.2277    1.1314    1.8183 H   0  0  0  0  0  0  0  0  0  0  0  0
   -0.0733    1.4267   -1.1526 H   0  0  0  0  0  0  0  0  0  0  0  0
   -2.4431    0.3506   -0.5187 H   0  0  0  0  0  0  0  0  0  0  0  0
   -1.4444   -0.2204   -1.9253 H   0  0  0  0  0  0  0  0  0  0  0  0
   -1.7132   -2.2218   -0.7847 H   0  0  0  0  0  0  0  0  0  0  0  0
   -1.5437   -1.4409    0.8860 H   0  0  0  0  0  0  0  0  0  0  0  0
    2.0334    0.6322    1.2613 H   0  0  0  0  0  0  0  0  0  0  0  0
    0.8735   -0.5887    1.9991 H   0  0  0  0  0  0  0  0  0  0  0  0
    2.2616   -1.1137    1.0476 H   0  0  0  0  0  0  0  0  0  0  0  0
    1.8950   -0.9376   -2.0091 H   0  0  0  0  0  0  0  0  0  0  0  0
  1  2  1  0
  2  3  1  0
  3  4  1  0
  4  5  1  0
  5  6  1  0
  6  7  1  0
  6  8  1  0
  8  9  2  0
  6  2  1  0
  1 10  1  0
  1 11  1  0
  1 12  1  0
  2 13  1  0
  3 14  1  0
  3 15  1  0
  4 16  1  0
  4 17  1  0
  7 18  1  0
  7 19  1  0
  7 20  1  0
  8 21  1  0
M  END
