
     RDKit          3D

 23 24  0  0  0  0  0  0  0  0999 V2000
    2.4622    0.2912    0.1739 C   0  0  0  0  0  0  0  0  0  0  0  0
    1.2182   -0.5323    0.2751 C   0  0  0  0  0  0  0  0  0  0  0  0
    0.6568   -0.8248   -1.0893 C   0  0  0  0  0  0  0  0  0  0  0  0
   -0.3917    0.2405   -1.2645 C   0  0  0  0  0  0  0  0  0  0  0  0
   -0.9261    0.4275    0.1124 C   0  0  0  0  0  0  0  0  0  0  0  0
   -2.2762   -0.1396    0.3815 C   0  0  0  0  0  0  0  0  0  0  0  0
   -2.2066   -1.5336    0.1495 O   0  0  0  0  0  0  0  0  0  0  0  0
   -0.3035    1.4725    0.9413 C   0  0  0  0  0  0  0  0  0  0  0  0
    0.1377    0.0763    1.0973 C   0  0  0  0  0  0  0  0  0  0  0  0
    3.3011   -0.4094   -0.1044 H   0  0  0  0  0  0  0  0  0  0  0  0
    2.7531    0.7348    1.1371 H   0  0  0  0  0  0  0  0  0  0  0  0
    2.4112    1.0202   -0.6583 H   0  0  0  0  0  0  0  0  0  0  0  0
    1.5126   -1.5171    0.7242 H   0  0  0  0  0  0  0  0  0  0  0  0
    0.1101   -1.8119   -1.1001 H   0  0  0  0  0  0  0  0  0  0  0  0
    1.4271   -0.7766   -1.8609 H   0  0  0  0  0  0  0  0  0  0  0  0
    0.1021    1.1494   -1.6073 H   0  0  0  0  0  0  0  0  0  0  0  0
   -1.1644   -0.0939   -1.9888 H   0  0  0  0  0  0  0  0  0  0  0  0
   -3.0935    0.3073   -0.2151 H   0  0  0  0  0  0  0  0  0  0  0  0
   -2.5180   -0.0479    1.4701 H   0  0  0  0  0  0  0  0  0  0  0  0
   -2.4818   -1.7397   -0.7779 H   0  0  0  0  0  0  0  0  0  0  0  0
   -0.9170    1.9039    1.7413 H   0  0  0  0  0  0  0  0  0  0  0  0
    0.3061    2.2339    0.4041 H   0  0  0  0  0  0  0  0  0  0  0  0
   -0.1195   -0.4307    2.0589 H   0  0  0  0  0  0  0  0  0  0  0  0
  1  2  1  0
  2  3  1  0
  3  4  1  0
  4  5  1  0
  5  6  1  0
  6  7  1  0
  5  8  1  0
  8  9  1  0
  9  2  1  0
  9  5  1  0
  1 10  1  0
  1 11  1  0
  1 12  1  0
  2 13  1  0
  3 14  1  0
  3 15  1  0
  4 16  1  0
  4 17  1  0
  6 18  1  0
  6 19  1  0
  7 20  1  0
  8 21  1  0
  8 22  1  0
  9 23  1  0
M  END
