
     RDKit          3D

 23 24  0  0  0  0  0  0  0  0999 V2000
   -2.9986    1.5421    0.2376 C   0  0  0  0  0  0  0  0  0  0  0  0
   -1.9176    0.7966   -0.4771 C   0  0  0  0  0  0  0  0  0  0  0  0
   -2.0215   -0.7089   -0.3928 C   0  0  0  0  0  0  0  0  0  0  0  0
   -0.8793    0.0663    0.2761 C   0  0  0  0  0  0  0  0  0  0  0  0
    0.4579   -0.2005   -0.2981 C   0  0  0  0  0  0  0  0  0  0  0  0
    1.3913   -0.9553    0.6016 C   0  0  0  0  0  0  0  0  0  0  0  0
    2.7151   -1.1595   -0.1041 C   0  0  0  0  0  0  0  0  0  0  0  0
    3.0410    0.1682    0.5511 C   0  0  0  0  0  0  0  0  0  0  0  0
    2.0317   -0.0670    1.4873 O   0  0  0  0  0  0  0  0  0  0  0  0
   -3.6636    0.8576    0.7934 H   0  0  0  0  0  0  0  0  0  0  0  0
   -2.6102    2.3682    0.8704 H   0  0  0  0  0  0  0  0  0  0  0  0
   -3.6376    2.0352   -0.5513 H   0  0  0  0  0  0  0  0  0  0  0  0
   -1.5900    1.2455   -1.4553 H   0  0  0  0  0  0  0  0  0  0  0  0
   -1.7950   -1.2604   -1.3252 H   0  0  0  0  0  0  0  0  0  0  0  0
   -2.7849   -1.1709    0.2342 H   0  0  0  0  0  0  0  0  0  0  0  0
   -1.0093    0.1283    1.3965 H   0  0  0  0  0  0  0  0  0  0  0  0
    0.3579   -0.7685   -1.2425 H   0  0  0  0  0  0  0  0  0  0  0  0
    0.9285    0.7751   -0.5416 H   0  0  0  0  0  0  0  0  0  0  0  0
    1.0185   -1.8695    1.0636 H   0  0  0  0  0  0  0  0  0  0  0  0
    2.6836   -1.0604   -1.2061 H   0  0  0  0  0  0  0  0  0  0  0  0
    3.3142   -2.0166    0.2551 H   0  0  0  0  0  0  0  0  0  0  0  0
    4.0651    0.2169    1.0020 H   0  0  0  0  0  0  0  0  0  0  0  0
    2.9028    1.0376   -0.1003 H   0  0  0  0  0  0  0  0  0  0  0  0
  1  2  1  0
  2  3  1  0
  3  4  1  0
  4  5  1  0
  5  6  1  0
  6  7  1  0
  7  8  1  0
  8  9  1  0
  4  2  1  0
  9  6  1  0
  1 10  1  0
  1 11  1  0
  1 12  1  0
  2 13  1  0
  3 14  1  0
  3 15  1  0
  4 16  1  0
  5 17  1  0
  5 18  1  0
  6 19  1  0
  7 20  1  0
  7 21  1  0
  8 22  1  0
  8 23  1  0
M  END
