
     RDKit          3D

 21 23  0  0  0  0  0  0  0  0999 V2000
   -2.4406    0.3997    0.7882 C   0  0  0  0  0  0  0  0  0  0  0  0
   -1.3215    0.2859   -0.1839 C   0  0  0  0  0  0  0  0  0  0  0  0
   -0.8565   -1.2605   -0.2197 C   0  0  0  0  0  0  0  0  0  0  0  0
    0.5437   -1.2213   -0.7526 C   0  0  0  0  0  0  0  0  0  0  0  0
    1.7780   -0.6031   -0.4344 C   0  0  0  0  0  0  0  0  0  0  0  0
    2.2860    0.5261    0.4498 C   0  0  0  0  0  0  0  0  0  0  0  0
    0.9856    1.1043    0.9867 C   0  0  0  0  0  0  0  0  0  0  0  0
   -0.0169    0.6515    0.3609 C   0  0  0  0  0  0  0  0  0  0  0  0
    0.7158    0.1839   -1.0311 C   0  0  0  0  0  0  0  0  0  0  0  0
   -3.3974    0.1814    0.2351 H   0  0  0  0  0  0  0  0  0  0  0  0
   -2.4646    1.4378    1.1799 H   0  0  0  0  0  0  0  0  0  0  0  0
   -2.2777   -0.3077    1.6274 H   0  0  0  0  0  0  0  0  0  0  0  0
   -1.5562    0.5967   -1.1884 H   0  0  0  0  0  0  0  0  0  0  0  0
   -1.5722   -1.6922   -0.9069 H   0  0  0  0  0  0  0  0  0  0  0  0
   -0.9397   -1.5614    0.8387 H   0  0  0  0  0  0  0  0  0  0  0  0
    0.6319   -2.0110   -1.5958 H   0  0  0  0  0  0  0  0  0  0  0  0
    2.6394   -0.8670   -1.1480 H   0  0  0  0  0  0  0  0  0  0  0  0
    2.6954    1.3092   -0.2111 H   0  0  0  0  0  0  0  0  0  0  0  0
    2.9710    0.2203    1.2288 H   0  0  0  0  0  0  0  0  0  0  0  0
    0.9928    1.8127    1.8069 H   0  0  0  0  0  0  0  0  0  0  0  0
    0.6039    0.8147   -1.8306 H   0  0  0  0  0  0  0  0  0  0  0  0
  1  2  1  0
  2  3  1  0
  3  4  1  0
  4  5  1  0
  5  6  1  0
  6  7  1  0
  7  8  2  0
  8  9  1  0
  8  2  1  0
  9  4  1  0
  9  5  1  0
  1 10  1  0
  1 11  1  0
  1 12  1  0
  2 13  1  0
  3 14  1  0
  3 15  1  0
  4 16  1  0
  5 17  1  0
  6 18  1  0
  6 19  1  0
  7 20  1  0
  9 21  1  0
M  END
