
     RDKit          3D

 23 24  0  0  0  0  0  0  0  0999 V2000
    2.4756    0.7407    0.6498 C   0  0  0  0  0  0  0  0  0  0  0  0
    1.6934   -0.4053    0.0540 C   0  0  0  0  0  0  0  0  0  0  0  0
    1.3143   -0.4088   -1.3726 C   0  0  0  0  0  0  0  0  0  0  0  0
    0.2404   -0.1578   -0.3489 C   0  0  0  0  0  0  0  0  0  0  0  0
   -0.6927   -1.2396    0.0245 C   0  0  0  0  0  0  0  0  0  0  0  0
   -2.1369   -0.8742    0.0329 C   0  0  0  0  0  0  0  0  0  0  0  0
   -2.3947    0.5672    0.3848 C   0  0  0  0  0  0  0  0  0  0  0  0
   -1.5629    1.4473   -0.2525 O   0  0  0  0  0  0  0  0  0  0  0  0
   -0.2276    1.2274   -0.0794 C   0  0  0  0  0  0  0  0  0  0  0  0
    2.3221    0.6910    1.7578 H   0  0  0  0  0  0  0  0  0  0  0  0
    3.5607    0.4789    0.5084 H   0  0  0  0  0  0  0  0  0  0  0  0
    2.2285    1.7169    0.2188 H   0  0  0  0  0  0  0  0  0  0  0  0
    1.9482   -1.3855    0.5072 H   0  0  0  0  0  0  0  0  0  0  0  0
    1.3548   -1.3763   -1.9119 H   0  0  0  0  0  0  0  0  0  0  0  0
    1.5253    0.4620   -2.0308 H   0  0  0  0  0  0  0  0  0  0  0  0
   -0.5797   -2.1214   -0.6707 H   0  0  0  0  0  0  0  0  0  0  0  0
   -0.3786   -1.6448    1.0242 H   0  0  0  0  0  0  0  0  0  0  0  0
   -2.6431   -1.5227    0.7973 H   0  0  0  0  0  0  0  0  0  0  0  0
   -2.6464   -1.1319   -0.9309 H   0  0  0  0  0  0  0  0  0  0  0  0
   -2.4404    0.7136    1.4964 H   0  0  0  0  0  0  0  0  0  0  0  0
   -3.4423    0.7900    0.0304 H   0  0  0  0  0  0  0  0  0  0  0  0
    0.1667    1.5336    0.9193 H   0  0  0  0  0  0  0  0  0  0  0  0
    0.3153    1.8998   -0.8081 H   0  0  0  0  0  0  0  0  0  0  0  0
  1  2  1  0
  2  3  1  0
  3  4  1  0
  4  5  1  0
  5  6  1  0
  6  7  1  0
  7  8  1  0
  8  9  1  0
  4  2  1  0
  9  4  1  0
  1 10  1  0
  1 11  1  0
  1 12  1  0
  2 13  1  0
  3 14  1  0
  3 15  1  0
  5 16  1  0
  5 17  1  0
  6 18  1  0
  6 19  1  0
  7 20  1  0
  7 21  1  0
  9 22  1  0
  9 23  1  0
M  END
