
     RDKit          3D

 20 21  0  0  0  0  0  0  0  0999 V2000
    1.8644    0.3937   -0.0721 C   0  0  0  0  0  0  0  0  0  0  0  0
    0.6588   -0.2632    0.5384 C   0  0  0  0  0  0  0  0  0  0  0  0
    0.3285   -1.5693   -0.1496 C   0  0  0  0  0  0  0  0  0  0  0  0
   -1.1795   -1.6379   -0.1353 C   0  0  0  0  0  0  0  0  0  0  0  0
   -1.7863   -0.8816   -1.1221 O   0  0  0  0  0  0  0  0  0  0  0  0
   -1.6984   -0.2631    0.0977 C   0  0  0  0  0  0  0  0  0  0  0  0
   -0.5459    0.6084    0.4620 C   0  0  0  0  0  0  0  0  0  0  0  0
   -0.3768    1.8044   -0.4284 C   0  0  0  0  0  0  0  0  0  0  0  0
    1.5975    0.8753   -1.0322 H   0  0  0  0  0  0  0  0  0  0  0  0
    2.2710    1.1071    0.6746 H   0  0  0  0  0  0  0  0  0  0  0  0
    2.5911   -0.4124   -0.3241 H   0  0  0  0  0  0  0  0  0  0  0  0
    0.9070   -0.5338    1.6010 H   0  0  0  0  0  0  0  0  0  0  0  0
    0.7196   -1.5835   -1.1995 H   0  0  0  0  0  0  0  0  0  0  0  0
    0.7968   -2.4317    0.3599 H   0  0  0  0  0  0  0  0  0  0  0  0
   -1.6989   -2.4595    0.3619 H   0  0  0  0  0  0  0  0  0  0  0  0
   -2.6505   -0.1706    0.6884 H   0  0  0  0  0  0  0  0  0  0  0  0
   -0.7420    1.0067    1.4962 H   0  0  0  0  0  0  0  0  0  0  0  0
    0.4851    2.3908   -0.0220 H   0  0  0  0  0  0  0  0  0  0  0  0
   -1.2653    2.4552   -0.3039 H   0  0  0  0  0  0  0  0  0  0  0  0
   -0.2763    1.5650   -1.4908 H   0  0  0  0  0  0  0  0  0  0  0  0
  1  2  1  0
  2  3  1  0
  3  4  1  0
  4  5  1  0
  5  6  1  0
  6  7  1  0
  7  8  1  0
  7  2  1  0
  6  4  1  0
  1  9  1  0
  1 10  1  0
  1 11  1  0
  2 12  1  0
  3 13  1  0
  3 14  1  0
  4 15  1  0
  6 16  1  0
  7 17  1  0
  8 18  1  0
  8 19  1  0
  8 20  1  0
M  END
