
     RDKit          3D

 21 22  0  0  0  0  0  0  0  0999 V2000
   -2.4985    0.3986    0.7163 C   0  0  0  0  0  0  0  0  0  0  0  0
   -1.5882    0.2262   -0.4915 C   0  0  0  0  0  0  0  0  0  0  0  0
   -0.8155   -1.0451   -0.4353 C   0  0  0  0  0  0  0  0  0  0  0  0
    0.6229   -0.6066   -0.4885 C   0  0  0  0  0  0  0  0  0  0  0  0
    1.5627   -1.4271   -1.1306 O   0  0  0  0  0  0  0  0  0  0  0  0
    1.1046    0.3165    0.5511 C   0  0  0  0  0  0  0  0  0  0  0  0
    2.5545    0.6031    0.7525 C   0  0  0  0  0  0  0  0  0  0  0  0
    0.5462    0.8335   -0.7777 C   0  0  0  0  0  0  0  0  0  0  0  0
   -0.7443    1.2722   -0.6963 O   0  0  0  0  0  0  0  0  0  0  0  0
   -1.9376    0.4014    1.6687 H   0  0  0  0  0  0  0  0  0  0  0  0
   -3.0798    1.3239    0.6071 H   0  0  0  0  0  0  0  0  0  0  0  0
   -3.2216   -0.4529    0.6981 H   0  0  0  0  0  0  0  0  0  0  0  0
   -2.2867    0.1764   -1.3768 H   0  0  0  0  0  0  0  0  0  0  0  0
   -0.9917   -1.6582    0.4517 H   0  0  0  0  0  0  0  0  0  0  0  0
   -0.9864   -1.6660   -1.3611 H   0  0  0  0  0  0  0  0  0  0  0  0
    1.3051   -2.3788   -1.0478 H   0  0  0  0  0  0  0  0  0  0  0  0
    0.4843    0.4137    1.4574 H   0  0  0  0  0  0  0  0  0  0  0  0
    2.7181    1.7155    0.7356 H   0  0  0  0  0  0  0  0  0  0  0  0
    3.1185    0.0978   -0.0604 H   0  0  0  0  0  0  0  0  0  0  0  0
    2.8826    0.2185    1.7517 H   0  0  0  0  0  0  0  0  0  0  0  0
    1.2510    1.2375   -1.5242 H   0  0  0  0  0  0  0  0  0  0  0  0
  1  2  1  0
  2  3  1  0
  3  4  1  0
  4  5  1  0
  4  6  1  0
  6  7  1  0
  6  8  1  0
  8  9  1  0
  9  2  1  0
  8  4  1  0
  1 10  1  0
  1 11  1  0
  1 12  1  0
  2 13  1  0
  3 14  1  0
  3 15  1  0
  5 16  1  0
  6 17  1  0
  7 18  1  0
  7 19  1  0
  7 20  1  0
  8 21  1  0
M  END
