
     RDKit          3D

 15 15  0  0  0  0  0  0  0  0999 V2000
   -2.3587   -0.1161    0.0540 C   0  0  0  0  0  0  0  0  0  0  0  0
   -0.8735   -0.0097   -0.0112 C   0  0  0  0  0  0  0  0  0  0  0  0
   -0.0574   -1.0867   -0.2957 C   0  0  0  0  0  0  0  0  0  0  0  0
    1.3067   -0.8731   -0.3302 C   0  0  0  0  0  0  0  0  0  0  0  0
    1.8823    0.3609   -0.0943 C   0  0  0  0  0  0  0  0  0  0  0  0
    3.2617    0.5136   -0.1430 O   0  0  0  0  0  0  0  0  0  0  0  0
    1.0566    1.3460    0.1707 O   0  0  0  0  0  0  0  0  0  0  0  0
   -0.2495    1.2013    0.2168 C   0  0  0  0  0  0  0  0  0  0  0  0
   -1.0136    2.1876    0.4783 O   0  0  0  0  0  0  0  0  0  0  0  0
   -2.7305    0.1093    1.0950 H   0  0  0  0  0  0  0  0  0  0  0  0
   -2.8525    0.6260   -0.6067 H   0  0  0  0  0  0  0  0  0  0  0  0
   -2.6815   -1.1304   -0.1702 H   0  0  0  0  0  0  0  0  0  0  0  0
   -0.5100   -2.0498   -0.4796 H   0  0  0  0  0  0  0  0  0  0  0  0
    1.9766   -1.7077   -0.5529 H   0  0  0  0  0  0  0  0  0  0  0  0
    3.8435    0.6288    0.6687 H   0  0  0  0  0  0  0  0  0  0  0  0
  1  2  1  0
  2  3  2  0
  3  4  1  0
  4  5  2  0
  5  6  1  0
  5  7  1  0
  7  8  1  0
  8  9  2  0
  8  2  1  0
  1 10  1  0
  1 11  1  0
  1 12  1  0
  3 13  1  0
  4 14  1  0
  6 15  1  0
M  END
