
     RDKit          3D

 21 22  0  0  0  0  0  0  0  0999 V2000
    0.8505    1.7515    0.3422 C   0  0  0  0  0  0  0  0  0  0  0  0
    0.6367    0.4965   -0.4287 C   0  0  0  0  0  0  0  0  0  0  0  0
    1.2931   -0.7554    0.1775 C   0  0  0  0  0  0  0  0  0  0  0  0
    2.4680   -1.0316   -0.4505 O   0  0  0  0  0  0  0  0  0  0  0  0
    0.0638   -1.5015   -0.3708 C   0  0  0  0  0  0  0  0  0  0  0  0
   -0.6395   -0.2029   -0.1721 C   0  0  0  0  0  0  0  0  0  0  0  0
   -1.8503    0.1186   -0.8862 C   0  0  0  0  0  0  0  0  0  0  0  0
   -2.5253    0.2571    0.3501 O   0  0  0  0  0  0  0  0  0  0  0  0
   -1.3511    0.0235    1.1004 C   0  0  0  0  0  0  0  0  0  0  0  0
    1.3112    1.6021    1.3378 H   0  0  0  0  0  0  0  0  0  0  0  0
    1.4657    2.4432   -0.2998 H   0  0  0  0  0  0  0  0  0  0  0  0
   -0.1360    2.2931    0.4426 H   0  0  0  0  0  0  0  0  0  0  0  0
    0.8690    0.5338   -1.5219 H   0  0  0  0  0  0  0  0  0  0  0  0
    1.2657   -0.6926    1.2641 H   0  0  0  0  0  0  0  0  0  0  0  0
    2.9494   -1.7994   -0.1156 H   0  0  0  0  0  0  0  0  0  0  0  0
   -0.2499   -2.3603    0.2190 H   0  0  0  0  0  0  0  0  0  0  0  0
    0.2725   -1.6964   -1.4584 H   0  0  0  0  0  0  0  0  0  0  0  0
   -1.8587    1.1294   -1.3828 H   0  0  0  0  0  0  0  0  0  0  0  0
   -2.3399   -0.5964   -1.5526 H   0  0  0  0  0  0  0  0  0  0  0  0
   -1.5006   -0.8939    1.7263 H   0  0  0  0  0  0  0  0  0  0  0  0
   -0.9943    0.8816    1.6793 H   0  0  0  0  0  0  0  0  0  0  0  0
  1  2  1  0
  2  3  1  0
  3  4  1  0
  3  5  1  0
  5  6  1  0
  6  7  1  0
  7  8  1  0
  8  9  1  0
  6  2  1  0
  9  6  1  0
  1 10  1  0
  1 11  1  0
  1 12  1  0
  2 13  1  0
  3 14  1  0
  4 15  1  0
  5 16  1  0
  5 17  1  0
  7 18  1  0
  7 19  1  0
  9 20  1  0
  9 21  1  0
M  END
