
     RDKit          3D

 19 20  0  0  0  0  0  0  0  0999 V2000
   -1.8159    1.1352   -0.0701 C   0  0  0  0  0  0  0  0  0  0  0  0
   -1.4844   -0.2382    0.4185 C   0  0  0  0  0  0  0  0  0  0  0  0
   -0.5209   -0.1382    1.5564 C   0  0  0  0  0  0  0  0  0  0  0  0
    0.7637   -0.0158    1.2273 C   0  0  0  0  0  0  0  0  0  0  0  0
    1.1038    0.0087   -0.2084 C   0  0  0  0  0  0  0  0  0  0  0  0
    0.2024   -0.7949   -1.0758 C   0  0  0  0  0  0  0  0  0  0  0  0
   -1.0236   -1.0866   -0.5521 O   0  0  0  0  0  0  0  0  0  0  0  0
    2.3565    0.5757   -0.6128 C   0  0  0  0  0  0  0  0  0  0  0  0
    1.1527    1.4130   -0.6832 O   0  0  0  0  0  0  0  0  0  0  0  0
   -2.9175    1.2982    0.0078 H   0  0  0  0  0  0  0  0  0  0  0  0
   -1.2732    1.8946    0.5184 H   0  0  0  0  0  0  0  0  0  0  0  0
   -1.5518    1.2668   -1.1574 H   0  0  0  0  0  0  0  0  0  0  0  0
   -2.4040   -0.7234    0.8601 H   0  0  0  0  0  0  0  0  0  0  0  0
   -0.8075   -0.1599    2.5919 H   0  0  0  0  0  0  0  0  0  0  0  0
    1.5493    0.0647    1.9831 H   0  0  0  0  0  0  0  0  0  0  0  0
    0.7215   -1.7802   -1.2682 H   0  0  0  0  0  0  0  0  0  0  0  0
    0.0863   -0.3525   -2.1020 H   0  0  0  0  0  0  0  0  0  0  0  0
    3.0584    0.9182    0.1749 H   0  0  0  0  0  0  0  0  0  0  0  0
    2.8041    0.5227   -1.6084 H   0  0  0  0  0  0  0  0  0  0  0  0
  1  2  1  0
  2  3  1  0
  3  4  2  0
  4  5  1  0
  5  6  1  0
  6  7  1  0
  5  8  1  0
  8  9  1  0
  7  2  1  0
  9  5  1  0
  1 10  1  0
  1 11  1  0
  1 12  1  0
  2 13  1  0
  3 14  1  0
  4 15  1  0
  6 16  1  0
  6 17  1  0
  8 18  1  0
  8 19  1  0
M  END
