
     RDKit          3D

 19 20  0  0  0  0  0  0  0  0999 V2000
    2.4711    0.2267    0.2949 C   0  0  0  0  0  0  0  0  0  0  0  0
    1.5297   -0.1327   -0.8089 C   0  0  0  0  0  0  0  0  0  0  0  0
    0.7094   -1.2966   -0.3374 C   0  0  0  0  0  0  0  0  0  0  0  0
   -0.4318   -0.7691    0.0324 C   0  0  0  0  0  0  0  0  0  0  0  0
   -1.7569   -0.9750    0.5699 C   0  0  0  0  0  0  0  0  0  0  0  0
   -2.5616    0.0202    0.1588 C   0  0  0  0  0  0  0  0  0  0  0  0
   -1.7663    0.9442   -0.6925 C   0  0  0  0  0  0  0  0  0  0  0  0
   -0.3682    0.7258   -0.1824 C   0  0  0  0  0  0  0  0  0  0  0  0
    0.6332    0.8859   -1.1275 O   0  0  0  0  0  0  0  0  0  0  0  0
    2.7343    1.3088    0.3114 H   0  0  0  0  0  0  0  0  0  0  0  0
    3.4048   -0.3871    0.1232 H   0  0  0  0  0  0  0  0  0  0  0  0
    2.0472   -0.0146    1.2964 H   0  0  0  0  0  0  0  0  0  0  0  0
    2.0584   -0.4027   -1.7342 H   0  0  0  0  0  0  0  0  0  0  0  0
    1.0264   -2.3309   -0.3210 H   0  0  0  0  0  0  0  0  0  0  0  0
   -2.0562   -1.7944    1.1952 H   0  0  0  0  0  0  0  0  0  0  0  0
   -3.6088    0.1216    0.4107 H   0  0  0  0  0  0  0  0  0  0  0  0
   -1.7709    0.6160   -1.7649 H   0  0  0  0  0  0  0  0  0  0  0  0
   -2.1032    1.9967   -0.5890 H   0  0  0  0  0  0  0  0  0  0  0  0
   -0.1906    1.2573    0.7562 H   0  0  0  0  0  0  0  0  0  0  0  0
  1  2  1  0
  2  3  1  0
  3  4  2  0
  4  5  1  0
  5  6  2  0
  6  7  1  0
  7  8  1  0
  8  9  1  0
  9  2  1  0
  8  4  1  0
  1 10  1  0
  1 11  1  0
  1 12  1  0
  2 13  1  0
  3 14  1  0
  5 15  1  0
  6 16  1  0
  7 17  1  0
  7 18  1  0
  8 19  1  0
M  END
