
     RDKit          3D

 20 21  0  0  0  0  0  0  0  0999 V2000
    2.5502    0.7687   -0.1027 C   0  0  0  0  0  0  0  0  0  0  0  0
    1.5112   -0.1688   -0.6153 C   0  0  0  0  0  0  0  0  0  0  0  0
    0.6161   -0.7491    0.4349 C   0  0  0  0  0  0  0  0  0  0  0  0
   -0.3965   -0.0172   -0.3557 C   0  0  0  0  0  0  0  0  0  0  0  0
   -1.6183   -0.7863   -0.6913 C   0  0  0  0  0  0  0  0  0  0  0  0
   -2.2006   -0.2226    0.6148 C   0  0  0  0  0  0  0  0  0  0  0  0
   -1.2601    0.9706    0.3791 C   0  0  0  0  0  0  0  0  0  0  0  0
    0.4415    0.4162   -1.3008 O   0  0  0  0  0  0  0  0  0  0  0  0
    3.5909    0.4392   -0.3938 H   0  0  0  0  0  0  0  0  0  0  0  0
    2.4348    1.8134   -0.4314 H   0  0  0  0  0  0  0  0  0  0  0  0
    2.5852    0.7840    1.0251 H   0  0  0  0  0  0  0  0  0  0  0  0
    1.9817   -0.9930   -1.2036 H   0  0  0  0  0  0  0  0  0  0  0  0
    0.7106   -0.3350    1.4559 H   0  0  0  0  0  0  0  0  0  0  0  0
    0.4593   -1.8477    0.3697 H   0  0  0  0  0  0  0  0  0  0  0  0
   -2.2459   -0.4280   -1.5234 H   0  0  0  0  0  0  0  0  0  0  0  0
   -1.4866   -1.8917   -0.6558 H   0  0  0  0  0  0  0  0  0  0  0  0
   -3.2584    0.0132    0.5850 H   0  0  0  0  0  0  0  0  0  0  0  0
   -1.8386   -0.8702    1.4423 H   0  0  0  0  0  0  0  0  0  0  0  0
   -1.7400    1.7002   -0.3194 H   0  0  0  0  0  0  0  0  0  0  0  0
   -0.8364    1.4041    1.2864 H   0  0  0  0  0  0  0  0  0  0  0  0
  1  2  1  0
  2  3  1  0
  3  4  1  0
  4  5  1  0
  5  6  1  0
  6  7  1  0
  4  8  1  0
  8  2  1  0
  7  4  1  0
  1  9  1  0
  1 10  1  0
  1 11  1  0
  2 12  1  0
  3 13  1  0
  3 14  1  0
  5 15  1  0
  5 16  1  0
  6 17  1  0
  6 18  1  0
  7 19  1  0
  7 20  1  0
M  END
