
     RDKit          3D

 21 22  0  0  0  0  0  0  0  0999 V2000
   -2.2349    0.7015   -0.2000 C   0  0  0  0  0  0  0  0  0  0  0  0
   -0.7243    0.6569   -0.1134 C   0  0  0  0  0  0  0  0  0  0  0  0
   -0.2874   -0.2794    1.0017 C   0  0  0  0  0  0  0  0  0  0  0  0
    1.1514   -0.0177    1.3708 C   0  0  0  0  0  0  0  0  0  0  0  0
    1.6725    0.8815    0.5056 O   0  0  0  0  0  0  0  0  0  0  0  0
    2.0407    0.4402   -0.7267 C   0  0  0  0  0  0  0  0  0  0  0  0
    1.0959   -0.0564   -1.5395 O   0  0  0  0  0  0  0  0  0  0  0  0
   -0.1421   -0.2932   -1.0917 C   0  0  0  0  0  0  0  0  0  0  0  0
   -0.2636   -1.3901   -0.0544 C   0  0  0  0  0  0  0  0  0  0  0  0
   -2.5283    0.6440   -1.2826 H   0  0  0  0  0  0  0  0  0  0  0  0
   -2.6527   -0.2097    0.2658 H   0  0  0  0  0  0  0  0  0  0  0  0
   -2.6327    1.6156    0.2583 H   0  0  0  0  0  0  0  0  0  0  0  0
   -0.2205    1.6450   -0.0974 H   0  0  0  0  0  0  0  0  0  0  0  0
   -0.9926   -0.4290    1.8125 H   0  0  0  0  0  0  0  0  0  0  0  0
    1.7009   -0.9680    1.4773 H   0  0  0  0  0  0  0  0  0  0  0  0
    1.1392    0.4408    2.3928 H   0  0  0  0  0  0  0  0  0  0  0  0
    2.4988    1.3308   -1.2583 H   0  0  0  0  0  0  0  0  0  0  0  0
    2.9011   -0.2939   -0.6886 H   0  0  0  0  0  0  0  0  0  0  0  0
   -0.8505   -0.4718   -1.9540 H   0  0  0  0  0  0  0  0  0  0  0  0
    0.5898   -2.0570    0.0538 H   0  0  0  0  0  0  0  0  0  0  0  0
   -1.2608   -1.8900   -0.1321 H   0  0  0  0  0  0  0  0  0  0  0  0
  1  2  1  0
  2  3  1  0
  3  4  1  0
  4  5  1  0
  5  6  1  0
  6  7  1  0
  7  8  1  0
  8  9  1  0
  8  2  1  0
  9  3  1  0
  1 10  1  0
  1 11  1  0
  1 12  1  0
  2 13  1  0
  3 14  1  0
  4 15  1  0
  4 16  1  0
  6 17  1  0
  6 18  1  0
  8 19  1  0
  9 20  1  0
  9 21  1  0
M  END
