
     RDKit          3D

 25 26  0  0  0  0  0  0  0  0999 V2000
    3.2438    0.6073    0.6375 C   0  0  0  0  0  0  0  0  0  0  0  0
    2.1253   -0.0275   -0.1725 C   0  0  0  0  0  0  0  0  0  0  0  0
    1.3480    0.7775   -1.1261 C   0  0  0  0  0  0  0  0  0  0  0  0
    0.7265    0.4775    0.1770 C   0  0  0  0  0  0  0  0  0  0  0  0
   -0.3090   -0.6034    0.3267 C   0  0  0  0  0  0  0  0  0  0  0  0
   -1.7165   -0.0845    0.6793 C   0  0  0  0  0  0  0  0  0  0  0  0
   -1.8959    1.4219    0.7274 C   0  0  0  0  0  0  0  0  0  0  0  0
   -1.4396   -0.7270   -0.6201 C   0  0  0  0  0  0  0  0  0  0  0  0
   -2.0194   -2.1145   -0.8064 C   0  0  0  0  0  0  0  0  0  0  0  0
    3.0068    0.4681    1.7119 H   0  0  0  0  0  0  0  0  0  0  0  0
    4.2010    0.1474    0.3909 H   0  0  0  0  0  0  0  0  0  0  0  0
    3.3350    1.6989    0.4189 H   0  0  0  0  0  0  0  0  0  0  0  0
    2.2782   -1.0989   -0.3520 H   0  0  0  0  0  0  0  0  0  0  0  0
    1.0228    0.2425   -2.0597 H   0  0  0  0  0  0  0  0  0  0  0  0
    1.6287    1.8287   -1.3417 H   0  0  0  0  0  0  0  0  0  0  0  0
    0.6507    1.3224    0.8948 H   0  0  0  0  0  0  0  0  0  0  0  0
    0.0398   -1.5143    0.8502 H   0  0  0  0  0  0  0  0  0  0  0  0
   -2.1986   -0.6371    1.5119 H   0  0  0  0  0  0  0  0  0  0  0  0
   -1.2608    1.8699    1.5096 H   0  0  0  0  0  0  0  0  0  0  0  0
   -1.6687    1.8887   -0.2566 H   0  0  0  0  0  0  0  0  0  0  0  0
   -2.9727    1.6004    0.9092 H   0  0  0  0  0  0  0  0  0  0  0  0
   -1.5306   -0.0864   -1.5201 H   0  0  0  0  0  0  0  0  0  0  0  0
   -2.6624   -2.3971    0.0729 H   0  0  0  0  0  0  0  0  0  0  0  0
   -1.2396   -2.8973   -0.8790 H   0  0  0  0  0  0  0  0  0  0  0  0
   -2.6928   -2.1632   -1.6839 H   0  0  0  0  0  0  0  0  0  0  0  0
  1  2  1  0
  2  3  1  0
  3  4  1  0
  4  5  1  0
  5  6  1  0
  6  7  1  0
  6  8  1  0
  8  9  1  0
  4  2  1  0
  8  5  1  0
  1 10  1  0
  1 11  1  0
  1 12  1  0
  2 13  1  0
  3 14  1  0
  3 15  1  0
  4 16  1  0
  5 17  1  0
  6 18  1  0
  7 19  1  0
  7 20  1  0
  7 21  1  0
  8 22  1  0
  9 23  1  0
  9 24  1  0
  9 25  1  0
M  END
