
     RDKit          3D

 21 23  0  0  0  0  0  0  0  0999 V2000
    2.3145    0.0488   -0.0039 C   0  0  0  0  0  0  0  0  0  0  0  0
    0.9247   -0.5564   -0.2380 C   0  0  0  0  0  0  0  0  0  0  0  0
    0.3011   -0.8140    1.0885 C   0  0  0  0  0  0  0  0  0  0  0  0
   -1.0225   -0.0874    1.1670 C   0  0  0  0  0  0  0  0  0  0  0  0
   -1.9089   -0.4608    0.0012 C   0  0  0  0  0  0  0  0  0  0  0  0
   -1.2746    0.2708   -1.1303 C   0  0  0  0  0  0  0  0  0  0  0  0
   -0.5872    1.4324   -0.4142 C   0  0  0  0  0  0  0  0  0  0  0  0
   -0.7775    1.2512    0.9284 O   0  0  0  0  0  0  0  0  0  0  0  0
    0.1751    0.3895   -1.1098 C   0  0  0  0  0  0  0  0  0  0  0  0
    2.2430    1.0847    0.3833 H   0  0  0  0  0  0  0  0  0  0  0  0
    2.8975    0.0820   -0.9568 H   0  0  0  0  0  0  0  0  0  0  0  0
    2.9100   -0.5563    0.6985 H   0  0  0  0  0  0  0  0  0  0  0  0
    1.1221   -1.5188   -0.7753 H   0  0  0  0  0  0  0  0  0  0  0  0
    0.1315   -1.9006    1.2462 H   0  0  0  0  0  0  0  0  0  0  0  0
    0.9298   -0.4140    1.9298 H   0  0  0  0  0  0  0  0  0  0  0  0
   -1.5187   -0.2607    2.1191 H   0  0  0  0  0  0  0  0  0  0  0  0
   -2.0361   -1.5317   -0.1394 H   0  0  0  0  0  0  0  0  0  0  0  0
   -2.9084    0.0122    0.2012 H   0  0  0  0  0  0  0  0  0  0  0  0
   -1.8182    0.4741   -2.0627 H   0  0  0  0  0  0  0  0  0  0  0  0
   -0.7770    2.4005   -0.8813 H   0  0  0  0  0  0  0  0  0  0  0  0
    0.6798    0.6546   -2.0515 H   0  0  0  0  0  0  0  0  0  0  0  0
  1  2  1  0
  2  3  1  0
  3  4  1  0
  4  5  1  0
  5  6  1  0
  6  7  1  0
  7  8  1  0
  7  9  1  0
  9  2  1  0
  8  4  1  0
  9  6  1  0
  1 10  1  0
  1 11  1  0
  1 12  1  0
  2 13  1  0
  3 14  1  0
  3 15  1  0
  4 16  1  0
  5 17  1  0
  5 18  1  0
  6 19  1  0
  7 20  1  0
  9 21  1  0
M  END
