
     RDKit          3D

 19 19  0  0  0  0  0  0  0  0999 V2000
   -1.2018    1.6136    0.2634 C   0  0  0  0  0  0  0  0  0  0  0  0
   -0.2251    0.7850   -0.4752 C   0  0  0  0  0  0  0  0  0  0  0  0
    1.1233    0.9313    0.1766 C   0  0  0  0  0  0  0  0  0  0  0  0
    2.0367    0.0149    0.1185 C   0  0  0  0  0  0  0  0  0  0  0  0
    1.7483   -1.2085   -0.6088 C   0  0  0  0  0  0  0  0  0  0  0  0
    2.6373   -2.1166   -0.6723 O   0  0  0  0  0  0  0  0  0  0  0  0
    0.5118   -1.3393   -1.2071 O   0  0  0  0  0  0  0  0  0  0  0  0
   -0.5900   -0.6508   -0.6554 C   0  0  0  0  0  0  0  0  0  0  0  0
   -1.0137   -1.3740    0.5708 C   0  0  0  0  0  0  0  0  0  0  0  0
   -2.0361    1.0947    0.7250 H   0  0  0  0  0  0  0  0  0  0  0  0
   -1.6627    2.4151   -0.3883 H   0  0  0  0  0  0  0  0  0  0  0  0
   -0.7055    2.2071    1.0880 H   0  0  0  0  0  0  0  0  0  0  0  0
   -0.0946    1.2150   -1.4919 H   0  0  0  0  0  0  0  0  0  0  0  0
    1.3067    1.8459    0.7042 H   0  0  0  0  0  0  0  0  0  0  0  0
    2.9817    0.1718    0.6029 H   0  0  0  0  0  0  0  0  0  0  0  0
   -1.4345   -0.6924   -1.3945 H   0  0  0  0  0  0  0  0  0  0  0  0
   -1.6946   -0.8517    1.2308 H   0  0  0  0  0  0  0  0  0  0  0  0
   -0.1428   -1.7512    1.1776 H   0  0  0  0  0  0  0  0  0  0  0  0
   -1.5445   -2.3100    0.2357 H   0  0  0  0  0  0  0  0  0  0  0  0
  1  2  1  0
  2  3  1  0
  3  4  2  0
  4  5  1  0
  5  6  2  0
  5  7  1  0
  7  8  1  0
  8  9  1  0
  8  2  1  0
  1 10  1  0
  1 11  1  0
  1 12  1  0
  2 13  1  0
  3 14  1  0
  4 15  1  0
  8 16  1  0
  9 17  1  0
  9 18  1  0
  9 19  1  0
M  END
