
     RDKit          3D

 19 19  0  0  0  0  0  0  0  0999 V2000
   -1.1937    0.5252   -1.0501 C   0  0  0  0  0  0  0  0  0  0  0  0
   -1.1943   -0.7408   -0.2390 C   0  0  0  0  0  0  0  0  0  0  0  0
   -1.7718   -0.4962    1.1372 C   0  0  0  0  0  0  0  0  0  0  0  0
   -0.7777   -1.2794    1.6592 O   0  0  0  0  0  0  0  0  0  0  0  0
    0.0304   -1.0578    0.5435 C   0  0  0  0  0  0  0  0  0  0  0  0
    1.0422   -0.0158    0.7003 C   0  0  0  0  0  0  0  0  0  0  0  0
    1.1292    0.5890    1.7458 O   0  0  0  0  0  0  0  0  0  0  0  0
    1.9869    0.3438   -0.3817 C   0  0  0  0  0  0  0  0  0  0  0  0
    2.8553    1.3619   -0.0008 O   0  0  0  0  0  0  0  0  0  0  0  0
   -0.6502    1.3324   -0.5165 H   0  0  0  0  0  0  0  0  0  0  0  0
   -2.2684    0.8761   -1.0712 H   0  0  0  0  0  0  0  0  0  0  0  0
   -0.7719    0.4312   -2.0467 H   0  0  0  0  0  0  0  0  0  0  0  0
   -1.6286   -1.6180   -0.7190 H   0  0  0  0  0  0  0  0  0  0  0  0
   -1.7357    0.5853    1.4128 H   0  0  0  0  0  0  0  0  0  0  0  0
   -2.8118   -0.8481    1.2673 H   0  0  0  0  0  0  0  0  0  0  0  0
    0.4875   -2.0472    0.2575 H   0  0  0  0  0  0  0  0  0  0  0  0
    2.6325   -0.5304   -0.6369 H   0  0  0  0  0  0  0  0  0  0  0  0
    1.5033    0.6483   -1.3196 H   0  0  0  0  0  0  0  0  0  0  0  0
    3.1369    1.9407   -0.7422 H   0  0  0  0  0  0  0  0  0  0  0  0
  1  2  1  0
  2  3  1  0
  3  4  1  0
  4  5  1  0
  5  6  1  0
  6  7  2  0
  6  8  1  0
  8  9  1  0
  5  2  1  0
  1 10  1  0
  1 11  1  0
  1 12  1  0
  2 13  1  0
  3 14  1  0
  3 15  1  0
  5 16  1  0
  8 17  1  0
  8 18  1  0
  9 19  1  0
M  END
