
     RDKit          3D

 17 18  0  0  0  0  0  0  0  0999 V2000
    1.9352   -0.4054    0.3850 C   0  0  0  0  0  0  0  0  0  0  0  0
    0.9303    0.4002   -0.3417 C   0  0  0  0  0  0  0  0  0  0  0  0
   -0.0394    1.1028    0.5805 C   0  0  0  0  0  0  0  0  0  0  0  0
    0.2216    1.7665    1.5573 O   0  0  0  0  0  0  0  0  0  0  0  0
   -1.3676    0.7814   -0.0005 C   0  0  0  0  0  0  0  0  0  0  0  0
   -1.7072   -0.6307    0.4060 C   0  0  0  0  0  0  0  0  0  0  0  0
   -0.6900   -1.3452   -0.2618 O   0  0  0  0  0  0  0  0  0  0  0  0
   -0.0769   -0.4583   -1.1194 C   0  0  0  0  0  0  0  0  0  0  0  0
   -1.0513    0.5441   -1.3602 O   0  0  0  0  0  0  0  0  0  0  0  0
    1.7639   -1.4825    0.1787 H   0  0  0  0  0  0  0  0  0  0  0  0
    1.9271   -0.2330    1.4756 H   0  0  0  0  0  0  0  0  0  0  0  0
    2.9440   -0.1823   -0.0600 H   0  0  0  0  0  0  0  0  0  0  0  0
    1.3120    1.1395   -1.0444 H   0  0  0  0  0  0  0  0  0  0  0  0
   -2.1323    1.5094    0.1493 H   0  0  0  0  0  0  0  0  0  0  0  0
   -2.6984   -0.8779   -0.0006 H   0  0  0  0  0  0  0  0  0  0  0  0
   -1.6029   -0.7523    1.4805 H   0  0  0  0  0  0  0  0  0  0  0  0
    0.3320   -0.8762   -2.0245 H   0  0  0  0  0  0  0  0  0  0  0  0
  1  2  1  0
  2  3  1  0
  3  4  2  0
  3  5  1  0
  5  6  1  0
  6  7  1  0
  7  8  1  0
  8  9  1  0
  8  2  1  0
  9  5  1  0
  1 10  1  0
  1 11  1  0
  1 12  1  0
  2 13  1  0
  5 14  1  0
  6 15  1  0
  6 16  1  0
  8 17  1  0
M  END
