
     RDKit          3D

 21 21  0  0  0  0  0  0  0  0999 V2000
    2.4801    0.5878   -0.0609 C   0  0  0  0  0  0  0  0  0  0  0  0
    1.0019    0.7293    0.3024 C   0  0  0  0  0  0  0  0  0  0  0  0
    0.4604   -0.5716    0.8307 C   0  0  0  0  0  0  0  0  0  0  0  0
   -0.9340   -0.5969    0.2384 C   0  0  0  0  0  0  0  0  0  0  0  0
   -1.0923   -1.9152   -0.4932 C   0  0  0  0  0  0  0  0  0  0  0  0
   -0.9674    0.5819   -0.7098 C   0  0  0  0  0  0  0  0  0  0  0  0
   -1.6863    1.6797   -0.0269 C   0  0  0  0  0  0  0  0  0  0  0  0
   -2.8672    1.6001    0.2624 O   0  0  0  0  0  0  0  0  0  0  0  0
    0.3343    0.9507   -0.9044 O   0  0  0  0  0  0  0  0  0  0  0  0
    3.0424    0.2077    0.7999 H   0  0  0  0  0  0  0  0  0  0  0  0
    2.8065    1.6224   -0.3557 H   0  0  0  0  0  0  0  0  0  0  0  0
    2.5138   -0.1172   -0.9105 H   0  0  0  0  0  0  0  0  0  0  0  0
    0.8758    1.5714    0.9863 H   0  0  0  0  0  0  0  0  0  0  0  0
    0.4536   -0.6388    1.9246 H   0  0  0  0  0  0  0  0  0  0  0  0
    1.0797   -1.4109    0.4476 H   0  0  0  0  0  0  0  0  0  0  0  0
   -1.6508   -0.4781    1.0576 H   0  0  0  0  0  0  0  0  0  0  0  0
   -1.2084   -2.6960    0.3024 H   0  0  0  0  0  0  0  0  0  0  0  0
   -0.1258   -2.1279   -1.0349 H   0  0  0  0  0  0  0  0  0  0  0  0
   -1.9190   -1.9101   -1.2065 H   0  0  0  0  0  0  0  0  0  0  0  0
   -1.4117    0.3328   -1.6918 H   0  0  0  0  0  0  0  0  0  0  0  0
   -1.1856    2.5991    0.2421 H   0  0  0  0  0  0  0  0  0  0  0  0
  1  2  1  0
  2  3  1  0
  3  4  1  0
  4  5  1  0
  4  6  1  0
  6  7  1  0
  7  8  2  0
  6  9  1  0
  9  2  1  0
  1 10  1  0
  1 11  1  0
  1 12  1  0
  2 13  1  0
  3 14  1  0
  3 15  1  0
  4 16  1  0
  5 17  1  0
  5 18  1  0
  5 19  1  0
  6 20  1  0
  7 21  1  0
M  END
