
     RDKit          3D

 25 25  0  0  0  0  0  0  0  0999 V2000
    1.8971    1.1461   -0.0862 C   0  0  0  0  0  0  0  0  0  0  0  0
    0.8711    0.2415   -0.6562 C   0  0  0  0  0  0  0  0  0  0  0  0
    1.2777   -1.2008   -0.4706 C   0  0  0  0  0  0  0  0  0  0  0  0
    0.2448   -1.8506    0.4010 C   0  0  0  0  0  0  0  0  0  0  0  0
   -0.9771   -1.0071    0.2919 C   0  0  0  0  0  0  0  0  0  0  0  0
   -1.7079   -0.9258    1.4771 O   0  0  0  0  0  0  0  0  0  0  0  0
   -0.5006    0.3812   -0.1551 C   0  0  0  0  0  0  0  0  0  0  0  0
   -1.4722    0.8112   -1.2643 C   0  0  0  0  0  0  0  0  0  0  0  0
   -0.7217    1.3056    0.9882 C   0  0  0  0  0  0  0  0  0  0  0  0
    2.1718    1.9769   -0.7993 H   0  0  0  0  0  0  0  0  0  0  0  0
    1.6711    1.6042    0.8690 H   0  0  0  0  0  0  0  0  0  0  0  0
    2.8510    0.5679    0.0452 H   0  0  0  0  0  0  0  0  0  0  0  0
    0.8598    0.4154   -1.7737 H   0  0  0  0  0  0  0  0  0  0  0  0
    2.2590   -1.3024    0.0559 H   0  0  0  0  0  0  0  0  0  0  0  0
    1.3942   -1.7468   -1.4290 H   0  0  0  0  0  0  0  0  0  0  0  0
    0.0538   -2.8828   -0.0145 H   0  0  0  0  0  0  0  0  0  0  0  0
    0.5933   -2.0247    1.4387 H   0  0  0  0  0  0  0  0  0  0  0  0
   -1.6462   -1.4659   -0.4646 H   0  0  0  0  0  0  0  0  0  0  0  0
   -1.3187   -1.4472    2.2127 H   0  0  0  0  0  0  0  0  0  0  0  0
   -1.2500    0.2872   -2.2040 H   0  0  0  0  0  0  0  0  0  0  0  0
   -2.4826    0.5655   -0.8759 H   0  0  0  0  0  0  0  0  0  0  0  0
   -1.4599    1.9251   -1.3857 H   0  0  0  0  0  0  0  0  0  0  0  0
   -0.7693    2.3460    0.5918 H   0  0  0  0  0  0  0  0  0  0  0  0
   -0.0679    1.1765    1.8449 H   0  0  0  0  0  0  0  0  0  0  0  0
   -1.7707    1.1041    1.3623 H   0  0  0  0  0  0  0  0  0  0  0  0
  1  2  1  0
  2  3  1  0
  3  4  1  0
  4  5  1  0
  5  6  1  0
  5  7  1  0
  7  8  1  0
  7  9  1  0
  7  2  1  0
  1 10  1  0
  1 11  1  0
  1 12  1  0
  2 13  1  0
  3 14  1  0
  3 15  1  0
  4 16  1  0
  4 17  1  0
  5 18  1  0
  6 19  1  0
  8 20  1  0
  8 21  1  0
  8 22  1  0
  9 23  1  0
  9 24  1  0
  9 25  1  0
M  END
