
     RDKit          3D

 19 20  0  0  0  0  0  0  0  0999 V2000
    2.4604    0.3963   -0.2698 C   0  0  0  0  0  0  0  0  0  0  0  0
    1.1128   -0.3092   -0.1792 C   0  0  0  0  0  0  0  0  0  0  0  0
    0.6043   -0.3201    1.2275 C   0  0  0  0  0  0  0  0  0  0  0  0
   -0.8830   -0.1609    1.0477 C   0  0  0  0  0  0  0  0  0  0  0  0
   -1.5766   -1.0986    0.1268 C   0  0  0  0  0  0  0  0  0  0  0  0
   -1.0520    0.2248   -0.3726 C   0  0  0  0  0  0  0  0  0  0  0  0
   -2.0863    1.1747   -0.7972 C   0  0  0  0  0  0  0  0  0  0  0  0
   -1.8244    1.9700   -1.6830 O   0  0  0  0  0  0  0  0  0  0  0  0
    0.1674    0.2684   -0.9878 O   0  0  0  0  0  0  0  0  0  0  0  0
    3.2379   -0.3941   -0.3308 H   0  0  0  0  0  0  0  0  0  0  0  0
    2.6744    0.9756    0.6592 H   0  0  0  0  0  0  0  0  0  0  0  0
    2.4945    1.0757   -1.1177 H   0  0  0  0  0  0  0  0  0  0  0  0
    1.2153   -1.3795   -0.5006 H   0  0  0  0  0  0  0  0  0  0  0  0
    0.9639    0.5238    1.8292 H   0  0  0  0  0  0  0  0  0  0  0  0
    0.7651   -1.3107    1.7316 H   0  0  0  0  0  0  0  0  0  0  0  0
   -1.4743    0.3330    1.8559 H   0  0  0  0  0  0  0  0  0  0  0  0
   -2.6633   -1.2345    0.2641 H   0  0  0  0  0  0  0  0  0  0  0  0
   -1.0508   -1.9664   -0.2955 H   0  0  0  0  0  0  0  0  0  0  0  0
   -3.0852    1.2318   -0.3822 H   0  0  0  0  0  0  0  0  0  0  0  0
  1  2  1  0
  2  3  1  0
  3  4  1  0
  4  5  1  0
  5  6  1  0
  6  7  1  0
  7  8  2  0
  6  9  1  0
  9  2  1  0
  6  4  1  0
  1 10  1  0
  1 11  1  0
  1 12  1  0
  2 13  1  0
  3 14  1  0
  3 15  1  0
  4 16  1  0
  5 17  1  0
  5 18  1  0
  7 19  1  0
M  END
