
     RDKit          3D

 17 18  0  0  0  0  0  0  0  0999 V2000
    1.7811   -0.4597    0.7513 C   0  0  0  0  0  0  0  0  0  0  0  0
    0.8846    0.5028    0.0136 C   0  0  0  0  0  0  0  0  0  0  0  0
   -0.5552    0.6337    0.3397 C   0  0  0  0  0  0  0  0  0  0  0  0
   -1.1282    0.0062    1.4191 O   0  0  0  0  0  0  0  0  0  0  0  0
   -1.4116    1.3765   -0.6356 C   0  0  0  0  0  0  0  0  0  0  0  0
   -0.8861    0.6834   -1.7356 O   0  0  0  0  0  0  0  0  0  0  0  0
   -0.1856   -0.1288   -0.8531 C   0  0  0  0  0  0  0  0  0  0  0  0
   -0.3724   -1.5846   -0.8874 C   0  0  0  0  0  0  0  0  0  0  0  0
    0.1996   -2.3605   -0.1474 O   0  0  0  0  0  0  0  0  0  0  0  0
    2.6396    0.0666    1.2214 H   0  0  0  0  0  0  0  0  0  0  0  0
    2.2026   -1.1861    0.0198 H   0  0  0  0  0  0  0  0  0  0  0  0
    1.2031   -1.0492    1.4951 H   0  0  0  0  0  0  0  0  0  0  0  0
    1.3657    1.4142   -0.4397 H   0  0  0  0  0  0  0  0  0  0  0  0
   -1.0180    0.4629    2.2767 H   0  0  0  0  0  0  0  0  0  0  0  0
   -1.1442    2.4400   -0.6643 H   0  0  0  0  0  0  0  0  0  0  0  0
   -2.4935    1.1451   -0.5312 H   0  0  0  0  0  0  0  0  0  0  0  0
   -1.0814   -1.9624   -1.6424 H   0  0  0  0  0  0  0  0  0  0  0  0
  1  2  1  0
  2  3  1  0
  3  4  1  0
  3  5  1  0
  5  6  1  0
  6  7  1  0
  7  8  1  0
  8  9  2  0
  7  2  1  0
  7  3  1  0
  1 10  1  0
  1 11  1  0
  1 12  1  0
  2 13  1  0
  4 14  1  0
  5 15  1  0
  5 16  1  0
  8 17  1  0
M  END
