
     RDKit          3D

 23 23  0  0  0  0  0  0  0  0999 V2000
    2.0423   -0.7810    0.6186 C   0  0  0  0  0  0  0  0  0  0  0  0
    1.2821   -0.3108   -0.6259 C   0  0  0  0  0  0  0  0  0  0  0  0
    1.3319    1.1483   -0.6395 C   0  0  0  0  0  0  0  0  0  0  0  0
    0.5241    2.0362   -0.1013 C   0  0  0  0  0  0  0  0  0  0  0  0
   -0.7000    1.8081    0.6941 C   0  0  0  0  0  0  0  0  0  0  0  0
   -1.4805    0.9012    0.0203 O   0  0  0  0  0  0  0  0  0  0  0  0
   -1.1261   -0.4030    0.1601 C   0  0  0  0  0  0  0  0  0  0  0  0
   -2.3807   -1.2347   -0.0974 C   0  0  0  0  0  0  0  0  0  0  0  0
   -0.0667   -0.9223   -0.7281 C   0  0  0  0  0  0  0  0  0  0  0  0
    3.1263   -0.9275    0.3815 H   0  0  0  0  0  0  0  0  0  0  0  0
    1.6466   -1.7250    0.9920 H   0  0  0  0  0  0  0  0  0  0  0  0
    2.0221    0.0200    1.3985 H   0  0  0  0  0  0  0  0  0  0  0  0
    1.8836   -0.6896   -1.4863 H   0  0  0  0  0  0  0  0  0  0  0  0
    2.1632    1.5891   -1.1753 H   0  0  0  0  0  0  0  0  0  0  0  0
    0.7950    3.0619   -0.2648 H   0  0  0  0  0  0  0  0  0  0  0  0
   -1.2887    2.7652    0.8055 H   0  0  0  0  0  0  0  0  0  0  0  0
   -0.3923    1.4351    1.7109 H   0  0  0  0  0  0  0  0  0  0  0  0
   -0.8419   -0.6437    1.2271 H   0  0  0  0  0  0  0  0  0  0  0  0
   -3.3052   -0.6136    0.0192 H   0  0  0  0  0  0  0  0  0  0  0  0
   -2.4749   -2.0733    0.5987 H   0  0  0  0  0  0  0  0  0  0  0  0
   -2.3994   -1.5738   -1.1741 H   0  0  0  0  0  0  0  0  0  0  0  0
   -0.4012   -0.8543   -1.7992 H   0  0  0  0  0  0  0  0  0  0  0  0
    0.0404   -2.0124   -0.5340 H   0  0  0  0  0  0  0  0  0  0  0  0
  1  2  1  0
  2  3  1  0
  3  4  2  0
  4  5  1  0
  5  6  1  0
  6  7  1  0
  7  8  1  0
  7  9  1  0
  9  2  1  0
  1 10  1  0
  1 11  1  0
  1 12  1  0
  2 13  1  0
  3 14  1  0
  4 15  1  0
  5 16  1  0
  5 17  1  0
  7 18  1  0
  8 19  1  0
  8 20  1  0
  8 21  1  0
  9 22  1  0
  9 23  1  0
M  END
