
     RDKit          3D

 21 23  0  0  0  0  0  0  0  0999 V2000
   -2.8235    0.2838   -0.6530 C   0  0  0  0  0  0  0  0  0  0  0  0
   -1.4227    0.3994   -0.1009 C   0  0  0  0  0  0  0  0  0  0  0  0
   -1.1215   -0.5424    1.0302 C   0  0  0  0  0  0  0  0  0  0  0  0
   -0.4819   -0.6923   -0.3692 C   0  0  0  0  0  0  0  0  0  0  0  0
    0.9906   -0.5518   -0.3586 C   0  0  0  0  0  0  0  0  0  0  0  0
    1.6450   -0.1045    0.9108 C   0  0  0  0  0  0  0  0  0  0  0  0
    2.8314    0.2832    0.0815 C   0  0  0  0  0  0  0  0  0  0  0  0
    1.5882    0.7790   -0.6103 C   0  0  0  0  0  0  0  0  0  0  0  0
    1.1474    1.1572    0.6461 O   0  0  0  0  0  0  0  0  0  0  0  0
   -3.4427   -0.4198   -0.0583 H   0  0  0  0  0  0  0  0  0  0  0  0
   -3.3717    1.2619   -0.6153 H   0  0  0  0  0  0  0  0  0  0  0  0
   -2.7768   -0.0657   -1.6971 H   0  0  0  0  0  0  0  0  0  0  0  0
   -1.0851    1.4431    0.0174 H   0  0  0  0  0  0  0  0  0  0  0  0
   -0.5008   -0.1633    1.8441 H   0  0  0  0  0  0  0  0  0  0  0  0
   -1.8692   -1.3110    1.3114 H   0  0  0  0  0  0  0  0  0  0  0  0
   -0.8562   -1.5889   -0.9416 H   0  0  0  0  0  0  0  0  0  0  0  0
    1.5459   -1.3524   -0.8531 H   0  0  0  0  0  0  0  0  0  0  0  0
    1.6547   -0.5864    1.7941 H   0  0  0  0  0  0  0  0  0  0  0  0
    3.2772   -0.5996   -0.4091 H   0  0  0  0  0  0  0  0  0  0  0  0
    3.5081    1.0372    0.4841 H   0  0  0  0  0  0  0  0  0  0  0  0
    1.5635    1.3334   -1.4532 H   0  0  0  0  0  0  0  0  0  0  0  0
  1  2  1  0
  2  3  1  0
  3  4  1  0
  4  5  1  0
  5  6  1  0
  6  7  1  0
  7  8  1  0
  8  9  1  0
  4  2  1  0
  8  5  1  0
  9  6  1  0
  1 10  1  0
  1 11  1  0
  1 12  1  0
  2 13  1  0
  3 14  1  0
  3 15  1  0
  4 16  1  0
  5 17  1  0
  6 18  1  0
  7 19  1  0
  7 20  1  0
  8 21  1  0
M  END
