
     RDKit          3D

 21 22  0  0  0  0  0  0  0  0999 V2000
    2.3854    0.2480   -0.3425 C   0  0  0  0  0  0  0  0  0  0  0  0
    0.9324   -0.0798   -0.3138 C   0  0  0  0  0  0  0  0  0  0  0  0
    0.4882   -0.6324    1.0492 C   0  0  0  0  0  0  0  0  0  0  0  0
   -0.8520    0.0965    1.1925 C   0  0  0  0  0  0  0  0  0  0  0  0
   -0.4284    1.3989    0.8324 O   0  0  0  0  0  0  0  0  0  0  0  0
    0.0286    1.0970   -0.4734 C   0  0  0  0  0  0  0  0  0  0  0  0
   -1.2797    0.5868   -1.0802 C   0  0  0  0  0  0  0  0  0  0  0  0
   -1.7777   -0.2867    0.0813 C   0  0  0  0  0  0  0  0  0  0  0  0
   -1.5743   -1.6035   -0.3247 O   0  0  0  0  0  0  0  0  0  0  0  0
    2.5744    1.1199   -1.0052 H   0  0  0  0  0  0  0  0  0  0  0  0
    2.8280    0.4098    0.6727 H   0  0  0  0  0  0  0  0  0  0  0  0
    2.9363   -0.6406   -0.7510 H   0  0  0  0  0  0  0  0  0  0  0  0
    0.6987   -0.8507   -1.0963 H   0  0  0  0  0  0  0  0  0  0  0  0
    0.3727   -1.7148    1.0035 H   0  0  0  0  0  0  0  0  0  0  0  0
    1.1235   -0.2591    1.8650 H   0  0  0  0  0  0  0  0  0  0  0  0
   -1.2620    0.0438    2.1893 H   0  0  0  0  0  0  0  0  0  0  0  0
    0.4385    1.9500   -0.9887 H   0  0  0  0  0  0  0  0  0  0  0  0
   -1.1278    0.0158   -1.9932 H   0  0  0  0  0  0  0  0  0  0  0  0
   -1.9817    1.4355   -1.2398 H   0  0  0  0  0  0  0  0  0  0  0  0
   -2.8198   -0.0719    0.3384 H   0  0  0  0  0  0  0  0  0  0  0  0
   -1.7036   -2.2624    0.3843 H   0  0  0  0  0  0  0  0  0  0  0  0
  1  2  1  0
  2  3  1  0
  3  4  1  0
  4  5  1  0
  5  6  1  0
  6  7  1  0
  7  8  1  0
  8  9  1  0
  6  2  1  0
  8  4  1  0
  1 10  1  0
  1 11  1  0
  1 12  1  0
  2 13  1  0
  3 14  1  0
  3 15  1  0
  4 16  1  0
  6 17  1  0
  7 18  1  0
  7 19  1  0
  8 20  1  0
  9 21  1  0
M  END
