
     RDKit          3D

 23 24  0  0  0  0  0  0  0  0999 V2000
    1.1662    1.5104   -0.0572 C   0  0  0  0  0  0  0  0  0  0  0  0
    0.2282    0.6499   -0.8442 C   0  0  0  0  0  0  0  0  0  0  0  0
    0.8756   -0.7079   -1.0153 C   0  0  0  0  0  0  0  0  0  0  0  0
    1.4149   -1.0798    0.3223 C   0  0  0  0  0  0  0  0  0  0  0  0
    0.3308   -1.2584    1.0985 C   0  0  0  0  0  0  0  0  0  0  0  0
   -0.9045   -1.1095    0.2677 C   0  0  0  0  0  0  0  0  0  0  0  0
   -0.3417   -1.6465   -1.0622 C   0  0  0  0  0  0  0  0  0  0  0  0
   -1.0508    0.3303   -0.0966 C   0  0  0  0  0  0  0  0  0  0  0  0
   -1.3394    1.2442    1.0295 C   0  0  0  0  0  0  0  0  0  0  0  0
    1.4487    2.4237   -0.6590 H   0  0  0  0  0  0  0  0  0  0  0  0
    2.1533    0.9956    0.1343 H   0  0  0  0  0  0  0  0  0  0  0  0
    0.7967    1.8214    0.9210 H   0  0  0  0  0  0  0  0  0  0  0  0
   -0.0121    1.1342   -1.8133 H   0  0  0  0  0  0  0  0  0  0  0  0
    1.5400   -0.8116   -1.8351 H   0  0  0  0  0  0  0  0  0  0  0  0
    2.4303   -1.1937    0.6470 H   0  0  0  0  0  0  0  0  0  0  0  0
    0.3597   -1.4724    2.1425 H   0  0  0  0  0  0  0  0  0  0  0  0
   -1.7634   -1.6280    0.6179 H   0  0  0  0  0  0  0  0  0  0  0  0
   -1.0015   -1.4200   -1.8975 H   0  0  0  0  0  0  0  0  0  0  0  0
   -0.0265   -2.6818   -0.9557 H   0  0  0  0  0  0  0  0  0  0  0  0
   -1.9032    0.3938   -0.8340 H   0  0  0  0  0  0  0  0  0  0  0  0
   -1.1754    2.2897    0.6908 H   0  0  0  0  0  0  0  0  0  0  0  0
   -0.7828    1.0378    1.9470 H   0  0  0  0  0  0  0  0  0  0  0  0
   -2.4428    1.1786    1.2517 H   0  0  0  0  0  0  0  0  0  0  0  0
  1  2  1  0
  2  3  1  0
  3  4  1  0
  4  5  2  0
  5  6  1  0
  6  7  1  0
  6  8  1  0
  8  9  1  0
  8  2  1  0
  7  3  1  0
  1 10  1  0
  1 11  1  0
  1 12  1  0
  2 13  1  0
  3 14  1  0
  4 15  1  0
  5 16  1  0
  6 17  1  0
  7 18  1  0
  7 19  1  0
  8 20  1  0
  9 21  1  0
  9 22  1  0
  9 23  1  0
M  END
