
     RDKit          3D

 23 23  0  0  0  0  0  0  0  0999 V2000
   -0.2186   -1.8531    0.9646 C   0  0  0  0  0  0  0  0  0  0  0  0
   -0.5272   -0.9143   -0.1676 C   0  0  0  0  0  0  0  0  0  0  0  0
    0.6429   -0.9016   -1.1087 C   0  0  0  0  0  0  0  0  0  0  0  0
    1.8528   -0.7306   -0.4664 O   0  0  0  0  0  0  0  0  0  0  0  0
    2.1612    0.5827   -0.1913 C   0  0  0  0  0  0  0  0  0  0  0  0
    1.0573    1.4147   -0.4663 O   0  0  0  0  0  0  0  0  0  0  0  0
    0.2359    1.3327    0.6532 C   0  0  0  0  0  0  0  0  0  0  0  0
   -0.9173    0.4273    0.3414 C   0  0  0  0  0  0  0  0  0  0  0  0
   -1.8427    1.1631   -0.5994 C   0  0  0  0  0  0  0  0  0  0  0  0
    0.5611   -2.5948    0.7320 H   0  0  0  0  0  0  0  0  0  0  0  0
   -1.1305   -2.4414    1.2426 H   0  0  0  0  0  0  0  0  0  0  0  0
    0.0655   -1.2504    1.8392 H   0  0  0  0  0  0  0  0  0  0  0  0
   -1.3966   -1.3453   -0.7458 H   0  0  0  0  0  0  0  0  0  0  0  0
    0.4952   -0.2036   -1.9666 H   0  0  0  0  0  0  0  0  0  0  0  0
    0.6790   -1.9241   -1.5826 H   0  0  0  0  0  0  0  0  0  0  0  0
    2.3665    0.6701    0.9074 H   0  0  0  0  0  0  0  0  0  0  0  0
    3.0440    0.9699   -0.7045 H   0  0  0  0  0  0  0  0  0  0  0  0
   -0.1738    2.3127    0.9522 H   0  0  0  0  0  0  0  0  0  0  0  0
    0.7766    0.9316    1.5417 H   0  0  0  0  0  0  0  0  0  0  0  0
   -1.4794    0.2728    1.3028 H   0  0  0  0  0  0  0  0  0  0  0  0
   -1.3065    1.9656   -1.1709 H   0  0  0  0  0  0  0  0  0  0  0  0
   -2.3075    0.4289   -1.2840 H   0  0  0  0  0  0  0  0  0  0  0  0
   -2.6378    1.6869   -0.0230 H   0  0  0  0  0  0  0  0  0  0  0  0
  1  2  1  0
  2  3  1  0
  3  4  1  0
  4  5  1  0
  5  6  1  0
  6  7  1  0
  7  8  1  0
  8  9  1  0
  8  2  1  0
  1 10  1  0
  1 11  1  0
  1 12  1  0
  2 13  1  0
  3 14  1  0
  3 15  1  0
  5 16  1  0
  5 17  1  0
  7 18  1  0
  7 19  1  0
  8 20  1  0
  9 21  1  0
  9 22  1  0
  9 23  1  0
M  END
