
     RDKit          3D

 23 24  0  0  0  0  0  0  0  0999 V2000
    1.9720    0.0148   -1.0325 C   0  0  0  0  0  0  0  0  0  0  0  0
    1.0555   -0.4984    0.0097 C   0  0  0  0  0  0  0  0  0  0  0  0
   -0.2516   -1.0638   -0.5780 C   0  0  0  0  0  0  0  0  0  0  0  0
   -0.9521   -1.4323    0.7004 C   0  0  0  0  0  0  0  0  0  0  0  0
   -0.5800   -0.2820    1.6450 C   0  0  0  0  0  0  0  0  0  0  0  0
    0.3940    0.5848    0.8383 C   0  0  0  0  0  0  0  0  0  0  0  0
   -0.4240    1.3038   -0.1871 C   0  0  0  0  0  0  0  0  0  0  0  0
   -1.6255    1.6915    0.4485 O   0  0  0  0  0  0  0  0  0  0  0  0
   -0.8259    0.2034   -1.1800 C   0  0  0  0  0  0  0  0  0  0  0  0
    1.9313    1.1010   -1.1101 H   0  0  0  0  0  0  0  0  0  0  0  0
    1.7941   -0.4332   -2.0510 H   0  0  0  0  0  0  0  0  0  0  0  0
    3.0126   -0.2784   -0.7613 H   0  0  0  0  0  0  0  0  0  0  0  0
    1.4619   -1.3172    0.6354 H   0  0  0  0  0  0  0  0  0  0  0  0
   -0.0894   -1.8656   -1.2746 H   0  0  0  0  0  0  0  0  0  0  0  0
   -2.0272   -1.5654    0.6068 H   0  0  0  0  0  0  0  0  0  0  0  0
   -0.4228   -2.3401    1.0995 H   0  0  0  0  0  0  0  0  0  0  0  0
   -0.1106   -0.6617    2.5724 H   0  0  0  0  0  0  0  0  0  0  0  0
   -1.4780    0.3224    1.8998 H   0  0  0  0  0  0  0  0  0  0  0  0
    1.0544    1.1749    1.4368 H   0  0  0  0  0  0  0  0  0  0  0  0
    0.0691    2.1413   -0.6727 H   0  0  0  0  0  0  0  0  0  0  0  0
   -1.7749    2.6500    0.4171 H   0  0  0  0  0  0  0  0  0  0  0  0
   -1.9029    0.1620   -1.3376 H   0  0  0  0  0  0  0  0  0  0  0  0
   -0.2803    0.3882   -2.1248 H   0  0  0  0  0  0  0  0  0  0  0  0
  1  2  1  0
  2  3  1  0
  3  4  1  0
  4  5  1  0
  5  6  1  0
  6  7  1  0
  7  8  1  0
  7  9  1  0
  6  2  1  0
  9  3  1  0
  1 10  1  0
  1 11  1  0
  1 12  1  0
  2 13  1  0
  3 14  1  0
  4 15  1  0
  4 16  1  0
  5 17  1  0
  5 18  1  0
  6 19  1  0
  7 20  1  0
  8 21  1  0
  9 22  1  0
  9 23  1  0
M  END
