
     RDKit          3D

 15 16  0  0  0  0  0  0  0  0999 V2000
   -1.4895    0.8177   -0.3970 C   0  0  0  0  0  0  0  0  0  0  0  0
   -0.9921   -0.5614   -0.0561 C   0  0  0  0  0  0  0  0  0  0  0  0
    0.2776   -1.0791   -0.6186 C   0  0  0  0  0  0  0  0  0  0  0  0
    1.1457   -0.1594   -1.2330 O   0  0  0  0  0  0  0  0  0  0  0  0
    1.7199    0.6596   -0.2831 C   0  0  0  0  0  0  0  0  0  0  0  0
    2.5579    1.5834   -0.4984 O   0  0  0  0  0  0  0  0  0  0  0  0
    1.1974    0.2819    1.0231 C   0  0  0  0  0  0  0  0  0  0  0  0
    1.5616    0.7742    2.1215 O   0  0  0  0  0  0  0  0  0  0  0  0
    0.1873   -0.7584    0.8272 C   0  0  0  0  0  0  0  0  0  0  0  0
   -2.5799    0.8925   -0.2120 H   0  0  0  0  0  0  0  0  0  0  0  0
   -1.0119    1.5989    0.2191 H   0  0  0  0  0  0  0  0  0  0  0  0
   -1.3601    1.0435   -1.4919 H   0  0  0  0  0  0  0  0  0  0  0  0
   -1.7906   -1.3283    0.0559 H   0  0  0  0  0  0  0  0  0  0  0  0
    0.3807   -2.1200   -0.9788 H   0  0  0  0  0  0  0  0  0  0  0  0
    0.1960   -1.6453    1.5219 H   0  0  0  0  0  0  0  0  0  0  0  0
  1  2  1  0
  2  3  1  0
  3  4  1  0
  4  5  1  0
  5  6  2  0
  5  7  1  0
  7  8  2  0
  7  9  1  0
  9  2  1  0
  9  3  1  0
  1 10  1  0
  1 11  1  0
  1 12  1  0
  2 13  1  0
  3 14  1  0
  9 15  1  0
M  END
