
     RDKit          3D

 17 18  0  0  0  0  0  0  0  0999 V2000
   -2.1760    0.0626    0.0286 C   0  0  0  0  0  0  0  0  0  0  0  0
   -0.7818    0.1807   -0.4822 C   0  0  0  0  0  0  0  0  0  0  0  0
    0.0381   -1.0698   -0.5290 C   0  0  0  0  0  0  0  0  0  0  0  0
    1.1969   -0.4146    0.1545 C   0  0  0  0  0  0  0  0  0  0  0  0
    1.7658   -1.0887    1.2058 O   0  0  0  0  0  0  0  0  0  0  0  0
    1.5737    0.9923   -0.1025 C   0  0  0  0  0  0  0  0  0  0  0  0
    0.2334    0.7600    0.4850 C   0  0  0  0  0  0  0  0  0  0  0  0
   -2.6858    1.0414   -0.1584 H   0  0  0  0  0  0  0  0  0  0  0  0
   -2.7267   -0.7620   -0.4803 H   0  0  0  0  0  0  0  0  0  0  0  0
   -2.1814   -0.0711    1.1257 H   0  0  0  0  0  0  0  0  0  0  0  0
   -0.7273    0.7082   -1.4736 H   0  0  0  0  0  0  0  0  0  0  0  0
   -0.3843   -1.9383    0.0250 H   0  0  0  0  0  0  0  0  0  0  0  0
    0.3411   -1.4175   -1.5399 H   0  0  0  0  0  0  0  0  0  0  0  0
    2.5804   -0.6093    1.5295 H   0  0  0  0  0  0  0  0  0  0  0  0
    1.5441    1.3893   -1.1594 H   0  0  0  0  0  0  0  0  0  0  0  0
    2.3761    1.4015    0.5120 H   0  0  0  0  0  0  0  0  0  0  0  0
    0.0135    0.8352    1.5461 H   0  0  0  0  0  0  0  0  0  0  0  0
  1  2  1  0
  2  3  1  0
  3  4  1  0
  4  5  1  0
  4  6  1  0
  6  7  1  0
  7  2  1  0
  7  4  1  0
  1  8  1  0
  1  9  1  0
  1 10  1  0
  2 11  1  0
  3 12  1  0
  3 13  1  0
  5 14  1  0
  6 15  1  0
  6 16  1  0
  7 17  1  0
M  END
