
     RDKit          3D

 23 24  0  0  0  0  0  0  0  0999 V2000
    2.5482   -0.0749   -0.1097 C   0  0  0  0  0  0  0  0  0  0  0  0
    1.0834    0.0039    0.1508 C   0  0  0  0  0  0  0  0  0  0  0  0
    0.3610    0.9415   -0.7618 C   0  0  0  0  0  0  0  0  0  0  0  0
   -1.1015    0.9691   -0.4495 C   0  0  0  0  0  0  0  0  0  0  0  0
   -1.3310    1.0261    1.0676 C   0  0  0  0  0  0  0  0  0  0  0  0
   -0.9851   -0.2109    1.5392 O   0  0  0  0  0  0  0  0  0  0  0  0
   -1.0319   -1.1273    0.5217 C   0  0  0  0  0  0  0  0  0  0  0  0
    0.4186   -1.3776    0.0821 C   0  0  0  0  0  0  0  0  0  0  0  0
   -1.6816   -0.4353   -0.6779 C   0  0  0  0  0  0  0  0  0  0  0  0
    3.0123    0.8723    0.2355 H   0  0  0  0  0  0  0  0  0  0  0  0
    2.8113   -0.3515   -1.1365 H   0  0  0  0  0  0  0  0  0  0  0  0
    2.9636   -0.8696    0.5694 H   0  0  0  0  0  0  0  0  0  0  0  0
    0.9475    0.3325    1.2116 H   0  0  0  0  0  0  0  0  0  0  0  0
    0.5032    0.6822   -1.8109 H   0  0  0  0  0  0  0  0  0  0  0  0
    0.7665    1.9661   -0.5826 H   0  0  0  0  0  0  0  0  0  0  0  0
   -1.6616    1.7377   -0.9782 H   0  0  0  0  0  0  0  0  0  0  0  0
   -2.4531    1.1138    1.1708 H   0  0  0  0  0  0  0  0  0  0  0  0
   -0.8192    1.8683    1.5319 H   0  0  0  0  0  0  0  0  0  0  0  0
   -1.5354   -2.0510    0.7993 H   0  0  0  0  0  0  0  0  0  0  0  0
    0.9244   -2.0697    0.7551 H   0  0  0  0  0  0  0  0  0  0  0  0
    0.3879   -1.7268   -0.9840 H   0  0  0  0  0  0  0  0  0  0  0  0
   -2.7608   -0.3562   -0.5181 H   0  0  0  0  0  0  0  0  0  0  0  0
   -1.3666   -0.8628   -1.6259 H   0  0  0  0  0  0  0  0  0  0  0  0
  1  2  1  0
  2  3  1  0
  3  4  1  0
  4  5  1  0
  5  6  1  0
  6  7  1  0
  7  8  1  0
  7  9  1  0
  8  2  1  0
  9  4  1  0
  1 10  1  0
  1 11  1  0
  1 12  1  0
  2 13  1  0
  3 14  1  0
  3 15  1  0
  4 16  1  0
  5 17  1  0
  5 18  1  0
  7 19  1  0
  8 20  1  0
  8 21  1  0
  9 22  1  0
  9 23  1  0
M  END
