
     RDKit          3D

 21 22  0  0  0  0  0  0  0  0999 V2000
    2.3006   -0.2352    0.4465 C   0  0  0  0  0  0  0  0  0  0  0  0
    1.1033   -0.0554   -0.4536 C   0  0  0  0  0  0  0  0  0  0  0  0
    0.6361    1.3661   -0.4712 C   0  0  0  0  0  0  0  0  0  0  0  0
   -0.5965    1.6936   -0.1571 C   0  0  0  0  0  0  0  0  0  0  0  0
   -1.5098    0.5839    0.2067 C   0  0  0  0  0  0  0  0  0  0  0  0
   -0.7554   -0.2306    1.2441 C   0  0  0  0  0  0  0  0  0  0  0  0
   -0.0287   -0.8976    0.0853 C   0  0  0  0  0  0  0  0  0  0  0  0
   -1.2563   -0.5828   -0.7416 C   0  0  0  0  0  0  0  0  0  0  0  0
   -2.2188   -1.5621   -0.7334 O   0  0  0  0  0  0  0  0  0  0  0  0
    3.1640   -0.5610   -0.1679 H   0  0  0  0  0  0  0  0  0  0  0  0
    2.5506    0.6850    1.0078 H   0  0  0  0  0  0  0  0  0  0  0  0
    2.1152   -1.0222    1.2022 H   0  0  0  0  0  0  0  0  0  0  0  0
    1.3072   -0.3979   -1.4896 H   0  0  0  0  0  0  0  0  0  0  0  0
    1.3385    2.1278   -0.7501 H   0  0  0  0  0  0  0  0  0  0  0  0
   -0.9404    2.6944   -0.1576 H   0  0  0  0  0  0  0  0  0  0  0  0
   -2.5424    0.8204    0.4214 H   0  0  0  0  0  0  0  0  0  0  0  0
   -1.3410   -0.9062    1.8549 H   0  0  0  0  0  0  0  0  0  0  0  0
   -0.0618    0.3802    1.8774 H   0  0  0  0  0  0  0  0  0  0  0  0
    0.1932   -1.9603    0.2205 H   0  0  0  0  0  0  0  0  0  0  0  0
   -1.0201   -0.1535   -1.7518 H   0  0  0  0  0  0  0  0  0  0  0  0
   -2.4376   -1.7865   -1.6930 H   0  0  0  0  0  0  0  0  0  0  0  0
  1  2  1  0
  2  3  1  0
  3  4  2  0
  4  5  1  0
  5  6  1  0
  6  7  1  0
  7  8  1  0
  8  9  1  0
  7  2  1  0
  8  5  1  0
  1 10  1  0
  1 11  1  0
  1 12  1  0
  2 13  1  0
  3 14  1  0
  4 15  1  0
  5 16  1  0
  6 17  1  0
  6 18  1  0
  7 19  1  0
  8 20  1  0
  9 21  1  0
M  END
