
     RDKit          3D

 17 18  0  0  0  0  0  0  0  0999 V2000
   -1.9524    0.0904    0.7884 C   0  0  0  0  0  0  0  0  0  0  0  0
   -0.4602   -0.0841    0.8226 C   0  0  0  0  0  0  0  0  0  0  0  0
    0.0456   -1.0556   -0.2377 C   0  0  0  0  0  0  0  0  0  0  0  0
    1.3937   -1.2843   -0.0909 O   0  0  0  0  0  0  0  0  0  0  0  0
    2.1265   -0.1388   -0.2867 C   0  0  0  0  0  0  0  0  0  0  0  0
    1.5277    1.0037    0.2457 O   0  0  0  0  0  0  0  0  0  0  0  0
    0.1906    0.9913   -0.0566 C   0  0  0  0  0  0  0  0  0  0  0  0
   -0.0994    0.0810   -1.2186 C   0  0  0  0  0  0  0  0  0  0  0  0
   -0.3374    0.1988   -2.3899 O   0  0  0  0  0  0  0  0  0  0  0  0
   -2.5175   -0.8282    0.9855 H   0  0  0  0  0  0  0  0  0  0  0  0
   -2.2086    0.8623    1.5568 H   0  0  0  0  0  0  0  0  0  0  0  0
   -2.2321    0.4961   -0.2100 H   0  0  0  0  0  0  0  0  0  0  0  0
    0.0144   -0.1579    1.7987 H   0  0  0  0  0  0  0  0  0  0  0  0
   -0.5935   -1.9151   -0.4336 H   0  0  0  0  0  0  0  0  0  0  0  0
    3.1368   -0.2827    0.1839 H   0  0  0  0  0  0  0  0  0  0  0  0
    2.3091    0.0785   -1.3768 H   0  0  0  0  0  0  0  0  0  0  0  0
   -0.3433    1.9447   -0.0808 H   0  0  0  0  0  0  0  0  0  0  0  0
  1  2  1  0
  2  3  1  0
  3  4  1  0
  4  5  1  0
  5  6  1  0
  6  7  1  0
  7  8  1  0
  8  9  2  0
  7  2  1  0
  8  3  1  0
  1 10  1  0
  1 11  1  0
  1 12  1  0
  2 13  1  0
  3 14  1  0
  5 15  1  0
  5 16  1  0
  7 17  1  0
M  END
