
     RDKit          3D

 19 19  0  0  0  0  0  0  0  0999 V2000
    1.7053   -0.1576    1.0422 C   0  0  0  0  0  0  0  0  0  0  0  0
    0.9544    0.2548   -0.2173 C   0  0  0  0  0  0  0  0  0  0  0  0
   -0.0279    1.3563    0.0629 C   0  0  0  0  0  0  0  0  0  0  0  0
   -1.2222    0.8400    0.7999 C   0  0  0  0  0  0  0  0  0  0  0  0
   -1.8086   -0.2315    0.2745 C   0  0  0  0  0  0  0  0  0  0  0  0
   -1.2095   -0.7790   -0.9702 C   0  0  0  0  0  0  0  0  0  0  0  0
    0.2844   -0.8916   -0.8928 C   0  0  0  0  0  0  0  0  0  0  0  0
    1.7467   -1.2773    1.0378 H   0  0  0  0  0  0  0  0  0  0  0  0
    1.2630    0.2542    1.9522 H   0  0  0  0  0  0  0  0  0  0  0  0
    2.7716    0.1830    1.0043 H   0  0  0  0  0  0  0  0  0  0  0  0
    1.7164    0.6723   -0.9349 H   0  0  0  0  0  0  0  0  0  0  0  0
    0.4296    2.2117    0.5826 H   0  0  0  0  0  0  0  0  0  0  0  0
   -0.3834    1.7256   -0.9376 H   0  0  0  0  0  0  0  0  0  0  0  0
   -1.5961    1.3036    1.7090 H   0  0  0  0  0  0  0  0  0  0  0  0
   -2.6793   -0.6516    0.7644 H   0  0  0  0  0  0  0  0  0  0  0  0
   -1.6024   -1.8150   -1.1442 H   0  0  0  0  0  0  0  0  0  0  0  0
   -1.5116   -0.1518   -1.8517 H   0  0  0  0  0  0  0  0  0  0  0  0
    0.6422   -1.0274   -1.9562 H   0  0  0  0  0  0  0  0  0  0  0  0
    0.5272   -1.8188   -0.3252 H   0  0  0  0  0  0  0  0  0  0  0  0
  1  2  1  0
  2  3  1  0
  3  4  1  0
  4  5  2  0
  5  6  1  0
  6  7  1  0
  7  2  1  0
  1  8  1  0
  1  9  1  0
  1 10  1  0
  2 11  1  0
  3 12  1  0
  3 13  1  0
  4 14  1  0
  5 15  1  0
  6 16  1  0
  6 17  1  0
  7 18  1  0
  7 19  1  0
M  END
