
     RDKit          3D

 18 18  0  0  0  0  0  0  0  0999 V2000
    2.0226   -0.5755    0.3920 C   0  0  0  0  0  0  0  0  0  0  0  0
    0.5836   -0.1897    0.3691 C   0  0  0  0  0  0  0  0  0  0  0  0
    0.3276    1.2471    0.0206 C   0  0  0  0  0  0  0  0  0  0  0  0
   -1.1571    1.2342   -0.1283 C   0  0  0  0  0  0  0  0  0  0  0  0
   -1.9418    2.1332    0.0353 O   0  0  0  0  0  0  0  0  0  0  0  0
   -1.5400   -0.1492   -0.5361 C   0  0  0  0  0  0  0  0  0  0  0  0
   -2.2892   -0.7744    0.4505 O   0  0  0  0  0  0  0  0  0  0  0  0
   -0.2201   -0.9023   -0.6777 C   0  0  0  0  0  0  0  0  0  0  0  0
    2.0811   -1.6637    0.5565 H   0  0  0  0  0  0  0  0  0  0  0  0
    2.6045   -0.2565   -0.4751 H   0  0  0  0  0  0  0  0  0  0  0  0
    2.4866   -0.0981    1.2865 H   0  0  0  0  0  0  0  0  0  0  0  0
    0.1471   -0.3937    1.3527 H   0  0  0  0  0  0  0  0  0  0  0  0
    0.7381    1.4235   -1.0006 H   0  0  0  0  0  0  0  0  0  0  0  0
    0.6863    1.9588    0.7660 H   0  0  0  0  0  0  0  0  0  0  0  0
   -2.1323   -0.1651   -1.4644 H   0  0  0  0  0  0  0  0  0  0  0  0
   -2.2329   -0.2184    1.2797 H   0  0  0  0  0  0  0  0  0  0  0  0
    0.1640   -0.6364   -1.6995 H   0  0  0  0  0  0  0  0  0  0  0  0
   -0.3281   -1.9738   -0.5274 H   0  0  0  0  0  0  0  0  0  0  0  0
  1  2  1  0
  2  3  1  0
  3  4  1  0
  4  5  2  0
  4  6  1  0
  6  7  1  0
  6  8  1  0
  8  2  1  0
  1  9  1  0
  1 10  1  0
  1 11  1  0
  2 12  1  0
  3 13  1  0
  3 14  1  0
  6 15  1  0
  7 16  1  0
  8 17  1  0
  8 18  1  0
M  END
