
     RDKit          3D

 17 17  0  0  0  0  0  0  0  0999 V2000
    1.9764   -0.3999   -0.0403 C   0  0  0  0  0  0  0  0  0  0  0  0
    0.5914   -0.0383    0.4171 C   0  0  0  0  0  0  0  0  0  0  0  0
   -0.0075    1.0840   -0.4099 C   0  0  0  0  0  0  0  0  0  0  0  0
   -1.4568    0.9949    0.0625 C   0  0  0  0  0  0  0  0  0  0  0  0
   -1.6998   -0.4689   -0.1515 C   0  0  0  0  0  0  0  0  0  0  0  0
   -2.6981   -1.0220   -0.5167 O   0  0  0  0  0  0  0  0  0  0  0  0
   -0.4048   -1.1355    0.1920 C   0  0  0  0  0  0  0  0  0  0  0  0
    2.6708    0.3837    0.2841 H   0  0  0  0  0  0  0  0  0  0  0  0
    2.2283   -1.3850    0.4131 H   0  0  0  0  0  0  0  0  0  0  0  0
    1.9639   -0.4285   -1.1443 H   0  0  0  0  0  0  0  0  0  0  0  0
    0.5782    0.3057    1.4860 H   0  0  0  0  0  0  0  0  0  0  0  0
    0.4390    2.0601   -0.1964 H   0  0  0  0  0  0  0  0  0  0  0  0
    0.0620    0.7673   -1.4671 H   0  0  0  0  0  0  0  0  0  0  0  0
   -1.4581    1.1487    1.1562 H   0  0  0  0  0  0  0  0  0  0  0  0
   -2.1290    1.6313   -0.4945 H   0  0  0  0  0  0  0  0  0  0  0  0
   -0.5518   -1.7742    1.0863 H   0  0  0  0  0  0  0  0  0  0  0  0
   -0.1039   -1.7234   -0.6765 H   0  0  0  0  0  0  0  0  0  0  0  0
  1  2  1  0
  2  3  1  0
  3  4  1  0
  4  5  1  0
  5  6  2  0
  5  7  1  0
  7  2  1  0
  1  8  1  0
  1  9  1  0
  1 10  1  0
  2 11  1  0
  3 12  1  0
  3 13  1  0
  4 14  1  0
  4 15  1  0
  7 16  1  0
  7 17  1  0
M  END
