
     RDKit          3D

 21 22  0  0  0  0  0  0  0  0999 V2000
   -0.7735    1.6702   -0.2450 C   0  0  0  0  0  0  0  0  0  0  0  0
    0.0277    0.6697    0.6005 C   0  0  0  0  0  0  0  0  0  0  0  0
   -0.5106   -0.7051    0.3805 C   0  0  0  0  0  0  0  0  0  0  0  0
   -1.9171   -0.8263   -0.0920 C   0  0  0  0  0  0  0  0  0  0  0  0
   -0.2825   -1.5991    1.4425 O   0  0  0  0  0  0  0  0  0  0  0  0
    0.5633   -0.8982   -0.6596 C   0  0  0  0  0  0  0  0  0  0  0  0
    1.9268   -0.9936   -0.0830 C   0  0  0  0  0  0  0  0  0  0  0  0
    1.3036    0.3320   -0.0777 C   0  0  0  0  0  0  0  0  0  0  0  0
    1.7879    1.2657   -0.9811 O   0  0  0  0  0  0  0  0  0  0  0  0
   -1.7930    1.7767    0.1596 H   0  0  0  0  0  0  0  0  0  0  0  0
   -0.8251    1.2752   -1.3022 H   0  0  0  0  0  0  0  0  0  0  0  0
   -0.2304    2.6377   -0.3359 H   0  0  0  0  0  0  0  0  0  0  0  0
    0.0738    1.0219    1.6405 H   0  0  0  0  0  0  0  0  0  0  0  0
   -2.1635   -0.2328   -0.9772 H   0  0  0  0  0  0  0  0  0  0  0  0
   -2.1341   -1.8988   -0.2603 H   0  0  0  0  0  0  0  0  0  0  0  0
   -2.5865   -0.4998    0.7301 H   0  0  0  0  0  0  0  0  0  0  0  0
   -0.1147   -1.0890    2.2586 H   0  0  0  0  0  0  0  0  0  0  0  0
    0.3584   -0.8111   -1.7179 H   0  0  0  0  0  0  0  0  0  0  0  0
    2.7380   -1.1718   -0.7892 H   0  0  0  0  0  0  0  0  0  0  0  0
    1.9826   -1.6286    0.8425 H   0  0  0  0  0  0  0  0  0  0  0  0
    2.5689    1.7051   -0.5338 H   0  0  0  0  0  0  0  0  0  0  0  0
  1  2  1  0
  2  3  1  0
  3  4  1  0
  3  5  1  0
  3  6  1  0
  6  7  1  0
  7  8  1  0
  8  9  1  0
  8  2  1  0
  8  6  1  0
  1 10  1  0
  1 11  1  0
  1 12  1  0
  2 13  1  0
  4 14  1  0
  4 15  1  0
  4 16  1  0
  5 17  1  0
  6 18  1  0
  7 19  1  0
  7 20  1  0
  9 21  1  0
M  END
