
     RDKit          3D

 21 21  0  0  0  0  0  0  0  0999 V2000
    2.2896    0.0853   -0.5652 C   0  0  0  0  0  0  0  0  0  0  0  0
    0.9804   -0.3529    0.1079 C   0  0  0  0  0  0  0  0  0  0  0  0
    0.3195    0.7635    0.8131 C   0  0  0  0  0  0  0  0  0  0  0  0
   -1.0865    1.0484    0.5144 C   0  0  0  0  0  0  0  0  0  0  0  0
   -1.2134    2.2550   -0.2155 O   0  0  0  0  0  0  0  0  0  0  0  0
   -1.8301    0.0041   -0.2600 C   0  0  0  0  0  0  0  0  0  0  0  0
   -1.7620   -1.2551    0.2858 O   0  0  0  0  0  0  0  0  0  0  0  0
   -0.5998   -1.9246   -0.0802 C   0  0  0  0  0  0  0  0  0  0  0  0
    0.1828   -1.0183   -0.8124 O   0  0  0  0  0  0  0  0  0  0  0  0
    2.2191    1.1472   -0.9035 H   0  0  0  0  0  0  0  0  0  0  0  0
    2.5508   -0.5982   -1.3935 H   0  0  0  0  0  0  0  0  0  0  0  0
    3.1368    0.0477    0.1511 H   0  0  0  0  0  0  0  0  0  0  0  0
    1.3066   -1.1492    0.8427 H   0  0  0  0  0  0  0  0  0  0  0  0
    0.9278    1.6974    0.6195 H   0  0  0  0  0  0  0  0  0  0  0  0
    0.4249    0.6182    1.9299 H   0  0  0  0  0  0  0  0  0  0  0  0
   -1.6898    1.2381    1.4519 H   0  0  0  0  0  0  0  0  0  0  0  0
   -0.8128    2.1151   -1.1210 H   0  0  0  0  0  0  0  0  0  0  0  0
   -2.9138    0.3083   -0.2522 H   0  0  0  0  0  0  0  0  0  0  0  0
   -1.5499    0.0085   -1.3538 H   0  0  0  0  0  0  0  0  0  0  0  0
   -0.0874   -2.1898    0.8903 H   0  0  0  0  0  0  0  0  0  0  0  0
   -0.7928   -2.8488   -0.6493 H   0  0  0  0  0  0  0  0  0  0  0  0
  1  2  1  0
  2  3  1  0
  3  4  1  0
  4  5  1  0
  4  6  1  0
  6  7  1  0
  7  8  1  0
  8  9  1  0
  9  2  1  0
  1 10  1  0
  1 11  1  0
  1 12  1  0
  2 13  1  0
  3 14  1  0
  3 15  1  0
  4 16  1  0
  5 17  1  0
  6 18  1  0
  6 19  1  0
  8 20  1  0
  8 21  1  0
M  END
