
     RDKit          3D

 25 25  0  0  0  0  0  0  0  0999 V2000
    1.8243    1.7356   -0.0850 C   0  0  0  0  0  0  0  0  0  0  0  0
    0.8406    0.6791    0.2818 C   0  0  0  0  0  0  0  0  0  0  0  0
   -0.6026    1.1268    0.0035 C   0  0  0  0  0  0  0  0  0  0  0  0
   -1.3239   -0.1736    0.2947 C   0  0  0  0  0  0  0  0  0  0  0  0
   -2.7277   -0.1980   -0.2048 C   0  0  0  0  0  0  0  0  0  0  0  0
   -1.3439   -0.2924    1.7038 O   0  0  0  0  0  0  0  0  0  0  0  0
   -0.4408   -1.2012   -0.3387 C   0  0  0  0  0  0  0  0  0  0  0  0
    0.9110   -0.5548   -0.5705 C   0  0  0  0  0  0  0  0  0  0  0  0
    1.9696   -1.5238   -0.1401 C   0  0  0  0  0  0  0  0  0  0  0  0
    1.4508    2.3850   -0.9070 H   0  0  0  0  0  0  0  0  0  0  0  0
    2.8193    1.3231   -0.2805 H   0  0  0  0  0  0  0  0  0  0  0  0
    1.9213    2.4184    0.8113 H   0  0  0  0  0  0  0  0  0  0  0  0
    0.8805    0.4556    1.3610 H   0  0  0  0  0  0  0  0  0  0  0  0
   -0.8746    1.9366    0.6976 H   0  0  0  0  0  0  0  0  0  0  0  0
   -0.6579    1.4133   -1.0602 H   0  0  0  0  0  0  0  0  0  0  0  0
   -2.7873   -0.6653   -1.2195 H   0  0  0  0  0  0  0  0  0  0  0  0
   -3.2978   -0.9132    0.4592 H   0  0  0  0  0  0  0  0  0  0  0  0
   -3.2638    0.7523   -0.1446 H   0  0  0  0  0  0  0  0  0  0  0  0
   -1.7951    0.5203    2.0450 H   0  0  0  0  0  0  0  0  0  0  0  0
   -0.3715   -2.0608    0.3667 H   0  0  0  0  0  0  0  0  0  0  0  0
   -0.8329   -1.5375   -1.3279 H   0  0  0  0  0  0  0  0  0  0  0  0
    1.0185   -0.2337   -1.6315 H   0  0  0  0  0  0  0  0  0  0  0  0
    2.7491   -1.0614    0.5007 H   0  0  0  0  0  0  0  0  0  0  0  0
    1.5337   -2.3607    0.4597 H   0  0  0  0  0  0  0  0  0  0  0  0
    2.4011   -1.9697   -1.0748 H   0  0  0  0  0  0  0  0  0  0  0  0
  1  2  1  0
  2  3  1  0
  3  4  1  0
  4  5  1  0
  4  6  1  0
  4  7  1  0
  7  8  1  0
  8  9  1  0
  8  2  1  0
  1 10  1  0
  1 11  1  0
  1 12  1  0
  2 13  1  0
  3 14  1  0
  3 15  1  0
  5 16  1  0
  5 17  1  0
  5 18  1  0
  6 19  1  0
  7 20  1  0
  7 21  1  0
  8 22  1  0
  9 23  1  0
  9 24  1  0
  9 25  1  0
M  END
