
     RDKit          3D

 19 20  0  0  0  0  0  0  0  0999 V2000
    2.0017   -0.3677   -0.2223 C   0  0  0  0  0  0  0  0  0  0  0  0
    0.9061    0.4157    0.4765 C   0  0  0  0  0  0  0  0  0  0  0  0
    0.1829    1.4031   -0.4449 C   0  0  0  0  0  0  0  0  0  0  0  0
   -1.0956    0.5805   -0.3256 C   0  0  0  0  0  0  0  0  0  0  0  0
   -2.2295    1.1661    0.1739 O   0  0  0  0  0  0  0  0  0  0  0  0
   -0.9956   -0.8068   -0.7584 C   0  0  0  0  0  0  0  0  0  0  0  0
   -1.9560   -1.7620   -0.5714 O   0  0  0  0  0  0  0  0  0  0  0  0
   -0.3543   -0.3569    0.5695 C   0  0  0  0  0  0  0  0  0  0  0  0
   -0.9571   -0.6843    1.7426 O   0  0  0  0  0  0  0  0  0  0  0  0
    2.2905    0.2216   -1.1225 H   0  0  0  0  0  0  0  0  0  0  0  0
    1.6980   -1.3988   -0.4693 H   0  0  0  0  0  0  0  0  0  0  0  0
    2.8671   -0.4641    0.4797 H   0  0  0  0  0  0  0  0  0  0  0  0
    1.1918    0.8386    1.4582 H   0  0  0  0  0  0  0  0  0  0  0  0
    0.1326    2.4067    0.0052 H   0  0  0  0  0  0  0  0  0  0  0  0
    0.5814    1.3304   -1.4688 H   0  0  0  0  0  0  0  0  0  0  0  0
   -2.2056    2.1323   -0.0548 H   0  0  0  0  0  0  0  0  0  0  0  0
   -0.2081   -1.0716   -1.4914 H   0  0  0  0  0  0  0  0  0  0  0  0
   -1.4707   -2.6406   -0.4537 H   0  0  0  0  0  0  0  0  0  0  0  0
   -0.3795   -0.9420    2.4776 H   0  0  0  0  0  0  0  0  0  0  0  0
  1  2  1  0
  2  3  1  0
  3  4  1  0
  4  5  1  0
  4  6  1  0
  6  7  1  0
  6  8  1  0
  8  9  1  0
  8  2  1  0
  8  4  1  0
  1 10  1  0
  1 11  1  0
  1 12  1  0
  2 13  1  0
  3 14  1  0
  3 15  1  0
  5 16  1  0
  6 17  1  0
  7 18  1  0
  9 19  1  0
M  END
