
     RDKit          3D

 23 24  0  0  0  0  0  0  0  0999 V2000
    3.2757    0.3395   -0.1343 C   0  0  0  0  0  0  0  0  0  0  0  0
    1.9543   -0.0020    0.5046 C   0  0  0  0  0  0  0  0  0  0  0  0
    1.4065   -1.3882    0.4329 C   0  0  0  0  0  0  0  0  0  0  0  0
    0.8189   -0.3206   -0.3912 C   0  0  0  0  0  0  0  0  0  0  0  0
   -0.4898    0.3156   -0.1030 C   0  0  0  0  0  0  0  0  0  0  0  0
   -1.5733   -0.0849   -1.0845 C   0  0  0  0  0  0  0  0  0  0  0  0
   -2.8139    0.3779   -0.3429 C   0  0  0  0  0  0  0  0  0  0  0  0
   -2.3533    0.3694    1.0877 C   0  0  0  0  0  0  0  0  0  0  0  0
   -1.0478   -0.0866    1.1075 O   0  0  0  0  0  0  0  0  0  0  0  0
    3.5306    1.3800    0.1649 H   0  0  0  0  0  0  0  0  0  0  0  0
    4.0923   -0.3320    0.1588 H   0  0  0  0  0  0  0  0  0  0  0  0
    3.2244    0.3458   -1.2414 H   0  0  0  0  0  0  0  0  0  0  0  0
    1.7749    0.4983    1.4927 H   0  0  0  0  0  0  0  0  0  0  0  0
    2.0597   -2.1614   -0.0158 H   0  0  0  0  0  0  0  0  0  0  0  0
    0.7787   -1.7687    1.2668 H   0  0  0  0  0  0  0  0  0  0  0  0
    1.0665   -0.3814   -1.4878 H   0  0  0  0  0  0  0  0  0  0  0  0
   -0.3879    1.4116   -0.1026 H   0  0  0  0  0  0  0  0  0  0  0  0
   -1.4809    0.4359   -2.0571 H   0  0  0  0  0  0  0  0  0  0  0  0
   -1.6428   -1.1792   -1.1817 H   0  0  0  0  0  0  0  0  0  0  0  0
   -3.6819   -0.2897   -0.5134 H   0  0  0  0  0  0  0  0  0  0  0  0
   -3.0208    1.4180   -0.6967 H   0  0  0  0  0  0  0  0  0  0  0  0
   -3.0422   -0.3123    1.6524 H   0  0  0  0  0  0  0  0  0  0  0  0
   -2.4477    1.4149    1.4840 H   0  0  0  0  0  0  0  0  0  0  0  0
  1  2  1  0
  2  3  1  0
  3  4  1  0
  4  5  1  0
  5  6  1  0
  6  7  1  0
  7  8  1  0
  8  9  1  0
  4  2  1  0
  9  5  1  0
  1 10  1  0
  1 11  1  0
  1 12  1  0
  2 13  1  0
  3 14  1  0
  3 15  1  0
  4 16  1  0
  5 17  1  0
  6 18  1  0
  6 19  1  0
  7 20  1  0
  7 21  1  0
  8 22  1  0
  8 23  1  0
M  END
