
     RDKit          3D

 23 24  0  0  0  0  0  0  0  0999 V2000
   -1.9667   -1.1307    0.2791 C   0  0  0  0  0  0  0  0  0  0  0  0
   -1.0862   -0.3345   -0.6911 C   0  0  0  0  0  0  0  0  0  0  0  0
   -0.1618   -1.2735   -1.4525 C   0  0  0  0  0  0  0  0  0  0  0  0
    1.1186   -1.0296   -1.0082 O   0  0  0  0  0  0  0  0  0  0  0  0
    0.9935   -0.5187    0.3056 C   0  0  0  0  0  0  0  0  0  0  0  0
    2.2493    0.0412    0.8299 C   0  0  0  0  0  0  0  0  0  0  0  0
   -0.0992    0.4855    0.0720 C   0  0  0  0  0  0  0  0  0  0  0  0
    0.2204    1.8139   -0.4963 C   0  0  0  0  0  0  0  0  0  0  0  0
   -0.3807    1.6161    0.9045 C   0  0  0  0  0  0  0  0  0  0  0  0
   -2.3805   -2.0288   -0.2098 H   0  0  0  0  0  0  0  0  0  0  0  0
   -1.4053   -1.4621    1.1575 H   0  0  0  0  0  0  0  0  0  0  0  0
   -2.7514   -0.4320    0.6368 H   0  0  0  0  0  0  0  0  0  0  0  0
   -1.7631    0.2225   -1.3332 H   0  0  0  0  0  0  0  0  0  0  0  0
   -0.2845   -1.0198   -2.5457 H   0  0  0  0  0  0  0  0  0  0  0  0
   -0.4139   -2.3314   -1.2909 H   0  0  0  0  0  0  0  0  0  0  0  0
    0.6249   -1.3580    0.9294 H   0  0  0  0  0  0  0  0  0  0  0  0
    2.4088   -0.3553    1.8758 H   0  0  0  0  0  0  0  0  0  0  0  0
    2.2299    1.1361    0.9139 H   0  0  0  0  0  0  0  0  0  0  0  0
    3.1278   -0.3338    0.2401 H   0  0  0  0  0  0  0  0  0  0  0  0
   -0.4438    2.2783   -1.2678 H   0  0  0  0  0  0  0  0  0  0  0  0
    1.2624    2.1283   -0.5838 H   0  0  0  0  0  0  0  0  0  0  0  0
    0.3125    1.8883    1.7091 H   0  0  0  0  0  0  0  0  0  0  0  0
   -1.4113    1.9981    1.0254 H   0  0  0  0  0  0  0  0  0  0  0  0
  1  2  1  0
  2  3  1  0
  3  4  1  0
  4  5  1  0
  5  6  1  0
  5  7  1  0
  7  8  1  0
  8  9  1  0
  7  2  1  0
  9  7  1  0
  1 10  1  0
  1 11  1  0
  1 12  1  0
  2 13  1  0
  3 14  1  0
  3 15  1  0
  5 16  1  0
  6 17  1  0
  6 18  1  0
  6 19  1  0
  8 20  1  0
  8 21  1  0
  9 22  1  0
  9 23  1  0
M  END
