
     RDKit          3D

 21 22  0  0  0  0  0  0  0  0999 V2000
   -2.3867   -0.0612   -0.0387 C   0  0  0  0  0  0  0  0  0  0  0  0
   -1.0109   -0.0010    0.5958 C   0  0  0  0  0  0  0  0  0  0  0  0
   -0.2392    1.2218    0.1899 C   0  0  0  0  0  0  0  0  0  0  0  0
    1.0343    0.8125   -0.4241 C   0  0  0  0  0  0  0  0  0  0  0  0
    1.4888    1.6681   -1.4547 O   0  0  0  0  0  0  0  0  0  0  0  0
    2.0290   -0.0763    0.1698 C   0  0  0  0  0  0  0  0  0  0  0  0
    0.8996   -0.6343   -0.6883 C   0  0  0  0  0  0  0  0  0  0  0  0
   -0.2345   -1.1815    0.1234 C   0  0  0  0  0  0  0  0  0  0  0  0
    0.2965   -1.8281    1.2639 O   0  0  0  0  0  0  0  0  0  0  0  0
   -2.4882   -0.9388   -0.7294 H   0  0  0  0  0  0  0  0  0  0  0  0
   -3.1864   -0.1795    0.7138 H   0  0  0  0  0  0  0  0  0  0  0  0
   -2.5499    0.8560   -0.6238 H   0  0  0  0  0  0  0  0  0  0  0  0
   -1.1571   -0.0100    1.6816 H   0  0  0  0  0  0  0  0  0  0  0  0
   -0.8652    1.7346   -0.6007 H   0  0  0  0  0  0  0  0  0  0  0  0
   -0.1585    1.9735    1.0066 H   0  0  0  0  0  0  0  0  0  0  0  0
    2.1014    2.3218   -0.9876 H   0  0  0  0  0  0  0  0  0  0  0  0
    3.0050   -0.1482   -0.3207 H   0  0  0  0  0  0  0  0  0  0  0  0
    2.0570   -0.3361    1.2474 H   0  0  0  0  0  0  0  0  0  0  0  0
    1.0957   -0.9607   -1.7066 H   0  0  0  0  0  0  0  0  0  0  0  0
   -0.8392   -1.9384   -0.3936 H   0  0  0  0  0  0  0  0  0  0  0  0
    1.1085   -2.2942    0.9758 H   0  0  0  0  0  0  0  0  0  0  0  0
  1  2  1  0
  2  3  1  0
  3  4  1  0
  4  5  1  0
  4  6  1  0
  6  7  1  0
  7  8  1  0
  8  9  1  0
  8  2  1  0
  7  4  1  0
  1 10  1  0
  1 11  1  0
  1 12  1  0
  2 13  1  0
  3 14  1  0
  3 15  1  0
  5 16  1  0
  6 17  1  0
  6 18  1  0
  7 19  1  0
  8 20  1  0
  9 21  1  0
M  END
