
     RDKit          3D

 21 23  0  0  0  0  0  0  0  0999 V2000
    2.4798    0.1979   -0.0813 C   0  0  0  0  0  0  0  0  0  0  0  0
    1.3308   -0.7857   -0.1206 C   0  0  0  0  0  0  0  0  0  0  0  0
    0.6091   -0.6969    1.1908 C   0  0  0  0  0  0  0  0  0  0  0  0
   -0.4678    0.3543    0.9494 C   0  0  0  0  0  0  0  0  0  0  0  0
   -0.3217    0.8425   -0.4017 C   0  0  0  0  0  0  0  0  0  0  0  0
    0.3438   -0.2658   -1.1600 C   0  0  0  0  0  0  0  0  0  0  0  0
   -0.8843   -0.9426   -1.1554 O   0  0  0  0  0  0  0  0  0  0  0  0
   -1.4076   -0.1134   -0.2012 C   0  0  0  0  0  0  0  0  0  0  0  0
   -2.8391    0.2457   -0.1297 C   0  0  0  0  0  0  0  0  0  0  0  0
    3.3890   -0.2782   -0.4978 H   0  0  0  0  0  0  0  0  0  0  0  0
    2.2442    1.1529   -0.5869 H   0  0  0  0  0  0  0  0  0  0  0  0
    2.7130    0.4814    0.9861 H   0  0  0  0  0  0  0  0  0  0  0  0
    1.7115   -1.7822   -0.3643 H   0  0  0  0  0  0  0  0  0  0  0  0
    0.1021   -1.6860    1.3540 H   0  0  0  0  0  0  0  0  0  0  0  0
    1.2518   -0.4605    2.0413 H   0  0  0  0  0  0  0  0  0  0  0  0
   -0.9434    0.8577    1.7820 H   0  0  0  0  0  0  0  0  0  0  0  0
   -0.4114    1.8444   -0.7704 H   0  0  0  0  0  0  0  0  0  0  0  0
    0.7661   -0.0370   -2.1335 H   0  0  0  0  0  0  0  0  0  0  0  0
   -3.2997    0.5404   -1.0833 H   0  0  0  0  0  0  0  0  0  0  0  0
   -2.9415    1.1280    0.5686 H   0  0  0  0  0  0  0  0  0  0  0  0
   -3.4245   -0.5971    0.3143 H   0  0  0  0  0  0  0  0  0  0  0  0
  1  2  1  0
  2  3  1  0
  3  4  1  0
  4  5  1  0
  5  6  1  0
  6  7  1  0
  7  8  1  0
  8  9  1  0
  6  2  1  0
  8  4  1  0
  8  5  1  0
  1 10  1  0
  1 11  1  0
  1 12  1  0
  2 13  1  0
  3 14  1  0
  3 15  1  0
  4 16  1  0
  5 17  1  0
  6 18  1  0
  9 19  1  0
  9 20  1  0
  9 21  1  0
M  END
