
     RDKit          3D

 20 22  0  0  0  0  0  0  0  0999 V2000
   -2.6791   -0.6880   -0.3342 C   0  0  0  0  0  0  0  0  0  0  0  0
   -1.1692   -0.4038   -0.4487 C   0  0  0  0  0  0  0  0  0  0  0  0
   -0.4199   -0.3038    0.7725 C   0  0  0  0  0  0  0  0  0  0  0  0
   -0.7412    0.9410   -0.0827 C   0  0  0  0  0  0  0  0  0  0  0  0
    0.6945    1.2939   -0.2167 C   0  0  0  0  0  0  0  0  0  0  0  0
    1.8539    0.4604   -0.0695 C   0  0  0  0  0  0  0  0  0  0  0  0
    2.1760   -0.7920   -0.8147 C   0  0  0  0  0  0  0  0  0  0  0  0
    0.8813    0.3717    1.0094 C   0  0  0  0  0  0  0  0  0  0  0  0
   -2.8597   -1.7776   -0.4320 H   0  0  0  0  0  0  0  0  0  0  0  0
   -2.9874   -0.3763    0.6776 H   0  0  0  0  0  0  0  0  0  0  0  0
   -3.2512   -0.0821   -1.0625 H   0  0  0  0  0  0  0  0  0  0  0  0
   -0.8047   -0.7667   -1.4357 H   0  0  0  0  0  0  0  0  0  0  0  0
   -1.0068   -0.4200    1.7340 H   0  0  0  0  0  0  0  0  0  0  0  0
   -1.4626    1.6447    0.4258 H   0  0  0  0  0  0  0  0  0  0  0  0
    0.8500    2.4048   -0.0470 H   0  0  0  0  0  0  0  0  0  0  0  0
    2.8222    0.9819    0.2156 H   0  0  0  0  0  0  0  0  0  0  0  0
    2.6707   -0.5940   -1.8076 H   0  0  0  0  0  0  0  0  0  0  0  0
    1.3902   -1.5255   -0.9096 H   0  0  0  0  0  0  0  0  0  0  0  0
    2.9863   -1.3128   -0.2191 H   0  0  0  0  0  0  0  0  0  0  0  0
    1.0568    0.9441    1.9659 H   0  0  0  0  0  0  0  0  0  0  0  0
  1  2  1  0
  2  3  1  0
  3  4  1  0
  4  5  1  0
  5  6  1  0
  6  7  1  0
  6  8  1  0
  4  2  1  0
  8  5  1  0
  8  3  1  0
  1  9  1  0
  1 10  1  0
  1 11  1  0
  2 12  1  0
  3 13  1  0
  4 14  1  0
  5 15  1  0
  6 16  1  0
  7 17  1  0
  7 18  1  0
  7 19  1  0
  8 20  1  0
M  END
