
     RDKit          3D

 21 21  0  0  0  0  0  0  0  0999 V2000
    2.2980   -0.7777    0.5126 C   0  0  0  0  0  0  0  0  0  0  0  0
    1.1270   -0.2113   -0.3024 C   0  0  0  0  0  0  0  0  0  0  0  0
    1.0320    1.2138    0.0237 C   0  0  0  0  0  0  0  0  0  0  0  0
   -0.0064    1.9991    0.2115 C   0  0  0  0  0  0  0  0  0  0  0  0
   -1.4084    1.6086    0.1339 C   0  0  0  0  0  0  0  0  0  0  0  0
   -1.9936    0.4946   -0.2742 C   0  0  0  0  0  0  0  0  0  0  0  0
   -1.2827   -0.7111   -0.7892 C   0  0  0  0  0  0  0  0  0  0  0  0
   -2.1706   -1.7840   -0.6831 O   0  0  0  0  0  0  0  0  0  0  0  0
   -0.0832   -1.0151    0.0792 C   0  0  0  0  0  0  0  0  0  0  0  0
    3.0546    0.0258    0.6618 H   0  0  0  0  0  0  0  0  0  0  0  0
    2.7318   -1.6299   -0.0336 H   0  0  0  0  0  0  0  0  0  0  0  0
    1.9545   -1.0835    1.5250 H   0  0  0  0  0  0  0  0  0  0  0  0
    1.3531   -0.3240   -1.3775 H   0  0  0  0  0  0  0  0  0  0  0  0
    1.9799    1.7124    0.1297 H   0  0  0  0  0  0  0  0  0  0  0  0
    0.1919    3.0552    0.4510 H   0  0  0  0  0  0  0  0  0  0  0  0
   -2.0889    2.4015    0.4842 H   0  0  0  0  0  0  0  0  0  0  0  0
   -3.0738    0.4657   -0.2265 H   0  0  0  0  0  0  0  0  0  0  0  0
   -0.9928   -0.5848   -1.8627 H   0  0  0  0  0  0  0  0  0  0  0  0
   -2.4276   -1.8926    0.2666 H   0  0  0  0  0  0  0  0  0  0  0  0
    0.1683   -2.0879   -0.0560 H   0  0  0  0  0  0  0  0  0  0  0  0
   -0.3631   -0.8749    1.1259 H   0  0  0  0  0  0  0  0  0  0  0  0
  1  2  1  0
  2  3  1  0
  3  4  2  0
  4  5  1  0
  5  6  2  0
  6  7  1  0
  7  8  1  0
  7  9  1  0
  9  2  1  0
  1 10  1  0
  1 11  1  0
  1 12  1  0
  2 13  1  0
  3 14  1  0
  4 15  1  0
  5 16  1  0
  6 17  1  0
  7 18  1  0
  8 19  1  0
  9 20  1  0
  9 21  1  0
M  END
