
     RDKit          3D

 21 23  0  0  0  0  0  0  0  0999 V2000
    2.3486   -0.3642    0.3375 C   0  0  0  0  0  0  0  0  0  0  0  0
    1.1041    0.0087   -0.4175 C   0  0  0  0  0  0  0  0  0  0  0  0
    0.6926    1.3891   -0.1013 C   0  0  0  0  0  0  0  0  0  0  0  0
   -0.4424    1.7223    0.4903 C   0  0  0  0  0  0  0  0  0  0  0  0
   -1.4237    0.7077    0.8966 C   0  0  0  0  0  0  0  0  0  0  0  0
   -1.9497   -0.1734   -0.1575 C   0  0  0  0  0  0  0  0  0  0  0  0
   -1.1079   -0.7027   -1.2613 C   0  0  0  0  0  0  0  0  0  0  0  0
   -0.0125   -0.9871   -0.2557 C   0  0  0  0  0  0  0  0  0  0  0  0
   -0.9614   -0.6838    0.8349 C   0  0  0  0  0  0  0  0  0  0  0  0
    3.2503   -0.3948   -0.3389 H   0  0  0  0  0  0  0  0  0  0  0  0
    2.2369   -1.3495    0.8545 H   0  0  0  0  0  0  0  0  0  0  0  0
    2.5584    0.3720    1.1495 H   0  0  0  0  0  0  0  0  0  0  0  0
    1.3687    0.0019   -1.5159 H   0  0  0  0  0  0  0  0  0  0  0  0
    1.3714    2.1898   -0.3742 H   0  0  0  0  0  0  0  0  0  0  0  0
   -0.6731    2.7635    0.6892 H   0  0  0  0  0  0  0  0  0  0  0  0
   -2.1067    0.9673    1.7171 H   0  0  0  0  0  0  0  0  0  0  0  0
   -3.0048   -0.4367   -0.1284 H   0  0  0  0  0  0  0  0  0  0  0  0
   -0.8147    0.0025   -2.0598 H   0  0  0  0  0  0  0  0  0  0  0  0
   -1.5635   -1.6013   -1.7269 H   0  0  0  0  0  0  0  0  0  0  0  0
    0.3599   -2.0276   -0.2425 H   0  0  0  0  0  0  0  0  0  0  0  0
   -1.2304   -1.4036    1.6100 H   0  0  0  0  0  0  0  0  0  0  0  0
  1  2  1  0
  2  3  1  0
  3  4  2  0
  4  5  1  0
  5  6  1  0
  6  7  1  0
  7  8  1  0
  8  9  1  0
  8  2  1  0
  9  5  1  0
  9  6  1  0
  1 10  1  0
  1 11  1  0
  1 12  1  0
  2 13  1  0
  3 14  1  0
  4 15  1  0
  5 16  1  0
  6 17  1  0
  7 18  1  0
  7 19  1  0
  8 20  1  0
  9 21  1  0
M  END
