
     RDKit          3D

 18 19  0  0  0  0  0  0  0  0999 V2000
    1.8100    0.3813    0.2628 C   0  0  0  0  0  0  0  0  0  0  0  0
    0.7543   -0.0760   -0.6849 C   0  0  0  0  0  0  0  0  0  0  0  0
   -0.0039   -1.3059   -0.1575 C   0  0  0  0  0  0  0  0  0  0  0  0
   -1.4403   -0.9387   -0.5164 C   0  0  0  0  0  0  0  0  0  0  0  0
   -1.9381   -0.1930    0.5321 O   0  0  0  0  0  0  0  0  0  0  0  0
   -1.0823    0.9296    0.5455 C   0  0  0  0  0  0  0  0  0  0  0  0
   -0.4075    0.8811   -0.7989 C   0  0  0  0  0  0  0  0  0  0  0  0
   -1.3138    0.0605   -1.5135 O   0  0  0  0  0  0  0  0  0  0  0  0
    2.8037    0.1853   -0.2252 H   0  0  0  0  0  0  0  0  0  0  0  0
    1.6915   -0.1646    1.2131 H   0  0  0  0  0  0  0  0  0  0  0  0
    1.7382    1.4766    0.5046 H   0  0  0  0  0  0  0  0  0  0  0  0
    1.1263   -0.3460   -1.6878 H   0  0  0  0  0  0  0  0  0  0  0  0
    0.3317   -2.2294   -0.6233 H   0  0  0  0  0  0  0  0  0  0  0  0
    0.1165   -1.2878    0.9569 H   0  0  0  0  0  0  0  0  0  0  0  0
   -2.0398   -1.7769   -0.8290 H   0  0  0  0  0  0  0  0  0  0  0  0
   -1.6386    1.8598    0.7324 H   0  0  0  0  0  0  0  0  0  0  0  0
   -0.3060    0.7262    1.3373 H   0  0  0  0  0  0  0  0  0  0  0  0
   -0.2019    1.8180   -1.2638 H   0  0  0  0  0  0  0  0  0  0  0  0
  1  2  1  0
  2  3  1  0
  3  4  1  0
  4  5  1  0
  5  6  1  0
  6  7  1  0
  7  8  1  0
  7  2  1  0
  8  4  1  0
  1  9  1  0
  1 10  1  0
  1 11  1  0
  2 12  1  0
  3 13  1  0
  3 14  1  0
  4 15  1  0
  6 16  1  0
  6 17  1  0
  7 18  1  0
M  END
