
     RDKit          3D

 21 22  0  0  0  0  0  0  0  0999 V2000
    2.6749   -0.0513   -0.2871 C   0  0  0  0  0  0  0  0  0  0  0  0
    1.1943    0.2468   -0.2318 C   0  0  0  0  0  0  0  0  0  0  0  0
    0.3862   -0.4090    0.8176 C   0  0  0  0  0  0  0  0  0  0  0  0
   -0.7756    0.2633    1.4659 C   0  0  0  0  0  0  0  0  0  0  0  0
   -1.6279    1.0531    0.5164 C   0  0  0  0  0  0  0  0  0  0  0  0
   -2.0408    0.1125   -0.5422 C   0  0  0  0  0  0  0  0  0  0  0  0
   -3.2095   -0.0721   -0.7488 O   0  0  0  0  0  0  0  0  0  0  0  0
   -0.9750   -0.5585   -1.2991 C   0  0  0  0  0  0  0  0  0  0  0  0
    0.2375   -0.9001   -0.5235 C   0  0  0  0  0  0  0  0  0  0  0  0
    3.0169   -0.2839   -1.3025 H   0  0  0  0  0  0  0  0  0  0  0  0
    2.9434   -0.9170    0.3714 H   0  0  0  0  0  0  0  0  0  0  0  0
    3.1955    0.8296    0.1573 H   0  0  0  0  0  0  0  0  0  0  0  0
    0.9231    1.2286   -0.6431 H   0  0  0  0  0  0  0  0  0  0  0  0
    0.9709   -1.0454    1.5388 H   0  0  0  0  0  0  0  0  0  0  0  0
   -1.4331   -0.5503    1.8820 H   0  0  0  0  0  0  0  0  0  0  0  0
   -0.4377    0.8561    2.3316 H   0  0  0  0  0  0  0  0  0  0  0  0
   -2.5185    1.4059    1.1113 H   0  0  0  0  0  0  0  0  0  0  0  0
   -1.1078    1.9472    0.1168 H   0  0  0  0  0  0  0  0  0  0  0  0
   -1.4371   -1.4174   -1.8320 H   0  0  0  0  0  0  0  0  0  0  0  0
   -0.6628    0.1592   -2.1136 H   0  0  0  0  0  0  0  0  0  0  0  0
    0.6831   -1.8974   -0.7854 H   0  0  0  0  0  0  0  0  0  0  0  0
  1  2  1  0
  2  3  1  0
  3  4  1  0
  4  5  1  0
  5  6  1  0
  6  7  2  0
  6  8  1  0
  8  9  1  0
  9  2  1  0
  9  3  1  0
  1 10  1  0
  1 11  1  0
  1 12  1  0
  2 13  1  0
  3 14  1  0
  4 15  1  0
  4 16  1  0
  5 17  1  0
  5 18  1  0
  8 19  1  0
  8 20  1  0
  9 21  1  0
M  END
