
     RDKit          3D

 19 21  0  0  0  0  0  0  0  0999 V2000
    2.5900   -0.2492   -0.4024 C   0  0  0  0  0  0  0  0  0  0  0  0
    1.1617    0.2212   -0.4298 C   0  0  0  0  0  0  0  0  0  0  0  0
    0.5856    0.5192    0.9567 C   0  0  0  0  0  0  0  0  0  0  0  0
   -0.4168    1.4586    0.9662 O   0  0  0  0  0  0  0  0  0  0  0  0
   -1.6025    0.8549    0.6408 C   0  0  0  0  0  0  0  0  0  0  0  0
   -1.8887    0.6501   -0.7884 C   0  0  0  0  0  0  0  0  0  0  0  0
   -1.3169   -0.4560   -0.0104 C   0  0  0  0  0  0  0  0  0  0  0  0
   -2.1530   -1.4944    0.3792 O   0  0  0  0  0  0  0  0  0  0  0  0
    0.1482   -0.6562    0.1783 C   0  0  0  0  0  0  0  0  0  0  0  0
    3.0985   -0.1381   -1.3939 H   0  0  0  0  0  0  0  0  0  0  0  0
    2.7038   -1.2679   -0.0017 H   0  0  0  0  0  0  0  0  0  0  0  0
    3.1530    0.4344    0.2821 H   0  0  0  0  0  0  0  0  0  0  0  0
    0.9374    0.9174   -1.2553 H   0  0  0  0  0  0  0  0  0  0  0  0
    1.2392    0.4623    1.8311 H   0  0  0  0  0  0  0  0  0  0  0  0
   -2.3848    0.9216    1.4143 H   0  0  0  0  0  0  0  0  0  0  0  0
   -2.9557    0.5467   -1.0756 H   0  0  0  0  0  0  0  0  0  0  0  0
   -1.2902    1.2429   -1.5115 H   0  0  0  0  0  0  0  0  0  0  0  0
   -2.0747   -2.2840   -0.1955 H   0  0  0  0  0  0  0  0  0  0  0  0
    0.4659   -1.6834    0.4160 H   0  0  0  0  0  0  0  0  0  0  0  0
  1  2  1  0
  2  3  1  0
  3  4  1  0
  4  5  1  0
  5  6  1  0
  6  7  1  0
  7  8  1  0
  7  9  1  0
  9  2  1  0
  9  3  1  0
  7  5  1  0
  1 10  1  0
  1 11  1  0
  1 12  1  0
  2 13  1  0
  3 14  1  0
  5 15  1  0
  6 16  1  0
  6 17  1  0
  8 18  1  0
  9 19  1  0
M  END
