
     RDKit          3D

 18 19  0  0  0  0  0  0  0  0999 V2000
    1.9736    0.1891   -0.1723 C   0  0  0  0  0  0  0  0  0  0  0  0
    0.6021    0.1902    0.3701 C   0  0  0  0  0  0  0  0  0  0  0  0
    0.0020   -1.1969    0.5478 C   0  0  0  0  0  0  0  0  0  0  0  0
   -1.4380   -0.8036    0.5609 C   0  0  0  0  0  0  0  0  0  0  0  0
   -2.3854   -0.7858   -0.3276 O   0  0  0  0  0  0  0  0  0  0  0  0
   -1.3403   -0.2404   -0.8952 C   0  0  0  0  0  0  0  0  0  0  0  0
   -0.4201    0.8589   -0.5339 C   0  0  0  0  0  0  0  0  0  0  0  0
   -1.0168    1.9442    0.0839 O   0  0  0  0  0  0  0  0  0  0  0  0
    2.6450    0.7181    0.5658 H   0  0  0  0  0  0  0  0  0  0  0  0
    2.4099   -0.8316   -0.2619 H   0  0  0  0  0  0  0  0  0  0  0  0
    2.0926    0.7601   -1.1322 H   0  0  0  0  0  0  0  0  0  0  0  0
    0.5356    0.6751    1.3854 H   0  0  0  0  0  0  0  0  0  0  0  0
    0.3561   -1.6921    1.4491 H   0  0  0  0  0  0  0  0  0  0  0  0
    0.2747   -1.8278   -0.3246 H   0  0  0  0  0  0  0  0  0  0  0  0
   -1.5968   -0.0132    1.3624 H   0  0  0  0  0  0  0  0  0  0  0  0
   -0.8629   -0.9359   -1.6534 H   0  0  0  0  0  0  0  0  0  0  0  0
    0.0932    1.2240   -1.4469 H   0  0  0  0  0  0  0  0  0  0  0  0
   -1.9244    1.7675    0.4226 H   0  0  0  0  0  0  0  0  0  0  0  0
  1  2  1  0
  2  3  1  0
  3  4  1  0
  4  5  1  0
  5  6  1  0
  6  7  1  0
  7  8  1  0
  7  2  1  0
  6  4  1  0
  1  9  1  0
  1 10  1  0
  1 11  1  0
  2 12  1  0
  3 13  1  0
  3 14  1  0
  4 15  1  0
  6 16  1  0
  7 17  1  0
  8 18  1  0
M  END
