
     RDKit          3D

 23 24  0  0  0  0  0  0  0  0999 V2000
   -2.4433    0.5325   -0.4863 C   0  0  0  0  0  0  0  0  0  0  0  0
   -1.5214    0.3171    0.6924 C   0  0  0  0  0  0  0  0  0  0  0  0
   -0.3681    1.2811    0.7096 C   0  0  0  0  0  0  0  0  0  0  0  0
    0.7100    0.6325    1.3565 O   0  0  0  0  0  0  0  0  0  0  0  0
    1.3607   -0.0935    0.3575 C   0  0  0  0  0  0  0  0  0  0  0  0
    2.3256    0.7202   -0.4548 C   0  0  0  0  0  0  0  0  0  0  0  0
    1.5985   -1.5337    0.4613 C   0  0  0  0  0  0  0  0  0  0  0  0
    0.3825   -1.0091   -0.2722 C   0  0  0  0  0  0  0  0  0  0  0  0
   -0.9165   -1.0791    0.5096 C   0  0  0  0  0  0  0  0  0  0  0  0
   -3.1457   -0.3440   -0.4902 H   0  0  0  0  0  0  0  0  0  0  0  0
   -3.0623    1.4302   -0.4009 H   0  0  0  0  0  0  0  0  0  0  0  0
   -1.8689    0.4974   -1.4302 H   0  0  0  0  0  0  0  0  0  0  0  0
   -2.0919    0.3507    1.6311 H   0  0  0  0  0  0  0  0  0  0  0  0
   -0.0909    1.4602   -0.3666 H   0  0  0  0  0  0  0  0  0  0  0  0
   -0.5943    2.2449    1.1801 H   0  0  0  0  0  0  0  0  0  0  0  0
    2.0153    1.7926   -0.5482 H   0  0  0  0  0  0  0  0  0  0  0  0
    3.2846    0.7576    0.1323 H   0  0  0  0  0  0  0  0  0  0  0  0
    2.5438    0.2811   -1.4404 H   0  0  0  0  0  0  0  0  0  0  0  0
    2.4015   -1.9526   -0.1723 H   0  0  0  0  0  0  0  0  0  0  0  0
    1.4894   -1.9946    1.4539 H   0  0  0  0  0  0  0  0  0  0  0  0
    0.3266   -1.1210   -1.3778 H   0  0  0  0  0  0  0  0  0  0  0  0
   -0.7258   -1.4427    1.5514 H   0  0  0  0  0  0  0  0  0  0  0  0
   -1.6095   -1.7282   -0.0495 H   0  0  0  0  0  0  0  0  0  0  0  0
  1  2  1  0
  2  3  1  0
  3  4  1  0
  4  5  1  0
  5  6  1  0
  5  7  1  0
  7  8  1  0
  8  9  1  0
  9  2  1  0
  8  5  1  0
  1 10  1  0
  1 11  1  0
  1 12  1  0
  2 13  1  0
  3 14  1  0
  3 15  1  0
  6 16  1  0
  6 17  1  0
  6 18  1  0
  7 19  1  0
  7 20  1  0
  8 21  1  0
  9 22  1  0
  9 23  1  0
M  END
