
     RDKit          3D

 21 22  0  0  0  0  0  0  0  0999 V2000
   -1.7526   -1.1068   -0.6779 C   0  0  0  0  0  0  0  0  0  0  0  0
   -1.1909    0.2938   -0.6335 C   0  0  0  0  0  0  0  0  0  0  0  0
   -1.5576    0.8741    0.7246 C   0  0  0  0  0  0  0  0  0  0  0  0
   -0.2922    1.0477    1.4613 C   0  0  0  0  0  0  0  0  0  0  0  0
   -0.1788    1.2606    2.6475 O   0  0  0  0  0  0  0  0  0  0  0  0
    0.8064    0.9175    0.5068 C   0  0  0  0  0  0  0  0  0  0  0  0
    1.1535   -0.4922    0.1161 C   0  0  0  0  0  0  0  0  0  0  0  0
    2.5969   -0.6912   -0.2760 C   0  0  0  0  0  0  0  0  0  0  0  0
    0.2961    0.3462   -0.7568 C   0  0  0  0  0  0  0  0  0  0  0  0
   -1.8854   -1.4800   -1.6981 H   0  0  0  0  0  0  0  0  0  0  0  0
   -2.7795   -1.0395   -0.2191 H   0  0  0  0  0  0  0  0  0  0  0  0
   -1.1877   -1.8042   -0.0173 H   0  0  0  0  0  0  0  0  0  0  0  0
   -1.6621    0.8891   -1.4242 H   0  0  0  0  0  0  0  0  0  0  0  0
   -2.3013    0.2459    1.2535 H   0  0  0  0  0  0  0  0  0  0  0  0
   -2.0303    1.8860    0.5940 H   0  0  0  0  0  0  0  0  0  0  0  0
    1.5790    1.7051    0.4098 H   0  0  0  0  0  0  0  0  0  0  0  0
    0.7181   -1.3433    0.6533 H   0  0  0  0  0  0  0  0  0  0  0  0
    3.2169   -0.3484    0.6016 H   0  0  0  0  0  0  0  0  0  0  0  0
    2.8775   -0.0512   -1.1177 H   0  0  0  0  0  0  0  0  0  0  0  0
    2.8611   -1.7576   -0.4209 H   0  0  0  0  0  0  0  0  0  0  0  0
    0.7130    0.6483   -1.7271 H   0  0  0  0  0  0  0  0  0  0  0  0
  1  2  1  0
  2  3  1  0
  3  4  1  0
  4  5  2  0
  4  6  1  0
  6  7  1  0
  7  8  1  0
  7  9  1  0
  9  2  1  0
  9  6  1  0
  1 10  1  0
  1 11  1  0
  1 12  1  0
  2 13  1  0
  3 14  1  0
  3 15  1  0
  6 16  1  0
  7 17  1  0
  8 18  1  0
  8 19  1  0
  8 20  1  0
  9 21  1  0
M  END
