
     RDKit          3D

 21 21  0  0  0  0  0  0  0  0999 V2000
   -1.3713   -1.5179    0.0863 C   0  0  0  0  0  0  0  0  0  0  0  0
   -0.7487   -0.4532   -0.7870 C   0  0  0  0  0  0  0  0  0  0  0  0
   -0.8770    0.9598   -0.3405 C   0  0  0  0  0  0  0  0  0  0  0  0
   -1.4121    1.3274    0.9611 C   0  0  0  0  0  0  0  0  0  0  0  0
   -1.9994    2.4132    1.0769 O   0  0  0  0  0  0  0  0  0  0  0  0
    0.4617    0.2401   -0.3079 C   0  0  0  0  0  0  0  0  0  0  0  0
    1.4672    0.8224   -1.2751 C   0  0  0  0  0  0  0  0  0  0  0  0
    1.0578   -0.2478    0.9669 C   0  0  0  0  0  0  0  0  0  0  0  0
    1.4432   -1.6027    0.8738 O   0  0  0  0  0  0  0  0  0  0  0  0
   -0.8543   -2.4965   -0.0106 H   0  0  0  0  0  0  0  0  0  0  0  0
   -2.4500   -1.6463   -0.2058 H   0  0  0  0  0  0  0  0  0  0  0  0
   -1.3578   -1.2450    1.1420 H   0  0  0  0  0  0  0  0  0  0  0  0
   -0.8466   -0.6758   -1.8702 H   0  0  0  0  0  0  0  0  0  0  0  0
   -1.0519    1.6924   -1.1644 H   0  0  0  0  0  0  0  0  0  0  0  0
   -1.3671    0.7625    1.8771 H   0  0  0  0  0  0  0  0  0  0  0  0
    1.3746    1.9340   -1.1789 H   0  0  0  0  0  0  0  0  0  0  0  0
    2.5033    0.5757   -1.0169 H   0  0  0  0  0  0  0  0  0  0  0  0
    1.2110    0.5801   -2.3259 H   0  0  0  0  0  0  0  0  0  0  0  0
    0.4510   -0.0770    1.8743 H   0  0  0  0  0  0  0  0  0  0  0  0
    2.0259    0.3016    1.1688 H   0  0  0  0  0  0  0  0  0  0  0  0
    2.3406   -1.6472    0.4560 H   0  0  0  0  0  0  0  0  0  0  0  0
  1  2  1  0
  2  3  1  0
  3  4  1  0
  4  5  2  0
  3  6  1  0
  6  7  1  0
  6  8  1  0
  8  9  1  0
  6  2  1  0
  1 10  1  0
  1 11  1  0
  1 12  1  0
  2 13  1  0
  3 14  1  0
  4 15  1  0
  7 16  1  0
  7 17  1  0
  7 18  1  0
  8 19  1  0
  8 20  1  0
  9 21  1  0
M  END
