
     RDKit          3D

 21 22  0  0  0  0  0  0  0  0999 V2000
    0.5612    1.3715    1.5674 C   0  0  0  0  0  0  0  0  0  0  0  0
    0.1816    0.8542    0.2382 C   0  0  0  0  0  0  0  0  0  0  0  0
   -1.2375    0.4111    0.0914 C   0  0  0  0  0  0  0  0  0  0  0  0
   -1.1614   -0.2545   -1.2917 C   0  0  0  0  0  0  0  0  0  0  0  0
   -0.3019   -1.2706   -0.5391 C   0  0  0  0  0  0  0  0  0  0  0  0
   -1.2933   -1.0223    0.6055 C   0  0  0  0  0  0  0  0  0  0  0  0
    0.8811   -0.4792   -0.1023 C   0  0  0  0  0  0  0  0  0  0  0  0
    1.8987   -0.2669   -1.1384 C   0  0  0  0  0  0  0  0  0  0  0  0
    2.6776   -1.1648   -1.3834 O   0  0  0  0  0  0  0  0  0  0  0  0
   -0.0120    1.0143    2.4187 H   0  0  0  0  0  0  0  0  0  0  0  0
    0.5421    2.4993    1.5176 H   0  0  0  0  0  0  0  0  0  0  0  0
    1.6528    1.1345    1.7324 H   0  0  0  0  0  0  0  0  0  0  0  0
    0.3892    1.6063   -0.5627 H   0  0  0  0  0  0  0  0  0  0  0  0
   -2.0475    1.0584    0.2844 H   0  0  0  0  0  0  0  0  0  0  0  0
   -2.1077   -0.6893   -1.6325 H   0  0  0  0  0  0  0  0  0  0  0  0
   -0.5881    0.3589   -1.9779 H   0  0  0  0  0  0  0  0  0  0  0  0
   -0.2187   -2.2479   -0.9235 H   0  0  0  0  0  0  0  0  0  0  0  0
   -2.2463   -1.5069    0.3514 H   0  0  0  0  0  0  0  0  0  0  0  0
   -0.8782   -1.1864    1.5977 H   0  0  0  0  0  0  0  0  0  0  0  0
    1.2994   -0.8668    0.8577 H   0  0  0  0  0  0  0  0  0  0  0  0
    2.0088    0.6471   -1.7109 H   0  0  0  0  0  0  0  0  0  0  0  0
  1  2  1  0
  2  3  1  0
  3  4  1  0
  4  5  1  0
  5  6  1  0
  5  7  1  0
  7  8  1  0
  8  9  2  0
  7  2  1  0
  6  3  1  0
  1 10  1  0
  1 11  1  0
  1 12  1  0
  2 13  1  0
  3 14  1  0
  4 15  1  0
  4 16  1  0
  5 17  1  0
  6 18  1  0
  6 19  1  0
  7 20  1  0
  8 21  1  0
M  END
