
     RDKit          3D

 23 23  0  0  0  0  0  0  0  0999 V2000
    2.5404   -0.4725    0.0366 C   0  0  0  0  0  0  0  0  0  0  0  0
    1.1071   -0.5416   -0.3292 C   0  0  0  0  0  0  0  0  0  0  0  0
    0.2340   -1.3436    0.6006 C   0  0  0  0  0  0  0  0  0  0  0  0
    0.3380   -2.3500    1.2665 O   0  0  0  0  0  0  0  0  0  0  0  0
   -0.8150   -0.2977    0.3015 C   0  0  0  0  0  0  0  0  0  0  0  0
   -1.7373    0.0112    1.4230 C   0  0  0  0  0  0  0  0  0  0  0  0
   -1.5528   -0.6835   -0.9430 C   0  0  0  0  0  0  0  0  0  0  0  0
    0.3257    0.6619    0.1310 C   0  0  0  0  0  0  0  0  0  0  0  0
    0.1615    1.7791   -0.8121 C   0  0  0  0  0  0  0  0  0  0  0  0
    2.6902    0.3228    0.7883 H   0  0  0  0  0  0  0  0  0  0  0  0
    3.1205   -0.1675   -0.8597 H   0  0  0  0  0  0  0  0  0  0  0  0
    2.9537   -1.4216    0.3811 H   0  0  0  0  0  0  0  0  0  0  0  0
    0.9136   -0.8806   -1.3628 H   0  0  0  0  0  0  0  0  0  0  0  0
   -1.3552    0.8444    2.0542 H   0  0  0  0  0  0  0  0  0  0  0  0
   -2.6995    0.3933    0.9794 H   0  0  0  0  0  0  0  0  0  0  0  0
   -2.0111   -0.8292    2.0621 H   0  0  0  0  0  0  0  0  0  0  0  0
   -2.5566   -0.1830   -1.0083 H   0  0  0  0  0  0  0  0  0  0  0  0
   -1.0201   -0.4546   -1.8694 H   0  0  0  0  0  0  0  0  0  0  0  0
   -1.7505   -1.7796   -0.8842 H   0  0  0  0  0  0  0  0  0  0  0  0
    0.7033    0.9674    1.1388 H   0  0  0  0  0  0  0  0  0  0  0  0
    0.5956    1.6156   -1.8206 H   0  0  0  0  0  0  0  0  0  0  0  0
    0.7202    2.6732   -0.4041 H   0  0  0  0  0  0  0  0  0  0  0  0
   -0.9058    2.1360   -0.8695 H   0  0  0  0  0  0  0  0  0  0  0  0
  1  2  1  0
  2  3  1  0
  3  4  2  0
  3  5  1  0
  5  6  1  0
  5  7  1  0
  5  8  1  0
  8  9  1  0
  8  2  1  0
  1 10  1  0
  1 11  1  0
  1 12  1  0
  2 13  1  0
  6 14  1  0
  6 15  1  0
  6 16  1  0
  7 17  1  0
  7 18  1  0
  7 19  1  0
  8 20  1  0
  9 21  1  0
  9 22  1  0
  9 23  1  0
M  END
