
     RDKit          3D

 21 22  0  0  0  0  0  0  0  0999 V2000
   -2.4169    0.9703   -0.4575 C   0  0  0  0  0  0  0  0  0  0  0  0
   -1.2031    0.5814    0.3228 C   0  0  0  0  0  0  0  0  0  0  0  0
   -0.9988   -0.7431    0.9082 C   0  0  0  0  0  0  0  0  0  0  0  0
   -2.0465   -1.6918    0.9369 O   0  0  0  0  0  0  0  0  0  0  0  0
   -0.3310   -0.4715   -0.3656 C   0  0  0  0  0  0  0  0  0  0  0  0
    1.0842   -0.0845   -0.5220 C   0  0  0  0  0  0  0  0  0  0  0  0
    1.8002    0.1946    0.7764 C   0  0  0  0  0  0  0  0  0  0  0  0
    2.9594   -0.2607   -0.1049 C   0  0  0  0  0  0  0  0  0  0  0  0
    2.0118   -1.0793   -0.7639 O   0  0  0  0  0  0  0  0  0  0  0  0
   -3.2595    0.2862   -0.3770 H   0  0  0  0  0  0  0  0  0  0  0  0
   -2.7904    1.9888   -0.1457 H   0  0  0  0  0  0  0  0  0  0  0  0
   -2.0850    1.1135   -1.5270 H   0  0  0  0  0  0  0  0  0  0  0  0
   -0.6879    1.4344    0.8104 H   0  0  0  0  0  0  0  0  0  0  0  0
   -0.3796   -0.8141    1.8262 H   0  0  0  0  0  0  0  0  0  0  0  0
   -2.5728   -1.6753    0.0998 H   0  0  0  0  0  0  0  0  0  0  0  0
   -0.7686   -0.9938   -1.2576 H   0  0  0  0  0  0  0  0  0  0  0  0
    1.2339    0.7469   -1.2398 H   0  0  0  0  0  0  0  0  0  0  0  0
    1.6205   -0.4944    1.5984 H   0  0  0  0  0  0  0  0  0  0  0  0
    1.7889    1.2757    0.9938 H   0  0  0  0  0  0  0  0  0  0  0  0
    3.3415    0.5719   -0.7055 H   0  0  0  0  0  0  0  0  0  0  0  0
    3.6997   -0.8551    0.4532 H   0  0  0  0  0  0  0  0  0  0  0  0
  1  2  1  0
  2  3  1  0
  3  4  1  0
  3  5  1  0
  5  6  1  0
  6  7  1  0
  7  8  1  0
  8  9  1  0
  5  2  1  0
  9  6  1  0
  1 10  1  0
  1 11  1  0
  1 12  1  0
  2 13  1  0
  3 14  1  0
  4 15  1  0
  5 16  1  0
  6 17  1  0
  7 18  1  0
  7 19  1  0
  8 20  1  0
  8 21  1  0
M  END
