
     RDKit          3D

 17 17  0  0  0  0  0  0  0  0999 V2000
   -2.2027    0.3834    0.2500 C   0  0  0  0  0  0  0  0  0  0  0  0
   -0.9340   -0.0398   -0.4438 C   0  0  0  0  0  0  0  0  0  0  0  0
    0.1139   -0.5282    0.5619 C   0  0  0  0  0  0  0  0  0  0  0  0
    1.3656   -0.3983   -0.2817 C   0  0  0  0  0  0  0  0  0  0  0  0
    2.6004   -0.3956    0.5472 C   0  0  0  0  0  0  0  0  0  0  0  0
    2.8862   -1.4421    1.1033 O   0  0  0  0  0  0  0  0  0  0  0  0
    1.1473    0.8863   -0.8753 O   0  0  0  0  0  0  0  0  0  0  0  0
   -0.2079    1.0824   -1.0666 C   0  0  0  0  0  0  0  0  0  0  0  0
   -0.6990    2.0554   -1.6690 O   0  0  0  0  0  0  0  0  0  0  0  0
   -2.0816    1.2458    0.9085 H   0  0  0  0  0  0  0  0  0  0  0  0
   -2.9736    0.5117   -0.5389 H   0  0  0  0  0  0  0  0  0  0  0  0
   -2.5402   -0.5122    0.8483 H   0  0  0  0  0  0  0  0  0  0  0  0
   -1.1522   -0.8687   -1.1220 H   0  0  0  0  0  0  0  0  0  0  0  0
    0.1635    0.2265    1.3521 H   0  0  0  0  0  0  0  0  0  0  0  0
   -0.0725   -1.5501    0.8957 H   0  0  0  0  0  0  0  0  0  0  0  0
    1.4221   -1.1678   -1.0805 H   0  0  0  0  0  0  0  0  0  0  0  0
    3.1647    0.5113    0.6108 H   0  0  0  0  0  0  0  0  0  0  0  0
  1  2  1  0
  2  3  1  0
  3  4  1  0
  4  5  1  0
  5  6  2  0
  4  7  1  0
  7  8  1  0
  8  9  2  0
  8  2  1  0
  1 10  1  0
  1 11  1  0
  1 12  1  0
  2 13  1  0
  3 14  1  0
  3 15  1  0
  4 16  1  0
  5 17  1  0
M  END
