
     RDKit          3D

 19 19  0  0  0  0  0  0  0  0999 V2000
    2.4227   -0.1671    0.0965 C   0  0  0  0  0  0  0  0  0  0  0  0
    1.0284    0.1637   -0.4336 C   0  0  0  0  0  0  0  0  0  0  0  0
    0.0934   -0.9921   -0.3567 C   0  0  0  0  0  0  0  0  0  0  0  0
   -1.0591   -0.8045    0.5760 C   0  0  0  0  0  0  0  0  0  0  0  0
   -2.1832   -0.0005   -0.0870 C   0  0  0  0  0  0  0  0  0  0  0  0
   -1.8415    1.3875   -0.0728 O   0  0  0  0  0  0  0  0  0  0  0  0
   -0.6182    1.9448    0.2188 C   0  0  0  0  0  0  0  0  0  0  0  0
   -0.6038    3.1680    0.4790 O   0  0  0  0  0  0  0  0  0  0  0  0
    0.5972    1.3073    0.2571 O   0  0  0  0  0  0  0  0  0  0  0  0
    2.3999   -0.3795    1.1841 H   0  0  0  0  0  0  0  0  0  0  0  0
    3.0133    0.7857   -0.0129 H   0  0  0  0  0  0  0  0  0  0  0  0
    2.8929   -0.9850   -0.4948 H   0  0  0  0  0  0  0  0  0  0  0  0
    1.1790    0.4289   -1.5137 H   0  0  0  0  0  0  0  0  0  0  0  0
    0.6686   -1.9108   -0.0753 H   0  0  0  0  0  0  0  0  0  0  0  0
   -0.3417   -1.2370   -1.3696 H   0  0  0  0  0  0  0  0  0  0  0  0
   -1.5030   -1.8176    0.7603 H   0  0  0  0  0  0  0  0  0  0  0  0
   -0.7870   -0.3957    1.5542 H   0  0  0  0  0  0  0  0  0  0  0  0
   -2.2243   -0.3630   -1.1408 H   0  0  0  0  0  0  0  0  0  0  0  0
   -3.1336   -0.1330    0.4311 H   0  0  0  0  0  0  0  0  0  0  0  0
  1  2  1  0
  2  3  1  0
  3  4  1  0
  4  5  1  0
  5  6  1  0
  6  7  1  0
  7  8  2  0
  7  9  1  0
  9  2  1  0
  1 10  1  0
  1 11  1  0
  1 12  1  0
  2 13  1  0
  3 14  1  0
  3 15  1  0
  4 16  1  0
  4 17  1  0
  5 18  1  0
  5 19  1  0
M  END
