
     RDKit          3D

 21 22  0  0  0  0  0  0  0  0999 V2000
   -2.1215   -0.0290   -0.5640 C   0  0  0  0  0  0  0  0  0  0  0  0
   -1.2048    0.0495    0.6049 C   0  0  0  0  0  0  0  0  0  0  0  0
   -0.2859   -1.1142    0.8346 C   0  0  0  0  0  0  0  0  0  0  0  0
    0.6217   -0.1496    1.4639 C   0  0  0  0  0  0  0  0  0  0  0  0
    1.3601    0.0664    2.3909 O   0  0  0  0  0  0  0  0  0  0  0  0
    0.1745    0.5768    0.2772 C   0  0  0  0  0  0  0  0  0  0  0  0
    0.4991    1.8262   -0.1602 C   0  0  0  0  0  0  0  0  0  0  0  0
    0.3614   -0.7299   -0.4624 C   0  0  0  0  0  0  0  0  0  0  0  0
    1.8148   -1.1551   -0.5558 C   0  0  0  0  0  0  0  0  0  0  0  0
   -2.4486   -1.0446   -0.8224 H   0  0  0  0  0  0  0  0  0  0  0  0
   -3.0613    0.5302   -0.2874 H   0  0  0  0  0  0  0  0  0  0  0  0
   -1.7138    0.5345   -1.4390 H   0  0  0  0  0  0  0  0  0  0  0  0
   -1.6152    0.4285    1.5553 H   0  0  0  0  0  0  0  0  0  0  0  0
   -0.5342   -2.0323    1.1460 H   0  0  0  0  0  0  0  0  0  0  0  0
   -0.3664    2.4307   -0.5645 H   0  0  0  0  0  0  0  0  0  0  0  0
    0.9426    2.5093    0.6236 H   0  0  0  0  0  0  0  0  0  0  0  0
    1.2643    1.8610   -0.9910 H   0  0  0  0  0  0  0  0  0  0  0  0
   -0.2378   -0.8717   -1.3630 H   0  0  0  0  0  0  0  0  0  0  0  0
    2.3270   -0.6735    0.3180 H   0  0  0  0  0  0  0  0  0  0  0  0
    1.9471   -2.2463   -0.5323 H   0  0  0  0  0  0  0  0  0  0  0  0
    2.2768   -0.7668   -1.4723 H   0  0  0  0  0  0  0  0  0  0  0  0
  1  2  1  0
  2  3  1  0
  3  4  1  0
  4  5  2  0
  4  6  1  0
  6  7  1  0
  6  8  1  0
  8  9  1  0
  6  2  1  0
  8  3  1  0
  1 10  1  0
  1 11  1  0
  1 12  1  0
  2 13  1  0
  3 14  1  0
  7 15  1  0
  7 16  1  0
  7 17  1  0
  8 18  1  0
  9 19  1  0
  9 20  1  0
  9 21  1  0
M  END
