
     RDKit          3D

 19 21  0  0  0  0  0  0  0  0999 V2000
    1.9633   -0.1159   -0.2018 C   0  0  0  0  0  0  0  0  0  0  0  0
    0.7250    0.6604   -0.5924 C   0  0  0  0  0  0  0  0  0  0  0  0
   -0.4769   -0.2311   -0.8861 C   0  0  0  0  0  0  0  0  0  0  0  0
   -0.3840   -1.5866   -0.1906 C   0  0  0  0  0  0  0  0  0  0  0  0
   -0.0816   -1.2794    1.1163 O   0  0  0  0  0  0  0  0  0  0  0  0
   -0.6159   -0.0421    1.4210 C   0  0  0  0  0  0  0  0  0  0  0  0
   -0.0013    1.1093    0.6550 C   0  0  0  0  0  0  0  0  0  0  0  0
   -1.2147    0.5165    0.1844 C   0  0  0  0  0  0  0  0  0  0  0  0
   -2.4437    1.0150    0.0658 O   0  0  0  0  0  0  0  0  0  0  0  0
    2.8828    0.4663   -0.4779 H   0  0  0  0  0  0  0  0  0  0  0  0
    2.0377   -0.2880    0.8853 H   0  0  0  0  0  0  0  0  0  0  0  0
    2.0138   -1.1006   -0.6958 H   0  0  0  0  0  0  0  0  0  0  0  0
    0.9302    1.4323   -1.3351 H   0  0  0  0  0  0  0  0  0  0  0  0
   -0.8620   -0.2211   -1.8910 H   0  0  0  0  0  0  0  0  0  0  0  0
    0.3264   -2.2528   -0.6740 H   0  0  0  0  0  0  0  0  0  0  0  0
   -1.4221   -2.0203   -0.2767 H   0  0  0  0  0  0  0  0  0  0  0  0
   -0.9751    0.1985    2.4222 H   0  0  0  0  0  0  0  0  0  0  0  0
    0.1687    2.0714    1.1053 H   0  0  0  0  0  0  0  0  0  0  0  0
   -2.5705    1.6681   -0.6338 H   0  0  0  0  0  0  0  0  0  0  0  0
  1  2  1  0
  2  3  1  0
  3  4  1  0
  4  5  1  0
  5  6  1  0
  6  7  1  0
  7  8  1  0
  8  9  1  0
  7  2  1  0
  8  3  1  0
  8  6  1  0
  1 10  1  0
  1 11  1  0
  1 12  1  0
  2 13  1  0
  3 14  1  0
  4 15  1  0
  4 16  1  0
  6 17  1  0
  7 18  1  0
  9 19  1  0
M  END
