
     RDKit          3D

 21 21  0  0  0  0  0  0  0  0999 V2000
    2.3696   -0.2987    0.0420 C   0  0  0  0  0  0  0  0  0  0  0  0
    0.9350   -0.2624    0.4334 C   0  0  0  0  0  0  0  0  0  0  0  0
    0.1369   -1.3987   -0.0940 C   0  0  0  0  0  0  0  0  0  0  0  0
    0.7081   -2.4760   -0.1866 O   0  0  0  0  0  0  0  0  0  0  0  0
   -1.2656   -1.3222   -0.5052 C   0  0  0  0  0  0  0  0  0  0  0  0
   -1.9719   -0.0742   -0.1377 C   0  0  0  0  0  0  0  0  0  0  0  0
   -1.1247    0.9833    0.4854 C   0  0  0  0  0  0  0  0  0  0  0  0
    0.2779    1.0070   -0.1131 C   0  0  0  0  0  0  0  0  0  0  0  0
    0.9468    2.1446    0.2891 O   0  0  0  0  0  0  0  0  0  0  0  0
    2.5104   -1.0141   -0.7891 H   0  0  0  0  0  0  0  0  0  0  0  0
    2.7269    0.7282   -0.2065 H   0  0  0  0  0  0  0  0  0  0  0  0
    3.0377   -0.6444    0.8717 H   0  0  0  0  0  0  0  0  0  0  0  0
    0.8316   -0.2423    1.5515 H   0  0  0  0  0  0  0  0  0  0  0  0
   -1.3055   -1.4406   -1.6166 H   0  0  0  0  0  0  0  0  0  0  0  0
   -1.8089   -2.2212   -0.0985 H   0  0  0  0  0  0  0  0  0  0  0  0
   -2.5326    0.3550   -1.0191 H   0  0  0  0  0  0  0  0  0  0  0  0
   -2.7909   -0.3167    0.6027 H   0  0  0  0  0  0  0  0  0  0  0  0
   -0.9861    0.7044    1.5703 H   0  0  0  0  0  0  0  0  0  0  0  0
   -1.5411    1.9837    0.3996 H   0  0  0  0  0  0  0  0  0  0  0  0
    0.2360    0.9101   -1.2339 H   0  0  0  0  0  0  0  0  0  0  0  0
    0.6104    2.8952   -0.2453 H   0  0  0  0  0  0  0  0  0  0  0  0
  1  2  1  0
  2  3  1  0
  3  4  2  0
  3  5  1  0
  5  6  1  0
  6  7  1  0
  7  8  1  0
  8  9  1  0
  8  2  1  0
  1 10  1  0
  1 11  1  0
  1 12  1  0
  2 13  1  0
  5 14  1  0
  5 15  1  0
  6 16  1  0
  6 17  1  0
  7 18  1  0
  7 19  1  0
  8 20  1  0
  9 21  1  0
M  END
