
     RDKit          3D

 23 24  0  0  0  0  0  0  0  0999 V2000
    2.3042   -0.6465    0.1509 C   0  0  0  0  0  0  0  0  0  0  0  0
    1.1845    0.3579    0.0623 C   0  0  0  0  0  0  0  0  0  0  0  0
    0.1599    0.1406    1.1930 C   0  0  0  0  0  0  0  0  0  0  0  0
   -0.9193   -0.4849    0.4167 C   0  0  0  0  0  0  0  0  0  0  0  0
   -0.4647   -1.9004   -0.0160 C   0  0  0  0  0  0  0  0  0  0  0  0
   -2.0145   -0.0186   -0.3264 C   0  0  0  0  0  0  0  0  0  0  0  0
   -0.8078    0.6080   -0.7289 C   0  0  0  0  0  0  0  0  0  0  0  0
   -0.7581    2.0671   -0.3283 C   0  0  0  0  0  0  0  0  0  0  0  0
    0.4064    0.1620   -1.1083 O   0  0  0  0  0  0  0  0  0  0  0  0
    2.1446   -1.5668   -0.3998 H   0  0  0  0  0  0  0  0  0  0  0  0
    2.5579   -0.7956    1.2237 H   0  0  0  0  0  0  0  0  0  0  0  0
    3.2264   -0.1749   -0.2952 H   0  0  0  0  0  0  0  0  0  0  0  0
    1.6335    1.3472    0.1229 H   0  0  0  0  0  0  0  0  0  0  0  0
    0.6331   -0.6045    1.9001 H   0  0  0  0  0  0  0  0  0  0  0  0
   -0.0360    1.0231    1.7739 H   0  0  0  0  0  0  0  0  0  0  0  0
    0.1831   -2.3735    0.7182 H   0  0  0  0  0  0  0  0  0  0  0  0
   -0.1340   -1.9150   -1.0526 H   0  0  0  0  0  0  0  0  0  0  0  0
   -1.4275   -2.4941    0.0039 H   0  0  0  0  0  0  0  0  0  0  0  0
   -2.8192    0.5164    0.2363 H   0  0  0  0  0  0  0  0  0  0  0  0
   -2.5238   -0.6527   -1.1112 H   0  0  0  0  0  0  0  0  0  0  0  0
    0.1750    2.5816   -0.5415 H   0  0  0  0  0  0  0  0  0  0  0  0
   -1.1950    2.2655    0.6715 H   0  0  0  0  0  0  0  0  0  0  0  0
   -1.5089    2.5580   -1.0298 H   0  0  0  0  0  0  0  0  0  0  0  0
  1  2  1  0
  2  3  1  0
  3  4  1  0
  4  5  1  0
  4  6  1  0
  6  7  1  0
  7  8  1  0
  7  9  1  0
  9  2  1  0
  7  4  1  0
  1 10  1  0
  1 11  1  0
  1 12  1  0
  2 13  1  0
  3 14  1  0
  3 15  1  0
  5 16  1  0
  5 17  1  0
  5 18  1  0
  6 19  1  0
  6 20  1  0
  8 21  1  0
  8 22  1  0
  8 23  1  0
M  END
