
     RDKit          3D

 23 24  0  0  0  0  0  0  0  0999 V2000
    2.3127   -0.8283   -0.2593 C   0  0  0  0  0  0  0  0  0  0  0  0
    1.3908    0.0079    0.5612 C   0  0  0  0  0  0  0  0  0  0  0  0
    0.8329    1.1911   -0.2260 C   0  0  0  0  0  0  0  0  0  0  0  0
   -0.5037    0.8972    0.4621 C   0  0  0  0  0  0  0  0  0  0  0  0
   -0.7076    1.7383    1.5264 O   0  0  0  0  0  0  0  0  0  0  0  0
   -1.6241    0.7307   -0.5117 C   0  0  0  0  0  0  0  0  0  0  0  0
   -1.9353   -0.7448   -0.5455 C   0  0  0  0  0  0  0  0  0  0  0  0
   -0.5995   -1.4094   -0.1839 C   0  0  0  0  0  0  0  0  0  0  0  0
    0.0180   -0.4834    0.7976 C   0  0  0  0  0  0  0  0  0  0  0  0
    2.4537   -1.8444    0.1765 H   0  0  0  0  0  0  0  0  0  0  0  0
    3.2955   -0.2843   -0.3109 H   0  0  0  0  0  0  0  0  0  0  0  0
    1.8968   -0.9396   -1.2770 H   0  0  0  0  0  0  0  0  0  0  0  0
    1.8600    0.3932    1.5047 H   0  0  0  0  0  0  0  0  0  0  0  0
    0.7539    1.0032   -1.3257 H   0  0  0  0  0  0  0  0  0  0  0  0
    1.2729    2.1709    0.0467 H   0  0  0  0  0  0  0  0  0  0  0  0
   -0.7674    2.6718    1.1706 H   0  0  0  0  0  0  0  0  0  0  0  0
   -2.5069    1.2853   -0.0949 H   0  0  0  0  0  0  0  0  0  0  0  0
   -1.3216    1.1208   -1.5081 H   0  0  0  0  0  0  0  0  0  0  0  0
   -2.7141   -0.9814    0.1939 H   0  0  0  0  0  0  0  0  0  0  0  0
   -2.2136   -1.0031   -1.5781 H   0  0  0  0  0  0  0  0  0  0  0  0
   -0.8978   -2.4029    0.2543 H   0  0  0  0  0  0  0  0  0  0  0  0
   -0.0553   -1.5194   -1.1293 H   0  0  0  0  0  0  0  0  0  0  0  0
   -0.2405   -0.7697    1.8446 H   0  0  0  0  0  0  0  0  0  0  0  0
  1  2  1  0
  2  3  1  0
  3  4  1  0
  4  5  1  0
  4  6  1  0
  6  7  1  0
  7  8  1  0
  8  9  1  0
  9  2  1  0
  9  4  1  0
  1 10  1  0
  1 11  1  0
  1 12  1  0
  2 13  1  0
  3 14  1  0
  3 15  1  0
  5 16  1  0
  6 17  1  0
  6 18  1  0
  7 19  1  0
  7 20  1  0
  8 21  1  0
  8 22  1  0
  9 23  1  0
M  END
