
     RDKit          3D

 19 19  0  0  0  0  0  0  0  0999 V2000
   -2.0589   -0.8556    0.4147 C   0  0  0  0  0  0  0  0  0  0  0  0
   -0.9007   -0.4051   -0.4475 C   0  0  0  0  0  0  0  0  0  0  0  0
   -1.3163    0.6103   -1.4919 C   0  0  0  0  0  0  0  0  0  0  0  0
   -0.0480    1.3939   -1.1352 C   0  0  0  0  0  0  0  0  0  0  0  0
   -0.0665    0.6889    0.2001 C   0  0  0  0  0  0  0  0  0  0  0  0
    1.2331    0.1113    0.5893 C   0  0  0  0  0  0  0  0  0  0  0  0
    2.2974   -0.3738    0.9117 C   0  0  0  0  0  0  0  0  0  0  0  0
    3.5485   -0.9675    1.3070 C   0  0  0  0  0  0  0  0  0  0  0  0
    4.3807   -0.3115    2.0215 O   0  0  0  0  0  0  0  0  0  0  0  0
   -2.9429   -1.1069   -0.2400 H   0  0  0  0  0  0  0  0  0  0  0  0
   -1.8324   -1.7846    0.9622 H   0  0  0  0  0  0  0  0  0  0  0  0
   -2.3879   -0.0524    1.0851 H   0  0  0  0  0  0  0  0  0  0  0  0
   -0.2949   -1.2158   -0.8793 H   0  0  0  0  0  0  0  0  0  0  0  0
   -1.2741    0.2396   -2.5153 H   0  0  0  0  0  0  0  0  0  0  0  0
   -2.1998    1.2211   -1.2112 H   0  0  0  0  0  0  0  0  0  0  0  0
   -0.1997    2.4886   -1.0895 H   0  0  0  0  0  0  0  0  0  0  0  0
    0.8268    1.0563   -1.7256 H   0  0  0  0  0  0  0  0  0  0  0  0
   -0.5892    1.2172    1.0111 H   0  0  0  0  0  0  0  0  0  0  0  0
    3.8249   -1.9539    1.0268 H   0  0  0  0  0  0  0  0  0  0  0  0
  1  2  1  0
  2  3  1  0
  3  4  1  0
  4  5  1  0
  5  6  1  0
  6  7  3  0
  7  8  1  0
  8  9  2  0
  5  2  1  0
  1 10  1  0
  1 11  1  0
  1 12  1  0
  2 13  1  0
  3 14  1  0
  3 15  1  0
  4 16  1  0
  4 17  1  0
  5 18  1  0
  8 19  1  0
M  END
