
     RDKit          3D

 21 22  0  0  0  0  0  0  0  0999 V2000
    2.0025    1.0176    0.5007 C   0  0  0  0  0  0  0  0  0  0  0  0
    1.1700   -0.2035    0.7960 C   0  0  0  0  0  0  0  0  0  0  0  0
    1.0112   -1.0150   -0.4934 C   0  0  0  0  0  0  0  0  0  0  0  0
    1.2902   -0.2815   -1.6447 O   0  0  0  0  0  0  0  0  0  0  0  0
   -0.4492   -1.1089   -0.1711 C   0  0  0  0  0  0  0  0  0  0  0  0
   -0.2930   -0.0075    0.9303 C   0  0  0  0  0  0  0  0  0  0  0  0
   -1.2132    0.1649   -0.1965 C   0  0  0  0  0  0  0  0  0  0  0  0
   -2.6891    0.0179    0.0596 C   0  0  0  0  0  0  0  0  0  0  0  0
   -0.8828    1.0502   -1.2245 O   0  0  0  0  0  0  0  0  0  0  0  0
    1.5907    1.5383   -0.3932 H   0  0  0  0  0  0  0  0  0  0  0  0
    3.0371    0.6316    0.2618 H   0  0  0  0  0  0  0  0  0  0  0  0
    2.0258    1.6956    1.3667 H   0  0  0  0  0  0  0  0  0  0  0  0
    1.6206   -0.8158    1.6045 H   0  0  0  0  0  0  0  0  0  0  0  0
    1.5167   -1.9852   -0.4600 H   0  0  0  0  0  0  0  0  0  0  0  0
    2.2807   -0.1903   -1.7026 H   0  0  0  0  0  0  0  0  0  0  0  0
   -0.8765   -2.0531    0.1762 H   0  0  0  0  0  0  0  0  0  0  0  0
   -0.7139   -0.2813    1.9317 H   0  0  0  0  0  0  0  0  0  0  0  0
   -3.0226   -1.0222   -0.2305 H   0  0  0  0  0  0  0  0  0  0  0  0
   -3.3119    0.6942   -0.5624 H   0  0  0  0  0  0  0  0  0  0  0  0
   -2.9862    0.1641    1.0977 H   0  0  0  0  0  0  0  0  0  0  0  0
   -1.1069    1.9898   -0.9551 H   0  0  0  0  0  0  0  0  0  0  0  0
  1  2  1  0
  2  3  1  0
  3  4  1  0
  3  5  1  0
  5  6  1  0
  6  7  1  0
  7  8  1  0
  7  9  1  0
  6  2  1  0
  7  5  1  0
  1 10  1  0
  1 11  1  0
  1 12  1  0
  2 13  1  0
  3 14  1  0
  4 15  1  0
  5 16  1  0
  6 17  1  0
  8 18  1  0
  8 19  1  0
  8 20  1  0
  9 21  1  0
M  END
