
     RDKit          3D

 23 23  0  0  0  0  0  0  0  0999 V2000
    2.6910   -0.2654    0.6393 C   0  0  0  0  0  0  0  0  0  0  0  0
    1.1992   -0.1939    0.4516 C   0  0  0  0  0  0  0  0  0  0  0  0
    0.7213    1.1985    0.2542 C   0  0  0  0  0  0  0  0  0  0  0  0
   -0.3588    1.5583   -0.4184 C   0  0  0  0  0  0  0  0  0  0  0  0
   -1.3220    0.6974   -1.1143 C   0  0  0  0  0  0  0  0  0  0  0  0
   -1.5715   -0.6132   -0.4541 C   0  0  0  0  0  0  0  0  0  0  0  0
   -2.0670   -0.3478    0.9612 C   0  0  0  0  0  0  0  0  0  0  0  0
   -0.5398   -1.4856   -0.3841 O   0  0  0  0  0  0  0  0  0  0  0  0
    0.7132   -1.0390   -0.6916 C   0  0  0  0  0  0  0  0  0  0  0  0
    3.1577   -0.0688   -0.3422 H   0  0  0  0  0  0  0  0  0  0  0  0
    2.9585    0.5024    1.3986 H   0  0  0  0  0  0  0  0  0  0  0  0
    2.9466   -1.2848    0.9448 H   0  0  0  0  0  0  0  0  0  0  0  0
    0.7473   -0.6106    1.3956 H   0  0  0  0  0  0  0  0  0  0  0  0
    1.3319    1.9846    0.7149 H   0  0  0  0  0  0  0  0  0  0  0  0
   -0.5336    2.6447   -0.4436 H   0  0  0  0  0  0  0  0  0  0  0  0
   -2.2952    1.2452   -1.1465 H   0  0  0  0  0  0  0  0  0  0  0  0
   -1.0430    0.5631   -2.1972 H   0  0  0  0  0  0  0  0  0  0  0  0
   -2.4181   -1.1044   -1.0194 H   0  0  0  0  0  0  0  0  0  0  0  0
   -1.4184    0.4227    1.4154 H   0  0  0  0  0  0  0  0  0  0  0  0
   -3.1326   -0.0429    0.9277 H   0  0  0  0  0  0  0  0  0  0  0  0
   -1.9384   -1.3074    1.5133 H   0  0  0  0  0  0  0  0  0  0  0  0
    0.7862   -0.5198   -1.6686 H   0  0  0  0  0  0  0  0  0  0  0  0
    1.3850   -1.9336   -0.7363 H   0  0  0  0  0  0  0  0  0  0  0  0
  1  2  1  0
  2  3  1  0
  3  4  2  0
  4  5  1  0
  5  6  1  0
  6  7  1  0
  6  8  1  0
  8  9  1  0
  9  2  1  0
  1 10  1  0
  1 11  1  0
  1 12  1  0
  2 13  1  0
  3 14  1  0
  4 15  1  0
  5 16  1  0
  5 17  1  0
  6 18  1  0
  7 19  1  0
  7 20  1  0
  7 21  1  0
  9 22  1  0
  9 23  1  0
M  END
