
     RDKit          3D

 18 18  0  0  0  0  0  0  0  0999 V2000
   -2.1092    0.1595   -0.1623 C   0  0  0  0  0  0  0  0  0  0  0  0
   -0.7763   -0.2712   -0.7308 C   0  0  0  0  0  0  0  0  0  0  0  0
   -0.2148   -1.3340    0.1615 C   0  0  0  0  0  0  0  0  0  0  0  0
    0.5797   -0.7128    1.0796 O   0  0  0  0  0  0  0  0  0  0  0  0
    1.0661    0.4568    0.5523 C   0  0  0  0  0  0  0  0  0  0  0  0
    2.4883    0.2487    0.1770 C   0  0  0  0  0  0  0  0  0  0  0  0
    3.0753   -0.8050    0.3333 O   0  0  0  0  0  0  0  0  0  0  0  0
    0.2205    0.8368   -0.6265 C   0  0  0  0  0  0  0  0  0  0  0  0
   -1.9668    0.8216    0.7308 H   0  0  0  0  0  0  0  0  0  0  0  0
   -2.5827    0.8108   -0.9378 H   0  0  0  0  0  0  0  0  0  0  0  0
   -2.7536   -0.6993    0.0428 H   0  0  0  0  0  0  0  0  0  0  0  0
   -0.9547   -0.6157   -1.7628 H   0  0  0  0  0  0  0  0  0  0  0  0
   -1.0261   -1.9089    0.6931 H   0  0  0  0  0  0  0  0  0  0  0  0
    0.4030   -2.0335   -0.4559 H   0  0  0  0  0  0  0  0  0  0  0  0
    0.9839    1.2359    1.3672 H   0  0  0  0  0  0  0  0  0  0  0  0
    3.0469    1.0659   -0.2596 H   0  0  0  0  0  0  0  0  0  0  0  0
   -0.3320    1.7902   -0.4896 H   0  0  0  0  0  0  0  0  0  0  0  0
    0.8524    0.9542   -1.5423 H   0  0  0  0  0  0  0  0  0  0  0  0
  1  2  1  0
  2  3  1  0
  3  4  1  0
  4  5  1  0
  5  6  1  0
  6  7  2  0
  5  8  1  0
  8  2  1  0
  1  9  1  0
  1 10  1  0
  1 11  1  0
  2 12  1  0
  3 13  1  0
  3 14  1  0
  5 15  1  0
  6 16  1  0
  8 17  1  0
  8 18  1  0
M  END
