
     RDKit          3D

 25 26  0  0  0  0  0  0  0  0999 V2000
   -2.0868   -0.8353   -0.6887 C   0  0  0  0  0  0  0  0  0  0  0  0
   -0.8837    0.0104   -0.9493 C   0  0  0  0  0  0  0  0  0  0  0  0
    0.3305   -0.9281   -1.1123 C   0  0  0  0  0  0  0  0  0  0  0  0
    1.1296   -0.4696    0.0739 C   0  0  0  0  0  0  0  0  0  0  0  0
    2.3983   -1.0872    0.3903 C   0  0  0  0  0  0  0  0  0  0  0  0
    0.1175   -0.2517    1.1961 C   0  0  0  0  0  0  0  0  0  0  0  0
   -0.4220    0.8064    0.2234 C   0  0  0  0  0  0  0  0  0  0  0  0
   -1.1921    1.9020    0.7533 C   0  0  0  0  0  0  0  0  0  0  0  0
    1.0616    1.0386   -0.0973 C   0  0  0  0  0  0  0  0  0  0  0  0
   -2.5875   -0.6495    0.2669 H   0  0  0  0  0  0  0  0  0  0  0  0
   -1.8714   -1.9380   -0.7711 H   0  0  0  0  0  0  0  0  0  0  0  0
   -2.8333   -0.6282   -1.5084 H   0  0  0  0  0  0  0  0  0  0  0  0
   -0.9864    0.6801   -1.8145 H   0  0  0  0  0  0  0  0  0  0  0  0
    0.0272   -1.9746   -1.0742 H   0  0  0  0  0  0  0  0  0  0  0  0
    0.8254   -0.6430   -2.0512 H   0  0  0  0  0  0  0  0  0  0  0  0
    2.6314   -0.9681    1.4690 H   0  0  0  0  0  0  0  0  0  0  0  0
    3.2268   -0.5739   -0.1796 H   0  0  0  0  0  0  0  0  0  0  0  0
    2.4053   -2.1508    0.0954 H   0  0  0  0  0  0  0  0  0  0  0  0
    0.6229    0.1738    2.0775 H   0  0  0  0  0  0  0  0  0  0  0  0
   -0.5677   -1.0872    1.3640 H   0  0  0  0  0  0  0  0  0  0  0  0
   -0.8640    2.9070    0.3792 H   0  0  0  0  0  0  0  0  0  0  0  0
   -1.0850    1.9534    1.8763 H   0  0  0  0  0  0  0  0  0  0  0  0
   -2.2606    1.8210    0.4803 H   0  0  0  0  0  0  0  0  0  0  0  0
    1.6056    1.5272    0.7182 H   0  0  0  0  0  0  0  0  0  0  0  0
    1.2583    1.3653   -1.1173 H   0  0  0  0  0  0  0  0  0  0  0  0
  1  2  1  0
  2  3  1  0
  3  4  1  0
  4  5  1  0
  4  6  1  0
  6  7  1  0
  7  8  1  0
  7  9  1  0
  7  2  1  0
  9  4  1  0
  1 10  1  0
  1 11  1  0
  1 12  1  0
  2 13  1  0
  3 14  1  0
  3 15  1  0
  5 16  1  0
  5 17  1  0
  5 18  1  0
  6 19  1  0
  6 20  1  0
  8 21  1  0
  8 22  1  0
  8 23  1  0
  9 24  1  0
  9 25  1  0
M  END
