
     RDKit          3D

 22 23  0  0  0  0  0  0  0  0999 V2000
    2.2110    0.0432   -0.4643 C   0  0  0  0  0  0  0  0  0  0  0  0
    1.0776    0.2092    0.5339 C   0  0  0  0  0  0  0  0  0  0  0  0
    0.3574   -1.0818    0.7622 C   0  0  0  0  0  0  0  0  0  0  0  0
   -0.9641   -1.1462    0.0502 C   0  0  0  0  0  0  0  0  0  0  0  0
   -1.8444   -0.0514    0.6709 C   0  0  0  0  0  0  0  0  0  0  0  0
   -1.1869    0.8946   -0.2993 C   0  0  0  0  0  0  0  0  0  0  0  0
    0.1710    1.3451    0.1384 C   0  0  0  0  0  0  0  0  0  0  0  0
   -0.9907   -0.3199   -1.2168 C   0  0  0  0  0  0  0  0  0  0  0  0
    2.1818    0.9302   -1.1430 H   0  0  0  0  0  0  0  0  0  0  0  0
    3.2009    0.0429    0.0034 H   0  0  0  0  0  0  0  0  0  0  0  0
    2.1266   -0.9173   -1.0282 H   0  0  0  0  0  0  0  0  0  0  0  0
    1.5791    0.5350    1.4926 H   0  0  0  0  0  0  0  0  0  0  0  0
    0.9743   -1.9735    0.5410 H   0  0  0  0  0  0  0  0  0  0  0  0
    0.1210   -1.1446    1.8656 H   0  0  0  0  0  0  0  0  0  0  0  0
   -1.4122   -2.1323    0.0063 H   0  0  0  0  0  0  0  0  0  0  0  0
   -1.6400    0.1156    1.7322 H   0  0  0  0  0  0  0  0  0  0  0  0
   -2.8961   -0.2146    0.3961 H   0  0  0  0  0  0  0  0  0  0  0  0
   -1.7872    1.6962   -0.7078 H   0  0  0  0  0  0  0  0  0  0  0  0
    0.0328    2.0885    0.9571 H   0  0  0  0  0  0  0  0  0  0  0  0
    0.6351    1.8811   -0.7233 H   0  0  0  0  0  0  0  0  0  0  0  0
   -0.0532   -0.2323   -1.7643 H   0  0  0  0  0  0  0  0  0  0  0  0
   -1.8936   -0.5678   -1.8026 H   0  0  0  0  0  0  0  0  0  0  0  0
  1  2  1  0
  2  3  1  0
  3  4  1  0
  4  5  1  0
  5  6  1  0
  6  7  1  0
  6  8  1  0
  7  2  1  0
  8  4  1  0
  1  9  1  0
  1 10  1  0
  1 11  1  0
  2 12  1  0
  3 13  1  0
  3 14  1  0
  4 15  1  0
  5 16  1  0
  5 17  1  0
  6 18  1  0
  7 19  1  0
  7 20  1  0
  8 21  1  0
  8 22  1  0
M  END
