
     RDKit          3D

 16 17  0  0  0  0  0  0  0  0999 V2000
    1.7322   -0.5959    0.0405 C   0  0  0  0  0  0  0  0  0  0  0  0
    0.6408    0.3041   -0.4009 C   0  0  0  0  0  0  0  0  0  0  0  0
   -0.5616   -0.3946   -1.0549 C   0  0  0  0  0  0  0  0  0  0  0  0
   -0.9693   -0.7548    0.3513 C   0  0  0  0  0  0  0  0  0  0  0  0
   -0.4096    0.6453    0.6493 C   0  0  0  0  0  0  0  0  0  0  0  0
   -1.3312    1.4655   -0.1461 C   0  0  0  0  0  0  0  0  0  0  0  0
   -1.9143    2.5371    0.1442 O   0  0  0  0  0  0  0  0  0  0  0  0
   -1.3913    0.7175   -1.3487 O   0  0  0  0  0  0  0  0  0  0  0  0
    1.7134   -1.6102   -0.4233 H   0  0  0  0  0  0  0  0  0  0  0  0
    1.7895   -0.7476    1.1337 H   0  0  0  0  0  0  0  0  0  0  0  0
    2.7311   -0.1608   -0.2516 H   0  0  0  0  0  0  0  0  0  0  0  0
    0.9159    1.1630   -1.0544 H   0  0  0  0  0  0  0  0  0  0  0  0
   -0.3799   -1.1367   -1.7742 H   0  0  0  0  0  0  0  0  0  0  0  0
   -0.3828   -1.5546    0.8138 H   0  0  0  0  0  0  0  0  0  0  0  0
   -2.0586   -0.7612    0.5178 H   0  0  0  0  0  0  0  0  0  0  0  0
   -0.1242    0.8839    1.6219 H   0  0  0  0  0  0  0  0  0  0  0  0
  1  2  1  0
  2  3  1  0
  3  4  1  0
  4  5  1  0
  5  6  1  0
  6  7  2  0
  6  8  1  0
  5  2  1  0
  8  3  1  0
  1  9  1  0
  1 10  1  0
  1 11  1  0
  2 12  1  0
  3 13  1  0
  4 14  1  0
  4 15  1  0
  5 16  1  0
M  END
