
     RDKit          3D

 23 24  0  0  0  0  0  0  0  0999 V2000
   -2.4464    1.0194   -0.7010 C   0  0  0  0  0  0  0  0  0  0  0  0
   -1.2602    0.5530    0.1248 C   0  0  0  0  0  0  0  0  0  0  0  0
   -1.4858   -0.8012    0.7397 C   0  0  0  0  0  0  0  0  0  0  0  0
   -0.0643   -1.3023    0.9819 C   0  0  0  0  0  0  0  0  0  0  0  0
    0.7198   -0.7463   -0.1584 C   0  0  0  0  0  0  0  0  0  0  0  0
   -0.1282    0.2682   -0.8499 C   0  0  0  0  0  0  0  0  0  0  0  0
    1.6525   -1.4908   -0.8332 O   0  0  0  0  0  0  0  0  0  0  0  0
    2.1693   -0.5597    0.0421 C   0  0  0  0  0  0  0  0  0  0  0  0
    2.7523    0.7287   -0.4536 C   0  0  0  0  0  0  0  0  0  0  0  0
   -2.7321    2.0614   -0.4877 H   0  0  0  0  0  0  0  0  0  0  0  0
   -2.2882    0.8283   -1.7948 H   0  0  0  0  0  0  0  0  0  0  0  0
   -3.3158    0.3740   -0.4245 H   0  0  0  0  0  0  0  0  0  0  0  0
   -0.9662    1.2738    0.8982 H   0  0  0  0  0  0  0  0  0  0  0  0
   -2.0666   -0.7487    1.6763 H   0  0  0  0  0  0  0  0  0  0  0  0
   -1.9213   -1.4719   -0.0221 H   0  0  0  0  0  0  0  0  0  0  0  0
    0.3414   -0.8293    1.9195 H   0  0  0  0  0  0  0  0  0  0  0  0
   -0.0158   -2.3964    1.0488 H   0  0  0  0  0  0  0  0  0  0  0  0
    0.3991    1.1730   -1.1714 H   0  0  0  0  0  0  0  0  0  0  0  0
   -0.6117   -0.2454   -1.7250 H   0  0  0  0  0  0  0  0  0  0  0  0
    2.6249   -1.0032    0.9499 H   0  0  0  0  0  0  0  0  0  0  0  0
    2.0917    1.5618   -0.1002 H   0  0  0  0  0  0  0  0  0  0  0  0
    3.7579    0.9364   -0.0597 H   0  0  0  0  0  0  0  0  0  0  0  0
    2.7936    0.8174   -1.5471 H   0  0  0  0  0  0  0  0  0  0  0  0
  1  2  1  0
  2  3  1  0
  3  4  1  0
  4  5  1  0
  5  6  1  0
  5  7  1  0
  7  8  1  0
  8  9  1  0
  6  2  1  0
  8  5  1  0
  1 10  1  0
  1 11  1  0
  1 12  1  0
  2 13  1  0
  3 14  1  0
  3 15  1  0
  4 16  1  0
  4 17  1  0
  6 18  1  0
  6 19  1  0
  8 20  1  0
  9 21  1  0
  9 22  1  0
  9 23  1  0
M  END
