
     RDKit          3D

 21 22  0  0  0  0  0  0  0  0999 V2000
   -2.2081    0.2969    0.3074 C   0  0  0  0  0  0  0  0  0  0  0  0
   -0.8256    0.6817    0.6709 C   0  0  0  0  0  0  0  0  0  0  0  0
    0.1576   -0.4266    0.9255 C   0  0  0  0  0  0  0  0  0  0  0  0
   -0.3215   -1.6872    0.1900 C   0  0  0  0  0  0  0  0  0  0  0  0
    1.2325    0.2366    0.1331 C   0  0  0  0  0  0  0  0  0  0  0  0
    2.0252   -0.6279   -0.7350 C   0  0  0  0  0  0  0  0  0  0  0  0
    3.2545   -0.6499   -0.5823 O   0  0  0  0  0  0  0  0  0  0  0  0
    1.3405    1.6891   -0.0590 C   0  0  0  0  0  0  0  0  0  0  0  0
    0.0853    1.0704   -0.4936 C   0  0  0  0  0  0  0  0  0  0  0  0
   -2.8670    1.2004    0.4652 H   0  0  0  0  0  0  0  0  0  0  0  0
   -2.3448   -0.1398   -0.6837 H   0  0  0  0  0  0  0  0  0  0  0  0
   -2.5799   -0.4358    1.0824 H   0  0  0  0  0  0  0  0  0  0  0  0
   -0.7836    1.4343    1.4708 H   0  0  0  0  0  0  0  0  0  0  0  0
    0.3695   -0.6492    1.9833 H   0  0  0  0  0  0  0  0  0  0  0  0
   -0.3065   -1.4315   -0.9088 H   0  0  0  0  0  0  0  0  0  0  0  0
    0.3463   -2.5384    0.3589 H   0  0  0  0  0  0  0  0  0  0  0  0
   -1.3583   -1.9366    0.4360 H   0  0  0  0  0  0  0  0  0  0  0  0
    1.6537   -1.2719   -1.5207 H   0  0  0  0  0  0  0  0  0  0  0  0
    1.2509    2.3954    0.8134 H   0  0  0  0  0  0  0  0  0  0  0  0
    2.0238    2.0456   -0.8252 H   0  0  0  0  0  0  0  0  0  0  0  0
   -0.1447    0.7443   -1.4989 H   0  0  0  0  0  0  0  0  0  0  0  0
  1  2  1  0
  2  3  1  0
  3  4  1  0
  3  5  1  0
  5  6  1  0
  6  7  2  0
  5  8  1  0
  8  9  1  0
  9  2  1  0
  9  5  1  0
  1 10  1  0
  1 11  1  0
  1 12  1  0
  2 13  1  0
  3 14  1  0
  4 15  1  0
  4 16  1  0
  4 17  1  0
  6 18  1  0
  8 19  1  0
  8 20  1  0
  9 21  1  0
M  END
