
     RDKit          3D

 17 18  0  0  0  0  0  0  0  0999 V2000
    1.9631   -0.0598   -0.1020 C   0  0  0  0  0  0  0  0  0  0  0  0
    0.6000   -0.4227    0.4203 C   0  0  0  0  0  0  0  0  0  0  0  0
   -0.1419    0.8232    0.9370 C   0  0  0  0  0  0  0  0  0  0  0  0
   -1.2324    0.8314   -0.1268 C   0  0  0  0  0  0  0  0  0  0  0  0
   -1.6968   -0.5778   -0.2699 C   0  0  0  0  0  0  0  0  0  0  0  0
   -0.2921   -0.7021   -0.7689 C   0  0  0  0  0  0  0  0  0  0  0  0
   -0.4488    0.6064   -1.2843 O   0  0  0  0  0  0  0  0  0  0  0  0
    1.9008    0.6521   -0.9419 H   0  0  0  0  0  0  0  0  0  0  0  0
    2.6546    0.2790    0.6972 H   0  0  0  0  0  0  0  0  0  0  0  0
    2.4033   -0.9918   -0.5134 H   0  0  0  0  0  0  0  0  0  0  0  0
    0.6408   -1.2191    1.1523 H   0  0  0  0  0  0  0  0  0  0  0  0
   -0.5313    0.6666    1.9448 H   0  0  0  0  0  0  0  0  0  0  0  0
    0.4722    1.7224    0.8448 H   0  0  0  0  0  0  0  0  0  0  0  0
   -1.9177    1.6427   -0.1457 H   0  0  0  0  0  0  0  0  0  0  0  0
   -2.4242   -0.6816   -1.0732 H   0  0  0  0  0  0  0  0  0  0  0  0
   -1.9250   -1.0966    0.6822 H   0  0  0  0  0  0  0  0  0  0  0  0
   -0.0246   -1.4722   -1.4523 H   0  0  0  0  0  0  0  0  0  0  0  0
  1  2  1  0
  2  3  1  0
  3  4  1  0
  4  5  1  0
  5  6  1  0
  6  7  1  0
  6  2  1  0
  7  4  1  0
  1  8  1  0
  1  9  1  0
  1 10  1  0
  2 11  1  0
  3 12  1  0
  3 13  1  0
  4 14  1  0
  5 15  1  0
  5 16  1  0
  6 17  1  0
M  END
