
     RDKit          3D

 20 21  0  0  0  0  0  0  0  0999 V2000
    1.7114   -0.9315   -0.5205 C   0  0  0  0  0  0  0  0  0  0  0  0
    0.8530    0.2602   -0.2659 C   0  0  0  0  0  0  0  0  0  0  0  0
    0.7741    0.6014    1.2365 C   0  0  0  0  0  0  0  0  0  0  0  0
   -0.5742    0.3245    1.5987 O   0  0  0  0  0  0  0  0  0  0  0  0
   -0.7879   -0.7706    0.8122 C   0  0  0  0  0  0  0  0  0  0  0  0
   -1.4778   -1.0026   -0.3912 C   0  0  0  0  0  0  0  0  0  0  0  0
   -0.5898    0.0742   -0.5178 C   0  0  0  0  0  0  0  0  0  0  0  0
   -1.2794    1.4597   -0.5004 C   0  0  0  0  0  0  0  0  0  0  0  0
    1.9618   -1.5220    0.3762 H   0  0  0  0  0  0  0  0  0  0  0  0
    2.7006   -0.6098   -0.9536 H   0  0  0  0  0  0  0  0  0  0  0  0
    1.2681   -1.5816   -1.3319 H   0  0  0  0  0  0  0  0  0  0  0  0
    1.2597    1.1276   -0.7885 H   0  0  0  0  0  0  0  0  0  0  0  0
    1.4411   -0.0538    1.7961 H   0  0  0  0  0  0  0  0  0  0  0  0
    1.0023    1.6541    1.4199 H   0  0  0  0  0  0  0  0  0  0  0  0
    0.0333   -1.5186    1.0416 H   0  0  0  0  0  0  0  0  0  0  0  0
   -2.5892   -0.8416   -0.3855 H   0  0  0  0  0  0  0  0  0  0  0  0
   -1.2674   -1.9345   -0.9861 H   0  0  0  0  0  0  0  0  0  0  0  0
   -1.6554    1.6978    0.5019 H   0  0  0  0  0  0  0  0  0  0  0  0
   -0.6472    2.2357   -0.9158 H   0  0  0  0  0  0  0  0  0  0  0  0
   -2.1371    1.3314   -1.2260 H   0  0  0  0  0  0  0  0  0  0  0  0
  1  2  1  0
  2  3  1  0
  3  4  1  0
  4  5  1  0
  5  6  1  0
  6  7  1  0
  7  8  1  0
  7  2  1  0
  7  5  1  0
  1  9  1  0
  1 10  1  0
  1 11  1  0
  2 12  1  0
  3 13  1  0
  3 14  1  0
  5 15  1  0
  6 16  1  0
  6 17  1  0
  8 18  1  0
  8 19  1  0
  8 20  1  0
M  END
