
     RDKit          3D

 20 21  0  0  0  0  0  0  0  0999 V2000
    1.4990   -1.2021   -0.2183 C   0  0  0  0  0  0  0  0  0  0  0  0
    0.8021    0.0555   -0.5496 C   0  0  0  0  0  0  0  0  0  0  0  0
    1.2045    1.2384    0.3074 C   0  0  0  0  0  0  0  0  0  0  0  0
    0.1498    2.1159    0.3301 O   0  0  0  0  0  0  0  0  0  0  0  0
   -0.9384    1.5279   -0.2814 C   0  0  0  0  0  0  0  0  0  0  0  0
   -0.6664    0.0726   -0.2532 C   0  0  0  0  0  0  0  0  0  0  0  0
   -1.5726   -1.0159   -0.3455 C   0  0  0  0  0  0  0  0  0  0  0  0
   -1.1322   -0.6183    1.0289 C   0  0  0  0  0  0  0  0  0  0  0  0
    1.8843   -1.6448   -1.1807 H   0  0  0  0  0  0  0  0  0  0  0  0
    2.4102   -1.0055    0.3860 H   0  0  0  0  0  0  0  0  0  0  0  0
    0.9067   -1.9830    0.2577 H   0  0  0  0  0  0  0  0  0  0  0  0
    0.9538    0.3646   -1.6022 H   0  0  0  0  0  0  0  0  0  0  0  0
    1.3114    0.8328    1.3549 H   0  0  0  0  0  0  0  0  0  0  0  0
    2.1605    1.6763    0.0141 H   0  0  0  0  0  0  0  0  0  0  0  0
   -1.9114    1.8241    0.1538 H   0  0  0  0  0  0  0  0  0  0  0  0
   -0.9158    1.8651   -1.3565 H   0  0  0  0  0  0  0  0  0  0  0  0
   -2.6432   -0.8301   -0.5613 H   0  0  0  0  0  0  0  0  0  0  0  0
   -1.2240   -1.9857   -0.7630 H   0  0  0  0  0  0  0  0  0  0  0  0
   -0.4186   -1.2159    1.6053 H   0  0  0  0  0  0  0  0  0  0  0  0
   -1.8596   -0.0717    1.6735 H   0  0  0  0  0  0  0  0  0  0  0  0
  1  2  1  0
  2  3  1  0
  3  4  1  0
  4  5  1  0
  5  6  1  0
  6  7  1  0
  7  8  1  0
  6  2  1  0
  8  6  1  0
  1  9  1  0
  1 10  1  0
  1 11  1  0
  2 12  1  0
  3 13  1  0
  3 14  1  0
  5 15  1  0
  5 16  1  0
  7 17  1  0
  7 18  1  0
  8 19  1  0
  8 20  1  0
M  END
