
     RDKit          3D

 23 24  0  0  0  0  0  0  0  0999 V2000
    1.3628    1.6101    0.4113 C   0  0  0  0  0  0  0  0  0  0  0  0
    1.2693    0.4840   -0.5554 C   0  0  0  0  0  0  0  0  0  0  0  0
    2.1154   -0.7106   -0.0983 C   0  0  0  0  0  0  0  0  0  0  0  0
    1.2129   -1.3071    0.8095 O   0  0  0  0  0  0  0  0  0  0  0  0
    0.1138   -1.5013   -0.0587 C   0  0  0  0  0  0  0  0  0  0  0  0
   -1.2251   -1.3340    0.5845 C   0  0  0  0  0  0  0  0  0  0  0  0
   -1.1000    0.1744    0.3448 C   0  0  0  0  0  0  0  0  0  0  0  0
   -2.4159    0.7074   -0.1625 C   0  0  0  0  0  0  0  0  0  0  0  0
   -0.0772   -0.1261   -0.6955 C   0  0  0  0  0  0  0  0  0  0  0  0
    1.7381    1.2375    1.4021 H   0  0  0  0  0  0  0  0  0  0  0  0
    2.1540    2.3359    0.0749 H   0  0  0  0  0  0  0  0  0  0  0  0
    0.4402    2.2060    0.5067 H   0  0  0  0  0  0  0  0  0  0  0  0
    1.7227    0.8010   -1.5248 H   0  0  0  0  0  0  0  0  0  0  0  0
    2.2251   -1.4396   -0.9231 H   0  0  0  0  0  0  0  0  0  0  0  0
    3.0488   -0.4076    0.3701 H   0  0  0  0  0  0  0  0  0  0  0  0
    0.2382   -2.3291   -0.7665 H   0  0  0  0  0  0  0  0  0  0  0  0
   -1.3254   -1.6259    1.6356 H   0  0  0  0  0  0  0  0  0  0  0  0
   -2.0128   -1.7930   -0.0603 H   0  0  0  0  0  0  0  0  0  0  0  0
   -0.6932    0.6583    1.2468 H   0  0  0  0  0  0  0  0  0  0  0  0
   -2.3423    1.1519   -1.1705 H   0  0  0  0  0  0  0  0  0  0  0  0
   -3.2011   -0.0842   -0.2351 H   0  0  0  0  0  0  0  0  0  0  0  0
   -2.8106    1.4313    0.5962 H   0  0  0  0  0  0  0  0  0  0  0  0
   -0.4376   -0.1393   -1.7317 H   0  0  0  0  0  0  0  0  0  0  0  0
  1  2  1  0
  2  3  1  0
  3  4  1  0
  4  5  1  0
  5  6  1  0
  6  7  1  0
  7  8  1  0
  7  9  1  0
  9  2  1  0
  9  5  1  0
  1 10  1  0
  1 11  1  0
  1 12  1  0
  2 13  1  0
  3 14  1  0
  3 15  1  0
  5 16  1  0
  6 17  1  0
  6 18  1  0
  7 19  1  0
  8 20  1  0
  8 21  1  0
  8 22  1  0
  9 23  1  0
M  END
