
     RDKit          3D

 17 17  0  0  0  0  0  0  0  0999 V2000
    1.8584   -0.0084    0.3145 C   0  0  0  0  0  0  0  0  0  0  0  0
    0.6564   -0.3105   -0.5339 C   0  0  0  0  0  0  0  0  0  0  0  0
    0.0328    0.9828   -0.8992 C   0  0  0  0  0  0  0  0  0  0  0  0
   -1.0029    1.2496   -0.1349 C   0  0  0  0  0  0  0  0  0  0  0  0
   -1.1847    0.1561    0.8316 C   0  0  0  0  0  0  0  0  0  0  0  0
   -0.4458   -1.0106    0.2261 C   0  0  0  0  0  0  0  0  0  0  0  0
   -1.2568   -1.7594   -0.6329 O   0  0  0  0  0  0  0  0  0  0  0  0
    2.6723    0.3090   -0.3781 H   0  0  0  0  0  0  0  0  0  0  0  0
    2.1825   -0.8593    0.9430 H   0  0  0  0  0  0  0  0  0  0  0  0
    1.6559    0.8706    0.9665 H   0  0  0  0  0  0  0  0  0  0  0  0
    0.8702   -0.8689   -1.4423 H   0  0  0  0  0  0  0  0  0  0  0  0
    0.4416    1.5831   -1.7150 H   0  0  0  0  0  0  0  0  0  0  0  0
   -1.6141    2.1695   -0.2404 H   0  0  0  0  0  0  0  0  0  0  0  0
   -0.6413    0.4285    1.7755 H   0  0  0  0  0  0  0  0  0  0  0  0
   -2.2467   -0.0712    1.0372 H   0  0  0  0  0  0  0  0  0  0  0  0
   -0.0841   -1.6708    1.0130 H   0  0  0  0  0  0  0  0  0  0  0  0
   -1.8936   -1.1901   -1.1308 H   0  0  0  0  0  0  0  0  0  0  0  0
  1  2  1  0
  2  3  1  0
  3  4  2  0
  4  5  1  0
  5  6  1  0
  6  7  1  0
  6  2  1  0
  1  8  1  0
  1  9  1  0
  1 10  1  0
  2 11  1  0
  3 12  1  0
  4 13  1  0
  5 14  1  0
  5 15  1  0
  6 16  1  0
  7 17  1  0
M  END
