
     RDKit          3D

 18 19  0  0  0  0  0  0  0  0999 V2000
    2.1618    0.7981    0.0687 C   0  0  0  0  0  0  0  0  0  0  0  0
    1.0527   -0.0860   -0.4345 C   0  0  0  0  0  0  0  0  0  0  0  0
    0.3504   -0.8367    0.6713 C   0  0  0  0  0  0  0  0  0  0  0  0
   -1.0155   -1.0600    0.0443 C   0  0  0  0  0  0  0  0  0  0  0  0
   -2.0101   -0.6209    0.8836 O   0  0  0  0  0  0  0  0  0  0  0  0
   -2.0019    0.6088    0.2538 C   0  0  0  0  0  0  0  0  0  0  0  0
   -1.1331    0.1167   -0.8742 C   0  0  0  0  0  0  0  0  0  0  0  0
    0.0895    0.7079   -1.0045 O   0  0  0  0  0  0  0  0  0  0  0  0
    1.9183    1.3111    1.0181 H   0  0  0  0  0  0  0  0  0  0  0  0
    3.1151    0.2463    0.1587 H   0  0  0  0  0  0  0  0  0  0  0  0
    2.3225    1.5786   -0.7319 H   0  0  0  0  0  0  0  0  0  0  0  0
    1.4657   -0.8464   -1.1263 H   0  0  0  0  0  0  0  0  0  0  0  0
    0.2983   -0.2839    1.6177 H   0  0  0  0  0  0  0  0  0  0  0  0
    0.8013   -1.8189    0.8897 H   0  0  0  0  0  0  0  0  0  0  0  0
   -1.1619   -2.0295   -0.4451 H   0  0  0  0  0  0  0  0  0  0  0  0
   -1.5521    1.4065    0.8782 H   0  0  0  0  0  0  0  0  0  0  0  0
   -3.0217    0.8849   -0.0520 H   0  0  0  0  0  0  0  0  0  0  0  0
   -1.6793   -0.0765   -1.8154 H   0  0  0  0  0  0  0  0  0  0  0  0
  1  2  1  0
  2  3  1  0
  3  4  1  0
  4  5  1  0
  5  6  1  0
  6  7  1  0
  7  8  1  0
  8  2  1  0
  7  4  1  0
  1  9  1  0
  1 10  1  0
  1 11  1  0
  2 12  1  0
  3 13  1  0
  3 14  1  0
  4 15  1  0
  6 16  1  0
  6 17  1  0
  7 18  1  0
M  END
