
     RDKit          3D

 17 19  0  0  0  0  0  0  0  0999 V2000
    2.4981   -0.7102   -0.3763 C   0  0  0  0  0  0  0  0  0  0  0  0
    1.1658   -0.3199    0.1518 C   0  0  0  0  0  0  0  0  0  0  0  0
    0.6861    1.0067   -0.4115 C   0  0  0  0  0  0  0  0  0  0  0  0
   -0.6167    0.9380   -0.4310 C   0  0  0  0  0  0  0  0  0  0  0  0
   -0.9524   -0.4403    0.1327 C   0  0  0  0  0  0  0  0  0  0  0  0
    0.1108   -1.1393   -0.3850 O   0  0  0  0  0  0  0  0  0  0  0  0
   -2.2850   -0.4183   -0.4777 C   0  0  0  0  0  0  0  0  0  0  0  0
   -2.6782    0.3326   -1.5700 O   0  0  0  0  0  0  0  0  0  0  0  0
   -2.0896    1.1046   -0.5632 C   0  0  0  0  0  0  0  0  0  0  0  0
    2.7314   -0.2612   -1.3633 H   0  0  0  0  0  0  0  0  0  0  0  0
    3.2666   -0.3899    0.3687 H   0  0  0  0  0  0  0  0  0  0  0  0
    2.5516   -1.8235   -0.3889 H   0  0  0  0  0  0  0  0  0  0  0  0
    1.1242   -0.2701    1.2331 H   0  0  0  0  0  0  0  0  0  0  0  0
    1.3133    1.8287   -0.7267 H   0  0  0  0  0  0  0  0  0  0  0  0
   -1.0042   -0.4165    1.2501 H   0  0  0  0  0  0  0  0  0  0  0  0
   -3.1554   -0.7584    0.1813 H   0  0  0  0  0  0  0  0  0  0  0  0
   -2.6664    1.7370    0.1011 H   0  0  0  0  0  0  0  0  0  0  0  0
  1  2  1  0
  2  3  1  0
  3  4  2  0
  4  5  1  0
  5  6  1  0
  5  7  1  0
  7  8  1  0
  8  9  1  0
  6  2  1  0
  9  7  1  0
  9  4  1  0
  1 10  1  0
  1 11  1  0
  1 12  1  0
  2 13  1  0
  3 14  1  0
  5 15  1  0
  7 16  1  0
  9 17  1  0
M  END
