
     RDKit          3D

 20 21  0  0  0  0  0  0  0  0999 V2000
    2.3498    0.3156    0.3641 C   0  0  0  0  0  0  0  0  0  0  0  0
    0.9745   -0.2819    0.3908 C   0  0  0  0  0  0  0  0  0  0  0  0
    0.6975   -1.2023   -0.7679 C   0  0  0  0  0  0  0  0  0  0  0  0
   -0.5375   -0.8965   -1.2328 O   0  0  0  0  0  0  0  0  0  0  0  0
   -1.1589    0.0196   -0.4536 C   0  0  0  0  0  0  0  0  0  0  0  0
   -2.4212   -0.3657    0.2458 C   0  0  0  0  0  0  0  0  0  0  0  0
   -0.7289    1.4147   -0.6561 C   0  0  0  0  0  0  0  0  0  0  0  0
   -0.1333    0.6856    0.4500 C   0  0  0  0  0  0  0  0  0  0  0  0
    2.5114    1.0381   -0.4400 H   0  0  0  0  0  0  0  0  0  0  0  0
    3.0740   -0.5435    0.3332 H   0  0  0  0  0  0  0  0  0  0  0  0
    2.5152    0.7808    1.3750 H   0  0  0  0  0  0  0  0  0  0  0  0
    0.9378   -0.9401    1.3096 H   0  0  0  0  0  0  0  0  0  0  0  0
    1.4705   -1.0040   -1.5536 H   0  0  0  0  0  0  0  0  0  0  0  0
    0.7829   -2.2743   -0.5045 H   0  0  0  0  0  0  0  0  0  0  0  0
   -3.3369    0.0393   -0.2197 H   0  0  0  0  0  0  0  0  0  0  0  0
   -2.5170   -1.4780    0.1895 H   0  0  0  0  0  0  0  0  0  0  0  0
   -2.3959   -0.1434    1.3522 H   0  0  0  0  0  0  0  0  0  0  0  0
   -1.4789    2.1869   -0.4167 H   0  0  0  0  0  0  0  0  0  0  0  0
   -0.1572    1.6738   -1.5910 H   0  0  0  0  0  0  0  0  0  0  0  0
   -0.4481    0.9755    1.4851 H   0  0  0  0  0  0  0  0  0  0  0  0
  1  2  1  0
  2  3  1  0
  3  4  1  0
  4  5  1  0
  5  6  1  0
  5  7  1  0
  7  8  1  0
  8  2  1  0
  8  5  1  0
  1  9  1  0
  1 10  1  0
  1 11  1  0
  2 12  1  0
  3 13  1  0
  3 14  1  0
  6 15  1  0
  6 16  1  0
  6 17  1  0
  7 18  1  0
  7 19  1  0
  8 20  1  0
M  END
