
     RDKit          3D

 21 23  0  0  0  0  0  0  0  0999 V2000
   -2.7805   -0.0542    0.5348 C   0  0  0  0  0  0  0  0  0  0  0  0
   -1.5188    0.3594   -0.1874 C   0  0  0  0  0  0  0  0  0  0  0  0
   -0.3828    0.4505    0.8440 C   0  0  0  0  0  0  0  0  0  0  0  0
    0.4165   -0.4124   -0.0811 C   0  0  0  0  0  0  0  0  0  0  0  0
   -0.7727   -0.8001   -0.8401 C   0  0  0  0  0  0  0  0  0  0  0  0
    1.2550   -1.3292    0.4384 O   0  0  0  0  0  0  0  0  0  0  0  0
    2.3951   -0.6978   -0.0159 C   0  0  0  0  0  0  0  0  0  0  0  0
    2.6334    0.7499    0.1951 C   0  0  0  0  0  0  0  0  0  0  0  0
    1.5320    0.2870   -0.7373 C   0  0  0  0  0  0  0  0  0  0  0  0
   -2.4902   -0.7540    1.3401 H   0  0  0  0  0  0  0  0  0  0  0  0
   -3.1839    0.8549    1.0189 H   0  0  0  0  0  0  0  0  0  0  0  0
   -3.5613   -0.4353   -0.1357 H   0  0  0  0  0  0  0  0  0  0  0  0
   -1.5933    1.2096   -0.8611 H   0  0  0  0  0  0  0  0  0  0  0  0
    0.0522    1.4518    0.9441 H   0  0  0  0  0  0  0  0  0  0  0  0
   -0.5902   -0.0428    1.7953 H   0  0  0  0  0  0  0  0  0  0  0  0
   -1.2483   -1.7715   -0.6637 H   0  0  0  0  0  0  0  0  0  0  0  0
   -0.6395   -0.6447   -1.9416 H   0  0  0  0  0  0  0  0  0  0  0  0
    3.1299   -1.2618   -0.6176 H   0  0  0  0  0  0  0  0  0  0  0  0
    3.4931    1.1801   -0.3215 H   0  0  0  0  0  0  0  0  0  0  0  0
    2.2179    1.2591    1.1072 H   0  0  0  0  0  0  0  0  0  0  0  0
    1.6366    0.4015   -1.8147 H   0  0  0  0  0  0  0  0  0  0  0  0
  1  2  1  0
  2  3  1  0
  3  4  1  0
  4  5  1  0
  4  6  1  0
  6  7  1  0
  7  8  1  0
  8  9  1  0
  5  2  1  0
  9  7  1  0
  9  4  1  0
  1 10  1  0
  1 11  1  0
  1 12  1  0
  2 13  1  0
  3 14  1  0
  3 15  1  0
  5 16  1  0
  5 17  1  0
  7 18  1  0
  8 19  1  0
  8 20  1  0
  9 21  1  0
M  END
