
     RDKit          3D

 21 22  0  0  0  0  0  0  0  0999 V2000
    1.5272   -0.9559   -1.0691 C   0  0  0  0  0  0  0  0  0  0  0  0
    1.1949    0.1235   -0.0955 C   0  0  0  0  0  0  0  0  0  0  0  0
    0.3233   -0.3522    1.0480 C   0  0  0  0  0  0  0  0  0  0  0  0
   -0.2104    0.9669    1.5315 C   0  0  0  0  0  0  0  0  0  0  0  0
   -0.4003    1.7217    0.4561 C   0  0  0  0  0  0  0  0  0  0  0  0
    0.2151    1.1126   -0.7477 C   0  0  0  0  0  0  0  0  0  0  0  0
   -0.7165    0.3277   -1.4201 O   0  0  0  0  0  0  0  0  0  0  0  0
   -1.5938   -0.1961   -0.4742 C   0  0  0  0  0  0  0  0  0  0  0  0
   -0.9006   -1.1023    0.5187 C   0  0  0  0  0  0  0  0  0  0  0  0
    2.3881   -0.5856   -1.6916 H   0  0  0  0  0  0  0  0  0  0  0  0
    1.8883   -1.8879   -0.5991 H   0  0  0  0  0  0  0  0  0  0  0  0
    0.6979   -1.1298   -1.7795 H   0  0  0  0  0  0  0  0  0  0  0  0
    2.0617    0.6198    0.3328 H   0  0  0  0  0  0  0  0  0  0  0  0
    0.8598   -0.9037    1.8157 H   0  0  0  0  0  0  0  0  0  0  0  0
   -0.3835    1.1935    2.5661 H   0  0  0  0  0  0  0  0  0  0  0  0
   -0.9312    2.6536    0.4580 H   0  0  0  0  0  0  0  0  0  0  0  0
    0.7359    1.8260   -1.3934 H   0  0  0  0  0  0  0  0  0  0  0  0
   -2.3903   -0.8138   -0.9632 H   0  0  0  0  0  0  0  0  0  0  0  0
   -2.1313    0.6337    0.0251 H   0  0  0  0  0  0  0  0  0  0  0  0
   -1.5845   -1.1909    1.4089 H   0  0  0  0  0  0  0  0  0  0  0  0
   -0.6498   -2.0607    0.0725 H   0  0  0  0  0  0  0  0  0  0  0  0
  1  2  1  0
  2  3  1  0
  3  4  1  0
  4  5  2  0
  5  6  1  0
  6  7  1  0
  7  8  1  0
  8  9  1  0
  6  2  1  0
  9  3  1  0
  1 10  1  0
  1 11  1  0
  1 12  1  0
  2 13  1  0
  3 14  1  0
  4 15  1  0
  5 16  1  0
  6 17  1  0
  8 18  1  0
  8 19  1  0
  9 20  1  0
  9 21  1  0
M  END
