
     RDKit          3D

 21 21  0  0  0  0  0  0  0  0999 V2000
   -1.6603   -0.4920   -1.2971 C   0  0  0  0  0  0  0  0  0  0  0  0
   -0.3050   -0.5754   -0.6051 C   0  0  0  0  0  0  0  0  0  0  0  0
   -0.6650   -1.0170    0.8291 C   0  0  0  0  0  0  0  0  0  0  0  0
   -1.2254    0.2649    1.3363 C   0  0  0  0  0  0  0  0  0  0  0  0
   -0.7068    1.2986    0.7005 C   0  0  0  0  0  0  0  0  0  0  0  0
    0.2554    0.7661   -0.2922 C   0  0  0  0  0  0  0  0  0  0  0  0
    1.5804    0.6343    0.4090 C   0  0  0  0  0  0  0  0  0  0  0  0
    2.6066   -0.0857   -0.3916 C   0  0  0  0  0  0  0  0  0  0  0  0
    2.5944   -1.2961   -0.4213 O   0  0  0  0  0  0  0  0  0  0  0  0
   -2.3090    0.1309   -0.6304 H   0  0  0  0  0  0  0  0  0  0  0  0
   -2.0945   -1.5217   -1.2315 H   0  0  0  0  0  0  0  0  0  0  0  0
   -1.5950   -0.1050   -2.3137 H   0  0  0  0  0  0  0  0  0  0  0  0
    0.3632   -1.2793   -1.0956 H   0  0  0  0  0  0  0  0  0  0  0  0
    0.2025   -1.3757    1.3782 H   0  0  0  0  0  0  0  0  0  0  0  0
   -1.4312   -1.7977    0.8174 H   0  0  0  0  0  0  0  0  0  0  0  0
   -1.9601    0.3393    2.1238 H   0  0  0  0  0  0  0  0  0  0  0  0
   -0.8938    2.3661    0.8184 H   0  0  0  0  0  0  0  0  0  0  0  0
    0.3859    1.4254   -1.1666 H   0  0  0  0  0  0  0  0  0  0  0  0
    1.4762    0.2136    1.4277 H   0  0  0  0  0  0  0  0  0  0  0  0
    1.9989    1.6703    0.5676 H   0  0  0  0  0  0  0  0  0  0  0  0
    3.3825    0.4361   -0.9629 H   0  0  0  0  0  0  0  0  0  0  0  0
  1  2  1  0
  2  3  1  0
  3  4  1  0
  4  5  2  0
  5  6  1  0
  6  7  1  0
  7  8  1  0
  8  9  2  0
  6  2  1  0
  1 10  1  0
  1 11  1  0
  1 12  1  0
  2 13  1  0
  3 14  1  0
  3 15  1  0
  4 16  1  0
  5 17  1  0
  6 18  1  0
  7 19  1  0
  7 20  1  0
  8 21  1  0
M  END
