
     RDKit          3D

 23 25  0  0  0  0  0  0  0  0999 V2000
    1.7304   -1.1254    0.7957 C   0  0  0  0  0  0  0  0  0  0  0  0
    0.9140   -0.0724    0.1008 C   0  0  0  0  0  0  0  0  0  0  0  0
    0.8710    1.2333    0.8463 C   0  0  0  0  0  0  0  0  0  0  0  0
   -0.4744    1.8255    0.4936 C   0  0  0  0  0  0  0  0  0  0  0  0
   -0.7223    1.9055   -1.0021 C   0  0  0  0  0  0  0  0  0  0  0  0
   -1.2844    0.8103   -0.1830 C   0  0  0  0  0  0  0  0  0  0  0  0
   -0.4880   -0.4757   -0.1795 C   0  0  0  0  0  0  0  0  0  0  0  0
   -1.0901   -1.7341    0.2526 C   0  0  0  0  0  0  0  0  0  0  0  0
   -0.7238   -1.5213   -1.1851 C   0  0  0  0  0  0  0  0  0  0  0  0
    1.1981   -1.6418    1.6027 H   0  0  0  0  0  0  0  0  0  0  0  0
    2.6894   -0.6840    1.1109 H   0  0  0  0  0  0  0  0  0  0  0  0
    1.9690   -1.9073    0.0222 H   0  0  0  0  0  0  0  0  0  0  0  0
    1.4222    0.1299   -0.8805 H   0  0  0  0  0  0  0  0  0  0  0  0
    1.6333    1.9526    0.4299 H   0  0  0  0  0  0  0  0  0  0  0  0
    1.0413    1.1345    1.9217 H   0  0  0  0  0  0  0  0  0  0  0  0
   -0.8749    2.6772    1.0491 H   0  0  0  0  0  0  0  0  0  0  0  0
    0.1238    1.7393   -1.6894 H   0  0  0  0  0  0  0  0  0  0  0  0
   -1.4573    2.6376   -1.3890 H   0  0  0  0  0  0  0  0  0  0  0  0
   -2.3522    0.7554    0.0595 H   0  0  0  0  0  0  0  0  0  0  0  0
   -2.1927   -1.7186    0.4400 H   0  0  0  0  0  0  0  0  0  0  0  0
   -0.5693   -2.5041    0.8398 H   0  0  0  0  0  0  0  0  0  0  0  0
    0.1571   -2.1066   -1.5164 H   0  0  0  0  0  0  0  0  0  0  0  0
   -1.5200   -1.3098   -1.9399 H   0  0  0  0  0  0  0  0  0  0  0  0
  1  2  1  0
  2  3  1  0
  3  4  1  0
  4  5  1  0
  5  6  1  0
  6  7  1  0
  7  8  1  0
  8  9  1  0
  7  2  1  0
  6  4  1  0
  9  7  1  0
  1 10  1  0
  1 11  1  0
  1 12  1  0
  2 13  1  0
  3 14  1  0
  3 15  1  0
  4 16  1  0
  5 17  1  0
  5 18  1  0
  6 19  1  0
  8 20  1  0
  8 21  1  0
  9 22  1  0
  9 23  1  0
M  END
