
     RDKit          3D

 21 21  0  0  0  0  0  0  0  0999 V2000
    2.5037   -0.5889   -0.2312 C   0  0  0  0  0  0  0  0  0  0  0  0
    1.0657   -0.4525    0.1812 C   0  0  0  0  0  0  0  0  0  0  0  0
    0.6801    0.9706    0.3392 C   0  0  0  0  0  0  0  0  0  0  0  0
   -0.5873    1.1374    0.0035 C   0  0  0  0  0  0  0  0  0  0  0  0
   -1.2867    2.4085    0.0423 C   0  0  0  0  0  0  0  0  0  0  0  0
   -2.5001    2.4679   -0.2982 O   0  0  0  0  0  0  0  0  0  0  0  0
   -1.1718   -0.1782   -0.4202 C   0  0  0  0  0  0  0  0  0  0  0  0
   -1.6840   -0.9615    0.7729 C   0  0  0  0  0  0  0  0  0  0  0  0
    0.1022   -0.9079   -0.8781 C   0  0  0  0  0  0  0  0  0  0  0  0
    2.8184   -1.6268   -0.1536 H   0  0  0  0  0  0  0  0  0  0  0  0
    3.1085    0.0245    0.4736 H   0  0  0  0  0  0  0  0  0  0  0  0
    2.5951   -0.2212   -1.2614 H   0  0  0  0  0  0  0  0  0  0  0  0
    0.8266   -0.9680    1.1291 H   0  0  0  0  0  0  0  0  0  0  0  0
    1.3361    1.7599    0.6790 H   0  0  0  0  0  0  0  0  0  0  0  0
   -0.8268    3.3356    0.3517 H   0  0  0  0  0  0  0  0  0  0  0  0
   -1.8983   -0.0773   -1.2249 H   0  0  0  0  0  0  0  0  0  0  0  0
   -2.7888   -1.0171    0.7301 H   0  0  0  0  0  0  0  0  0  0  0  0
   -1.3111   -0.4915    1.7055 H   0  0  0  0  0  0  0  0  0  0  0  0
   -1.3027   -2.0037    0.7777 H   0  0  0  0  0  0  0  0  0  0  0  0
   -0.0592   -1.9999   -0.8258 H   0  0  0  0  0  0  0  0  0  0  0  0
    0.3806   -0.6101   -1.8924 H   0  0  0  0  0  0  0  0  0  0  0  0
  1  2  1  0
  2  3  1  0
  3  4  2  0
  4  5  1  0
  5  6  2  0
  4  7  1  0
  7  8  1  0
  7  9  1  0
  9  2  1  0
  1 10  1  0
  1 11  1  0
  1 12  1  0
  2 13  1  0
  3 14  1  0
  5 15  1  0
  7 16  1  0
  8 17  1  0
  8 18  1  0
  8 19  1  0
  9 20  1  0
  9 21  1  0
M  END
