
     RDKit          3D

 19 21  0  0  0  0  0  0  0  0999 V2000
   -2.2049    0.0727   -0.6443 C   0  0  0  0  0  0  0  0  0  0  0  0
   -0.9559   -0.3730    0.0472 C   0  0  0  0  0  0  0  0  0  0  0  0
    0.1203   -0.8375   -0.9465 C   0  0  0  0  0  0  0  0  0  0  0  0
    0.9387   -1.7438   -0.3429 O   0  0  0  0  0  0  0  0  0  0  0  0
    1.8191   -1.1236    0.4916 C   0  0  0  0  0  0  0  0  0  0  0  0
    1.4445    0.3621    0.5324 C   0  0  0  0  0  0  0  0  0  0  0  0
    0.7648    0.4985   -0.7627 C   0  0  0  0  0  0  0  0  0  0  0  0
    0.0021    0.7195    0.4498 C   0  0  0  0  0  0  0  0  0  0  0  0
   -0.4307    1.9416    0.8609 O   0  0  0  0  0  0  0  0  0  0  0  0
   -2.1021   -0.0745   -1.7305 H   0  0  0  0  0  0  0  0  0  0  0  0
   -2.3970    1.1240   -0.3942 H   0  0  0  0  0  0  0  0  0  0  0  0
   -3.1130   -0.4986   -0.3048 H   0  0  0  0  0  0  0  0  0  0  0  0
   -1.1507   -1.1038    0.8548 H   0  0  0  0  0  0  0  0  0  0  0  0
   -0.2875   -1.0599   -1.9261 H   0  0  0  0  0  0  0  0  0  0  0  0
    1.7824   -1.5823    1.4930 H   0  0  0  0  0  0  0  0  0  0  0  0
    2.8437   -1.2241    0.0371 H   0  0  0  0  0  0  0  0  0  0  0  0
    2.1789    1.0620    0.9183 H   0  0  0  0  0  0  0  0  0  0  0  0
    0.9957    1.1788   -1.5454 H   0  0  0  0  0  0  0  0  0  0  0  0
   -0.2484    2.6617    0.1900 H   0  0  0  0  0  0  0  0  0  0  0  0
  1  2  1  0
  2  3  1  0
  3  4  1  0
  4  5  1  0
  5  6  1  0
  6  7  1  0
  7  8  1  0
  8  9  1  0
  8  2  1  0
  7  3  1  0
  8  6  1  0
  1 10  1  0
  1 11  1  0
  1 12  1  0
  2 13  1  0
  3 14  1  0
  5 15  1  0
  5 16  1  0
  6 17  1  0
  7 18  1  0
  9 19  1  0
M  END
