
     RDKit          3D

 23 23  0  0  0  0  0  0  0  0999 V2000
   -2.0189   -1.0345    0.4782 C   0  0  0  0  0  0  0  0  0  0  0  0
   -0.7780   -0.3543    0.9496 C   0  0  0  0  0  0  0  0  0  0  0  0
    0.4846   -1.1686    0.7479 C   0  0  0  0  0  0  0  0  0  0  0  0
    1.1556    0.1258    0.2825 C   0  0  0  0  0  0  0  0  0  0  0  0
    2.0328   -0.1227   -0.8933 C   0  0  0  0  0  0  0  0  0  0  0  0
    1.8293    0.6829    1.3527 O   0  0  0  0  0  0  0  0  0  0  0  0
   -0.1934    0.6911    0.0426 C   0  0  0  0  0  0  0  0  0  0  0  0
   -0.7061    0.7125   -1.3592 C   0  0  0  0  0  0  0  0  0  0  0  0
   -0.2985    1.9835    0.6015 O   0  0  0  0  0  0  0  0  0  0  0  0
   -2.2433   -1.8622    1.1776 H   0  0  0  0  0  0  0  0  0  0  0  0
   -1.9302   -1.4115   -0.5601 H   0  0  0  0  0  0  0  0  0  0  0  0
   -2.8610   -0.3031    0.5866 H   0  0  0  0  0  0  0  0  0  0  0  0
   -0.8859    0.0019    1.9843 H   0  0  0  0  0  0  0  0  0  0  0  0
    0.4302   -1.9575   -0.0140 H   0  0  0  0  0  0  0  0  0  0  0  0
    0.9034   -1.5788    1.6881 H   0  0  0  0  0  0  0  0  0  0  0  0
    2.9101   -0.7350   -0.5304 H   0  0  0  0  0  0  0  0  0  0  0  0
    1.5497   -0.7492   -1.6675 H   0  0  0  0  0  0  0  0  0  0  0  0
    2.3961    0.7874   -1.3808 H   0  0  0  0  0  0  0  0  0  0  0  0
    2.0618    1.6241    1.2408 H   0  0  0  0  0  0  0  0  0  0  0  0
   -0.1595    1.4648   -1.9336 H   0  0  0  0  0  0  0  0  0  0  0  0
   -1.7720    1.0836   -1.3056 H   0  0  0  0  0  0  0  0  0  0  0  0
   -0.7135   -0.2457   -1.8700 H   0  0  0  0  0  0  0  0  0  0  0  0
   -1.1931    2.3656    0.3823 H   0  0  0  0  0  0  0  0  0  0  0  0
  1  2  1  0
  2  3  1  0
  3  4  1  0
  4  5  1  0
  4  6  1  0
  4  7  1  0
  7  8  1  0
  7  9  1  0
  7  2  1  0
  1 10  1  0
  1 11  1  0
  1 12  1  0
  2 13  1  0
  3 14  1  0
  3 15  1  0
  5 16  1  0
  5 17  1  0
  5 18  1  0
  6 19  1  0
  8 20  1  0
  8 21  1  0
  8 22  1  0
  9 23  1  0
M  END
