
     RDKit          3D

 25 26  0  0  0  0  0  0  0  0999 V2000
    2.2500   -0.8713    0.7751 C   0  0  0  0  0  0  0  0  0  0  0  0
    0.7891   -0.6247    0.7122 C   0  0  0  0  0  0  0  0  0  0  0  0
    0.0334   -1.2286   -0.4344 C   0  0  0  0  0  0  0  0  0  0  0  0
    0.7609   -0.2352   -1.3010 C   0  0  0  0  0  0  0  0  0  0  0  0
    0.3439    0.5747   -0.1101 C   0  0  0  0  0  0  0  0  0  0  0  0
    0.5739    1.8878    0.1620 C   0  0  0  0  0  0  0  0  0  0  0  0
   -0.9766   -0.1488   -0.1891 C   0  0  0  0  0  0  0  0  0  0  0  0
   -1.8921    0.2102   -1.2855 C   0  0  0  0  0  0  0  0  0  0  0  0
   -1.6989   -0.3217    1.1262 C   0  0  0  0  0  0  0  0  0  0  0  0
    2.4760   -1.3570    1.7702 H   0  0  0  0  0  0  0  0  0  0  0  0
    2.6221   -1.6163    0.0228 H   0  0  0  0  0  0  0  0  0  0  0  0
    2.8747    0.0557    0.7775 H   0  0  0  0  0  0  0  0  0  0  0  0
    0.3007   -0.6125    1.6881 H   0  0  0  0  0  0  0  0  0  0  0  0
   -0.1292   -2.1966   -0.6237 H   0  0  0  0  0  0  0  0  0  0  0  0
    0.3163    0.0053   -2.2625 H   0  0  0  0  0  0  0  0  0  0  0  0
    1.8490   -0.3731   -1.3986 H   0  0  0  0  0  0  0  0  0  0  0  0
   -0.3538    2.5332    0.2295 H   0  0  0  0  0  0  0  0  0  0  0  0
    1.0996    2.0993    1.1412 H   0  0  0  0  0  0  0  0  0  0  0  0
    1.2109    2.4394   -0.5919 H   0  0  0  0  0  0  0  0  0  0  0  0
   -1.5095    0.8894   -2.0485 H   0  0  0  0  0  0  0  0  0  0  0  0
   -2.3186   -0.7428   -1.7177 H   0  0  0  0  0  0  0  0  0  0  0  0
   -2.7899    0.7290   -0.8342 H   0  0  0  0  0  0  0  0  0  0  0  0
   -1.4263    0.4575    1.8722 H   0  0  0  0  0  0  0  0  0  0  0  0
   -1.5929   -1.3563    1.5373 H   0  0  0  0  0  0  0  0  0  0  0  0
   -2.8125   -0.1965    0.9831 H   0  0  0  0  0  0  0  0  0  0  0  0
  1  2  1  0
  2  3  1  0
  3  4  1  0
  4  5  1  0
  5  6  1  0
  5  7  1  0
  7  8  1  0
  7  9  1  0
  5  2  1  0
  7  3  1  0
  1 10  1  0
  1 11  1  0
  1 12  1  0
  2 13  1  0
  3 14  1  0
  4 15  1  0
  4 16  1  0
  6 17  1  0
  6 18  1  0
  6 19  1  0
  8 20  1  0
  8 21  1  0
  8 22  1  0
  9 23  1  0
  9 24  1  0
  9 25  1  0
M  END
