
     RDKit          3D

 22 23  0  0  0  0  0  0  0  0999 V2000
    2.1927   -1.2422    0.2406 C   0  0  0  0  0  0  0  0  0  0  0  0
    1.5023   -0.2739   -0.6593 C   0  0  0  0  0  0  0  0  0  0  0  0
    1.2110    1.0472    0.0222 C   0  0  0  0  0  0  0  0  0  0  0  0
   -0.2146    0.7211    0.2456 C   0  0  0  0  0  0  0  0  0  0  0  0
   -1.2327    1.7587   -0.0698 C   0  0  0  0  0  0  0  0  0  0  0  0
   -0.7144   -0.6456    0.5014 C   0  0  0  0  0  0  0  0  0  0  0  0
   -2.1711   -0.9568    0.3738 C   0  0  0  0  0  0  0  0  0  0  0  0
   -0.0022   -0.4316   -0.7743 C   0  0  0  0  0  0  0  0  0  0  0  0
    1.5631   -2.0154    0.6747 H   0  0  0  0  0  0  0  0  0  0  0  0
    2.6647   -0.6770    1.0968 H   0  0  0  0  0  0  0  0  0  0  0  0
    3.0675   -1.6801   -0.3188 H   0  0  0  0  0  0  0  0  0  0  0  0
    1.9196   -0.1833   -1.6896 H   0  0  0  0  0  0  0  0  0  0  0  0
    1.8415    1.2916    0.8763 H   0  0  0  0  0  0  0  0  0  0  0  0
    1.3058    1.8725   -0.7429 H   0  0  0  0  0  0  0  0  0  0  0  0
   -1.8284    1.9374    0.8729 H   0  0  0  0  0  0  0  0  0  0  0  0
   -0.7443    2.7121   -0.3298 H   0  0  0  0  0  0  0  0  0  0  0  0
   -1.9486    1.3959   -0.8103 H   0  0  0  0  0  0  0  0  0  0  0  0
   -0.1985   -1.2008    1.3072 H   0  0  0  0  0  0  0  0  0  0  0  0
   -2.8248   -0.2307    0.8906 H   0  0  0  0  0  0  0  0  0  0  0  0
   -2.3607   -2.0109    0.7071 H   0  0  0  0  0  0  0  0  0  0  0  0
   -2.5163   -0.9462   -0.7010 H   0  0  0  0  0  0  0  0  0  0  0  0
   -0.5115   -0.2419   -1.7135 H   0  0  0  0  0  0  0  0  0  0  0  0
  1  2  1  0
  2  3  1  0
  3  4  1  0
  4  5  1  0
  4  6  1  0
  6  7  1  0
  6  8  1  0
  8  2  1  0
  8  4  1  0
  1  9  1  0
  1 10  1  0
  1 11  1  0
  2 12  1  0
  3 13  1  0
  3 14  1  0
  5 15  1  0
  5 16  1  0
  5 17  1  0
  6 18  1  0
  7 19  1  0
  7 20  1  0
  7 21  1  0
  8 22  1  0
M  END
