
     RDKit          3D

 21 22  0  0  0  0  0  0  0  0999 V2000
    1.3646   -1.2360   -0.6382 C   0  0  0  0  0  0  0  0  0  0  0  0
    0.8670    0.1395   -0.4358 C   0  0  0  0  0  0  0  0  0  0  0  0
    0.8361    0.6713    0.9722 C   0  0  0  0  0  0  0  0  0  0  0  0
    0.2361    2.0168    0.7543 C   0  0  0  0  0  0  0  0  0  0  0  0
   -0.7550    1.7549   -0.1221 C   0  0  0  0  0  0  0  0  0  0  0  0
   -0.6547    0.2852   -0.3011 C   0  0  0  0  0  0  0  0  0  0  0  0
   -1.5217   -0.4465   -1.1519 C   0  0  0  0  0  0  0  0  0  0  0  0
   -0.4394   -0.1593    1.1522 C   0  0  0  0  0  0  0  0  0  0  0  0
   -0.2431   -1.5052    1.2904 O   0  0  0  0  0  0  0  0  0  0  0  0
    2.1790   -1.1935   -1.4226 H   0  0  0  0  0  0  0  0  0  0  0  0
    1.8479   -1.7027    0.2422 H   0  0  0  0  0  0  0  0  0  0  0  0
    0.5984   -1.9262   -1.0956 H   0  0  0  0  0  0  0  0  0  0  0  0
    1.2062    0.8953   -1.1785 H   0  0  0  0  0  0  0  0  0  0  0  0
    1.6352    0.5324    1.6317 H   0  0  0  0  0  0  0  0  0  0  0  0
    0.5340    2.9588    1.1972 H   0  0  0  0  0  0  0  0  0  0  0  0
   -1.4608    2.4265   -0.5926 H   0  0  0  0  0  0  0  0  0  0  0  0
   -2.0626   -1.2811   -0.6181 H   0  0  0  0  0  0  0  0  0  0  0  0
   -0.9883   -0.9506   -1.9916 H   0  0  0  0  0  0  0  0  0  0  0  0
   -2.3371    0.1549   -1.6259 H   0  0  0  0  0  0  0  0  0  0  0  0
   -1.1341    0.3301    1.8649 H   0  0  0  0  0  0  0  0  0  0  0  0
    0.2922   -1.7646    2.0688 H   0  0  0  0  0  0  0  0  0  0  0  0
  1  2  1  0
  2  3  1  0
  3  4  1  0
  4  5  2  0
  5  6  1  0
  6  7  1  0
  6  8  1  0
  8  9  1  0
  6  2  1  0
  8  3  1  0
  1 10  1  0
  1 11  1  0
  1 12  1  0
  2 13  1  0
  3 14  1  0
  4 15  1  0
  5 16  1  0
  7 17  1  0
  7 18  1  0
  7 19  1  0
  8 20  1  0
  9 21  1  0
M  END
