
     RDKit          3D

 21 21  0  0  0  0  0  0  0  0999 V2000
   -1.8575    1.0658   -0.0065 C   0  0  0  0  0  0  0  0  0  0  0  0
   -1.3124    0.0429    0.9628 C   0  0  0  0  0  0  0  0  0  0  0  0
   -1.6270   -1.3512    0.4643 C   0  0  0  0  0  0  0  0  0  0  0  0
   -0.1866   -1.4822    0.0978 C   0  0  0  0  0  0  0  0  0  0  0  0
    0.4991   -2.2966   -0.4959 O   0  0  0  0  0  0  0  0  0  0  0  0
    0.1641   -0.1768    0.7540 C   0  0  0  0  0  0  0  0  0  0  0  0
    0.7964    0.7713   -0.2333 C   0  0  0  0  0  0  0  0  0  0  0  0
    2.2655    0.5294   -0.4206 C   0  0  0  0  0  0  0  0  0  0  0  0
    2.5751   -0.7205   -0.8819 O   0  0  0  0  0  0  0  0  0  0  0  0
   -2.9709    1.0857    0.1611 H   0  0  0  0  0  0  0  0  0  0  0  0
   -1.4104    2.0488    0.1867 H   0  0  0  0  0  0  0  0  0  0  0  0
   -1.7284    0.7043   -1.0457 H   0  0  0  0  0  0  0  0  0  0  0  0
   -1.6122    0.2330    2.0119 H   0  0  0  0  0  0  0  0  0  0  0  0
   -1.8893   -2.0793    1.2637 H   0  0  0  0  0  0  0  0  0  0  0  0
   -2.3212   -1.3884   -0.4102 H   0  0  0  0  0  0  0  0  0  0  0  0
    0.7616   -0.3881    1.6551 H   0  0  0  0  0  0  0  0  0  0  0  0
    0.6790    1.8191    0.1146 H   0  0  0  0  0  0  0  0  0  0  0  0
    0.3073    0.6846   -1.2240 H   0  0  0  0  0  0  0  0  0  0  0  0
    2.6828    1.2749   -1.1264 H   0  0  0  0  0  0  0  0  0  0  0  0
    2.8228    0.7074    0.5460 H   0  0  0  0  0  0  0  0  0  0  0  0
    3.3622   -1.0841   -0.4018 H   0  0  0  0  0  0  0  0  0  0  0  0
  1  2  1  0
  2  3  1  0
  3  4  1  0
  4  5  2  0
  4  6  1  0
  6  7  1  0
  7  8  1  0
  8  9  1  0
  6  2  1  0
  1 10  1  0
  1 11  1  0
  1 12  1  0
  2 13  1  0
  3 14  1  0
  3 15  1  0
  6 16  1  0
  7 17  1  0
  7 18  1  0
  8 19  1  0
  8 20  1  0
  9 21  1  0
M  END
