
     RDKit          3D

 17 18  0  0  0  0  0  0  0  0999 V2000
   -2.4456   -0.3536    0.1609 C   0  0  0  0  0  0  0  0  0  0  0  0
   -1.2097   -0.1609   -0.7154 C   0  0  0  0  0  0  0  0  0  0  0  0
    0.0253   -0.6538   -0.2235 C   0  0  0  0  0  0  0  0  0  0  0  0
    0.5975   -0.7071    0.9919 O   0  0  0  0  0  0  0  0  0  0  0  0
    1.8830   -0.1260    0.8520 C   0  0  0  0  0  0  0  0  0  0  0  0
    2.0037    0.7397   -0.3368 C   0  0  0  0  0  0  0  0  0  0  0  0
    3.1707    0.9222   -0.7797 O   0  0  0  0  0  0  0  0  0  0  0  0
    0.8727    1.3350   -0.9500 O   0  0  0  0  0  0  0  0  0  0  0  0
   -0.3089    0.8669   -0.3675 C   0  0  0  0  0  0  0  0  0  0  0  0
   -2.7487   -1.4160    0.0471 H   0  0  0  0  0  0  0  0  0  0  0  0
   -3.1987    0.3667   -0.1672 H   0  0  0  0  0  0  0  0  0  0  0  0
   -2.1400   -0.2108    1.2272 H   0  0  0  0  0  0  0  0  0  0  0  0
   -1.4723   -0.2994   -1.7852 H   0  0  0  0  0  0  0  0  0  0  0  0
    0.7147   -1.1019   -1.0014 H   0  0  0  0  0  0  0  0  0  0  0  0
    2.2048    0.3579    1.7857 H   0  0  0  0  0  0  0  0  0  0  0  0
    2.5622   -0.9929    0.6794 H   0  0  0  0  0  0  0  0  0  0  0  0
   -0.5109    1.4340    0.5824 H   0  0  0  0  0  0  0  0  0  0  0  0
  1  2  1  0
  2  3  1  0
  3  4  1  0
  4  5  1  0
  5  6  1  0
  6  7  2  0
  6  8  1  0
  8  9  1  0
  9  2  1  0
  9  3  1  0
  1 10  1  0
  1 11  1  0
  1 12  1  0
  2 13  1  0
  3 14  1  0
  5 15  1  0
  5 16  1  0
  9 17  1  0
M  END
