
     RDKit          3D

 22 23  0  0  0  0  0  0  0  0999 V2000
   -2.2505    0.6274    0.2610 C   0  0  0  0  0  0  0  0  0  0  0  0
   -0.9080   -0.0091    0.2336 C   0  0  0  0  0  0  0  0  0  0  0  0
   -0.9235   -1.3971   -0.4139 C   0  0  0  0  0  0  0  0  0  0  0  0
    0.5899   -1.6547   -0.4213 C   0  0  0  0  0  0  0  0  0  0  0  0
    1.0796   -0.3688   -1.0564 C   0  0  0  0  0  0  0  0  0  0  0  0
    2.0733    0.4012   -0.2291 C   0  0  0  0  0  0  0  0  0  0  0  0
    1.0796    1.5550   -0.0946 C   0  0  0  0  0  0  0  0  0  0  0  0
    0.0516    0.6912   -0.7266 C   0  0  0  0  0  0  0  0  0  0  0  0
   -2.4328    0.9794    1.3163 H   0  0  0  0  0  0  0  0  0  0  0  0
   -2.2872    1.5432   -0.3846 H   0  0  0  0  0  0  0  0  0  0  0  0
   -3.0395   -0.0378   -0.1012 H   0  0  0  0  0  0  0  0  0  0  0  0
   -0.4365   -0.1286    1.2168 H   0  0  0  0  0  0  0  0  0  0  0  0
   -1.4695   -2.1301    0.1713 H   0  0  0  0  0  0  0  0  0  0  0  0
   -1.2627   -1.2608   -1.4498 H   0  0  0  0  0  0  0  0  0  0  0  0
    0.9212   -1.6958    0.6380 H   0  0  0  0  0  0  0  0  0  0  0  0
    0.8562   -2.5502   -0.9797 H   0  0  0  0  0  0  0  0  0  0  0  0
    1.3133   -0.4892   -2.1229 H   0  0  0  0  0  0  0  0  0  0  0  0
    2.3348   -0.0656    0.7467 H   0  0  0  0  0  0  0  0  0  0  0  0
    2.9423    0.7000   -0.8515 H   0  0  0  0  0  0  0  0  0  0  0  0
    0.8882    1.8087    0.9534 H   0  0  0  0  0  0  0  0  0  0  0  0
    1.3244    2.4199   -0.7603 H   0  0  0  0  0  0  0  0  0  0  0  0
   -0.4442    1.0620   -1.6402 H   0  0  0  0  0  0  0  0  0  0  0  0
  1  2  1  0
  2  3  1  0
  3  4  1  0
  4  5  1  0
  5  6  1  0
  6  7  1  0
  7  8  1  0
  8  2  1  0
  8  5  1  0
  1  9  1  0
  1 10  1  0
  1 11  1  0
  2 12  1  0
  3 13  1  0
  3 14  1  0
  4 15  1  0
  4 16  1  0
  5 17  1  0
  6 18  1  0
  6 19  1  0
  7 20  1  0
  7 21  1  0
  8 22  1  0
M  END
