
     RDKit          3D

 19 20  0  0  0  0  0  0  0  0999 V2000
    1.7392    0.9189    0.0550 C   0  0  0  0  0  0  0  0  0  0  0  0
    1.0291   -0.3879    0.1707 C   0  0  0  0  0  0  0  0  0  0  0  0
    0.6196   -0.9013   -1.1889 C   0  0  0  0  0  0  0  0  0  0  0  0
   -0.8102   -0.9573   -0.7459 C   0  0  0  0  0  0  0  0  0  0  0  0
   -1.4881    0.2246   -0.1701 C   0  0  0  0  0  0  0  0  0  0  0  0
   -1.3678    1.5590   -0.7869 C   0  0  0  0  0  0  0  0  0  0  0  0
   -2.3430    2.2836   -0.8295 O   0  0  0  0  0  0  0  0  0  0  0  0
   -0.3892   -0.3696    0.6190 C   0  0  0  0  0  0  0  0  0  0  0  0
   -0.7194   -1.1454    1.7295 O   0  0  0  0  0  0  0  0  0  0  0  0
    1.8561    1.2307   -1.0014 H   0  0  0  0  0  0  0  0  0  0  0  0
    1.1786    1.7453    0.5577 H   0  0  0  0  0  0  0  0  0  0  0  0
    2.7389    0.9091    0.5768 H   0  0  0  0  0  0  0  0  0  0  0  0
    1.6397   -1.1005    0.7685 H   0  0  0  0  0  0  0  0  0  0  0  0
    1.0346   -1.8971   -1.4287 H   0  0  0  0  0  0  0  0  0  0  0  0
    0.8360   -0.2025   -2.0321 H   0  0  0  0  0  0  0  0  0  0  0  0
   -1.2862   -1.9485   -0.7352 H   0  0  0  0  0  0  0  0  0  0  0  0
   -2.5095   -0.0010    0.2146 H   0  0  0  0  0  0  0  0  0  0  0  0
   -0.4282    1.9320   -1.2137 H   0  0  0  0  0  0  0  0  0  0  0  0
   -1.3300   -1.8922    1.4734 H   0  0  0  0  0  0  0  0  0  0  0  0
  1  2  1  0
  2  3  1  0
  3  4  1  0
  4  5  1  0
  5  6  1  0
  6  7  2  0
  5  8  1  0
  8  9  1  0
  8  2  1  0
  8  4  1  0
  1 10  1  0
  1 11  1  0
  1 12  1  0
  2 13  1  0
  3 14  1  0
  3 15  1  0
  4 16  1  0
  5 17  1  0
  6 18  1  0
  9 19  1  0
M  END
