
     RDKit          3D

 21 23  0  0  0  0  0  0  0  0999 V2000
    2.5630   -0.3006    0.3020 C   0  0  0  0  0  0  0  0  0  0  0  0
    1.1783   -0.1914   -0.3274 C   0  0  0  0  0  0  0  0  0  0  0  0
    0.1958   -0.9808    0.4840 C   0  0  0  0  0  0  0  0  0  0  0  0
    0.4300    0.0115    1.4736 O   0  0  0  0  0  0  0  0  0  0  0  0
    0.4097    0.9080    0.3697 C   0  0  0  0  0  0  0  0  0  0  0  0
   -0.9655    1.1205   -0.1609 C   0  0  0  0  0  0  0  0  0  0  0  0
   -1.3756    0.0353   -1.1671 C   0  0  0  0  0  0  0  0  0  0  0  0
   -1.2207   -0.8693    0.0396 C   0  0  0  0  0  0  0  0  0  0  0  0
   -1.9020    0.3131    0.7666 C   0  0  0  0  0  0  0  0  0  0  0  0
    2.6292   -1.1040    1.0401 H   0  0  0  0  0  0  0  0  0  0  0  0
    2.8295    0.6453    0.8361 H   0  0  0  0  0  0  0  0  0  0  0  0
    3.3153   -0.3952   -0.5150 H   0  0  0  0  0  0  0  0  0  0  0  0
    1.1762   -0.2435   -1.3929 H   0  0  0  0  0  0  0  0  0  0  0  0
    0.5794   -1.9690    0.7286 H   0  0  0  0  0  0  0  0  0  0  0  0
    1.0191    1.7921    0.5743 H   0  0  0  0  0  0  0  0  0  0  0  0
   -1.2991    2.1190   -0.3866 H   0  0  0  0  0  0  0  0  0  0  0  0
   -0.7485   -0.1159   -2.0176 H   0  0  0  0  0  0  0  0  0  0  0  0
   -2.4346    0.1125   -1.4331 H   0  0  0  0  0  0  0  0  0  0  0  0
   -1.8452   -1.7568    0.0661 H   0  0  0  0  0  0  0  0  0  0  0  0
   -2.9500    0.4499    0.5163 H   0  0  0  0  0  0  0  0  0  0  0  0
   -1.5844    0.4192    1.8073 H   0  0  0  0  0  0  0  0  0  0  0  0
  1  2  1  0
  2  3  1  0
  3  4  1  0
  4  5  1  0
  5  6  1  0
  6  7  1  0
  7  8  1  0
  8  9  1  0
  5  2  1  0
  9  6  1  0
  8  3  1  0
  1 10  1  0
  1 11  1  0
  1 12  1  0
  2 13  1  0
  3 14  1  0
  5 15  1  0
  6 16  1  0
  7 17  1  0
  7 18  1  0
  8 19  1  0
  9 20  1  0
  9 21  1  0
M  END
