
     RDKit          3D

 21 22  0  0  0  0  0  0  0  0999 V2000
    2.2812    0.7708    0.1546 C   0  0  0  0  0  0  0  0  0  0  0  0
    1.3372   -0.3991    0.3794 C   0  0  0  0  0  0  0  0  0  0  0  0
    0.6218   -0.7919   -0.9023 C   0  0  0  0  0  0  0  0  0  0  0  0
   -0.6442   -0.8988   -0.0873 C   0  0  0  0  0  0  0  0  0  0  0  0
   -0.8880   -2.1817    0.3442 O   0  0  0  0  0  0  0  0  0  0  0  0
   -1.8209   -0.1223   -0.6023 C   0  0  0  0  0  0  0  0  0  0  0  0
   -1.5590    1.2905   -0.1538 C   0  0  0  0  0  0  0  0  0  0  0  0
   -0.3000    1.3160    0.4230 O   0  0  0  0  0  0  0  0  0  0  0  0
   -0.0334    0.0460    0.9078 C   0  0  0  0  0  0  0  0  0  0  0  0
    2.2311    1.1084   -0.8964 H   0  0  0  0  0  0  0  0  0  0  0  0
    3.3045    0.5501    0.4842 H   0  0  0  0  0  0  0  0  0  0  0  0
    1.8862    1.6064    0.7756 H   0  0  0  0  0  0  0  0  0  0  0  0
    1.7874   -1.2140    0.9473 H   0  0  0  0  0  0  0  0  0  0  0  0
    0.5517    0.0765   -1.5935 H   0  0  0  0  0  0  0  0  0  0  0  0
    1.0306   -1.7165   -1.3058 H   0  0  0  0  0  0  0  0  0  0  0  0
   -1.0551   -2.2690    1.3078 H   0  0  0  0  0  0  0  0  0  0  0  0
   -1.9674   -0.2044   -1.6872 H   0  0  0  0  0  0  0  0  0  0  0  0
   -2.7327   -0.4680   -0.0947 H   0  0  0  0  0  0  0  0  0  0  0  0
   -2.2742    1.6328    0.6359 H   0  0  0  0  0  0  0  0  0  0  0  0
   -1.5479    2.0085   -0.9970 H   0  0  0  0  0  0  0  0  0  0  0  0
   -0.2091   -0.1403    1.9605 H   0  0  0  0  0  0  0  0  0  0  0  0
  1  2  1  0
  2  3  1  0
  3  4  1  0
  4  5  1  0
  4  6  1  0
  6  7  1  0
  7  8  1  0
  8  9  1  0
  9  2  1  0
  9  4  1  0
  1 10  1  0
  1 11  1  0
  1 12  1  0
  2 13  1  0
  3 14  1  0
  3 15  1  0
  5 16  1  0
  6 17  1  0
  6 18  1  0
  7 19  1  0
  7 20  1  0
  9 21  1  0
M  END
