
     RDKit          3D

 21 22  0  0  0  0  0  0  0  0999 V2000
    2.6443    0.2566   -0.2621 C   0  0  0  0  0  0  0  0  0  0  0  0
    1.2933    0.5367    0.3022 C   0  0  0  0  0  0  0  0  0  0  0  0
    0.7950   -0.5628    1.1869 C   0  0  0  0  0  0  0  0  0  0  0  0
   -0.5308   -0.6670    1.2512 C   0  0  0  0  0  0  0  0  0  0  0  0
   -1.2788   -0.0038    0.1454 C   0  0  0  0  0  0  0  0  0  0  0  0
   -2.7454   -0.2595    0.1042 C   0  0  0  0  0  0  0  0  0  0  0  0
   -0.5233   -0.3539   -1.1411 C   0  0  0  0  0  0  0  0  0  0  0  0
    0.2443    0.8537   -0.7060 C   0  0  0  0  0  0  0  0  0  0  0  0
   -0.8895    1.3152   -0.0330 O   0  0  0  0  0  0  0  0  0  0  0  0
    2.6363   -0.4245   -1.1371 H   0  0  0  0  0  0  0  0  0  0  0  0
    3.2969   -0.0911    0.5602 H   0  0  0  0  0  0  0  0  0  0  0  0
    3.0664    1.2282   -0.6213 H   0  0  0  0  0  0  0  0  0  0  0  0
    1.3924    1.4323    0.9736 H   0  0  0  0  0  0  0  0  0  0  0  0
    1.4689   -1.2244    1.7342 H   0  0  0  0  0  0  0  0  0  0  0  0
   -1.0124   -1.1973    2.0536 H   0  0  0  0  0  0  0  0  0  0  0  0
   -3.2247    0.5986   -0.4405 H   0  0  0  0  0  0  0  0  0  0  0  0
   -3.1404   -0.2374    1.1255 H   0  0  0  0  0  0  0  0  0  0  0  0
   -3.0363   -1.1655   -0.4633 H   0  0  0  0  0  0  0  0  0  0  0  0
   -1.1092   -0.2458   -2.0586 H   0  0  0  0  0  0  0  0  0  0  0  0
    0.0549   -1.3051   -1.0519 H   0  0  0  0  0  0  0  0  0  0  0  0
    0.5981    1.5167   -1.5222 H   0  0  0  0  0  0  0  0  0  0  0  0
  1  2  1  0
  2  3  1  0
  3  4  2  0
  4  5  1  0
  5  6  1  0
  5  7  1  0
  7  8  1  0
  8  9  1  0
  8  2  1  0
  9  5  1  0
  1 10  1  0
  1 11  1  0
  1 12  1  0
  2 13  1  0
  3 14  1  0
  4 15  1  0
  6 16  1  0
  6 17  1  0
  6 18  1  0
  7 19  1  0
  7 20  1  0
  8 21  1  0
M  END
