
     RDKit          3D

 21 23  0  0  0  0  0  0  0  0999 V2000
    2.6025   -0.5423   -0.3274 C   0  0  0  0  0  0  0  0  0  0  0  0
    1.7982   -0.0423    0.8170 C   0  0  0  0  0  0  0  0  0  0  0  0
    0.4513   -0.6583    1.0375 C   0  0  0  0  0  0  0  0  0  0  0  0
    0.1274    0.5425    1.6761 O   0  0  0  0  0  0  0  0  0  0  0  0
    0.7653    0.9987    0.5313 C   0  0  0  0  0  0  0  0  0  0  0  0
    0.0005   -0.0308   -0.2222 C   0  0  0  0  0  0  0  0  0  0  0  0
   -1.4408    0.1787   -0.4541 C   0  0  0  0  0  0  0  0  0  0  0  0
   -2.3054    0.9997    0.4091 C   0  0  0  0  0  0  0  0  0  0  0  0
   -2.4494   -0.5297    0.4670 C   0  0  0  0  0  0  0  0  0  0  0  0
    2.4044   -1.6220   -0.5617 H   0  0  0  0  0  0  0  0  0  0  0  0
    2.5253    0.0619   -1.2478 H   0  0  0  0  0  0  0  0  0  0  0  0
    3.6831   -0.5190   -0.0103 H   0  0  0  0  0  0  0  0  0  0  0  0
    2.3376    0.1732    1.7426 H   0  0  0  0  0  0  0  0  0  0  0  0
    0.2583   -1.5810    1.3956 H   0  0  0  0  0  0  0  0  0  0  0  0
    0.9251    1.9626    0.2776 H   0  0  0  0  0  0  0  0  0  0  0  0
    0.5432   -0.4424   -1.0929 H   0  0  0  0  0  0  0  0  0  0  0  0
   -1.7420    0.1709   -1.5392 H   0  0  0  0  0  0  0  0  0  0  0  0
   -2.0092    1.4317    1.3601 H   0  0  0  0  0  0  0  0  0  0  0  0
   -3.2100    1.4945   -0.0330 H   0  0  0  0  0  0  0  0  0  0  0  0
   -1.9483   -1.0538    1.3215 H   0  0  0  0  0  0  0  0  0  0  0  0
   -3.3169   -0.9928   -0.0072 H   0  0  0  0  0  0  0  0  0  0  0  0
  1  2  1  0
  2  3  1  0
  3  4  1  0
  4  5  1  0
  5  6  1  0
  6  7  1  0
  7  8  1  0
  8  9  1  0
  5  2  1  0
  9  7  1  0
  6  3  1  0
  1 10  1  0
  1 11  1  0
  1 12  1  0
  2 13  1  0
  3 14  1  0
  5 15  1  0
  6 16  1  0
  7 17  1  0
  8 18  1  0
  8 19  1  0
  9 20  1  0
  9 21  1  0
M  END
