
     RDKit          3D

 21 23  0  0  0  0  0  0  0  0999 V2000
    1.7373   -1.0334   -0.1522 C   0  0  0  0  0  0  0  0  0  0  0  0
    0.8779    0.0487    0.4234 C   0  0  0  0  0  0  0  0  0  0  0  0
    0.9150    1.3317   -0.3628 C   0  0  0  0  0  0  0  0  0  0  0  0
   -0.1906    2.1184    0.2937 C   0  0  0  0  0  0  0  0  0  0  0  0
   -0.9816    1.0629   -0.4320 C   0  0  0  0  0  0  0  0  0  0  0  0
    0.0144    1.1507   -1.4345 O   0  0  0  0  0  0  0  0  0  0  0  0
   -0.6135   -0.2423    0.1968 C   0  0  0  0  0  0  0  0  0  0  0  0
   -1.4090   -1.0216    1.0864 C   0  0  0  0  0  0  0  0  0  0  0  0
   -1.0651   -1.5320   -0.3084 C   0  0  0  0  0  0  0  0  0  0  0  0
    1.5377   -1.9593    0.4253 H   0  0  0  0  0  0  0  0  0  0  0  0
    1.5162   -1.2636   -1.2066 H   0  0  0  0  0  0  0  0  0  0  0  0
    2.7895   -0.7539    0.0285 H   0  0  0  0  0  0  0  0  0  0  0  0
    1.0942    0.1604    1.4874 H   0  0  0  0  0  0  0  0  0  0  0  0
    1.8444    1.8020   -0.5673 H   0  0  0  0  0  0  0  0  0  0  0  0
   -0.1790    2.0118    1.3845 H   0  0  0  0  0  0  0  0  0  0  0  0
   -0.3875    3.1200   -0.1103 H   0  0  0  0  0  0  0  0  0  0  0  0
   -1.9863    1.2627   -0.7217 H   0  0  0  0  0  0  0  0  0  0  0  0
   -0.8995   -1.6112    1.8896 H   0  0  0  0  0  0  0  0  0  0  0  0
   -2.4562   -0.8057    1.3248 H   0  0  0  0  0  0  0  0  0  0  0  0
   -0.2987   -2.3206   -0.4164 H   0  0  0  0  0  0  0  0  0  0  0  0
   -1.8593   -1.5258   -1.0855 H   0  0  0  0  0  0  0  0  0  0  0  0
  1  2  1  0
  2  3  1  0
  3  4  1  0
  4  5  1  0
  5  6  1  0
  5  7  1  0
  7  8  1  0
  8  9  1  0
  7  2  1  0
  6  3  1  0
  9  7  1  0
  1 10  1  0
  1 11  1  0
  1 12  1  0
  2 13  1  0
  3 14  1  0
  4 15  1  0
  4 16  1  0
  5 17  1  0
  8 18  1  0
  8 19  1  0
  9 20  1  0
  9 21  1  0
M  END
