
     RDKit          3D

 21 23  0  0  0  0  0  0  0  0999 V2000
    0.5818    1.9215   -0.3868 C   0  0  0  0  0  0  0  0  0  0  0  0
    0.4194    0.5214   -0.9081 C   0  0  0  0  0  0  0  0  0  0  0  0
   -1.0200    0.1453   -1.0968 C   0  0  0  0  0  0  0  0  0  0  0  0
   -1.9956    0.4955   -0.0390 C   0  0  0  0  0  0  0  0  0  0  0  0
   -1.3836   -0.8416   -0.0633 C   0  0  0  0  0  0  0  0  0  0  0  0
   -0.1244   -1.1752    0.6695 C   0  0  0  0  0  0  0  0  0  0  0  0
    0.8972   -1.9281   -0.1637 C   0  0  0  0  0  0  0  0  0  0  0  0
    1.0013   -0.4395    0.0883 C   0  0  0  0  0  0  0  0  0  0  0  0
    2.0970   -0.0603    0.8529 O   0  0  0  0  0  0  0  0  0  0  0  0
    1.6490    2.1036   -0.1706 H   0  0  0  0  0  0  0  0  0  0  0  0
    0.0295    2.1126    0.5487 H   0  0  0  0  0  0  0  0  0  0  0  0
    0.2513    2.6515   -1.1655 H   0  0  0  0  0  0  0  0  0  0  0  0
    0.9535    0.4621   -1.8721 H   0  0  0  0  0  0  0  0  0  0  0  0
   -1.3958   -0.0701   -2.1192 H   0  0  0  0  0  0  0  0  0  0  0  0
   -3.0601    0.5415   -0.3741 H   0  0  0  0  0  0  0  0  0  0  0  0
   -1.7472    1.1428    0.8056 H   0  0  0  0  0  0  0  0  0  0  0  0
   -1.9882   -1.7454   -0.3441 H   0  0  0  0  0  0  0  0  0  0  0  0
   -0.1307   -1.4166    1.7433 H   0  0  0  0  0  0  0  0  0  0  0  0
    1.6255   -2.5881    0.3289 H   0  0  0  0  0  0  0  0  0  0  0  0
    0.6006   -2.2719   -1.1861 H   0  0  0  0  0  0  0  0  0  0  0  0
    2.7393    0.4391    0.2808 H   0  0  0  0  0  0  0  0  0  0  0  0
  1  2  1  0
  2  3  1  0
  3  4  1  0
  4  5  1  0
  5  6  1  0
  6  7  1  0
  7  8  1  0
  8  9  1  0
  8  2  1  0
  5  3  1  0
  8  6  1  0
  1 10  1  0
  1 11  1  0
  1 12  1  0
  2 13  1  0
  3 14  1  0
  4 15  1  0
  4 16  1  0
  5 17  1  0
  6 18  1  0
  7 19  1  0
  7 20  1  0
  9 21  1  0
M  END
