
     RDKit          3D

 21 21  0  0  0  0  0  0  0  0999 V2000
    1.9088    0.0652    0.3991 C   0  0  0  0  0  0  0  0  0  0  0  0
    0.9428    0.1549   -0.7325 C   0  0  0  0  0  0  0  0  0  0  0  0
    0.7170   -1.2478   -1.2378 C   0  0  0  0  0  0  0  0  0  0  0  0
   -0.2837   -1.7844   -0.5499 C   0  0  0  0  0  0  0  0  0  0  0  0
   -0.7925   -0.8024    0.4464 C   0  0  0  0  0  0  0  0  0  0  0  0
   -2.1293   -0.9247    0.7038 O   0  0  0  0  0  0  0  0  0  0  0  0
   -0.4531    0.4982   -0.2971 C   0  0  0  0  0  0  0  0  0  0  0  0
   -0.5740    1.6998    0.5447 C   0  0  0  0  0  0  0  0  0  0  0  0
   -1.2865    0.5498   -1.4000 O   0  0  0  0  0  0  0  0  0  0  0  0
    2.3250   -0.9642    0.5320 H   0  0  0  0  0  0  0  0  0  0  0  0
    2.8024    0.7277    0.2165 H   0  0  0  0  0  0  0  0  0  0  0  0
    1.4950    0.3799    1.3803 H   0  0  0  0  0  0  0  0  0  0  0  0
    1.3486    0.8114   -1.5083 H   0  0  0  0  0  0  0  0  0  0  0  0
    1.3197   -1.6668   -2.0347 H   0  0  0  0  0  0  0  0  0  0  0  0
   -0.6686   -2.7722   -0.6879 H   0  0  0  0  0  0  0  0  0  0  0  0
   -0.1748   -0.8735    1.3752 H   0  0  0  0  0  0  0  0  0  0  0  0
   -2.2515   -0.8137    1.6964 H   0  0  0  0  0  0  0  0  0  0  0  0
   -0.9686    2.5395   -0.0998 H   0  0  0  0  0  0  0  0  0  0  0  0
    0.3067    2.0135    1.0976 H   0  0  0  0  0  0  0  0  0  0  0  0
   -1.3999    1.5328    1.2945 H   0  0  0  0  0  0  0  0  0  0  0  0
   -2.1834    0.8769   -1.1386 H   0  0  0  0  0  0  0  0  0  0  0  0
  1  2  1  0
  2  3  1  0
  3  4  2  0
  4  5  1  0
  5  6  1  0
  5  7  1  0
  7  8  1  0
  7  9  1  0
  7  2  1  0
  1 10  1  0
  1 11  1  0
  1 12  1  0
  2 13  1  0
  3 14  1  0
  4 15  1  0
  5 16  1  0
  6 17  1  0
  8 18  1  0
  8 19  1  0
  8 20  1  0
  9 21  1  0
M  END
