
     RDKit          3D

 21 22  0  0  0  0  0  0  0  0999 V2000
   -2.0498    0.5752   -0.1567 C   0  0  0  0  0  0  0  0  0  0  0  0
   -0.8228    0.0448   -0.8376 C   0  0  0  0  0  0  0  0  0  0  0  0
   -0.5869   -1.3883   -0.3408 C   0  0  0  0  0  0  0  0  0  0  0  0
    0.1840   -0.7434    0.8192 C   0  0  0  0  0  0  0  0  0  0  0  0
    1.3889   -1.3939    0.9751 O   0  0  0  0  0  0  0  0  0  0  0  0
    2.2198   -1.0140   -0.0450 C   0  0  0  0  0  0  0  0  0  0  0  0
    1.5979   -0.0207   -0.7782 O   0  0  0  0  0  0  0  0  0  0  0  0
    0.4808    0.3915   -0.1058 C   0  0  0  0  0  0  0  0  0  0  0  0
    0.4307    1.7634    0.4279 C   0  0  0  0  0  0  0  0  0  0  0  0
   -2.8865   -0.1488   -0.3831 H   0  0  0  0  0  0  0  0  0  0  0  0
   -1.9319    0.5578    0.9319 H   0  0  0  0  0  0  0  0  0  0  0  0
   -2.3447    1.5744   -0.4675 H   0  0  0  0  0  0  0  0  0  0  0  0
   -0.7606    0.1817   -1.9106 H   0  0  0  0  0  0  0  0  0  0  0  0
   -1.4954   -1.9015   -0.0364 H   0  0  0  0  0  0  0  0  0  0  0  0
    0.0816   -1.8896   -1.0562 H   0  0  0  0  0  0  0  0  0  0  0  0
   -0.4005   -0.5448    1.7090 H   0  0  0  0  0  0  0  0  0  0  0  0
    3.1860   -0.6774    0.3956 H   0  0  0  0  0  0  0  0  0  0  0  0
    2.4926   -1.8770   -0.7109 H   0  0  0  0  0  0  0  0  0  0  0  0
    0.9382    1.9326    1.3852 H   0  0  0  0  0  0  0  0  0  0  0  0
   -0.6314    2.1268    0.4982 H   0  0  0  0  0  0  0  0  0  0  0  0
    0.9100    2.4512   -0.3134 H   0  0  0  0  0  0  0  0  0  0  0  0
  1  2  1  0
  2  3  1  0
  3  4  1  0
  4  5  1  0
  5  6  1  0
  6  7  1  0
  7  8  1  0
  8  9  1  0
  8  2  1  0
  8  4  1  0
  1 10  1  0
  1 11  1  0
  1 12  1  0
  2 13  1  0
  3 14  1  0
  3 15  1  0
  4 16  1  0
  6 17  1  0
  6 18  1  0
  9 19  1  0
  9 20  1  0
  9 21  1  0
M  END
