
     RDKit          3D

 23 24  0  0  0  0  0  0  0  0999 V2000
   -0.4287    2.2365    0.3259 C   0  0  0  0  0  0  0  0  0  0  0  0
   -0.2374    1.0282   -0.5465 C   0  0  0  0  0  0  0  0  0  0  0  0
   -1.5826    0.2968   -0.6683 C   0  0  0  0  0  0  0  0  0  0  0  0
   -1.0967   -0.5855    0.4893 C   0  0  0  0  0  0  0  0  0  0  0  0
   -1.4755   -2.0182    0.2215 C   0  0  0  0  0  0  0  0  0  0  0  0
    0.2797   -0.1704    0.1333 C   0  0  0  0  0  0  0  0  0  0  0  0
    0.8219   -1.1253   -0.8737 O   0  0  0  0  0  0  0  0  0  0  0  0
    1.5025   -0.6853    0.3712 C   0  0  0  0  0  0  0  0  0  0  0  0
    2.7790   -0.0076   -0.0366 C   0  0  0  0  0  0  0  0  0  0  0  0
    0.5171    2.7230    0.5849 H   0  0  0  0  0  0  0  0  0  0  0  0
   -1.0717    2.9587   -0.2425 H   0  0  0  0  0  0  0  0  0  0  0  0
   -1.0359    1.9736    1.2300 H   0  0  0  0  0  0  0  0  0  0  0  0
    0.2149    1.2876   -1.5194 H   0  0  0  0  0  0  0  0  0  0  0  0
   -1.6492   -0.2386   -1.6244 H   0  0  0  0  0  0  0  0  0  0  0  0
   -2.4569    0.9047   -0.4449 H   0  0  0  0  0  0  0  0  0  0  0  0
   -1.5113   -0.1775    1.4322 H   0  0  0  0  0  0  0  0  0  0  0  0
   -2.3011   -2.1250   -0.5099 H   0  0  0  0  0  0  0  0  0  0  0  0
   -1.7870   -2.5262    1.1780 H   0  0  0  0  0  0  0  0  0  0  0  0
   -0.5808   -2.6022   -0.1338 H   0  0  0  0  0  0  0  0  0  0  0  0
    1.6615   -1.5231    1.0863 H   0  0  0  0  0  0  0  0  0  0  0  0
    3.2085    0.6290    0.7580 H   0  0  0  0  0  0  0  0  0  0  0  0
    2.6903    0.5632   -0.9811 H   0  0  0  0  0  0  0  0  0  0  0  0
    3.5394   -0.8164   -0.2298 H   0  0  0  0  0  0  0  0  0  0  0  0
  1  2  1  0
  2  3  1  0
  3  4  1  0
  4  5  1  0
  4  6  1  0
  6  7  1  0
  7  8  1  0
  8  9  1  0
  6  2  1  0
  8  6  1  0
  1 10  1  0
  1 11  1  0
  1 12  1  0
  2 13  1  0
  3 14  1  0
  3 15  1  0
  4 16  1  0
  5 17  1  0
  5 18  1  0
  5 19  1  0
  8 20  1  0
  9 21  1  0
  9 22  1  0
  9 23  1  0
M  END
