
     RDKit          3D

 17 17  0  0  0  0  0  0  0  0999 V2000
   -2.0334    0.0613    0.5287 C   0  0  0  0  0  0  0  0  0  0  0  0
   -0.8520    0.0802   -0.3811 C   0  0  0  0  0  0  0  0  0  0  0  0
   -0.0848   -1.2138   -0.2622 C   0  0  0  0  0  0  0  0  0  0  0  0
    1.0738   -1.2317   -1.0017 O   0  0  0  0  0  0  0  0  0  0  0  0
    2.0086   -0.3041   -0.6690 C   0  0  0  0  0  0  0  0  0  0  0  0
    1.4715    1.0352   -0.3620 C   0  0  0  0  0  0  0  0  0  0  0  0
    2.1803    2.0728   -0.4495 O   0  0  0  0  0  0  0  0  0  0  0  0
    0.0859    1.1596    0.0527 C   0  0  0  0  0  0  0  0  0  0  0  0
   -0.3058    2.1397    0.7501 O   0  0  0  0  0  0  0  0  0  0  0  0
   -2.5568   -0.9210    0.5589 H   0  0  0  0  0  0  0  0  0  0  0  0
   -1.6919    0.3094    1.5575 H   0  0  0  0  0  0  0  0  0  0  0  0
   -2.7636    0.8191    0.1401 H   0  0  0  0  0  0  0  0  0  0  0  0
   -1.1295    0.2532   -1.4511 H   0  0  0  0  0  0  0  0  0  0  0  0
    0.0456   -1.4344    0.7981 H   0  0  0  0  0  0  0  0  0  0  0  0
   -0.7485   -2.0164   -0.6755 H   0  0  0  0  0  0  0  0  0  0  0  0
    2.7083   -0.1768   -1.5385 H   0  0  0  0  0  0  0  0  0  0  0  0
    2.5922   -0.6323    0.2221 H   0  0  0  0  0  0  0  0  0  0  0  0
  1  2  1  0
  2  3  1  0
  3  4  1  0
  4  5  1  0
  5  6  1  0
  6  7  2  0
  6  8  1  0
  8  9  2  0
  8  2  1  0
  1 10  1  0
  1 11  1  0
  1 12  1  0
  2 13  1  0
  3 14  1  0
  3 15  1  0
  5 16  1  0
  5 17  1  0
M  END
