
     RDKit          3D

 19 20  0  0  0  0  0  0  0  0999 V2000
    2.6177    0.3644   -0.2431 C   0  0  0  0  0  0  0  0  0  0  0  0
    1.3748   -0.4596   -0.0358 C   0  0  0  0  0  0  0  0  0  0  0  0
    0.6200    0.0185    1.1892 C   0  0  0  0  0  0  0  0  0  0  0  0
   -0.6689   -0.0070    0.9017 C   0  0  0  0  0  0  0  0  0  0  0  0
   -2.1742    0.1013    0.9516 C   0  0  0  0  0  0  0  0  0  0  0  0
   -2.0721    0.3231   -0.5861 C   0  0  0  0  0  0  0  0  0  0  0  0
   -0.8994   -0.5698   -0.4819 C   0  0  0  0  0  0  0  0  0  0  0  0
    0.3732   -0.2478   -1.1186 C   0  0  0  0  0  0  0  0  0  0  0  0
    0.5924    0.1009   -2.2265 O   0  0  0  0  0  0  0  0  0  0  0  0
    2.6992    0.7494   -1.2815 H   0  0  0  0  0  0  0  0  0  0  0  0
    2.5875    1.2578    0.4135 H   0  0  0  0  0  0  0  0  0  0  0  0
    3.5232   -0.2162   -0.0023 H   0  0  0  0  0  0  0  0  0  0  0  0
    1.5780   -1.5342    0.1215 H   0  0  0  0  0  0  0  0  0  0  0  0
    1.1048    0.3141    2.1052 H   0  0  0  0  0  0  0  0  0  0  0  0
   -2.5626    1.0137    1.3999 H   0  0  0  0  0  0  0  0  0  0  0  0
   -2.6177   -0.8618    1.2149 H   0  0  0  0  0  0  0  0  0  0  0  0
   -3.0030   -0.0748   -1.0167 H   0  0  0  0  0  0  0  0  0  0  0  0
   -1.8862    1.3729   -0.8367 H   0  0  0  0  0  0  0  0  0  0  0  0
   -1.1865   -1.6448   -0.4684 H   0  0  0  0  0  0  0  0  0  0  0  0
  1  2  1  0
  2  3  1  0
  3  4  2  0
  4  5  1  0
  5  6  1  0
  6  7  1  0
  7  8  1  0
  8  9  2  0
  8  2  1  0
  7  4  1  0
  1 10  1  0
  1 11  1  0
  1 12  1  0
  2 13  1  0
  3 14  1  0
  5 15  1  0
  5 16  1  0
  6 17  1  0
  6 18  1  0
  7 19  1  0
M  END
