
     RDKit          3D

 21 23  0  0  0  0  0  0  0  0999 V2000
   -3.1535    0.6890    0.1955 C   0  0  0  0  0  0  0  0  0  0  0  0
   -2.0015   -0.2172   -0.2551 C   0  0  0  0  0  0  0  0  0  0  0  0
   -1.1048   -0.6552    0.7261 C   0  0  0  0  0  0  0  0  0  0  0  0
   -0.1897   -0.0587    1.5553 O   0  0  0  0  0  0  0  0  0  0  0  0
    1.0050   -0.4475    0.9063 C   0  0  0  0  0  0  0  0  0  0  0  0
    1.8233    0.4504    0.1200 C   0  0  0  0  0  0  0  0  0  0  0  0
    3.1984   -0.0067   -0.2429 C   0  0  0  0  0  0  0  0  0  0  0  0
    0.6365   -0.2522   -0.6098 C   0  0  0  0  0  0  0  0  0  0  0  0
   -0.7165    0.3114   -0.4680 C   0  0  0  0  0  0  0  0  0  0  0  0
   -3.7181    0.2456    1.0209 H   0  0  0  0  0  0  0  0  0  0  0  0
   -2.7670    1.6747    0.5278 H   0  0  0  0  0  0  0  0  0  0  0  0
   -3.8574    0.8921   -0.6337 H   0  0  0  0  0  0  0  0  0  0  0  0
   -2.3988   -0.9349   -1.0306 H   0  0  0  0  0  0  0  0  0  0  0  0
   -0.7750   -1.7360    0.5980 H   0  0  0  0  0  0  0  0  0  0  0  0
    1.2718   -1.5003    1.1328 H   0  0  0  0  0  0  0  0  0  0  0  0
    1.6914    1.5396    0.2812 H   0  0  0  0  0  0  0  0  0  0  0  0
    3.9120    0.8527   -0.2090 H   0  0  0  0  0  0  0  0  0  0  0  0
    3.6141   -0.7507    0.4845 H   0  0  0  0  0  0  0  0  0  0  0  0
    3.2765   -0.4434   -1.2527 H   0  0  0  0  0  0  0  0  0  0  0  0
    0.8915   -1.0619   -1.2837 H   0  0  0  0  0  0  0  0  0  0  0  0
   -0.6382    1.4091   -0.1857 H   0  0  0  0  0  0  0  0  0  0  0  0
  1  2  1  0
  2  3  1  0
  3  4  1  0
  4  5  1  0
  5  6  1  0
  6  7  1  0
  6  8  1  0
  8  9  1  0
  9  2  1  0
  9  3  1  0
  8  5  1  0
  1 10  1  0
  1 11  1  0
  1 12  1  0
  2 13  1  0
  3 14  1  0
  5 15  1  0
  6 16  1  0
  7 17  1  0
  7 18  1  0
  7 19  1  0
  8 20  1  0
  9 21  1  0
M  END
