
     RDKit          3D

 21 21  0  0  0  0  0  0  0  0999 V2000
    2.4392   -0.3536    0.3107 C   0  0  0  0  0  0  0  0  0  0  0  0
    1.2041    0.4896    0.1716 C   0  0  0  0  0  0  0  0  0  0  0  0
    0.4215    0.3915    1.4474 C   0  0  0  0  0  0  0  0  0  0  0  0
   -0.8125   -0.1389    1.1623 O   0  0  0  0  0  0  0  0  0  0  0  0
   -1.0415   -0.0387   -0.1901 C   0  0  0  0  0  0  0  0  0  0  0  0
   -2.0104   -1.1171   -0.5831 C   0  0  0  0  0  0  0  0  0  0  0  0
   -1.6350    1.2738   -0.5756 C   0  0  0  0  0  0  0  0  0  0  0  0
   -1.8569    2.1060    0.2907 O   0  0  0  0  0  0  0  0  0  0  0  0
    0.2994   -0.1798   -0.8422 C   0  0  0  0  0  0  0  0  0  0  0  0
    2.8711   -0.6460   -0.6581 H   0  0  0  0  0  0  0  0  0  0  0  0
    3.1657    0.2488    0.9251 H   0  0  0  0  0  0  0  0  0  0  0  0
    2.1437   -1.2702    0.8913 H   0  0  0  0  0  0  0  0  0  0  0  0
    1.4163    1.5256   -0.1378 H   0  0  0  0  0  0  0  0  0  0  0  0
    0.3180    1.3683    1.9686 H   0  0  0  0  0  0  0  0  0  0  0  0
    0.9201   -0.2885    2.1944 H   0  0  0  0  0  0  0  0  0  0  0  0
   -1.6626   -2.1241   -0.3333 H   0  0  0  0  0  0  0  0  0  0  0  0
   -2.2882   -0.9931   -1.6434 H   0  0  0  0  0  0  0  0  0  0  0  0
   -2.9456   -0.9370    0.0094 H   0  0  0  0  0  0  0  0  0  0  0  0
   -1.8839    1.5392   -1.5814 H   0  0  0  0  0  0  0  0  0  0  0  0
    0.3385    0.3822   -1.8102 H   0  0  0  0  0  0  0  0  0  0  0  0
    0.5992   -1.2379   -1.0163 H   0  0  0  0  0  0  0  0  0  0  0  0
  1  2  1  0
  2  3  1  0
  3  4  1  0
  4  5  1  0
  5  6  1  0
  5  7  1  0
  7  8  2  0
  5  9  1  0
  9  2  1  0
  1 10  1  0
  1 11  1  0
  1 12  1  0
  2 13  1  0
  3 14  1  0
  3 15  1  0
  6 16  1  0
  6 17  1  0
  6 18  1  0
  7 19  1  0
  9 20  1  0
  9 21  1  0
M  END
