
     RDKit          3D

 21 21  0  0  0  0  0  0  0  0999 V2000
    2.4742   -0.0138    0.0225 C   0  0  0  0  0  0  0  0  0  0  0  0
    1.0256    0.0840    0.4378 C   0  0  0  0  0  0  0  0  0  0  0  0
    0.3892   -1.2834    0.3188 C   0  0  0  0  0  0  0  0  0  0  0  0
   -0.9034   -1.2482   -0.4610 C   0  0  0  0  0  0  0  0  0  0  0  0
   -1.7667   -0.0925    0.0567 C   0  0  0  0  0  0  0  0  0  0  0  0
   -1.1153    1.2279   -0.3061 C   0  0  0  0  0  0  0  0  0  0  0  0
   -1.3531    2.1331    0.7372 O   0  0  0  0  0  0  0  0  0  0  0  0
    0.3233    0.9769   -0.4996 C   0  0  0  0  0  0  0  0  0  0  0  0
    0.9267    1.4876   -1.4059 O   0  0  0  0  0  0  0  0  0  0  0  0
    3.0147    0.9203    0.3372 H   0  0  0  0  0  0  0  0  0  0  0  0
    2.5012   -0.0391   -1.0857 H   0  0  0  0  0  0  0  0  0  0  0  0
    2.9745   -0.9187    0.4286 H   0  0  0  0  0  0  0  0  0  0  0  0
    0.9604    0.4682    1.4857 H   0  0  0  0  0  0  0  0  0  0  0  0
    0.1676   -1.6735    1.3372 H   0  0  0  0  0  0  0  0  0  0  0  0
    1.0730   -2.0184   -0.1701 H   0  0  0  0  0  0  0  0  0  0  0  0
   -1.4508   -2.1854   -0.2181 H   0  0  0  0  0  0  0  0  0  0  0  0
   -0.7571   -1.1799   -1.5478 H   0  0  0  0  0  0  0  0  0  0  0  0
   -1.7908   -0.1695    1.1545 H   0  0  0  0  0  0  0  0  0  0  0  0
   -2.7731   -0.1244   -0.3642 H   0  0  0  0  0  0  0  0  0  0  0  0
   -1.6081    1.6131   -1.2350 H   0  0  0  0  0  0  0  0  0  0  0  0
   -2.3121    2.0358    0.9773 H   0  0  0  0  0  0  0  0  0  0  0  0
  1  2  1  0
  2  3  1  0
  3  4  1  0
  4  5  1  0
  5  6  1  0
  6  7  1  0
  6  8  1  0
  8  9  2  0
  8  2  1  0
  1 10  1  0
  1 11  1  0
  1 12  1  0
  2 13  1  0
  3 14  1  0
  3 15  1  0
  4 16  1  0
  4 17  1  0
  5 18  1  0
  5 19  1  0
  6 20  1  0
  7 21  1  0
M  END
