
     RDKit          3D

 21 22  0  0  0  0  0  0  0  0999 V2000
    2.5996   -0.0041    0.5190 C   0  0  0  0  0  0  0  0  0  0  0  0
    1.4186   -0.1762   -0.4506 C   0  0  0  0  0  0  0  0  0  0  0  0
    0.2517   -0.7984    0.0282 C   0  0  0  0  0  0  0  0  0  0  0  0
   -1.0423   -1.1880   -0.5459 C   0  0  0  0  0  0  0  0  0  0  0  0
   -2.0836   -0.3566    0.2196 C   0  0  0  0  0  0  0  0  0  0  0  0
   -1.8249    0.9605    0.3330 O   0  0  0  0  0  0  0  0  0  0  0  0
   -0.5044    1.3468    0.5656 C   0  0  0  0  0  0  0  0  0  0  0  0
    0.3146    0.6970   -0.4638 C   0  0  0  0  0  0  0  0  0  0  0  0
   -0.2439    0.9554   -1.7448 O   0  0  0  0  0  0  0  0  0  0  0  0
    2.3388    0.7475    1.3077 H   0  0  0  0  0  0  0  0  0  0  0  0
    3.4806    0.3840   -0.0070 H   0  0  0  0  0  0  0  0  0  0  0  0
    2.8263   -0.9545    1.0374 H   0  0  0  0  0  0  0  0  0  0  0  0
    1.8357   -0.5448   -1.4353 H   0  0  0  0  0  0  0  0  0  0  0  0
    0.2087   -0.9537    1.1498 H   0  0  0  0  0  0  0  0  0  0  0  0
   -1.2778   -2.2555   -0.2651 H   0  0  0  0  0  0  0  0  0  0  0  0
   -1.1678   -1.0759   -1.6216 H   0  0  0  0  0  0  0  0  0  0  0  0
   -2.1278   -0.8064    1.2521 H   0  0  0  0  0  0  0  0  0  0  0  0
   -3.0782   -0.4975   -0.2128 H   0  0  0  0  0  0  0  0  0  0  0  0
   -0.2303    1.1099    1.6126 H   0  0  0  0  0  0  0  0  0  0  0  0
   -0.4726    2.4494    0.4413 H   0  0  0  0  0  0  0  0  0  0  0  0
   -1.2209    0.9610   -1.7196 H   0  0  0  0  0  0  0  0  0  0  0  0
  1  2  1  0
  2  3  1  0
  3  4  1  0
  4  5  1  0
  5  6  1  0
  6  7  1  0
  7  8  1  0
  8  9  1  0
  8  2  1  0
  8  3  1  0
  1 10  1  0
  1 11  1  0
  1 12  1  0
  2 13  1  0
  3 14  1  0
  4 15  1  0
  4 16  1  0
  5 17  1  0
  5 18  1  0
  7 19  1  0
  7 20  1  0
  9 21  1  0
M  END
