
     RDKit          3D

 21 23  0  0  0  0  0  0  0  0999 V2000
   -2.3363   -0.7067   -0.4963 C   0  0  0  0  0  0  0  0  0  0  0  0
   -1.1569   -0.1054    0.2618 C   0  0  0  0  0  0  0  0  0  0  0  0
   -0.4065    0.9016   -0.5573 C   0  0  0  0  0  0  0  0  0  0  0  0
    1.0407    0.7846   -0.2508 C   0  0  0  0  0  0  0  0  0  0  0  0
    1.6117    1.4463    0.9922 C   0  0  0  0  0  0  0  0  0  0  0  0
    1.4394    0.2138    1.6346 O   0  0  0  0  0  0  0  0  0  0  0  0
    1.1876   -0.5620    0.5285 C   0  0  0  0  0  0  0  0  0  0  0  0
   -0.1584   -1.1976    0.4705 C   0  0  0  0  0  0  0  0  0  0  0  0
    1.8734   -0.3471   -0.7698 C   0  0  0  0  0  0  0  0  0  0  0  0
   -2.2075   -0.4654   -1.5703 H   0  0  0  0  0  0  0  0  0  0  0  0
   -2.3385   -1.8191   -0.4342 H   0  0  0  0  0  0  0  0  0  0  0  0
   -3.2844   -0.3173   -0.0733 H   0  0  0  0  0  0  0  0  0  0  0  0
   -1.4985    0.3008    1.2498 H   0  0  0  0  0  0  0  0  0  0  0  0
   -0.7323    1.9402   -0.2751 H   0  0  0  0  0  0  0  0  0  0  0  0
   -0.6324    0.7842   -1.6175 H   0  0  0  0  0  0  0  0  0  0  0  0
    0.9827    2.2647    1.3419 H   0  0  0  0  0  0  0  0  0  0  0  0
    2.7056    1.6594    0.9173 H   0  0  0  0  0  0  0  0  0  0  0  0
   -0.1628   -1.9110   -0.3936 H   0  0  0  0  0  0  0  0  0  0  0  0
   -0.3613   -1.7877    1.4001 H   0  0  0  0  0  0  0  0  0  0  0  0
    1.4696   -0.8551   -1.6423 H   0  0  0  0  0  0  0  0  0  0  0  0
    2.9651   -0.2213   -0.7161 H   0  0  0  0  0  0  0  0  0  0  0  0
  1  2  1  0
  2  3  1  0
  3  4  1  0
  4  5  1  0
  5  6  1  0
  6  7  1  0
  7  8  1  0
  7  9  1  0
  8  2  1  0
  7  4  1  0
  9  4  1  0
  1 10  1  0
  1 11  1  0
  1 12  1  0
  2 13  1  0
  3 14  1  0
  3 15  1  0
  5 16  1  0
  5 17  1  0
  8 18  1  0
  8 19  1  0
  9 20  1  0
  9 21  1  0
M  END
