
     RDKit          3D

 19 21  0  0  0  0  0  0  0  0999 V2000
    1.9395   -0.9065    0.3859 C   0  0  0  0  0  0  0  0  0  0  0  0
    0.5086   -0.6991    0.8004 C   0  0  0  0  0  0  0  0  0  0  0  0
   -0.1750    0.5099    0.3344 C   0  0  0  0  0  0  0  0  0  0  0  0
    0.5105    1.6217   -0.3679 C   0  0  0  0  0  0  0  0  0  0  0  0
   -1.6321    0.7257    0.6317 C   0  0  0  0  0  0  0  0  0  0  0  0
   -2.5709    0.6440   -0.3890 O   0  0  0  0  0  0  0  0  0  0  0  0
   -1.9548   -0.5419   -0.0411 C   0  0  0  0  0  0  0  0  0  0  0  0
   -0.5086   -0.7783   -0.3131 C   0  0  0  0  0  0  0  0  0  0  0  0
   -0.0519   -1.1302   -1.5568 O   0  0  0  0  0  0  0  0  0  0  0  0
    2.4485    0.0141    0.0627 H   0  0  0  0  0  0  0  0  0  0  0  0
    2.5191   -1.3744    1.2120 H   0  0  0  0  0  0  0  0  0  0  0  0
    1.9228   -1.5788   -0.5105 H   0  0  0  0  0  0  0  0  0  0  0  0
    0.2003   -1.2482    1.7108 H   0  0  0  0  0  0  0  0  0  0  0  0
   -0.2404    2.1392   -1.0168 H   0  0  0  0  0  0  0  0  0  0  0  0
    1.3220    1.3036   -1.0610 H   0  0  0  0  0  0  0  0  0  0  0  0
    0.8623    2.3653    0.3851 H   0  0  0  0  0  0  0  0  0  0  0  0
   -1.9525    0.9834    1.6469 H   0  0  0  0  0  0  0  0  0  0  0  0
   -2.6068   -1.2937    0.3996 H   0  0  0  0  0  0  0  0  0  0  0  0
   -0.5406   -0.7560   -2.3133 H   0  0  0  0  0  0  0  0  0  0  0  0
  1  2  1  0
  2  3  1  0
  3  4  1  0
  3  5  1  0
  5  6  1  0
  6  7  1  0
  7  8  1  0
  8  9  1  0
  8  2  1  0
  8  3  1  0
  7  5  1  0
  1 10  1  0
  1 11  1  0
  1 12  1  0
  2 13  1  0
  4 14  1  0
  4 15  1  0
  4 16  1  0
  5 17  1  0
  7 18  1  0
  9 19  1  0
M  END
