
     RDKit          3D

 23 23  0  0  0  0  0  0  0  0999 V2000
   -2.2687    0.9807   -0.1397 C   0  0  0  0  0  0  0  0  0  0  0  0
   -1.2484   -0.0613    0.3165 C   0  0  0  0  0  0  0  0  0  0  0  0
   -1.1639   -1.1030   -0.7381 C   0  0  0  0  0  0  0  0  0  0  0  0
    0.0546   -1.0341   -1.4409 O   0  0  0  0  0  0  0  0  0  0  0  0
    1.0371   -1.3915   -0.4942 C   0  0  0  0  0  0  0  0  0  0  0  0
    1.2660   -0.1630    0.3557 C   0  0  0  0  0  0  0  0  0  0  0  0
    2.2271    0.7359   -0.4290 C   0  0  0  0  0  0  0  0  0  0  0  0
    0.0326    0.5866    0.6862 C   0  0  0  0  0  0  0  0  0  0  0  0
    0.0691    0.8863    2.0680 O   0  0  0  0  0  0  0  0  0  0  0  0
   -1.7581    1.9710   -0.1692 H   0  0  0  0  0  0  0  0  0  0  0  0
   -2.5992    0.7917   -1.1895 H   0  0  0  0  0  0  0  0  0  0  0  0
   -3.1750    0.9790    0.4757 H   0  0  0  0  0  0  0  0  0  0  0  0
   -1.6792   -0.5166    1.2559 H   0  0  0  0  0  0  0  0  0  0  0  0
   -1.3112   -2.1221   -0.3051 H   0  0  0  0  0  0  0  0  0  0  0  0
   -1.9582   -1.0112   -1.5248 H   0  0  0  0  0  0  0  0  0  0  0  0
    1.9592   -1.7280   -0.9742 H   0  0  0  0  0  0  0  0  0  0  0  0
    0.6050   -2.2218    0.1105 H   0  0  0  0  0  0  0  0  0  0  0  0
    1.8410   -0.5096    1.2530 H   0  0  0  0  0  0  0  0  0  0  0  0
    2.2124    0.4648   -1.5083 H   0  0  0  0  0  0  0  0  0  0  0  0
    1.8590    1.7975   -0.3405 H   0  0  0  0  0  0  0  0  0  0  0  0
    3.2364    0.7333   -0.0084 H   0  0  0  0  0  0  0  0  0  0  0  0
    0.0529    1.6007    0.1881 H   0  0  0  0  0  0  0  0  0  0  0  0
    0.7097    0.3345    2.5522 H   0  0  0  0  0  0  0  0  0  0  0  0
  1  2  1  0
  2  3  1  0
  3  4  1  0
  4  5  1  0
  5  6  1  0
  6  7  1  0
  6  8  1  0
  8  9  1  0
  8  2  1  0
  1 10  1  0
  1 11  1  0
  1 12  1  0
  2 13  1  0
  3 14  1  0
  3 15  1  0
  5 16  1  0
  5 17  1  0
  6 18  1  0
  7 19  1  0
  7 20  1  0
  7 21  1  0
  8 22  1  0
  9 23  1  0
M  END
