
     RDKit          3D

 20 21  0  0  0  0  0  0  0  0999 V2000
   -2.2313   -0.4348    0.0935 C   0  0  0  0  0  0  0  0  0  0  0  0
   -1.0520    0.2422   -0.6035 C   0  0  0  0  0  0  0  0  0  0  0  0
   -0.5796    1.3120    0.3186 C   0  0  0  0  0  0  0  0  0  0  0  0
    0.7238    1.5111    0.6299 C   0  0  0  0  0  0  0  0  0  0  0  0
    1.6343    0.5847   -0.0168 C   0  0  0  0  0  0  0  0  0  0  0  0
    2.3132   -0.5761    0.4017 C   0  0  0  0  0  0  0  0  0  0  0  0
    0.9214   -0.7760    0.2778 C   0  0  0  0  0  0  0  0  0  0  0  0
   -0.0193   -0.8493   -0.8365 C   0  0  0  0  0  0  0  0  0  0  0  0
   -3.1542   -0.3344   -0.5389 H   0  0  0  0  0  0  0  0  0  0  0  0
   -2.0811   -1.5105    0.2362 H   0  0  0  0  0  0  0  0  0  0  0  0
   -2.4437    0.0012    1.0833 H   0  0  0  0  0  0  0  0  0  0  0  0
   -1.4155    0.6641   -1.5678 H   0  0  0  0  0  0  0  0  0  0  0  0
   -1.3583    1.9444    0.7422 H   0  0  0  0  0  0  0  0  0  0  0  0
    0.9606    2.3184    1.3118 H   0  0  0  0  0  0  0  0  0  0  0  0
    1.7548    0.8687   -1.1054 H   0  0  0  0  0  0  0  0  0  0  0  0
    2.7878   -0.5847    1.4197 H   0  0  0  0  0  0  0  0  0  0  0  0
    2.9973   -1.0968   -0.3123 H   0  0  0  0  0  0  0  0  0  0  0  0
    0.3593   -0.8549    1.2598 H   0  0  0  0  0  0  0  0  0  0  0  0
   -0.5454   -1.8164   -0.9472 H   0  0  0  0  0  0  0  0  0  0  0  0
    0.4278   -0.6128   -1.8461 H   0  0  0  0  0  0  0  0  0  0  0  0
  1  2  1  0
  2  3  1  0
  3  4  2  0
  4  5  1  0
  5  6  1  0
  6  7  1  0
  7  8  1  0
  8  2  1  0
  7  5  1  0
  1  9  1  0
  1 10  1  0
  1 11  1  0
  2 12  1  0
  3 13  1  0
  4 14  1  0
  5 15  1  0
  6 16  1  0
  6 17  1  0
  7 18  1  0
  8 19  1  0
  8 20  1  0
M  END
