
     RDKit          3D

 19 20  0  0  0  0  0  0  0  0999 V2000
   -1.3779    1.6799    0.3128 C   0  0  0  0  0  0  0  0  0  0  0  0
   -0.7362    0.6080   -0.5001 C   0  0  0  0  0  0  0  0  0  0  0  0
   -1.3423   -0.7245   -0.0457 C   0  0  0  0  0  0  0  0  0  0  0  0
   -0.2442   -1.6840   -0.4444 C   0  0  0  0  0  0  0  0  0  0  0  0
    0.9836   -0.9456   -0.0742 C   0  0  0  0  0  0  0  0  0  0  0  0
    2.3075   -1.0678    0.2918 C   0  0  0  0  0  0  0  0  0  0  0  0
    2.7934    0.1351    0.4678 O   0  0  0  0  0  0  0  0  0  0  0  0
    1.8731    1.0382    0.2408 C   0  0  0  0  0  0  0  0  0  0  0  0
    0.7044    0.3949   -0.1073 C   0  0  0  0  0  0  0  0  0  0  0  0
   -1.1861    1.4519    1.3925 H   0  0  0  0  0  0  0  0  0  0  0  0
   -2.4679    1.6219    0.1808 H   0  0  0  0  0  0  0  0  0  0  0  0
   -0.9819    2.6899    0.1329 H   0  0  0  0  0  0  0  0  0  0  0  0
   -0.8061    0.7520   -1.5780 H   0  0  0  0  0  0  0  0  0  0  0  0
   -1.4669   -0.6831    1.0427 H   0  0  0  0  0  0  0  0  0  0  0  0
   -2.2829   -0.9183   -0.6030 H   0  0  0  0  0  0  0  0  0  0  0  0
   -0.3097   -2.6429    0.1046 H   0  0  0  0  0  0  0  0  0  0  0  0
   -0.3239   -1.8241   -1.5424 H   0  0  0  0  0  0  0  0  0  0  0  0
    2.8684   -2.0089    0.4171 H   0  0  0  0  0  0  0  0  0  0  0  0
    1.9955    2.1275    0.3114 H   0  0  0  0  0  0  0  0  0  0  0  0
  1  2  1  0
  2  3  1  0
  3  4  1  0
  4  5  1  0
  5  6  2  0
  6  7  1  0
  7  8  1  0
  8  9  2  0
  9  2  1  0
  9  5  1  0
  1 10  1  0
  1 11  1  0
  1 12  1  0
  2 13  1  0
  3 14  1  0
  3 15  1  0
  4 16  1  0
  4 17  1  0
  6 18  1  0
  8 19  1  0
M  END
