
     RDKit          3D

 23 25  0  0  0  0  0  0  0  0999 V2000
   -2.7125    0.1311    0.4891 C   0  0  0  0  0  0  0  0  0  0  0  0
   -1.4128   -0.2615   -0.1499 C   0  0  0  0  0  0  0  0  0  0  0  0
   -1.0452    0.5916   -1.3288 C   0  0  0  0  0  0  0  0  0  0  0  0
    0.4614    0.7807   -1.2075 C   0  0  0  0  0  0  0  0  0  0  0  0
    0.6870    0.8218    0.2217 C   0  0  0  0  0  0  0  0  0  0  0  0
   -0.2418   -0.1915    0.8074 C   0  0  0  0  0  0  0  0  0  0  0  0
    0.7723   -1.2593    0.3882 C   0  0  0  0  0  0  0  0  0  0  0  0
    1.2994   -0.2848   -0.6171 C   0  0  0  0  0  0  0  0  0  0  0  0
    2.7739   -0.1894   -0.7925 C   0  0  0  0  0  0  0  0  0  0  0  0
   -2.4881    0.6603    1.4352 H   0  0  0  0  0  0  0  0  0  0  0  0
   -3.2973   -0.7837    0.7985 H   0  0  0  0  0  0  0  0  0  0  0  0
   -3.3730    0.6873   -0.1875 H   0  0  0  0  0  0  0  0  0  0  0  0
   -1.5488   -1.3203   -0.5197 H   0  0  0  0  0  0  0  0  0  0  0  0
   -1.3445    0.1933   -2.2963 H   0  0  0  0  0  0  0  0  0  0  0  0
   -1.5066    1.6025   -1.1756 H   0  0  0  0  0  0  0  0  0  0  0  0
    0.9651    1.4986   -1.8515 H   0  0  0  0  0  0  0  0  0  0  0  0
    1.2817    1.5008    0.7914 H   0  0  0  0  0  0  0  0  0  0  0  0
   -0.4677   -0.1431    1.8630 H   0  0  0  0  0  0  0  0  0  0  0  0
    0.2829   -2.1429   -0.0636 H   0  0  0  0  0  0  0  0  0  0  0  0
    1.4260   -1.4653    1.2583 H   0  0  0  0  0  0  0  0  0  0  0  0
    3.1659   -0.7364   -1.6624 H   0  0  0  0  0  0  0  0  0  0  0  0
    3.2560   -0.5600    0.1498 H   0  0  0  0  0  0  0  0  0  0  0  0
    3.0667    0.8703   -0.9017 H   0  0  0  0  0  0  0  0  0  0  0  0
  1  2  1  0
  2  3  1  0
  3  4  1  0
  4  5  1  0
  5  6  1  0
  6  7  1  0
  7  8  1  0
  8  9  1  0
  6  2  1  0
  8  4  1  0
  8  5  1  0
  1 10  1  0
  1 11  1  0
  1 12  1  0
  2 13  1  0
  3 14  1  0
  3 15  1  0
  4 16  1  0
  5 17  1  0
  6 18  1  0
  7 19  1  0
  7 20  1  0
  9 21  1  0
  9 22  1  0
  9 23  1  0
M  END
