
     RDKit          3D

 18 18  0  0  0  0  0  0  0  0999 V2000
   -1.7585   -0.4720    0.7599 C   0  0  0  0  0  0  0  0  0  0  0  0
   -0.9209    0.0688   -0.3996 C   0  0  0  0  0  0  0  0  0  0  0  0
   -0.3235    1.3631   -0.0126 C   0  0  0  0  0  0  0  0  0  0  0  0
    0.9393    1.3324    0.4961 O   0  0  0  0  0  0  0  0  0  0  0  0
    1.8262    0.5127   -0.1657 C   0  0  0  0  0  0  0  0  0  0  0  0
    1.3412   -0.9123    0.0401 C   0  0  0  0  0  0  0  0  0  0  0  0
    0.0550   -0.9900   -0.7427 C   0  0  0  0  0  0  0  0  0  0  0  0
   -0.1381   -1.8576   -1.5777 O   0  0  0  0  0  0  0  0  0  0  0  0
   -2.4261    0.3249    1.1500 H   0  0  0  0  0  0  0  0  0  0  0  0
   -1.0492   -0.8461    1.5518 H   0  0  0  0  0  0  0  0  0  0  0  0
   -2.3832   -1.3008    0.3625 H   0  0  0  0  0  0  0  0  0  0  0  0
   -1.6430    0.1765   -1.2501 H   0  0  0  0  0  0  0  0  0  0  0  0
   -0.3729    2.0524   -0.8980 H   0  0  0  0  0  0  0  0  0  0  0  0
   -0.9836    1.8224    0.7826 H   0  0  0  0  0  0  0  0  0  0  0  0
    2.8227    0.6243    0.2937 H   0  0  0  0  0  0  0  0  0  0  0  0
    1.9052    0.7637   -1.2485 H   0  0  0  0  0  0  0  0  0  0  0  0
    1.0512   -0.9942    1.1004 H   0  0  0  0  0  0  0  0  0  0  0  0
    2.0581   -1.6683   -0.2422 H   0  0  0  0  0  0  0  0  0  0  0  0
  1  2  1  0
  2  3  1  0
  3  4  1  0
  4  5  1  0
  5  6  1  0
  6  7  1  0
  7  8  2  0
  7  2  1  0
  1  9  1  0
  1 10  1  0
  1 11  1  0
  2 12  1  0
  3 13  1  0
  3 14  1  0
  5 15  1  0
  5 16  1  0
  6 17  1  0
  6 18  1  0
M  END
