
     RDKit          3D

 25 26  0  0  0  0  0  0  0  0999 V2000
   -2.3966   -0.4303    0.2171 C   0  0  0  0  0  0  0  0  0  0  0  0
   -0.9252   -0.6120    0.3322 C   0  0  0  0  0  0  0  0  0  0  0  0
   -0.2328   -0.5412   -1.0290 C   0  0  0  0  0  0  0  0  0  0  0  0
    1.1021   -1.2044   -0.8384 C   0  0  0  0  0  0  0  0  0  0  0  0
    1.9140   -0.4830    0.1691 C   0  0  0  0  0  0  0  0  0  0  0  0
    1.1849    0.0964    1.3134 C   0  0  0  0  0  0  0  0  0  0  0  0
   -0.2209    0.5133    1.0497 C   0  0  0  0  0  0  0  0  0  0  0  0
   -0.2850    1.6326    0.0453 C   0  0  0  0  0  0  0  0  0  0  0  0
   -0.0022    0.9509   -1.2503 C   0  0  0  0  0  0  0  0  0  0  0  0
   -2.6011    0.0812   -0.7621 H   0  0  0  0  0  0  0  0  0  0  0  0
   -2.8505   -1.4591    0.1124 H   0  0  0  0  0  0  0  0  0  0  0  0
   -2.8392    0.1089    1.0577 H   0  0  0  0  0  0  0  0  0  0  0  0
   -0.6527   -1.5498    0.8749 H   0  0  0  0  0  0  0  0  0  0  0  0
   -0.8371   -0.9492   -1.8352 H   0  0  0  0  0  0  0  0  0  0  0  0
    1.6467   -1.2501   -1.8071 H   0  0  0  0  0  0  0  0  0  0  0  0
    0.8816   -2.2600   -0.5030 H   0  0  0  0  0  0  0  0  0  0  0  0
    2.5294    0.2998   -0.3439 H   0  0  0  0  0  0  0  0  0  0  0  0
    2.6760   -1.2128    0.5741 H   0  0  0  0  0  0  0  0  0  0  0  0
    1.1650   -0.5851    2.2098 H   0  0  0  0  0  0  0  0  0  0  0  0
    1.7450    1.0190    1.6479 H   0  0  0  0  0  0  0  0  0  0  0  0
   -0.7069    0.7984    1.9896 H   0  0  0  0  0  0  0  0  0  0  0  0
   -1.2444    2.1856    0.0691 H   0  0  0  0  0  0  0  0  0  0  0  0
    0.5018    2.3694    0.3144 H   0  0  0  0  0  0  0  0  0  0  0  0
    1.0640    1.1439   -1.5227 H   0  0  0  0  0  0  0  0  0  0  0  0
   -0.6158    1.3374   -2.0851 H   0  0  0  0  0  0  0  0  0  0  0  0
  1  2  1  0
  2  3  1  0
  3  4  1  0
  4  5  1  0
  5  6  1  0
  6  7  1  0
  7  8  1  0
  8  9  1  0
  7  2  1  0
  9  3  1  0
  1 10  1  0
  1 11  1  0
  1 12  1  0
  2 13  1  0
  3 14  1  0
  4 15  1  0
  4 16  1  0
  5 17  1  0
  5 18  1  0
  6 19  1  0
  6 20  1  0
  7 21  1  0
  8 22  1  0
  8 23  1  0
  9 24  1  0
  9 25  1  0
M  END
