
     RDKit          3D

 18 19  0  0  0  0  0  0  0  0999 V2000
    1.6757   -0.6234    0.5650 C   0  0  0  0  0  0  0  0  0  0  0  0
    1.0245    0.2480   -0.4825 C   0  0  0  0  0  0  0  0  0  0  0  0
    0.3123    1.4549    0.1008 C   0  0  0  0  0  0  0  0  0  0  0  0
   -1.0142    0.8876   -0.3522 C   0  0  0  0  0  0  0  0  0  0  0  0
   -1.6909    0.2820    0.6834 O   0  0  0  0  0  0  0  0  0  0  0  0
   -1.6860   -1.0736    0.4863 C   0  0  0  0  0  0  0  0  0  0  0  0
   -0.8092   -1.3758   -0.5286 O   0  0  0  0  0  0  0  0  0  0  0  0
   -0.2757   -0.2268   -1.0279 C   0  0  0  0  0  0  0  0  0  0  0  0
    2.4835    0.0117    1.0311 H   0  0  0  0  0  0  0  0  0  0  0  0
    2.1318   -1.4928    0.0693 H   0  0  0  0  0  0  0  0  0  0  0  0
    0.9960   -0.8805    1.3943 H   0  0  0  0  0  0  0  0  0  0  0  0
    1.8021    0.5357   -1.2392 H   0  0  0  0  0  0  0  0  0  0  0  0
    0.4644    1.5089    1.1923 H   0  0  0  0  0  0  0  0  0  0  0  0
    0.5845    2.3806   -0.4285 H   0  0  0  0  0  0  0  0  0  0  0  0
   -1.6054    1.5387   -1.0165 H   0  0  0  0  0  0  0  0  0  0  0  0
   -1.3541   -1.6530    1.3915 H   0  0  0  0  0  0  0  0  0  0  0  0
   -2.7296   -1.4340    0.2945 H   0  0  0  0  0  0  0  0  0  0  0  0
   -0.3097   -0.0879   -2.1332 H   0  0  0  0  0  0  0  0  0  0  0  0
  1  2  1  0
  2  3  1  0
  3  4  1  0
  4  5  1  0
  5  6  1  0
  6  7  1  0
  7  8  1  0
  8  2  1  0
  8  4  1  0
  1  9  1  0
  1 10  1  0
  1 11  1  0
  2 12  1  0
  3 13  1  0
  3 14  1  0
  4 15  1  0
  6 16  1  0
  6 17  1  0
  8 18  1  0
M  END
