
     RDKit          3D

 19 21  0  0  0  0  0  0  0  0999 V2000
   -1.4878   -1.5438    0.1066 C   0  0  0  0  0  0  0  0  0  0  0  0
   -1.1552   -0.1521   -0.3240 C   0  0  0  0  0  0  0  0  0  0  0  0
   -1.2693    0.8918    0.7570 C   0  0  0  0  0  0  0  0  0  0  0  0
   -0.4056    1.7663   -0.0907 C   0  0  0  0  0  0  0  0  0  0  0  0
    0.1882    0.3689   -0.0801 C   0  0  0  0  0  0  0  0  0  0  0  0
    1.3917    0.0140   -0.6564 C   0  0  0  0  0  0  0  0  0  0  0  0
    2.5242   -0.5410    0.1773 C   0  0  0  0  0  0  0  0  0  0  0  0
    2.5367    0.7861   -0.2578 O   0  0  0  0  0  0  0  0  0  0  0  0
   -0.1028    0.3625    1.2794 O   0  0  0  0  0  0  0  0  0  0  0  0
   -1.1634   -1.7319    1.1446 H   0  0  0  0  0  0  0  0  0  0  0  0
   -2.6082   -1.6527    0.0106 H   0  0  0  0  0  0  0  0  0  0  0  0
   -1.0769   -2.2817   -0.6217 H   0  0  0  0  0  0  0  0  0  0  0  0
   -1.5978    0.1213   -1.2907 H   0  0  0  0  0  0  0  0  0  0  0  0
   -2.1065    1.1453    1.2554 H   0  0  0  0  0  0  0  0  0  0  0  0
    0.2011    2.5274    0.4106 H   0  0  0  0  0  0  0  0  0  0  0  0
   -0.9090    2.0460   -1.0258 H   0  0  0  0  0  0  0  0  0  0  0  0
    1.4038   -0.3025   -1.7397 H   0  0  0  0  0  0  0  0  0  0  0  0
    3.3147   -1.1511   -0.3097 H   0  0  0  0  0  0  0  0  0  0  0  0
    2.3221   -0.6729    1.2551 H   0  0  0  0  0  0  0  0  0  0  0  0
  1  2  1  0
  2  3  1  0
  3  4  1  0
  4  5  1  0
  5  6  1  0
  6  7  1  0
  7  8  1  0
  5  9  1  0
  5  2  1  0
  8  6  1  0
  9  3  1  0
  1 10  1  0
  1 11  1  0
  1 12  1  0
  2 13  1  0
  3 14  1  0
  4 15  1  0
  4 16  1  0
  6 17  1  0
  7 18  1  0
  7 19  1  0
M  END
