
     RDKit          3D

 21 23  0  0  0  0  0  0  0  0999 V2000
   -2.4079   -0.0496   -0.2075 C   0  0  0  0  0  0  0  0  0  0  0  0
   -0.9972   -0.0371    0.2578 C   0  0  0  0  0  0  0  0  0  0  0  0
   -0.4445    1.3752    0.4379 C   0  0  0  0  0  0  0  0  0  0  0  0
    0.9920    1.1032    0.6519 C   0  0  0  0  0  0  0  0  0  0  0  0
    2.0242    0.1961    0.1112 C   0  0  0  0  0  0  0  0  0  0  0  0
    1.9410   -1.2950    0.2587 C   0  0  0  0  0  0  0  0  0  0  0  0
    0.7809   -1.7069   -0.2333 C   0  0  0  0  0  0  0  0  0  0  0  0
   -0.0115   -0.5719   -0.7464 C   0  0  0  0  0  0  0  0  0  0  0  0
    1.0468    0.5441   -0.7195 C   0  0  0  0  0  0  0  0  0  0  0  0
   -3.0732   -0.0534    0.6945 H   0  0  0  0  0  0  0  0  0  0  0  0
   -2.5975   -1.0277   -0.7230 H   0  0  0  0  0  0  0  0  0  0  0  0
   -2.6442    0.8157   -0.8399 H   0  0  0  0  0  0  0  0  0  0  0  0
   -0.8656   -0.5279    1.2654 H   0  0  0  0  0  0  0  0  0  0  0  0
   -0.9074    1.8965    1.2623 H   0  0  0  0  0  0  0  0  0  0  0  0
   -0.6830    1.9941   -0.4690 H   0  0  0  0  0  0  0  0  0  0  0  0
    1.0690    0.7720    1.6734 H   0  0  0  0  0  0  0  0  0  0  0  0
    3.0533    0.6473    0.1402 H   0  0  0  0  0  0  0  0  0  0  0  0
    2.6847   -1.9450    0.6884 H   0  0  0  0  0  0  0  0  0  0  0  0
    0.4542   -2.7373   -0.2576 H   0  0  0  0  0  0  0  0  0  0  0  0
   -0.4070   -0.7000   -1.7476 H   0  0  0  0  0  0  0  0  0  0  0  0
    0.9929    1.3076   -1.4979 H   0  0  0  0  0  0  0  0  0  0  0  0
  1  2  1  0
  2  3  1  0
  3  4  1  0
  4  5  1  0
  5  6  1  0
  6  7  2  0
  7  8  1  0
  8  9  1  0
  8  2  1  0
  9  4  1  0
  9  5  1  0
  1 10  1  0
  1 11  1  0
  1 12  1  0
  2 13  1  0
  3 14  1  0
  3 15  1  0
  4 16  1  0
  5 17  1  0
  6 18  1  0
  7 19  1  0
  8 20  1  0
  9 21  1  0
M  END
