
     RDKit          3D

 17 17  0  0  0  0  0  0  0  0999 V2000
    1.4867   -0.9881    0.0882 C   0  0  0  0  0  0  0  0  0  0  0  0
    0.8026    0.2423   -0.4074 C   0  0  0  0  0  0  0  0  0  0  0  0
    0.7796    1.3488    0.5862 C   0  0  0  0  0  0  0  0  0  0  0  0
    1.4984    2.2598    0.9382 O   0  0  0  0  0  0  0  0  0  0  0  0
   -0.5583    0.8670    1.0051 C   0  0  0  0  0  0  0  0  0  0  0  0
   -0.6994    0.2397   -0.3796 C   0  0  0  0  0  0  0  0  0  0  0  0
   -1.2259    1.1325   -1.2743 O   0  0  0  0  0  0  0  0  0  0  0  0
   -1.3464   -1.0905   -0.3302 C   0  0  0  0  0  0  0  0  0  0  0  0
   -2.2939   -1.4200   -1.0241 O   0  0  0  0  0  0  0  0  0  0  0  0
    2.5289   -0.9917   -0.3421 H   0  0  0  0  0  0  0  0  0  0  0  0
    1.6556   -0.8966    1.1966 H   0  0  0  0  0  0  0  0  0  0  0  0
    1.0066   -1.9300   -0.1649 H   0  0  0  0  0  0  0  0  0  0  0  0
    1.1847    0.5451   -1.4203 H   0  0  0  0  0  0  0  0  0  0  0  0
   -0.5152    0.0511    1.7530 H   0  0  0  0  0  0  0  0  0  0  0  0
   -1.3228    1.6297    1.1615 H   0  0  0  0  0  0  0  0  0  0  0  0
   -2.0206    0.8286   -1.7507 H   0  0  0  0  0  0  0  0  0  0  0  0
   -0.9606   -1.8280    0.3650 H   0  0  0  0  0  0  0  0  0  0  0  0
  1  2  1  0
  2  3  1  0
  3  4  2  0
  3  5  1  0
  5  6  1  0
  6  7  1  0
  6  8  1  0
  8  9  2  0
  6  2  1  0
  1 10  1  0
  1 11  1  0
  1 12  1  0
  2 13  1  0
  5 14  1  0
  5 15  1  0
  7 16  1  0
  8 17  1  0
M  END
