
     RDKit          3D

 21 22  0  0  0  0  0  0  0  0999 V2000
    2.3792   -0.9429    0.2025 C   0  0  0  0  0  0  0  0  0  0  0  0
    0.9310   -0.6857   -0.0564 C   0  0  0  0  0  0  0  0  0  0  0  0
    0.0548   -0.4748    1.1420 C   0  0  0  0  0  0  0  0  0  0  0  0
    0.7669    0.8166    1.3035 C   0  0  0  0  0  0  0  0  0  0  0  0
    1.2351    1.4338    2.2115 O   0  0  0  0  0  0  0  0  0  0  0  0
    0.5114    0.7545   -0.1416 C   0  0  0  0  0  0  0  0  0  0  0  0
   -0.8654    0.2689    0.2221 C   0  0  0  0  0  0  0  0  0  0  0  0
   -1.5351   -0.6307   -0.7593 C   0  0  0  0  0  0  0  0  0  0  0  0
   -1.7259    1.3280    0.8511 C   0  0  0  0  0  0  0  0  0  0  0  0
    2.7532   -0.2849    1.0117 H   0  0  0  0  0  0  0  0  0  0  0  0
    2.9302   -0.7874   -0.7510 H   0  0  0  0  0  0  0  0  0  0  0  0
    2.4761   -2.0336    0.4680 H   0  0  0  0  0  0  0  0  0  0  0  0
    0.5496   -1.3123   -0.8609 H   0  0  0  0  0  0  0  0  0  0  0  0
   -0.1817   -1.1298    1.8577 H   0  0  0  0  0  0  0  0  0  0  0  0
    0.7524    1.4180   -0.8485 H   0  0  0  0  0  0  0  0  0  0  0  0
   -1.1774   -0.4068   -1.7797 H   0  0  0  0  0  0  0  0  0  0  0  0
   -1.4175   -1.7228   -0.5079 H   0  0  0  0  0  0  0  0  0  0  0  0
   -2.6454   -0.4542   -0.6626 H   0  0  0  0  0  0  0  0  0  0  0  0
   -1.1543    1.8694    1.6037 H   0  0  0  0  0  0  0  0  0  0  0  0
   -2.6660    0.9056    1.2168 H   0  0  0  0  0  0  0  0  0  0  0  0
   -1.9712    2.0713    0.0373 H   0  0  0  0  0  0  0  0  0  0  0  0
  1  2  1  0
  2  3  1  0
  3  4  1  0
  4  5  2  0
  4  6  1  0
  6  7  1  0
  7  8  1  0
  7  9  1  0
  6  2  1  0
  7  3  1  0
  1 10  1  0
  1 11  1  0
  1 12  1  0
  2 13  1  0
  3 14  1  0
  6 15  1  0
  8 16  1  0
  8 17  1  0
  8 18  1  0
  9 19  1  0
  9 20  1  0
  9 21  1  0
M  END
