
     RDKit          3D

 20 20  0  0  0  0  0  0  0  0999 V2000
    1.9376   -0.7673    0.5021 C   0  0  0  0  0  0  0  0  0  0  0  0
    0.9724    0.0767   -0.3415 C   0  0  0  0  0  0  0  0  0  0  0  0
    0.5464    1.2917    0.4085 C   0  0  0  0  0  0  0  0  0  0  0  0
   -0.8105    1.7679    0.0852 C   0  0  0  0  0  0  0  0  0  0  0  0
   -1.7724    0.9403   -0.2236 C   0  0  0  0  0  0  0  0  0  0  0  0
   -1.4685   -0.5179   -0.2435 C   0  0  0  0  0  0  0  0  0  0  0  0
   -1.6192   -1.1037    1.0138 O   0  0  0  0  0  0  0  0  0  0  0  0
   -0.1118   -0.8049   -0.8168 C   0  0  0  0  0  0  0  0  0  0  0  0
    1.7646   -0.5785    1.5924 H   0  0  0  0  0  0  0  0  0  0  0  0
    2.9914   -0.5373    0.2512 H   0  0  0  0  0  0  0  0  0  0  0  0
    1.7922   -1.8467    0.2546 H   0  0  0  0  0  0  0  0  0  0  0  0
    1.5761    0.4048   -1.2344 H   0  0  0  0  0  0  0  0  0  0  0  0
    1.2544    2.1393    0.1696 H   0  0  0  0  0  0  0  0  0  0  0  0
    0.6528    1.1704    1.5265 H   0  0  0  0  0  0  0  0  0  0  0  0
   -1.0472    2.8359    0.0960 H   0  0  0  0  0  0  0  0  0  0  0  0
   -2.7625    1.2912   -0.4593 H   0  0  0  0  0  0  0  0  0  0  0  0
   -2.2108   -1.0364   -0.9068 H   0  0  0  0  0  0  0  0  0  0  0  0
   -1.5630   -2.0798    0.8720 H   0  0  0  0  0  0  0  0  0  0  0  0
    0.1025   -1.8870   -0.6089 H   0  0  0  0  0  0  0  0  0  0  0  0
   -0.2247   -0.7588   -1.9371 H   0  0  0  0  0  0  0  0  0  0  0  0
  1  2  1  0
  2  3  1  0
  3  4  1  0
  4  5  2  0
  5  6  1  0
  6  7  1  0
  6  8  1  0
  8  2  1  0
  1  9  1  0
  1 10  1  0
  1 11  1  0
  2 12  1  0
  3 13  1  0
  3 14  1  0
  4 15  1  0
  5 16  1  0
  6 17  1  0
  7 18  1  0
  8 19  1  0
  8 20  1  0
M  END
