
     RDKit          3D

 21 21  0  0  0  0  0  0  0  0999 V2000
    2.3925   -0.0211   -0.0595 C   0  0  0  0  0  0  0  0  0  0  0  0
    0.9630   -0.1166   -0.6079 C   0  0  0  0  0  0  0  0  0  0  0  0
    0.3042   -1.2666    0.0528 C   0  0  0  0  0  0  0  0  0  0  0  0
   -0.7844   -0.8783    1.0234 C   0  0  0  0  0  0  0  0  0  0  0  0
   -1.9023   -0.3055    0.2207 C   0  0  0  0  0  0  0  0  0  0  0  0
   -2.8414   -1.0564    0.0905 O   0  0  0  0  0  0  0  0  0  0  0  0
   -1.9921    1.0250   -0.4111 C   0  0  0  0  0  0  0  0  0  0  0  0
   -0.8519    1.3990   -1.0914 O   0  0  0  0  0  0  0  0  0  0  0  0
    0.3153    1.2124   -0.3589 C   0  0  0  0  0  0  0  0  0  0  0  0
    2.2871    0.2060    1.0121 H   0  0  0  0  0  0  0  0  0  0  0  0
    2.8158   -1.0511   -0.1843 H   0  0  0  0  0  0  0  0  0  0  0  0
    2.9027    0.7380   -0.6509 H   0  0  0  0  0  0  0  0  0  0  0  0
    0.9982   -0.2517   -1.7241 H   0  0  0  0  0  0  0  0  0  0  0  0
   -0.1991   -1.8900   -0.7408 H   0  0  0  0  0  0  0  0  0  0  0  0
    0.9999   -1.9504    0.5625 H   0  0  0  0  0  0  0  0  0  0  0  0
   -0.3924   -0.1764    1.7783 H   0  0  0  0  0  0  0  0  0  0  0  0
   -1.1126   -1.7819    1.5712 H   0  0  0  0  0  0  0  0  0  0  0  0
   -2.3156    1.7432    0.3612 H   0  0  0  0  0  0  0  0  0  0  0  0
   -2.8164    0.9803   -1.1824 H   0  0  0  0  0  0  0  0  0  0  0  0
    0.1925    1.4558    0.7036 H   0  0  0  0  0  0  0  0  0  0  0  0
    1.0371    1.9861   -0.7596 H   0  0  0  0  0  0  0  0  0  0  0  0
  1  2  1  0
  2  3  1  0
  3  4  1  0
  4  5  1  0
  5  6  2  0
  5  7  1  0
  7  8  1  0
  8  9  1  0
  9  2  1  0
  1 10  1  0
  1 11  1  0
  1 12  1  0
  2 13  1  0
  3 14  1  0
  3 15  1  0
  4 16  1  0
  4 17  1  0
  7 18  1  0
  7 19  1  0
  9 20  1  0
  9 21  1  0
M  END
