
     RDKit          3D

 19 19  0  0  0  0  0  0  0  0999 V2000
   -2.6775    0.0784   -0.4640 C   0  0  0  0  0  0  0  0  0  0  0  0
   -1.4242   -0.4822    0.2162 C   0  0  0  0  0  0  0  0  0  0  0  0
   -0.8100    0.4964    1.1874 C   0  0  0  0  0  0  0  0  0  0  0  0
   -0.1399    0.1594   -0.1271 C   0  0  0  0  0  0  0  0  0  0  0  0
   -0.1622    1.0988   -1.1496 O   0  0  0  0  0  0  0  0  0  0  0  0
    1.1713   -0.5639    0.0135 C   0  0  0  0  0  0  0  0  0  0  0  0
    2.1641    0.4105    0.2824 O   0  0  0  0  0  0  0  0  0  0  0  0
    3.4921    0.0858    0.4684 C   0  0  0  0  0  0  0  0  0  0  0  0
    3.8082   -1.1299    0.3912 O   0  0  0  0  0  0  0  0  0  0  0  0
   -3.1424   -0.6827   -1.0948 H   0  0  0  0  0  0  0  0  0  0  0  0
   -2.3764    0.9547   -1.1076 H   0  0  0  0  0  0  0  0  0  0  0  0
   -3.3071    0.4807    0.3321 H   0  0  0  0  0  0  0  0  0  0  0  0
   -1.5102   -1.5357    0.5055 H   0  0  0  0  0  0  0  0  0  0  0  0
   -1.2296    1.5056    1.3053 H   0  0  0  0  0  0  0  0  0  0  0  0
   -0.4223    0.0426    2.1168 H   0  0  0  0  0  0  0  0  0  0  0  0
   -0.3203    0.6328   -1.9999 H   0  0  0  0  0  0  0  0  0  0  0  0
    1.4510   -1.1406   -0.8930 H   0  0  0  0  0  0  0  0  0  0  0  0
    1.1753   -1.2563    0.8939 H   0  0  0  0  0  0  0  0  0  0  0  0
    4.2601    0.8458    0.6771 H   0  0  0  0  0  0  0  0  0  0  0  0
  1  2  1  0
  2  3  1  0
  3  4  1  0
  4  5  1  0
  4  6  1  0
  6  7  1  0
  7  8  1  0
  8  9  2  0
  4  2  1  0
  1 10  1  0
  1 11  1  0
  1 12  1  0
  2 13  1  0
  3 14  1  0
  3 15  1  0
  5 16  1  0
  6 17  1  0
  6 18  1  0
  8 19  1  0
M  END
