
     RDKit          3D

 19 19  0  0  0  0  0  0  0  0999 V2000
   -2.3173   -1.0275   -0.2359 C   0  0  0  0  0  0  0  0  0  0  0  0
   -1.0819   -0.2795    0.1190 C   0  0  0  0  0  0  0  0  0  0  0  0
   -0.8076    0.8974   -0.7957 C   0  0  0  0  0  0  0  0  0  0  0  0
    0.6373    1.2256   -0.3977 C   0  0  0  0  0  0  0  0  0  0  0  0
    1.0788   -0.0526    0.2403 C   0  0  0  0  0  0  0  0  0  0  0  0
    2.4359   -0.5127   -0.2109 C   0  0  0  0  0  0  0  0  0  0  0  0
    0.0816   -1.0037    0.0153 O   0  0  0  0  0  0  0  0  0  0  0  0
   -3.1920   -0.3869    0.0624 H   0  0  0  0  0  0  0  0  0  0  0  0
   -2.3128   -1.2210   -1.3210 H   0  0  0  0  0  0  0  0  0  0  0  0
   -2.3782   -1.9269    0.3863 H   0  0  0  0  0  0  0  0  0  0  0  0
   -1.1628    0.1335    1.1527 H   0  0  0  0  0  0  0  0  0  0  0  0
   -1.4858    1.7373   -0.6179 H   0  0  0  0  0  0  0  0  0  0  0  0
   -0.8499    0.6040   -1.8675 H   0  0  0  0  0  0  0  0  0  0  0  0
    1.2385    1.5546   -1.2437 H   0  0  0  0  0  0  0  0  0  0  0  0
    0.5312    2.0186    0.3972 H   0  0  0  0  0  0  0  0  0  0  0  0
    1.1346    0.0603    1.3584 H   0  0  0  0  0  0  0  0  0  0  0  0
    3.2364   -0.1832    0.5021 H   0  0  0  0  0  0  0  0  0  0  0  0
    2.7002   -0.0311   -1.1809 H   0  0  0  0  0  0  0  0  0  0  0  0
    2.5138   -1.6063   -0.3425 H   0  0  0  0  0  0  0  0  0  0  0  0
  1  2  1  0
  2  3  1  0
  3  4  1  0
  4  5  1  0
  5  6  1  0
  5  7  1  0
  7  2  1  0
  1  8  1  0
  1  9  1  0
  1 10  1  0
  2 11  1  0
  3 12  1  0
  3 13  1  0
  4 14  1  0
  4 15  1  0
  5 16  1  0
  6 17  1  0
  6 18  1  0
  6 19  1  0
M  END
