
     RDKit          3D

 23 24  0  0  0  0  0  0  0  0999 V2000
   -2.4106   -0.5717   -0.6310 C   0  0  0  0  0  0  0  0  0  0  0  0
   -1.2187   -0.3325    0.2752 C   0  0  0  0  0  0  0  0  0  0  0  0
   -1.1486    1.0847    0.7725 C   0  0  0  0  0  0  0  0  0  0  0  0
    0.2638    1.5534    0.5687 C   0  0  0  0  0  0  0  0  0  0  0  0
    0.9273    0.5917   -0.3794 C   0  0  0  0  0  0  0  0  0  0  0  0
    2.0434   -0.2227    0.2113 C   0  0  0  0  0  0  0  0  0  0  0  0
    3.1685   -0.3816   -0.5639 O   0  0  0  0  0  0  0  0  0  0  0  0
    1.0918   -1.4119    0.2322 C   0  0  0  0  0  0  0  0  0  0  0  0
    0.0407   -0.6108   -0.4745 C   0  0  0  0  0  0  0  0  0  0  0  0
   -3.0237    0.3445   -0.7688 H   0  0  0  0  0  0  0  0  0  0  0  0
   -3.1091   -1.3354   -0.2097 H   0  0  0  0  0  0  0  0  0  0  0  0
   -2.0917   -0.9711   -1.6279 H   0  0  0  0  0  0  0  0  0  0  0  0
   -1.3491   -0.9994    1.1596 H   0  0  0  0  0  0  0  0  0  0  0  0
   -1.8984    1.6698    0.2157 H   0  0  0  0  0  0  0  0  0  0  0  0
   -1.3812    1.1473    1.8629 H   0  0  0  0  0  0  0  0  0  0  0  0
    0.8236    1.5147    1.5239 H   0  0  0  0  0  0  0  0  0  0  0  0
    0.3364    2.5641    0.1234 H   0  0  0  0  0  0  0  0  0  0  0  0
    1.2409    1.0389   -1.3534 H   0  0  0  0  0  0  0  0  0  0  0  0
    2.3287    0.1284    1.2342 H   0  0  0  0  0  0  0  0  0  0  0  0
    3.1368    0.0788   -1.4368 H   0  0  0  0  0  0  0  0  0  0  0  0
    0.8532   -1.7843    1.2329 H   0  0  0  0  0  0  0  0  0  0  0  0
    1.5070   -2.2004   -0.4470 H   0  0  0  0  0  0  0  0  0  0  0  0
   -0.1313   -0.8944   -1.5199 H   0  0  0  0  0  0  0  0  0  0  0  0
  1  2  1  0
  2  3  1  0
  3  4  1  0
  4  5  1  0
  5  6  1  0
  6  7  1  0
  6  8  1  0
  8  9  1  0
  9  2  1  0
  9  5  1  0
  1 10  1  0
  1 11  1  0
  1 12  1  0
  2 13  1  0
  3 14  1  0
  3 15  1  0
  4 16  1  0
  4 17  1  0
  5 18  1  0
  6 19  1  0
  7 20  1  0
  8 21  1  0
  8 22  1  0
  9 23  1  0
M  END
