
     RDKit          3D

 18 18  0  0  0  0  0  0  0  0999 V2000
    2.3709    0.2672   -0.0815 C   0  0  0  0  0  0  0  0  0  0  0  0
    0.9579   -0.1879   -0.0965 C   0  0  0  0  0  0  0  0  0  0  0  0
   -0.0208    0.8846    0.3585 C   0  0  0  0  0  0  0  0  0  0  0  0
   -1.3426    0.2889   -0.1353 C   0  0  0  0  0  0  0  0  0  0  0  0
   -2.0332   -0.2832    1.0203 C   0  0  0  0  0  0  0  0  0  0  0  0
   -1.4348   -1.0267    1.7711 O   0  0  0  0  0  0  0  0  0  0  0  0
   -0.8409   -0.7901   -1.0973 C   0  0  0  0  0  0  0  0  0  0  0  0
    0.4768   -0.4292   -1.4025 O   0  0  0  0  0  0  0  0  0  0  0  0
    2.9023   -0.2371    0.7509 H   0  0  0  0  0  0  0  0  0  0  0  0
    2.8352    0.0848   -1.0677 H   0  0  0  0  0  0  0  0  0  0  0  0
    2.4062    1.3461    0.1038 H   0  0  0  0  0  0  0  0  0  0  0  0
    0.7519   -1.1033    0.4724 H   0  0  0  0  0  0  0  0  0  0  0  0
   -0.0106    0.9535    1.4720 H   0  0  0  0  0  0  0  0  0  0  0  0
    0.2113    1.8385   -0.1153 H   0  0  0  0  0  0  0  0  0  0  0  0
   -1.8937    1.0676   -0.6616 H   0  0  0  0  0  0  0  0  0  0  0  0
   -3.0672   -0.0621    1.2268 H   0  0  0  0  0  0  0  0  0  0  0  0
   -0.7725   -1.7767   -0.5547 H   0  0  0  0  0  0  0  0  0  0  0  0
   -1.4962   -0.8351   -1.9633 H   0  0  0  0  0  0  0  0  0  0  0  0
  1  2  1  0
  2  3  1  0
  3  4  1  0
  4  5  1  0
  5  6  2  0
  4  7  1  0
  7  8  1  0
  8  2  1  0
  1  9  1  0
  1 10  1  0
  1 11  1  0
  2 12  1  0
  3 13  1  0
  3 14  1  0
  4 15  1  0
  5 16  1  0
  7 17  1  0
  7 18  1  0
M  END
