
     RDKit          3D

 21 22  0  0  0  0  0  0  0  0999 V2000
   -2.1931   -1.0360    0.1238 C   0  0  0  0  0  0  0  0  0  0  0  0
   -1.2114   -0.0262    0.6310 C   0  0  0  0  0  0  0  0  0  0  0  0
   -0.8669    1.0970   -0.3198 C   0  0  0  0  0  0  0  0  0  0  0  0
   -1.0546    0.7856   -1.6740 O   0  0  0  0  0  0  0  0  0  0  0  0
    0.6052    0.8181    0.0120 C   0  0  0  0  0  0  0  0  0  0  0  0
    1.2685    1.6554    0.8573 O   0  0  0  0  0  0  0  0  0  0  0  0
    1.1132   -0.4670   -0.4668 C   0  0  0  0  0  0  0  0  0  0  0  0
    2.5655   -0.7658   -0.1859 C   0  0  0  0  0  0  0  0  0  0  0  0
    0.1966   -0.5168    0.6761 C   0  0  0  0  0  0  0  0  0  0  0  0
   -2.3493   -0.8775   -0.9605 H   0  0  0  0  0  0  0  0  0  0  0  0
   -3.1401   -0.9079    0.7100 H   0  0  0  0  0  0  0  0  0  0  0  0
   -1.7390   -2.0513    0.3183 H   0  0  0  0  0  0  0  0  0  0  0  0
   -1.4997    0.4350    1.6216 H   0  0  0  0  0  0  0  0  0  0  0  0
   -1.1711    2.1016   -0.0237 H   0  0  0  0  0  0  0  0  0  0  0  0
   -1.6345    1.4264   -2.1366 H   0  0  0  0  0  0  0  0  0  0  0  0
    1.0015    2.5865    0.8103 H   0  0  0  0  0  0  0  0  0  0  0  0
    0.7446   -0.8761   -1.4194 H   0  0  0  0  0  0  0  0  0  0  0  0
    2.6212   -1.8274    0.1607 H   0  0  0  0  0  0  0  0  0  0  0  0
    2.9339   -0.1600    0.6865 H   0  0  0  0  0  0  0  0  0  0  0  0
    3.2058   -0.6404   -1.0785 H   0  0  0  0  0  0  0  0  0  0  0  0
    0.6038   -0.7533    1.6576 H   0  0  0  0  0  0  0  0  0  0  0  0
  1  2  1  0
  2  3  1  0
  3  4  1  0
  3  5  1  0
  5  6  1  0
  5  7  1  0
  7  8  1  0
  7  9  1  0
  9  2  1  0
  9  5  1  0
  1 10  1  0
  1 11  1  0
  1 12  1  0
  2 13  1  0
  3 14  1  0
  4 15  1  0
  6 16  1  0
  7 17  1  0
  8 18  1  0
  8 19  1  0
  8 20  1  0
  9 21  1  0
M  END
