
     RDKit          3D

 20 21  0  0  0  0  0  0  0  0999 V2000
   -2.0778    1.2220   -0.3848 C   0  0  0  0  0  0  0  0  0  0  0  0
   -1.1803    0.0615   -0.7146 C   0  0  0  0  0  0  0  0  0  0  0  0
   -1.5907   -1.2768   -0.2329 C   0  0  0  0  0  0  0  0  0  0  0  0
   -0.3097   -1.4762    0.2641 O   0  0  0  0  0  0  0  0  0  0  0  0
   -0.1249   -0.0836    0.3892 C   0  0  0  0  0  0  0  0  0  0  0  0
    1.2141    0.3913   -0.1156 C   0  0  0  0  0  0  0  0  0  0  0  0
    2.4204    0.3728    0.7201 C   0  0  0  0  0  0  0  0  0  0  0  0
    2.2510   -0.7229   -0.2339 C   0  0  0  0  0  0  0  0  0  0  0  0
   -1.4002    2.0978   -0.1645 H   0  0  0  0  0  0  0  0  0  0  0  0
   -2.6937    1.0030    0.4894 H   0  0  0  0  0  0  0  0  0  0  0  0
   -2.6356    1.4885   -1.2916 H   0  0  0  0  0  0  0  0  0  0  0  0
   -0.7429    0.0700   -1.7115 H   0  0  0  0  0  0  0  0  0  0  0  0
   -1.7890   -1.9754   -1.0808 H   0  0  0  0  0  0  0  0  0  0  0  0
   -2.3822   -1.3382    0.5298 H   0  0  0  0  0  0  0  0  0  0  0  0
   -0.4356    0.2453    1.3734 H   0  0  0  0  0  0  0  0  0  0  0  0
    1.1743    1.1483   -0.9392 H   0  0  0  0  0  0  0  0  0  0  0  0
    2.3812    0.1101    1.8031 H   0  0  0  0  0  0  0  0  0  0  0  0
    3.1994    1.1597    0.5291 H   0  0  0  0  0  0  0  0  0  0  0  0
    1.9919   -1.7267    0.1688 H   0  0  0  0  0  0  0  0  0  0  0  0
    2.7303   -0.7705   -1.2211 H   0  0  0  0  0  0  0  0  0  0  0  0
  1  2  1  0
  2  3  1  0
  3  4  1  0
  4  5  1  0
  5  6  1  0
  6  7  1  0
  7  8  1  0
  5  2  1  0
  8  6  1  0
  1  9  1  0
  1 10  1  0
  1 11  1  0
  2 12  1  0
  3 13  1  0
  3 14  1  0
  5 15  1  0
  6 16  1  0
  7 17  1  0
  7 18  1  0
  8 19  1  0
  8 20  1  0
M  END
