
     RDKit          3D

 21 21  0  0  0  0  0  0  0  0999 V2000
   -0.9847    1.6438   -0.5972 C   0  0  0  0  0  0  0  0  0  0  0  0
   -0.4389    0.2800   -0.7938 C   0  0  0  0  0  0  0  0  0  0  0  0
   -1.4270   -0.7857   -0.3000 C   0  0  0  0  0  0  0  0  0  0  0  0
   -2.0364   -0.3821    0.8720 O   0  0  0  0  0  0  0  0  0  0  0  0
   -0.1624   -1.5843    0.0569 C   0  0  0  0  0  0  0  0  0  0  0  0
    0.4917   -0.2346    0.2962 C   0  0  0  0  0  0  0  0  0  0  0  0
    0.2089    0.2243    1.5635 O   0  0  0  0  0  0  0  0  0  0  0  0
    1.9462   -0.2532   -0.0983 C   0  0  0  0  0  0  0  0  0  0  0  0
    2.5162    1.0012   -0.0565 O   0  0  0  0  0  0  0  0  0  0  0  0
   -1.1458    2.0946   -1.6191 H   0  0  0  0  0  0  0  0  0  0  0  0
   -0.3499    2.3440   -0.0549 H   0  0  0  0  0  0  0  0  0  0  0  0
   -2.0135    1.6447   -0.1410 H   0  0  0  0  0  0  0  0  0  0  0  0
   -0.0107    0.0827   -1.7824 H   0  0  0  0  0  0  0  0  0  0  0  0
   -2.0496   -1.2321   -1.0717 H   0  0  0  0  0  0  0  0  0  0  0  0
   -2.1736   -1.2231    1.4148 H   0  0  0  0  0  0  0  0  0  0  0  0
    0.1748   -2.0980   -0.8652 H   0  0  0  0  0  0  0  0  0  0  0  0
   -0.3085   -2.2118    0.9319 H   0  0  0  0  0  0  0  0  0  0  0  0
    0.4980    1.1291    1.7592 H   0  0  0  0  0  0  0  0  0  0  0  0
    2.4663   -0.8949    0.6686 H   0  0  0  0  0  0  0  0  0  0  0  0
    2.0307   -0.7681   -1.0569 H   0  0  0  0  0  0  0  0  0  0  0  0
    2.7681    1.2231    0.8739 H   0  0  0  0  0  0  0  0  0  0  0  0
  1  2  1  0
  2  3  1  0
  3  4  1  0
  3  5  1  0
  5  6  1  0
  6  7  1  0
  6  8  1  0
  8  9  1  0
  6  2  1  0
  1 10  1  0
  1 11  1  0
  1 12  1  0
  2 13  1  0
  3 14  1  0
  4 15  1  0
  5 16  1  0
  5 17  1  0
  7 18  1  0
  8 19  1  0
  8 20  1  0
  9 21  1  0
M  END
