
     RDKit          3D

 23 24  0  0  0  0  0  0  0  0999 V2000
   -1.3298    1.9881   -0.3575 C   0  0  0  0  0  0  0  0  0  0  0  0
   -0.8752    0.6524    0.2513 C   0  0  0  0  0  0  0  0  0  0  0  0
    0.3306    0.8558    1.0717 C   0  0  0  0  0  0  0  0  0  0  0  0
    1.5594    0.1438    0.6152 C   0  0  0  0  0  0  0  0  0  0  0  0
    2.2426    0.8115   -0.3845 O   0  0  0  0  0  0  0  0  0  0  0  0
    1.2507   -1.2894    0.2771 C   0  0  0  0  0  0  0  0  0  0  0  0
    0.1756   -1.4108   -0.7465 C   0  0  0  0  0  0  0  0  0  0  0  0
   -1.1972   -1.8004   -0.3776 C   0  0  0  0  0  0  0  0  0  0  0  0
   -0.8050   -0.3571   -0.8213 C   0  0  0  0  0  0  0  0  0  0  0  0
   -1.9877    1.8270   -1.2323 H   0  0  0  0  0  0  0  0  0  0  0  0
   -1.9028    2.5695    0.4042 H   0  0  0  0  0  0  0  0  0  0  0  0
   -0.4781    2.6007   -0.6778 H   0  0  0  0  0  0  0  0  0  0  0  0
   -1.7250    0.3657    0.9395 H   0  0  0  0  0  0  0  0  0  0  0  0
    0.5900    1.9554    1.1146 H   0  0  0  0  0  0  0  0  0  0  0  0
    0.1611    0.5865    2.1542 H   0  0  0  0  0  0  0  0  0  0  0  0
    2.2641    0.1079    1.4986 H   0  0  0  0  0  0  0  0  0  0  0  0
    2.6365    0.2290   -1.0689 H   0  0  0  0  0  0  0  0  0  0  0  0
    0.8643   -1.7579    1.2252 H   0  0  0  0  0  0  0  0  0  0  0  0
    2.1683   -1.8407    0.0248 H   0  0  0  0  0  0  0  0  0  0  0  0
    0.5381   -1.8523   -1.7208 H   0  0  0  0  0  0  0  0  0  0  0  0
   -1.8697   -2.3519   -1.0492 H   0  0  0  0  0  0  0  0  0  0  0  0
   -1.4065   -1.9507    0.6874 H   0  0  0  0  0  0  0  0  0  0  0  0
   -1.2042   -0.0819   -1.8273 H   0  0  0  0  0  0  0  0  0  0  0  0
  1  2  1  0
  2  3  1  0
  3  4  1  0
  4  5  1  0
  4  6  1  0
  6  7  1  0
  7  8  1  0
  8  9  1  0
  9  2  1  0
  9  7  1  0
  1 10  1  0
  1 11  1  0
  1 12  1  0
  2 13  1  0
  3 14  1  0
  3 15  1  0
  4 16  1  0
  5 17  1  0
  6 18  1  0
  6 19  1  0
  7 20  1  0
  8 21  1  0
  8 22  1  0
  9 23  1  0
M  END
