
     RDKit          3D

 21 22  0  0  0  0  0  0  0  0999 V2000
    1.9569   -0.6623   -0.2482 C   0  0  0  0  0  0  0  0  0  0  0  0
    0.9284    0.2881    0.3129 C   0  0  0  0  0  0  0  0  0  0  0  0
    0.8610    1.5577   -0.4266 C   0  0  0  0  0  0  0  0  0  0  0  0
   -0.3901    1.9576   -0.4971 C   0  0  0  0  0  0  0  0  0  0  0  0
   -1.2775    0.9893    0.1893 C   0  0  0  0  0  0  0  0  0  0  0  0
   -2.0923    0.3913   -0.8037 O   0  0  0  0  0  0  0  0  0  0  0  0
   -1.0613   -0.5256   -1.0894 C   0  0  0  0  0  0  0  0  0  0  0  0
   -0.4435   -0.2698    0.2588 C   0  0  0  0  0  0  0  0  0  0  0  0
   -0.8411   -1.2773    1.2740 C   0  0  0  0  0  0  0  0  0  0  0  0
    2.5001   -1.1144    0.6132 H   0  0  0  0  0  0  0  0  0  0  0  0
    1.5006   -1.5073   -0.8023 H   0  0  0  0  0  0  0  0  0  0  0  0
    2.7055   -0.1284   -0.8645 H   0  0  0  0  0  0  0  0  0  0  0  0
    1.1334    0.5152    1.3991 H   0  0  0  0  0  0  0  0  0  0  0  0
    1.7354    2.1107   -0.8680 H   0  0  0  0  0  0  0  0  0  0  0  0
   -0.7441    2.8583   -0.9802 H   0  0  0  0  0  0  0  0  0  0  0  0
   -1.7855    1.3081    1.0913 H   0  0  0  0  0  0  0  0  0  0  0  0
   -0.4563   -0.2898   -1.9672 H   0  0  0  0  0  0  0  0  0  0  0  0
   -1.5094   -1.5455   -1.1882 H   0  0  0  0  0  0  0  0  0  0  0  0
   -0.7972   -2.2830    0.8029 H   0  0  0  0  0  0  0  0  0  0  0  0
   -0.0662   -1.2875    2.0895 H   0  0  0  0  0  0  0  0  0  0  0  0
   -1.8567   -1.0852    1.7045 H   0  0  0  0  0  0  0  0  0  0  0  0
  1  2  1  0
  2  3  1  0
  3  4  2  0
  4  5  1  0
  5  6  1  0
  6  7  1  0
  7  8  1  0
  8  9  1  0
  8  2  1  0
  8  5  1  0
  1 10  1  0
  1 11  1  0
  1 12  1  0
  2 13  1  0
  3 14  1  0
  4 15  1  0
  5 16  1  0
  7 17  1  0
  7 18  1  0
  9 19  1  0
  9 20  1  0
  9 21  1  0
M  END
