
     RDKit          3D

 21 22  0  0  0  0  0  0  0  0999 V2000
    1.5860    1.0340   -0.6819 C   0  0  0  0  0  0  0  0  0  0  0  0
    0.9786    0.2530    0.3967 C   0  0  0  0  0  0  0  0  0  0  0  0
    0.9645   -1.2647    0.1406 C   0  0  0  0  0  0  0  0  0  0  0  0
   -0.5429   -1.6057    0.0649 C   0  0  0  0  0  0  0  0  0  0  0  0
   -1.0060   -0.3094   -0.4908 C   0  0  0  0  0  0  0  0  0  0  0  0
   -1.5865    0.8537    0.0399 C   0  0  0  0  0  0  0  0  0  0  0  0
   -1.6980    1.9963   -0.7893 O   0  0  0  0  0  0  0  0  0  0  0  0
   -0.4269    0.4982    0.7460 C   0  0  0  0  0  0  0  0  0  0  0  0
   -0.6676   -0.1102    2.0141 O   0  0  0  0  0  0  0  0  0  0  0  0
    0.9962    1.2676   -1.5604 H   0  0  0  0  0  0  0  0  0  0  0  0
    2.0298    1.9715   -0.2352 H   0  0  0  0  0  0  0  0  0  0  0  0
    2.4939    0.4751   -1.0593 H   0  0  0  0  0  0  0  0  0  0  0  0
    1.6564    0.3748    1.2957 H   0  0  0  0  0  0  0  0  0  0  0  0
    1.3426   -1.4483   -0.8826 H   0  0  0  0  0  0  0  0  0  0  0  0
    1.4530   -1.8334    0.9255 H   0  0  0  0  0  0  0  0  0  0  0  0
   -0.7158   -2.4715   -0.5893 H   0  0  0  0  0  0  0  0  0  0  0  0
   -0.8709   -1.8194    1.0968 H   0  0  0  0  0  0  0  0  0  0  0  0
   -0.4460   -0.1569   -1.4665 H   0  0  0  0  0  0  0  0  0  0  0  0
   -2.5998    0.7288    0.5349 H   0  0  0  0  0  0  0  0  0  0  0  0
   -1.3343    1.8270   -1.6869 H   0  0  0  0  0  0  0  0  0  0  0  0
   -1.6066   -0.2605    2.1871 H   0  0  0  0  0  0  0  0  0  0  0  0
  1  2  1  0
  2  3  1  0
  3  4  1  0
  4  5  1  0
  5  6  1  0
  6  7  1  0
  6  8  1  0
  8  9  1  0
  8  2  1  0
  8  5  1  0
  1 10  1  0
  1 11  1  0
  1 12  1  0
  2 13  1  0
  3 14  1  0
  3 15  1  0
  4 16  1  0
  4 17  1  0
  5 18  1  0
  6 19  1  0
  7 20  1  0
  9 21  1  0
M  END
