
     RDKit          3D

 19 20  0  0  0  0  0  0  0  0999 V2000
   -1.4722   -1.7027   -0.1962 C   0  0  0  0  0  0  0  0  0  0  0  0
   -0.9567   -0.3419   -0.5824 C   0  0  0  0  0  0  0  0  0  0  0  0
   -0.7896    0.7027    0.4995 C   0  0  0  0  0  0  0  0  0  0  0  0
   -1.0524    2.1274    0.1655 C   0  0  0  0  0  0  0  0  0  0  0  0
   -1.4945    2.8355    1.0481 O   0  0  0  0  0  0  0  0  0  0  0  0
    0.3588    0.1167   -0.2255 C   0  0  0  0  0  0  0  0  0  0  0  0
    1.3912   -0.5768    0.5432 C   0  0  0  0  0  0  0  0  0  0  0  0
    2.2828    0.2553   -0.3412 C   0  0  0  0  0  0  0  0  0  0  0  0
    1.2158    0.8334   -0.9987 O   0  0  0  0  0  0  0  0  0  0  0  0
   -2.5733   -1.7118   -0.4209 H   0  0  0  0  0  0  0  0  0  0  0  0
   -1.0352   -2.5292   -0.7477 H   0  0  0  0  0  0  0  0  0  0  0  0
   -1.3938   -1.7898    0.9007 H   0  0  0  0  0  0  0  0  0  0  0  0
   -1.4292    0.0625   -1.5035 H   0  0  0  0  0  0  0  0  0  0  0  0
   -0.9931    0.3301    1.5034 H   0  0  0  0  0  0  0  0  0  0  0  0
   -0.8796    2.5757   -0.7999 H   0  0  0  0  0  0  0  0  0  0  0  0
    1.4710   -0.2448    1.5983 H   0  0  0  0  0  0  0  0  0  0  0  0
    1.5658   -1.6456    0.3947 H   0  0  0  0  0  0  0  0  0  0  0  0
    2.9038   -0.3187   -1.0516 H   0  0  0  0  0  0  0  0  0  0  0  0
    2.8805    1.0221    0.2143 H   0  0  0  0  0  0  0  0  0  0  0  0
  1  2  1  0
  2  3  1  0
  3  4  1  0
  4  5  2  0
  3  6  1  0
  6  7  1  0
  7  8  1  0
  8  9  1  0
  6  2  1  0
  9  6  1  0
  1 10  1  0
  1 11  1  0
  1 12  1  0
  2 13  1  0
  3 14  1  0
  4 15  1  0
  7 16  1  0
  7 17  1  0
  8 18  1  0
  8 19  1  0
M  END
