
     RDKit          3D

 16 16  0  0  0  0  0  0  0  0999 V2000
    1.5739    0.3240   -0.4874 C   0  0  0  0  0  0  0  0  0  0  0  0
    0.5748   -0.0557    0.5826 C   0  0  0  0  0  0  0  0  0  0  0  0
    0.2924   -1.4898    0.6040 C   0  0  0  0  0  0  0  0  0  0  0  0
    1.0792   -2.3834    0.9988 O   0  0  0  0  0  0  0  0  0  0  0  0
   -0.9838   -1.7341    0.1211 O   0  0  0  0  0  0  0  0  0  0  0  0
   -1.4258   -0.5542   -0.5415 C   0  0  0  0  0  0  0  0  0  0  0  0
   -0.7974    0.5336    0.2783 C   0  0  0  0  0  0  0  0  0  0  0  0
   -0.7272    1.7455   -0.3629 O   0  0  0  0  0  0  0  0  0  0  0  0
    1.7677    1.4126   -0.3954 H   0  0  0  0  0  0  0  0  0  0  0  0
    1.1580    0.1383   -1.4947 H   0  0  0  0  0  0  0  0  0  0  0  0
    2.5120   -0.1922   -0.2815 H   0  0  0  0  0  0  0  0  0  0  0  0
    0.9382    0.3440    1.5438 H   0  0  0  0  0  0  0  0  0  0  0  0
   -1.0353   -0.5834   -1.5785 H   0  0  0  0  0  0  0  0  0  0  0  0
   -2.5274   -0.5272   -0.5392 H   0  0  0  0  0  0  0  0  0  0  0  0
   -1.3785    0.5810    1.2435 H   0  0  0  0  0  0  0  0  0  0  0  0
   -1.0208    2.4411    0.3090 H   0  0  0  0  0  0  0  0  0  0  0  0
  1  2  1  0
  2  3  1  0
  3  4  2  0
  3  5  1  0
  5  6  1  0
  6  7  1  0
  7  8  1  0
  7  2  1  0
  1  9  1  0
  1 10  1  0
  1 11  1  0
  2 12  1  0
  6 13  1  0
  6 14  1  0
  7 15  1  0
  8 16  1  0
M  END
