
     RDKit          3D

 18 18  0  0  0  0  0  0  0  0999 V2000
    1.8152   -0.6053    0.2134 C   0  0  0  0  0  0  0  0  0  0  0  0
    0.4398   -0.3896   -0.3095 C   0  0  0  0  0  0  0  0  0  0  0  0
   -0.0765    1.0310   -0.2567 C   0  0  0  0  0  0  0  0  0  0  0  0
    0.1519    1.7936   -1.3700 O   0  0  0  0  0  0  0  0  0  0  0  0
   -1.4580    0.3600   -0.2037 C   0  0  0  0  0  0  0  0  0  0  0  0
   -1.7978   -0.1466   -1.4416 O   0  0  0  0  0  0  0  0  0  0  0  0
   -0.7112   -0.7331    0.5827 C   0  0  0  0  0  0  0  0  0  0  0  0
   -0.5849   -0.3602    1.9178 O   0  0  0  0  0  0  0  0  0  0  0  0
    2.0069   -0.2336    1.2199 H   0  0  0  0  0  0  0  0  0  0  0  0
    2.0258   -1.6929    0.1664 H   0  0  0  0  0  0  0  0  0  0  0  0
    2.5192   -0.0788   -0.4891 H   0  0  0  0  0  0  0  0  0  0  0  0
    0.3100   -0.8068   -1.3052 H   0  0  0  0  0  0  0  0  0  0  0  0
    0.0842    1.5456    0.7129 H   0  0  0  0  0  0  0  0  0  0  0  0
    0.2827    2.7690   -1.1538 H   0  0  0  0  0  0  0  0  0  0  0  0
   -2.2092    0.8979    0.3572 H   0  0  0  0  0  0  0  0  0  0  0  0
   -1.9205   -1.1291   -1.3993 H   0  0  0  0  0  0  0  0  0  0  0  0
   -1.1740   -1.7120    0.4616 H   0  0  0  0  0  0  0  0  0  0  0  0
    0.2966   -0.5089    2.2969 H   0  0  0  0  0  0  0  0  0  0  0  0
  1  2  1  0
  2  3  1  0
  3  4  1  0
  3  5  1  0
  5  6  1  0
  5  7  1  0
  7  8  1  0
  7  2  1  0
  1  9  1  0
  1 10  1  0
  1 11  1  0
  2 12  1  0
  3 13  1  0
  4 14  1  0
  5 15  1  0
  6 16  1  0
  7 17  1  0
  8 18  1  0
M  END
