
     RDKit          3D

 17 19  0  0  0  0  0  0  0  0999 V2000
   -2.2971    0.9776   -0.1220 C   0  0  0  0  0  0  0  0  0  0  0  0
   -1.1669    0.0408   -0.5738 C   0  0  0  0  0  0  0  0  0  0  0  0
   -0.6310   -0.8722    0.4595 C   0  0  0  0  0  0  0  0  0  0  0  0
    0.8227   -1.1979    0.8377 C   0  0  0  0  0  0  0  0  0  0  0  0
    1.5280   -1.8418   -0.1346 O   0  0  0  0  0  0  0  0  0  0  0  0
    1.3526   -0.5189   -0.4098 C   0  0  0  0  0  0  0  0  0  0  0  0
    2.5986    0.2697   -0.3823 C   0  0  0  0  0  0  0  0  0  0  0  0
    3.6629   -0.2256   -0.1359 O   0  0  0  0  0  0  0  0  0  0  0  0
    0.1029    0.2430   -0.0860 C   0  0  0  0  0  0  0  0  0  0  0  0
   -2.6490    1.6001   -0.9473 H   0  0  0  0  0  0  0  0  0  0  0  0
   -3.1111    0.4415    0.3595 H   0  0  0  0  0  0  0  0  0  0  0  0
   -1.8878    1.6927    0.6503 H   0  0  0  0  0  0  0  0  0  0  0  0
   -1.3059   -0.2422   -1.6493 H   0  0  0  0  0  0  0  0  0  0  0  0
   -1.0564   -1.8185    0.2316 H   0  0  0  0  0  0  0  0  0  0  0  0
    1.2022   -0.9349    1.8144 H   0  0  0  0  0  0  0  0  0  0  0  0
    2.5456    1.3239   -0.5909 H   0  0  0  0  0  0  0  0  0  0  0  0
    0.2896    1.0626    0.6789 H   0  0  0  0  0  0  0  0  0  0  0  0
  1  2  1  0
  2  3  1  0
  3  4  1  0
  4  5  1  0
  5  6  1  0
  6  7  1  0
  7  8  2  0
  6  9  1  0
  9  2  1  0
  9  3  1  0
  6  4  1  0
  1 10  1  0
  1 11  1  0
  1 12  1  0
  2 13  1  0
  3 14  1  0
  4 15  1  0
  7 16  1  0
  9 17  1  0
M  END
