
     RDKit          3D

 20 21  0  0  0  0  0  0  0  0999 V2000
   -2.2736    0.4807    0.6033 C   0  0  0  0  0  0  0  0  0  0  0  0
   -1.0983    0.3162   -0.3532 C   0  0  0  0  0  0  0  0  0  0  0  0
   -0.7790   -1.1214   -0.7019 C   0  0  0  0  0  0  0  0  0  0  0  0
    0.4253   -1.0896    0.2030 C   0  0  0  0  0  0  0  0  0  0  0  0
    1.6482   -1.2549   -0.3882 O   0  0  0  0  0  0  0  0  0  0  0  0
    2.4116   -0.1047   -0.0798 C   0  0  0  0  0  0  0  0  0  0  0  0
    1.3649    0.9772   -0.3709 C   0  0  0  0  0  0  0  0  0  0  0  0
    0.1869    0.3803    0.4068 C   0  0  0  0  0  0  0  0  0  0  0  0
   -2.5482   -0.4476    1.1072 H   0  0  0  0  0  0  0  0  0  0  0  0
   -3.1290    0.8722    0.0484 H   0  0  0  0  0  0  0  0  0  0  0  0
   -2.0110    1.2476    1.3835 H   0  0  0  0  0  0  0  0  0  0  0  0
   -1.1846    1.0113   -1.1961 H   0  0  0  0  0  0  0  0  0  0  0  0
   -1.5463   -1.8119   -0.3087 H   0  0  0  0  0  0  0  0  0  0  0  0
   -0.5680   -1.1906   -1.7871 H   0  0  0  0  0  0  0  0  0  0  0  0
    0.3518   -1.6855    1.1310 H   0  0  0  0  0  0  0  0  0  0  0  0
    3.2898   -0.0229   -0.7052 H   0  0  0  0  0  0  0  0  0  0  0  0
    2.5774   -0.1360    1.0005 H   0  0  0  0  0  0  0  0  0  0  0  0
    1.6583    1.9555   -0.0074 H   0  0  0  0  0  0  0  0  0  0  0  0
    1.1106    0.9090   -1.4337 H   0  0  0  0  0  0  0  0  0  0  0  0
    0.1135    0.7150    1.4485 H   0  0  0  0  0  0  0  0  0  0  0  0
  1  2  1  0
  2  3  1  0
  3  4  1  0
  4  5  1  0
  5  6  1  0
  6  7  1  0
  7  8  1  0
  8  2  1  0
  8  4  1  0
  1  9  1  0
  1 10  1  0
  1 11  1  0
  2 12  1  0
  3 13  1  0
  3 14  1  0
  4 15  1  0
  6 16  1  0
  6 17  1  0
  7 18  1  0
  7 19  1  0
  8 20  1  0
M  END
