
     RDKit          3D

 21 21  0  0  0  0  0  0  0  0999 V2000
   -2.4890    0.6466    0.5474 C   0  0  0  0  0  0  0  0  0  0  0  0
   -1.5915   -0.4888    0.0700 C   0  0  0  0  0  0  0  0  0  0  0  0
   -0.2918   -0.4740    0.7990 C   0  0  0  0  0  0  0  0  0  0  0  0
    0.3699    0.1608   -0.4175 C   0  0  0  0  0  0  0  0  0  0  0  0
    1.5899   -0.6336   -0.7934 C   0  0  0  0  0  0  0  0  0  0  0  0
    2.4612   -0.6211    0.3053 O   0  0  0  0  0  0  0  0  0  0  0  0
    3.0073    0.5447    0.7938 C   0  0  0  0  0  0  0  0  0  0  0  0
    2.7062    1.6151    0.2204 O   0  0  0  0  0  0  0  0  0  0  0  0
   -0.8756   -0.1823   -1.2106 C   0  0  0  0  0  0  0  0  0  0  0  0
   -1.8824    1.5433    0.6788 H   0  0  0  0  0  0  0  0  0  0  0  0
   -3.2439    0.7857   -0.2743 H   0  0  0  0  0  0  0  0  0  0  0  0
   -2.9978    0.2859    1.4538 H   0  0  0  0  0  0  0  0  0  0  0  0
   -2.1268   -1.4817    0.0605 H   0  0  0  0  0  0  0  0  0  0  0  0
   -0.2187    0.2073    1.6617 H   0  0  0  0  0  0  0  0  0  0  0  0
    0.0736   -1.4735    1.0655 H   0  0  0  0  0  0  0  0  0  0  0  0
    0.5369    1.2252   -0.3215 H   0  0  0  0  0  0  0  0  0  0  0  0
    1.2583   -1.6994   -0.9382 H   0  0  0  0  0  0  0  0  0  0  0  0
    2.0815   -0.2480   -1.7114 H   0  0  0  0  0  0  0  0  0  0  0  0
    3.6929    0.5438    1.6670 H   0  0  0  0  0  0  0  0  0  0  0  0
   -0.7768   -0.9863   -1.9378 H   0  0  0  0  0  0  0  0  0  0  0  0
   -1.2832    0.7306   -1.7186 H   0  0  0  0  0  0  0  0  0  0  0  0
  1  2  1  0
  2  3  1  0
  3  4  1  0
  4  5  1  0
  5  6  1  0
  6  7  1  0
  7  8  2  0
  4  9  1  0
  9  2  1  0
  1 10  1  0
  1 11  1  0
  1 12  1  0
  2 13  1  0
  3 14  1  0
  3 15  1  0
  4 16  1  0
  5 17  1  0
  5 18  1  0
  7 19  1  0
  9 20  1  0
  9 21  1  0
M  END
