
     RDKit          3D

 23 24  0  0  0  0  0  0  0  0999 V2000
   -2.6604   -0.5606    0.2851 C   0  0  0  0  0  0  0  0  0  0  0  0
   -1.5659    0.0422   -0.5849 C   0  0  0  0  0  0  0  0  0  0  0  0
   -0.8310    1.1783    0.1230 C   0  0  0  0  0  0  0  0  0  0  0  0
    0.1255    0.1352    0.6615 C   0  0  0  0  0  0  0  0  0  0  0  0
    1.5356    0.5005    0.3220 C   0  0  0  0  0  0  0  0  0  0  0  0
    2.5607   -0.4447    0.8734 C   0  0  0  0  0  0  0  0  0  0  0  0
    1.5475    0.5219   -1.0615 O   0  0  0  0  0  0  0  0  0  0  0  0
    0.7422   -0.5060   -1.5094 C   0  0  0  0  0  0  0  0  0  0  0  0
   -0.2795   -0.7767   -0.4491 C   0  0  0  0  0  0  0  0  0  0  0  0
   -3.5280   -0.8820   -0.3338 H   0  0  0  0  0  0  0  0  0  0  0  0
   -2.2926   -1.4677    0.8203 H   0  0  0  0  0  0  0  0  0  0  0  0
   -3.0376    0.1579    1.0296 H   0  0  0  0  0  0  0  0  0  0  0  0
   -1.8639    0.2584   -1.6199 H   0  0  0  0  0  0  0  0  0  0  0  0
   -1.4262    1.7103    0.8799 H   0  0  0  0  0  0  0  0  0  0  0  0
   -0.3674    1.8844   -0.6064 H   0  0  0  0  0  0  0  0  0  0  0  0
   -0.0980   -0.1623    1.6819 H   0  0  0  0  0  0  0  0  0  0  0  0
    1.6995    1.5466    0.7063 H   0  0  0  0  0  0  0  0  0  0  0  0
    3.1490   -0.8648    0.0174 H   0  0  0  0  0  0  0  0  0  0  0  0
    3.2988    0.1183    1.5022 H   0  0  0  0  0  0  0  0  0  0  0  0
    2.1483   -1.2292    1.5253 H   0  0  0  0  0  0  0  0  0  0  0  0
    0.2336   -0.2088   -2.4518 H   0  0  0  0  0  0  0  0  0  0  0  0
    1.3633   -1.4150   -1.6263 H   0  0  0  0  0  0  0  0  0  0  0  0
   -0.4533   -1.8374   -0.1848 H   0  0  0  0  0  0  0  0  0  0  0  0
  1  2  1  0
  2  3  1  0
  3  4  1  0
  4  5  1  0
  5  6  1  0
  5  7  1  0
  7  8  1  0
  8  9  1  0
  9  2  1  0
  9  4  1  0
  1 10  1  0
  1 11  1  0
  1 12  1  0
  2 13  1  0
  3 14  1  0
  3 15  1  0
  4 16  1  0
  5 17  1  0
  6 18  1  0
  6 19  1  0
  6 20  1  0
  8 21  1  0
  8 22  1  0
  9 23  1  0
M  END
