
     RDKit          3D

 21 23  0  0  0  0  0  0  0  0999 V2000
    0.1417    2.0479    0.4855 C   0  0  0  0  0  0  0  0  0  0  0  0
    0.1350    0.7603   -0.2761 C   0  0  0  0  0  0  0  0  0  0  0  0
   -1.2097    0.2619   -0.6463 C   0  0  0  0  0  0  0  0  0  0  0  0
   -2.1177   -0.4470    0.2492 C   0  0  0  0  0  0  0  0  0  0  0  0
   -1.1065   -1.2104   -0.5905 C   0  0  0  0  0  0  0  0  0  0  0  0
    0.1186   -1.5990    0.1654 C   0  0  0  0  0  0  0  0  0  0  0  0
    0.8660   -0.3492    0.4117 C   0  0  0  0  0  0  0  0  0  0  0  0
    2.3667   -0.3243    0.2647 C   0  0  0  0  0  0  0  0  0  0  0  0
    1.6962   -0.1472    1.4628 O   0  0  0  0  0  0  0  0  0  0  0  0
   -0.8283    2.5926    0.3592 H   0  0  0  0  0  0  0  0  0  0  0  0
    0.3855    1.9188    1.5661 H   0  0  0  0  0  0  0  0  0  0  0  0
    0.9166    2.7522    0.0953 H   0  0  0  0  0  0  0  0  0  0  0  0
    0.6974    0.9484   -1.2394 H   0  0  0  0  0  0  0  0  0  0  0  0
   -1.6609    0.7662   -1.5407 H   0  0  0  0  0  0  0  0  0  0  0  0
   -3.1503   -0.5912   -0.0764 H   0  0  0  0  0  0  0  0  0  0  0  0
   -2.0039   -0.4599    1.3599 H   0  0  0  0  0  0  0  0  0  0  0  0
   -1.4400   -1.8012   -1.4483 H   0  0  0  0  0  0  0  0  0  0  0  0
    0.7092   -2.2977   -0.4230 H   0  0  0  0  0  0  0  0  0  0  0  0
   -0.1742   -2.0441    1.1611 H   0  0  0  0  0  0  0  0  0  0  0  0
    2.8591    0.5248   -0.2298 H   0  0  0  0  0  0  0  0  0  0  0  0
    2.7995   -1.3021   -0.0034 H   0  0  0  0  0  0  0  0  0  0  0  0
  1  2  1  0
  2  3  1  0
  3  4  1  0
  4  5  1  0
  5  6  1  0
  6  7  1  0
  7  8  1  0
  8  9  1  0
  7  2  1  0
  5  3  1  0
  9  7  1  0
  1 10  1  0
  1 11  1  0
  1 12  1  0
  2 13  1  0
  3 14  1  0
  4 15  1  0
  4 16  1  0
  5 17  1  0
  6 18  1  0
  6 19  1  0
  8 20  1  0
  8 21  1  0
M  END
