
     RDKit          3D

 21 22  0  0  0  0  0  0  0  0999 V2000
    2.4446    0.0681    0.6213 C   0  0  0  0  0  0  0  0  0  0  0  0
    1.1447    0.1989   -0.1748 C   0  0  0  0  0  0  0  0  0  0  0  0
    0.5102   -1.1450   -0.2427 C   0  0  0  0  0  0  0  0  0  0  0  0
   -1.0017   -0.9540   -0.3910 C   0  0  0  0  0  0  0  0  0  0  0  0
   -1.6021   -0.5547    0.9085 C   0  0  0  0  0  0  0  0  0  0  0  0
   -1.8067    0.7536    0.9681 C   0  0  0  0  0  0  0  0  0  0  0  0
   -0.8717    1.3346   -0.0665 C   0  0  0  0  0  0  0  0  0  0  0  0
   -1.1319    0.3462   -1.1987 C   0  0  0  0  0  0  0  0  0  0  0  0
    0.3976    1.1750    0.4225 O   0  0  0  0  0  0  0  0  0  0  0  0
    3.1762    0.8464    0.2764 H   0  0  0  0  0  0  0  0  0  0  0  0
    2.2810    0.2238    1.6962 H   0  0  0  0  0  0  0  0  0  0  0  0
    2.9086   -0.9086    0.3769 H   0  0  0  0  0  0  0  0  0  0  0  0
    1.4729    0.5865   -1.1817 H   0  0  0  0  0  0  0  0  0  0  0  0
    0.8363   -1.6479   -1.1809 H   0  0  0  0  0  0  0  0  0  0  0  0
    0.7476   -1.8008    0.6163 H   0  0  0  0  0  0  0  0  0  0  0  0
   -1.4898   -1.7951   -0.8729 H   0  0  0  0  0  0  0  0  0  0  0  0
   -1.8438   -1.2380    1.7074 H   0  0  0  0  0  0  0  0  0  0  0  0
   -2.4516    1.3495    1.5660 H   0  0  0  0  0  0  0  0  0  0  0  0
   -1.1477    2.3559   -0.3429 H   0  0  0  0  0  0  0  0  0  0  0  0
   -2.1804    0.3949   -1.5159 H   0  0  0  0  0  0  0  0  0  0  0  0
   -0.3924    0.4105   -1.9916 H   0  0  0  0  0  0  0  0  0  0  0  0
  1  2  1  0
  2  3  1  0
  3  4  1  0
  4  5  1  0
  5  6  2  0
  6  7  1  0
  7  8  1  0
  7  9  1  0
  9  2  1  0
  8  4  1  0
  1 10  1  0
  1 11  1  0
  1 12  1  0
  2 13  1  0
  3 14  1  0
  3 15  1  0
  4 16  1  0
  5 17  1  0
  6 18  1  0
  7 19  1  0
  8 20  1  0
  8 21  1  0
M  END
