
     RDKit          3D

 21 22  0  0  0  0  0  0  0  0999 V2000
   -1.7853    0.8697    0.8623 C   0  0  0  0  0  0  0  0  0  0  0  0
   -1.0033    0.6289   -0.4292 C   0  0  0  0  0  0  0  0  0  0  0  0
   -0.5405   -0.7254   -0.7801 C   0  0  0  0  0  0  0  0  0  0  0  0
   -1.1306   -1.8565    0.0151 C   0  0  0  0  0  0  0  0  0  0  0  0
    0.4089    0.2299   -0.2040 C   0  0  0  0  0  0  0  0  0  0  0  0
    1.4561    0.9324   -0.9914 C   0  0  0  0  0  0  0  0  0  0  0  0
    2.4479    1.2221   -0.0249 O   0  0  0  0  0  0  0  0  0  0  0  0
    2.3250    0.1088    0.8043 C   0  0  0  0  0  0  0  0  0  0  0  0
    0.9418    0.1106    1.0603 O   0  0  0  0  0  0  0  0  0  0  0  0
   -2.8371    0.5708    0.7404 H   0  0  0  0  0  0  0  0  0  0  0  0
   -1.7360    1.9829    1.0235 H   0  0  0  0  0  0  0  0  0  0  0  0
   -1.2923    0.3976    1.7320 H   0  0  0  0  0  0  0  0  0  0  0  0
   -1.3089    1.2981   -1.2434 H   0  0  0  0  0  0  0  0  0  0  0  0
   -0.4846   -0.9613   -1.8820 H   0  0  0  0  0  0  0  0  0  0  0  0
   -1.1612   -1.6629    1.0918 H   0  0  0  0  0  0  0  0  0  0  0  0
   -2.2058   -1.9634   -0.3076 H   0  0  0  0  0  0  0  0  0  0  0  0
   -0.6294   -2.8223   -0.2391 H   0  0  0  0  0  0  0  0  0  0  0  0
    1.0796    1.9120   -1.3656 H   0  0  0  0  0  0  0  0  0  0  0  0
    1.9527    0.3288   -1.7613 H   0  0  0  0  0  0  0  0  0  0  0  0
    2.5862   -0.7804    0.1779 H   0  0  0  0  0  0  0  0  0  0  0  0
    2.9169    0.1798    1.7207 H   0  0  0  0  0  0  0  0  0  0  0  0
  1  2  1  0
  2  3  1  0
  3  4  1  0
  3  5  1  0
  5  6  1  0
  6  7  1  0
  7  8  1  0
  8  9  1  0
  5  2  1  0
  9  5  1  0
  1 10  1  0
  1 11  1  0
  1 12  1  0
  2 13  1  0
  3 14  1  0
  4 15  1  0
  4 16  1  0
  4 17  1  0
  6 18  1  0
  6 19  1  0
  8 20  1  0
  8 21  1  0
M  END
