
     RDKit          3D

 17 17  0  0  0  0  0  0  0  0999 V2000
   -2.0918    0.4723    0.2351 C   0  0  0  0  0  0  0  0  0  0  0  0
   -0.6270    0.1379    0.4300 C   0  0  0  0  0  0  0  0  0  0  0  0
    0.2535    1.2411    0.0534 C   0  0  0  0  0  0  0  0  0  0  0  0
    1.4968    1.0559   -0.3098 C   0  0  0  0  0  0  0  0  0  0  0  0
    2.0993   -0.2944   -0.3687 C   0  0  0  0  0  0  0  0  0  0  0  0
    3.2901   -0.4573   -0.7119 O   0  0  0  0  0  0  0  0  0  0  0  0
    1.1976   -1.3998    0.0040 C   0  0  0  0  0  0  0  0  0  0  0  0
    1.6382   -2.4394    0.4848 O   0  0  0  0  0  0  0  0  0  0  0  0
   -0.2313   -1.1251   -0.2564 C   0  0  0  0  0  0  0  0  0  0  0  0
   -2.6803   -0.2464    0.8644 H   0  0  0  0  0  0  0  0  0  0  0  0
   -2.4340    0.3763   -0.7935 H   0  0  0  0  0  0  0  0  0  0  0  0
   -2.2630    1.4933    0.6356 H   0  0  0  0  0  0  0  0  0  0  0  0
   -0.4860   -0.0307    1.5431 H   0  0  0  0  0  0  0  0  0  0  0  0
   -0.1373    2.2753    0.0733 H   0  0  0  0  0  0  0  0  0  0  0  0
    2.1665    1.8795   -0.5913 H   0  0  0  0  0  0  0  0  0  0  0  0
   -0.3313   -0.9485   -1.3564 H   0  0  0  0  0  0  0  0  0  0  0  0
   -0.8600   -1.9898    0.0644 H   0  0  0  0  0  0  0  0  0  0  0  0
  1  2  1  0
  2  3  1  0
  3  4  2  0
  4  5  1  0
  5  6  2  0
  5  7  1  0
  7  8  2  0
  7  9  1  0
  9  2  1  0
  1 10  1  0
  1 11  1  0
  1 12  1  0
  2 13  1  0
  3 14  1  0
  4 15  1  0
  9 16  1  0
  9 17  1  0
M  END
