
     RDKit          3D

 22 22  0  0  0  0  0  0  0  0999 V2000
   -2.4194    0.8077    0.1753 C   0  0  0  0  0  0  0  0  0  0  0  0
   -1.0340    0.3760   -0.1679 C   0  0  0  0  0  0  0  0  0  0  0  0
   -0.9274   -1.1097   -0.4374 C   0  0  0  0  0  0  0  0  0  0  0  0
    0.5802   -1.2175   -0.6379 C   0  0  0  0  0  0  0  0  0  0  0  0
    1.1646   -0.1992    0.3099 C   0  0  0  0  0  0  0  0  0  0  0  0
    1.9924    0.8454   -0.4180 C   0  0  0  0  0  0  0  0  0  0  0  0
    1.9082   -0.8190    1.2841 O   0  0  0  0  0  0  0  0  0  0  0  0
   -0.0252    0.5511    0.9085 C   0  0  0  0  0  0  0  0  0  0  0  0
   -2.8384    0.3020    1.0584 H   0  0  0  0  0  0  0  0  0  0  0  0
   -2.4074    1.8840    0.3847 H   0  0  0  0  0  0  0  0  0  0  0  0
   -3.0432    0.6675   -0.7359 H   0  0  0  0  0  0  0  0  0  0  0  0
   -0.7066    0.9156   -1.0688 H   0  0  0  0  0  0  0  0  0  0  0  0
   -1.4988   -1.4445   -1.2933 H   0  0  0  0  0  0  0  0  0  0  0  0
   -1.1434   -1.6814    0.5057 H   0  0  0  0  0  0  0  0  0  0  0  0
    0.9606   -2.2127   -0.4155 H   0  0  0  0  0  0  0  0  0  0  0  0
    0.8572   -0.9211   -1.6811 H   0  0  0  0  0  0  0  0  0  0  0  0
    2.2285    1.6280    0.3567 H   0  0  0  0  0  0  0  0  0  0  0  0
    1.3737    1.3232   -1.1966 H   0  0  0  0  0  0  0  0  0  0  0  0
    2.8987    0.4278   -0.8809 H   0  0  0  0  0  0  0  0  0  0  0  0
    2.1986   -1.7212    0.9476 H   0  0  0  0  0  0  0  0  0  0  0  0
    0.2259    1.5823    1.1570 H   0  0  0  0  0  0  0  0  0  0  0  0
   -0.3447    0.0159    1.8454 H   0  0  0  0  0  0  0  0  0  0  0  0
  1  2  1  0
  2  3  1  0
  3  4  1  0
  4  5  1  0
  5  6  1  0
  5  7  1  0
  5  8  1  0
  8  2  1  0
  1  9  1  0
  1 10  1  0
  1 11  1  0
  2 12  1  0
  3 13  1  0
  3 14  1  0
  4 15  1  0
  4 16  1  0
  6 17  1  0
  6 18  1  0
  6 19  1  0
  7 20  1  0
  8 21  1  0
  8 22  1  0
M  END
