
     RDKit          3D

 21 21  0  0  0  0  0  0  0  0999 V2000
    2.6481    0.7382   -0.1044 C   0  0  0  0  0  0  0  0  0  0  0  0
    1.1721    0.5885    0.1724 C   0  0  0  0  0  0  0  0  0  0  0  0
    0.8923   -0.4283    1.2087 C   0  0  0  0  0  0  0  0  0  0  0  0
   -0.2365   -1.0347    0.8839 C   0  0  0  0  0  0  0  0  0  0  0  0
   -0.7109   -0.4165   -0.3804 C   0  0  0  0  0  0  0  0  0  0  0  0
   -1.2018   -1.5192   -1.2749 C   0  0  0  0  0  0  0  0  0  0  0  0
   -1.8090    0.5779   -0.1870 C   0  0  0  0  0  0  0  0  0  0  0  0
   -1.4933    1.6094    0.6782 O   0  0  0  0  0  0  0  0  0  0  0  0
    0.4494    0.1817   -0.9085 O   0  0  0  0  0  0  0  0  0  0  0  0
    3.0532   -0.0554   -0.7577 H   0  0  0  0  0  0  0  0  0  0  0  0
    3.1678    0.8118    0.8726 H   0  0  0  0  0  0  0  0  0  0  0  0
    2.7805    1.6927   -0.6455 H   0  0  0  0  0  0  0  0  0  0  0  0
    0.8310    1.6105    0.4841 H   0  0  0  0  0  0  0  0  0  0  0  0
    1.5146   -0.6516    2.1064 H   0  0  0  0  0  0  0  0  0  0  0  0
   -0.7258   -1.8281    1.4286 H   0  0  0  0  0  0  0  0  0  0  0  0
   -0.4963   -2.3743   -1.1800 H   0  0  0  0  0  0  0  0  0  0  0  0
   -2.1718   -1.8705   -0.8742 H   0  0  0  0  0  0  0  0  0  0  0  0
   -1.3484   -1.2004   -2.3199 H   0  0  0  0  0  0  0  0  0  0  0  0
   -2.7350    0.0499    0.0898 H   0  0  0  0  0  0  0  0  0  0  0  0
   -2.0156    1.0137   -1.2087 H   0  0  0  0  0  0  0  0  0  0  0  0
   -1.5647    2.5044    0.2234 H   0  0  0  0  0  0  0  0  0  0  0  0
  1  2  1  0
  2  3  1  0
  3  4  2  0
  4  5  1  0
  5  6  1  0
  5  7  1  0
  7  8  1  0
  5  9  1  0
  9  2  1  0
  1 10  1  0
  1 11  1  0
  1 12  1  0
  2 13  1  0
  3 14  1  0
  4 15  1  0
  6 16  1  0
  6 17  1  0
  6 18  1  0
  7 19  1  0
  7 20  1  0
  8 21  1  0
M  END
