
     RDKit          3D

 23 24  0  0  0  0  0  0  0  0999 V2000
   -2.2687    0.2091    0.2106 C   0  0  0  0  0  0  0  0  0  0  0  0
   -1.0182   -0.5448    0.5509 C   0  0  0  0  0  0  0  0  0  0  0  0
   -0.6389   -1.3766   -0.6575 C   0  0  0  0  0  0  0  0  0  0  0  0
    0.4188   -0.5426   -1.3604 C   0  0  0  0  0  0  0  0  0  0  0  0
    1.0938    0.2527   -0.2737 C   0  0  0  0  0  0  0  0  0  0  0  0
    2.4563   -0.2495    0.1375 C   0  0  0  0  0  0  0  0  0  0  0  0
    1.0381    1.6223   -0.4746 O   0  0  0  0  0  0  0  0  0  0  0  0
    0.0651    1.7628    0.5302 C   0  0  0  0  0  0  0  0  0  0  0  0
    0.1482    0.3188    0.8879 C   0  0  0  0  0  0  0  0  0  0  0  0
   -2.4766    1.0588    0.8864 H   0  0  0  0  0  0  0  0  0  0  0  0
   -3.1235   -0.5017    0.3489 H   0  0  0  0  0  0  0  0  0  0  0  0
   -2.3062    0.5016   -0.8623 H   0  0  0  0  0  0  0  0  0  0  0  0
   -1.2278   -1.2085    1.4312 H   0  0  0  0  0  0  0  0  0  0  0  0
   -0.1934   -2.3090   -0.2761 H   0  0  0  0  0  0  0  0  0  0  0  0
   -1.4939   -1.5378   -1.3438 H   0  0  0  0  0  0  0  0  0  0  0  0
   -0.0414    0.1649   -2.0777 H   0  0  0  0  0  0  0  0  0  0  0  0
    1.1193   -1.2600   -1.8501 H   0  0  0  0  0  0  0  0  0  0  0  0
    2.7688    0.3771    1.0121 H   0  0  0  0  0  0  0  0  0  0  0  0
    2.3482   -1.3083    0.4785 H   0  0  0  0  0  0  0  0  0  0  0  0
    3.1782   -0.2210   -0.6897 H   0  0  0  0  0  0  0  0  0  0  0  0
    0.4865    2.4577    1.3055 H   0  0  0  0  0  0  0  0  0  0  0  0
   -0.9008    2.1574    0.1987 H   0  0  0  0  0  0  0  0  0  0  0  0
    0.5681    0.1767    1.8871 H   0  0  0  0  0  0  0  0  0  0  0  0
  1  2  1  0
  2  3  1  0
  3  4  1  0
  4  5  1  0
  5  6  1  0
  5  7  1  0
  7  8  1  0
  8  9  1  0
  9  2  1  0
  9  5  1  0
  1 10  1  0
  1 11  1  0
  1 12  1  0
  2 13  1  0
  3 14  1  0
  3 15  1  0
  4 16  1  0
  4 17  1  0
  6 18  1  0
  6 19  1  0
  6 20  1  0
  8 21  1  0
  8 22  1  0
  9 23  1  0
M  END
