
     RDKit          3D

 23 24  0  0  0  0  0  0  0  0999 V2000
    2.2082    0.2725   -0.8968 C   0  0  0  0  0  0  0  0  0  0  0  0
    1.4255   -0.6718   -0.0101 C   0  0  0  0  0  0  0  0  0  0  0  0
    0.7912   -0.0518    1.1710 C   0  0  0  0  0  0  0  0  0  0  0  0
    0.0924    1.2697    0.8963 C   0  0  0  0  0  0  0  0  0  0  0  0
   -0.9278    0.4512    0.1068 C   0  0  0  0  0  0  0  0  0  0  0  0
   -1.3657    1.1305   -1.1432 C   0  0  0  0  0  0  0  0  0  0  0  0
   -2.0491    0.2343    0.9385 O   0  0  0  0  0  0  0  0  0  0  0  0
   -0.0274   -0.7133    0.0092 C   0  0  0  0  0  0  0  0  0  0  0  0
   -0.6850   -2.0502    0.3791 C   0  0  0  0  0  0  0  0  0  0  0  0
    1.5682    1.0389   -1.3591 H   0  0  0  0  0  0  0  0  0  0  0  0
    2.8434   -0.2736   -1.6373 H   0  0  0  0  0  0  0  0  0  0  0  0
    2.9435    0.7923   -0.2252 H   0  0  0  0  0  0  0  0  0  0  0  0
    1.9623   -1.6231    0.1817 H   0  0  0  0  0  0  0  0  0  0  0  0
    0.6936   -0.5382    2.1399 H   0  0  0  0  0  0  0  0  0  0  0  0
   -0.2955    1.7975    1.7638 H   0  0  0  0  0  0  0  0  0  0  0  0
    0.6558    1.9560    0.2192 H   0  0  0  0  0  0  0  0  0  0  0  0
   -2.4406    0.9378   -1.3993 H   0  0  0  0  0  0  0  0  0  0  0  0
   -1.3309    2.2416   -0.9414 H   0  0  0  0  0  0  0  0  0  0  0  0
   -0.7527    0.9410   -2.0211 H   0  0  0  0  0  0  0  0  0  0  0  0
   -2.8533   -0.0155    0.3876 H   0  0  0  0  0  0  0  0  0  0  0  0
   -0.6202   -2.7539   -0.4945 H   0  0  0  0  0  0  0  0  0  0  0  0
   -1.7221   -1.9172    0.7092 H   0  0  0  0  0  0  0  0  0  0  0  0
   -0.1138   -2.4547    1.2257 H   0  0  0  0  0  0  0  0  0  0  0  0
  1  2  1  0
  2  3  1  0
  3  4  1  0
  4  5  1  0
  5  6  1  0
  5  7  1  0
  5  8  1  0
  8  9  1  0
  8  2  1  0
  8  3  1  0
  1 10  1  0
  1 11  1  0
  1 12  1  0
  2 13  1  0
  3 14  1  0
  4 15  1  0
  4 16  1  0
  6 17  1  0
  6 18  1  0
  6 19  1  0
  7 20  1  0
  9 21  1  0
  9 22  1  0
  9 23  1  0
M  END
