
     RDKit          3D

 23 24  0  0  0  0  0  0  0  0999 V2000
    2.3510    0.5775    0.5544 C   0  0  0  0  0  0  0  0  0  0  0  0
    0.8789    0.4387    0.3615 C   0  0  0  0  0  0  0  0  0  0  0  0
    0.2714   -0.8806    0.7342 C   0  0  0  0  0  0  0  0  0  0  0  0
   -1.2366   -0.6879    0.8309 C   0  0  0  0  0  0  0  0  0  0  0  0
   -1.7500    0.3085   -0.1352 C   0  0  0  0  0  0  0  0  0  0  0  0
   -2.0931    1.4726    0.5885 O   0  0  0  0  0  0  0  0  0  0  0  0
   -0.8802    0.5949   -1.3023 C   0  0  0  0  0  0  0  0  0  0  0  0
    0.5233    0.1010   -1.0924 C   0  0  0  0  0  0  0  0  0  0  0  0
    0.5431   -1.3610   -0.6693 C   0  0  0  0  0  0  0  0  0  0  0  0
    2.8920    0.0543   -0.2447 H   0  0  0  0  0  0  0  0  0  0  0  0
    2.5987    1.6686    0.4245 H   0  0  0  0  0  0  0  0  0  0  0  0
    2.6674    0.3217    1.5739 H   0  0  0  0  0  0  0  0  0  0  0  0
    0.3019    1.2662    0.7911 H   0  0  0  0  0  0  0  0  0  0  0  0
    0.7174   -1.4349    1.5490 H   0  0  0  0  0  0  0  0  0  0  0  0
   -1.4767   -0.4737    1.8850 H   0  0  0  0  0  0  0  0  0  0  0  0
   -1.6746   -1.6990    0.5880 H   0  0  0  0  0  0  0  0  0  0  0  0
   -2.7378   -0.0605   -0.5392 H   0  0  0  0  0  0  0  0  0  0  0  0
   -2.2580    1.2542    1.5439 H   0  0  0  0  0  0  0  0  0  0  0  0
   -0.8054    1.7176   -1.3987 H   0  0  0  0  0  0  0  0  0  0  0  0
   -1.2861    0.2561   -2.2800 H   0  0  0  0  0  0  0  0  0  0  0  0
    1.2638    0.3856   -1.8306 H   0  0  0  0  0  0  0  0  0  0  0  0
    1.4941   -1.8569   -0.8436 H   0  0  0  0  0  0  0  0  0  0  0  0
   -0.3043   -1.9630   -1.0890 H   0  0  0  0  0  0  0  0  0  0  0  0
  1  2  1  0
  2  3  1  0
  3  4  1  0
  4  5  1  0
  5  6  1  0
  5  7  1  0
  7  8  1  0
  8  9  1  0
  8  2  1  0
  9  3  1  0
  1 10  1  0
  1 11  1  0
  1 12  1  0
  2 13  1  0
  3 14  1  0
  4 15  1  0
  4 16  1  0
  5 17  1  0
  6 18  1  0
  7 19  1  0
  7 20  1  0
  8 21  1  0
  9 22  1  0
  9 23  1  0
M  END
