
     RDKit          3D

 23 24  0  0  0  0  0  0  0  0999 V2000
   -0.5404   -2.0865   -0.4874 C   0  0  0  0  0  0  0  0  0  0  0  0
   -1.1116   -0.7465   -0.2241 C   0  0  0  0  0  0  0  0  0  0  0  0
   -1.2303   -0.4327    1.2922 C   0  0  0  0  0  0  0  0  0  0  0  0
   -0.4241    0.4167    0.2995 C   0  0  0  0  0  0  0  0  0  0  0  0
   -1.0820    1.7543    0.0113 C   0  0  0  0  0  0  0  0  0  0  0  0
   -1.1855    1.9759   -1.3580 O   0  0  0  0  0  0  0  0  0  0  0  0
    1.0245    0.5363    0.5928 C   0  0  0  0  0  0  0  0  0  0  0  0
    2.0386    0.3475   -0.5569 C   0  0  0  0  0  0  0  0  0  0  0  0
    2.0064   -0.5154    0.6710 C   0  0  0  0  0  0  0  0  0  0  0  0
    0.2903   -2.0892   -1.2510 H   0  0  0  0  0  0  0  0  0  0  0  0
   -0.2528   -2.6455    0.4393 H   0  0  0  0  0  0  0  0  0  0  0  0
   -1.3188   -2.7358   -0.9447 H   0  0  0  0  0  0  0  0  0  0  0  0
   -2.0849   -0.5562   -0.7651 H   0  0  0  0  0  0  0  0  0  0  0  0
   -2.1856   -0.0538    1.6637 H   0  0  0  0  0  0  0  0  0  0  0  0
   -0.6404   -1.0582    1.9884 H   0  0  0  0  0  0  0  0  0  0  0  0
   -2.0861    1.8429    0.5137 H   0  0  0  0  0  0  0  0  0  0  0  0
   -0.4719    2.5378    0.4721 H   0  0  0  0  0  0  0  0  0  0  0  0
   -1.2477    2.9646   -1.4722 H   0  0  0  0  0  0  0  0  0  0  0  0
    1.2571    1.4597    1.2080 H   0  0  0  0  0  0  0  0  0  0  0  0
    1.6243   -0.0253   -1.5112 H   0  0  0  0  0  0  0  0  0  0  0  0
    2.8498    1.0639   -0.6595 H   0  0  0  0  0  0  0  0  0  0  0  0
    1.8801   -1.5808    0.4604 H   0  0  0  0  0  0  0  0  0  0  0  0
    2.8911   -0.3738    1.3656 H   0  0  0  0  0  0  0  0  0  0  0  0
  1  2  1  0
  2  3  1  0
  3  4  1  0
  4  5  1  0
  5  6  1  0
  4  7  1  0
  7  8  1  0
  8  9  1  0
  4  2  1  0
  9  7  1  0
  1 10  1  0
  1 11  1  0
  1 12  1  0
  2 13  1  0
  3 14  1  0
  3 15  1  0
  5 16  1  0
  5 17  1  0
  6 18  1  0
  7 19  1  0
  8 20  1  0
  8 21  1  0
  9 22  1  0
  9 23  1  0
M  END
