
     RDKit          3D

 23 23  0  0  0  0  0  0  0  0999 V2000
    2.7039   -0.8183    0.1661 C   0  0  0  0  0  0  0  0  0  0  0  0
    1.5311    0.1061   -0.0467 C   0  0  0  0  0  0  0  0  0  0  0  0
    1.0503    0.0991   -1.4435 C   0  0  0  0  0  0  0  0  0  0  0  0
   -0.2599    0.2077   -1.4401 C   0  0  0  0  0  0  0  0  0  0  0  0
   -0.8252    0.2990   -0.0748 C   0  0  0  0  0  0  0  0  0  0  0  0
   -1.0750    1.6950    0.3862 C   0  0  0  0  0  0  0  0  0  0  0  0
   -2.0377   -0.5910   -0.0169 C   0  0  0  0  0  0  0  0  0  0  0  0
   -2.6592   -0.5917    1.2171 O   0  0  0  0  0  0  0  0  0  0  0  0
    0.3240   -0.2955    0.7553 C   0  0  0  0  0  0  0  0  0  0  0  0
    2.4031   -1.7961    0.5869 H   0  0  0  0  0  0  0  0  0  0  0  0
    3.3703   -0.3519    0.9324 H   0  0  0  0  0  0  0  0  0  0  0  0
    3.2747   -0.8774   -0.7619 H   0  0  0  0  0  0  0  0  0  0  0  0
    1.8278    1.1492    0.1835 H   0  0  0  0  0  0  0  0  0  0  0  0
    1.6980    0.0150   -2.3555 H   0  0  0  0  0  0  0  0  0  0  0  0
   -0.8966    0.2310   -2.3425 H   0  0  0  0  0  0  0  0  0  0  0  0
   -0.2973    2.0500    1.0932 H   0  0  0  0  0  0  0  0  0  0  0  0
   -1.0744    2.3887   -0.5009 H   0  0  0  0  0  0  0  0  0  0  0  0
   -2.0893    1.7207    0.8548 H   0  0  0  0  0  0  0  0  0  0  0  0
   -1.6667   -1.6449   -0.1789 H   0  0  0  0  0  0  0  0  0  0  0  0
   -2.7114   -0.3631   -0.8399 H   0  0  0  0  0  0  0  0  0  0  0  0
   -3.1968   -1.4443    1.2630 H   0  0  0  0  0  0  0  0  0  0  0  0
    0.3917    0.2039    1.7443 H   0  0  0  0  0  0  0  0  0  0  0  0
    0.2146   -1.3913    0.8189 H   0  0  0  0  0  0  0  0  0  0  0  0
  1  2  1  0
  2  3  1  0
  3  4  2  0
  4  5  1  0
  5  6  1  0
  5  7  1  0
  7  8  1  0
  5  9  1  0
  9  2  1  0
  1 10  1  0
  1 11  1  0
  1 12  1  0
  2 13  1  0
  3 14  1  0
  4 15  1  0
  6 16  1  0
  6 17  1  0
  6 18  1  0
  7 19  1  0
  7 20  1  0
  8 21  1  0
  9 22  1  0
  9 23  1  0
M  END
