
     RDKit          3D

 21 22  0  0  0  0  0  0  0  0999 V2000
   -1.8604   -1.7149    0.0684 C   0  0  0  0  0  0  0  0  0  0  0  0
   -0.8372   -0.7087   -0.4069 C   0  0  0  0  0  0  0  0  0  0  0  0
   -1.0588    0.6885   -0.6786 C   0  0  0  0  0  0  0  0  0  0  0  0
   -0.6338    1.9578   -0.0658 C   0  0  0  0  0  0  0  0  0  0  0  0
   -0.9329    1.3174    1.1313 O   0  0  0  0  0  0  0  0  0  0  0  0
   -0.3682    0.2296    0.5835 C   0  0  0  0  0  0  0  0  0  0  0  0
    0.9517   -0.0778    1.0067 C   0  0  0  0  0  0  0  0  0  0  0  0
    2.1032   -0.1508    0.0609 C   0  0  0  0  0  0  0  0  0  0  0  0
    2.4472    0.9463   -0.6479 O   0  0  0  0  0  0  0  0  0  0  0  0
   -2.8591   -1.2381   -0.0308 H   0  0  0  0  0  0  0  0  0  0  0  0
   -1.6455   -1.9520    1.1329 H   0  0  0  0  0  0  0  0  0  0  0  0
   -1.8652   -2.6512   -0.4810 H   0  0  0  0  0  0  0  0  0  0  0  0
   -0.1389   -1.1803   -1.1634 H   0  0  0  0  0  0  0  0  0  0  0  0
   -2.2121    0.7640   -0.6919 H   0  0  0  0  0  0  0  0  0  0  0  0
    0.3272    2.3934   -0.2113 H   0  0  0  0  0  0  0  0  0  0  0  0
   -1.3708    2.8248   -0.1416 H   0  0  0  0  0  0  0  0  0  0  0  0
    0.9069   -1.1515    1.4128 H   0  0  0  0  0  0  0  0  0  0  0  0
    1.3336    0.4334    1.9380 H   0  0  0  0  0  0  0  0  0  0  0  0
    3.0059   -0.4066    0.7044 H   0  0  0  0  0  0  0  0  0  0  0  0
    2.0394   -1.0897   -0.5794 H   0  0  0  0  0  0  0  0  0  0  0  0
    2.6678    0.7664   -1.6132 H   0  0  0  0  0  0  0  0  0  0  0  0
  1  2  1  0
  2  3  1  0
  3  4  1  0
  4  5  1  0
  5  6  1  0
  6  7  1  0
  7  8  1  0
  8  9  1  0
  6  2  1  0
  6  3  1  0
  1 10  1  0
  1 11  1  0
  1 12  1  0
  2 13  1  0
  3 14  1  0
  4 15  1  0
  4 16  1  0
  7 17  1  0
  7 18  1  0
  8 19  1  0
  8 20  1  0
  9 21  1  0
M  END
