
     RDKit          3D

 19 21  0  0  0  0  0  0  0  0999 V2000
   -2.5006    0.4121    0.0552 C   0  0  0  0  0  0  0  0  0  0  0  0
   -1.3899   -0.4333    0.5638 C   0  0  0  0  0  0  0  0  0  0  0  0
   -0.0841    0.3189    0.8439 C   0  0  0  0  0  0  0  0  0  0  0  0
    0.5721   -0.6759   -0.1238 C   0  0  0  0  0  0  0  0  0  0  0  0
    1.7469   -0.1865   -0.8995 C   0  0  0  0  0  0  0  0  0  0  0  0
    2.6153    0.8436   -0.2265 C   0  0  0  0  0  0  0  0  0  0  0  0
    3.0389   -0.4759   -0.3777 O   0  0  0  0  0  0  0  0  0  0  0  0
    0.3905   -2.0260    0.1222 O   0  0  0  0  0  0  0  0  0  0  0  0
   -0.6135   -1.2117   -0.4791 C   0  0  0  0  0  0  0  0  0  0  0  0
   -2.5620    0.4840   -1.0398 H   0  0  0  0  0  0  0  0  0  0  0  0
   -3.4773    0.0133    0.4244 H   0  0  0  0  0  0  0  0  0  0  0  0
   -2.4000    1.4281    0.5262 H   0  0  0  0  0  0  0  0  0  0  0  0
   -1.6623   -1.0369    1.4504 H   0  0  0  0  0  0  0  0  0  0  0  0
   -0.0549    1.3186    0.4108 H   0  0  0  0  0  0  0  0  0  0  0  0
    0.2785    0.2272    1.8684 H   0  0  0  0  0  0  0  0  0  0  0  0
    1.7563   -0.2230   -2.0055 H   0  0  0  0  0  0  0  0  0  0  0  0
    3.1039    1.6129   -0.8745 H   0  0  0  0  0  0  0  0  0  0  0  0
    2.3375    1.1928    0.7886 H   0  0  0  0  0  0  0  0  0  0  0  0
   -1.0953   -1.5823   -1.3777 H   0  0  0  0  0  0  0  0  0  0  0  0
  1  2  1  0
  2  3  1  0
  3  4  1  0
  4  5  1  0
  5  6  1  0
  6  7  1  0
  4  8  1  0
  8  9  1  0
  9  2  1  0
  9  4  1  0
  7  5  1  0
  1 10  1  0
  1 11  1  0
  1 12  1  0
  2 13  1  0
  3 14  1  0
  3 15  1  0
  5 16  1  0
  6 17  1  0
  6 18  1  0
  9 19  1  0
M  END
