
     RDKit          3D

 19 19  0  0  0  0  0  0  0  0999 V2000
    2.1772   -0.1770    0.7291 C   0  0  0  0  0  0  0  0  0  0  0  0
    1.0129   -0.1743   -0.2234 C   0  0  0  0  0  0  0  0  0  0  0  0
    0.0682   -1.3453    0.0249 C   0  0  0  0  0  0  0  0  0  0  0  0
   -1.2482   -0.9307   -0.4795 C   0  0  0  0  0  0  0  0  0  0  0  0
   -1.7170   -1.4686   -1.4406 O   0  0  0  0  0  0  0  0  0  0  0  0
   -1.9704    0.1444    0.2099 C   0  0  0  0  0  0  0  0  0  0  0  0
   -1.0392    1.3138    0.4376 C   0  0  0  0  0  0  0  0  0  0  0  0
    0.2956    1.1253   -0.1335 C   0  0  0  0  0  0  0  0  0  0  0  0
    0.8852    2.1048   -0.5783 O   0  0  0  0  0  0  0  0  0  0  0  0
    2.5781   -1.1901    0.9143 H   0  0  0  0  0  0  0  0  0  0  0  0
    2.9801    0.4473    0.2531 H   0  0  0  0  0  0  0  0  0  0  0  0
    1.8334    0.2270    1.6907 H   0  0  0  0  0  0  0  0  0  0  0  0
    1.3721   -0.2949   -1.2761 H   0  0  0  0  0  0  0  0  0  0  0  0
    0.4486   -2.2502   -0.5090 H   0  0  0  0  0  0  0  0  0  0  0  0
    0.0488   -1.5041    1.1245 H   0  0  0  0  0  0  0  0  0  0  0  0
   -2.8703    0.4264   -0.3597 H   0  0  0  0  0  0  0  0  0  0  0  0
   -2.3070   -0.2426    1.1971 H   0  0  0  0  0  0  0  0  0  0  0  0
   -1.5242    2.2076   -0.0485 H   0  0  0  0  0  0  0  0  0  0  0  0
   -1.0241    1.5811    1.5311 H   0  0  0  0  0  0  0  0  0  0  0  0
  1  2  1  0
  2  3  1  0
  3  4  1  0
  4  5  2  0
  4  6  1  0
  6  7  1  0
  7  8  1  0
  8  9  2  0
  8  2  1  0
  1 10  1  0
  1 11  1  0
  1 12  1  0
  2 13  1  0
  3 14  1  0
  3 15  1  0
  6 16  1  0
  6 17  1  0
  7 18  1  0
  7 19  1  0
M  END
