
     RDKit          3D

 25 25  0  0  0  0  0  0  0  0999 V2000
    2.6007   -0.7803    0.4112 C   0  0  0  0  0  0  0  0  0  0  0  0
    1.3351    0.0617    0.4692 C   0  0  0  0  0  0  0  0  0  0  0  0
    1.4878    1.1878   -0.5038 C   0  0  0  0  0  0  0  0  0  0  0  0
    0.1935    1.6600   -1.0417 C   0  0  0  0  0  0  0  0  0  0  0  0
   -0.9824    1.1003   -0.8326 C   0  0  0  0  0  0  0  0  0  0  0  0
   -1.1162   -0.1266    0.0121 C   0  0  0  0  0  0  0  0  0  0  0  0
   -1.7400    0.1891    1.3517 C   0  0  0  0  0  0  0  0  0  0  0  0
   -2.1114   -1.0324   -0.7213 C   0  0  0  0  0  0  0  0  0  0  0  0
    0.1843   -0.8570    0.1201 C   0  0  0  0  0  0  0  0  0  0  0  0
    2.6244   -1.4538   -0.4560 H   0  0  0  0  0  0  0  0  0  0  0  0
    2.7648   -1.3521    1.3294 H   0  0  0  0  0  0  0  0  0  0  0  0
    3.4471   -0.0533    0.3261 H   0  0  0  0  0  0  0  0  0  0  0  0
    1.2515    0.4484    1.4853 H   0  0  0  0  0  0  0  0  0  0  0  0
    2.0438    2.0128    0.0187 H   0  0  0  0  0  0  0  0  0  0  0  0
    2.1494    0.9121   -1.3690 H   0  0  0  0  0  0  0  0  0  0  0  0
    0.2104    2.5592   -1.6733 H   0  0  0  0  0  0  0  0  0  0  0  0
   -1.8723    1.5604   -1.2982 H   0  0  0  0  0  0  0  0  0  0  0  0
   -1.1519    0.8686    1.9683 H   0  0  0  0  0  0  0  0  0  0  0  0
   -2.7468    0.6369    1.1217 H   0  0  0  0  0  0  0  0  0  0  0  0
   -1.9630   -0.7809    1.8454 H   0  0  0  0  0  0  0  0  0  0  0  0
   -2.5285   -1.7908   -0.0357 H   0  0  0  0  0  0  0  0  0  0  0  0
   -1.6066   -1.5314   -1.5746 H   0  0  0  0  0  0  0  0  0  0  0  0
   -2.9611   -0.4309   -1.1036 H   0  0  0  0  0  0  0  0  0  0  0  0
    0.3809   -1.4132   -0.8006 H   0  0  0  0  0  0  0  0  0  0  0  0
    0.1066   -1.5945    0.9511 H   0  0  0  0  0  0  0  0  0  0  0  0
  1  2  1  0
  2  3  1  0
  3  4  1  0
  4  5  2  0
  5  6  1  0
  6  7  1  0
  6  8  1  0
  6  9  1  0
  9  2  1  0
  1 10  1  0
  1 11  1  0
  1 12  1  0
  2 13  1  0
  3 14  1  0
  3 15  1  0
  4 16  1  0
  5 17  1  0
  7 18  1  0
  7 19  1  0
  7 20  1  0
  8 21  1  0
  8 22  1  0
  8 23  1  0
  9 24  1  0
  9 25  1  0
M  END
