
     RDKit          3D

 23 23  0  0  0  0  0  0  0  0999 V2000
   -1.3020   -0.2252    1.5626 C   0  0  0  0  0  0  0  0  0  0  0  0
   -1.3306   -0.2197    0.1020 C   0  0  0  0  0  0  0  0  0  0  0  0
   -1.5338    1.1026   -0.5972 C   0  0  0  0  0  0  0  0  0  0  0  0
   -0.8986    0.5115   -1.7063 O   0  0  0  0  0  0  0  0  0  0  0  0
   -0.1502   -0.2313   -0.7535 C   0  0  0  0  0  0  0  0  0  0  0  0
    0.0745   -1.6108   -1.3655 C   0  0  0  0  0  0  0  0  0  0  0  0
    1.0806    0.5172   -0.4466 C   0  0  0  0  0  0  0  0  0  0  0  0
    1.7837    0.1816    0.8271 C   0  0  0  0  0  0  0  0  0  0  0  0
    2.9274    1.0168    0.8992 O   0  0  0  0  0  0  0  0  0  0  0  0
   -0.6785   -1.0436    1.9613 H   0  0  0  0  0  0  0  0  0  0  0  0
   -2.3430   -0.4879    1.9306 H   0  0  0  0  0  0  0  0  0  0  0  0
   -1.0899    0.7367    2.0625 H   0  0  0  0  0  0  0  0  0  0  0  0
   -2.0992   -0.9469   -0.2951 H   0  0  0  0  0  0  0  0  0  0  0  0
   -2.6213    1.3241   -0.7851 H   0  0  0  0  0  0  0  0  0  0  0  0
   -1.0431    1.9731   -0.1665 H   0  0  0  0  0  0  0  0  0  0  0  0
    0.5525   -1.5495   -2.3521 H   0  0  0  0  0  0  0  0  0  0  0  0
    0.7173   -2.2302   -0.7213 H   0  0  0  0  0  0  0  0  0  0  0  0
   -0.9032   -2.1163   -1.4377 H   0  0  0  0  0  0  0  0  0  0  0  0
    1.8188    0.2846   -1.2731 H   0  0  0  0  0  0  0  0  0  0  0  0
    0.9270    1.6145   -0.5334 H   0  0  0  0  0  0  0  0  0  0  0  0
    2.1650   -0.8676    0.8018 H   0  0  0  0  0  0  0  0  0  0  0  0
    1.2405    0.3567    1.7518 H   0  0  0  0  0  0  0  0  0  0  0  0
    2.7060    1.9093    0.5345 H   0  0  0  0  0  0  0  0  0  0  0  0
  1  2  1  0
  2  3  1  0
  3  4  1  0
  4  5  1  0
  5  6  1  0
  5  7  1  0
  7  8  1  0
  8  9  1  0
  5  2  1  0
  1 10  1  0
  1 11  1  0
  1 12  1  0
  2 13  1  0
  3 14  1  0
  3 15  1  0
  6 16  1  0
  6 17  1  0
  6 18  1  0
  7 19  1  0
  7 20  1  0
  8 21  1  0
  8 22  1  0
  9 23  1  0
M  END
