
     RDKit          2D

 19 22  0  0  0  0  0  0  0  0999 V2000
   -2.0711   -4.8976    0.0000 C   0  0  0  0  0  0  0  0  0  0  0  0
   -1.8107   -3.4204    0.0000 C   0  0  0  0  0  0  0  0  0  0  0  0
   -0.3107   -3.4204    0.0000 C   0  0  0  0  0  0  0  0  0  0  0  0
   -1.0607   -2.1213    0.0000 C   0  0  0  0  0  0  0  0  0  0  0  0
   -0.0000   -1.0607    0.0000 C   0  0  0  0  0  0  0  0  0  0  0  0
    1.0607    0.0000    0.0000 O   0  0  0  0  0  0  0  0  0  0  0  0
    0.0000    1.0607    0.0000 C   0  0  0  0  0  0  0  0  0  0  0  0
   -1.0607    0.0000    0.0000 C   0  0  0  0  0  0  0  0  0  0  0  0
   -2.1213   -1.0607    0.0000 C   0  0  0  0  0  0  0  0  0  0  0  0
   -2.3316   -6.3748    0.0000 H   0  0  0  0  0  0  0  0  0  0  0  0
   -3.5483   -4.6371    0.0000 H   0  0  0  0  0  0  0  0  0  0  0  0
   -0.7801   -5.2923    0.0000 H   0  0  0  0  0  0  0  0  0  0  0  0
   -3.2202   -2.9073    0.0000 H   0  0  0  0  0  0  0  0  0  0  0  0
    1.1509   -3.0830    0.0000 H   0  0  0  0  0  0  0  0  0  0  0  0
    0.0841   -4.7114    0.0000 H   0  0  0  0  0  0  0  0  0  0  0  0
    1.1820   -1.9841    0.0000 H   0  0  0  0  0  0  0  0  0  0  0  0
    0.0000    2.5607    0.0000 H   0  0  0  0  0  0  0  0  0  0  0  0
   -2.1213    1.0607    0.0000 H   0  0  0  0  0  0  0  0  0  0  0  0
   -3.6213   -1.0607    0.0000 H   0  0  0  0  0  0  0  0  0  0  0  0
  1  2  1  0
  2  3  1  0
  3  4  1  0
  4  5  1  0
  5  6  1  0
  6  7  1  0
  7  8  1  0
  8  9  1  0
  4  2  1  0
  8  5  1  0
  9  4  1  0
  9  7  1  0
  1 10  1  0
  1 11  1  0
  1 12  1  0
  2 13  1  0
  3 14  1  0
  3 15  1  0
  5 16  1  0
  7 17  1  0
  8 18  1  0
  9 19  1  0
M  END
