
     RDKit          3D

 19 19  0  0  0  0  0  0  0  0999 V2000
   -1.3138    1.4820   -0.4762 C   0  0  0  0  0  0  0  0  0  0  0  0
   -1.1368    0.0667   -0.2209 C   0  0  0  0  0  0  0  0  0  0  0  0
   -2.0445   -0.9673   -0.4211 C   0  0  0  0  0  0  0  0  0  0  0  0
   -1.3916   -2.1575   -0.0748 C   0  0  0  0  0  0  0  0  0  0  0  0
   -0.2132   -1.8531    0.2859 O   0  0  0  0  0  0  0  0  0  0  0  0
    0.0531   -0.5590    0.2483 C   0  0  0  0  0  0  0  0  0  0  0  0
    1.2470    0.1989    0.6106 C   0  0  0  0  0  0  0  0  0  0  0  0
    2.5164   -0.1576   -0.1051 C   0  0  0  0  0  0  0  0  0  0  0  0
    1.0440    1.5568    0.7366 O   0  0  0  0  0  0  0  0  0  0  0  0
   -1.7249    2.1014    0.2778 H   0  0  0  0  0  0  0  0  0  0  0  0
   -0.4020    1.9481   -0.9746 H   0  0  0  0  0  0  0  0  0  0  0  0
   -2.0616    1.5398   -1.3483 H   0  0  0  0  0  0  0  0  0  0  0  0
   -3.0572   -0.9139   -0.7547 H   0  0  0  0  0  0  0  0  0  0  0  0
   -1.8503   -3.1669   -0.0964 H   0  0  0  0  0  0  0  0  0  0  0  0
    1.5126   -0.1265    1.7575 H   0  0  0  0  0  0  0  0  0  0  0  0
    3.3546    0.1932    0.5040 H   0  0  0  0  0  0  0  0  0  0  0  0
    2.5887   -1.2491   -0.3707 H   0  0  0  0  0  0  0  0  0  0  0  0
    2.4666    0.4318   -1.1097 H   0  0  0  0  0  0  0  0  0  0  0  0
    0.4127    1.6322    1.5318 H   0  0  0  0  0  0  0  0  0  0  0  0
  1  2  1  0
  2  3  1  0
  3  4  2  0
  4  5  1  0
  5  6  1  0
  6  7  1  0
  7  8  1  0
  7  9  1  0
  6  2  2  0
  1 10  1  0
  1 11  1  0
  1 12  1  0
  3 13  1  0
  4 14  1  0
  7 15  1  0
  8 16  1  0
  8 17  1  0
  8 18  1  0
  9 19  1  0
M  END
