
     RDKit          3D

 21 22  0  0  0  0  0  0  0  0999 V2000
    2.5502   -0.2872    0.4894 C   0  0  0  0  0  0  0  0  0  0  0  0
    1.0974   -0.5863    0.0965 C   0  0  0  0  0  0  0  0  0  0  0  0
    0.4640    0.6104   -0.5818 C   0  0  0  0  0  0  0  0  0  0  0  0
   -1.0054    0.5957   -0.3010 C   0  0  0  0  0  0  0  0  0  0  0  0
   -1.8101    1.3906   -1.0638 O   0  0  0  0  0  0  0  0  0  0  0  0
   -1.1633    0.7960    1.2148 C   0  0  0  0  0  0  0  0  0  0  0  0
   -0.8615   -0.6748    1.3330 C   0  0  0  0  0  0  0  0  0  0  0  0
   -1.5228   -0.8214   -0.0461 C   0  0  0  0  0  0  0  0  0  0  0  0
    0.4504   -1.0022    1.2180 O   0  0  0  0  0  0  0  0  0  0  0  0
    2.9236    0.6299    0.0455 H   0  0  0  0  0  0  0  0  0  0  0  0
    2.6285   -0.1664    1.6041 H   0  0  0  0  0  0  0  0  0  0  0  0
    3.1962   -1.1679    0.2570 H   0  0  0  0  0  0  0  0  0  0  0  0
    1.1659   -1.3810   -0.6999 H   0  0  0  0  0  0  0  0  0  0  0  0
    0.7249    0.6742   -1.6429 H   0  0  0  0  0  0  0  0  0  0  0  0
    0.8843    1.5125   -0.0527 H   0  0  0  0  0  0  0  0  0  0  0  0
   -1.9843    1.0136   -1.9459 H   0  0  0  0  0  0  0  0  0  0  0  0
   -2.2398    0.9782    1.4132 H   0  0  0  0  0  0  0  0  0  0  0  0
   -0.4472    1.4902    1.6480 H   0  0  0  0  0  0  0  0  0  0  0  0
   -1.3587   -1.2198    2.1385 H   0  0  0  0  0  0  0  0  0  0  0  0
   -1.0808   -1.6008   -0.6597 H   0  0  0  0  0  0  0  0  0  0  0  0
   -2.6113   -0.7836    0.0614 H   0  0  0  0  0  0  0  0  0  0  0  0
  1  2  1  0
  2  3  1  0
  3  4  1  0
  4  5  1  0
  4  6  1  0
  6  7  1  0
  7  8  1  0
  7  9  1  0
  9  2  1  0
  8  4  1  0
  1 10  1  0
  1 11  1  0
  1 12  1  0
  2 13  1  0
  3 14  1  0
  3 15  1  0
  5 16  1  0
  6 17  1  0
  6 18  1  0
  7 19  1  0
  8 20  1  0
  8 21  1  0
M  END
