
     RDKit          3D

 19 20  0  0  0  0  0  0  0  0999 V2000
    1.5749   -0.5247   -1.0774 C   0  0  0  0  0  0  0  0  0  0  0  0
    0.9206    0.1902    0.0517 C   0  0  0  0  0  0  0  0  0  0  0  0
   -0.0871   -0.6647    0.8197 C   0  0  0  0  0  0  0  0  0  0  0  0
    0.3109   -1.4455    1.7926 O   0  0  0  0  0  0  0  0  0  0  0  0
   -0.9492   -1.1545   -0.2865 C   0  0  0  0  0  0  0  0  0  0  0  0
   -1.1203   -0.0429   -1.0355 C   0  0  0  0  0  0  0  0  0  0  0  0
   -0.3407    0.9701   -0.3137 C   0  0  0  0  0  0  0  0  0  0  0  0
   -0.2479    2.2177   -0.7137 O   0  0  0  0  0  0  0  0  0  0  0  0
   -0.7606    0.6751    1.1355 C   0  0  0  0  0  0  0  0  0  0  0  0
    2.3546    0.1435   -1.5022 H   0  0  0  0  0  0  0  0  0  0  0  0
    2.0720   -1.4288   -0.6743 H   0  0  0  0  0  0  0  0  0  0  0  0
    0.8717   -0.8217   -1.8636 H   0  0  0  0  0  0  0  0  0  0  0  0
    1.6065    0.7403    0.7075 H   0  0  0  0  0  0  0  0  0  0  0  0
   -0.3622   -1.5925    2.4788 H   0  0  0  0  0  0  0  0  0  0  0  0
   -1.3513   -2.1472   -0.4678 H   0  0  0  0  0  0  0  0  0  0  0  0
   -1.6866    0.0926   -1.9455 H   0  0  0  0  0  0  0  0  0  0  0  0
   -0.7143    2.8736   -0.1636 H   0  0  0  0  0  0  0  0  0  0  0  0
   -1.8518    0.6422    1.1736 H   0  0  0  0  0  0  0  0  0  0  0  0
   -0.2391    1.2772    1.8845 H   0  0  0  0  0  0  0  0  0  0  0  0
  1  2  1  0
  2  3  1  0
  3  4  1  0
  3  5  1  0
  5  6  2  0
  6  7  1  0
  7  8  1  0
  7  9  1  0
  7  2  1  0
  9  3  1  0
  1 10  1  0
  1 11  1  0
  1 12  1  0
  2 13  1  0
  4 14  1  0
  5 15  1  0
  6 16  1  0
  8 17  1  0
  9 18  1  0
  9 19  1  0
M  END
