
     RDKit          3D

 19 19  0  0  0  0  0  0  0  0999 V2000
   -1.2250   -0.7389   -1.5336 C   0  0  0  0  0  0  0  0  0  0  0  0
   -0.4137   -0.7204   -0.2683 C   0  0  0  0  0  0  0  0  0  0  0  0
   -0.4344    0.6210    0.4452 C   0  0  0  0  0  0  0  0  0  0  0  0
   -0.7774    0.5039    1.9083 C   0  0  0  0  0  0  0  0  0  0  0  0
    0.8128    0.0974   -0.1279 C   0  0  0  0  0  0  0  0  0  0  0  0
    1.8816   -0.4789    0.7259 C   0  0  0  0  0  0  0  0  0  0  0  0
    1.6749   -1.1282    1.7333 O   0  0  0  0  0  0  0  0  0  0  0  0
    1.3279    0.8511   -1.3062 C   0  0  0  0  0  0  0  0  0  0  0  0
    0.5887    1.3917   -2.1155 O   0  0  0  0  0  0  0  0  0  0  0  0
   -1.4494    0.2601   -1.9336 H   0  0  0  0  0  0  0  0  0  0  0  0
   -0.8124   -1.4390   -2.2984 H   0  0  0  0  0  0  0  0  0  0  0  0
   -2.2259   -1.1849   -1.2572 H   0  0  0  0  0  0  0  0  0  0  0  0
   -0.4809   -1.6448    0.3209 H   0  0  0  0  0  0  0  0  0  0  0  0
   -0.9268    1.4764   -0.0447 H   0  0  0  0  0  0  0  0  0  0  0  0
   -1.9070    0.5088    1.9571 H   0  0  0  0  0  0  0  0  0  0  0  0
   -0.4722    1.4244    2.4593 H   0  0  0  0  0  0  0  0  0  0  0  0
   -0.4602   -0.4259    2.3745 H   0  0  0  0  0  0  0  0  0  0  0  0
    2.9114   -0.3213    0.4496 H   0  0  0  0  0  0  0  0  0  0  0  0
    2.3882    0.9473   -1.4888 H   0  0  0  0  0  0  0  0  0  0  0  0
  1  2  1  0
  2  3  1  0
  3  4  1  0
  3  5  1  0
  5  6  1  0
  6  7  2  0
  5  8  1  0
  8  9  2  0
  5  2  1  0
  1 10  1  0
  1 11  1  0
  1 12  1  0
  2 13  1  0
  3 14  1  0
  4 15  1  0
  4 16  1  0
  4 17  1  0
  6 18  1  0
  8 19  1  0
M  END
