
     RDKit          3D

 23 24  0  0  0  0  0  0  0  0999 V2000
   -2.3923    0.0349   -0.1209 C   0  0  0  0  0  0  0  0  0  0  0  0
   -0.9460    0.2033   -0.5955 C   0  0  0  0  0  0  0  0  0  0  0  0
   -0.3287   -1.1394   -0.7366 C   0  0  0  0  0  0  0  0  0  0  0  0
    0.5057   -1.5842    0.4173 C   0  0  0  0  0  0  0  0  0  0  0  0
    1.1396   -0.3752    1.0614 C   0  0  0  0  0  0  0  0  0  0  0  0
    1.9007    0.3713    0.0109 C   0  0  0  0  0  0  0  0  0  0  0  0
    1.0705    1.6257   -0.1628 C   0  0  0  0  0  0  0  0  0  0  0  0
   -0.2719    1.1333    0.3423 C   0  0  0  0  0  0  0  0  0  0  0  0
    0.1019    0.4485    1.4945 O   0  0  0  0  0  0  0  0  0  0  0  0
   -2.6988   -1.0306   -0.2529 H   0  0  0  0  0  0  0  0  0  0  0  0
   -3.0490    0.7476   -0.6196 H   0  0  0  0  0  0  0  0  0  0  0  0
   -2.4600    0.2541    0.9817 H   0  0  0  0  0  0  0  0  0  0  0  0
   -1.0049    0.6646   -1.6249 H   0  0  0  0  0  0  0  0  0  0  0  0
   -1.1498   -1.9080   -0.8540 H   0  0  0  0  0  0  0  0  0  0  0  0
    0.2374   -1.2149   -1.7114 H   0  0  0  0  0  0  0  0  0  0  0  0
    1.3507   -2.1935   -0.0123 H   0  0  0  0  0  0  0  0  0  0  0  0
   -0.0627   -2.2051    1.1368 H   0  0  0  0  0  0  0  0  0  0  0  0
    1.7382   -0.6270    1.9573 H   0  0  0  0  0  0  0  0  0  0  0  0
    1.8635   -0.1542   -0.9854 H   0  0  0  0  0  0  0  0  0  0  0  0
    2.9183    0.5621    0.3517 H   0  0  0  0  0  0  0  0  0  0  0  0
    1.0428    1.9976   -1.1883 H   0  0  0  0  0  0  0  0  0  0  0  0
    1.4235    2.3968    0.5776 H   0  0  0  0  0  0  0  0  0  0  0  0
   -0.9288    1.9925    0.5328 H   0  0  0  0  0  0  0  0  0  0  0  0
  1  2  1  0
  2  3  1  0
  3  4  1  0
  4  5  1  0
  5  6  1  0
  6  7  1  0
  7  8  1  0
  8  9  1  0
  8  2  1  0
  9  5  1  0
  1 10  1  0
  1 11  1  0
  1 12  1  0
  2 13  1  0
  3 14  1  0
  3 15  1  0
  4 16  1  0
  4 17  1  0
  5 18  1  0
  6 19  1  0
  6 20  1  0
  7 21  1  0
  7 22  1  0
  8 23  1  0
M  END
