
     RDKit          3D

 21 21  0  0  0  0  0  0  0  0999 V2000
    2.0912    0.1371    0.1842 C   0  0  0  0  0  0  0  0  0  0  0  0
    0.6078   -0.1522    0.4569 C   0  0  0  0  0  0  0  0  0  0  0  0
    0.3793   -1.5876    0.2610 C   0  0  0  0  0  0  0  0  0  0  0  0
   -0.9845   -1.9809   -0.1195 C   0  0  0  0  0  0  0  0  0  0  0  0
   -1.8733   -1.1203   -0.5263 C   0  0  0  0  0  0  0  0  0  0  0  0
   -1.5835    0.2924   -0.6344 C   0  0  0  0  0  0  0  0  0  0  0  0
   -2.5013    1.0992   -0.9378 O   0  0  0  0  0  0  0  0  0  0  0  0
   -0.2175    0.7689   -0.3879 C   0  0  0  0  0  0  0  0  0  0  0  0
   -0.3359    2.1490    0.2465 C   0  0  0  0  0  0  0  0  0  0  0  0
    2.2742    1.2187    0.1031 H   0  0  0  0  0  0  0  0  0  0  0  0
    2.3238   -0.4146   -0.7658 H   0  0  0  0  0  0  0  0  0  0  0  0
    2.7169   -0.3381    0.9738 H   0  0  0  0  0  0  0  0  0  0  0  0
    0.4515    0.1207    1.5291 H   0  0  0  0  0  0  0  0  0  0  0  0
    0.6066   -2.1206    1.2303 H   0  0  0  0  0  0  0  0  0  0  0  0
    1.1065   -2.0174   -0.4667 H   0  0  0  0  0  0  0  0  0  0  0  0
   -1.2210   -3.0519   -0.0430 H   0  0  0  0  0  0  0  0  0  0  0  0
   -2.8533   -1.4755   -0.7894 H   0  0  0  0  0  0  0  0  0  0  0  0
    0.2579    0.9526   -1.3889 H   0  0  0  0  0  0  0  0  0  0  0  0
   -1.0782    2.1412    1.0813 H   0  0  0  0  0  0  0  0  0  0  0  0
   -0.8018    2.8101   -0.5411 H   0  0  0  0  0  0  0  0  0  0  0  0
    0.6346    2.5692    0.5346 H   0  0  0  0  0  0  0  0  0  0  0  0
  1  2  1  0
  2  3  1  0
  3  4  1  0
  4  5  2  0
  5  6  1  0
  6  7  2  0
  6  8  1  0
  8  9  1  0
  8  2  1  0
  1 10  1  0
  1 11  1  0
  1 12  1  0
  2 13  1  0
  3 14  1  0
  3 15  1  0
  4 16  1  0
  5 17  1  0
  8 18  1  0
  9 19  1  0
  9 20  1  0
  9 21  1  0
M  END
