
     RDKit          3D

 21 23  0  0  0  0  0  0  0  0999 V2000
   -2.0006   -0.8461    0.5126 C   0  0  0  0  0  0  0  0  0  0  0  0
   -1.2540    0.2091   -0.2467 C   0  0  0  0  0  0  0  0  0  0  0  0
   -0.1255   -0.0666   -1.1289 C   0  0  0  0  0  0  0  0  0  0  0  0
    0.7129   -1.2807   -1.1107 C   0  0  0  0  0  0  0  0  0  0  0  0
    0.6705   -2.2261   -0.1308 O   0  0  0  0  0  0  0  0  0  0  0  0
    1.5413   -1.1784    0.0903 C   0  0  0  0  0  0  0  0  0  0  0  0
    1.0074   -0.1240    1.0031 C   0  0  0  0  0  0  0  0  0  0  0  0
    0.0850    0.6730    0.1660 C   0  0  0  0  0  0  0  0  0  0  0  0
    0.4156    2.1573    0.0909 C   0  0  0  0  0  0  0  0  0  0  0  0
   -1.5325   -1.8270    0.5323 H   0  0  0  0  0  0  0  0  0  0  0  0
   -2.2861   -0.5073    1.5494 H   0  0  0  0  0  0  0  0  0  0  0  0
   -2.9984   -0.9880   -0.0000 H   0  0  0  0  0  0  0  0  0  0  0  0
   -1.9349    1.0461   -0.5896 H   0  0  0  0  0  0  0  0  0  0  0  0
    0.0220    0.5751   -2.0458 H   0  0  0  0  0  0  0  0  0  0  0  0
    1.1862   -1.6184   -2.0561 H   0  0  0  0  0  0  0  0  0  0  0  0
    2.6271   -1.3100   -0.0537 H   0  0  0  0  0  0  0  0  0  0  0  0
    1.8326    0.4604    1.3958 H   0  0  0  0  0  0  0  0  0  0  0  0
    0.5057   -0.6212    1.8651 H   0  0  0  0  0  0  0  0  0  0  0  0
    1.2354    2.2362   -0.6741 H   0  0  0  0  0  0  0  0  0  0  0  0
   -0.4612    2.7380   -0.2420 H   0  0  0  0  0  0  0  0  0  0  0  0
    0.7513    2.4987    1.0732 H   0  0  0  0  0  0  0  0  0  0  0  0
  1  2  1  0
  2  3  1  0
  3  4  1  0
  4  5  1  0
  5  6  1  0
  6  7  1  0
  7  8  1  0
  8  9  1  0
  8  2  1  0
  8  3  1  0
  6  4  1  0
  1 10  1  0
  1 11  1  0
  1 12  1  0
  2 13  1  0
  3 14  1  0
  4 15  1  0
  6 16  1  0
  7 17  1  0
  7 18  1  0
  9 19  1  0
  9 20  1  0
  9 21  1  0
M  END
