
     RDKit          3D

 23 24  0  0  0  0  0  0  0  0999 V2000
    2.9207    0.6519    0.5751 C   0  0  0  0  0  0  0  0  0  0  0  0
    2.0603   -0.1890   -0.3288 C   0  0  0  0  0  0  0  0  0  0  0  0
    0.7678    0.5122   -0.7755 C   0  0  0  0  0  0  0  0  0  0  0  0
    0.3364   -0.8953   -0.7327 C   0  0  0  0  0  0  0  0  0  0  0  0
   -1.0614   -1.2617   -0.5153 C   0  0  0  0  0  0  0  0  0  0  0  0
   -1.6717   -0.7836    0.7958 C   0  0  0  0  0  0  0  0  0  0  0  0
   -2.2193   -0.3710   -0.5630 C   0  0  0  0  0  0  0  0  0  0  0  0
   -2.1714    1.0824   -0.8318 C   0  0  0  0  0  0  0  0  0  0  0  0
    1.2230   -1.0849    0.3540 O   0  0  0  0  0  0  0  0  0  0  0  0
    3.3461   -0.0033    1.3600 H   0  0  0  0  0  0  0  0  0  0  0  0
    2.3464    1.4391    1.0930 H   0  0  0  0  0  0  0  0  0  0  0  0
    3.7659    1.0340   -0.0233 H   0  0  0  0  0  0  0  0  0  0  0  0
    2.6288   -0.6145   -1.1543 H   0  0  0  0  0  0  0  0  0  0  0  0
    0.8659    1.0079   -1.7612 H   0  0  0  0  0  0  0  0  0  0  0  0
    0.4648    1.2032   -0.0010 H   0  0  0  0  0  0  0  0  0  0  0  0
    0.8002   -1.4646   -1.5936 H   0  0  0  0  0  0  0  0  0  0  0  0
   -1.2807   -2.3518   -0.6901 H   0  0  0  0  0  0  0  0  0  0  0  0
   -1.1005   -0.0149    1.3709 H   0  0  0  0  0  0  0  0  0  0  0  0
   -2.2221   -1.4710    1.4333 H   0  0  0  0  0  0  0  0  0  0  0  0
   -3.2253   -0.8414   -0.7492 H   0  0  0  0  0  0  0  0  0  0  0  0
   -1.5161    1.2746   -1.7016 H   0  0  0  0  0  0  0  0  0  0  0  0
   -3.1758    1.4547   -1.1168 H   0  0  0  0  0  0  0  0  0  0  0  0
   -1.8820    1.6869    0.0629 H   0  0  0  0  0  0  0  0  0  0  0  0
  1  2  1  0
  2  3  1  0
  3  4  1  0
  4  5  1  0
  5  6  1  0
  6  7  1  0
  7  8  1  0
  4  9  1  0
  9  2  1  0
  7  5  1  0
  1 10  1  0
  1 11  1  0
  1 12  1  0
  2 13  1  0
  3 14  1  0
  3 15  1  0
  4 16  1  0
  5 17  1  0
  6 18  1  0
  6 19  1  0
  7 20  1  0
  8 21  1  0
  8 22  1  0
  8 23  1  0
M  END
