
     RDKit          2D

 19 21  0  0  0  0  0  0  0  0999 V2000
   -3.1820    0.0000    0.0000 C   0  0  0  0  0  0  0  0  0  0  0  0
   -0.5216   -0.5391    0.0000 C   0  0  0  0  0  0  0  0  0  0  0  0
   -0.5391   -0.5216    0.0000 C   0  0  0  0  0  0  0  0  0  0  0  0
   -0.0000   -1.0607    0.0000 C   0  0  0  0  0  0  0  0  0  0  0  0
    1.0607    0.0000    0.0000 C   0  0  0  0  0  0  0  0  0  0  0  0
    0.0000    1.0607    0.0000 O   0  0  0  0  0  0  0  0  0  0  0  0
   -1.0607    0.0000    0.0000 C   0  0  0  0  0  0  0  0  0  0  0  0
   -1.4213   -1.0607    0.0000 C   0  0  0  0  0  0  0  0  0  0  0  0
   -1.0607   -1.4213    0.0000 O   0  0  0  0  0  0  0  0  0  0  0  0
   -4.2426    1.0607    0.0000 H   0  0  0  0  0  0  0  0  0  0  0  0
   -4.2426   -1.0607    0.0000 H   0  0  0  0  0  0  0  0  0  0  0  0
   -2.1213    1.0607    0.0000 H   0  0  0  0  0  0  0  0  0  0  0  0
   -3.0448   -2.2427    0.0000 H   0  0  0  0  0  0  0  0  0  0  0  0
   -2.1213   -3.1820    0.0000 H   0  0  0  0  0  0  0  0  0  0  0  0
   -0.0000   -3.1820    0.0000 H   0  0  0  0  0  0  0  0  0  0  0  0
    2.1213    1.0607    0.0000 H   0  0  0  0  0  0  0  0  0  0  0  0
    2.1213   -1.0607    0.0000 H   0  0  0  0  0  0  0  0  0  0  0  0
   -3.3034   -1.9841    0.0000 H   0  0  0  0  0  0  0  0  0  0  0  0
   -2.8938    0.2251    0.0000 H   0  0  0  0  0  0  0  0  0  0  0  0
  1  2  1  0
  2  3  1  0
  3  4  1  0
  4  5  1  0
  5  6  1  0
  6  7  1  0
  7  8  1  0
  8  9  1  0
  7  2  1  0
  7  4  1  0
  9  4  1  0
  1 10  1  0
  1 11  1  0
  1 12  1  0
  2 13  1  0
  3 14  1  0
  3 15  1  0
  5 16  1  0
  5 17  1  0
  8 18  1  0
  8 19  1  0
M  END
