
     RDKit          3D

 21 22  0  0  0  0  0  0  0  0999 V2000
    2.3010    0.1699   -0.4629 C   0  0  0  0  0  0  0  0  0  0  0  0
    1.0288    0.5515    0.3058 C   0  0  0  0  0  0  0  0  0  0  0  0
    0.8507   -0.4941    1.3396 C   0  0  0  0  0  0  0  0  0  0  0  0
   -0.0146   -1.3768    0.8702 C   0  0  0  0  0  0  0  0  0  0  0  0
   -0.4908   -1.0318   -0.4734 C   0  0  0  0  0  0  0  0  0  0  0  0
   -1.9406   -0.5397   -0.5021 C   0  0  0  0  0  0  0  0  0  0  0  0
   -1.4638    0.8631   -0.1856 C   0  0  0  0  0  0  0  0  0  0  0  0
   -1.5887    1.2042    1.1359 O   0  0  0  0  0  0  0  0  0  0  0  0
   -0.1011    0.4337   -0.6547 C   0  0  0  0  0  0  0  0  0  0  0  0
    2.1122   -0.8287   -0.8944 H   0  0  0  0  0  0  0  0  0  0  0  0
    3.1905    0.2248    0.1746 H   0  0  0  0  0  0  0  0  0  0  0  0
    2.3322    0.8895   -1.3258 H   0  0  0  0  0  0  0  0  0  0  0  0
    1.1357    1.5628    0.7482 H   0  0  0  0  0  0  0  0  0  0  0  0
    1.3502   -0.5254    2.3191 H   0  0  0  0  0  0  0  0  0  0  0  0
   -0.3205   -2.2519    1.4400 H   0  0  0  0  0  0  0  0  0  0  0  0
   -0.1889   -1.6554   -1.3139 H   0  0  0  0  0  0  0  0  0  0  0  0
   -2.3955   -0.6635   -1.5045 H   0  0  0  0  0  0  0  0  0  0  0  0
   -2.4899   -1.0432    0.3293 H   0  0  0  0  0  0  0  0  0  0  0  0
   -1.8780    1.6294   -0.8801 H   0  0  0  0  0  0  0  0  0  0  0  0
   -1.5879    2.2100    1.2333 H   0  0  0  0  0  0  0  0  0  0  0  0
    0.1590    0.6716   -1.6987 H   0  0  0  0  0  0  0  0  0  0  0  0
  1  2  1  0
  2  3  1  0
  3  4  2  0
  4  5  1  0
  5  6  1  0
  6  7  1  0
  7  8  1  0
  7  9  1  0
  9  2  1  0
  9  5  1  0
  1 10  1  0
  1 11  1  0
  1 12  1  0
  2 13  1  0
  3 14  1  0
  4 15  1  0
  5 16  1  0
  6 17  1  0
  6 18  1  0
  7 19  1  0
  8 20  1  0
  9 21  1  0
M  END
