
     RDKit          3D

 19 19  0  0  0  0  0  0  0  0999 V2000
   -2.1557    0.0675    0.5053 C   0  0  0  0  0  0  0  0  0  0  0  0
   -0.7064    0.0847    0.1837 C   0  0  0  0  0  0  0  0  0  0  0  0
    0.0258   -1.1522    0.5891 C   0  0  0  0  0  0  0  0  0  0  0  0
    1.3370   -1.1452    0.2123 O   0  0  0  0  0  0  0  0  0  0  0  0
    2.0316    0.0084    0.4532 C   0  0  0  0  0  0  0  0  0  0  0  0
    1.8104    0.9772   -0.6765 C   0  0  0  0  0  0  0  0  0  0  0  0
    2.7344    1.8067   -0.9070 O   0  0  0  0  0  0  0  0  0  0  0  0
    0.6738    1.0204   -1.4725 O   0  0  0  0  0  0  0  0  0  0  0  0
   -0.5359    0.2614   -1.3167 C   0  0  0  0  0  0  0  0  0  0  0  0
   -2.6880   -0.7453   -0.0425 H   0  0  0  0  0  0  0  0  0  0  0  0
   -2.6046    1.0158    0.1315 H   0  0  0  0  0  0  0  0  0  0  0  0
   -2.3254    0.0198    1.6047 H   0  0  0  0  0  0  0  0  0  0  0  0
   -0.2435    0.9402    0.7382 H   0  0  0  0  0  0  0  0  0  0  0  0
   -0.4696   -2.0126    0.0502 H   0  0  0  0  0  0  0  0  0  0  0  0
   -0.0259   -1.3557    1.6791 H   0  0  0  0  0  0  0  0  0  0  0  0
    1.7725    0.4530    1.4301 H   0  0  0  0  0  0  0  0  0  0  0  0
    3.1253   -0.2371    0.4339 H   0  0  0  0  0  0  0  0  0  0  0  0
   -0.3665   -0.7411   -1.8006 H   0  0  0  0  0  0  0  0  0  0  0  0
   -1.3893    0.7340   -1.7955 H   0  0  0  0  0  0  0  0  0  0  0  0
  1  2  1  0
  2  3  1  0
  3  4  1  0
  4  5  1  0
  5  6  1  0
  6  7  2  0
  6  8  1  0
  8  9  1  0
  9  2  1  0
  1 10  1  0
  1 11  1  0
  1 12  1  0
  2 13  1  0
  3 14  1  0
  3 15  1  0
  5 16  1  0
  5 17  1  0
  9 18  1  0
  9 19  1  0
M  END
