
     RDKit          3D

 20 20  0  0  0  0  0  0  0  0999 V2000
    1.8956    0.6433    0.8956 C   0  0  0  0  0  0  0  0  0  0  0  0
    0.7420    0.8409   -0.0297 C   0  0  0  0  0  0  0  0  0  0  0  0
    0.8597    0.0692   -1.3448 C   0  0  0  0  0  0  0  0  0  0  0  0
   -0.1859   -0.2802   -0.3122 C   0  0  0  0  0  0  0  0  0  0  0  0
    0.0192   -1.5417    0.5280 C   0  0  0  0  0  0  0  0  0  0  0  0
   -1.6004   -0.0476   -0.7276 C   0  0  0  0  0  0  0  0  0  0  0  0
   -2.2886    0.7122    0.3499 C   0  0  0  0  0  0  0  0  0  0  0  0
   -3.4674    1.0242    0.2376 O   0  0  0  0  0  0  0  0  0  0  0  0
    2.2741   -0.4118    0.8624 H   0  0  0  0  0  0  0  0  0  0  0  0
    1.7112    0.9511    1.9274 H   0  0  0  0  0  0  0  0  0  0  0  0
    2.7511    1.2527    0.4868 H   0  0  0  0  0  0  0  0  0  0  0  0
    0.3643    1.8813   -0.0766 H   0  0  0  0  0  0  0  0  0  0  0  0
    1.6890   -0.6537   -1.4504 H   0  0  0  0  0  0  0  0  0  0  0  0
    0.5561    0.6179   -2.2485 H   0  0  0  0  0  0  0  0  0  0  0  0
    1.0317   -1.9216    0.2788 H   0  0  0  0  0  0  0  0  0  0  0  0
   -0.0079   -1.2930    1.5999 H   0  0  0  0  0  0  0  0  0  0  0  0
   -0.7720   -2.2705    0.2538 H   0  0  0  0  0  0  0  0  0  0  0  0
   -1.6944    0.4698   -1.7046 H   0  0  0  0  0  0  0  0  0  0  0  0
   -2.1127   -1.0440   -0.7725 H   0  0  0  0  0  0  0  0  0  0  0  0
   -1.7647    1.0015    1.2468 H   0  0  0  0  0  0  0  0  0  0  0  0
  1  2  1  0
  2  3  1  0
  3  4  1  0
  4  5  1  0
  4  6  1  0
  6  7  1  0
  7  8  2  0
  4  2  1  0
  1  9  1  0
  1 10  1  0
  1 11  1  0
  2 12  1  0
  3 13  1  0
  3 14  1  0
  5 15  1  0
  5 16  1  0
  5 17  1  0
  6 18  1  0
  6 19  1  0
  7 20  1  0
M  END
