
     RDKit          3D

 18 20  0  0  0  0  0  0  0  0999 V2000
   -2.6056    0.2723   -0.0056 C   0  0  0  0  0  0  0  0  0  0  0  0
   -1.1859    0.6628   -0.4394 C   0  0  0  0  0  0  0  0  0  0  0  0
   -0.3140   -0.4837   -0.6774 C   0  0  0  0  0  0  0  0  0  0  0  0
    0.7209   -1.0771    0.2939 C   0  0  0  0  0  0  0  0  0  0  0  0
    2.0895   -0.9340   -0.1069 C   0  0  0  0  0  0  0  0  0  0  0  0
    1.3738    0.3136    0.1977 C   0  0  0  0  0  0  0  0  0  0  0  0
    2.0742    0.8934    1.2894 O   0  0  0  0  0  0  0  0  0  0  0  0
   -0.0662    0.6094    0.4158 C   0  0  0  0  0  0  0  0  0  0  0  0
   -2.5665   -0.2797    0.9527 H   0  0  0  0  0  0  0  0  0  0  0  0
   -3.1902    1.1996    0.2021 H   0  0  0  0  0  0  0  0  0  0  0  0
   -3.1239   -0.2708   -0.8121 H   0  0  0  0  0  0  0  0  0  0  0  0
   -1.2537    1.5666   -1.1168 H   0  0  0  0  0  0  0  0  0  0  0  0
    0.1265   -0.3676   -1.6885 H   0  0  0  0  0  0  0  0  0  0  0  0
    0.3953   -1.3118    1.3136 H   0  0  0  0  0  0  0  0  0  0  0  0
    2.8526   -1.4361    0.4945 H   0  0  0  0  0  0  0  0  0  0  0  0
    2.3245   -1.0586   -1.2096 H   0  0  0  0  0  0  0  0  0  0  0  0
    2.7326    1.4911    0.8637 H   0  0  0  0  0  0  0  0  0  0  0  0
   -0.3839    0.2108    1.4456 H   0  0  0  0  0  0  0  0  0  0  0  0
  1  2  1  0
  2  3  1  0
  3  4  1  0
  4  5  1  0
  5  6  1  0
  6  7  1  0
  6  8  1  0
  8  2  1  0
  8  3  1  0
  6  4  1  0
  1  9  1  0
  1 10  1  0
  1 11  1  0
  2 12  1  0
  3 13  1  0
  4 14  1  0
  5 15  1  0
  5 16  1  0
  7 17  1  0
  8 18  1  0
M  END
