
     RDKit          3D

 25 25  0  0  0  0  0  0  0  0999 V2000
   -1.8436    1.5632    0.0630 C   0  0  0  0  0  0  0  0  0  0  0  0
   -0.7253    0.7917   -0.5511 C   0  0  0  0  0  0  0  0  0  0  0  0
    0.6119    1.3244   -0.1019 C   0  0  0  0  0  0  0  0  0  0  0  0
    0.9704   -0.0379    0.4560 C   0  0  0  0  0  0  0  0  0  0  0  0
    2.1351   -0.6231   -0.2914 C   0  0  0  0  0  0  0  0  0  0  0  0
    3.2535    0.2218   -0.1731 O   0  0  0  0  0  0  0  0  0  0  0  0
   -0.3867   -0.5299    0.0639 C   0  0  0  0  0  0  0  0  0  0  0  0
   -0.4281   -1.6256   -0.9670 C   0  0  0  0  0  0  0  0  0  0  0  0
   -1.1895   -0.9204    1.2802 C   0  0  0  0  0  0  0  0  0  0  0  0
   -2.7313    1.6365   -0.6144 H   0  0  0  0  0  0  0  0  0  0  0  0
   -1.4884    2.6294    0.1665 H   0  0  0  0  0  0  0  0  0  0  0  0
   -2.1501    1.2352    1.0533 H   0  0  0  0  0  0  0  0  0  0  0  0
   -0.8497    0.7655   -1.6708 H   0  0  0  0  0  0  0  0  0  0  0  0
    1.2509    1.6530   -0.9510 H   0  0  0  0  0  0  0  0  0  0  0  0
    0.5735    2.0969    0.6958 H   0  0  0  0  0  0  0  0  0  0  0  0
    1.1915   -0.0112    1.5429 H   0  0  0  0  0  0  0  0  0  0  0  0
    2.4525   -1.6012    0.1468 H   0  0  0  0  0  0  0  0  0  0  0  0
    1.9645   -0.7778   -1.3555 H   0  0  0  0  0  0  0  0  0  0  0  0
    2.9782    1.1315    0.1014 H   0  0  0  0  0  0  0  0  0  0  0  0
    0.2750   -2.4501   -0.7638 H   0  0  0  0  0  0  0  0  0  0  0  0
   -0.3010   -1.2007   -1.9688 H   0  0  0  0  0  0  0  0  0  0  0  0
   -1.4577   -2.0685   -0.9326 H   0  0  0  0  0  0  0  0  0  0  0  0
   -0.7351   -1.8860    1.6490 H   0  0  0  0  0  0  0  0  0  0  0  0
   -1.1284   -0.1876    2.0985 H   0  0  0  0  0  0  0  0  0  0  0  0
   -2.2421   -1.1289    1.0242 H   0  0  0  0  0  0  0  0  0  0  0  0
  1  2  1  0
  2  3  1  0
  3  4  1  0
  4  5  1  0
  5  6  1  0
  4  7  1  0
  7  8  1  0
  7  9  1  0
  7  2  1  0
  1 10  1  0
  1 11  1  0
  1 12  1  0
  2 13  1  0
  3 14  1  0
  3 15  1  0
  4 16  1  0
  5 17  1  0
  5 18  1  0
  6 19  1  0
  8 20  1  0
  8 21  1  0
  8 22  1  0
  9 23  1  0
  9 24  1  0
  9 25  1  0
M  END
