
     RDKit          3D

 21 21  0  0  0  0  0  0  0  0999 V2000
   -1.0814    2.3445   -0.1267 C   0  0  0  0  0  0  0  0  0  0  0  0
   -0.8606    0.9121   -0.5680 C   0  0  0  0  0  0  0  0  0  0  0  0
   -1.3759   -0.2045    0.2907 C   0  0  0  0  0  0  0  0  0  0  0  0
   -1.9088   -1.4581   -0.3484 C   0  0  0  0  0  0  0  0  0  0  0  0
    0.0724    0.0864    0.3486 C   0  0  0  0  0  0  0  0  0  0  0  0
    1.0609   -0.6821   -0.4114 C   0  0  0  0  0  0  0  0  0  0  0  0
    0.7973   -1.3224   -1.4256 O   0  0  0  0  0  0  0  0  0  0  0  0
    2.4695   -0.6996    0.0572 C   0  0  0  0  0  0  0  0  0  0  0  0
    3.2942   -1.4654   -0.7559 O   0  0  0  0  0  0  0  0  0  0  0  0
   -1.9223    2.3963    0.6191 H   0  0  0  0  0  0  0  0  0  0  0  0
   -0.1377    2.6632    0.3791 H   0  0  0  0  0  0  0  0  0  0  0  0
   -1.2762    2.9910   -0.9969 H   0  0  0  0  0  0  0  0  0  0  0  0
   -0.8629    0.7047   -1.6392 H   0  0  0  0  0  0  0  0  0  0  0  0
   -1.9761    0.1360    1.1590 H   0  0  0  0  0  0  0  0  0  0  0  0
   -3.0220   -1.3179   -0.4752 H   0  0  0  0  0  0  0  0  0  0  0  0
   -1.5154   -1.6528   -1.3474 H   0  0  0  0  0  0  0  0  0  0  0  0
   -1.7768   -2.2884    0.3715 H   0  0  0  0  0  0  0  0  0  0  0  0
    0.4549    0.6151    1.2437 H   0  0  0  0  0  0  0  0  0  0  0  0
    2.5173   -1.0438    1.1209 H   0  0  0  0  0  0  0  0  0  0  0  0
    2.8446    0.3472    0.0559 H   0  0  0  0  0  0  0  0  0  0  0  0
    4.2051   -1.0614   -0.6981 H   0  0  0  0  0  0  0  0  0  0  0  0
  1  2  1  0
  2  3  1  0
  3  4  1  0
  3  5  1  0
  5  6  1  0
  6  7  2  0
  6  8  1  0
  8  9  1  0
  5  2  1  0
  1 10  1  0
  1 11  1  0
  1 12  1  0
  2 13  1  0
  3 14  1  0
  4 15  1  0
  4 16  1  0
  4 17  1  0
  5 18  1  0
  8 19  1  0
  8 20  1  0
  9 21  1  0
M  END
