
     RDKit          3D

 23 24  0  0  0  0  0  0  0  0999 V2000
   -2.3741    0.4743   -0.8478 C   0  0  0  0  0  0  0  0  0  0  0  0
   -1.5447    0.2463    0.3708 C   0  0  0  0  0  0  0  0  0  0  0  0
   -1.9744   -0.8494    1.2950 C   0  0  0  0  0  0  0  0  0  0  0  0
   -0.6820   -1.6035    1.0533 C   0  0  0  0  0  0  0  0  0  0  0  0
   -0.2751   -0.5604    0.0641 C   0  0  0  0  0  0  0  0  0  0  0  0
    0.8265    0.1911    0.3267 O   0  0  0  0  0  0  0  0  0  0  0  0
    1.7411    0.3031   -0.6779 C   0  0  0  0  0  0  0  0  0  0  0  0
    3.2060    0.3266   -0.3951 C   0  0  0  0  0  0  0  0  0  0  0  0
    2.5096    1.5750   -0.7414 C   0  0  0  0  0  0  0  0  0  0  0  0
   -2.9757    1.4168   -0.7112 H   0  0  0  0  0  0  0  0  0  0  0  0
   -3.0474   -0.3409   -1.1155 H   0  0  0  0  0  0  0  0  0  0  0  0
   -1.7078    0.7022   -1.7219 H   0  0  0  0  0  0  0  0  0  0  0  0
   -1.3522    1.1763    0.9435 H   0  0  0  0  0  0  0  0  0  0  0  0
   -2.8929   -1.3632    0.9608 H   0  0  0  0  0  0  0  0  0  0  0  0
   -2.1271   -0.5444    2.3683 H   0  0  0  0  0  0  0  0  0  0  0  0
   -0.0436   -1.7518    1.9286 H   0  0  0  0  0  0  0  0  0  0  0  0
   -0.9206   -2.6082    0.6112 H   0  0  0  0  0  0  0  0  0  0  0  0
   -0.2696   -0.9876   -0.9641 H   0  0  0  0  0  0  0  0  0  0  0  0
    1.4829   -0.2399   -1.6156 H   0  0  0  0  0  0  0  0  0  0  0  0
    3.9293   -0.1322   -1.1077 H   0  0  0  0  0  0  0  0  0  0  0  0
    3.5749    0.2228    0.6666 H   0  0  0  0  0  0  0  0  0  0  0  0
    2.5590    2.0387   -1.7464 H   0  0  0  0  0  0  0  0  0  0  0  0
    2.3583    2.3082    0.0700 H   0  0  0  0  0  0  0  0  0  0  0  0
  1  2  1  0
  2  3  1  0
  3  4  1  0
  4  5  1  0
  5  6  1  0
  6  7  1  0
  7  8  1  0
  8  9  1  0
  5  2  1  0
  9  7  1  0
  1 10  1  0
  1 11  1  0
  1 12  1  0
  2 13  1  0
  3 14  1  0
  3 15  1  0
  4 16  1  0
  4 17  1  0
  5 18  1  0
  7 19  1  0
  8 20  1  0
  8 21  1  0
  9 22  1  0
  9 23  1  0
M  END
