
     RDKit          3D

 19 20  0  0  0  0  0  0  0  0999 V2000
   -0.1376    1.8270    0.4786 C   0  0  0  0  0  0  0  0  0  0  0  0
   -0.2827    0.6325   -0.4193 C   0  0  0  0  0  0  0  0  0  0  0  0
   -1.1781   -0.4391    0.2171 C   0  0  0  0  0  0  0  0  0  0  0  0
   -2.5073   -0.1430    0.1150 O   0  0  0  0  0  0  0  0  0  0  0  0
   -0.7828   -1.6134   -0.6468 C   0  0  0  0  0  0  0  0  0  0  0  0
    0.4573   -1.4440   -1.0895 C   0  0  0  0  0  0  0  0  0  0  0  0
    0.9524   -0.1826   -0.5635 C   0  0  0  0  0  0  0  0  0  0  0  0
    2.0067   -0.2379    0.4607 C   0  0  0  0  0  0  0  0  0  0  0  0
    2.1732    0.3467   -0.8412 O   0  0  0  0  0  0  0  0  0  0  0  0
   -1.1324    2.2919    0.6001 H   0  0  0  0  0  0  0  0  0  0  0  0
    0.5174    2.5465   -0.0147 H   0  0  0  0  0  0  0  0  0  0  0  0
    0.1978    1.4963    1.4607 H   0  0  0  0  0  0  0  0  0  0  0  0
   -0.6788    0.8653   -1.4089 H   0  0  0  0  0  0  0  0  0  0  0  0
   -0.8273   -0.6515    1.2379 H   0  0  0  0  0  0  0  0  0  0  0  0
   -2.8402    0.0391    1.0524 H   0  0  0  0  0  0  0  0  0  0  0  0
   -1.4315   -2.4530   -0.8573 H   0  0  0  0  0  0  0  0  0  0  0  0
    0.9861   -2.1378   -1.7292 H   0  0  0  0  0  0  0  0  0  0  0  0
    2.5586   -1.1871    0.6383 H   0  0  0  0  0  0  0  0  0  0  0  0
    1.9494    0.4440    1.3096 H   0  0  0  0  0  0  0  0  0  0  0  0
  1  2  1  0
  2  3  1  0
  3  4  1  0
  3  5  1  0
  5  6  2  0
  6  7  1  0
  7  8  1  0
  8  9  1  0
  7  2  1  0
  9  7  1  0
  1 10  1  0
  1 11  1  0
  1 12  1  0
  2 13  1  0
  3 14  1  0
  4 15  1  0
  5 16  1  0
  6 17  1  0
  8 18  1  0
  8 19  1  0
M  END
