
     RDKit          3D

 21 22  0  0  0  0  0  0  0  0999 V2000
   -1.9902   -1.1977    0.1522 C   0  0  0  0  0  0  0  0  0  0  0  0
   -1.0410   -0.2756   -0.5313 C   0  0  0  0  0  0  0  0  0  0  0  0
   -1.3527    1.1480   -0.0543 C   0  0  0  0  0  0  0  0  0  0  0  0
   -0.0391    1.8035   -0.3331 C   0  0  0  0  0  0  0  0  0  0  0  0
    0.9427    0.6943   -0.0297 C   0  0  0  0  0  0  0  0  0  0  0  0
    0.3818   -0.4908   -0.1404 C   0  0  0  0  0  0  0  0  0  0  0  0
    1.3867   -1.5187    0.1644 C   0  0  0  0  0  0  0  0  0  0  0  0
    2.6145   -0.8694    0.1099 O   0  0  0  0  0  0  0  0  0  0  0  0
    2.3710    0.4580    0.3649 C   0  0  0  0  0  0  0  0  0  0  0  0
   -2.7595   -0.6646    0.7774 H   0  0  0  0  0  0  0  0  0  0  0  0
   -2.6011   -1.7480   -0.6163 H   0  0  0  0  0  0  0  0  0  0  0  0
   -1.5192   -1.9339    0.8111 H   0  0  0  0  0  0  0  0  0  0  0  0
   -1.1244   -0.3464   -1.6336 H   0  0  0  0  0  0  0  0  0  0  0  0
   -2.2052    1.5788   -0.5865 H   0  0  0  0  0  0  0  0  0  0  0  0
   -1.4812    1.0830    1.0361 H   0  0  0  0  0  0  0  0  0  0  0  0
    0.1747    2.6856    0.2761 H   0  0  0  0  0  0  0  0  0  0  0  0
    0.0605    2.0895   -1.4125 H   0  0  0  0  0  0  0  0  0  0  0  0
    1.2377   -2.0446    1.1127 H   0  0  0  0  0  0  0  0  0  0  0  0
    1.3902   -2.2908   -0.6558 H   0  0  0  0  0  0  0  0  0  0  0  0
    2.5401    0.7268    1.4438 H   0  0  0  0  0  0  0  0  0  0  0  0
    3.0135    1.1131   -0.2551 H   0  0  0  0  0  0  0  0  0  0  0  0
  1  2  1  0
  2  3  1  0
  3  4  1  0
  4  5  1  0
  5  6  2  0
  6  7  1  0
  7  8  1  0
  8  9  1  0
  6  2  1  0
  9  5  1  0
  1 10  1  0
  1 11  1  0
  1 12  1  0
  2 13  1  0
  3 14  1  0
  3 15  1  0
  4 16  1  0
  4 17  1  0
  7 18  1  0
  7 19  1  0
  9 20  1  0
  9 21  1  0
M  END
