
     RDKit          3D

 18 19  0  0  0  0  0  0  0  0999 V2000
   -1.8391    0.6063   -1.0038 C   0  0  0  0  0  0  0  0  0  0  0  0
   -1.0343    0.6899    0.2630 C   0  0  0  0  0  0  0  0  0  0  0  0
   -0.7645   -0.4861    1.1029 C   0  0  0  0  0  0  0  0  0  0  0  0
   -0.7753   -1.7405    0.5466 O   0  0  0  0  0  0  0  0  0  0  0  0
    0.2110   -1.4210   -0.4172 C   0  0  0  0  0  0  0  0  0  0  0  0
    0.2788   -0.0583    0.1642 C   0  0  0  0  0  0  0  0  0  0  0  0
    1.5454    0.6010    0.5546 C   0  0  0  0  0  0  0  0  0  0  0  0
    2.5919   -0.3022    0.3679 O   0  0  0  0  0  0  0  0  0  0  0  0
   -2.6182   -0.1613   -0.9955 H   0  0  0  0  0  0  0  0  0  0  0  0
   -1.1866    0.3947   -1.8964 H   0  0  0  0  0  0  0  0  0  0  0  0
   -2.2899    1.5937   -1.2006 H   0  0  0  0  0  0  0  0  0  0  0  0
   -1.0246    1.6786    0.8028 H   0  0  0  0  0  0  0  0  0  0  0  0
   -0.5555   -0.3400    2.1766 H   0  0  0  0  0  0  0  0  0  0  0  0
   -0.2930   -1.5079   -1.4235 H   0  0  0  0  0  0  0  0  0  0  0  0
    1.1204   -2.0354   -0.3403 H   0  0  0  0  0  0  0  0  0  0  0  0
    1.7405    1.4545   -0.1336 H   0  0  0  0  0  0  0  0  0  0  0  0
    1.5591    0.9428    1.6147 H   0  0  0  0  0  0  0  0  0  0  0  0
    3.3340    0.0911   -0.1825 H   0  0  0  0  0  0  0  0  0  0  0  0
  1  2  1  0
  2  3  1  0
  3  4  1  0
  4  5  1  0
  5  6  1  0
  6  7  1  0
  7  8  1  0
  6  2  1  0
  6  3  1  0
  1  9  1  0
  1 10  1  0
  1 11  1  0
  2 12  1  0
  3 13  1  0
  5 14  1  0
  5 15  1  0
  7 16  1  0
  7 17  1  0
  8 18  1  0
M  END
