
     RDKit          3D

 17 18  0  0  0  0  0  0  0  0999 V2000
    1.8758   -0.2363   -0.2172 C   0  0  0  0  0  0  0  0  0  0  0  0
    0.6125    0.3050   -0.7948 C   0  0  0  0  0  0  0  0  0  0  0  0
   -0.3891   -0.7710   -1.0876 C   0  0  0  0  0  0  0  0  0  0  0  0
   -1.4371    0.3038   -0.9832 C   0  0  0  0  0  0  0  0  0  0  0  0
   -0.5049    0.5968    0.1624 C   0  0  0  0  0  0  0  0  0  0  0  0
   -0.5882    1.5088    1.0166 O   0  0  0  0  0  0  0  0  0  0  0  0
   -0.5504   -0.8939    0.4042 C   0  0  0  0  0  0  0  0  0  0  0  0
    1.9612   -1.3440   -0.2668 H   0  0  0  0  0  0  0  0  0  0  0  0
    1.9597    0.1376    0.8354 H   0  0  0  0  0  0  0  0  0  0  0  0
    2.7881    0.1504   -0.7557 H   0  0  0  0  0  0  0  0  0  0  0  0
    0.7588    1.0540   -1.6061 H   0  0  0  0  0  0  0  0  0  0  0  0
   -0.3330   -1.5072   -1.7578 H   0  0  0  0  0  0  0  0  0  0  0  0
   -1.4762    1.0392   -1.7829 H   0  0  0  0  0  0  0  0  0  0  0  0
   -2.3829   -0.1311   -0.6250 H   0  0  0  0  0  0  0  0  0  0  0  0
   -1.0854    2.3155    0.7599 H   0  0  0  0  0  0  0  0  0  0  0  0
    0.3205   -1.2204    0.9728 H   0  0  0  0  0  0  0  0  0  0  0  0
   -1.5294   -1.3070    0.6648 H   0  0  0  0  0  0  0  0  0  0  0  0
  1  2  1  0
  2  3  1  0
  3  4  1  0
  4  5  1  0
  5  6  1  0
  5  7  1  0
  5  2  1  0
  7  3  1  0
  1  8  1  0
  1  9  1  0
  1 10  1  0
  2 11  1  0
  3 12  1  0
  4 13  1  0
  4 14  1  0
  6 15  1  0
  7 16  1  0
  7 17  1  0
M  END
