
     RDKit          3D

 23 24  0  0  0  0  0  0  0  0999 V2000
    1.7659   -1.1882    0.2581 C   0  0  0  0  0  0  0  0  0  0  0  0
    0.6366   -0.6139   -0.5163 C   0  0  0  0  0  0  0  0  0  0  0  0
   -0.6099   -1.4620   -0.2117 C   0  0  0  0  0  0  0  0  0  0  0  0
   -1.6037   -0.4471    0.2748 C   0  0  0  0  0  0  0  0  0  0  0  0
   -1.8809    0.4905   -0.8816 C   0  0  0  0  0  0  0  0  0  0  0  0
   -0.7156    1.2088   -1.0679 O   0  0  0  0  0  0  0  0  0  0  0  0
    0.2284    0.7608   -0.1372 C   0  0  0  0  0  0  0  0  0  0  0  0
    1.2598    1.7544    0.0750 C   0  0  0  0  0  0  0  0  0  0  0  0
   -0.6702    0.4831    1.0717 C   0  0  0  0  0  0  0  0  0  0  0  0
    1.4578   -1.5784    1.2644 H   0  0  0  0  0  0  0  0  0  0  0  0
    2.6290   -0.5430    0.4026 H   0  0  0  0  0  0  0  0  0  0  0  0
    2.1402   -2.0902   -0.3095 H   0  0  0  0  0  0  0  0  0  0  0  0
    0.8896   -0.6407   -1.5881 H   0  0  0  0  0  0  0  0  0  0  0  0
   -0.9583   -1.8770   -1.1934 H   0  0  0  0  0  0  0  0  0  0  0  0
   -0.3958   -2.2664    0.4878 H   0  0  0  0  0  0  0  0  0  0  0  0
   -2.4462   -0.7985    0.8179 H   0  0  0  0  0  0  0  0  0  0  0  0
   -2.2341   -0.0427   -1.7742 H   0  0  0  0  0  0  0  0  0  0  0  0
   -2.6515    1.2332   -0.5252 H   0  0  0  0  0  0  0  0  0  0  0  0
    1.4866    2.2813   -0.8978 H   0  0  0  0  0  0  0  0  0  0  0  0
    0.8686    2.5775    0.7361 H   0  0  0  0  0  0  0  0  0  0  0  0
    2.2151    1.4527    0.4895 H   0  0  0  0  0  0  0  0  0  0  0  0
   -1.2631    1.3478    1.3605 H   0  0  0  0  0  0  0  0  0  0  0  0
   -0.1482   -0.0420    1.8646 H   0  0  0  0  0  0  0  0  0  0  0  0
  1  2  1  0
  2  3  1  0
  3  4  1  0
  4  5  1  0
  5  6  1  0
  6  7  1  0
  7  8  1  0
  7  9  1  0
  7  2  1  0
  9  4  1  0
  1 10  1  0
  1 11  1  0
  1 12  1  0
  2 13  1  0
  3 14  1  0
  3 15  1  0
  4 16  1  0
  5 17  1  0
  5 18  1  0
  8 19  1  0
  8 20  1  0
  8 21  1  0
  9 22  1  0
  9 23  1  0
M  END
