
     RDKit          3D

 17 18  0  0  0  0  0  0  0  0999 V2000
    2.1661    0.6902   -0.7453 C   0  0  0  0  0  0  0  0  0  0  0  0
    1.2380   -0.0073    0.1788 C   0  0  0  0  0  0  0  0  0  0  0  0
    1.5637   -0.8155    1.2444 C   0  0  0  0  0  0  0  0  0  0  0  0
    0.4474   -1.2238    1.7873 O   0  0  0  0  0  0  0  0  0  0  0  0
   -0.5963   -0.7433    1.1569 C   0  0  0  0  0  0  0  0  0  0  0  0
   -0.1469    0.0429    0.1177 C   0  0  0  0  0  0  0  0  0  0  0  0
   -1.3379    0.5709   -0.5729 C   0  0  0  0  0  0  0  0  0  0  0  0
   -2.4483   -0.3489   -0.1403 C   0  0  0  0  0  0  0  0  0  0  0  0
   -2.0045   -0.7476    1.1674 O   0  0  0  0  0  0  0  0  0  0  0  0
    1.8049    0.5427   -1.7874 H   0  0  0  0  0  0  0  0  0  0  0  0
    2.2880    1.7583   -0.5143 H   0  0  0  0  0  0  0  0  0  0  0  0
    3.1782    0.2359   -0.7035 H   0  0  0  0  0  0  0  0  0  0  0  0
    2.5954   -1.0428    1.5406 H   0  0  0  0  0  0  0  0  0  0  0  0
   -1.1911    0.5465   -1.6895 H   0  0  0  0  0  0  0  0  0  0  0  0
   -1.6058    1.5985   -0.2555 H   0  0  0  0  0  0  0  0  0  0  0  0
   -2.5351   -1.2330   -0.7992 H   0  0  0  0  0  0  0  0  0  0  0  0
   -3.4157    0.1764    0.0148 H   0  0  0  0  0  0  0  0  0  0  0  0
  1  2  1  0
  2  3  2  0
  3  4  1  0
  4  5  1  0
  5  6  2  0
  6  7  1  0
  7  8  1  0
  8  9  1  0
  6  2  1  0
  9  5  1  0
  1 10  1  0
  1 11  1  0
  1 12  1  0
  3 13  1  0
  7 14  1  0
  7 15  1  0
  8 16  1  0
  8 17  1  0
M  END
