
     RDKit          3D

 19 20  0  0  0  0  0  0  0  0999 V2000
   -1.2646   -1.3491   -0.3067 C   0  0  0  0  0  0  0  0  0  0  0  0
   -0.4742   -0.4615    0.5978 C   0  0  0  0  0  0  0  0  0  0  0  0
   -0.8501    0.9993    0.5866 C   0  0  0  0  0  0  0  0  0  0  0  0
   -0.8467    1.2796   -0.8891 C   0  0  0  0  0  0  0  0  0  0  0  0
    0.2838    0.5194   -1.2717 O   0  0  0  0  0  0  0  0  0  0  0  0
    0.7974    0.1252   -0.0499 C   0  0  0  0  0  0  0  0  0  0  0  0
    2.0077   -0.6666    0.0223 C   0  0  0  0  0  0  0  0  0  0  0  0
    0.5766    1.2369    0.8947 C   0  0  0  0  0  0  0  0  0  0  0  0
    1.2177    1.9632    1.5684 O   0  0  0  0  0  0  0  0  0  0  0  0
   -2.3533   -1.3069   -0.0719 H   0  0  0  0  0  0  0  0  0  0  0  0
   -1.0738   -1.1459   -1.3909 H   0  0  0  0  0  0  0  0  0  0  0  0
   -0.9501   -2.3939   -0.1162 H   0  0  0  0  0  0  0  0  0  0  0  0
   -0.2509   -0.9145    1.5559 H   0  0  0  0  0  0  0  0  0  0  0  0
   -1.6130    1.3637    1.2147 H   0  0  0  0  0  0  0  0  0  0  0  0
   -0.5578    2.3401   -1.1160 H   0  0  0  0  0  0  0  0  0  0  0  0
   -1.7493    0.9702   -1.4120 H   0  0  0  0  0  0  0  0  0  0  0  0
    2.1725   -1.2392   -0.8899 H   0  0  0  0  0  0  0  0  0  0  0  0
    2.0142   -1.3147    0.9305 H   0  0  0  0  0  0  0  0  0  0  0  0
    2.9139   -0.0054    0.1431 H   0  0  0  0  0  0  0  0  0  0  0  0
  1  2  1  0
  2  3  1  0
  3  4  1  0
  4  5  1  0
  5  6  1  0
  6  7  1  0
  6  8  1  0
  8  9  2  0
  6  2  1  0
  8  3  1  0
  1 10  1  0
  1 11  1  0
  1 12  1  0
  2 13  1  0
  3 14  1  0
  4 15  1  0
  4 16  1  0
  7 17  1  0
  7 18  1  0
  7 19  1  0
M  END
