
     RDKit          3D

 15 15  0  0  0  0  0  0  0  0999 V2000
   -1.6080   -0.5789    0.4545 C   0  0  0  0  0  0  0  0  0  0  0  0
   -0.7264    0.2091   -0.4500 C   0  0  0  0  0  0  0  0  0  0  0  0
    0.2902   -0.3454   -1.3472 C   0  0  0  0  0  0  0  0  0  0  0  0
    0.7033    0.5397   -0.1650 C   0  0  0  0  0  0  0  0  0  0  0  0
    1.0236    1.8416   -0.2875 O   0  0  0  0  0  0  0  0  0  0  0  0
    1.3625   -0.1697    0.9956 C   0  0  0  0  0  0  0  0  0  0  0  0
    1.9550   -1.2446    0.7508 O   0  0  0  0  0  0  0  0  0  0  0  0
   -1.4330   -0.2680    1.5109 H   0  0  0  0  0  0  0  0  0  0  0  0
   -1.5313   -1.6706    0.3286 H   0  0  0  0  0  0  0  0  0  0  0  0
   -2.7064   -0.3525    0.3030 H   0  0  0  0  0  0  0  0  0  0  0  0
   -1.2881    1.0737   -0.9229 H   0  0  0  0  0  0  0  0  0  0  0  0
    0.5844   -1.4483   -1.2623 H   0  0  0  0  0  0  0  0  0  0  0  0
    0.5372    0.0709   -2.3328 H   0  0  0  0  0  0  0  0  0  0  0  0
    1.4761    2.2037    0.4682 H   0  0  0  0  0  0  0  0  0  0  0  0
    1.3610    0.1391    1.9561 H   0  0  0  0  0  0  0  0  0  0  0  0
  1  2  1  0
  2  3  1  0
  3  4  1  0
  4  5  1  0
  4  6  1  0
  6  7  2  0
  4  2  1  0
  1  8  1  0
  1  9  1  0
  1 10  1  0
  2 11  1  0
  3 12  1  0
  3 13  1  0
  5 14  1  0
  6 15  1  0
M  END
