
     RDKit          3D

 17 18  0  0  0  0  0  0  0  0999 V2000
    2.1889   -0.0684   -0.0988 C   0  0  0  0  0  0  0  0  0  0  0  0
    0.7491   -0.1874    0.2638 C   0  0  0  0  0  0  0  0  0  0  0  0
    0.0584    1.1158    0.4081 C   0  0  0  0  0  0  0  0  0  0  0  0
    0.6359    2.1131    0.8363 O   0  0  0  0  0  0  0  0  0  0  0  0
   -1.3694    1.2258    0.0270 C   0  0  0  0  0  0  0  0  0  0  0  0
   -2.0782    0.1110   -0.1115 C   0  0  0  0  0  0  0  0  0  0  0  0
   -1.3858   -1.1216    0.1254 C   0  0  0  0  0  0  0  0  0  0  0  0
   -0.8192   -2.0297   -0.6437 O   0  0  0  0  0  0  0  0  0  0  0  0
   -0.0829   -0.9555   -0.7042 C   0  0  0  0  0  0  0  0  0  0  0  0
    2.4288    0.6916   -0.8427 H   0  0  0  0  0  0  0  0  0  0  0  0
    2.5592   -1.0638   -0.3965 H   0  0  0  0  0  0  0  0  0  0  0  0
    2.7615    0.2008    0.8354 H   0  0  0  0  0  0  0  0  0  0  0  0
    0.7027   -0.6726    1.2807 H   0  0  0  0  0  0  0  0  0  0  0  0
   -1.7995    2.2229   -0.1292 H   0  0  0  0  0  0  0  0  0  0  0  0
   -3.0935    0.1602   -0.3820 H   0  0  0  0  0  0  0  0  0  0  0  0
   -1.2700   -1.3581    1.2077 H   0  0  0  0  0  0  0  0  0  0  0  0
   -0.1860   -0.3841   -1.6756 H   0  0  0  0  0  0  0  0  0  0  0  0
  1  2  1  0
  2  3  1  0
  3  4  2  0
  3  5  1  0
  5  6  2  0
  6  7  1  0
  7  8  1  0
  8  9  1  0
  9  2  1  0
  9  7  1  0
  1 10  1  0
  1 11  1  0
  1 12  1  0
  2 13  1  0
  5 14  1  0
  6 15  1  0
  7 16  1  0
  9 17  1  0
M  END
