
     RDKit          3D

 21 21  0  0  0  0  0  0  0  0999 V2000
   -2.4927   -0.9097    0.3032 C   0  0  0  0  0  0  0  0  0  0  0  0
   -1.2951   -0.1669   -0.2086 C   0  0  0  0  0  0  0  0  0  0  0  0
   -0.0468   -0.6685    0.5258 C   0  0  0  0  0  0  0  0  0  0  0  0
    1.1138   -0.2453   -0.3767 C   0  0  0  0  0  0  0  0  0  0  0  0
    2.4387   -0.6390    0.1577 C   0  0  0  0  0  0  0  0  0  0  0  0
    0.9439    1.2209   -0.5628 C   0  0  0  0  0  0  0  0  0  0  0  0
    1.8802    1.8191   -1.0785 O   0  0  0  0  0  0  0  0  0  0  0  0
   -0.2801    1.9161   -0.1509 C   0  0  0  0  0  0  0  0  0  0  0  0
   -1.4188    1.1849   -0.1524 O   0  0  0  0  0  0  0  0  0  0  0  0
   -2.2588   -1.3608    1.3012 H   0  0  0  0  0  0  0  0  0  0  0  0
   -2.7415   -1.7781   -0.3721 H   0  0  0  0  0  0  0  0  0  0  0  0
   -3.4182   -0.2954    0.3300 H   0  0  0  0  0  0  0  0  0  0  0  0
   -1.1299   -0.4528   -1.2880 H   0  0  0  0  0  0  0  0  0  0  0  0
    0.0167   -0.0400    1.4456 H   0  0  0  0  0  0  0  0  0  0  0  0
   -0.0745   -1.7369    0.7102 H   0  0  0  0  0  0  0  0  0  0  0  0
    0.9441   -0.7079   -1.3873 H   0  0  0  0  0  0  0  0  0  0  0  0
    3.1560   -0.7393   -0.7060 H   0  0  0  0  0  0  0  0  0  0  0  0
    2.3338   -1.6646    0.6088 H   0  0  0  0  0  0  0  0  0  0  0  0
    2.8019    0.0780    0.9167 H   0  0  0  0  0  0  0  0  0  0  0  0
   -0.0591    2.4081    0.8402 H   0  0  0  0  0  0  0  0  0  0  0  0
   -0.4135    2.7780   -0.8562 H   0  0  0  0  0  0  0  0  0  0  0  0
  1  2  1  0
  2  3  1  0
  3  4  1  0
  4  5  1  0
  4  6  1  0
  6  7  2  0
  6  8  1  0
  8  9  1  0
  9  2  1  0
  1 10  1  0
  1 11  1  0
  1 12  1  0
  2 13  1  0
  3 14  1  0
  3 15  1  0
  4 16  1  0
  5 17  1  0
  5 18  1  0
  5 19  1  0
  8 20  1  0
  8 21  1  0
M  END
