
     RDKit          3D

 21 21  0  0  0  0  0  0  0  0999 V2000
   -2.4512   -0.6401    0.0284 C   0  0  0  0  0  0  0  0  0  0  0  0
   -1.1323   -0.3269   -0.6504 C   0  0  0  0  0  0  0  0  0  0  0  0
   -0.0059   -1.0230    0.0943 C   0  0  0  0  0  0  0  0  0  0  0  0
    0.5339    0.3530    0.4388 C   0  0  0  0  0  0  0  0  0  0  0  0
    1.9190    0.5081   -0.1350 C   0  0  0  0  0  0  0  0  0  0  0  0
    2.7864   -0.5383    0.4522 C   0  0  0  0  0  0  0  0  0  0  0  0
    2.3062   -1.3199    1.2536 O   0  0  0  0  0  0  0  0  0  0  0  0
   -0.5635    1.0339   -0.3288 C   0  0  0  0  0  0  0  0  0  0  0  0
   -1.3811    1.8372    0.4583 O   0  0  0  0  0  0  0  0  0  0  0  0
   -2.2923   -0.5600    1.1374 H   0  0  0  0  0  0  0  0  0  0  0  0
   -2.6781   -1.7088   -0.2184 H   0  0  0  0  0  0  0  0  0  0  0  0
   -3.2771    0.0018   -0.3188 H   0  0  0  0  0  0  0  0  0  0  0  0
   -1.1365   -0.4915   -1.7309 H   0  0  0  0  0  0  0  0  0  0  0  0
   -0.3230   -1.6198    0.9704 H   0  0  0  0  0  0  0  0  0  0  0  0
    0.6590   -1.6417   -0.5413 H   0  0  0  0  0  0  0  0  0  0  0  0
    0.4533    0.5461    1.5279 H   0  0  0  0  0  0  0  0  0  0  0  0
    2.3277    1.5278   -0.0013 H   0  0  0  0  0  0  0  0  0  0  0  0
    1.8413    0.2769   -1.2293 H   0  0  0  0  0  0  0  0  0  0  0  0
    3.8414   -0.6281    0.1873 H   0  0  0  0  0  0  0  0  0  0  0  0
   -0.1769    1.6124   -1.1841 H   0  0  0  0  0  0  0  0  0  0  0  0
   -1.2501    2.8010    0.2906 H   0  0  0  0  0  0  0  0  0  0  0  0
  1  2  1  0
  2  3  1  0
  3  4  1  0
  4  5  1  0
  5  6  1  0
  6  7  2  0
  4  8  1  0
  8  9  1  0
  8  2  1  0
  1 10  1  0
  1 11  1  0
  1 12  1  0
  2 13  1  0
  3 14  1  0
  3 15  1  0
  4 16  1  0
  5 17  1  0
  5 18  1  0
  6 19  1  0
  8 20  1  0
  9 21  1  0
M  END
