
     RDKit          3D

 23 23  0  0  0  0  0  0  0  0999 V2000
   -2.3939    0.6439    0.4734 C   0  0  0  0  0  0  0  0  0  0  0  0
   -1.0144    0.5623   -0.0713 C   0  0  0  0  0  0  0  0  0  0  0  0
   -0.9360   -0.2802   -1.3530 C   0  0  0  0  0  0  0  0  0  0  0  0
    0.5558   -0.5045   -1.4743 C   0  0  0  0  0  0  0  0  0  0  0  0
    1.1585   -0.2865   -0.1283 C   0  0  0  0  0  0  0  0  0  0  0  0
    1.9980    0.9716   -0.0447 C   0  0  0  0  0  0  0  0  0  0  0  0
    1.9354   -1.3337    0.3265 O   0  0  0  0  0  0  0  0  0  0  0  0
   -0.0500   -0.1958    0.8136 C   0  0  0  0  0  0  0  0  0  0  0  0
   -0.5153   -1.4956    0.9642 O   0  0  0  0  0  0  0  0  0  0  0  0
   -3.1354    0.7286   -0.3689 H   0  0  0  0  0  0  0  0  0  0  0  0
   -2.5165    1.6173    1.0336 H   0  0  0  0  0  0  0  0  0  0  0  0
   -2.6762   -0.1426    1.1751 H   0  0  0  0  0  0  0  0  0  0  0  0
   -0.6671    1.5611   -0.3477 H   0  0  0  0  0  0  0  0  0  0  0  0
   -1.3365    0.2905   -2.1974 H   0  0  0  0  0  0  0  0  0  0  0  0
   -1.3974   -1.2724   -1.2068 H   0  0  0  0  0  0  0  0  0  0  0  0
    0.7738   -1.4936   -1.9054 H   0  0  0  0  0  0  0  0  0  0  0  0
    0.9373    0.2527   -2.1832 H   0  0  0  0  0  0  0  0  0  0  0  0
    1.4046    1.8928   -0.0405 H   0  0  0  0  0  0  0  0  0  0  0  0
    2.6076    0.9321    0.8775 H   0  0  0  0  0  0  0  0  0  0  0  0
    2.6449    0.9734   -0.9568 H   0  0  0  0  0  0  0  0  0  0  0  0
    2.5334   -1.5967   -0.4206 H   0  0  0  0  0  0  0  0  0  0  0  0
    0.1951    0.3101    1.7428 H   0  0  0  0  0  0  0  0  0  0  0  0
   -0.1056   -2.1347    0.3217 H   0  0  0  0  0  0  0  0  0  0  0  0
  1  2  1  0
  2  3  1  0
  3  4  1  0
  4  5  1  0
  5  6  1  0
  5  7  1  0
  5  8  1  0
  8  9  1  0
  8  2  1  0
  1 10  1  0
  1 11  1  0
  1 12  1  0
  2 13  1  0
  3 14  1  0
  3 15  1  0
  4 16  1  0
  4 17  1  0
  6 18  1  0
  6 19  1  0
  6 20  1  0
  7 21  1  0
  8 22  1  0
  9 23  1  0
M  END
