
     RDKit          3D

 19 20  0  0  0  0  0  0  0  0999 V2000
    1.9049    0.5093   -0.2721 C   0  0  0  0  0  0  0  0  0  0  0  0
    1.2634   -0.2146    0.8739 C   0  0  0  0  0  0  0  0  0  0  0  0
    0.2913   -1.3021    0.6848 C   0  0  0  0  0  0  0  0  0  0  0  0
   -0.4786   -1.4908   -0.5754 C   0  0  0  0  0  0  0  0  0  0  0  0
   -1.6110   -0.6936   -0.3604 O   0  0  0  0  0  0  0  0  0  0  0  0
   -1.0244    0.5122   -0.0086 C   0  0  0  0  0  0  0  0  0  0  0  0
   -2.0203    1.5452    0.3628 C   0  0  0  0  0  0  0  0  0  0  0  0
   -3.1958    1.2948    0.3390 O   0  0  0  0  0  0  0  0  0  0  0  0
   -0.1487    0.1214    1.1467 C   0  0  0  0  0  0  0  0  0  0  0  0
    3.0284    0.4579   -0.2445 H   0  0  0  0  0  0  0  0  0  0  0  0
    1.6471    1.5943   -0.1659 H   0  0  0  0  0  0  0  0  0  0  0  0
    1.6081    0.1532   -1.2625 H   0  0  0  0  0  0  0  0  0  0  0  0
    1.9378   -0.3241    1.7602 H   0  0  0  0  0  0  0  0  0  0  0  0
    0.1714   -2.0666    1.4601 H   0  0  0  0  0  0  0  0  0  0  0  0
   -0.7965   -2.5582   -0.6879 H   0  0  0  0  0  0  0  0  0  0  0  0
    0.0125   -1.1048   -1.4791 H   0  0  0  0  0  0  0  0  0  0  0  0
   -0.3975    0.8453   -0.8529 H   0  0  0  0  0  0  0  0  0  0  0  0
   -1.6249    2.5145    0.6491 H   0  0  0  0  0  0  0  0  0  0  0  0
   -0.5672    0.2068    2.1471 H   0  0  0  0  0  0  0  0  0  0  0  0
  1  2  1  0
  2  3  1  0
  3  4  1  0
  4  5  1  0
  5  6  1  0
  6  7  1  0
  7  8  2  0
  6  9  1  0
  9  2  1  0
  9  3  1  0
  1 10  1  0
  1 11  1  0
  1 12  1  0
  2 13  1  0
  3 14  1  0
  4 15  1  0
  4 16  1  0
  6 17  1  0
  7 18  1  0
  9 19  1  0
M  END
