
     RDKit          3D

 21 23  0  0  0  0  0  0  0  0999 V2000
    2.6517    0.3383    0.9007 C   0  0  0  0  0  0  0  0  0  0  0  0
    1.4678   -0.2891    0.2573 C   0  0  0  0  0  0  0  0  0  0  0  0
    0.6447    0.5214   -0.5979 C   0  0  0  0  0  0  0  0  0  0  0  0
   -0.4117   -0.0317   -1.5691 C   0  0  0  0  0  0  0  0  0  0  0  0
   -1.6013    0.1092   -0.6734 C   0  0  0  0  0  0  0  0  0  0  0  0
   -1.6211    1.4505   -0.1970 O   0  0  0  0  0  0  0  0  0  0  0  0
   -2.3835   -0.7732    0.0771 C   0  0  0  0  0  0  0  0  0  0  0  0
   -1.0005   -0.9480    0.3441 C   0  0  0  0  0  0  0  0  0  0  0  0
    0.0862   -0.0644    0.7522 C   0  0  0  0  0  0  0  0  0  0  0  0
    2.5163    1.4356    1.0310 H   0  0  0  0  0  0  0  0  0  0  0  0
    2.9685   -0.1629    1.8413 H   0  0  0  0  0  0  0  0  0  0  0  0
    3.5194    0.2248    0.1958 H   0  0  0  0  0  0  0  0  0  0  0  0
    1.6564   -1.3515   -0.0748 H   0  0  0  0  0  0  0  0  0  0  0  0
    0.7614    1.6149   -0.6223 H   0  0  0  0  0  0  0  0  0  0  0  0
   -0.2247   -1.0766   -1.8143 H   0  0  0  0  0  0  0  0  0  0  0  0
   -0.4534    0.6548   -2.4214 H   0  0  0  0  0  0  0  0  0  0  0  0
   -1.8535    1.4978    0.7454 H   0  0  0  0  0  0  0  0  0  0  0  0
   -3.0188   -0.4090    0.9204 H   0  0  0  0  0  0  0  0  0  0  0  0
   -2.9738   -1.5517   -0.4859 H   0  0  0  0  0  0  0  0  0  0  0  0
   -0.5951   -1.9006   -0.1226 H   0  0  0  0  0  0  0  0  0  0  0  0
   -0.1351    0.7112    1.5136 H   0  0  0  0  0  0  0  0  0  0  0  0
  1  2  1  0
  2  3  1  0
  3  4  1  0
  4  5  1  0
  5  6  1  0
  5  7  1  0
  7  8  1  0
  8  9  1  0
  9  2  1  0
  9  3  1  0
  8  5  1  0
  1 10  1  0
  1 11  1  0
  1 12  1  0
  2 13  1  0
  3 14  1  0
  4 15  1  0
  4 16  1  0
  6 17  1  0
  7 18  1  0
  7 19  1  0
  8 20  1  0
  9 21  1  0
M  END
