
     RDKit          3D

 20 21  0  0  0  0  0  0  0  0999 V2000
   -1.4773   -0.9043    0.6802 C   0  0  0  0  0  0  0  0  0  0  0  0
   -0.7836   -0.3482   -0.5014 C   0  0  0  0  0  0  0  0  0  0  0  0
    0.4918   -1.1423   -0.7950 C   0  0  0  0  0  0  0  0  0  0  0  0
    1.4791   -1.2729    0.2941 C   0  0  0  0  0  0  0  0  0  0  0  0
    1.3416    0.0088   -0.4137 C   0  0  0  0  0  0  0  0  0  0  0  0
    0.0871    0.8315   -0.3717 C   0  0  0  0  0  0  0  0  0  0  0  0
   -0.0483    1.7182    0.8156 C   0  0  0  0  0  0  0  0  0  0  0  0
    0.0348    1.6144   -1.5519 O   0  0  0  0  0  0  0  0  0  0  0  0
   -2.2595   -1.6276    0.3089 H   0  0  0  0  0  0  0  0  0  0  0  0
   -0.8233   -1.5393    1.3415 H   0  0  0  0  0  0  0  0  0  0  0  0
   -1.9979   -0.1982    1.3213 H   0  0  0  0  0  0  0  0  0  0  0  0
   -1.4345   -0.3616   -1.4245 H   0  0  0  0  0  0  0  0  0  0  0  0
    0.6198   -1.6263   -1.7559 H   0  0  0  0  0  0  0  0  0  0  0  0
    1.1999   -1.2797    1.3591 H   0  0  0  0  0  0  0  0  0  0  0  0
    2.3752   -1.8662    0.0655 H   0  0  0  0  0  0  0  0  0  0  0  0
    2.1811    0.3679   -1.0035 H   0  0  0  0  0  0  0  0  0  0  0  0
    0.9570    1.7625    1.3231 H   0  0  0  0  0  0  0  0  0  0  0  0
   -0.2620    2.7901    0.5443 H   0  0  0  0  0  0  0  0  0  0  0  0
   -0.7638    1.4069    1.5687 H   0  0  0  0  0  0  0  0  0  0  0  0
   -0.9172    1.6664   -1.8045 H   0  0  0  0  0  0  0  0  0  0  0  0
  1  2  1  0
  2  3  1  0
  3  4  1  0
  4  5  1  0
  5  6  1  0
  6  7  1  0
  6  8  1  0
  6  2  1  0
  5  3  1  0
  1  9  1  0
  1 10  1  0
  1 11  1  0
  2 12  1  0
  3 13  1  0
  4 14  1  0
  4 15  1  0
  5 16  1  0
  7 17  1  0
  7 18  1  0
  7 19  1  0
  8 20  1  0
M  END
