
     RDKit          3D

 19 19  0  0  0  0  0  0  0  0999 V2000
    0.0051    1.9400    0.5510 C   0  0  0  0  0  0  0  0  0  0  0  0
    0.0366    0.8245   -0.4219 C   0  0  0  0  0  0  0  0  0  0  0  0
   -0.6428   -0.5066   -0.0164 C   0  0  0  0  0  0  0  0  0  0  0  0
   -1.5967   -1.0538   -1.0564 C   0  0  0  0  0  0  0  0  0  0  0  0
   -1.1579   -0.4779    1.2978 O   0  0  0  0  0  0  0  0  0  0  0  0
    0.7980   -0.4357   -0.1979 C   0  0  0  0  0  0  0  0  0  0  0  0
    1.3397   -1.0908   -1.3119 O   0  0  0  0  0  0  0  0  0  0  0  0
    1.6719   -0.5135    1.0096 C   0  0  0  0  0  0  0  0  0  0  0  0
    2.8717   -0.7784    0.9021 O   0  0  0  0  0  0  0  0  0  0  0  0
   -1.0145    1.9119    1.0379 H   0  0  0  0  0  0  0  0  0  0  0  0
    0.0180    2.9325    0.0127 H   0  0  0  0  0  0  0  0  0  0  0  0
    0.7414    1.9000    1.3538 H   0  0  0  0  0  0  0  0  0  0  0  0
   -0.0430    1.1081   -1.4987 H   0  0  0  0  0  0  0  0  0  0  0  0
   -1.3255   -0.7102   -2.0807 H   0  0  0  0  0  0  0  0  0  0  0  0
   -1.6775   -2.1410   -1.0192 H   0  0  0  0  0  0  0  0  0  0  0  0
   -2.5974   -0.6287   -0.8037 H   0  0  0  0  0  0  0  0  0  0  0  0
   -0.9078   -1.2799    1.8071 H   0  0  0  0  0  0  0  0  0  0  0  0
    2.2000   -0.6577   -1.5912 H   0  0  0  0  0  0  0  0  0  0  0  0
    1.2806   -0.3428    2.0262 H   0  0  0  0  0  0  0  0  0  0  0  0
  1  2  1  0
  2  3  1  0
  3  4  1  0
  3  5  1  0
  3  6  1  0
  6  7  1  0
  6  8  1  0
  8  9  2  0
  6  2  1  0
  1 10  1  0
  1 11  1  0
  1 12  1  0
  2 13  1  0
  4 14  1  0
  4 15  1  0
  4 16  1  0
  5 17  1  0
  7 18  1  0
  8 19  1  0
M  END
