
     RDKit          3D

 15 16  0  0  0  0  0  0  0  0999 V2000
    1.4813    0.4343    0.2525 C   0  0  0  0  0  0  0  0  0  0  0  0
    0.5865   -0.7331   -0.0007 C   0  0  0  0  0  0  0  0  0  0  0  0
   -0.4473   -0.5829   -1.0641 C   0  0  0  0  0  0  0  0  0  0  0  0
   -1.0170    0.7802   -0.7750 C   0  0  0  0  0  0  0  0  0  0  0  0
   -1.1859    0.6762    0.5669 C   0  0  0  0  0  0  0  0  0  0  0  0
   -0.6806   -0.7021    0.8061 C   0  0  0  0  0  0  0  0  0  0  0  0
   -1.2674   -1.4111   -0.2666 O   0  0  0  0  0  0  0  0  0  0  0  0
    2.3748    0.3920   -0.4074 H   0  0  0  0  0  0  0  0  0  0  0  0
    1.8459    0.4212    1.2846 H   0  0  0  0  0  0  0  0  0  0  0  0
    0.9698    1.3827    0.0651 H   0  0  0  0  0  0  0  0  0  0  0  0
    1.1379   -1.6843    0.0097 H   0  0  0  0  0  0  0  0  0  0  0  0
   -0.2668   -0.8579   -2.0640 H   0  0  0  0  0  0  0  0  0  0  0  0
   -1.2299    1.6004   -1.4355 H   0  0  0  0  0  0  0  0  0  0  0  0
   -1.5820    1.4076    1.2582 H   0  0  0  0  0  0  0  0  0  0  0  0
   -0.7193   -1.1231    1.7703 H   0  0  0  0  0  0  0  0  0  0  0  0
  1  2  1  0
  2  3  1  0
  3  4  1  0
  4  5  2  0
  5  6  1  0
  6  7  1  0
  6  2  1  0
  7  3  1  0
  1  8  1  0
  1  9  1  0
  1 10  1  0
  2 11  1  0
  3 12  1  0
  4 13  1  0
  5 14  1  0
  6 15  1  0
M  END
