
     RDKit          3D

 19 20  0  0  0  0  0  0  0  0999 V2000
   -2.6757    0.4364   -0.1012 C   0  0  0  0  0  0  0  0  0  0  0  0
   -1.2726    0.1454    0.2780 C   0  0  0  0  0  0  0  0  0  0  0  0
   -0.5181   -0.7623   -0.6364 C   0  0  0  0  0  0  0  0  0  0  0  0
   -0.4676    0.2866   -1.5413 O   0  0  0  0  0  0  0  0  0  0  0  0
   -0.1859    0.9419   -0.3585 C   0  0  0  0  0  0  0  0  0  0  0  0
    0.7229   -0.2004   -0.0301 C   0  0  0  0  0  0  0  0  0  0  0  0
    0.8851   -0.4617    1.3061 O   0  0  0  0  0  0  0  0  0  0  0  0
    1.9837   -0.3192   -0.8266 C   0  0  0  0  0  0  0  0  0  0  0  0
    2.8987    0.6027   -0.3053 O   0  0  0  0  0  0  0  0  0  0  0  0
   -2.8392    1.3746   -0.6348 H   0  0  0  0  0  0  0  0  0  0  0  0
   -3.0497   -0.4166   -0.7259 H   0  0  0  0  0  0  0  0  0  0  0  0
   -3.3021    0.4023    0.8363 H   0  0  0  0  0  0  0  0  0  0  0  0
   -1.0635   -0.0048    1.3569 H   0  0  0  0  0  0  0  0  0  0  0  0
   -0.7187   -1.7276   -0.8421 H   0  0  0  0  0  0  0  0  0  0  0  0
    0.0090    1.9251   -0.2364 H   0  0  0  0  0  0  0  0  0  0  0  0
    1.7766   -0.8349    1.4500 H   0  0  0  0  0  0  0  0  0  0  0  0
    2.4161   -1.3354   -0.5928 H   0  0  0  0  0  0  0  0  0  0  0  0
    1.8499   -0.2437   -1.9038 H   0  0  0  0  0  0  0  0  0  0  0  0
    3.5510    0.1915    0.3005 H   0  0  0  0  0  0  0  0  0  0  0  0
  1  2  1  0
  2  3  1  0
  3  4  1  0
  4  5  1  0
  5  6  1  0
  6  7  1  0
  6  8  1  0
  8  9  1  0
  5  2  1  0
  6  3  1  0
  1 10  1  0
  1 11  1  0
  1 12  1  0
  2 13  1  0
  3 14  1  0
  5 15  1  0
  7 16  1  0
  8 17  1  0
  8 18  1  0
  9 19  1  0
M  END
