
     RDKit          3D

 23 24  0  0  0  0  0  0  0  0999 V2000
   -1.4581    1.8233   -0.1088 C   0  0  0  0  0  0  0  0  0  0  0  0
   -1.1392    0.3921   -0.4156 C   0  0  0  0  0  0  0  0  0  0  0  0
   -1.7627   -0.5826    0.5415 C   0  0  0  0  0  0  0  0  0  0  0  0
   -0.8827   -1.8146    0.4531 C   0  0  0  0  0  0  0  0  0  0  0  0
    0.3181   -1.4126   -0.3893 C   0  0  0  0  0  0  0  0  0  0  0  0
    0.3103    0.0770   -0.2484 C   0  0  0  0  0  0  0  0  0  0  0  0
    0.7102    0.4198    1.1438 O   0  0  0  0  0  0  0  0  0  0  0  0
    1.3851    0.8805   -0.0241 C   0  0  0  0  0  0  0  0  0  0  0  0
    2.8019    0.3310   -0.2264 C   0  0  0  0  0  0  0  0  0  0  0  0
   -0.9009    2.1268    0.7828 H   0  0  0  0  0  0  0  0  0  0  0  0
   -1.1318    2.4269   -0.9828 H   0  0  0  0  0  0  0  0  0  0  0  0
   -2.5503    1.9602   -0.0150 H   0  0  0  0  0  0  0  0  0  0  0  0
   -1.4251    0.1120   -1.4614 H   0  0  0  0  0  0  0  0  0  0  0  0
   -2.8138   -0.7933    0.3418 H   0  0  0  0  0  0  0  0  0  0  0  0
   -1.6226   -0.1558    1.5747 H   0  0  0  0  0  0  0  0  0  0  0  0
   -1.4505   -2.6510    0.0051 H   0  0  0  0  0  0  0  0  0  0  0  0
   -0.4611   -2.0869    1.4578 H   0  0  0  0  0  0  0  0  0  0  0  0
    1.2486   -1.8709   -0.0413 H   0  0  0  0  0  0  0  0  0  0  0  0
    0.1380   -1.6525   -1.4727 H   0  0  0  0  0  0  0  0  0  0  0  0
    1.3472    1.9876   -0.0790 H   0  0  0  0  0  0  0  0  0  0  0  0
    3.4940    1.1064   -0.5730 H   0  0  0  0  0  0  0  0  0  0  0  0
    3.1216   -0.1466    0.7308 H   0  0  0  0  0  0  0  0  0  0  0  0
    2.7240   -0.4768   -0.9937 H   0  0  0  0  0  0  0  0  0  0  0  0
  1  2  1  0
  2  3  1  0
  3  4  1  0
  4  5  1  0
  5  6  1  0
  6  7  1  0
  7  8  1  0
  8  9  1  0
  6  2  1  0
  8  6  1  0
  1 10  1  0
  1 11  1  0
  1 12  1  0
  2 13  1  0
  3 14  1  0
  3 15  1  0
  4 16  1  0
  4 17  1  0
  5 18  1  0
  5 19  1  0
  8 20  1  0
  9 21  1  0
  9 22  1  0
  9 23  1  0
M  END
