
     RDKit          3D

 23 24  0  0  0  0  0  0  0  0999 V2000
    2.4361    1.0292    0.2143 C   0  0  0  0  0  0  0  0  0  0  0  0
    1.1822    0.4826   -0.3733 C   0  0  0  0  0  0  0  0  0  0  0  0
    1.1155   -1.0479   -0.2924 C   0  0  0  0  0  0  0  0  0  0  0  0
   -0.3158   -1.2362   -0.8167 C   0  0  0  0  0  0  0  0  0  0  0  0
   -1.0463   -0.2041   -0.0268 C   0  0  0  0  0  0  0  0  0  0  0  0
   -2.2371    0.4319   -0.6586 C   0  0  0  0  0  0  0  0  0  0  0  0
   -1.1555   -0.5872    1.4137 C   0  0  0  0  0  0  0  0  0  0  0  0
   -0.0550    0.2235    1.6907 O   0  0  0  0  0  0  0  0  0  0  0  0
   -0.0587    0.8244    0.4388 C   0  0  0  0  0  0  0  0  0  0  0  0
    3.1941    1.0942   -0.5999 H   0  0  0  0  0  0  0  0  0  0  0  0
    2.2326    2.0835    0.5395 H   0  0  0  0  0  0  0  0  0  0  0  0
    2.7518    0.3828    1.0446 H   0  0  0  0  0  0  0  0  0  0  0  0
    0.9745    0.7958   -1.4066 H   0  0  0  0  0  0  0  0  0  0  0  0
    1.0890   -1.3629    0.7602 H   0  0  0  0  0  0  0  0  0  0  0  0
    1.8568   -1.5346   -0.9165 H   0  0  0  0  0  0  0  0  0  0  0  0
   -0.6162   -2.2716   -0.6242 H   0  0  0  0  0  0  0  0  0  0  0  0
   -0.3039   -1.0113   -1.9182 H   0  0  0  0  0  0  0  0  0  0  0  0
   -2.6384   -0.1727   -1.4734 H   0  0  0  0  0  0  0  0  0  0  0  0
   -3.0112    0.5894    0.1182 H   0  0  0  0  0  0  0  0  0  0  0  0
   -1.9618    1.4553   -1.0176 H   0  0  0  0  0  0  0  0  0  0  0  0
   -2.0539   -0.1563    1.8960 H   0  0  0  0  0  0  0  0  0  0  0  0
   -1.0045   -1.6704    1.5917 H   0  0  0  0  0  0  0  0  0  0  0  0
   -0.3744    1.8628    0.4166 H   0  0  0  0  0  0  0  0  0  0  0  0
  1  2  1  0
  2  3  1  0
  3  4  1  0
  4  5  1  0
  5  6  1  0
  5  7  1  0
  7  8  1  0
  8  9  1  0
  9  2  1  0
  9  5  1  0
  1 10  1  0
  1 11  1  0
  1 12  1  0
  2 13  1  0
  3 14  1  0
  3 15  1  0
  4 16  1  0
  4 17  1  0
  6 18  1  0
  6 19  1  0
  6 20  1  0
  7 21  1  0
  7 22  1  0
  9 23  1  0
M  END
