
     RDKit          3D

 19 19  0  0  0  0  0  0  0  0999 V2000
    2.4877    0.1378    0.2043 C   0  0  0  0  0  0  0  0  0  0  0  0
    0.9980    0.1490    0.5360 C   0  0  0  0  0  0  0  0  0  0  0  0
    0.4347   -1.1529    0.0170 C   0  0  0  0  0  0  0  0  0  0  0  0
   -0.9782   -1.0325   -0.3475 C   0  0  0  0  0  0  0  0  0  0  0  0
   -1.6518   -2.0394   -0.4858 O   0  0  0  0  0  0  0  0  0  0  0  0
   -1.6588    0.2729   -0.5647 C   0  0  0  0  0  0  0  0  0  0  0  0
   -2.9463    0.1511   -0.0788 O   0  0  0  0  0  0  0  0  0  0  0  0
   -0.8993    1.4020    0.0983 C   0  0  0  0  0  0  0  0  0  0  0  0
    0.4549    1.2606   -0.0506 O   0  0  0  0  0  0  0  0  0  0  0  0
    2.8401   -0.8814   -0.0542 H   0  0  0  0  0  0  0  0  0  0  0  0
    3.0680    0.5321    1.0503 H   0  0  0  0  0  0  0  0  0  0  0  0
    2.6789    0.7586   -0.7085 H   0  0  0  0  0  0  0  0  0  0  0  0
    0.9262    0.1702    1.6593 H   0  0  0  0  0  0  0  0  0  0  0  0
    1.0134   -1.4735   -0.8925 H   0  0  0  0  0  0  0  0  0  0  0  0
    0.6398   -1.9227    0.7940 H   0  0  0  0  0  0  0  0  0  0  0  0
   -1.6743    0.4611   -1.6411 H   0  0  0  0  0  0  0  0  0  0  0  0
   -3.3207   -0.6855   -0.4686 H   0  0  0  0  0  0  0  0  0  0  0  0
   -1.2172    1.5602    1.1504 H   0  0  0  0  0  0  0  0  0  0  0  0
   -1.1950    2.3323   -0.4445 H   0  0  0  0  0  0  0  0  0  0  0  0
  1  2  1  0
  2  3  1  0
  3  4  1  0
  4  5  2  0
  4  6  1  0
  6  7  1  0
  6  8  1  0
  8  9  1  0
  9  2  1  0
  1 10  1  0
  1 11  1  0
  1 12  1  0
  2 13  1  0
  3 14  1  0
  3 15  1  0
  6 16  1  0
  7 17  1  0
  8 18  1  0
  8 19  1  0
M  END
