
     RDKit          3D

 18 18  0  0  0  0  0  0  0  0999 V2000
   -0.7614   -1.5793    0.8923 C   0  0  0  0  0  0  0  0  0  0  0  0
   -0.8808   -0.4737   -0.1130 C   0  0  0  0  0  0  0  0  0  0  0  0
    0.4325   -0.2005   -0.8633 C   0  0  0  0  0  0  0  0  0  0  0  0
    1.6505   -0.8931   -0.4184 C   0  0  0  0  0  0  0  0  0  0  0  0
    2.5127   -1.1571   -1.2399 O   0  0  0  0  0  0  0  0  0  0  0  0
   -0.1636    0.7941    0.1322 C   0  0  0  0  0  0  0  0  0  0  0  0
   -0.6641    2.0788   -0.4912 C   0  0  0  0  0  0  0  0  0  0  0  0
    0.4486    0.9633    1.3565 O   0  0  0  0  0  0  0  0  0  0  0  0
   -1.6804   -1.7720    1.4531 H   0  0  0  0  0  0  0  0  0  0  0  0
   -0.4546   -2.4999    0.3311 H   0  0  0  0  0  0  0  0  0  0  0  0
    0.0621   -1.3173    1.6069 H   0  0  0  0  0  0  0  0  0  0  0  0
   -1.7762   -0.5353   -0.7590 H   0  0  0  0  0  0  0  0  0  0  0  0
    0.3508    0.0541   -1.9392 H   0  0  0  0  0  0  0  0  0  0  0  0
    1.8333   -1.1869    0.6031 H   0  0  0  0  0  0  0  0  0  0  0  0
    0.2059    2.7743   -0.5145 H   0  0  0  0  0  0  0  0  0  0  0  0
   -0.9932    1.8339   -1.5338 H   0  0  0  0  0  0  0  0  0  0  0  0
   -1.4958    2.4724    0.1214 H   0  0  0  0  0  0  0  0  0  0  0  0
    1.3740    0.6444    1.3757 H   0  0  0  0  0  0  0  0  0  0  0  0
  1  2  1  0
  2  3  1  0
  3  4  1  0
  4  5  2  0
  3  6  1  0
  6  7  1  0
  6  8  1  0
  6  2  1  0
  1  9  1  0
  1 10  1  0
  1 11  1  0
  2 12  1  0
  3 13  1  0
  4 14  1  0
  7 15  1  0
  7 16  1  0
  7 17  1  0
  8 18  1  0
M  END
