
     RDKit          3D

 25 25  0  0  0  0  0  0  0  0999 V2000
   -2.0642    1.2604   -0.6808 C   0  0  0  0  0  0  0  0  0  0  0  0
   -1.9333    0.2588    0.4186 C   0  0  0  0  0  0  0  0  0  0  0  0
   -2.4177   -1.1090   -0.0784 C   0  0  0  0  0  0  0  0  0  0  0  0
   -0.9701   -1.3481   -0.5167 C   0  0  0  0  0  0  0  0  0  0  0  0
   -0.5936   -0.3783    0.6064 C   0  0  0  0  0  0  0  0  0  0  0  0
    0.6012    0.4390    0.2638 C   0  0  0  0  0  0  0  0  0  0  0  0
    1.8374   -0.4303    0.5407 C   0  0  0  0  0  0  0  0  0  0  0  0
    3.1030    0.3566    0.2068 C   0  0  0  0  0  0  0  0  0  0  0  0
    3.0313    0.6909   -1.1438 O   0  0  0  0  0  0  0  0  0  0  0  0
   -1.4724    1.0190   -1.5816 H   0  0  0  0  0  0  0  0  0  0  0  0
   -1.7857    2.2859   -0.3701 H   0  0  0  0  0  0  0  0  0  0  0  0
   -3.1464    1.2958   -0.9885 H   0  0  0  0  0  0  0  0  0  0  0  0
   -2.4525    0.6056    1.3268 H   0  0  0  0  0  0  0  0  0  0  0  0
   -2.6282   -1.7772    0.7780 H   0  0  0  0  0  0  0  0  0  0  0  0
   -3.1461   -1.0773   -0.8855 H   0  0  0  0  0  0  0  0  0  0  0  0
   -0.7226   -0.9193   -1.5027 H   0  0  0  0  0  0  0  0  0  0  0  0
   -0.6053   -2.3683   -0.3606 H   0  0  0  0  0  0  0  0  0  0  0  0
   -0.5060   -0.8555    1.5984 H   0  0  0  0  0  0  0  0  0  0  0  0
    0.6171    0.7493   -0.7901 H   0  0  0  0  0  0  0  0  0  0  0  0
    0.6763    1.3468    0.8853 H   0  0  0  0  0  0  0  0  0  0  0  0
    1.8543   -0.7452    1.5965 H   0  0  0  0  0  0  0  0  0  0  0  0
    1.7883   -1.3589   -0.0650 H   0  0  0  0  0  0  0  0  0  0  0  0
    3.9515   -0.3228    0.4171 H   0  0  0  0  0  0  0  0  0  0  0  0
    3.1124    1.2280    0.8622 H   0  0  0  0  0  0  0  0  0  0  0  0
    3.8714    1.1542   -1.4015 H   0  0  0  0  0  0  0  0  0  0  0  0
  1  2  1  0
  2  3  1  0
  3  4  1  0
  4  5  1  0
  5  6  1  0
  6  7  1  0
  7  8  1  0
  8  9  1  0
  5  2  1  0
  1 10  1  0
  1 11  1  0
  1 12  1  0
  2 13  1  0
  3 14  1  0
  3 15  1  0
  4 16  1  0
  4 17  1  0
  5 18  1  0
  6 19  1  0
  6 20  1  0
  7 21  1  0
  7 22  1  0
  8 23  1  0
  8 24  1  0
  9 25  1  0
M  END
