
     RDKit          3D

 21 22  0  0  0  0  0  0  0  0999 V2000
    2.3041    0.2402   -0.5751 C   0  0  0  0  0  0  0  0  0  0  0  0
    1.5002   -0.6122    0.3497 C   0  0  0  0  0  0  0  0  0  0  0  0
    0.5225    0.2110    1.1516 C   0  0  0  0  0  0  0  0  0  0  0  0
   -0.6226    0.5922    0.6199 C   0  0  0  0  0  0  0  0  0  0  0  0
   -1.9329    1.2618    0.6025 C   0  0  0  0  0  0  0  0  0  0  0  0
   -2.3663    0.1137   -0.3302 C   0  0  0  0  0  0  0  0  0  0  0  0
   -0.9275    0.2016   -0.8091 C   0  0  0  0  0  0  0  0  0  0  0  0
   -0.3069   -0.8982   -1.2559 O   0  0  0  0  0  0  0  0  0  0  0  0
    0.6169   -1.5346   -0.4975 C   0  0  0  0  0  0  0  0  0  0  0  0
    1.8833    1.2773   -0.6850 H   0  0  0  0  0  0  0  0  0  0  0  0
    2.3724   -0.2200   -1.5820 H   0  0  0  0  0  0  0  0  0  0  0  0
    3.3487    0.3942   -0.1879 H   0  0  0  0  0  0  0  0  0  0  0  0
    2.1011   -1.2768    1.0003 H   0  0  0  0  0  0  0  0  0  0  0  0
    0.7487    0.4949    2.1630 H   0  0  0  0  0  0  0  0  0  0  0  0
   -1.8992    2.1803    0.0163 H   0  0  0  0  0  0  0  0  0  0  0  0
   -2.4891    1.2886    1.5520 H   0  0  0  0  0  0  0  0  0  0  0  0
   -3.1309    0.3898   -1.0530 H   0  0  0  0  0  0  0  0  0  0  0  0
   -2.5157   -0.7912    0.2724 H   0  0  0  0  0  0  0  0  0  0  0  0
   -0.7394    1.0843   -1.4590 H   0  0  0  0  0  0  0  0  0  0  0  0
    1.3422   -2.0475   -1.1961 H   0  0  0  0  0  0  0  0  0  0  0  0
    0.1902   -2.3495    0.1170 H   0  0  0  0  0  0  0  0  0  0  0  0
  1  2  1  0
  2  3  1  0
  3  4  2  0
  4  5  1  0
  5  6  1  0
  6  7  1  0
  7  8  1  0
  8  9  1  0
  9  2  1  0
  7  4  1  0
  1 10  1  0
  1 11  1  0
  1 12  1  0
  2 13  1  0
  3 14  1  0
  5 15  1  0
  5 16  1  0
  6 17  1  0
  6 18  1  0
  7 19  1  0
  9 20  1  0
  9 21  1  0
M  END
