
     RDKit          3D

 23 24  0  0  0  0  0  0  0  0999 V2000
   -2.8859    0.6144    0.9461 C   0  0  0  0  0  0  0  0  0  0  0  0
   -1.7137   -0.1295    0.4160 C   0  0  0  0  0  0  0  0  0  0  0  0
   -1.6249   -0.0688   -1.1160 C   0  0  0  0  0  0  0  0  0  0  0  0
   -0.2286   -0.6791   -1.2766 C   0  0  0  0  0  0  0  0  0  0  0  0
    0.4128   -0.3246    0.0447 C   0  0  0  0  0  0  0  0  0  0  0  0
    1.7235    0.3438   -0.2462 C   0  0  0  0  0  0  0  0  0  0  0  0
    2.6144    0.8221    0.8273 C   0  0  0  0  0  0  0  0  0  0  0  0
    2.9732   -0.4810    0.1523 C   0  0  0  0  0  0  0  0  0  0  0  0
   -0.4835    0.4946    0.7231 O   0  0  0  0  0  0  0  0  0  0  0  0
   -2.7564    1.6961    0.9534 H   0  0  0  0  0  0  0  0  0  0  0  0
   -3.1567    0.2023    1.9508 H   0  0  0  0  0  0  0  0  0  0  0  0
   -3.7736    0.3564    0.2969 H   0  0  0  0  0  0  0  0  0  0  0  0
   -1.6281   -1.1594    0.7793 H   0  0  0  0  0  0  0  0  0  0  0  0
   -1.5428    0.9744   -1.4101 H   0  0  0  0  0  0  0  0  0  0  0  0
   -2.3995   -0.6566   -1.6016 H   0  0  0  0  0  0  0  0  0  0  0  0
   -0.4057   -1.7838   -1.3381 H   0  0  0  0  0  0  0  0  0  0  0  0
    0.2976   -0.2838   -2.1468 H   0  0  0  0  0  0  0  0  0  0  0  0
    0.5710   -1.2446    0.6655 H   0  0  0  0  0  0  0  0  0  0  0  0
    1.8192    0.8456   -1.2320 H   0  0  0  0  0  0  0  0  0  0  0  0
    3.3109    1.6674    0.5809 H   0  0  0  0  0  0  0  0  0  0  0  0
    2.3009    0.7514    1.8881 H   0  0  0  0  0  0  0  0  0  0  0  0
    2.7730   -1.4343    0.6987 H   0  0  0  0  0  0  0  0  0  0  0  0
    3.8030   -0.5229   -0.5556 H   0  0  0  0  0  0  0  0  0  0  0  0
  1  2  1  0
  2  3  1  0
  3  4  1  0
  4  5  1  0
  5  6  1  0
  6  7  1  0
  7  8  1  0
  5  9  1  0
  9  2  1  0
  8  6  1  0
  1 10  1  0
  1 11  1  0
  1 12  1  0
  2 13  1  0
  3 14  1  0
  3 15  1  0
  4 16  1  0
  4 17  1  0
  5 18  1  0
  6 19  1  0
  7 20  1  0
  7 21  1  0
  8 22  1  0
  8 23  1  0
M  END
