
     RDKit          3D

 19 19  0  0  0  0  0  0  0  0999 V2000
    1.5622    0.8395   -0.1722 C   0  0  0  0  0  0  0  0  0  0  0  0
    0.7352   -0.3531   -0.5509 C   0  0  0  0  0  0  0  0  0  0  0  0
   -0.4605    0.0155   -1.3985 C   0  0  0  0  0  0  0  0  0  0  0  0
   -1.4429    0.8281   -0.6604 C   0  0  0  0  0  0  0  0  0  0  0  0
   -1.4819    0.8475    0.6432 C   0  0  0  0  0  0  0  0  0  0  0  0
   -0.5605    0.0702    1.4446 C   0  0  0  0  0  0  0  0  0  0  0  0
   -0.4099    0.2401    2.6722 O   0  0  0  0  0  0  0  0  0  0  0  0
    0.2279   -0.9731    0.7336 C   0  0  0  0  0  0  0  0  0  0  0  0
   -0.5355   -2.1125    0.4926 O   0  0  0  0  0  0  0  0  0  0  0  0
    1.0894    1.3490    0.6995 H   0  0  0  0  0  0  0  0  0  0  0  0
    2.5566    0.4493    0.1643 H   0  0  0  0  0  0  0  0  0  0  0  0
    1.6750    1.5809   -0.9811 H   0  0  0  0  0  0  0  0  0  0  0  0
    1.3132   -1.1072   -1.1278 H   0  0  0  0  0  0  0  0  0  0  0  0
   -0.1164    0.4968   -2.3323 H   0  0  0  0  0  0  0  0  0  0  0  0
   -0.9667   -0.9499   -1.6575 H   0  0  0  0  0  0  0  0  0  0  0  0
   -2.1371    1.4132   -1.2181 H   0  0  0  0  0  0  0  0  0  0  0  0
   -2.2126    1.4526    1.1421 H   0  0  0  0  0  0  0  0  0  0  0  0
    1.1255   -1.1962    1.3488 H   0  0  0  0  0  0  0  0  0  0  0  0
    0.0390   -2.8905    0.7578 H   0  0  0  0  0  0  0  0  0  0  0  0
  1  2  1  0
  2  3  1  0
  3  4  1  0
  4  5  2  0
  5  6  1  0
  6  7  2  0
  6  8  1  0
  8  9  1  0
  8  2  1  0
  1 10  1  0
  1 11  1  0
  1 12  1  0
  2 13  1  0
  3 14  1  0
  3 15  1  0
  4 16  1  0
  5 17  1  0
  8 18  1  0
  9 19  1  0
M  END
