
     RDKit          3D

 21 22  0  0  0  0  0  0  0  0999 V2000
    2.7607    0.5373   -0.1611 C   0  0  0  0  0  0  0  0  0  0  0  0
    1.3638    0.6093    0.4755 C   0  0  0  0  0  0  0  0  0  0  0  0
    0.6762   -0.5746    0.5596 C   0  0  0  0  0  0  0  0  0  0  0  0
   -0.3729   -0.7701    1.6174 C   0  0  0  0  0  0  0  0  0  0  0  0
   -1.5174   -0.5116    0.9988 C   0  0  0  0  0  0  0  0  0  0  0  0
   -1.1104   -0.1760   -0.3903 C   0  0  0  0  0  0  0  0  0  0  0  0
   -2.1660    0.6586   -1.0377 C   0  0  0  0  0  0  0  0  0  0  0  0
   -1.0860   -1.4098   -1.0883 O   0  0  0  0  0  0  0  0  0  0  0  0
    0.2443    0.3672   -0.4038 C   0  0  0  0  0  0  0  0  0  0  0  0
    3.2361   -0.4341    0.1233 H   0  0  0  0  0  0  0  0  0  0  0  0
    3.4123    1.3413    0.1705 H   0  0  0  0  0  0  0  0  0  0  0  0
    2.6623    0.5011   -1.2680 H   0  0  0  0  0  0  0  0  0  0  0  0
    1.3561    1.3221    1.3483 H   0  0  0  0  0  0  0  0  0  0  0  0
    1.0640   -1.5514    0.1737 H   0  0  0  0  0  0  0  0  0  0  0  0
   -0.1835   -1.0571    2.6374 H   0  0  0  0  0  0  0  0  0  0  0  0
   -2.5153   -0.5442    1.4322 H   0  0  0  0  0  0  0  0  0  0  0  0
   -2.9107    0.9791   -0.2814 H   0  0  0  0  0  0  0  0  0  0  0  0
   -2.6610    0.1732   -1.8799 H   0  0  0  0  0  0  0  0  0  0  0  0
   -1.6852    1.5863   -1.4292 H   0  0  0  0  0  0  0  0  0  0  0  0
   -0.8907   -2.1595   -0.4788 H   0  0  0  0  0  0  0  0  0  0  0  0
    0.3233    1.1128   -1.1182 H   0  0  0  0  0  0  0  0  0  0  0  0
  1  2  1  0
  2  3  1  0
  3  4  1  0
  4  5  2  0
  5  6  1  0
  6  7  1  0
  6  8  1  0
  6  9  1  0
  9  2  1  0
  9  3  1  0
  1 10  1  0
  1 11  1  0
  1 12  1  0
  2 13  1  0
  3 14  1  0
  4 15  1  0
  5 16  1  0
  7 17  1  0
  7 18  1  0
  7 19  1  0
  8 20  1  0
  9 21  1  0
M  END
