
     RDKit          3D

 21 22  0  0  0  0  0  0  0  0999 V2000
    1.6498   -1.1161    0.5437 C   0  0  0  0  0  0  0  0  0  0  0  0
    0.9658   -0.0432   -0.2403 C   0  0  0  0  0  0  0  0  0  0  0  0
    1.2237    1.3200    0.2454 C   0  0  0  0  0  0  0  0  0  0  0  0
    0.1908    2.0764   -0.1034 C   0  0  0  0  0  0  0  0  0  0  0  0
   -0.8272    1.2448   -0.8517 C   0  0  0  0  0  0  0  0  0  0  0  0
   -0.5092   -0.0950   -0.2376 C   0  0  0  0  0  0  0  0  0  0  0  0
   -1.2101   -0.4040    1.0370 C   0  0  0  0  0  0  0  0  0  0  0  0
   -2.1710   -1.1085    0.2969 O   0  0  0  0  0  0  0  0  0  0  0  0
   -1.2130   -1.2798   -0.7268 C   0  0  0  0  0  0  0  0  0  0  0  0
    1.4627   -2.0813    0.0176 H   0  0  0  0  0  0  0  0  0  0  0  0
    2.7492   -0.9439    0.4536 H   0  0  0  0  0  0  0  0  0  0  0  0
    1.3208   -1.2297    1.5722 H   0  0  0  0  0  0  0  0  0  0  0  0
    1.3279   -0.1041   -1.2843 H   0  0  0  0  0  0  0  0  0  0  0  0
    2.0731    1.7333    0.7981 H   0  0  0  0  0  0  0  0  0  0  0  0
    0.0115    3.1393    0.0751 H   0  0  0  0  0  0  0  0  0  0  0  0
   -1.8467    1.5870   -0.6799 H   0  0  0  0  0  0  0  0  0  0  0  0
   -0.5138    1.2224   -1.9106 H   0  0  0  0  0  0  0  0  0  0  0  0
   -0.6916   -0.9833    1.7965 H   0  0  0  0  0  0  0  0  0  0  0  0
   -1.6725    0.5241    1.4570 H   0  0  0  0  0  0  0  0  0  0  0  0
   -1.6587   -1.2392   -1.7399 H   0  0  0  0  0  0  0  0  0  0  0  0
   -0.6616   -2.2194   -0.5186 H   0  0  0  0  0  0  0  0  0  0  0  0
  1  2  1  0
  2  3  1  0
  3  4  2  0
  4  5  1  0
  5  6  1  0
  6  7  1  0
  7  8  1  0
  8  9  1  0
  6  2  1  0
  9  6  1  0
  1 10  1  0
  1 11  1  0
  1 12  1  0
  2 13  1  0
  3 14  1  0
  4 15  1  0
  5 16  1  0
  5 17  1  0
  7 18  1  0
  7 19  1  0
  9 20  1  0
  9 21  1  0
M  END
