
     RDKit          3D

 17 18  0  0  0  0  0  0  0  0999 V2000
   -2.3917    0.2891    0.0192 C   0  0  0  0  0  0  0  0  0  0  0  0
   -0.9344    0.2153   -0.3196 C   0  0  0  0  0  0  0  0  0  0  0  0
   -0.0414   -0.2553    0.8233 C   0  0  0  0  0  0  0  0  0  0  0  0
    1.1890    0.5175    0.9761 C   0  0  0  0  0  0  0  0  0  0  0  0
    2.1836    0.4865    0.1126 C   0  0  0  0  0  0  0  0  0  0  0  0
    2.0354   -0.3689   -1.0534 C   0  0  0  0  0  0  0  0  0  0  0  0
    2.9743   -0.4061   -1.8804 O   0  0  0  0  0  0  0  0  0  0  0  0
    0.9052   -1.1142   -1.2469 O   0  0  0  0  0  0  0  0  0  0  0  0
   -0.1883   -1.0452   -0.3883 C   0  0  0  0  0  0  0  0  0  0  0  0
   -2.9348    0.8986   -0.7569 H   0  0  0  0  0  0  0  0  0  0  0  0
   -2.5163    0.8523    0.9645 H   0  0  0  0  0  0  0  0  0  0  0  0
   -2.8531   -0.7067    0.1448 H   0  0  0  0  0  0  0  0  0  0  0  0
   -0.5742    1.0519   -0.9609 H   0  0  0  0  0  0  0  0  0  0  0  0
   -0.5325   -0.6019    1.7545 H   0  0  0  0  0  0  0  0  0  0  0  0
    1.2995    1.1513    1.8392 H   0  0  0  0  0  0  0  0  0  0  0  0
    3.0984    1.0713    0.2414 H   0  0  0  0  0  0  0  0  0  0  0  0
   -0.7187   -2.0354   -0.2693 H   0  0  0  0  0  0  0  0  0  0  0  0
  1  2  1  0
  2  3  1  0
  3  4  1  0
  4  5  2  0
  5  6  1  0
  6  7  2  0
  6  8  1  0
  8  9  1  0
  9  2  1  0
  9  3  1  0
  1 10  1  0
  1 11  1  0
  1 12  1  0
  2 13  1  0
  3 14  1  0
  4 15  1  0
  5 16  1  0
  9 17  1  0
M  END
