
     RDKit          3D

 21 22  0  0  0  0  0  0  0  0999 V2000
    2.2342    0.1051    0.7205 C   0  0  0  0  0  0  0  0  0  0  0  0
    1.1542   -0.1874   -0.2430 C   0  0  0  0  0  0  0  0  0  0  0  0
    0.0407   -1.0626    0.3385 C   0  0  0  0  0  0  0  0  0  0  0  0
   -1.2431   -0.4203   -0.0662 C   0  0  0  0  0  0  0  0  0  0  0  0
   -2.3195   -1.1923   -0.2045 O   0  0  0  0  0  0  0  0  0  0  0  0
   -1.4248    0.8412    0.7662 C   0  0  0  0  0  0  0  0  0  0  0  0
   -0.2993    1.5833    0.4707 O   0  0  0  0  0  0  0  0  0  0  0  0
    0.3340    1.0534   -0.6206 C   0  0  0  0  0  0  0  0  0  0  0  0
   -0.8024    0.3084   -1.3524 C   0  0  0  0  0  0  0  0  0  0  0  0
    2.0176   -0.1242    1.7701 H   0  0  0  0  0  0  0  0  0  0  0  0
    3.1228   -0.5381    0.4454 H   0  0  0  0  0  0  0  0  0  0  0  0
    2.6286    1.1573    0.5988 H   0  0  0  0  0  0  0  0  0  0  0  0
    1.5264   -0.5986   -1.1882 H   0  0  0  0  0  0  0  0  0  0  0  0
    0.1168   -2.0595   -0.1419 H   0  0  0  0  0  0  0  0  0  0  0  0
    0.1376   -1.1232    1.4437 H   0  0  0  0  0  0  0  0  0  0  0  0
   -2.2320   -2.1324    0.1462 H   0  0  0  0  0  0  0  0  0  0  0  0
   -1.5791    0.6296    1.8210 H   0  0  0  0  0  0  0  0  0  0  0  0
   -2.3048    1.4106    0.3497 H   0  0  0  0  0  0  0  0  0  0  0  0
    0.8634    1.7364   -1.2618 H   0  0  0  0  0  0  0  0  0  0  0  0
   -1.5631    1.0048   -1.7051 H   0  0  0  0  0  0  0  0  0  0  0  0
   -0.4082   -0.3915   -2.0873 H   0  0  0  0  0  0  0  0  0  0  0  0
  1  2  1  0
  2  3  1  0
  3  4  1  0
  4  5  1  0
  4  6  1  0
  6  7  1  0
  7  8  1  0
  8  9  1  0
  8  2  1  0
  9  4  1  0
  1 10  1  0
  1 11  1  0
  1 12  1  0
  2 13  1  0
  3 14  1  0
  3 15  1  0
  5 16  1  0
  6 17  1  0
  6 18  1  0
  8 19  1  0
  9 20  1  0
  9 21  1  0
M  END
