
     RDKit          3D

 19 20  0  0  0  0  0  0  0  0999 V2000
    2.4716    0.5789   -0.6841 C   0  0  0  0  0  0  0  0  0  0  0  0
    1.1766    0.3476    0.0304 C   0  0  0  0  0  0  0  0  0  0  0  0
    1.0189   -1.0424    0.5246 C   0  0  0  0  0  0  0  0  0  0  0  0
   -0.2631   -1.4142    0.4307 C   0  0  0  0  0  0  0  0  0  0  0  0
   -1.0278   -0.3160   -0.1219 C   0  0  0  0  0  0  0  0  0  0  0  0
   -2.4427   -0.1814   -0.2532 C   0  0  0  0  0  0  0  0  0  0  0  0
   -1.8188    0.4929    0.9220 C   0  0  0  0  0  0  0  0  0  0  0  0
   -0.0130    0.4844   -0.8507 C   0  0  0  0  0  0  0  0  0  0  0  0
   -0.1716    1.0712   -1.8858 O   0  0  0  0  0  0  0  0  0  0  0  0
    2.5756    1.6736   -0.8340 H   0  0  0  0  0  0  0  0  0  0  0  0
    3.2850    0.2794    0.0089 H   0  0  0  0  0  0  0  0  0  0  0  0
    2.4926    0.0120   -1.6361 H   0  0  0  0  0  0  0  0  0  0  0  0
    1.0641    1.0446    0.8835 H   0  0  0  0  0  0  0  0  0  0  0  0
    1.8427   -1.6629    0.9083 H   0  0  0  0  0  0  0  0  0  0  0  0
   -0.5880   -2.4095    0.7459 H   0  0  0  0  0  0  0  0  0  0  0  0
   -3.0930   -1.0545   -0.0492 H   0  0  0  0  0  0  0  0  0  0  0  0
   -2.8556    0.5058   -1.0155 H   0  0  0  0  0  0  0  0  0  0  0  0
   -1.9946    0.0210    1.9081 H   0  0  0  0  0  0  0  0  0  0  0  0
   -1.6590    1.5695    0.9682 H   0  0  0  0  0  0  0  0  0  0  0  0
  1  2  1  0
  2  3  1  0
  3  4  2  0
  4  5  1  0
  5  6  1  0
  6  7  1  0
  5  8  1  0
  8  9  2  0
  8  2  1  0
  7  5  1  0
  1 10  1  0
  1 11  1  0
  1 12  1  0
  2 13  1  0
  3 14  1  0
  4 15  1  0
  6 16  1  0
  6 17  1  0
  7 18  1  0
  7 19  1  0
M  END
