
     RDKit          3D

 20 21  0  0  0  0  0  0  0  0999 V2000
    1.9306   -0.1879    0.2172 C   0  0  0  0  0  0  0  0  0  0  0  0
    0.6883   -0.3600   -0.6126 C   0  0  0  0  0  0  0  0  0  0  0  0
    0.1545    1.0057   -1.0536 C   0  0  0  0  0  0  0  0  0  0  0  0
    0.1422    1.7291    0.2395 C   0  0  0  0  0  0  0  0  0  0  0  0
   -0.3902    0.8210    1.0737 C   0  0  0  0  0  0  0  0  0  0  0  0
   -0.5985   -0.3476    0.2012 C   0  0  0  0  0  0  0  0  0  0  0  0
   -1.1594   -1.5752    0.6841 C   0  0  0  0  0  0  0  0  0  0  0  0
   -1.2112    0.3337   -1.0250 C   0  0  0  0  0  0  0  0  0  0  0  0
    1.9842   -0.8784    1.0703 H   0  0  0  0  0  0  0  0  0  0  0  0
    2.7999   -0.2759   -0.4720 H   0  0  0  0  0  0  0  0  0  0  0  0
    1.9695    0.8380    0.6290 H   0  0  0  0  0  0  0  0  0  0  0  0
    0.7322   -1.1147   -1.4095 H   0  0  0  0  0  0  0  0  0  0  0  0
    0.5117    1.4408   -1.9315 H   0  0  0  0  0  0  0  0  0  0  0  0
    0.4878    2.7377    0.4146 H   0  0  0  0  0  0  0  0  0  0  0  0
   -0.6250    0.8863    2.1286 H   0  0  0  0  0  0  0  0  0  0  0  0
   -1.8447   -2.0163   -0.0770 H   0  0  0  0  0  0  0  0  0  0  0  0
   -1.7618   -1.4141    1.6001 H   0  0  0  0  0  0  0  0  0  0  0  0
   -0.3830   -2.3422    0.8689 H   0  0  0  0  0  0  0  0  0  0  0  0
   -1.4377   -0.3204   -1.8589 H   0  0  0  0  0  0  0  0  0  0  0  0
   -1.9893    1.0403   -0.6868 H   0  0  0  0  0  0  0  0  0  0  0  0
  1  2  1  0
  2  3  1  0
  3  4  1  0
  4  5  2  0
  5  6  1  0
  6  7  1  0
  6  8  1  0
  6  2  1  0
  8  3  1  0
  1  9  1  0
  1 10  1  0
  1 11  1  0
  2 12  1  0
  3 13  1  0
  4 14  1  0
  5 15  1  0
  7 16  1  0
  7 17  1  0
  7 18  1  0
  8 19  1  0
  8 20  1  0
M  END
