
     RDKit          3D

 23 23  0  0  0  0  0  0  0  0999 V2000
    0.1107    2.1423    0.5521 C   0  0  0  0  0  0  0  0  0  0  0  0
    0.1768    0.6589    0.6565 C   0  0  0  0  0  0  0  0  0  0  0  0
   -1.0255   -0.1416    0.4073 C   0  0  0  0  0  0  0  0  0  0  0  0
   -2.2516    0.4632   -0.1332 C   0  0  0  0  0  0  0  0  0  0  0  0
   -0.2451   -0.9297   -0.6532 C   0  0  0  0  0  0  0  0  0  0  0  0
   -0.0300   -2.3490   -0.3200 C   0  0  0  0  0  0  0  0  0  0  0  0
   -1.0016   -3.0778   -0.2550 O   0  0  0  0  0  0  0  0  0  0  0  0
    0.9116   -0.0087   -0.5063 C   0  0  0  0  0  0  0  0  0  0  0  0
    2.2330   -0.6052   -0.1562 C   0  0  0  0  0  0  0  0  0  0  0  0
   -0.1870    2.5533    1.5507 H   0  0  0  0  0  0  0  0  0  0  0  0
   -0.4663    2.5364   -0.2728 H   0  0  0  0  0  0  0  0  0  0  0  0
    1.1685    2.5116    0.4103 H   0  0  0  0  0  0  0  0  0  0  0  0
    0.7081    0.3701    1.6041 H   0  0  0  0  0  0  0  0  0  0  0  0
   -1.2706   -0.8410    1.2603 H   0  0  0  0  0  0  0  0  0  0  0  0
   -3.1160    0.3571    0.5861 H   0  0  0  0  0  0  0  0  0  0  0  0
   -2.2164    1.5003   -0.4319 H   0  0  0  0  0  0  0  0  0  0  0  0
   -2.5865   -0.1289   -1.0335 H   0  0  0  0  0  0  0  0  0  0  0  0
   -0.7163   -0.8449   -1.6623 H   0  0  0  0  0  0  0  0  0  0  0  0
    0.9337   -2.7972   -0.1269 H   0  0  0  0  0  0  0  0  0  0  0  0
    1.0095    0.7373   -1.3450 H   0  0  0  0  0  0  0  0  0  0  0  0
    3.0529    0.1110   -0.4585 H   0  0  0  0  0  0  0  0  0  0  0  0
    2.3412   -0.6659    0.9662 H   0  0  0  0  0  0  0  0  0  0  0  0
    2.4667   -1.5516   -0.6390 H   0  0  0  0  0  0  0  0  0  0  0  0
  1  2  1  0
  2  3  1  0
  3  4  1  0
  3  5  1  0
  5  6  1  0
  6  7  2  0
  5  8  1  0
  8  9  1  0
  8  2  1  0
  1 10  1  0
  1 11  1  0
  1 12  1  0
  2 13  1  0
  3 14  1  0
  4 15  1  0
  4 16  1  0
  4 17  1  0
  5 18  1  0
  6 19  1  0
  8 20  1  0
  9 21  1  0
  9 22  1  0
  9 23  1  0
M  END
