
     RDKit          3D

 23 24  0  0  0  0  0  0  0  0999 V2000
   -0.4528    1.8643    1.1126 C   0  0  0  0  0  0  0  0  0  0  0  0
   -0.1434    1.0332   -0.0923 C   0  0  0  0  0  0  0  0  0  0  0  0
    1.2703    0.5417   -0.0620 C   0  0  0  0  0  0  0  0  0  0  0  0
    1.7633   -0.4765   -1.0158 C   0  0  0  0  0  0  0  0  0  0  0  0
    3.0724   -0.9164   -0.7786 O   0  0  0  0  0  0  0  0  0  0  0  0
    0.7718   -0.8647   -0.0012 C   0  0  0  0  0  0  0  0  0  0  0  0
   -0.6409   -0.3632   -0.1161 C   0  0  0  0  0  0  0  0  0  0  0  0
   -1.4697   -0.8250    1.0402 C   0  0  0  0  0  0  0  0  0  0  0  0
   -1.2242   -0.7400   -1.4558 C   0  0  0  0  0  0  0  0  0  0  0  0
   -1.4275    1.6885    1.5640 H   0  0  0  0  0  0  0  0  0  0  0  0
   -0.3731    2.9501    0.8376 H   0  0  0  0  0  0  0  0  0  0  0  0
    0.3306    1.7240    1.9086 H   0  0  0  0  0  0  0  0  0  0  0  0
   -0.3183    1.5953   -1.0531 H   0  0  0  0  0  0  0  0  0  0  0  0
    1.9458    0.9255    0.7365 H   0  0  0  0  0  0  0  0  0  0  0  0
    1.4353   -0.5061   -2.0635 H   0  0  0  0  0  0  0  0  0  0  0  0
    3.4416   -0.5430    0.0712 H   0  0  0  0  0  0  0  0  0  0  0  0
    1.0658   -1.5390    0.8194 H   0  0  0  0  0  0  0  0  0  0  0  0
   -1.2105   -1.9077    1.2153 H   0  0  0  0  0  0  0  0  0  0  0  0
   -2.5522   -0.7767    0.8670 H   0  0  0  0  0  0  0  0  0  0  0  0
   -1.1481   -0.3087    1.9785 H   0  0  0  0  0  0  0  0  0  0  0  0
   -2.1456   -1.3648   -1.3555 H   0  0  0  0  0  0  0  0  0  0  0  0
   -0.5004   -1.3306   -2.0813 H   0  0  0  0  0  0  0  0  0  0  0  0
   -1.4902    0.1396   -2.0758 H   0  0  0  0  0  0  0  0  0  0  0  0
  1  2  1  0
  2  3  1  0
  3  4  1  0
  4  5  1  0
  4  6  1  0
  6  7  1  0
  7  8  1  0
  7  9  1  0
  7  2  1  0
  6  3  1  0
  1 10  1  0
  1 11  1  0
  1 12  1  0
  2 13  1  0
  3 14  1  0
  4 15  1  0
  5 16  1  0
  6 17  1  0
  8 18  1  0
  8 19  1  0
  8 20  1  0
  9 21  1  0
  9 22  1  0
  9 23  1  0
M  END
