
     RDKit          3D

 21 23  0  0  0  0  0  0  0  0999 V2000
    0.0369    1.4866   -0.9626 C   0  0  0  0  0  0  0  0  0  0  0  0
    0.1386    0.6912    0.3006 C   0  0  0  0  0  0  0  0  0  0  0  0
    0.9588   -0.5506    0.2608 C   0  0  0  0  0  0  0  0  0  0  0  0
    1.8252   -0.9473   -0.8276 C   0  0  0  0  0  0  0  0  0  0  0  0
    2.3683   -0.6330    0.5776 C   0  0  0  0  0  0  0  0  0  0  0  0
   -0.0296   -1.3251    0.8141 O   0  0  0  0  0  0  0  0  0  0  0  0
   -0.9266   -0.3300    0.5271 C   0  0  0  0  0  0  0  0  0  0  0  0
   -2.1695   -0.0878    1.2325 C   0  0  0  0  0  0  0  0  0  0  0  0
   -2.1252   -0.4719   -0.2654 C   0  0  0  0  0  0  0  0  0  0  0  0
    0.2031    0.8897   -1.8690 H   0  0  0  0  0  0  0  0  0  0  0  0
    0.8167    2.2783   -0.9451 H   0  0  0  0  0  0  0  0  0  0  0  0
   -0.9396    2.0417   -0.9767 H   0  0  0  0  0  0  0  0  0  0  0  0
    0.2440    1.3510    1.1709 H   0  0  0  0  0  0  0  0  0  0  0  0
    1.8963   -2.0302   -1.0806 H   0  0  0  0  0  0  0  0  0  0  0  0
    2.0840   -0.2737   -1.6508 H   0  0  0  0  0  0  0  0  0  0  0  0
    2.9343    0.3439    0.6031 H   0  0  0  0  0  0  0  0  0  0  0  0
    2.7274   -1.4685    1.1948 H   0  0  0  0  0  0  0  0  0  0  0  0
   -2.6258   -0.8395    1.9166 H   0  0  0  0  0  0  0  0  0  0  0  0
   -2.4230    0.9725    1.4669 H   0  0  0  0  0  0  0  0  0  0  0  0
   -2.6003   -1.4306   -0.4993 H   0  0  0  0  0  0  0  0  0  0  0  0
   -2.3941    0.3334   -0.9881 H   0  0  0  0  0  0  0  0  0  0  0  0
  1  2  1  0
  2  3  1  0
  3  4  1  0
  4  5  1  0
  3  6  1  0
  6  7  1  0
  7  8  1  0
  8  9  1  0
  7  2  1  0
  5  3  1  0
  9  7  1  0
  1 10  1  0
  1 11  1  0
  1 12  1  0
  2 13  1  0
  4 14  1  0
  4 15  1  0
  5 16  1  0
  5 17  1  0
  8 18  1  0
  8 19  1  0
  9 20  1  0
  9 21  1  0
M  END
