
     RDKit          3D

 22 23  0  0  0  0  0  0  0  0999 V2000
   -1.9768    1.1656   -0.5864 C   0  0  0  0  0  0  0  0  0  0  0  0
   -1.0162    0.6030    0.4250 C   0  0  0  0  0  0  0  0  0  0  0  0
    0.2524    1.4471    0.6185 C   0  0  0  0  0  0  0  0  0  0  0  0
    0.9724    0.4252   -0.2298 C   0  0  0  0  0  0  0  0  0  0  0  0
    2.3139   -0.0123    0.2672 C   0  0  0  0  0  0  0  0  0  0  0  0
   -0.1428   -0.5110   -0.0306 C   0  0  0  0  0  0  0  0  0  0  0  0
   -0.5342   -1.6021   -0.8825 C   0  0  0  0  0  0  0  0  0  0  0  0
   -0.0885   -1.8158    0.5883 C   0  0  0  0  0  0  0  0  0  0  0  0
   -1.9257    2.2696   -0.6331 H   0  0  0  0  0  0  0  0  0  0  0  0
   -3.0012    0.8496   -0.2626 H   0  0  0  0  0  0  0  0  0  0  0  0
   -1.7974    0.7803   -1.6184 H   0  0  0  0  0  0  0  0  0  0  0  0
   -1.4728    0.4153    1.4027 H   0  0  0  0  0  0  0  0  0  0  0  0
    0.1881    2.4606    0.1868 H   0  0  0  0  0  0  0  0  0  0  0  0
    0.5856    1.5213    1.6694 H   0  0  0  0  0  0  0  0  0  0  0  0
    1.0581    0.8258   -1.2741 H   0  0  0  0  0  0  0  0  0  0  0  0
    3.1624    0.4602   -0.2926 H   0  0  0  0  0  0  0  0  0  0  0  0
    2.4050   -1.1084    0.0333 H   0  0  0  0  0  0  0  0  0  0  0  0
    2.4856    0.1808    1.3397 H   0  0  0  0  0  0  0  0  0  0  0  0
   -1.5713   -1.8714   -1.1342 H   0  0  0  0  0  0  0  0  0  0  0  0
    0.2172   -1.9791   -1.6273 H   0  0  0  0  0  0  0  0  0  0  0  0
   -0.9227   -2.0794    1.2925 H   0  0  0  0  0  0  0  0  0  0  0  0
    0.8090   -2.4247    0.7483 H   0  0  0  0  0  0  0  0  0  0  0  0
  1  2  1  0
  2  3  1  0
  3  4  1  0
  4  5  1  0
  4  6  1  0
  6  7  1  0
  7  8  1  0
  6  2  1  0
  8  6  1  0
  1  9  1  0
  1 10  1  0
  1 11  1  0
  2 12  1  0
  3 13  1  0
  3 14  1  0
  4 15  1  0
  5 16  1  0
  5 17  1  0
  5 18  1  0
  7 19  1  0
  7 20  1  0
  8 21  1  0
  8 22  1  0
M  END
