
     RDKit          3D

 23 23  0  0  0  0  0  0  0  0999 V2000
   -2.0681   -0.8177   -0.4345 C   0  0  0  0  0  0  0  0  0  0  0  0
   -0.5995   -0.8728   -0.7083 C   0  0  0  0  0  0  0  0  0  0  0  0
    0.0752   -1.7291    0.3356 C   0  0  0  0  0  0  0  0  0  0  0  0
    1.0163   -0.9215    0.9762 O   0  0  0  0  0  0  0  0  0  0  0  0
    1.4558   -0.1061   -0.0663 C   0  0  0  0  0  0  0  0  0  0  0  0
    2.4207    0.9291    0.3116 C   0  0  0  0  0  0  0  0  0  0  0  0
    0.1006    0.4509   -0.5293 C   0  0  0  0  0  0  0  0  0  0  0  0
   -0.4992    1.3122    0.5390 C   0  0  0  0  0  0  0  0  0  0  0  0
   -1.8079    1.6113    0.2735 O   0  0  0  0  0  0  0  0  0  0  0  0
   -2.2523   -0.6497    0.6516 H   0  0  0  0  0  0  0  0  0  0  0  0
   -2.6237   -0.1199   -1.0639 H   0  0  0  0  0  0  0  0  0  0  0  0
   -2.4908   -1.8324   -0.6426 H   0  0  0  0  0  0  0  0  0  0  0  0
   -0.4178   -1.2259   -1.7423 H   0  0  0  0  0  0  0  0  0  0  0  0
   -0.6222   -2.1583    1.0509 H   0  0  0  0  0  0  0  0  0  0  0  0
    0.6638   -2.5355   -0.1855 H   0  0  0  0  0  0  0  0  0  0  0  0
    1.7926   -0.8062   -0.8703 H   0  0  0  0  0  0  0  0  0  0  0  0
    2.0754    1.9652    0.3143 H   0  0  0  0  0  0  0  0  0  0  0  0
    3.2845    0.8964   -0.4165 H   0  0  0  0  0  0  0  0  0  0  0  0
    2.8973    0.6410    1.2934 H   0  0  0  0  0  0  0  0  0  0  0  0
    0.2057    1.0045   -1.4805 H   0  0  0  0  0  0  0  0  0  0  0  0
    0.0713    2.2684    0.5426 H   0  0  0  0  0  0  0  0  0  0  0  0
   -0.3325    0.8120    1.5091 H   0  0  0  0  0  0  0  0  0  0  0  0
   -2.3454    1.8842    1.0371 H   0  0  0  0  0  0  0  0  0  0  0  0
  1  2  1  0
  2  3  1  0
  3  4  1  0
  4  5  1  0
  5  6  1  0
  5  7  1  0
  7  8  1  0
  8  9  1  0
  7  2  1  0
  1 10  1  0
  1 11  1  0
  1 12  1  0
  2 13  1  0
  3 14  1  0
  3 15  1  0
  5 16  1  0
  6 17  1  0
  6 18  1  0
  6 19  1  0
  7 20  1  0
  8 21  1  0
  8 22  1  0
  9 23  1  0
M  END
