
     RDKit          3D

 25 26  0  0  0  0  0  0  0  0999 V2000
    2.8680   -0.7500    0.3693 C   0  0  0  0  0  0  0  0  0  0  0  0
    1.8772    0.0895   -0.4225 C   0  0  0  0  0  0  0  0  0  0  0  0
    1.0196    0.9898    0.4355 C   0  0  0  0  0  0  0  0  0  0  0  0
   -0.2043    0.3468   -0.1390 C   0  0  0  0  0  0  0  0  0  0  0  0
   -0.8293    1.1812   -1.2063 C   0  0  0  0  0  0  0  0  0  0  0  0
   -1.1396   -0.2905    0.8389 C   0  0  0  0  0  0  0  0  0  0  0  0
   -2.3640   -0.9256    0.1857 C   0  0  0  0  0  0  0  0  0  0  0  0
   -2.4577    0.2319    1.1694 C   0  0  0  0  0  0  0  0  0  0  0  0
    0.6616   -0.7396   -0.7881 C   0  0  0  0  0  0  0  0  0  0  0  0
    3.8802   -0.4004    0.1250 H   0  0  0  0  0  0  0  0  0  0  0  0
    2.6955   -1.8231    0.1651 H   0  0  0  0  0  0  0  0  0  0  0  0
    2.6240   -0.6051    1.4563 H   0  0  0  0  0  0  0  0  0  0  0  0
    2.3059    0.5712   -1.3150 H   0  0  0  0  0  0  0  0  0  0  0  0
    1.1939    2.0492    0.1576 H   0  0  0  0  0  0  0  0  0  0  0  0
    1.2129    0.8496    1.4995 H   0  0  0  0  0  0  0  0  0  0  0  0
   -1.6682    1.7978   -0.8932 H   0  0  0  0  0  0  0  0  0  0  0  0
   -1.1863    0.5266   -2.0506 H   0  0  0  0  0  0  0  0  0  0  0  0
   -0.0230    1.8107   -1.6799 H   0  0  0  0  0  0  0  0  0  0  0  0
   -0.6248   -0.9648    1.5702 H   0  0  0  0  0  0  0  0  0  0  0  0
   -2.6708   -1.9247    0.4846 H   0  0  0  0  0  0  0  0  0  0  0  0
   -2.6285   -0.6343   -0.8405 H   0  0  0  0  0  0  0  0  0  0  0  0
   -2.8148    1.2149    0.8113 H   0  0  0  0  0  0  0  0  0  0  0  0
   -2.8410   -0.0000    2.1950 H   0  0  0  0  0  0  0  0  0  0  0  0
    0.6239   -1.7169   -0.2690 H   0  0  0  0  0  0  0  0  0  0  0  0
    0.4896   -0.8841   -1.8594 H   0  0  0  0  0  0  0  0  0  0  0  0
  1  2  1  0
  2  3  1  0
  3  4  1  0
  4  5  1  0
  4  6  1  0
  6  7  1  0
  7  8  1  0
  4  9  1  0
  9  2  1  0
  8  6  1  0
  1 10  1  0
  1 11  1  0
  1 12  1  0
  2 13  1  0
  3 14  1  0
  3 15  1  0
  5 16  1  0
  5 17  1  0
  5 18  1  0
  6 19  1  0
  7 20  1  0
  7 21  1  0
  8 22  1  0
  8 23  1  0
  9 24  1  0
  9 25  1  0
M  END
