
     RDKit          3D

 23 24  0  0  0  0  0  0  0  0999 V2000
   -3.3585   -0.4077   -0.1516 C   0  0  0  0  0  0  0  0  0  0  0  0
   -1.9568   -0.3639    0.4206 C   0  0  0  0  0  0  0  0  0  0  0  0
   -1.2058    0.9456    0.1032 C   0  0  0  0  0  0  0  0  0  0  0  0
   -0.8244   -0.4126   -0.4896 C   0  0  0  0  0  0  0  0  0  0  0  0
    0.5494   -0.8739   -0.0827 C   0  0  0  0  0  0  0  0  0  0  0  0
    1.6761   -0.9163   -1.0111 C   0  0  0  0  0  0  0  0  0  0  0  0
    1.5943    0.2615   -0.1184 C   0  0  0  0  0  0  0  0  0  0  0  0
    2.4984    0.3791    1.0929 C   0  0  0  0  0  0  0  0  0  0  0  0
    3.3711    1.4460    0.8926 O   0  0  0  0  0  0  0  0  0  0  0  0
   -3.2668   -0.7306   -1.2093 H   0  0  0  0  0  0  0  0  0  0  0  0
   -4.0002   -1.1415    0.3816 H   0  0  0  0  0  0  0  0  0  0  0  0
   -3.8024    0.6105   -0.1545 H   0  0  0  0  0  0  0  0  0  0  0  0
   -1.8795   -0.6365    1.5025 H   0  0  0  0  0  0  0  0  0  0  0  0
   -1.6956    1.6599   -0.5857 H   0  0  0  0  0  0  0  0  0  0  0  0
   -0.5688    1.3810    0.8745 H   0  0  0  0  0  0  0  0  0  0  0  0
   -1.0497   -0.5867   -1.5665 H   0  0  0  0  0  0  0  0  0  0  0  0
    0.5601   -1.5168    0.8263 H   0  0  0  0  0  0  0  0  0  0  0  0
    1.5726   -0.8030   -2.1091 H   0  0  0  0  0  0  0  0  0  0  0  0
    2.4979   -1.6409   -0.7432 H   0  0  0  0  0  0  0  0  0  0  0  0
    1.3210    1.2074   -0.5791 H   0  0  0  0  0  0  0  0  0  0  0  0
    1.9170    0.4988    2.0183 H   0  0  0  0  0  0  0  0  0  0  0  0
    3.1121   -0.5423    1.1362 H   0  0  0  0  0  0  0  0  0  0  0  0
    2.9385    2.1829    0.3874 H   0  0  0  0  0  0  0  0  0  0  0  0
  1  2  1  0
  2  3  1  0
  3  4  1  0
  4  5  1  0
  5  6  1  0
  6  7  1  0
  7  8  1  0
  8  9  1  0
  4  2  1  0
  7  5  1  0
  1 10  1  0
  1 11  1  0
  1 12  1  0
  2 13  1  0
  3 14  1  0
  3 15  1  0
  4 16  1  0
  5 17  1  0
  6 18  1  0
  6 19  1  0
  7 20  1  0
  8 21  1  0
  8 22  1  0
  9 23  1  0
M  END
