
     RDKit          3D

 21 22  0  0  0  0  0  0  0  0999 V2000
    2.3696   -0.1062    0.1464 C   0  0  0  0  0  0  0  0  0  0  0  0
    1.0864   -0.2640   -0.6973 C   0  0  0  0  0  0  0  0  0  0  0  0
    0.1988    0.8140   -0.6589 C   0  0  0  0  0  0  0  0  0  0  0  0
   -0.2425    1.0508   -2.0040 O   0  0  0  0  0  0  0  0  0  0  0  0
   -0.9233    1.2212    0.2073 C   0  0  0  0  0  0  0  0  0  0  0  0
   -1.5549   -0.0460   -0.3803 C   0  0  0  0  0  0  0  0  0  0  0  0
   -2.5344   -0.5997    0.3982 O   0  0  0  0  0  0  0  0  0  0  0  0
   -0.1907   -0.6101   -0.1144 C   0  0  0  0  0  0  0  0  0  0  0  0
   -0.0282   -1.0279    1.2796 C   0  0  0  0  0  0  0  0  0  0  0  0
    2.2163    0.5965    0.9698 H   0  0  0  0  0  0  0  0  0  0  0  0
    3.1618    0.2327   -0.5704 H   0  0  0  0  0  0  0  0  0  0  0  0
    2.6263   -1.1395    0.4726 H   0  0  0  0  0  0  0  0  0  0  0  0
    1.3542   -0.9347   -1.5723 H   0  0  0  0  0  0  0  0  0  0  0  0
   -0.0502    2.0092   -2.1397 H   0  0  0  0  0  0  0  0  0  0  0  0
   -1.5361    2.0852   -0.1208 H   0  0  0  0  0  0  0  0  0  0  0  0
   -0.8236    1.2630    1.2769 H   0  0  0  0  0  0  0  0  0  0  0  0
   -1.8256    0.1291   -1.4395 H   0  0  0  0  0  0  0  0  0  0  0  0
   -3.2836   -0.9908   -0.1062 H   0  0  0  0  0  0  0  0  0  0  0  0
    0.7537   -1.8393    1.4303 H   0  0  0  0  0  0  0  0  0  0  0  0
   -0.9668   -1.5445    1.5788 H   0  0  0  0  0  0  0  0  0  0  0  0
    0.1928   -0.2990    2.0438 H   0  0  0  0  0  0  0  0  0  0  0  0
  1  2  1  0
  2  3  1  0
  3  4  1  0
  3  5  1  0
  5  6  1  0
  6  7  1  0
  6  8  1  0
  8  9  1  0
  8  2  1  0
  8  3  1  0
  1 10  1  0
  1 11  1  0
  1 12  1  0
  2 13  1  0
  4 14  1  0
  5 15  1  0
  5 16  1  0
  6 17  1  0
  7 18  1  0
  9 19  1  0
  9 20  1  0
  9 21  1  0
M  END
