
     RDKit          3D

 21 22  0  0  0  0  0  0  0  0999 V2000
   -2.2108   -0.1039    1.1688 C   0  0  0  0  0  0  0  0  0  0  0  0
   -1.3707   -0.3248   -0.0586 C   0  0  0  0  0  0  0  0  0  0  0  0
   -1.4569    0.9290   -0.9447 C   0  0  0  0  0  0  0  0  0  0  0  0
   -0.4148    1.4505   -0.1376 O   0  0  0  0  0  0  0  0  0  0  0  0
   -0.0025    0.1671   -0.0272 C   0  0  0  0  0  0  0  0  0  0  0  0
    0.8532   -0.3644   -1.2229 C   0  0  0  0  0  0  0  0  0  0  0  0
    1.2445   -0.4193    0.2148 C   0  0  0  0  0  0  0  0  0  0  0  0
    2.4332    0.4566    0.5796 C   0  0  0  0  0  0  0  0  0  0  0  0
    1.3053   -1.6988    0.8041 O   0  0  0  0  0  0  0  0  0  0  0  0
   -1.9587   -0.7917    1.9802 H   0  0  0  0  0  0  0  0  0  0  0  0
   -3.3029   -0.1356    0.8927 H   0  0  0  0  0  0  0  0  0  0  0  0
   -2.0430    0.9396    1.5224 H   0  0  0  0  0  0  0  0  0  0  0  0
   -1.6113   -1.2310   -0.6411 H   0  0  0  0  0  0  0  0  0  0  0  0
   -2.3938    1.4615   -0.8995 H   0  0  0  0  0  0  0  0  0  0  0  0
   -1.0228    0.6927   -1.9291 H   0  0  0  0  0  0  0  0  0  0  0  0
    0.5401   -1.3026   -1.6775 H   0  0  0  0  0  0  0  0  0  0  0  0
    1.2338    0.4056   -1.8985 H   0  0  0  0  0  0  0  0  0  0  0  0
    2.1313    1.2036    1.3460 H   0  0  0  0  0  0  0  0  0  0  0  0
    3.2751   -0.1508    0.9140 H   0  0  0  0  0  0  0  0  0  0  0  0
    2.7790    1.0604   -0.2970 H   0  0  0  0  0  0  0  0  0  0  0  0
    1.9926   -2.2437    0.3112 H   0  0  0  0  0  0  0  0  0  0  0  0
  1  2  1  0
  2  3  1  0
  3  4  1  0
  4  5  1  0
  5  6  1  0
  6  7  1  0
  7  8  1  0
  7  9  1  0
  5  2  1  0
  7  5  1  0
  1 10  1  0
  1 11  1  0
  1 12  1  0
  2 13  1  0
  3 14  1  0
  3 15  1  0
  6 16  1  0
  6 17  1  0
  8 18  1  0
  8 19  1  0
  8 20  1  0
  9 21  1  0
M  END
