
     RDKit          3D

 19 19  0  0  0  0  0  0  0  0999 V2000
    1.7703   -0.9278   -0.3859 C   0  0  0  0  0  0  0  0  0  0  0  0
    0.7259    0.0942   -0.7891 C   0  0  0  0  0  0  0  0  0  0  0  0
    0.4135    1.2241    0.1806 C   0  0  0  0  0  0  0  0  0  0  0  0
    1.2419    1.2589    1.2787 O   0  0  0  0  0  0  0  0  0  0  0  0
   -0.5692    0.1480    0.0025 C   0  0  0  0  0  0  0  0  0  0  0  0
   -1.7886    0.3916   -0.8829 C   0  0  0  0  0  0  0  0  0  0  0  0
   -0.8158   -0.8990    1.0624 C   0  0  0  0  0  0  0  0  0  0  0  0
    2.4730   -0.4126    0.2899 H   0  0  0  0  0  0  0  0  0  0  0  0
    2.2875   -1.3229   -1.3048 H   0  0  0  0  0  0  0  0  0  0  0  0
    1.3323   -1.8140    0.1050 H   0  0  0  0  0  0  0  0  0  0  0  0
    0.7196    0.4064   -1.8517 H   0  0  0  0  0  0  0  0  0  0  0  0
    0.1380    2.2199   -0.2357 H   0  0  0  0  0  0  0  0  0  0  0  0
    1.0567    1.9710    1.9177 H   0  0  0  0  0  0  0  0  0  0  0  0
   -2.7140    0.2857   -0.2798 H   0  0  0  0  0  0  0  0  0  0  0  0
   -1.7851   -0.4650   -1.6170 H   0  0  0  0  0  0  0  0  0  0  0  0
   -1.7224    1.3697   -1.3747 H   0  0  0  0  0  0  0  0  0  0  0  0
   -1.5947   -0.5335    1.7469 H   0  0  0  0  0  0  0  0  0  0  0  0
   -1.2501   -1.7861    0.5379 H   0  0  0  0  0  0  0  0  0  0  0  0
    0.0815   -1.2087    1.6000 H   0  0  0  0  0  0  0  0  0  0  0  0
  1  2  1  0
  2  3  1  0
  3  4  1  0
  3  5  1  0
  5  6  1  0
  5  7  1  0
  5  2  1  0
  1  8  1  0
  1  9  1  0
  1 10  1  0
  2 11  1  0
  3 12  1  0
  4 13  1  0
  6 14  1  0
  6 15  1  0
  6 16  1  0
  7 17  1  0
  7 18  1  0
  7 19  1  0
M  END
