
     RDKit          3D

 21 22  0  0  0  0  0  0  0  0999 V2000
   -0.7759   -1.7211    0.7531 C   0  0  0  0  0  0  0  0  0  0  0  0
   -1.3646   -0.6137   -0.0775 C   0  0  0  0  0  0  0  0  0  0  0  0
   -1.3933    0.7474    0.5838 C   0  0  0  0  0  0  0  0  0  0  0  0
   -0.0186    0.9179    1.0546 C   0  0  0  0  0  0  0  0  0  0  0  0
    0.7249    0.4839    0.0095 C   0  0  0  0  0  0  0  0  0  0  0  0
    2.1933    0.4315   -0.1411 C   0  0  0  0  0  0  0  0  0  0  0  0
    2.6021   -0.9063   -0.3526 O   0  0  0  0  0  0  0  0  0  0  0  0
   -0.3246    0.0693   -0.9581 C   0  0  0  0  0  0  0  0  0  0  0  0
   -1.2748    1.2734   -0.8585 C   0  0  0  0  0  0  0  0  0  0  0  0
   -0.7876   -2.6319    0.1043 H   0  0  0  0  0  0  0  0  0  0  0  0
   -1.3737   -1.9583    1.6378 H   0  0  0  0  0  0  0  0  0  0  0  0
    0.2795   -1.5121    0.9949 H   0  0  0  0  0  0  0  0  0  0  0  0
   -2.2571   -0.8698   -0.6640 H   0  0  0  0  0  0  0  0  0  0  0  0
   -2.2294    1.0438    1.1488 H   0  0  0  0  0  0  0  0  0  0  0  0
    0.2928    1.3017    2.0135 H   0  0  0  0  0  0  0  0  0  0  0  0
    2.5686    1.0078   -1.0127 H   0  0  0  0  0  0  0  0  0  0  0  0
    2.6795    0.7649    0.7986 H   0  0  0  0  0  0  0  0  0  0  0  0
    3.4930   -0.8649   -0.7520 H   0  0  0  0  0  0  0  0  0  0  0  0
   -0.0899   -0.3182   -1.8972 H   0  0  0  0  0  0  0  0  0  0  0  0
   -2.1727    1.1157   -1.4648 H   0  0  0  0  0  0  0  0  0  0  0  0
   -0.7715    2.2389   -0.9204 H   0  0  0  0  0  0  0  0  0  0  0  0
  1  2  1  0
  2  3  1  0
  3  4  1  0
  4  5  2  0
  5  6  1  0
  6  7  1  0
  5  8  1  0
  8  9  1  0
  8  2  1  0
  9  3  1  0
  1 10  1  0
  1 11  1  0
  1 12  1  0
  2 13  1  0
  3 14  1  0
  4 15  1  0
  6 16  1  0
  6 17  1  0
  7 18  1  0
  8 19  1  0
  9 20  1  0
  9 21  1  0
M  END
