
     RDKit          3D

 21 22  0  0  0  0  0  0  0  0999 V2000
    2.7265    0.2071    0.7159 C   0  0  0  0  0  0  0  0  0  0  0  0
    1.5282    0.3012   -0.1651 C   0  0  0  0  0  0  0  0  0  0  0  0
    1.1434   -0.9231   -0.9005 C   0  0  0  0  0  0  0  0  0  0  0  0
    1.6211   -1.9424   -1.2638 O   0  0  0  0  0  0  0  0  0  0  0  0
   -0.1582   -0.2329   -0.9598 C   0  0  0  0  0  0  0  0  0  0  0  0
    0.2209   -0.0355    0.5704 C   0  0  0  0  0  0  0  0  0  0  0  0
   -1.1124    0.0067    0.0817 C   0  0  0  0  0  0  0  0  0  0  0  0
   -1.8259    1.3591    0.2270 C   0  0  0  0  0  0  0  0  0  0  0  0
   -2.1114   -1.1394    0.3186 C   0  0  0  0  0  0  0  0  0  0  0  0
    2.6488   -0.6711    1.3497 H   0  0  0  0  0  0  0  0  0  0  0  0
    2.8514    1.1574    1.2456 H   0  0  0  0  0  0  0  0  0  0  0  0
    3.6204    0.0674    0.0398 H   0  0  0  0  0  0  0  0  0  0  0  0
    1.4449    1.2392   -0.7705 H   0  0  0  0  0  0  0  0  0  0  0  0
    0.0189    0.7021   -1.5876 H   0  0  0  0  0  0  0  0  0  0  0  0
    0.4471   -1.0123    1.1088 H   0  0  0  0  0  0  0  0  0  0  0  0
   -1.0387    2.1511    0.0880 H   0  0  0  0  0  0  0  0  0  0  0  0
   -2.3155    1.4591    1.2048 H   0  0  0  0  0  0  0  0  0  0  0  0
   -2.5128    1.4584   -0.6355 H   0  0  0  0  0  0  0  0  0  0  0  0
   -2.3802   -1.2334    1.3747 H   0  0  0  0  0  0  0  0  0  0  0  0
   -1.7650   -2.0681   -0.1582 H   0  0  0  0  0  0  0  0  0  0  0  0
   -3.0516   -0.8508   -0.2340 H   0  0  0  0  0  0  0  0  0  0  0  0
  1  2  1  0
  2  3  1  0
  3  4  2  0
  3  5  1  0
  5  6  1  0
  6  7  1  0
  7  8  1  0
  7  9  1  0
  6  2  1  0
  7  5  1  0
  1 10  1  0
  1 11  1  0
  1 12  1  0
  2 13  1  0
  5 14  1  0
  6 15  1  0
  8 16  1  0
  8 17  1  0
  8 18  1  0
  9 19  1  0
  9 20  1  0
  9 21  1  0
M  END
