
     RDKit          3D

 17 18  0  0  0  0  0  0  0  0999 V2000
   -1.9290   -0.2781   -0.1631 C   0  0  0  0  0  0  0  0  0  0  0  0
   -0.6051   -0.2710    0.4923 C   0  0  0  0  0  0  0  0  0  0  0  0
    0.2935   -1.4302    0.1597 C   0  0  0  0  0  0  0  0  0  0  0  0
    1.4109   -0.5807    0.6648 C   0  0  0  0  0  0  0  0  0  0  0  0
    0.5643    0.2660   -0.2513 C   0  0  0  0  0  0  0  0  0  0  0  0
    0.8173    1.5609   -0.6390 C   0  0  0  0  0  0  0  0  0  0  0  0
    0.4774   -0.8513   -1.0817 O   0  0  0  0  0  0  0  0  0  0  0  0
   -2.5885   -0.9922    0.4146 H   0  0  0  0  0  0  0  0  0  0  0  0
   -1.9032   -0.6535   -1.1860 H   0  0  0  0  0  0  0  0  0  0  0  0
   -2.4216    0.7095   -0.0525 H   0  0  0  0  0  0  0  0  0  0  0  0
   -0.6149   -0.0075    1.5509 H   0  0  0  0  0  0  0  0  0  0  0  0
    0.1162   -2.4001    0.3637 H   0  0  0  0  0  0  0  0  0  0  0  0
    2.4159   -0.8186    0.3441 H   0  0  0  0  0  0  0  0  0  0  0  0
    1.2452   -0.2777    1.7116 H   0  0  0  0  0  0  0  0  0  0  0  0
    0.6162    1.7795   -1.7297 H   0  0  0  0  0  0  0  0  0  0  0  0
    0.2191    2.3468   -0.0988 H   0  0  0  0  0  0  0  0  0  0  0  0
    1.8863    1.8983   -0.4995 H   0  0  0  0  0  0  0  0  0  0  0  0
  1  2  1  0
  2  3  1  0
  3  4  1  0
  4  5  1  0
  5  6  1  0
  5  7  1  0
  5  2  1  0
  7  3  1  0
  1  8  1  0
  1  9  1  0
  1 10  1  0
  2 11  1  0
  3 12  1  0
  4 13  1  0
  4 14  1  0
  6 15  1  0
  6 16  1  0
  6 17  1  0
M  END
