
     RDKit          3D

 21 23  0  0  0  0  0  0  0  0999 V2000
    2.2552   -0.5395    0.0676 C   0  0  0  0  0  0  0  0  0  0  0  0
    0.7825   -0.3479    0.2650 C   0  0  0  0  0  0  0  0  0  0  0  0
   -0.0410   -1.5078   -0.2570 C   0  0  0  0  0  0  0  0  0  0  0  0
   -1.4902   -1.2232   -0.0187 C   0  0  0  0  0  0  0  0  0  0  0  0
   -2.2727   -0.7805   -1.0942 O   0  0  0  0  0  0  0  0  0  0  0  0
   -1.9592    0.1020   -0.0453 C   0  0  0  0  0  0  0  0  0  0  0  0
   -1.0491    1.2088   -0.4359 C   0  0  0  0  0  0  0  0  0  0  0  0
   -0.2342    1.9512    0.5725 C   0  0  0  0  0  0  0  0  0  0  0  0
    0.3836    0.9470   -0.3860 C   0  0  0  0  0  0  0  0  0  0  0  0
    2.7469   -1.0377    0.9242 H   0  0  0  0  0  0  0  0  0  0  0  0
    2.7291    0.4848    0.0174 H   0  0  0  0  0  0  0  0  0  0  0  0
    2.5024   -1.1146   -0.8306 H   0  0  0  0  0  0  0  0  0  0  0  0
    0.6092   -0.3353    1.3799 H   0  0  0  0  0  0  0  0  0  0  0  0
    0.3239   -2.4126    0.3133 H   0  0  0  0  0  0  0  0  0  0  0  0
    0.1936   -1.7424   -1.3221 H   0  0  0  0  0  0  0  0  0  0  0  0
   -1.9792   -1.9693    0.6629 H   0  0  0  0  0  0  0  0  0  0  0  0
   -2.7998    0.4202    0.6298 H   0  0  0  0  0  0  0  0  0  0  0  0
   -1.4311    1.8618   -1.2652 H   0  0  0  0  0  0  0  0  0  0  0  0
   -0.2967    1.6869    1.6534 H   0  0  0  0  0  0  0  0  0  0  0  0
    0.0285    3.0175    0.4028 H   0  0  0  0  0  0  0  0  0  0  0  0
    0.9984    1.3305   -1.2339 H   0  0  0  0  0  0  0  0  0  0  0  0
  1  2  1  0
  2  3  1  0
  3  4  1  0
  4  5  1  0
  5  6  1  0
  6  7  1  0
  7  8  1  0
  8  9  1  0
  9  2  1  0
  6  4  1  0
  9  7  1  0
  1 10  1  0
  1 11  1  0
  1 12  1  0
  2 13  1  0
  3 14  1  0
  3 15  1  0
  4 16  1  0
  6 17  1  0
  7 18  1  0
  8 19  1  0
  8 20  1  0
  9 21  1  0
M  END
