
     RDKit          3D

 25 26  0  0  0  0  0  0  0  0999 V2000
    2.3162   -0.5128   -0.6108 C   0  0  0  0  0  0  0  0  0  0  0  0
    1.2117    0.2174    0.0466 C   0  0  0  0  0  0  0  0  0  0  0  0
    0.3752   -0.6499    0.9906 C   0  0  0  0  0  0  0  0  0  0  0  0
   -0.9299   -0.6790    0.3315 C   0  0  0  0  0  0  0  0  0  0  0  0
   -0.9059   -1.6077   -0.9002 C   0  0  0  0  0  0  0  0  0  0  0  0
   -2.0893    0.1095    0.3895 C   0  0  0  0  0  0  0  0  0  0  0  0
   -0.9627    0.8676   -0.0081 C   0  0  0  0  0  0  0  0  0  0  0  0
   -0.5439    1.8608    1.0514 C   0  0  0  0  0  0  0  0  0  0  0  0
    0.1421    0.6903   -0.9583 C   0  0  0  0  0  0  0  0  0  0  0  0
    3.2482    0.0845   -0.5807 H   0  0  0  0  0  0  0  0  0  0  0  0
    2.5362   -1.4527   -0.0627 H   0  0  0  0  0  0  0  0  0  0  0  0
    2.1416   -0.7656   -1.6736 H   0  0  0  0  0  0  0  0  0  0  0  0
    1.6132    1.0811    0.5979 H   0  0  0  0  0  0  0  0  0  0  0  0
    0.4479   -0.3764    2.0309 H   0  0  0  0  0  0  0  0  0  0  0  0
    0.8695   -1.6695    0.9348 H   0  0  0  0  0  0  0  0  0  0  0  0
    0.0880   -1.9133   -1.2033 H   0  0  0  0  0  0  0  0  0  0  0  0
   -1.4107   -2.5489   -0.5204 H   0  0  0  0  0  0  0  0  0  0  0  0
   -1.5558   -1.2504   -1.7088 H   0  0  0  0  0  0  0  0  0  0  0  0
   -2.9234    0.0104   -0.3553 H   0  0  0  0  0  0  0  0  0  0  0  0
   -2.5681    0.2192    1.4054 H   0  0  0  0  0  0  0  0  0  0  0  0
    0.2379    2.5737    0.7375 H   0  0  0  0  0  0  0  0  0  0  0  0
   -0.3721    1.4655    2.0412 H   0  0  0  0  0  0  0  0  0  0  0  0
   -1.4576    2.5272    1.1718 H   0  0  0  0  0  0  0  0  0  0  0  0
    0.4698    1.6872   -1.3474 H   0  0  0  0  0  0  0  0  0  0  0  0
    0.0221    0.0319   -1.7994 H   0  0  0  0  0  0  0  0  0  0  0  0
  1  2  1  0
  2  3  1  0
  3  4  1  0
  4  5  1  0
  4  6  1  0
  6  7  1  0
  7  8  1  0
  7  9  1  0
  9  2  1  0
  7  4  1  0
  1 10  1  0
  1 11  1  0
  1 12  1  0
  2 13  1  0
  3 14  1  0
  3 15  1  0
  5 16  1  0
  5 17  1  0
  5 18  1  0
  6 19  1  0
  6 20  1  0
  8 21  1  0
  8 22  1  0
  8 23  1  0
  9 24  1  0
  9 25  1  0
M  END
