
     RDKit          3D

 19 20  0  0  0  0  0  0  0  0999 V2000
    1.5758    0.6647    1.0350 C   0  0  0  0  0  0  0  0  0  0  0  0
    0.7153    0.5842   -0.1948 C   0  0  0  0  0  0  0  0  0  0  0  0
   -0.7319    0.9651   -0.0011 C   0  0  0  0  0  0  0  0  0  0  0  0
   -1.1967    1.7490   -1.0692 O   0  0  0  0  0  0  0  0  0  0  0  0
   -1.1066   -0.4712   -0.1609 C   0  0  0  0  0  0  0  0  0  0  0  0
   -2.2197   -0.8006   -0.9016 O   0  0  0  0  0  0  0  0  0  0  0  0
   -0.4251   -1.5552    0.5786 C   0  0  0  0  0  0  0  0  0  0  0  0
    0.2569   -0.8172   -0.5111 C   0  0  0  0  0  0  0  0  0  0  0  0
    0.6468   -1.4481   -1.6611 O   0  0  0  0  0  0  0  0  0  0  0  0
    1.6888    1.7264    1.3520 H   0  0  0  0  0  0  0  0  0  0  0  0
    2.5507    0.1972    0.7849 H   0  0  0  0  0  0  0  0  0  0  0  0
    1.1462    0.1232    1.8832 H   0  0  0  0  0  0  0  0  0  0  0  0
    1.1857    1.1120   -1.0379 H   0  0  0  0  0  0  0  0  0  0  0  0
   -0.9955    1.4450    0.9411 H   0  0  0  0  0  0  0  0  0  0  0  0
   -0.7713    2.6453   -1.0157 H   0  0  0  0  0  0  0  0  0  0  0  0
   -3.0379   -0.7593   -0.3108 H   0  0  0  0  0  0  0  0  0  0  0  0
   -0.1975   -1.3945    1.6423 H   0  0  0  0  0  0  0  0  0  0  0  0
   -0.7386   -2.5770    0.3371 H   0  0  0  0  0  0  0  0  0  0  0  0
    1.6547   -1.3888   -1.6900 H   0  0  0  0  0  0  0  0  0  0  0  0
  1  2  1  0
  2  3  1  0
  3  4  1  0
  3  5  1  0
  5  6  1  0
  5  7  1  0
  7  8  1  0
  8  9  1  0
  8  2  1  0
  8  5  1  0
  1 10  1  0
  1 11  1  0
  1 12  1  0
  2 13  1  0
  3 14  1  0
  4 15  1  0
  6 16  1  0
  7 17  1  0
  7 18  1  0
  9 19  1  0
M  END
