
     RDKit          3D

 21 21  0  0  0  0  0  0  0  0999 V2000
   -1.8728   -1.4769   -0.1386 C   0  0  0  0  0  0  0  0  0  0  0  0
   -1.6727   -0.0174    0.1119 C   0  0  0  0  0  0  0  0  0  0  0  0
   -1.0092    0.4491    1.3571 C   0  0  0  0  0  0  0  0  0  0  0  0
   -0.2883    0.5105    0.0335 C   0  0  0  0  0  0  0  0  0  0  0  0
   -0.1011    1.8771   -0.6107 C   0  0  0  0  0  0  0  0  0  0  0  0
    0.8692   -0.4209   -0.1086 C   0  0  0  0  0  0  0  0  0  0  0  0
    2.0582    0.3424   -0.1586 O   0  0  0  0  0  0  0  0  0  0  0  0
    3.2559   -0.3373   -0.2897 C   0  0  0  0  0  0  0  0  0  0  0  0
    3.2257   -1.5918   -0.3574 O   0  0  0  0  0  0  0  0  0  0  0  0
   -2.1950   -2.0298    0.7681 H   0  0  0  0  0  0  0  0  0  0  0  0
   -0.9828   -1.9986   -0.5335 H   0  0  0  0  0  0  0  0  0  0  0  0
   -2.6814   -1.6419   -0.8996 H   0  0  0  0  0  0  0  0  0  0  0  0
   -2.5122    0.6336   -0.2437 H   0  0  0  0  0  0  0  0  0  0  0  0
   -1.3072    1.4327    1.7826 H   0  0  0  0  0  0  0  0  0  0  0  0
   -0.6893   -0.2771    2.1276 H   0  0  0  0  0  0  0  0  0  0  0  0
    0.6372    1.7829   -1.4255 H   0  0  0  0  0  0  0  0  0  0  0  0
   -1.0381    2.2611   -1.0410 H   0  0  0  0  0  0  0  0  0  0  0  0
    0.3288    2.5415    0.1631 H   0  0  0  0  0  0  0  0  0  0  0  0
    0.7896   -1.0948   -0.9852 H   0  0  0  0  0  0  0  0  0  0  0  0
    0.9672   -1.0836    0.7863 H   0  0  0  0  0  0  0  0  0  0  0  0
    4.2183    0.1393   -0.3381 H   0  0  0  0  0  0  0  0  0  0  0  0
  1  2  1  0
  2  3  1  0
  3  4  1  0
  4  5  1  0
  4  6  1  0
  6  7  1  0
  7  8  1  0
  8  9  2  0
  4  2  1  0
  1 10  1  0
  1 11  1  0
  1 12  1  0
  2 13  1  0
  3 14  1  0
  3 15  1  0
  5 16  1  0
  5 17  1  0
  5 18  1  0
  6 19  1  0
  6 20  1  0
  8 21  1  0
M  END
