
     RDKit          3D

 22 23  0  0  0  0  0  0  0  0999 V2000
    1.9362   -1.3262   -0.5655 C   0  0  0  0  0  0  0  0  0  0  0  0
    1.2985   -0.1026   -0.0017 C   0  0  0  0  0  0  0  0  0  0  0  0
    0.1367    0.4589   -0.8385 C   0  0  0  0  0  0  0  0  0  0  0  0
   -0.2625    1.6476   -0.0208 C   0  0  0  0  0  0  0  0  0  0  0  0
   -0.1824    1.0280    1.3914 C   0  0  0  0  0  0  0  0  0  0  0  0
    0.1664   -0.3781    1.0009 C   0  0  0  0  0  0  0  0  0  0  0  0
   -0.6758   -0.6520   -0.2244 C   0  0  0  0  0  0  0  0  0  0  0  0
   -2.1422   -0.3946   -0.0855 C   0  0  0  0  0  0  0  0  0  0  0  0
    2.9833   -1.3714   -0.1670 H   0  0  0  0  0  0  0  0  0  0  0  0
    2.0613   -1.1889   -1.6726 H   0  0  0  0  0  0  0  0  0  0  0  0
    1.4460   -2.2681   -0.3169 H   0  0  0  0  0  0  0  0  0  0  0  0
    1.9657    0.7011    0.3511 H   0  0  0  0  0  0  0  0  0  0  0  0
    0.2629    0.5195   -1.8837 H   0  0  0  0  0  0  0  0  0  0  0  0
    0.4459    2.4762   -0.1259 H   0  0  0  0  0  0  0  0  0  0  0  0
   -1.2693    2.0117   -0.2388 H   0  0  0  0  0  0  0  0  0  0  0  0
    0.6932    1.4765    1.8818 H   0  0  0  0  0  0  0  0  0  0  0  0
   -1.1085    1.1434    1.9443 H   0  0  0  0  0  0  0  0  0  0  0  0
    0.3158   -1.1300    1.7232 H   0  0  0  0  0  0  0  0  0  0  0  0
   -0.4793   -1.6121   -0.7071 H   0  0  0  0  0  0  0  0  0  0  0  0
   -2.6071   -0.2500   -1.0826 H   0  0  0  0  0  0  0  0  0  0  0  0
   -2.5818   -1.2748    0.4400 H   0  0  0  0  0  0  0  0  0  0  0  0
   -2.4030    0.4859    0.5142 H   0  0  0  0  0  0  0  0  0  0  0  0
  1  2  1  0
  2  3  1  0
  3  4  1  0
  4  5  1  0
  5  6  1  0
  6  7  1  0
  7  8  1  0
  6  2  1  0
  7  3  1  0
  1  9  1  0
  1 10  1  0
  1 11  1  0
  2 12  1  0
  3 13  1  0
  4 14  1  0
  4 15  1  0
  5 16  1  0
  5 17  1  0
  6 18  1  0
  7 19  1  0
  8 20  1  0
  8 21  1  0
  8 22  1  0
M  END
