
     RDKit          3D

 23 24  0  0  0  0  0  0  0  0999 V2000
   -1.3552    1.7085    0.4720 C   0  0  0  0  0  0  0  0  0  0  0  0
   -0.9027    0.4070   -0.0803 C   0  0  0  0  0  0  0  0  0  0  0  0
   -1.6211   -0.7904    0.4646 C   0  0  0  0  0  0  0  0  0  0  0  0
   -0.7641   -1.9334   -0.0928 C   0  0  0  0  0  0  0  0  0  0  0  0
    0.6403   -1.3675    0.0413 C   0  0  0  0  0  0  0  0  0  0  0  0
    0.9497   -0.7471    1.3458 C   0  0  0  0  0  0  0  0  0  0  0  0
    0.5368    0.0890    0.1934 C   0  0  0  0  0  0  0  0  0  0  0  0
    1.5197    1.0371   -0.4536 C   0  0  0  0  0  0  0  0  0  0  0  0
    2.8362    0.6913   -0.1640 O   0  0  0  0  0  0  0  0  0  0  0  0
   -0.6092    2.1694    1.1828 H   0  0  0  0  0  0  0  0  0  0  0  0
   -2.3746    1.6978    0.9084 H   0  0  0  0  0  0  0  0  0  0  0  0
   -1.4025    2.4528   -0.3765 H   0  0  0  0  0  0  0  0  0  0  0  0
   -1.0375    0.3839   -1.1955 H   0  0  0  0  0  0  0  0  0  0  0  0
   -2.6436   -0.8074    0.0354 H   0  0  0  0  0  0  0  0  0  0  0  0
   -1.6714   -0.8209    1.5552 H   0  0  0  0  0  0  0  0  0  0  0  0
   -0.9034   -2.8649    0.4634 H   0  0  0  0  0  0  0  0  0  0  0  0
   -1.0135   -2.0441   -1.1591 H   0  0  0  0  0  0  0  0  0  0  0  0
    1.4260   -1.7513   -0.6327 H   0  0  0  0  0  0  0  0  0  0  0  0
    2.0259   -0.6560    1.6234 H   0  0  0  0  0  0  0  0  0  0  0  0
    0.2856   -0.9525    2.1934 H   0  0  0  0  0  0  0  0  0  0  0  0
    1.4078    0.9796   -1.5582 H   0  0  0  0  0  0  0  0  0  0  0  0
    1.2714    2.0592   -0.0616 H   0  0  0  0  0  0  0  0  0  0  0  0
    3.3993    1.0599   -0.8911 H   0  0  0  0  0  0  0  0  0  0  0  0
  1  2  1  0
  2  3  1  0
  3  4  1  0
  4  5  1  0
  5  6  1  0
  6  7  1  0
  7  8  1  0
  8  9  1  0
  7  2  1  0
  7  5  1  0
  1 10  1  0
  1 11  1  0
  1 12  1  0
  2 13  1  0
  3 14  1  0
  3 15  1  0
  4 16  1  0
  4 17  1  0
  5 18  1  0
  6 19  1  0
  6 20  1  0
  8 21  1  0
  8 22  1  0
  9 23  1  0
M  END
