
     RDKit          3D

 23 24  0  0  0  0  0  0  0  0999 V2000
   -2.6170   -0.1787    0.2579 C   0  0  0  0  0  0  0  0  0  0  0  0
   -1.3026   -0.4989   -0.4143 C   0  0  0  0  0  0  0  0  0  0  0  0
   -0.6680    0.4754   -1.3140 C   0  0  0  0  0  0  0  0  0  0  0  0
   -0.0727    0.2863    0.0329 C   0  0  0  0  0  0  0  0  0  0  0  0
   -0.2761    1.4382    0.9966 C   0  0  0  0  0  0  0  0  0  0  0  0
    1.1492   -0.5412    0.2394 C   0  0  0  0  0  0  0  0  0  0  0  0
    0.9975   -1.5420    1.2175 O   0  0  0  0  0  0  0  0  0  0  0  0
    2.5112   -0.0001    0.0286 C   0  0  0  0  0  0  0  0  0  0  0  0
    1.9315   -0.9823   -0.9654 C   0  0  0  0  0  0  0  0  0  0  0  0
   -2.9063    0.8679    0.1642 H   0  0  0  0  0  0  0  0  0  0  0  0
   -2.5276   -0.5195    1.3100 H   0  0  0  0  0  0  0  0  0  0  0  0
   -3.3931   -0.7981   -0.2557 H   0  0  0  0  0  0  0  0  0  0  0  0
   -1.1790   -1.5860   -0.6237 H   0  0  0  0  0  0  0  0  0  0  0  0
   -0.2078    0.0744   -2.2281 H   0  0  0  0  0  0  0  0  0  0  0  0
   -1.2574    1.4045   -1.5064 H   0  0  0  0  0  0  0  0  0  0  0  0
    0.3981    1.4140    1.8557 H   0  0  0  0  0  0  0  0  0  0  0  0
   -0.1209    2.3723    0.3851 H   0  0  0  0  0  0  0  0  0  0  0  0
   -1.3285    1.4398    1.3365 H   0  0  0  0  0  0  0  0  0  0  0  0
    0.8167   -1.1882    2.1030 H   0  0  0  0  0  0  0  0  0  0  0  0
    3.3224   -0.4461    0.6614 H   0  0  0  0  0  0  0  0  0  0  0  0
    2.6579    1.0421   -0.2879 H   0  0  0  0  0  0  0  0  0  0  0  0
    2.3527   -1.9961   -1.0303 H   0  0  0  0  0  0  0  0  0  0  0  0
    1.7198   -0.5379   -1.9633 H   0  0  0  0  0  0  0  0  0  0  0  0
  1  2  1  0
  2  3  1  0
  3  4  1  0
  4  5  1  0
  4  6  1  0
  6  7  1  0
  6  8  1  0
  8  9  1  0
  4  2  1  0
  9  6  1  0
  1 10  1  0
  1 11  1  0
  1 12  1  0
  2 13  1  0
  3 14  1  0
  3 15  1  0
  5 16  1  0
  5 17  1  0
  5 18  1  0
  7 19  1  0
  8 20  1  0
  8 21  1  0
  9 22  1  0
  9 23  1  0
M  END
