
     RDKit          3D

 19 20  0  0  0  0  0  0  0  0999 V2000
    0.4100    1.6778   -0.3761 C   0  0  0  0  0  0  0  0  0  0  0  0
    0.1857    0.7534    0.7971 C   0  0  0  0  0  0  0  0  0  0  0  0
    0.8361   -0.6474    0.7269 C   0  0  0  0  0  0  0  0  0  0  0  0
    1.8674   -0.7605   -0.3402 C   0  0  0  0  0  0  0  0  0  0  0  0
   -0.5690   -0.4580    0.5365 C   0  0  0  0  0  0  0  0  0  0  0  0
   -1.3834   -0.7364   -0.6565 C   0  0  0  0  0  0  0  0  0  0  0  0
   -2.4944   -0.5737    0.3233 C   0  0  0  0  0  0  0  0  0  0  0  0
   -3.7071   -0.2556    0.3488 O   0  0  0  0  0  0  0  0  0  0  0  0
   -1.5961   -0.9455    1.3148 O   0  0  0  0  0  0  0  0  0  0  0  0
   -0.4652    2.3672   -0.4051 H   0  0  0  0  0  0  0  0  0  0  0  0
    1.3598    2.2516   -0.2090 H   0  0  0  0  0  0  0  0  0  0  0  0
    0.4721    1.1091   -1.3020 H   0  0  0  0  0  0  0  0  0  0  0  0
    0.2080    1.2477    1.7943 H   0  0  0  0  0  0  0  0  0  0  0  0
    1.1773   -1.0612    1.7215 H   0  0  0  0  0  0  0  0  0  0  0  0
    2.5430   -1.6344   -0.2172 H   0  0  0  0  0  0  0  0  0  0  0  0
    2.5436    0.1378   -0.2225 H   0  0  0  0  0  0  0  0  0  0  0  0
    1.4489   -0.6810   -1.3582 H   0  0  0  0  0  0  0  0  0  0  0  0
   -1.4471    0.0031   -1.4555 H   0  0  0  0  0  0  0  0  0  0  0  0
   -1.3894   -1.7939   -1.0208 H   0  0  0  0  0  0  0  0  0  0  0  0
  1  2  1  0
  2  3  1  0
  3  4  1  0
  3  5  1  0
  5  6  1  0
  6  7  1  0
  7  8  2  0
  7  9  1  0
  5  2  1  0
  9  5  1  0
  1 10  1  0
  1 11  1  0
  1 12  1  0
  2 13  1  0
  3 14  1  0
  4 15  1  0
  4 16  1  0
  4 17  1  0
  6 18  1  0
  6 19  1  0
M  END
