
     RDKit          3D

 19 19  0  0  0  0  0  0  0  0999 V2000
   -1.4662    1.6838   -1.0237 C   0  0  0  0  0  0  0  0  0  0  0  0
   -1.9370    0.4053   -0.3734 C   0  0  0  0  0  0  0  0  0  0  0  0
   -1.6261    0.3087    1.0688 C   0  0  0  0  0  0  0  0  0  0  0  0
   -0.9690   -0.6588    0.0238 C   0  0  0  0  0  0  0  0  0  0  0  0
   -1.5340   -1.9786    0.1005 O   0  0  0  0  0  0  0  0  0  0  0  0
    0.3822   -0.5402   -0.1996 C   0  0  0  0  0  0  0  0  0  0  0  0
    1.6594   -0.4491   -0.4019 C   0  0  0  0  0  0  0  0  0  0  0  0
    3.1108   -0.3342   -0.6549 C   0  0  0  0  0  0  0  0  0  0  0  0
    3.7094   -1.4421   -0.0138 O   0  0  0  0  0  0  0  0  0  0  0  0
   -0.4290    1.9009   -0.7129 H   0  0  0  0  0  0  0  0  0  0  0  0
   -1.5402    1.5716   -2.1372 H   0  0  0  0  0  0  0  0  0  0  0  0
   -2.1484    2.5337   -0.7583 H   0  0  0  0  0  0  0  0  0  0  0  0
   -2.9669    0.0490   -0.6332 H   0  0  0  0  0  0  0  0  0  0  0  0
   -2.2760   -0.1766    1.8103 H   0  0  0  0  0  0  0  0  0  0  0  0
   -0.8818    0.9703    1.5344 H   0  0  0  0  0  0  0  0  0  0  0  0
   -1.0606   -2.3797    0.8859 H   0  0  0  0  0  0  0  0  0  0  0  0
    3.3094   -0.4208   -1.7300 H   0  0  0  0  0  0  0  0  0  0  0  0
    3.4582    0.6326   -0.2524 H   0  0  0  0  0  0  0  0  0  0  0  0
    3.2056   -1.6760    0.8083 H   0  0  0  0  0  0  0  0  0  0  0  0
  1  2  1  0
  2  3  1  0
  3  4  1  0
  4  5  1  0
  4  6  1  0
  6  7  3  0
  7  8  1  0
  8  9  1  0
  4  2  1  0
  1 10  1  0
  1 11  1  0
  1 12  1  0
  2 13  1  0
  3 14  1  0
  3 15  1  0
  5 16  1  0
  8 17  1  0
  8 18  1  0
  9 19  1  0
M  END
