
     RDKit          3D

 19 20  0  0  0  0  0  0  0  0999 V2000
   -2.6514    0.6891   -0.1602 C   0  0  0  0  0  0  0  0  0  0  0  0
   -1.4424   -0.1922   -0.1525 C   0  0  0  0  0  0  0  0  0  0  0  0
   -0.6438   -0.1640    1.1613 C   0  0  0  0  0  0  0  0  0  0  0  0
    0.4486   -0.1934    0.1936 C   0  0  0  0  0  0  0  0  0  0  0  0
    1.3163   -1.3026   -0.1359 C   0  0  0  0  0  0  0  0  0  0  0  0
    1.8628   -0.0212    0.4344 C   0  0  0  0  0  0  0  0  0  0  0  0
    2.6028    0.9136   -0.4295 C   0  0  0  0  0  0  0  0  0  0  0  0
    3.5675    1.4955   -0.0029 O   0  0  0  0  0  0  0  0  0  0  0  0
   -0.3112    0.4156   -0.7428 O   0  0  0  0  0  0  0  0  0  0  0  0
   -3.4725    0.1311    0.3438 H   0  0  0  0  0  0  0  0  0  0  0  0
   -2.4952    1.6254    0.3801 H   0  0  0  0  0  0  0  0  0  0  0  0
   -2.9373    0.8596   -1.2213 H   0  0  0  0  0  0  0  0  0  0  0  0
   -1.6259   -1.2221   -0.4697 H   0  0  0  0  0  0  0  0  0  0  0  0
   -0.8225   -1.0195    1.8137 H   0  0  0  0  0  0  0  0  0  0  0  0
   -0.7773    0.8170    1.6558 H   0  0  0  0  0  0  0  0  0  0  0  0
    1.3822   -2.2441    0.4560 H   0  0  0  0  0  0  0  0  0  0  0  0
    1.4787   -1.5123   -1.2340 H   0  0  0  0  0  0  0  0  0  0  0  0
    2.2493   -0.1426    1.4699 H   0  0  0  0  0  0  0  0  0  0  0  0
    2.2712    1.0669   -1.4379 H   0  0  0  0  0  0  0  0  0  0  0  0
  1  2  1  0
  2  3  1  0
  3  4  1  0
  4  5  1  0
  5  6  1  0
  6  7  1  0
  7  8  2  0
  4  9  1  0
  9  2  1  0
  6  4  1  0
  1 10  1  0
  1 11  1  0
  1 12  1  0
  2 13  1  0
  3 14  1  0
  3 15  1  0
  5 16  1  0
  5 17  1  0
  6 18  1  0
  7 19  1  0
M  END
