
     RDKit          3D

 19 21  0  0  0  0  0  0  0  0999 V2000
    1.3579   -1.8007    0.4628 C   0  0  0  0  0  0  0  0  0  0  0  0
    0.8606   -0.3981    0.5318 C   0  0  0  0  0  0  0  0  0  0  0  0
    0.8049    0.3547   -0.7651 C   0  0  0  0  0  0  0  0  0  0  0  0
   -0.2105   -0.5061   -1.1425 O   0  0  0  0  0  0  0  0  0  0  0  0
   -0.5923   -0.1817    0.1828 C   0  0  0  0  0  0  0  0  0  0  0  0
   -1.6723   -0.7239    0.8397 C   0  0  0  0  0  0  0  0  0  0  0  0
   -0.2356    1.1955   -0.1251 C   0  0  0  0  0  0  0  0  0  0  0  0
   -0.1871    2.3765    0.5004 C   0  0  0  0  0  0  0  0  0  0  0  0
   -0.9830    2.1179   -0.7567 O   0  0  0  0  0  0  0  0  0  0  0  0
    1.2064   -2.2682    1.4564 H   0  0  0  0  0  0  0  0  0  0  0  0
    0.8134   -2.3990   -0.2706 H   0  0  0  0  0  0  0  0  0  0  0  0
    2.4529   -1.7493    0.1958 H   0  0  0  0  0  0  0  0  0  0  0  0
    1.2382    0.1806    1.3809 H   0  0  0  0  0  0  0  0  0  0  0  0
    1.5935    0.6479   -1.3238 H   0  0  0  0  0  0  0  0  0  0  0  0
   -2.4519   -1.1891    0.1662 H   0  0  0  0  0  0  0  0  0  0  0  0
   -2.2698    0.0123    1.4558 H   0  0  0  0  0  0  0  0  0  0  0  0
   -1.4410   -1.5509    1.5758 H   0  0  0  0  0  0  0  0  0  0  0  0
    0.5839    3.1790    0.3042 H   0  0  0  0  0  0  0  0  0  0  0  0
   -0.8683    2.7026    1.3297 H   0  0  0  0  0  0  0  0  0  0  0  0
  1  2  1  0
  2  3  1  0
  3  4  1  0
  4  5  1  0
  5  6  1  0
  5  7  1  0
  7  8  1  0
  8  9  1  0
  5  2  1  0
  9  7  1  0
  7  3  1  0
  1 10  1  0
  1 11  1  0
  1 12  1  0
  2 13  1  0
  3 14  1  0
  6 15  1  0
  6 16  1  0
  6 17  1  0
  8 18  1  0
  8 19  1  0
M  END
