
     RDKit          3D

 20 21  0  0  0  0  0  0  0  0999 V2000
   -0.4905   -2.1393   -0.1262 C   0  0  0  0  0  0  0  0  0  0  0  0
   -0.1967   -0.7421    0.2718 C   0  0  0  0  0  0  0  0  0  0  0  0
   -1.1894    0.2718   -0.2384 C   0  0  0  0  0  0  0  0  0  0  0  0
   -2.4098    0.2228    0.3579 O   0  0  0  0  0  0  0  0  0  0  0  0
   -0.4205    1.5625    0.0698 C   0  0  0  0  0  0  0  0  0  0  0  0
    0.9505    1.2659   -0.4558 C   0  0  0  0  0  0  0  0  0  0  0  0
    1.9659    0.5685    0.3965 C   0  0  0  0  0  0  0  0  0  0  0  0
    1.0729   -0.2417   -0.4271 C   0  0  0  0  0  0  0  0  0  0  0  0
   -0.1918   -2.8415    0.6981 H   0  0  0  0  0  0  0  0  0  0  0  0
    0.1727   -2.4185   -0.9868 H   0  0  0  0  0  0  0  0  0  0  0  0
   -1.5427   -2.3429   -0.3402 H   0  0  0  0  0  0  0  0  0  0  0  0
   -0.0818   -0.6839    1.3764 H   0  0  0  0  0  0  0  0  0  0  0  0
   -1.2688    0.1571   -1.3329 H   0  0  0  0  0  0  0  0  0  0  0  0
   -2.5436    0.8095    1.1322 H   0  0  0  0  0  0  0  0  0  0  0  0
   -0.4516    1.7664    1.1570 H   0  0  0  0  0  0  0  0  0  0  0  0
   -0.8957    2.4027   -0.4477 H   0  0  0  0  0  0  0  0  0  0  0  0
    1.3303    1.8100   -1.3580 H   0  0  0  0  0  0  0  0  0  0  0  0
    3.0304    0.7028    0.1358 H   0  0  0  0  0  0  0  0  0  0  0  0
    1.7961    0.5827    1.4988 H   0  0  0  0  0  0  0  0  0  0  0  0
    1.3639   -0.7125   -1.3812 H   0  0  0  0  0  0  0  0  0  0  0  0
  1  2  1  0
  2  3  1  0
  3  4  1  0
  3  5  1  0
  5  6  1  0
  6  7  1  0
  7  8  1  0
  8  2  1  0
  8  6  1  0
  1  9  1  0
  1 10  1  0
  1 11  1  0
  2 12  1  0
  3 13  1  0
  4 14  1  0
  5 15  1  0
  5 16  1  0
  6 17  1  0
  7 18  1  0
  7 19  1  0
  8 20  1  0
M  END
