
     RDKit          3D

 20 21  0  0  0  0  0  0  0  0999 V2000
   -2.2365    0.2241   -0.5917 C   0  0  0  0  0  0  0  0  0  0  0  0
   -0.8010    0.1086   -0.8450 C   0  0  0  0  0  0  0  0  0  0  0  0
   -0.0141   -0.9619   -0.1366 C   0  0  0  0  0  0  0  0  0  0  0  0
    1.1492   -0.1175   -0.5597 C   0  0  0  0  0  0  0  0  0  0  0  0
    2.4470   -0.2885    0.0809 C   0  0  0  0  0  0  0  0  0  0  0  0
    0.1677    0.8685    0.0143 C   0  0  0  0  0  0  0  0  0  0  0  0
   -0.0884   -0.1236    1.0931 C   0  0  0  0  0  0  0  0  0  0  0  0
   -1.3093   -0.0529    1.7338 O   0  0  0  0  0  0  0  0  0  0  0  0
   -2.7727    0.3131   -1.5642 H   0  0  0  0  0  0  0  0  0  0  0  0
   -2.7138   -0.6781   -0.1097 H   0  0  0  0  0  0  0  0  0  0  0  0
   -2.5278    1.1635   -0.0346 H   0  0  0  0  0  0  0  0  0  0  0  0
   -0.4814    0.1598   -1.9109 H   0  0  0  0  0  0  0  0  0  0  0  0
   -0.1210   -1.9527   -0.2333 H   0  0  0  0  0  0  0  0  0  0  0  0
    1.2285   -0.0039   -1.6543 H   0  0  0  0  0  0  0  0  0  0  0  0
    2.5690    0.1031    1.0991 H   0  0  0  0  0  0  0  0  0  0  0  0
    2.7077   -1.3737    0.1150 H   0  0  0  0  0  0  0  0  0  0  0  0
    3.2330    0.1853   -0.5441 H   0  0  0  0  0  0  0  0  0  0  0  0
    0.2776    1.8616    0.0776 H   0  0  0  0  0  0  0  0  0  0  0  0
    0.6971   -0.2660    1.8553 H   0  0  0  0  0  0  0  0  0  0  0  0
   -1.4107    0.8311    2.1149 H   0  0  0  0  0  0  0  0  0  0  0  0
  1  2  1  0
  2  3  1  0
  3  4  1  0
  4  5  1  0
  4  6  1  0
  6  7  1  0
  7  8  1  0
  6  2  1  0
  7  3  1  0
  1  9  1  0
  1 10  1  0
  1 11  1  0
  2 12  1  0
  3 13  1  0
  4 14  1  0
  5 15  1  0
  5 16  1  0
  5 17  1  0
  6 18  1  0
  7 19  1  0
  8 20  1  0
M  END
