
     RDKit          3D

 21 21  0  0  0  0  0  0  0  0999 V2000
   -2.6832    0.2039    0.2107 C   0  0  0  0  0  0  0  0  0  0  0  0
   -1.2627    0.0791   -0.2395 C   0  0  0  0  0  0  0  0  0  0  0  0
   -0.4993    1.3330    0.0489 C   0  0  0  0  0  0  0  0  0  0  0  0
    0.7899    1.5817   -0.1145 C   0  0  0  0  0  0  0  0  0  0  0  0
    1.7915    0.6013   -0.6497 C   0  0  0  0  0  0  0  0  0  0  0  0
    1.9063   -0.6044    0.2216 C   0  0  0  0  0  0  0  0  0  0  0  0
    0.7784   -1.5874    0.0555 C   0  0  0  0  0  0  0  0  0  0  0  0
   -0.5356   -1.0331    0.4023 C   0  0  0  0  0  0  0  0  0  0  0  0
   -1.1325   -1.5341    1.3388 O   0  0  0  0  0  0  0  0  0  0  0  0
   -2.7028    0.2769    1.2978 H   0  0  0  0  0  0  0  0  0  0  0  0
   -3.2407   -0.6700   -0.1795 H   0  0  0  0  0  0  0  0  0  0  0  0
   -3.0771    1.1659   -0.2104 H   0  0  0  0  0  0  0  0  0  0  0  0
   -1.1808   -0.0749   -1.3508 H   0  0  0  0  0  0  0  0  0  0  0  0
   -1.0568    2.1697    0.4481 H   0  0  0  0  0  0  0  0  0  0  0  0
    1.1678    2.5799    0.1597 H   0  0  0  0  0  0  0  0  0  0  0  0
    1.5270    0.2691   -1.6734 H   0  0  0  0  0  0  0  0  0  0  0  0
    2.7778    1.1041   -0.6858 H   0  0  0  0  0  0  0  0  0  0  0  0
    2.8422   -1.1475   -0.0921 H   0  0  0  0  0  0  0  0  0  0  0  0
    2.0575   -0.3374    1.2832 H   0  0  0  0  0  0  0  0  0  0  0  0
    0.9881   -2.4438    0.7201 H   0  0  0  0  0  0  0  0  0  0  0  0
    0.7450   -1.9319   -0.9909 H   0  0  0  0  0  0  0  0  0  0  0  0
  1  2  1  0
  2  3  1  0
  3  4  2  0
  4  5  1  0
  5  6  1  0
  6  7  1  0
  7  8  1  0
  8  9  2  0
  8  2  1  0
  1 10  1  0
  1 11  1  0
  1 12  1  0
  2 13  1  0
  3 14  1  0
  4 15  1  0
  5 16  1  0
  5 17  1  0
  6 18  1  0
  6 19  1  0
  7 20  1  0
  7 21  1  0
M  END
