
     RDKit          3D

 23 24  0  0  0  0  0  0  0  0999 V2000
    2.3957    0.8741   -0.2815 C   0  0  0  0  0  0  0  0  0  0  0  0
    1.0783    0.1778   -0.5144 C   0  0  0  0  0  0  0  0  0  0  0  0
    1.2288   -1.2482    0.0252 C   0  0  0  0  0  0  0  0  0  0  0  0
   -0.1941   -1.6967    0.0780 C   0  0  0  0  0  0  0  0  0  0  0  0
   -0.8727   -0.5034    0.7458 C   0  0  0  0  0  0  0  0  0  0  0  0
   -2.2240   -0.2327    0.2037 C   0  0  0  0  0  0  0  0  0  0  0  0
   -2.1929    1.1244   -0.3888 C   0  0  0  0  0  0  0  0  0  0  0  0
   -0.9674    1.5875   -0.2653 C   0  0  0  0  0  0  0  0  0  0  0  0
   -0.0203    0.6912    0.3855 C   0  0  0  0  0  0  0  0  0  0  0  0
    2.4579    1.1500    0.7940 H   0  0  0  0  0  0  0  0  0  0  0  0
    2.5433    1.7369   -0.9362 H   0  0  0  0  0  0  0  0  0  0  0  0
    3.2024    0.1218   -0.4857 H   0  0  0  0  0  0  0  0  0  0  0  0
    0.7927    0.1408   -1.5663 H   0  0  0  0  0  0  0  0  0  0  0  0
    1.6084   -1.1342    1.0600 H   0  0  0  0  0  0  0  0  0  0  0  0
    1.8742   -1.8057   -0.6452 H   0  0  0  0  0  0  0  0  0  0  0  0
   -0.3279   -2.6022    0.6978 H   0  0  0  0  0  0  0  0  0  0  0  0
   -0.5926   -1.8368   -0.9432 H   0  0  0  0  0  0  0  0  0  0  0  0
   -0.8525   -0.7146    1.8368 H   0  0  0  0  0  0  0  0  0  0  0  0
   -2.5222   -0.9495   -0.5931 H   0  0  0  0  0  0  0  0  0  0  0  0
   -3.0358   -0.2809    0.9788 H   0  0  0  0  0  0  0  0  0  0  0  0
   -3.0638    1.6373   -0.8492 H   0  0  0  0  0  0  0  0  0  0  0  0
   -0.6931    2.5908   -0.6360 H   0  0  0  0  0  0  0  0  0  0  0  0
    0.3774    1.1724    1.2996 H   0  0  0  0  0  0  0  0  0  0  0  0
  1  2  1  0
  2  3  1  0
  3  4  1  0
  4  5  1  0
  5  6  1  0
  6  7  1  0
  7  8  2  0
  8  9  1  0
  9  2  1  0
  9  5  1  0
  1 10  1  0
  1 11  1  0
  1 12  1  0
  2 13  1  0
  3 14  1  0
  3 15  1  0
  4 16  1  0
  4 17  1  0
  5 18  1  0
  6 19  1  0
  6 20  1  0
  7 21  1  0
  8 22  1  0
  9 23  1  0
M  END
