
     RDKit          3D

 18 19  0  0  0  0  0  0  0  0999 V2000
   -1.2680   -1.4907    0.0178 C   0  0  0  0  0  0  0  0  0  0  0  0
   -0.0917   -0.6931    0.5598 C   0  0  0  0  0  0  0  0  0  0  0  0
    0.9733   -0.2488   -0.3547 C   0  0  0  0  0  0  0  0  0  0  0  0
    1.0165   -0.8262   -1.5955 O   0  0  0  0  0  0  0  0  0  0  0  0
    1.8840    0.8652    0.0353 C   0  0  0  0  0  0  0  0  0  0  0  0
    0.8551    1.5703    0.6765 O   0  0  0  0  0  0  0  0  0  0  0  0
   -0.0419    0.7141    0.0716 C   0  0  0  0  0  0  0  0  0  0  0  0
   -1.0893    1.2695   -0.8380 C   0  0  0  0  0  0  0  0  0  0  0  0
   -1.1509   -2.5696    0.1958 H   0  0  0  0  0  0  0  0  0  0  0  0
   -1.3084   -1.2572   -1.0789 H   0  0  0  0  0  0  0  0  0  0  0  0
   -2.2172   -1.1055    0.4939 H   0  0  0  0  0  0  0  0  0  0  0  0
    0.2444   -0.9540    1.5913 H   0  0  0  0  0  0  0  0  0  0  0  0
    1.4148   -1.7446   -1.4768 H   0  0  0  0  0  0  0  0  0  0  0  0
    2.6425    0.5621    0.7812 H   0  0  0  0  0  0  0  0  0  0  0  0
    2.2808    1.5004   -0.7882 H   0  0  0  0  0  0  0  0  0  0  0  0
   -1.3651    2.2797   -0.4199 H   0  0  0  0  0  0  0  0  0  0  0  0
   -0.7412    1.4355   -1.8709 H   0  0  0  0  0  0  0  0  0  0  0  0
   -2.0377    0.6931   -0.8417 H   0  0  0  0  0  0  0  0  0  0  0  0
  1  2  1  0
  2  3  1  0
  3  4  1  0
  3  5  1  0
  5  6  1  0
  6  7  1  0
  7  8  1  0
  7  2  1  0
  7  3  1  0
  1  9  1  0
  1 10  1  0
  1 11  1  0
  2 12  1  0
  4 13  1  0
  5 14  1  0
  5 15  1  0
  8 16  1  0
  8 17  1  0
  8 18  1  0
M  END
