
     RDKit          3D

 21 22  0  0  0  0  0  0  0  0999 V2000
    2.1768   -0.5347    1.0532 C   0  0  0  0  0  0  0  0  0  0  0  0
    1.7418    0.7659    0.4464 C   0  0  0  0  0  0  0  0  0  0  0  0
    1.6575    0.8245   -1.0380 C   0  0  0  0  0  0  0  0  0  0  0  0
    2.0500    1.9778   -1.6764 O   0  0  0  0  0  0  0  0  0  0  0  0
    0.3570    0.8249   -0.2297 C   0  0  0  0  0  0  0  0  0  0  0  0
   -0.3519   -0.3308   -0.1084 O   0  0  0  0  0  0  0  0  0  0  0  0
   -1.7208   -0.1754   -0.0050 C   0  0  0  0  0  0  0  0  0  0  0  0
   -2.6290   -1.1081   -0.7789 C   0  0  0  0  0  0  0  0  0  0  0  0
   -2.5788   -1.1065    0.7375 C   0  0  0  0  0  0  0  0  0  0  0  0
    3.1537   -0.8616    0.6492 H   0  0  0  0  0  0  0  0  0  0  0  0
    1.4281   -1.3079    0.7214 H   0  0  0  0  0  0  0  0  0  0  0  0
    2.1745   -0.4840    2.1678 H   0  0  0  0  0  0  0  0  0  0  0  0
    2.0045    1.6542    1.0503 H   0  0  0  0  0  0  0  0  0  0  0  0
    1.8731   -0.1063   -1.6008 H   0  0  0  0  0  0  0  0  0  0  0  0
    2.2367    2.6783   -0.9807 H   0  0  0  0  0  0  0  0  0  0  0  0
   -0.1413    1.8153   -0.2432 H   0  0  0  0  0  0  0  0  0  0  0  0
   -2.0413    0.8871   -0.0370 H   0  0  0  0  0  0  0  0  0  0  0  0
   -3.5381   -0.7079   -1.2658 H   0  0  0  0  0  0  0  0  0  0  0  0
   -2.1861   -1.9679   -1.3208 H   0  0  0  0  0  0  0  0  0  0  0  0
   -3.4445   -0.6815    1.2948 H   0  0  0  0  0  0  0  0  0  0  0  0
   -2.2218   -2.0553    1.1642 H   0  0  0  0  0  0  0  0  0  0  0  0
  1  2  1  0
  2  3  1  0
  3  4  1  0
  3  5  1  0
  5  6  1  0
  6  7  1  0
  7  8  1  0
  8  9  1  0
  5  2  1  0
  9  7  1  0
  1 10  1  0
  1 11  1  0
  1 12  1  0
  2 13  1  0
  3 14  1  0
  4 15  1  0
  5 16  1  0
  7 17  1  0
  8 18  1  0
  8 19  1  0
  9 20  1  0
  9 21  1  0
M  END
