
     RDKit          3D

 18 18  0  0  0  0  0  0  0  0999 V2000
   -1.6753   -0.8700    0.4169 C   0  0  0  0  0  0  0  0  0  0  0  0
   -0.8586    0.1157   -0.3831 C   0  0  0  0  0  0  0  0  0  0  0  0
   -0.5103    1.3255    0.3773 C   0  0  0  0  0  0  0  0  0  0  0  0
    0.6741    1.7449   -0.0020 C   0  0  0  0  0  0  0  0  0  0  0  0
    1.2120    0.8532   -1.0403 C   0  0  0  0  0  0  0  0  0  0  0  0
    2.0303    1.0514   -1.9364 O   0  0  0  0  0  0  0  0  0  0  0  0
    0.4946   -0.4393   -0.7463 C   0  0  0  0  0  0  0  0  0  0  0  0
    1.1206   -1.0042    0.4930 C   0  0  0  0  0  0  0  0  0  0  0  0
   -1.2500   -0.9465    1.4198 H   0  0  0  0  0  0  0  0  0  0  0  0
   -2.7268   -0.4990    0.4038 H   0  0  0  0  0  0  0  0  0  0  0  0
   -1.5915   -1.8655   -0.0868 H   0  0  0  0  0  0  0  0  0  0  0  0
   -1.4266    0.4562   -1.2874 H   0  0  0  0  0  0  0  0  0  0  0  0
   -1.1344    1.8004    1.1358 H   0  0  0  0  0  0  0  0  0  0  0  0
    1.1850    2.6161    0.3843 H   0  0  0  0  0  0  0  0  0  0  0  0
    0.4921   -1.1154   -1.5962 H   0  0  0  0  0  0  0  0  0  0  0  0
    2.2099   -1.2077    0.2814 H   0  0  0  0  0  0  0  0  0  0  0  0
    0.5984   -1.8546    0.9228 H   0  0  0  0  0  0  0  0  0  0  0  0
    1.1566   -0.1612    1.2432 H   0  0  0  0  0  0  0  0  0  0  0  0
  1  2  1  0
  2  3  1  0
  3  4  2  0
  4  5  1  0
  5  6  2  0
  5  7  1  0
  7  8  1  0
  7  2  1  0
  1  9  1  0
  1 10  1  0
  1 11  1  0
  2 12  1  0
  3 13  1  0
  4 14  1  0
  7 15  1  0
  8 16  1  0
  8 17  1  0
  8 18  1  0
M  END
