
     RDKit          3D

 25 26  0  0  0  0  0  0  0  0999 V2000
    2.9655    0.2019   -0.3186 C   0  0  0  0  0  0  0  0  0  0  0  0
    1.7524   -0.5731    0.0723 C   0  0  0  0  0  0  0  0  0  0  0  0
    0.8921    0.2082    1.0912 C   0  0  0  0  0  0  0  0  0  0  0  0
   -0.4329   -0.3070    0.6671 C   0  0  0  0  0  0  0  0  0  0  0  0
   -0.2312    0.2153   -0.8145 C   0  0  0  0  0  0  0  0  0  0  0  0
    0.8185   -0.7666   -1.1426 C   0  0  0  0  0  0  0  0  0  0  0  0
   -1.4719    0.1545   -0.1552 C   0  0  0  0  0  0  0  0  0  0  0  0
   -2.4732   -0.8415   -0.7650 C   0  0  0  0  0  0  0  0  0  0  0  0
   -2.1907    1.4326    0.2509 C   0  0  0  0  0  0  0  0  0  0  0  0
    2.9028    1.2508   -0.0065 H   0  0  0  0  0  0  0  0  0  0  0  0
    3.0487    0.1678   -1.4352 H   0  0  0  0  0  0  0  0  0  0  0  0
    3.8701   -0.3261    0.0634 H   0  0  0  0  0  0  0  0  0  0  0  0
    1.9478   -1.5521    0.5168 H   0  0  0  0  0  0  0  0  0  0  0  0
    1.0545    1.2773    0.8571 H   0  0  0  0  0  0  0  0  0  0  0  0
    1.1820   -0.0340    2.1171 H   0  0  0  0  0  0  0  0  0  0  0  0
   -0.4004   -1.4382    0.7816 H   0  0  0  0  0  0  0  0  0  0  0  0
    0.1974    1.2610   -0.9017 H   0  0  0  0  0  0  0  0  0  0  0  0
    1.3473   -0.4977   -2.0752 H   0  0  0  0  0  0  0  0  0  0  0  0
    0.4177   -1.7891   -1.1513 H   0  0  0  0  0  0  0  0  0  0  0  0
   -2.0912   -1.8587   -0.5327 H   0  0  0  0  0  0  0  0  0  0  0  0
   -3.4851   -0.6855   -0.4039 H   0  0  0  0  0  0  0  0  0  0  0  0
   -2.4596   -0.7136   -1.8847 H   0  0  0  0  0  0  0  0  0  0  0  0
   -1.6228    1.9382    1.0742 H   0  0  0  0  0  0  0  0  0  0  0  0
   -2.3631    2.1079   -0.5885 H   0  0  0  0  0  0  0  0  0  0  0  0
   -3.1750    1.1677    0.6850 H   0  0  0  0  0  0  0  0  0  0  0  0
  1  2  1  0
  2  3  1  0
  3  4  1  0
  4  5  1  0
  5  6  1  0
  5  7  1  0
  7  8  1  0
  7  9  1  0
  6  2  1  0
  7  4  1  0
  1 10  1  0
  1 11  1  0
  1 12  1  0
  2 13  1  0
  3 14  1  0
  3 15  1  0
  4 16  1  0
  5 17  1  0
  6 18  1  0
  6 19  1  0
  8 20  1  0
  8 21  1  0
  8 22  1  0
  9 23  1  0
  9 24  1  0
  9 25  1  0
M  END
