
     RDKit          3D

 18 18  0  0  0  0  0  0  0  0999 V2000
   -1.8944    0.2031    0.1158 C   0  0  0  0  0  0  0  0  0  0  0  0
   -0.6983    0.1099   -0.7401 C   0  0  0  0  0  0  0  0  0  0  0  0
   -0.3126   -1.2280   -1.2389 C   0  0  0  0  0  0  0  0  0  0  0  0
   -0.8507   -2.3215   -1.5407 O   0  0  0  0  0  0  0  0  0  0  0  0
    1.0110   -0.7550   -1.2435 O   0  0  0  0  0  0  0  0  0  0  0  0
    0.6386    0.0247   -0.0991 C   0  0  0  0  0  0  0  0  0  0  0  0
    1.4034    1.3153   -0.0340 C   0  0  0  0  0  0  0  0  0  0  0  0
    0.7721   -0.8060    1.1341 C   0  0  0  0  0  0  0  0  0  0  0  0
   -1.7694   -0.1620    1.1523 H   0  0  0  0  0  0  0  0  0  0  0  0
   -2.2429    1.2743    0.1177 H   0  0  0  0  0  0  0  0  0  0  0  0
   -2.7453   -0.3527   -0.3731 H   0  0  0  0  0  0  0  0  0  0  0  0
   -0.7089    0.8420   -1.5569 H   0  0  0  0  0  0  0  0  0  0  0  0
    2.4924    1.1495    0.0975 H   0  0  0  0  0  0  0  0  0  0  0  0
    1.2593    1.8434   -1.0035 H   0  0  0  0  0  0  0  0  0  0  0  0
    1.0094    1.9299    0.7984 H   0  0  0  0  0  0  0  0  0  0  0  0
    1.8011   -0.6092    1.5501 H   0  0  0  0  0  0  0  0  0  0  0  0
    0.7624   -1.9047    0.9226 H   0  0  0  0  0  0  0  0  0  0  0  0
    0.0727   -0.5530    1.9413 H   0  0  0  0  0  0  0  0  0  0  0  0
  1  2  1  0
  2  3  1  0
  3  4  2  0
  3  5  1  0
  5  6  1  0
  6  7  1  0
  6  8  1  0
  6  2  1  0
  1  9  1  0
  1 10  1  0
  1 11  1  0
  2 12  1  0
  7 13  1  0
  7 14  1  0
  7 15  1  0
  8 16  1  0
  8 17  1  0
  8 18  1  0
M  END
