
     RDKit          3D

 21 21  0  0  0  0  0  0  0  0999 V2000
   -1.0579   -1.5972    0.3943 C   0  0  0  0  0  0  0  0  0  0  0  0
   -0.7343   -0.4684   -0.5460 C   0  0  0  0  0  0  0  0  0  0  0  0
   -1.6089    0.7230   -0.1544 C   0  0  0  0  0  0  0  0  0  0  0  0
   -0.7632    1.8869   -0.4988 C   0  0  0  0  0  0  0  0  0  0  0  0
    0.4923    1.5126   -0.6294 C   0  0  0  0  0  0  0  0  0  0  0  0
    0.6469    0.0626   -0.3913 C   0  0  0  0  0  0  0  0  0  0  0  0
    1.5405   -0.4259   -1.3365 O   0  0  0  0  0  0  0  0  0  0  0  0
    1.2063   -0.1151    1.0015 C   0  0  0  0  0  0  0  0  0  0  0  0
    2.4059    0.5939    1.0691 O   0  0  0  0  0  0  0  0  0  0  0  0
   -2.0085   -2.0654    0.0662 H   0  0  0  0  0  0  0  0  0  0  0  0
   -1.2334   -1.2479    1.4433 H   0  0  0  0  0  0  0  0  0  0  0  0
   -0.2416   -2.3551    0.4385 H   0  0  0  0  0  0  0  0  0  0  0  0
   -0.9115   -0.8010   -1.5720 H   0  0  0  0  0  0  0  0  0  0  0  0
   -1.8962    0.6779    0.9056 H   0  0  0  0  0  0  0  0  0  0  0  0
   -2.4749    0.7236   -0.8531 H   0  0  0  0  0  0  0  0  0  0  0  0
   -1.1241    2.9406   -0.6328 H   0  0  0  0  0  0  0  0  0  0  0  0
    1.3269    2.2127   -0.8881 H   0  0  0  0  0  0  0  0  0  0  0  0
    1.4571   -1.3759   -1.5201 H   0  0  0  0  0  0  0  0  0  0  0  0
    0.5098    0.3302    1.7199 H   0  0  0  0  0  0  0  0  0  0  0  0
    1.3607   -1.1956    1.2469 H   0  0  0  0  0  0  0  0  0  0  0  0
    3.1083   -0.0165    0.7372 H   0  0  0  0  0  0  0  0  0  0  0  0
  1  2  1  0
  2  3  1  0
  3  4  1  0
  4  5  2  0
  5  6  1  0
  6  7  1  0
  6  8  1  0
  8  9  1  0
  6  2  1  0
  1 10  1  0
  1 11  1  0
  1 12  1  0
  2 13  1  0
  3 14  1  0
  3 15  1  0
  4 16  1  0
  5 17  1  0
  7 18  1  0
  8 19  1  0
  8 20  1  0
  9 21  1  0
M  END
