
     RDKit          3D

 17 18  0  0  0  0  0  0  0  0999 V2000
   -2.0249   -0.3838   -0.2782 C   0  0  0  0  0  0  0  0  0  0  0  0
   -0.8873    0.4527    0.3183 C   0  0  0  0  0  0  0  0  0  0  0  0
   -0.3056    1.2196   -0.8115 C   0  0  0  0  0  0  0  0  0  0  0  0
   -0.4168    2.4537   -1.0617 O   0  0  0  0  0  0  0  0  0  0  0  0
    0.3927    0.2663   -1.5353 O   0  0  0  0  0  0  0  0  0  0  0  0
    0.9819   -0.6082   -0.5967 C   0  0  0  0  0  0  0  0  0  0  0  0
    2.1330    0.0455    0.1293 C   0  0  0  0  0  0  0  0  0  0  0  0
    1.3067    0.2564    1.2535 O   0  0  0  0  0  0  0  0  0  0  0  0
    0.2560   -0.4505    0.6977 C   0  0  0  0  0  0  0  0  0  0  0  0
   -1.5747   -0.8364   -1.2105 H   0  0  0  0  0  0  0  0  0  0  0  0
   -2.7933    0.3456   -0.5915 H   0  0  0  0  0  0  0  0  0  0  0  0
   -2.3826   -1.1488    0.4223 H   0  0  0  0  0  0  0  0  0  0  0  0
   -1.2418    1.0863    1.1408 H   0  0  0  0  0  0  0  0  0  0  0  0
    1.1563   -1.6412   -0.9456 H   0  0  0  0  0  0  0  0  0  0  0  0
    2.4548    0.9733   -0.3600 H   0  0  0  0  0  0  0  0  0  0  0  0
    2.9702   -0.6550    0.3483 H   0  0  0  0  0  0  0  0  0  0  0  0
   -0.0248   -1.3754    1.2309 H   0  0  0  0  0  0  0  0  0  0  0  0
  1  2  1  0
  2  3  1  0
  3  4  2  0
  3  5  1  0
  5  6  1  0
  6  7  1  0
  7  8  1  0
  8  9  1  0
  9  2  1  0
  9  6  1  0
  1 10  1  0
  1 11  1  0
  1 12  1  0
  2 13  1  0
  6 14  1  0
  7 15  1  0
  7 16  1  0
  9 17  1  0
M  END
