
     RDKit          3D

 23 25  0  0  0  0  0  0  0  0999 V2000
    1.9794    0.4924   -0.0168 C   0  0  0  0  0  0  0  0  0  0  0  0
    0.8179   -0.0045    0.8207 C   0  0  0  0  0  0  0  0  0  0  0  0
    0.0324    1.2286    1.2511 C   0  0  0  0  0  0  0  0  0  0  0  0
   -0.7674    1.5621   -0.0186 C   0  0  0  0  0  0  0  0  0  0  0  0
   -1.8215    0.5600   -0.2968 C   0  0  0  0  0  0  0  0  0  0  0  0
   -1.5692   -0.7807    0.3710 C   0  0  0  0  0  0  0  0  0  0  0  0
   -0.1466   -0.6959   -0.1201 C   0  0  0  0  0  0  0  0  0  0  0  0
    0.3576   -1.9050   -0.8180 C   0  0  0  0  0  0  0  0  0  0  0  0
   -0.5514    0.4733   -0.9716 C   0  0  0  0  0  0  0  0  0  0  0  0
    1.9809    1.5920   -0.1370 H   0  0  0  0  0  0  0  0  0  0  0  0
    1.9439    0.0809   -1.0615 H   0  0  0  0  0  0  0  0  0  0  0  0
    2.9694    0.2292    0.4536 H   0  0  0  0  0  0  0  0  0  0  0  0
    1.1277   -0.6250    1.6617 H   0  0  0  0  0  0  0  0  0  0  0  0
   -0.7078    0.9297    2.0188 H   0  0  0  0  0  0  0  0  0  0  0  0
    0.6974    2.0388    1.5452 H   0  0  0  0  0  0  0  0  0  0  0  0
   -0.8070    2.5945   -0.3566 H   0  0  0  0  0  0  0  0  0  0  0  0
   -2.7645    0.7784   -0.7772 H   0  0  0  0  0  0  0  0  0  0  0  0
   -1.7131   -0.7867    1.4598 H   0  0  0  0  0  0  0  0  0  0  0  0
   -2.1485   -1.5842   -0.0989 H   0  0  0  0  0  0  0  0  0  0  0  0
    1.4383   -1.8918   -0.9458 H   0  0  0  0  0  0  0  0  0  0  0  0
   -0.1564   -2.0507   -1.7958 H   0  0  0  0  0  0  0  0  0  0  0  0
    0.1328   -2.7922   -0.1554 H   0  0  0  0  0  0  0  0  0  0  0  0
   -0.3242    0.5569   -2.0118 H   0  0  0  0  0  0  0  0  0  0  0  0
  1  2  1  0
  2  3  1  0
  3  4  1  0
  4  5  1  0
  5  6  1  0
  6  7  1  0
  7  8  1  0
  7  9  1  0
  7  2  1  0
  9  4  1  0
  9  5  1  0
  1 10  1  0
  1 11  1  0
  1 12  1  0
  2 13  1  0
  3 14  1  0
  3 15  1  0
  4 16  1  0
  5 17  1  0
  6 18  1  0
  6 19  1  0
  8 20  1  0
  8 21  1  0
  8 22  1  0
  9 23  1  0
M  END
