
     RDKit          3D

 19 21  0  0  0  0  0  0  0  0999 V2000
    1.7002   -0.9620    0.4377 C   0  0  0  0  0  0  0  0  0  0  0  0
    0.9826   -0.2094   -0.6773 C   0  0  0  0  0  0  0  0  0  0  0  0
   -0.4448   -0.7090   -0.7700 C   0  0  0  0  0  0  0  0  0  0  0  0
   -0.7987   -1.5244    0.2923 O   0  0  0  0  0  0  0  0  0  0  0  0
   -1.7188   -0.5978    0.7803 C   0  0  0  0  0  0  0  0  0  0  0  0
   -1.3196    0.3926   -0.2659 C   0  0  0  0  0  0  0  0  0  0  0  0
   -0.4898    1.5414    0.1336 C   0  0  0  0  0  0  0  0  0  0  0  0
    0.5504    1.4713    1.0095 O   0  0  0  0  0  0  0  0  0  0  0  0
    0.8786    1.2406   -0.3430 C   0  0  0  0  0  0  0  0  0  0  0  0
    0.9972   -1.5290    1.0750 H   0  0  0  0  0  0  0  0  0  0  0  0
    2.2241   -0.1912    1.0697 H   0  0  0  0  0  0  0  0  0  0  0  0
    2.5153   -1.6050    0.0420 H   0  0  0  0  0  0  0  0  0  0  0  0
    1.5528   -0.4011   -1.6035 H   0  0  0  0  0  0  0  0  0  0  0  0
   -0.7642   -1.0416   -1.7727 H   0  0  0  0  0  0  0  0  0  0  0  0
   -1.4374   -0.2089    1.7914 H   0  0  0  0  0  0  0  0  0  0  0  0
   -2.7674   -0.9249    0.6907 H   0  0  0  0  0  0  0  0  0  0  0  0
   -2.1280    0.6822   -0.9549 H   0  0  0  0  0  0  0  0  0  0  0  0
   -0.9081    2.5590   -0.0145 H   0  0  0  0  0  0  0  0  0  0  0  0
    1.3758    2.0173   -0.9202 H   0  0  0  0  0  0  0  0  0  0  0  0
  1  2  1  0
  2  3  1  0
  3  4  1  0
  4  5  1  0
  5  6  1  0
  6  7  1  0
  7  8  1  0
  8  9  1  0
  9  2  1  0
  6  3  1  0
  9  7  1  0
  1 10  1  0
  1 11  1  0
  1 12  1  0
  2 13  1  0
  3 14  1  0
  5 15  1  0
  5 16  1  0
  6 17  1  0
  7 18  1  0
  9 19  1  0
M  END
