
     RDKit          3D

 18 19  0  0  0  0  0  0  0  0999 V2000
    2.2661   -0.0542    0.6881 C   0  0  0  0  0  0  0  0  0  0  0  0
    1.2089   -0.4532   -0.3604 C   0  0  0  0  0  0  0  0  0  0  0  0
    0.2326    0.5429   -0.6145 C   0  0  0  0  0  0  0  0  0  0  0  0
   -1.0539    0.8362    0.1238 C   0  0  0  0  0  0  0  0  0  0  0  0
   -1.7424    1.9233   -0.3657 O   0  0  0  0  0  0  0  0  0  0  0  0
   -1.4348   -0.4672   -0.6144 C   0  0  0  0  0  0  0  0  0  0  0  0
   -0.1009   -0.8933   -0.0274 C   0  0  0  0  0  0  0  0  0  0  0  0
   -0.2757   -0.9386    1.3828 O   0  0  0  0  0  0  0  0  0  0  0  0
    2.9542   -0.8651    0.9046 H   0  0  0  0  0  0  0  0  0  0  0  0
    1.8007    0.4305    1.5522 H   0  0  0  0  0  0  0  0  0  0  0  0
    2.8612    0.7550    0.1697 H   0  0  0  0  0  0  0  0  0  0  0  0
    1.7276   -1.0121   -1.1967 H   0  0  0  0  0  0  0  0  0  0  0  0
   -0.0244    0.6410   -1.7212 H   0  0  0  0  0  0  0  0  0  0  0  0
   -1.0566    0.7952    1.2010 H   0  0  0  0  0  0  0  0  0  0  0  0
   -2.6096    1.6073   -0.7503 H   0  0  0  0  0  0  0  0  0  0  0  0
   -1.4438   -0.2493   -1.6853 H   0  0  0  0  0  0  0  0  0  0  0  0
   -2.2762   -1.0001   -0.1892 H   0  0  0  0  0  0  0  0  0  0  0  0
   -1.0329   -1.5984    1.5031 H   0  0  0  0  0  0  0  0  0  0  0  0
  1  2  1  0
  2  3  1  0
  3  4  1  0
  4  5  1  0
  4  6  1  0
  6  7  1  0
  7  8  1  0
  7  2  1  0
  7  3  1  0
  1  9  1  0
  1 10  1  0
  1 11  1  0
  2 12  1  0
  3 13  1  0
  4 14  1  0
  5 15  1  0
  6 16  1  0
  6 17  1  0
  8 18  1  0
M  END
