
     RDKit          3D

 21 22  0  0  0  0  0  0  0  0999 V2000
    1.6765   -0.8774   -0.7042 C   0  0  0  0  0  0  0  0  0  0  0  0
    0.7897   -0.3573    0.3812 C   0  0  0  0  0  0  0  0  0  0  0  0
    1.3193    0.9945    0.8791 C   0  0  0  0  0  0  0  0  0  0  0  0
    0.7645    1.9365    0.0172 O   0  0  0  0  0  0  0  0  0  0  0  0
   -0.5063    1.4877   -0.3172 C   0  0  0  0  0  0  0  0  0  0  0  0
   -0.5771    0.0304   -0.0608 C   0  0  0  0  0  0  0  0  0  0  0  0
   -1.3102   -0.8418   -0.9841 C   0  0  0  0  0  0  0  0  0  0  0  0
   -1.7299   -1.6167    0.1124 O   0  0  0  0  0  0  0  0  0  0  0  0
   -1.6317   -0.4533    0.8820 C   0  0  0  0  0  0  0  0  0  0  0  0
    2.7226   -0.5571   -0.4546 H   0  0  0  0  0  0  0  0  0  0  0  0
    1.3849   -0.4721   -1.6829 H   0  0  0  0  0  0  0  0  0  0  0  0
    1.7068   -1.9916   -0.6773 H   0  0  0  0  0  0  0  0  0  0  0  0
    0.7794   -1.1096    1.1970 H   0  0  0  0  0  0  0  0  0  0  0  0
    2.4185    1.0462    0.8219 H   0  0  0  0  0  0  0  0  0  0  0  0
    0.9511    1.1052    1.9269 H   0  0  0  0  0  0  0  0  0  0  0  0
   -0.8297    1.8039   -1.3294 H   0  0  0  0  0  0  0  0  0  0  0  0
   -1.2098    2.0187    0.3875 H   0  0  0  0  0  0  0  0  0  0  0  0
   -2.1960   -0.3493   -1.4183 H   0  0  0  0  0  0  0  0  0  0  0  0
   -0.7630   -1.3920   -1.7626 H   0  0  0  0  0  0  0  0  0  0  0  0
   -2.5352    0.1749    0.8937 H   0  0  0  0  0  0  0  0  0  0  0  0
   -1.2244   -0.5797    1.8927 H   0  0  0  0  0  0  0  0  0  0  0  0
  1  2  1  0
  2  3  1  0
  3  4  1  0
  4  5  1  0
  5  6  1  0
  6  7  1  0
  7  8  1  0
  8  9  1  0
  6  2  1  0
  9  6  1  0
  1 10  1  0
  1 11  1  0
  1 12  1  0
  2 13  1  0
  3 14  1  0
  3 15  1  0
  5 16  1  0
  5 17  1  0
  7 18  1  0
  7 19  1  0
  9 20  1  0
  9 21  1  0
M  END
