
     RDKit          3D

 21 23  0  0  0  0  0  0  0  0999 V2000
    1.8193   -1.4185   -0.5392 C   0  0  0  0  0  0  0  0  0  0  0  0
    1.0947   -0.5131    0.3970 C   0  0  0  0  0  0  0  0  0  0  0  0
    1.7154    0.8932    0.3255 C   0  0  0  0  0  0  0  0  0  0  0  0
    0.3017    1.4118    0.5842 C   0  0  0  0  0  0  0  0  0  0  0  0
   -0.1683    0.0896   -0.0124 C   0  0  0  0  0  0  0  0  0  0  0  0
   -0.5633    0.1136   -1.3014 O   0  0  0  0  0  0  0  0  0  0  0  0
   -1.8673   -0.1597   -0.9988 C   0  0  0  0  0  0  0  0  0  0  0  0
   -2.6284    0.5123    0.0628 C   0  0  0  0  0  0  0  0  0  0  0  0
   -1.4643   -0.4031    0.4596 C   0  0  0  0  0  0  0  0  0  0  0  0
    2.3498   -2.1898    0.0894 H   0  0  0  0  0  0  0  0  0  0  0  0
    1.1711   -1.9393   -1.2598 H   0  0  0  0  0  0  0  0  0  0  0  0
    2.6418   -0.9091   -1.1040 H   0  0  0  0  0  0  0  0  0  0  0  0
    1.0956   -0.8145    1.4690 H   0  0  0  0  0  0  0  0  0  0  0  0
    1.9915    1.1613   -0.7156 H   0  0  0  0  0  0  0  0  0  0  0  0
    2.4483    1.1114    1.0921 H   0  0  0  0  0  0  0  0  0  0  0  0
    0.0767    1.4181    1.6808 H   0  0  0  0  0  0  0  0  0  0  0  0
    0.0106    2.2921    0.0184 H   0  0  0  0  0  0  0  0  0  0  0  0
   -2.3491   -0.9658   -1.5594 H   0  0  0  0  0  0  0  0  0  0  0  0
   -2.3828    1.5945    0.2349 H   0  0  0  0  0  0  0  0  0  0  0  0
   -3.6222    0.1335    0.2867 H   0  0  0  0  0  0  0  0  0  0  0  0
   -1.6707   -1.4186    0.7901 H   0  0  0  0  0  0  0  0  0  0  0  0
  1  2  1  0
  2  3  1  0
  3  4  1  0
  4  5  1  0
  5  6  1  0
  6  7  1  0
  7  8  1  0
  8  9  1  0
  5  2  1  0
  9  7  1  0
  9  5  1  0
  1 10  1  0
  1 11  1  0
  1 12  1  0
  2 13  1  0
  3 14  1  0
  3 15  1  0
  4 16  1  0
  4 17  1  0
  7 18  1  0
  8 19  1  0
  8 20  1  0
  9 21  1  0
M  END
