
     RDKit          3D

 21 21  0  0  0  0  0  0  0  0999 V2000
   -2.2105    0.2735    0.2496 C   0  0  0  0  0  0  0  0  0  0  0  0
   -0.7851    0.1320    0.7093 C   0  0  0  0  0  0  0  0  0  0  0  0
   -0.1708   -1.2091    0.3612 C   0  0  0  0  0  0  0  0  0  0  0  0
    1.1228   -0.4605    0.0927 C   0  0  0  0  0  0  0  0  0  0  0  0
    1.8346   -0.8919   -0.9975 O   0  0  0  0  0  0  0  0  0  0  0  0
    1.9022   -0.3144    1.3510 C   0  0  0  0  0  0  0  0  0  0  0  0
    3.0885   -0.5807    1.3278 O   0  0  0  0  0  0  0  0  0  0  0  0
    0.2518    0.7735   -0.1775 C   0  0  0  0  0  0  0  0  0  0  0  0
   -0.1390    0.8961   -1.6263 C   0  0  0  0  0  0  0  0  0  0  0  0
   -2.4592    1.2727   -0.1257 H   0  0  0  0  0  0  0  0  0  0  0  0
   -2.8690   -0.0122    1.0972 H   0  0  0  0  0  0  0  0  0  0  0  0
   -2.3804   -0.4843   -0.5461 H   0  0  0  0  0  0  0  0  0  0  0  0
   -0.5940    0.3636    1.7697 H   0  0  0  0  0  0  0  0  0  0  0  0
   -0.1563   -1.8969    1.2114 H   0  0  0  0  0  0  0  0  0  0  0  0
   -0.6463   -1.6339   -0.5448 H   0  0  0  0  0  0  0  0  0  0  0  0
    2.8048   -0.8137   -0.7612 H   0  0  0  0  0  0  0  0  0  0  0  0
    1.4451    0.0177    2.2703 H   0  0  0  0  0  0  0  0  0  0  0  0
    0.6508    1.6958    0.2483 H   0  0  0  0  0  0  0  0  0  0  0  0
    0.7469    1.2012   -2.2099 H   0  0  0  0  0  0  0  0  0  0  0  0
   -0.8856    1.7146   -1.6970 H   0  0  0  0  0  0  0  0  0  0  0  0
   -0.5515   -0.0432   -2.0026 H   0  0  0  0  0  0  0  0  0  0  0  0
  1  2  1  0
  2  3  1  0
  3  4  1  0
  4  5  1  0
  4  6  1  0
  6  7  2  0
  4  8  1  0
  8  9  1  0
  8  2  1  0
  1 10  1  0
  1 11  1  0
  1 12  1  0
  2 13  1  0
  3 14  1  0
  3 15  1  0
  5 16  1  0
  6 17  1  0
  8 18  1  0
  9 19  1  0
  9 20  1  0
  9 21  1  0
M  END
