
     RDKit          3D

 23 23  0  0  0  0  0  0  0  0999 V2000
    2.8322    0.8536   -0.1607 C   0  0  0  0  0  0  0  0  0  0  0  0
    1.4997    0.4561    0.4374 C   0  0  0  0  0  0  0  0  0  0  0  0
    1.3632   -1.0457    0.6166 C   0  0  0  0  0  0  0  0  0  0  0  0
    0.4858   -0.2655   -0.3287 C   0  0  0  0  0  0  0  0  0  0  0  0
   -0.9500   -0.1881    0.1067 C   0  0  0  0  0  0  0  0  0  0  0  0
   -1.8522   -1.0097   -0.8232 C   0  0  0  0  0  0  0  0  0  0  0  0
   -1.1760   -0.6518    1.3830 O   0  0  0  0  0  0  0  0  0  0  0  0
   -1.4705    1.2514    0.0314 C   0  0  0  0  0  0  0  0  0  0  0  0
   -2.8260    1.3049    0.3099 O   0  0  0  0  0  0  0  0  0  0  0  0
    3.5981    0.6298    0.6237 H   0  0  0  0  0  0  0  0  0  0  0  0
    2.9074    1.9104   -0.4077 H   0  0  0  0  0  0  0  0  0  0  0  0
    3.0982    0.1750   -1.0155 H   0  0  0  0  0  0  0  0  0  0  0  0
    1.1665    1.1288    1.2466 H   0  0  0  0  0  0  0  0  0  0  0  0
    2.0985   -1.7182    0.1751 H   0  0  0  0  0  0  0  0  0  0  0  0
    0.9815   -1.3245    1.6198 H   0  0  0  0  0  0  0  0  0  0  0  0
    0.6096   -0.5078   -1.4146 H   0  0  0  0  0  0  0  0  0  0  0  0
   -1.4005   -2.0256   -0.9683 H   0  0  0  0  0  0  0  0  0  0  0  0
   -2.8181   -1.1410   -0.3231 H   0  0  0  0  0  0  0  0  0  0  0  0
   -1.9020   -0.4469   -1.7657 H   0  0  0  0  0  0  0  0  0  0  0  0
   -1.0273   -1.6496    1.4203 H   0  0  0  0  0  0  0  0  0  0  0  0
   -1.2821    1.6648   -0.9629 H   0  0  0  0  0  0  0  0  0  0  0  0
   -0.9053    1.8798    0.7735 H   0  0  0  0  0  0  0  0  0  0  0  0
   -3.0308    0.7200    1.0947 H   0  0  0  0  0  0  0  0  0  0  0  0
  1  2  1  0
  2  3  1  0
  3  4  1  0
  4  5  1  0
  5  6  1  0
  5  7  1  0
  5  8  1  0
  8  9  1  0
  4  2  1  0
  1 10  1  0
  1 11  1  0
  1 12  1  0
  2 13  1  0
  3 14  1  0
  3 15  1  0
  4 16  1  0
  6 17  1  0
  6 18  1  0
  6 19  1  0
  7 20  1  0
  8 21  1  0
  8 22  1  0
  9 23  1  0
M  END
