
     RDKit          2D

 21 23  0  0  0  0  0  0  0  0999 V2000
   -0.3146   -3.9790    0.0000 C   0  0  0  0  0  0  0  0  0  0  0  0
   -0.1578   -2.4872    0.0000 C   0  0  0  0  0  0  0  0  0  0  0  0
   -1.6578   -2.4872    0.0000 C   0  0  0  0  0  0  0  0  0  0  0  0
   -2.1213   -1.0607    0.0000 C   0  0  0  0  0  0  0  0  0  0  0  0
   -1.0607   -2.1213    0.0000 C   0  0  0  0  0  0  0  0  0  0  0  0
   -0.0000   -1.0607    0.0000 C   0  0  0  0  0  0  0  0  0  0  0  0
    1.0607    0.0000    0.0000 O   0  0  0  0  0  0  0  0  0  0  0  0
    0.0000    1.0607    0.0000 C   0  0  0  0  0  0  0  0  0  0  0  0
   -1.0607    0.0000    0.0000 C   0  0  0  0  0  0  0  0  0  0  0  0
   -0.4714   -5.4708    0.0000 H   0  0  0  0  0  0  0  0  0  0  0  0
    1.1772   -4.1358    0.0000 H   0  0  0  0  0  0  0  0  0  0  0  0
   -1.1040   -4.0900    0.0000 H   0  0  0  0  0  0  0  0  0  0  0  0
    1.3094   -2.7991    0.0000 H   0  0  0  0  0  0  0  0  0  0  0  0
   -3.1250   -2.7991    0.0000 H   0  0  0  0  0  0  0  0  0  0  0  0
   -1.6717   -3.2843    0.0000 H   0  0  0  0  0  0  0  0  0  0  0  0
   -3.6213   -1.0607    0.0000 H   0  0  0  0  0  0  0  0  0  0  0  0
   -0.2882   -3.4071    0.0000 H   0  0  0  0  0  0  0  0  0  0  0  0
   -2.2427   -3.0448    0.0000 H   0  0  0  0  0  0  0  0  0  0  0  0
   -1.0607    2.1213    0.0000 H   0  0  0  0  0  0  0  0  0  0  0  0
    1.0607    2.1213    0.0000 H   0  0  0  0  0  0  0  0  0  0  0  0
   -2.1213    1.0607    0.0000 H   0  0  0  0  0  0  0  0  0  0  0  0
  1  2  1  0
  2  3  1  0
  3  4  1  0
  4  5  1  0
  5  6  1  0
  6  7  1  0
  7  8  1  0
  8  9  1  0
  6  2  1  0
  9  4  1  0
  9  6  1  0
  1 10  1  0
  1 11  1  0
  1 12  1  0
  2 13  1  0
  3 14  1  0
  3 15  1  0
  4 16  1  0
  5 17  1  0
  5 18  1  0
  8 19  1  0
  8 20  1  0
  9 21  1  0
M  END
