
     RDKit          3D

 21 22  0  0  0  0  0  0  0  0999 V2000
   -2.6590    0.7692   -0.3061 C   0  0  0  0  0  0  0  0  0  0  0  0
   -1.5840   -0.2063    0.0135 C   0  0  0  0  0  0  0  0  0  0  0  0
   -0.4100   -0.1311   -0.9735 C   0  0  0  0  0  0  0  0  0  0  0  0
    0.6254   -0.9021   -0.1486 C   0  0  0  0  0  0  0  0  0  0  0  0
    2.0088   -0.4064   -0.3528 C   0  0  0  0  0  0  0  0  0  0  0  0
    2.1363    0.7202    0.6180 C   0  0  0  0  0  0  0  0  0  0  0  0
    1.0043    0.7890    1.3805 O   0  0  0  0  0  0  0  0  0  0  0  0
    0.2875   -0.3801    1.2312 C   0  0  0  0  0  0  0  0  0  0  0  0
   -1.0467   -0.0981    1.2681 O   0  0  0  0  0  0  0  0  0  0  0  0
   -2.4878    1.7854    0.0691 H   0  0  0  0  0  0  0  0  0  0  0  0
   -3.6342    0.3318    0.0579 H   0  0  0  0  0  0  0  0  0  0  0  0
   -2.7689    0.8057   -1.4207 H   0  0  0  0  0  0  0  0  0  0  0  0
   -2.0138   -1.2324   -0.0809 H   0  0  0  0  0  0  0  0  0  0  0  0
   -0.6379   -0.6248   -1.9230 H   0  0  0  0  0  0  0  0  0  0  0  0
   -0.0531    0.9098   -1.0719 H   0  0  0  0  0  0  0  0  0  0  0  0
    0.4713   -1.9712   -0.2698 H   0  0  0  0  0  0  0  0  0  0  0  0
    2.7119   -1.2254   -0.0321 H   0  0  0  0  0  0  0  0  0  0  0  0
    2.2656   -0.1710   -1.3841 H   0  0  0  0  0  0  0  0  0  0  0  0
    2.2223    1.7006    0.0639 H   0  0  0  0  0  0  0  0  0  0  0  0
    3.0542    0.6661    1.2377 H   0  0  0  0  0  0  0  0  0  0  0  0
    0.5081   -1.1289    2.0241 H   0  0  0  0  0  0  0  0  0  0  0  0
  1  2  1  0
  2  3  1  0
  3  4  1  0
  4  5  1  0
  5  6  1  0
  6  7  1  0
  7  8  1  0
  8  9  1  0
  9  2  1  0
  8  4  1  0
  1 10  1  0
  1 11  1  0
  1 12  1  0
  2 13  1  0
  3 14  1  0
  3 15  1  0
  4 16  1  0
  5 17  1  0
  5 18  1  0
  6 19  1  0
  6 20  1  0
  8 21  1  0
M  END
