
     RDKit          3D

 23 24  0  0  0  0  0  0  0  0999 V2000
    2.6368   -0.3145   -0.0874 C   0  0  0  0  0  0  0  0  0  0  0  0
    1.2644    0.0302    0.3324 C   0  0  0  0  0  0  0  0  0  0  0  0
    0.6879    1.3118   -0.2397 C   0  0  0  0  0  0  0  0  0  0  0  0
    0.3587    0.4774   -1.4859 C   0  0  0  0  0  0  0  0  0  0  0  0
    0.1155   -0.5872   -0.4071 C   0  0  0  0  0  0  0  0  0  0  0  0
   -1.0523    0.0733    0.2847 C   0  0  0  0  0  0  0  0  0  0  0  0
   -1.2506   -0.3778    1.6915 C   0  0  0  0  0  0  0  0  0  0  0  0
   -2.3267   -0.0022   -0.4857 C   0  0  0  0  0  0  0  0  0  0  0  0
   -0.5501    1.4016    0.3480 O   0  0  0  0  0  0  0  0  0  0  0  0
    3.3333    0.4535    0.3618 H   0  0  0  0  0  0  0  0  0  0  0  0
    2.9361   -1.2722    0.3582 H   0  0  0  0  0  0  0  0  0  0  0  0
    2.8434   -0.3166   -1.1552 H   0  0  0  0  0  0  0  0  0  0  0  0
    1.1286   -0.0931    1.4189 H   0  0  0  0  0  0  0  0  0  0  0  0
    1.3101    2.1546   -0.3594 H   0  0  0  0  0  0  0  0  0  0  0  0
   -0.5847    0.7782   -1.9686 H   0  0  0  0  0  0  0  0  0  0  0  0
    1.1801    0.2898   -2.1607 H   0  0  0  0  0  0  0  0  0  0  0  0
    0.0980   -1.5962   -0.6789 H   0  0  0  0  0  0  0  0  0  0  0  0
   -1.1277   -1.4613    1.8488 H   0  0  0  0  0  0  0  0  0  0  0  0
   -2.3227   -0.1433    1.9619 H   0  0  0  0  0  0  0  0  0  0  0  0
   -0.6501    0.2369    2.4087 H   0  0  0  0  0  0  0  0  0  0  0  0
   -2.1845   -0.4015   -1.4946 H   0  0  0  0  0  0  0  0  0  0  0  0
   -2.8351    0.9943   -0.5534 H   0  0  0  0  0  0  0  0  0  0  0  0
   -3.0081   -0.7099    0.0614 H   0  0  0  0  0  0  0  0  0  0  0  0
  1  2  1  0
  2  3  1  0
  3  4  1  0
  4  5  1  0
  5  6  1  0
  6  7  1  0
  6  8  1  0
  6  9  1  0
  5  2  1  0
  9  3  1  0
  1 10  1  0
  1 11  1  0
  1 12  1  0
  2 13  1  0
  3 14  1  0
  4 15  1  0
  4 16  1  0
  5 17  1  0
  7 18  1  0
  7 19  1  0
  7 20  1  0
  8 21  1  0
  8 22  1  0
  8 23  1  0
M  END
