
     RDKit          3D

 19 20  0  0  0  0  0  0  0  0999 V2000
    1.9553   -0.8670    0.7272 C   0  0  0  0  0  0  0  0  0  0  0  0
    0.8381   -0.5793   -0.2330 C   0  0  0  0  0  0  0  0  0  0  0  0
   -0.3836   -1.3536    0.0167 C   0  0  0  0  0  0  0  0  0  0  0  0
   -0.5650   -2.4440    0.5009 O   0  0  0  0  0  0  0  0  0  0  0  0
   -1.5173   -0.4966   -0.4738 C   0  0  0  0  0  0  0  0  0  0  0  0
   -2.0746    0.4317    0.5198 C   0  0  0  0  0  0  0  0  0  0  0  0
   -1.0557    0.9158   -0.4093 C   0  0  0  0  0  0  0  0  0  0  0  0
    0.4052    0.8610   -0.1583 C   0  0  0  0  0  0  0  0  0  0  0  0
    1.0898    1.5355   -1.1850 O   0  0  0  0  0  0  0  0  0  0  0  0
    1.8707   -0.3066    1.6805 H   0  0  0  0  0  0  0  0  0  0  0  0
    2.9137   -0.5168    0.2577 H   0  0  0  0  0  0  0  0  0  0  0  0
    1.9876   -1.9305    0.9638 H   0  0  0  0  0  0  0  0  0  0  0  0
    1.2165   -0.8551   -1.2579 H   0  0  0  0  0  0  0  0  0  0  0  0
   -2.0258   -0.7859   -1.4014 H   0  0  0  0  0  0  0  0  0  0  0  0
   -3.1124    0.7587    0.3635 H   0  0  0  0  0  0  0  0  0  0  0  0
   -1.8581    0.2385    1.6078 H   0  0  0  0  0  0  0  0  0  0  0  0
   -1.3940    1.6363   -1.2074 H   0  0  0  0  0  0  0  0  0  0  0  0
    0.7289    1.2584    0.8085 H   0  0  0  0  0  0  0  0  0  0  0  0
    0.9806    2.4996   -1.1204 H   0  0  0  0  0  0  0  0  0  0  0  0
  1  2  1  0
  2  3  1  0
  3  4  2  0
  3  5  1  0
  5  6  1  0
  6  7  1  0
  7  8  1  0
  8  9  1  0
  8  2  1  0
  7  5  1  0
  1 10  1  0
  1 11  1  0
  1 12  1  0
  2 13  1  0
  5 14  1  0
  6 15  1  0
  6 16  1  0
  7 17  1  0
  8 18  1  0
  9 19  1  0
M  END
