
     RDKit          3D

 19 19  0  0  0  0  0  0  0  0999 V2000
   -1.4961    0.9005   -0.8809 C   0  0  0  0  0  0  0  0  0  0  0  0
   -0.6616    0.3718    0.2604 C   0  0  0  0  0  0  0  0  0  0  0  0
   -1.2733   -0.9114    0.8325 C   0  0  0  0  0  0  0  0  0  0  0  0
   -0.0918   -1.4798    1.5232 C   0  0  0  0  0  0  0  0  0  0  0  0
   -0.1333   -2.2353    2.5170 O   0  0  0  0  0  0  0  0  0  0  0  0
    1.0360   -1.0178    0.8638 O   0  0  0  0  0  0  0  0  0  0  0  0
    0.6500   -0.1971   -0.2307 C   0  0  0  0  0  0  0  0  0  0  0  0
    1.6706    0.8534   -0.5461 C   0  0  0  0  0  0  0  0  0  0  0  0
    2.8606    0.2211   -0.8653 O   0  0  0  0  0  0  0  0  0  0  0  0
   -1.6199    0.0929   -1.6089 H   0  0  0  0  0  0  0  0  0  0  0  0
   -2.4607    1.2174   -0.4878 H   0  0  0  0  0  0  0  0  0  0  0  0
   -0.9737    1.7343   -1.3380 H   0  0  0  0  0  0  0  0  0  0  0  0
   -0.5382    1.0876    1.0809 H   0  0  0  0  0  0  0  0  0  0  0  0
   -2.1213   -0.7225    1.4750 H   0  0  0  0  0  0  0  0  0  0  0  0
   -1.4957   -1.5491   -0.0540 H   0  0  0  0  0  0  0  0  0  0  0  0
    0.4225   -0.8606   -1.0881 H   0  0  0  0  0  0  0  0  0  0  0  0
    1.3125    1.3681   -1.4804 H   0  0  0  0  0  0  0  0  0  0  0  0
    1.7979    1.5977    0.2379 H   0  0  0  0  0  0  0  0  0  0  0  0
    3.1154   -0.4713   -0.2106 H   0  0  0  0  0  0  0  0  0  0  0  0
  1  2  1  0
  2  3  1  0
  3  4  1  0
  4  5  2  0
  4  6  1  0
  6  7  1  0
  7  8  1  0
  8  9  1  0
  7  2  1  0
  1 10  1  0
  1 11  1  0
  1 12  1  0
  2 13  1  0
  3 14  1  0
  3 15  1  0
  7 16  1  0
  8 17  1  0
  8 18  1  0
  9 19  1  0
M  END
