
     RDKit          3D

 17 17  0  0  0  0  0  0  0  0999 V2000
   -1.9985    0.0368   -0.0299 C   0  0  0  0  0  0  0  0  0  0  0  0
   -0.5585   -0.0551   -0.4373 C   0  0  0  0  0  0  0  0  0  0  0  0
    0.1527   -1.2348    0.1791 C   0  0  0  0  0  0  0  0  0  0  0  0
    1.4652   -1.1822   -0.1671 O   0  0  0  0  0  0  0  0  0  0  0  0
    2.1274   -0.0227    0.0420 C   0  0  0  0  0  0  0  0  0  0  0  0
    1.4578    1.1205    0.1926 O   0  0  0  0  0  0  0  0  0  0  0  0
    0.1299    1.1815    0.0570 C   0  0  0  0  0  0  0  0  0  0  0  0
   -2.4254    0.9317   -0.5282 H   0  0  0  0  0  0  0  0  0  0  0  0
   -2.0771    0.2493    1.0701 H   0  0  0  0  0  0  0  0  0  0  0  0
   -2.5909   -0.8543   -0.3116 H   0  0  0  0  0  0  0  0  0  0  0  0
   -0.5067   -0.1703   -1.5386 H   0  0  0  0  0  0  0  0  0  0  0  0
   -0.2951   -2.1501   -0.2643 H   0  0  0  0  0  0  0  0  0  0  0  0
    0.0188   -1.2192    1.2811 H   0  0  0  0  0  0  0  0  0  0  0  0
    2.7976   -0.1694    0.9421 H   0  0  0  0  0  0  0  0  0  0  0  0
    2.8677    0.1051   -0.8044 H   0  0  0  0  0  0  0  0  0  0  0  0
   -0.2343    2.0289   -0.5967 H   0  0  0  0  0  0  0  0  0  0  0  0
   -0.3306    1.4044    1.0649 H   0  0  0  0  0  0  0  0  0  0  0  0
  1  2  1  0
  2  3  1  0
  3  4  1  0
  4  5  1  0
  5  6  1  0
  6  7  1  0
  7  2  1  0
  1  8  1  0
  1  9  1  0
  1 10  1  0
  2 11  1  0
  3 12  1  0
  3 13  1  0
  5 14  1  0
  5 15  1  0
  7 16  1  0
  7 17  1  0
M  END
