
     RDKit          3D

 18 19  0  0  0  0  0  0  0  0999 V2000
   -1.9417   -0.2482   -0.5205 C   0  0  0  0  0  0  0  0  0  0  0  0
   -0.6886   -0.1330    0.2651 C   0  0  0  0  0  0  0  0  0  0  0  0
    0.3223   -1.2074    0.0007 C   0  0  0  0  0  0  0  0  0  0  0  0
    1.5616   -0.6231    0.6713 C   0  0  0  0  0  0  0  0  0  0  0  0
    1.4281    0.2666   -0.5138 C   0  0  0  0  0  0  0  0  0  0  0  0
    0.9345   -0.8550   -1.2217 O   0  0  0  0  0  0  0  0  0  0  0  0
    0.1419    1.0432   -0.2894 C   0  0  0  0  0  0  0  0  0  0  0  0
    0.2660    2.0580    0.6161 O   0  0  0  0  0  0  0  0  0  0  0  0
   -2.7761    0.2685    0.0384 H   0  0  0  0  0  0  0  0  0  0  0  0
   -1.8584    0.3306   -1.4760 H   0  0  0  0  0  0  0  0  0  0  0  0
   -2.2948   -1.2766   -0.6913 H   0  0  0  0  0  0  0  0  0  0  0  0
   -0.8483    0.0792    1.3306 H   0  0  0  0  0  0  0  0  0  0  0  0
    0.0908   -2.2275    0.1710 H   0  0  0  0  0  0  0  0  0  0  0  0
    1.3300   -0.1718    1.6671 H   0  0  0  0  0  0  0  0  0  0  0  0
    2.4395   -1.2694    0.6353 H   0  0  0  0  0  0  0  0  0  0  0  0
    2.2679    0.7748   -0.9211 H   0  0  0  0  0  0  0  0  0  0  0  0
   -0.2485    1.3128   -1.2685 H   0  0  0  0  0  0  0  0  0  0  0  0
   -0.1262    1.8783    1.5065 H   0  0  0  0  0  0  0  0  0  0  0  0
  1  2  1  0
  2  3  1  0
  3  4  1  0
  4  5  1  0
  5  6  1  0
  5  7  1  0
  7  8  1  0
  7  2  1  0
  6  3  1  0
  1  9  1  0
  1 10  1  0
  1 11  1  0
  2 12  1  0
  3 13  1  0
  4 14  1  0
  4 15  1  0
  5 16  1  0
  7 17  1  0
  8 18  1  0
M  END
