
     RDKit          3D

 23 24  0  0  0  0  0  0  0  0999 V2000
    2.4528    1.1426    0.4540 C   0  0  0  0  0  0  0  0  0  0  0  0
    1.1468    0.4250    0.6443 C   0  0  0  0  0  0  0  0  0  0  0  0
    1.2801   -0.9308   -0.0788 C   0  0  0  0  0  0  0  0  0  0  0  0
   -0.0291   -1.1228   -0.7183 C   0  0  0  0  0  0  0  0  0  0  0  0
   -1.1884   -1.8540   -0.4026 C   0  0  0  0  0  0  0  0  0  0  0  0
   -0.9714   -0.7665    0.4794 C   0  0  0  0  0  0  0  0  0  0  0  0
   -1.1426    0.6927    0.3441 C   0  0  0  0  0  0  0  0  0  0  0  0
   -2.1104    1.0619   -0.7285 C   0  0  0  0  0  0  0  0  0  0  0  0
    0.1494    1.2200    0.0971 O   0  0  0  0  0  0  0  0  0  0  0  0
    2.9698    0.7735   -0.4624 H   0  0  0  0  0  0  0  0  0  0  0  0
    2.3249    2.2361    0.3051 H   0  0  0  0  0  0  0  0  0  0  0  0
    3.1685    0.9477    1.2911 H   0  0  0  0  0  0  0  0  0  0  0  0
    0.9324    0.2805    1.7081 H   0  0  0  0  0  0  0  0  0  0  0  0
    1.4007   -1.7004    0.7372 H   0  0  0  0  0  0  0  0  0  0  0  0
    2.1603   -0.9638   -0.7123 H   0  0  0  0  0  0  0  0  0  0  0  0
   -0.0987   -0.4406   -1.6240 H   0  0  0  0  0  0  0  0  0  0  0  0
   -1.1038   -2.8922   -0.0180 H   0  0  0  0  0  0  0  0  0  0  0  0
   -2.0743   -1.7957   -1.0988 H   0  0  0  0  0  0  0  0  0  0  0  0
   -0.6169   -1.0322    1.5148 H   0  0  0  0  0  0  0  0  0  0  0  0
   -1.4806    1.1862    1.2801 H   0  0  0  0  0  0  0  0  0  0  0  0
   -2.9888    0.3822   -0.6393 H   0  0  0  0  0  0  0  0  0  0  0  0
   -1.6815    1.0661   -1.7477 H   0  0  0  0  0  0  0  0  0  0  0  0
   -2.4993    2.0843   -0.5270 H   0  0  0  0  0  0  0  0  0  0  0  0
  1  2  1  0
  2  3  1  0
  3  4  1  0
  4  5  1  0
  5  6  1  0
  6  7  1  0
  7  8  1  0
  7  9  1  0
  9  2  1  0
  6  4  1  0
  1 10  1  0
  1 11  1  0
  1 12  1  0
  2 13  1  0
  3 14  1  0
  3 15  1  0
  4 16  1  0
  5 17  1  0
  5 18  1  0
  6 19  1  0
  7 20  1  0
  8 21  1  0
  8 22  1  0
  8 23  1  0
M  END
