
     RDKit          3D

 19 21  0  0  0  0  0  0  0  0999 V2000
    2.0834    0.6461    0.0167 C   0  0  0  0  0  0  0  0  0  0  0  0
    1.0790   -0.4605   -0.1728 C   0  0  0  0  0  0  0  0  0  0  0  0
   -0.0819   -0.0726   -1.0993 C   0  0  0  0  0  0  0  0  0  0  0  0
   -0.3476    1.2686   -0.9270 O   0  0  0  0  0  0  0  0  0  0  0  0
   -1.3312    1.4235    0.0254 C   0  0  0  0  0  0  0  0  0  0  0  0
   -1.2146    0.1777    0.8928 C   0  0  0  0  0  0  0  0  0  0  0  0
    0.0627   -0.5914    0.9198 C   0  0  0  0  0  0  0  0  0  0  0  0
   -0.9270   -0.8357   -0.1266 C   0  0  0  0  0  0  0  0  0  0  0  0
   -1.5876   -1.9583   -0.3872 O   0  0  0  0  0  0  0  0  0  0  0  0
    2.8304    0.2838    0.7479 H   0  0  0  0  0  0  0  0  0  0  0  0
    2.6261    0.8250   -0.9321 H   0  0  0  0  0  0  0  0  0  0  0  0
    1.5968    1.5271    0.4329 H   0  0  0  0  0  0  0  0  0  0  0  0
    1.4832   -1.4300   -0.4764 H   0  0  0  0  0  0  0  0  0  0  0  0
   -0.0024   -0.4503   -2.1127 H   0  0  0  0  0  0  0  0  0  0  0  0
   -1.2250    2.3428    0.6166 H   0  0  0  0  0  0  0  0  0  0  0  0
   -2.3173    1.3430   -0.4955 H   0  0  0  0  0  0  0  0  0  0  0  0
   -1.9565   -0.0463    1.6436 H   0  0  0  0  0  0  0  0  0  0  0  0
    0.2338   -1.2105    1.7940 H   0  0  0  0  0  0  0  0  0  0  0  0
   -1.0044   -2.7820   -0.3600 H   0  0  0  0  0  0  0  0  0  0  0  0
  1  2  1  0
  2  3  1  0
  3  4  1  0
  4  5  1  0
  5  6  1  0
  6  7  1  0
  7  8  1  0
  8  9  1  0
  7  2  1  0
  8  3  1  0
  8  6  1  0
  1 10  1  0
  1 11  1  0
  1 12  1  0
  2 13  1  0
  3 14  1  0
  5 15  1  0
  5 16  1  0
  6 17  1  0
  7 18  1  0
  9 19  1  0
M  END
