
     RDKit          3D

 23 24  0  0  0  0  0  0  0  0999 V2000
   -1.3721   -1.3701    1.0458 C   0  0  0  0  0  0  0  0  0  0  0  0
   -1.1335   -0.2608    0.1102 C   0  0  0  0  0  0  0  0  0  0  0  0
   -0.3382    0.9331    0.5746 C   0  0  0  0  0  0  0  0  0  0  0  0
   -0.5587    1.8538   -0.6368 C   0  0  0  0  0  0  0  0  0  0  0  0
   -0.2808    0.8302   -1.7574 C   0  0  0  0  0  0  0  0  0  0  0  0
    0.0030   -0.3836   -0.8956 C   0  0  0  0  0  0  0  0  0  0  0  0
    0.8992    0.2277    0.1446 C   0  0  0  0  0  0  0  0  0  0  0  0
    1.6531   -0.6347    1.0512 C   0  0  0  0  0  0  0  0  0  0  0  0
    2.7617   -1.1409    0.3285 O   0  0  0  0  0  0  0  0  0  0  0  0
   -1.1771   -1.1184    2.1307 H   0  0  0  0  0  0  0  0  0  0  0  0
   -2.4810   -1.6030    1.0544 H   0  0  0  0  0  0  0  0  0  0  0  0
   -0.9093   -2.3281    0.7408 H   0  0  0  0  0  0  0  0  0  0  0  0
   -2.0535    0.0581   -0.4643 H   0  0  0  0  0  0  0  0  0  0  0  0
   -0.4653    1.3279    1.5387 H   0  0  0  0  0  0  0  0  0  0  0  0
   -1.5993    2.1838   -0.7061 H   0  0  0  0  0  0  0  0  0  0  0  0
    0.1585    2.6724   -0.6633 H   0  0  0  0  0  0  0  0  0  0  0  0
   -1.1849    0.6962   -2.3926 H   0  0  0  0  0  0  0  0  0  0  0  0
    0.5938    1.1184   -2.3539 H   0  0  0  0  0  0  0  0  0  0  0  0
    0.2176   -1.3132   -1.3315 H   0  0  0  0  0  0  0  0  0  0  0  0
    1.5842    0.9677   -0.3683 H   0  0  0  0  0  0  0  0  0  0  0  0
    1.1296   -1.4183    1.5892 H   0  0  0  0  0  0  0  0  0  0  0  0
    2.1308    0.0115    1.8470 H   0  0  0  0  0  0  0  0  0  0  0  0
    2.4222   -1.3096   -0.5860 H   0  0  0  0  0  0  0  0  0  0  0  0
  1  2  1  0
  2  3  1  0
  3  4  1  0
  4  5  1  0
  5  6  1  0
  6  7  1  0
  7  8  1  0
  8  9  1  0
  6  2  1  0
  7  3  1  0
  1 10  1  0
  1 11  1  0
  1 12  1  0
  2 13  1  0
  3 14  1  0
  4 15  1  0
  4 16  1  0
  5 17  1  0
  5 18  1  0
  6 19  1  0
  7 20  1  0
  8 21  1  0
  8 22  1  0
  9 23  1  0
M  END
