
     RDKit          3D

 21 23  0  0  0  0  0  0  0  0999 V2000
   -1.9281   -0.8040    0.0028 C   0  0  0  0  0  0  0  0  0  0  0  0
   -0.7768   -0.2068   -0.8210 C   0  0  0  0  0  0  0  0  0  0  0  0
    0.4561   -0.9617   -0.4541 C   0  0  0  0  0  0  0  0  0  0  0  0
    0.6687   -0.8179    1.0377 C   0  0  0  0  0  0  0  0  0  0  0  0
    1.3075    0.5380    0.7012 C   0  0  0  0  0  0  0  0  0  0  0  0
    1.7138   -0.1046   -0.6149 C   0  0  0  0  0  0  0  0  0  0  0  0
    0.2463    1.5806    0.4659 C   0  0  0  0  0  0  0  0  0  0  0  0
    0.2658    2.0772   -0.9141 O   0  0  0  0  0  0  0  0  0  0  0  0
   -0.7383    1.2459   -0.5258 C   0  0  0  0  0  0  0  0  0  0  0  0
   -2.0477   -0.1847    0.9406 H   0  0  0  0  0  0  0  0  0  0  0  0
   -1.7077   -1.8248    0.3313 H   0  0  0  0  0  0  0  0  0  0  0  0
   -2.8737   -0.6950   -0.5524 H   0  0  0  0  0  0  0  0  0  0  0  0
   -1.0241   -0.4477   -1.8794 H   0  0  0  0  0  0  0  0  0  0  0  0
    0.5104   -1.9614   -0.8667 H   0  0  0  0  0  0  0  0  0  0  0  0
    1.4748   -1.5160    1.3554 H   0  0  0  0  0  0  0  0  0  0  0  0
   -0.2205   -0.7646    1.6572 H   0  0  0  0  0  0  0  0  0  0  0  0
    2.1149    0.8030    1.3780 H   0  0  0  0  0  0  0  0  0  0  0  0
    1.6407    0.6509   -1.4210 H   0  0  0  0  0  0  0  0  0  0  0  0
    2.6375   -0.6768   -0.5558 H   0  0  0  0  0  0  0  0  0  0  0  0
    0.0275    2.3384    1.2156 H   0  0  0  0  0  0  0  0  0  0  0  0
   -1.7473    1.7321   -0.4807 H   0  0  0  0  0  0  0  0  0  0  0  0
  1  2  1  0
  2  3  1  0
  3  4  1  0
  4  5  1  0
  5  6  1  0
  5  7  1  0
  7  8  1  0
  8  9  1  0
  9  2  1  0
  6  3  1  0
  9  7  1  0
  1 10  1  0
  1 11  1  0
  1 12  1  0
  2 13  1  0
  3 14  1  0
  4 15  1  0
  4 16  1  0
  5 17  1  0
  6 18  1  0
  6 19  1  0
  7 20  1  0
  9 21  1  0
M  END
