
     RDKit          3D

 21 22  0  0  0  0  0  0  0  0999 V2000
    2.9503    0.1371    0.3875 C   0  0  0  0  0  0  0  0  0  0  0  0
    1.5303    0.3171   -0.0308 C   0  0  0  0  0  0  0  0  0  0  0  0
    0.8905   -0.8525   -0.7453 C   0  0  0  0  0  0  0  0  0  0  0  0
   -0.2941   -0.3055   -0.0086 C   0  0  0  0  0  0  0  0  0  0  0  0
   -1.3494   -1.2397    0.3653 C   0  0  0  0  0  0  0  0  0  0  0  0
   -2.5267   -0.6276    0.3963 C   0  0  0  0  0  0  0  0  0  0  0  0
   -2.3594    0.8145    0.0350 C   0  0  0  0  0  0  0  0  0  0  0  0
   -0.9936    0.8612   -0.6654 C   0  0  0  0  0  0  0  0  0  0  0  0
    0.5747    0.1068    0.9921 O   0  0  0  0  0  0  0  0  0  0  0  0
    3.4426   -0.7576   -0.0407 H   0  0  0  0  0  0  0  0  0  0  0  0
    3.0289    0.1660    1.5084 H   0  0  0  0  0  0  0  0  0  0  0  0
    3.5840    1.0090    0.0484 H   0  0  0  0  0  0  0  0  0  0  0  0
    1.3851    1.2399   -0.6077 H   0  0  0  0  0  0  0  0  0  0  0  0
    0.8558   -0.7915   -1.8395 H   0  0  0  0  0  0  0  0  0  0  0  0
    1.1831   -1.8482   -0.4004 H   0  0  0  0  0  0  0  0  0  0  0  0
   -1.2302   -2.2896    0.5927 H   0  0  0  0  0  0  0  0  0  0  0  0
   -3.4906   -1.0637    0.6404 H   0  0  0  0  0  0  0  0  0  0  0  0
   -2.3431    1.3849    0.9680 H   0  0  0  0  0  0  0  0  0  0  0  0
   -3.1614    1.1965   -0.6001 H   0  0  0  0  0  0  0  0  0  0  0  0
   -1.1170    0.7061   -1.7559 H   0  0  0  0  0  0  0  0  0  0  0  0
   -0.5596    1.8368   -0.4041 H   0  0  0  0  0  0  0  0  0  0  0  0
  1  2  1  0
  2  3  1  0
  3  4  1  0
  4  5  1  0
  5  6  2  0
  6  7  1  0
  7  8  1  0
  4  9  1  0
  9  2  1  0
  8  4  1  0
  1 10  1  0
  1 11  1  0
  1 12  1  0
  2 13  1  0
  3 14  1  0
  3 15  1  0
  5 16  1  0
  6 17  1  0
  7 18  1  0
  7 19  1  0
  8 20  1  0
  8 21  1  0
M  END
