
     RDKit          3D

 20 21  0  0  0  0  0  0  0  0999 V2000
    2.3087    0.1122    0.2536 C   0  0  0  0  0  0  0  0  0  0  0  0
    0.9695   -0.2090    0.8738 C   0  0  0  0  0  0  0  0  0  0  0  0
   -0.0170   -0.8396   -0.0198 C   0  0  0  0  0  0  0  0  0  0  0  0
   -1.1549   -1.5681    0.7018 C   0  0  0  0  0  0  0  0  0  0  0  0
   -2.1794   -0.4297    0.7519 C   0  0  0  0  0  0  0  0  0  0  0  0
   -1.3549    0.6146    1.2203 O   0  0  0  0  0  0  0  0  0  0  0  0
   -0.2242    0.5694    0.4506 C   0  0  0  0  0  0  0  0  0  0  0  0
    0.0776    1.7240   -0.4892 C   0  0  0  0  0  0  0  0  0  0  0  0
    2.0835    0.5061   -0.7757 H   0  0  0  0  0  0  0  0  0  0  0  0
    2.9023   -0.8103    0.0826 H   0  0  0  0  0  0  0  0  0  0  0  0
    2.8651    0.8822    0.7823 H   0  0  0  0  0  0  0  0  0  0  0  0
    1.0206   -0.5733    1.9291 H   0  0  0  0  0  0  0  0  0  0  0  0
    0.1032   -0.9569   -1.0925 H   0  0  0  0  0  0  0  0  0  0  0  0
   -1.5138   -2.4355    0.1578 H   0  0  0  0  0  0  0  0  0  0  0  0
   -0.8734   -1.7621    1.7597 H   0  0  0  0  0  0  0  0  0  0  0  0
   -2.9955   -0.6646    1.4300 H   0  0  0  0  0  0  0  0  0  0  0  0
   -2.4870   -0.2220   -0.2827 H   0  0  0  0  0  0  0  0  0  0  0  0
    0.3636    1.3809   -1.4931 H   0  0  0  0  0  0  0  0  0  0  0  0
   -0.8045    2.3828   -0.5410 H   0  0  0  0  0  0  0  0  0  0  0  0
    0.9103    2.2992    0.0093 H   0  0  0  0  0  0  0  0  0  0  0  0
  1  2  1  0
  2  3  1  0
  3  4  1  0
  4  5  1  0
  5  6  1  0
  6  7  1  0
  7  8  1  0
  7  2  1  0
  7  3  1  0
  1  9  1  0
  1 10  1  0
  1 11  1  0
  2 12  1  0
  3 13  1  0
  4 14  1  0
  4 15  1  0
  5 16  1  0
  5 17  1  0
  8 18  1  0
  8 19  1  0
  8 20  1  0
M  END
