
     RDKit          3D

 23 25  0  0  0  0  0  0  0  0999 V2000
   -2.1386   -0.8627   -0.7031 C   0  0  0  0  0  0  0  0  0  0  0  0
   -1.3683    0.1599    0.0390 C   0  0  0  0  0  0  0  0  0  0  0  0
   -0.4809    1.0171   -0.8223 C   0  0  0  0  0  0  0  0  0  0  0  0
    0.1527    1.8767    0.2754 C   0  0  0  0  0  0  0  0  0  0  0  0
    0.6146    0.7291    1.1790 C   0  0  0  0  0  0  0  0  0  0  0  0
   -0.3200   -0.4109    0.9704 C   0  0  0  0  0  0  0  0  0  0  0  0
    0.9830   -0.3863    0.2968 C   0  0  0  0  0  0  0  0  0  0  0  0
    2.0832   -1.3313    0.5393 C   0  0  0  0  0  0  0  0  0  0  0  0
    0.6575    0.0835   -1.1276 C   0  0  0  0  0  0  0  0  0  0  0  0
   -2.4888   -0.4141   -1.6785 H   0  0  0  0  0  0  0  0  0  0  0  0
   -1.5921   -1.7976   -0.8492 H   0  0  0  0  0  0  0  0  0  0  0  0
   -3.0590   -1.1045   -0.0951 H   0  0  0  0  0  0  0  0  0  0  0  0
   -2.0005    0.8423    0.6630 H   0  0  0  0  0  0  0  0  0  0  0  0
   -0.9225    1.5433   -1.6216 H   0  0  0  0  0  0  0  0  0  0  0  0
    0.9899    2.4575   -0.1123 H   0  0  0  0  0  0  0  0  0  0  0  0
   -0.6383    2.4708    0.7407 H   0  0  0  0  0  0  0  0  0  0  0  0
    1.0758    0.9471    2.1355 H   0  0  0  0  0  0  0  0  0  0  0  0
   -0.5928   -1.1114    1.7541 H   0  0  0  0  0  0  0  0  0  0  0  0
    1.9540   -1.8072    1.5247 H   0  0  0  0  0  0  0  0  0  0  0  0
    3.0634   -0.7836    0.4991 H   0  0  0  0  0  0  0  0  0  0  0  0
    2.1222   -2.0718   -0.2915 H   0  0  0  0  0  0  0  0  0  0  0  0
    0.3974   -0.7448   -1.7881 H   0  0  0  0  0  0  0  0  0  0  0  0
    1.5083    0.6989   -1.5275 H   0  0  0  0  0  0  0  0  0  0  0  0
  1  2  1  0
  2  3  1  0
  3  4  1  0
  4  5  1  0
  5  6  1  0
  6  7  1  0
  7  8  1  0
  7  9  1  0
  6  2  1  0
  9  3  1  0
  7  5  1  0
  1 10  1  0
  1 11  1  0
  1 12  1  0
  2 13  1  0
  3 14  1  0
  4 15  1  0
  4 16  1  0
  5 17  1  0
  6 18  1  0
  8 19  1  0
  8 20  1  0
  8 21  1  0
  9 22  1  0
  9 23  1  0
M  END
