
     RDKit          3D

 21 22  0  0  0  0  0  0  0  0999 V2000
    2.5089    0.2984    0.2487 C   0  0  0  0  0  0  0  0  0  0  0  0
    1.1702    0.1018   -0.4542 C   0  0  0  0  0  0  0  0  0  0  0  0
    0.6401   -1.2484   -0.0181 C   0  0  0  0  0  0  0  0  0  0  0  0
   -0.7935   -1.2069    0.3915 C   0  0  0  0  0  0  0  0  0  0  0  0
   -1.6579   -0.3050   -0.4124 C   0  0  0  0  0  0  0  0  0  0  0  0
   -2.2937    0.8277    0.3231 C   0  0  0  0  0  0  0  0  0  0  0  0
   -1.1736    1.0711   -0.6000 C   0  0  0  0  0  0  0  0  0  0  0  0
    0.2222    1.1816   -0.1510 C   0  0  0  0  0  0  0  0  0  0  0  0
    0.5735    2.1565    0.4609 O   0  0  0  0  0  0  0  0  0  0  0  0
    3.2511    0.7683   -0.4254 H   0  0  0  0  0  0  0  0  0  0  0  0
    2.3204    0.8798    1.1511 H   0  0  0  0  0  0  0  0  0  0  0  0
    2.9373   -0.6852    0.5552 H   0  0  0  0  0  0  0  0  0  0  0  0
    1.3282    0.0974   -1.5566 H   0  0  0  0  0  0  0  0  0  0  0  0
    0.8123   -2.0214   -0.8234 H   0  0  0  0  0  0  0  0  0  0  0  0
    1.2195   -1.6547    0.8615 H   0  0  0  0  0  0  0  0  0  0  0  0
   -1.2309   -2.2338    0.3401 H   0  0  0  0  0  0  0  0  0  0  0  0
   -0.8270   -0.9310    1.4846 H   0  0  0  0  0  0  0  0  0  0  0  0
   -2.1704   -0.7733   -1.2756 H   0  0  0  0  0  0  0  0  0  0  0  0
   -2.1250    0.8827    1.4346 H   0  0  0  0  0  0  0  0  0  0  0  0
   -3.2824    1.2134    0.0410 H   0  0  0  0  0  0  0  0  0  0  0  0
   -1.4294    1.5810   -1.5756 H   0  0  0  0  0  0  0  0  0  0  0  0
  1  2  1  0
  2  3  1  0
  3  4  1  0
  4  5  1  0
  5  6  1  0
  6  7  1  0
  7  8  1  0
  8  9  2  0
  8  2  1  0
  7  5  1  0
  1 10  1  0
  1 11  1  0
  1 12  1  0
  2 13  1  0
  3 14  1  0
  3 15  1  0
  4 16  1  0
  4 17  1  0
  5 18  1  0
  6 19  1  0
  6 20  1  0
  7 21  1  0
M  END
