
     RDKit          3D

 21 22  0  0  0  0  0  0  0  0999 V2000
    2.3321   -0.3075    0.2535 C   0  0  0  0  0  0  0  0  0  0  0  0
    0.9017    0.1363    0.4245 C   0  0  0  0  0  0  0  0  0  0  0  0
    0.7146    1.5775    0.1505 C   0  0  0  0  0  0  0  0  0  0  0  0
   -0.5193    1.7448   -0.3031 C   0  0  0  0  0  0  0  0  0  0  0  0
   -1.2387    0.4258   -0.3633 C   0  0  0  0  0  0  0  0  0  0  0  0
   -1.9977    0.1269    0.8842 C   0  0  0  0  0  0  0  0  0  0  0  0
   -0.0436   -0.5107   -0.5242 C   0  0  0  0  0  0  0  0  0  0  0  0
   -0.2029   -1.8194   -0.8855 C   0  0  0  0  0  0  0  0  0  0  0  0
    0.2997   -0.8044   -1.8202 O   0  0  0  0  0  0  0  0  0  0  0  0
    2.5152   -1.1035    1.0052 H   0  0  0  0  0  0  0  0  0  0  0  0
    2.9934    0.5334    0.4910 H   0  0  0  0  0  0  0  0  0  0  0  0
    2.4552   -0.6721   -0.7782 H   0  0  0  0  0  0  0  0  0  0  0  0
    0.5817   -0.0413    1.4698 H   0  0  0  0  0  0  0  0  0  0  0  0
    1.4617    2.3703    0.2956 H   0  0  0  0  0  0  0  0  0  0  0  0
   -0.9721    2.6756   -0.5948 H   0  0  0  0  0  0  0  0  0  0  0  0
   -1.9021    0.4190   -1.2290 H   0  0  0  0  0  0  0  0  0  0  0  0
   -1.4244   -0.3438    1.6841 H   0  0  0  0  0  0  0  0  0  0  0  0
   -2.8089   -0.6070    0.6075 H   0  0  0  0  0  0  0  0  0  0  0  0
   -2.5245    1.0529    1.2228 H   0  0  0  0  0  0  0  0  0  0  0  0
    0.5711   -2.6069   -0.8011 H   0  0  0  0  0  0  0  0  0  0  0  0
   -1.1924   -2.2460   -1.1892 H   0  0  0  0  0  0  0  0  0  0  0  0
  1  2  1  0
  2  3  1  0
  3  4  2  0
  4  5  1  0
  5  6  1  0
  5  7  1  0
  7  8  1  0
  8  9  1  0
  7  2  1  0
  9  7  1  0
  1 10  1  0
  1 11  1  0
  1 12  1  0
  2 13  1  0
  3 14  1  0
  4 15  1  0
  5 16  1  0
  6 17  1  0
  6 18  1  0
  6 19  1  0
  8 20  1  0
  8 21  1  0
M  END
