
     RDKit          3D

 21 22  0  0  0  0  0  0  0  0999 V2000
   -2.0031    0.7510    0.6311 C   0  0  0  0  0  0  0  0  0  0  0  0
   -0.8386    0.2742   -0.1481 C   0  0  0  0  0  0  0  0  0  0  0  0
   -1.2307   -0.9153   -1.0243 C   0  0  0  0  0  0  0  0  0  0  0  0
   -0.0791   -1.6192   -1.2797 O   0  0  0  0  0  0  0  0  0  0  0  0
    0.9112   -1.1732   -0.4322 C   0  0  0  0  0  0  0  0  0  0  0  0
    1.7386   -0.1048   -1.0580 C   0  0  0  0  0  0  0  0  0  0  0  0
    1.9618    0.8698   -0.1895 C   0  0  0  0  0  0  0  0  0  0  0  0
    1.3065    0.5607    1.1175 C   0  0  0  0  0  0  0  0  0  0  0  0
    0.2326   -0.4035    0.6852 C   0  0  0  0  0  0  0  0  0  0  0  0
   -2.8477    0.0375    0.6782 H   0  0  0  0  0  0  0  0  0  0  0  0
   -1.7604    1.0992    1.6498 H   0  0  0  0  0  0  0  0  0  0  0  0
   -2.4186    1.6593    0.1026 H   0  0  0  0  0  0  0  0  0  0  0  0
   -0.3375    1.0650   -0.7429 H   0  0  0  0  0  0  0  0  0  0  0  0
   -1.8643   -1.5694   -0.3544 H   0  0  0  0  0  0  0  0  0  0  0  0
   -1.7836   -0.6001   -1.9145 H   0  0  0  0  0  0  0  0  0  0  0  0
    1.5536   -1.9883   -0.0495 H   0  0  0  0  0  0  0  0  0  0  0  0
    2.1131   -0.1048   -2.0719 H   0  0  0  0  0  0  0  0  0  0  0  0
    2.5400    1.7556   -0.4162 H   0  0  0  0  0  0  0  0  0  0  0  0
    0.9258    1.4527    1.6298 H   0  0  0  0  0  0  0  0  0  0  0  0
    2.0413   -0.0162    1.7096 H   0  0  0  0  0  0  0  0  0  0  0  0
   -0.1612   -1.0302    1.4773 H   0  0  0  0  0  0  0  0  0  0  0  0
  1  2  1  0
  2  3  1  0
  3  4  1  0
  4  5  1  0
  5  6  1  0
  6  7  2  0
  7  8  1  0
  8  9  1  0
  9  2  1  0
  9  5  1  0
  1 10  1  0
  1 11  1  0
  1 12  1  0
  2 13  1  0
  3 14  1  0
  3 15  1  0
  5 16  1  0
  6 17  1  0
  7 18  1  0
  8 19  1  0
  8 20  1  0
  9 21  1  0
M  END
