
     RDKit          3D

 21 21  0  0  0  0  0  0  0  0999 V2000
   -2.4162   -0.8459   -0.3681 C   0  0  0  0  0  0  0  0  0  0  0  0
   -1.2579   -0.1436    0.2779 C   0  0  0  0  0  0  0  0  0  0  0  0
   -0.1258   -1.0062    0.6915 C   0  0  0  0  0  0  0  0  0  0  0  0
    0.0896   -1.7535    1.6271 O   0  0  0  0  0  0  0  0  0  0  0  0
    0.6126   -0.5628   -0.5167 C   0  0  0  0  0  0  0  0  0  0  0  0
    2.0431   -0.1658   -0.2395 C   0  0  0  0  0  0  0  0  0  0  0  0
    2.6826   -1.2985    0.2933 O   0  0  0  0  0  0  0  0  0  0  0  0
   -0.3508    0.5640   -0.7300 C   0  0  0  0  0  0  0  0  0  0  0  0
    0.0641    1.9019   -0.1950 C   0  0  0  0  0  0  0  0  0  0  0  0
   -3.3250   -0.2278   -0.1625 H   0  0  0  0  0  0  0  0  0  0  0  0
   -2.5053   -1.8728    0.0020 H   0  0  0  0  0  0  0  0  0  0  0  0
   -2.2247   -0.8810   -1.4637 H   0  0  0  0  0  0  0  0  0  0  0  0
   -1.5625    0.5037    1.1369 H   0  0  0  0  0  0  0  0  0  0  0  0
    0.5435   -1.3119   -1.3181 H   0  0  0  0  0  0  0  0  0  0  0  0
    2.5670    0.0508   -1.1930 H   0  0  0  0  0  0  0  0  0  0  0  0
    2.1389    0.7179    0.3924 H   0  0  0  0  0  0  0  0  0  0  0  0
    3.4369   -0.9958    0.8529 H   0  0  0  0  0  0  0  0  0  0  0  0
   -0.7723    0.6196   -1.7536 H   0  0  0  0  0  0  0  0  0  0  0  0
    0.8879    2.3665   -0.7432 H   0  0  0  0  0  0  0  0  0  0  0  0
    0.2995    1.7724    0.8958 H   0  0  0  0  0  0  0  0  0  0  0  0
   -0.8250    2.5686   -0.2206 H   0  0  0  0  0  0  0  0  0  0  0  0
  1  2  1  0
  2  3  1  0
  3  4  2  0
  3  5  1  0
  5  6  1  0
  6  7  1  0
  5  8  1  0
  8  9  1  0
  8  2  1  0
  1 10  1  0
  1 11  1  0
  1 12  1  0
  2 13  1  0
  5 14  1  0
  6 15  1  0
  6 16  1  0
  7 17  1  0
  8 18  1  0
  9 19  1  0
  9 20  1  0
  9 21  1  0
M  END
