
     RDKit          3D

 21 21  0  0  0  0  0  0  0  0999 V2000
   -0.2876   -1.7534    0.7900 C   0  0  0  0  0  0  0  0  0  0  0  0
   -0.5770   -0.7083   -0.2592 C   0  0  0  0  0  0  0  0  0  0  0  0
   -1.7495    0.0815    0.2586 C   0  0  0  0  0  0  0  0  0  0  0  0
   -1.7733    1.3954    0.1216 C   0  0  0  0  0  0  0  0  0  0  0  0
   -0.6194    2.0393   -0.5496 C   0  0  0  0  0  0  0  0  0  0  0  0
    0.5345    1.4211   -0.0134 O   0  0  0  0  0  0  0  0  0  0  0  0
    0.5747    0.1545   -0.5998 C   0  0  0  0  0  0  0  0  0  0  0  0
    1.9227   -0.4303   -0.3138 C   0  0  0  0  0  0  0  0  0  0  0  0
    2.0561   -0.5047    1.0861 O   0  0  0  0  0  0  0  0  0  0  0  0
   -1.2264   -2.3571    0.8992 H   0  0  0  0  0  0  0  0  0  0  0  0
    0.4883   -2.4785    0.4699 H   0  0  0  0  0  0  0  0  0  0  0  0
   -0.0499   -1.3014    1.7784 H   0  0  0  0  0  0  0  0  0  0  0  0
   -0.9910   -1.2698   -1.1484 H   0  0  0  0  0  0  0  0  0  0  0  0
   -2.5650   -0.4283    0.7392 H   0  0  0  0  0  0  0  0  0  0  0  0
   -2.5882    1.9636    0.4792 H   0  0  0  0  0  0  0  0  0  0  0  0
   -0.6855    1.7433   -1.6326 H   0  0  0  0  0  0  0  0  0  0  0  0
   -0.5636    3.1164   -0.4025 H   0  0  0  0  0  0  0  0  0  0  0  0
    0.5396    0.3489   -1.7122 H   0  0  0  0  0  0  0  0  0  0  0  0
    2.1122   -1.4040   -0.7594 H   0  0  0  0  0  0  0  0  0  0  0  0
    2.6837    0.3028   -0.6572 H   0  0  0  0  0  0  0  0  0  0  0  0
    2.7645    0.0689    1.4258 H   0  0  0  0  0  0  0  0  0  0  0  0
  1  2  1  0
  2  3  1  0
  3  4  2  0
  4  5  1  0
  5  6  1  0
  6  7  1  0
  7  8  1  0
  8  9  1  0
  7  2  1  0
  1 10  1  0
  1 11  1  0
  1 12  1  0
  2 13  1  0
  3 14  1  0
  4 15  1  0
  5 16  1  0
  5 17  1  0
  7 18  1  0
  8 19  1  0
  8 20  1  0
  9 21  1  0
M  END
