
     RDKit          3D

 21 23  0  0  0  0  0  0  0  0999 V2000
   -2.3508   -0.5102    0.0360 C   0  0  0  0  0  0  0  0  0  0  0  0
   -0.8888   -0.2229    0.2095 C   0  0  0  0  0  0  0  0  0  0  0  0
   -0.4794    1.1266   -0.3137 C   0  0  0  0  0  0  0  0  0  0  0  0
    0.5516    1.8242    0.5128 C   0  0  0  0  0  0  0  0  0  0  0  0
    0.9722    1.0469   -0.6517 C   0  0  0  0  0  0  0  0  0  0  0  0
    1.2935   -0.3935   -0.6351 C   0  0  0  0  0  0  0  0  0  0  0  0
    1.6421   -1.0258    0.6696 C   0  0  0  0  0  0  0  0  0  0  0  0
    0.7130   -2.0430    0.3768 O   0  0  0  0  0  0  0  0  0  0  0  0
    0.0129   -1.1750   -0.4858 C   0  0  0  0  0  0  0  0  0  0  0  0
   -2.5839   -1.4270    0.6096 H   0  0  0  0  0  0  0  0  0  0  0  0
   -2.6289   -0.5472   -1.0193 H   0  0  0  0  0  0  0  0  0  0  0  0
   -2.9028    0.3177    0.5622 H   0  0  0  0  0  0  0  0  0  0  0  0
   -0.6734   -0.2890    1.3101 H   0  0  0  0  0  0  0  0  0  0  0  0
   -1.0976    1.6630   -1.0456 H   0  0  0  0  0  0  0  0  0  0  0  0
    0.6034    2.9268    0.4403 H   0  0  0  0  0  0  0  0  0  0  0  0
    0.7370    1.4554    1.5402 H   0  0  0  0  0  0  0  0  0  0  0  0
    1.3630    1.6174   -1.5409 H   0  0  0  0  0  0  0  0  0  0  0  0
    1.9585   -0.7423   -1.4444 H   0  0  0  0  0  0  0  0  0  0  0  0
    2.6562   -1.5071    0.7101 H   0  0  0  0  0  0  0  0  0  0  0  0
    1.4358   -0.4628    1.5813 H   0  0  0  0  0  0  0  0  0  0  0  0
   -0.3337   -1.6322   -1.4220 H   0  0  0  0  0  0  0  0  0  0  0  0
  1  2  1  0
  2  3  1  0
  3  4  1  0
  4  5  1  0
  5  6  1  0
  6  7  1  0
  7  8  1  0
  8  9  1  0
  9  2  1  0
  5  3  1  0
  9  6  1  0
  1 10  1  0
  1 11  1  0
  1 12  1  0
  2 13  1  0
  3 14  1  0
  4 15  1  0
  4 16  1  0
  5 17  1  0
  6 18  1  0
  7 19  1  0
  7 20  1  0
  9 21  1  0
M  END
