
     RDKit          3D

 21 21  0  0  0  0  0  0  0  0999 V2000
    2.5798    0.7480    0.2506 C   0  0  0  0  0  0  0  0  0  0  0  0
    1.1790    0.2308    0.2173 C   0  0  0  0  0  0  0  0  0  0  0  0
    1.1437   -1.2686    0.1358 C   0  0  0  0  0  0  0  0  0  0  0  0
   -0.0747   -1.7940    0.0670 C   0  0  0  0  0  0  0  0  0  0  0  0
   -1.2079   -0.8266    0.0812 C   0  0  0  0  0  0  0  0  0  0  0  0
   -2.3759   -1.4140   -0.4123 O   0  0  0  0  0  0  0  0  0  0  0  0
   -0.8938    0.3859   -0.7237 C   0  0  0  0  0  0  0  0  0  0  0  0
   -1.6004    1.6185   -0.1710 C   0  0  0  0  0  0  0  0  0  0  0  0
    0.4396    0.6985   -0.8459 O   0  0  0  0  0  0  0  0  0  0  0  0
    2.5413    1.8444    0.3196 H   0  0  0  0  0  0  0  0  0  0  0  0
    3.0704    0.3123    1.1596 H   0  0  0  0  0  0  0  0  0  0  0  0
    3.1427    0.4896   -0.6710 H   0  0  0  0  0  0  0  0  0  0  0  0
    0.6716    0.5554    1.1588 H   0  0  0  0  0  0  0  0  0  0  0  0
    2.0101   -1.8943    0.1311 H   0  0  0  0  0  0  0  0  0  0  0  0
   -0.1874   -2.8686    0.0056 H   0  0  0  0  0  0  0  0  0  0  0  0
   -1.4476   -0.5567    1.1524 H   0  0  0  0  0  0  0  0  0  0  0  0
   -2.4377   -2.3117    0.0408 H   0  0  0  0  0  0  0  0  0  0  0  0
   -1.2769    0.2180   -1.7724 H   0  0  0  0  0  0  0  0  0  0  0  0
   -2.6404    1.6854   -0.5572 H   0  0  0  0  0  0  0  0  0  0  0  0
   -1.5440    1.5914    0.9301 H   0  0  0  0  0  0  0  0  0  0  0  0
   -1.0916    2.5562   -0.4968 H   0  0  0  0  0  0  0  0  0  0  0  0
  1  2  1  0
  2  3  1  0
  3  4  2  0
  4  5  1  0
  5  6  1  0
  5  7  1  0
  7  8  1  0
  7  9  1  0
  9  2  1  0
  1 10  1  0
  1 11  1  0
  1 12  1  0
  2 13  1  0
  3 14  1  0
  4 15  1  0
  5 16  1  0
  6 17  1  0
  7 18  1  0
  8 19  1  0
  8 20  1  0
  8 21  1  0
M  END
