
     RDKit          3D

 23 24  0  0  0  0  0  0  0  0999 V2000
    2.8202    0.4708   -0.1114 C   0  0  0  0  0  0  0  0  0  0  0  0
    1.3884    0.2035    0.2575 C   0  0  0  0  0  0  0  0  0  0  0  0
    0.9387   -1.1809   -0.1646 C   0  0  0  0  0  0  0  0  0  0  0  0
   -0.5487   -1.2942    0.0785 C   0  0  0  0  0  0  0  0  0  0  0  0
   -1.2949   -0.0734   -0.3812 C   0  0  0  0  0  0  0  0  0  0  0  0
   -2.2763    0.6213    0.4548 C   0  0  0  0  0  0  0  0  0  0  0  0
   -2.7202   -0.2535   -0.6961 C   0  0  0  0  0  0  0  0  0  0  0  0
   -0.4448    0.6639   -1.2067 O   0  0  0  0  0  0  0  0  0  0  0  0
    0.5012    1.2628   -0.3540 C   0  0  0  0  0  0  0  0  0  0  0  0
    2.8790    1.3356   -0.8210 H   0  0  0  0  0  0  0  0  0  0  0  0
    3.4477    0.7570    0.7742 H   0  0  0  0  0  0  0  0  0  0  0  0
    3.2816   -0.4050   -0.5876 H   0  0  0  0  0  0  0  0  0  0  0  0
    1.3402    0.2182    1.3789 H   0  0  0  0  0  0  0  0  0  0  0  0
    1.4265   -1.9394    0.4833 H   0  0  0  0  0  0  0  0  0  0  0  0
    1.2218   -1.4260   -1.2022 H   0  0  0  0  0  0  0  0  0  0  0  0
   -0.7939   -1.5954    1.1127 H   0  0  0  0  0  0  0  0  0  0  0  0
   -0.9029   -2.1448   -0.5694 H   0  0  0  0  0  0  0  0  0  0  0  0
   -2.5672    0.3044    1.4654 H   0  0  0  0  0  0  0  0  0  0  0  0
   -2.4201    1.7081    0.2584 H   0  0  0  0  0  0  0  0  0  0  0  0
   -3.1376    0.2142   -1.6011 H   0  0  0  0  0  0  0  0  0  0  0  0
   -3.2214   -1.2114   -0.3991 H   0  0  0  0  0  0  0  0  0  0  0  0
    1.1076    1.9870   -0.9428 H   0  0  0  0  0  0  0  0  0  0  0  0
   -0.0250    1.7773    0.4901 H   0  0  0  0  0  0  0  0  0  0  0  0
  1  2  1  0
  2  3  1  0
  3  4  1  0
  4  5  1  0
  5  6  1  0
  6  7  1  0
  5  8  1  0
  8  9  1  0
  9  2  1  0
  7  5  1  0
  1 10  1  0
  1 11  1  0
  1 12  1  0
  2 13  1  0
  3 14  1  0
  3 15  1  0
  4 16  1  0
  4 17  1  0
  6 18  1  0
  6 19  1  0
  7 20  1  0
  7 21  1  0
  9 22  1  0
  9 23  1  0
M  END
