
     RDKit          3D

 20 21  0  0  0  0  0  0  0  0999 V2000
    2.6429   -0.5230    0.0984 C   0  0  0  0  0  0  0  0  0  0  0  0
    1.4481    0.2988   -0.3128 C   0  0  0  0  0  0  0  0  0  0  0  0
    0.9279    1.2136    0.7572 C   0  0  0  0  0  0  0  0  0  0  0  0
    0.1480   -0.0036    0.2967 C   0  0  0  0  0  0  0  0  0  0  0  0
   -1.1541    0.3115   -0.3567 C   0  0  0  0  0  0  0  0  0  0  0  0
   -2.3108   -0.1243    0.5267 C   0  0  0  0  0  0  0  0  0  0  0  0
   -2.4720   -1.3076   -0.1691 O   0  0  0  0  0  0  0  0  0  0  0  0
   -1.7426   -0.7457   -1.2441 C   0  0  0  0  0  0  0  0  0  0  0  0
    2.4200   -1.0647    1.0544 H   0  0  0  0  0  0  0  0  0  0  0  0
    2.9545   -1.2652   -0.6338 H   0  0  0  0  0  0  0  0  0  0  0  0
    3.4779    0.1772    0.3615 H   0  0  0  0  0  0  0  0  0  0  0  0
    1.4482    0.6604   -1.3653 H   0  0  0  0  0  0  0  0  0  0  0  0
    1.3964    1.1912    1.7627 H   0  0  0  0  0  0  0  0  0  0  0  0
    0.6121    2.2136    0.4051 H   0  0  0  0  0  0  0  0  0  0  0  0
    0.1317   -0.8825    0.9879 H   0  0  0  0  0  0  0  0  0  0  0  0
   -1.2279    1.3090   -0.7826 H   0  0  0  0  0  0  0  0  0  0  0  0
   -2.0078   -0.3354    1.5843 H   0  0  0  0  0  0  0  0  0  0  0  0
   -3.1293    0.6026    0.4773 H   0  0  0  0  0  0  0  0  0  0  0  0
   -2.5072   -0.2887   -1.9383 H   0  0  0  0  0  0  0  0  0  0  0  0
   -1.0560   -1.4373   -1.7301 H   0  0  0  0  0  0  0  0  0  0  0  0
  1  2  1  0
  2  3  1  0
  3  4  1  0
  4  5  1  0
  5  6  1  0
  6  7  1  0
  7  8  1  0
  4  2  1  0
  8  5  1  0
  1  9  1  0
  1 10  1  0
  1 11  1  0
  2 12  1  0
  3 13  1  0
  3 14  1  0
  4 15  1  0
  5 16  1  0
  6 17  1  0
  6 18  1  0
  8 19  1  0
  8 20  1  0
M  END
