
     RDKit          3D

 21 22  0  0  0  0  0  0  0  0999 V2000
    0.4296    2.0941   -0.3335 C   0  0  0  0  0  0  0  0  0  0  0  0
    0.0103    0.6876   -0.5708 C   0  0  0  0  0  0  0  0  0  0  0  0
   -1.3538    0.3654    0.0514 C   0  0  0  0  0  0  0  0  0  0  0  0
   -1.3154   -1.1629   -0.0713 C   0  0  0  0  0  0  0  0  0  0  0  0
   -2.3493   -1.7710    0.5772 O   0  0  0  0  0  0  0  0  0  0  0  0
    0.0400   -1.4330    0.5985 C   0  0  0  0  0  0  0  0  0  0  0  0
    0.8844   -0.3509    0.0231 C   0  0  0  0  0  0  0  0  0  0  0  0
    2.2759   -0.3140    0.2108 C   0  0  0  0  0  0  0  0  0  0  0  0
    1.8188   -0.8900   -1.0025 O   0  0  0  0  0  0  0  0  0  0  0  0
   -0.4514    2.7557   -0.0837 H   0  0  0  0  0  0  0  0  0  0  0  0
    0.8355    2.5467   -1.2836 H   0  0  0  0  0  0  0  0  0  0  0  0
    1.2212    2.2142    0.4198 H   0  0  0  0  0  0  0  0  0  0  0  0
   -0.1357    0.5496   -1.6800 H   0  0  0  0  0  0  0  0  0  0  0  0
   -1.3080    0.6529    1.1153 H   0  0  0  0  0  0  0  0  0  0  0  0
   -2.1740    0.8053   -0.5144 H   0  0  0  0  0  0  0  0  0  0  0  0
   -1.2558   -1.4171   -1.1519 H   0  0  0  0  0  0  0  0  0  0  0  0
   -3.1207   -1.1883    0.6906 H   0  0  0  0  0  0  0  0  0  0  0  0
    0.3929   -2.4468    0.4267 H   0  0  0  0  0  0  0  0  0  0  0  0
   -0.1327   -1.2046    1.6793 H   0  0  0  0  0  0  0  0  0  0  0  0
    2.9214    0.5793    0.0482 H   0  0  0  0  0  0  0  0  0  0  0  0
    2.7670   -1.0720    0.8507 H   0  0  0  0  0  0  0  0  0  0  0  0
  1  2  1  0
  2  3  1  0
  3  4  1  0
  4  5  1  0
  4  6  1  0
  6  7  1  0
  7  8  1  0
  8  9  1  0
  7  2  1  0
  9  7  1  0
  1 10  1  0
  1 11  1  0
  1 12  1  0
  2 13  1  0
  3 14  1  0
  3 15  1  0
  4 16  1  0
  5 17  1  0
  6 18  1  0
  6 19  1  0
  8 20  1  0
  8 21  1  0
M  END
