
     RDKit          3D

 21 21  0  0  0  0  0  0  0  0999 V2000
    2.0486   -0.7999   -0.3328 C   0  0  0  0  0  0  0  0  0  0  0  0
    0.6528   -0.7463    0.1486 C   0  0  0  0  0  0  0  0  0  0  0  0
    0.5103   -0.6259    1.6464 C   0  0  0  0  0  0  0  0  0  0  0  0
   -0.8121   -0.2868    1.8001 O   0  0  0  0  0  0  0  0  0  0  0  0
   -1.2119    0.4864    0.7505 C   0  0  0  0  0  0  0  0  0  0  0  0
   -2.4842   -0.0751    0.1066 C   0  0  0  0  0  0  0  0  0  0  0  0
   -0.1305    0.4509   -0.3059 C   0  0  0  0  0  0  0  0  0  0  0  0
    0.6347    1.7139   -0.2138 C   0  0  0  0  0  0  0  0  0  0  0  0
    1.7156    1.8366    0.3114 O   0  0  0  0  0  0  0  0  0  0  0  0
    2.7716   -0.2491    0.2948 H   0  0  0  0  0  0  0  0  0  0  0  0
    2.0822   -0.4281   -1.3837 H   0  0  0  0  0  0  0  0  0  0  0  0
    2.3368   -1.8900   -0.4137 H   0  0  0  0  0  0  0  0  0  0  0  0
    0.0878   -1.6489   -0.1719 H   0  0  0  0  0  0  0  0  0  0  0  0
    1.2068    0.1029    2.0725 H   0  0  0  0  0  0  0  0  0  0  0  0
    0.7672   -1.6201    2.0758 H   0  0  0  0  0  0  0  0  0  0  0  0
   -1.4459    1.5058    1.0914 H   0  0  0  0  0  0  0  0  0  0  0  0
   -3.3375    0.6103    0.2497 H   0  0  0  0  0  0  0  0  0  0  0  0
   -2.3588   -0.2113   -0.9855 H   0  0  0  0  0  0  0  0  0  0  0  0
   -2.6996   -1.0705    0.5258 H   0  0  0  0  0  0  0  0  0  0  0  0
   -0.5261    0.3476   -1.3170 H   0  0  0  0  0  0  0  0  0  0  0  0
    0.1921    2.5977   -0.6509 H   0  0  0  0  0  0  0  0  0  0  0  0
  1  2  1  0
  2  3  1  0
  3  4  1  0
  4  5  1  0
  5  6  1  0
  5  7  1  0
  7  8  1  0
  8  9  2  0
  7  2  1  0
  1 10  1  0
  1 11  1  0
  1 12  1  0
  2 13  1  0
  3 14  1  0
  3 15  1  0
  5 16  1  0
  6 17  1  0
  6 18  1  0
  6 19  1  0
  7 20  1  0
  8 21  1  0
M  END
