
     RDKit          3D

 21 21  0  0  0  0  0  0  0  0999 V2000
   -1.1024   -1.6636    0.0390 C   0  0  0  0  0  0  0  0  0  0  0  0
   -0.7231   -0.2364   -0.1994 C   0  0  0  0  0  0  0  0  0  0  0  0
   -1.5257    0.7425    0.6263 C   0  0  0  0  0  0  0  0  0  0  0  0
   -0.7706    1.9940    0.4007 C   0  0  0  0  0  0  0  0  0  0  0  0
   -1.2300    3.1062    0.3983 O   0  0  0  0  0  0  0  0  0  0  0  0
    0.6390    1.6311    0.1809 C   0  0  0  0  0  0  0  0  0  0  0  0
    0.6754    0.0967    0.1940 C   0  0  0  0  0  0  0  0  0  0  0  0
    1.6948   -0.4334   -0.7895 C   0  0  0  0  0  0  0  0  0  0  0  0
    1.5379   -1.8192   -0.8197 O   0  0  0  0  0  0  0  0  0  0  0  0
   -0.7704   -2.0043    1.0150 H   0  0  0  0  0  0  0  0  0  0  0  0
   -2.2265   -1.7063    0.0284 H   0  0  0  0  0  0  0  0  0  0  0  0
   -0.7655   -2.2712   -0.8123 H   0  0  0  0  0  0  0  0  0  0  0  0
   -0.8581    0.0440   -1.2620 H   0  0  0  0  0  0  0  0  0  0  0  0
   -2.5791    0.8056    0.3017 H   0  0  0  0  0  0  0  0  0  0  0  0
   -1.4924    0.4317    1.7089 H   0  0  0  0  0  0  0  0  0  0  0  0
    1.3323    2.0466    0.9439 H   0  0  0  0  0  0  0  0  0  0  0  0
    1.0051    1.8989   -0.8420 H   0  0  0  0  0  0  0  0  0  0  0  0
    0.8648   -0.2119    1.2204 H   0  0  0  0  0  0  0  0  0  0  0  0
    1.4880   -0.0198   -1.7921 H   0  0  0  0  0  0  0  0  0  0  0  0
    2.7266   -0.2288   -0.4804 H   0  0  0  0  0  0  0  0  0  0  0  0
    2.0799   -2.2024   -0.0600 H   0  0  0  0  0  0  0  0  0  0  0  0
  1  2  1  0
  2  3  1  0
  3  4  1  0
  4  5  2  0
  4  6  1  0
  6  7  1  0
  7  8  1  0
  8  9  1  0
  7  2  1  0
  1 10  1  0
  1 11  1  0
  1 12  1  0
  2 13  1  0
  3 14  1  0
  3 15  1  0
  6 16  1  0
  6 17  1  0
  7 18  1  0
  8 19  1  0
  8 20  1  0
  9 21  1  0
M  END
