
     RDKit          3D

 17 18  0  0  0  0  0  0  0  0999 V2000
    1.7240   -0.4625   -0.1545 C   0  0  0  0  0  0  0  0  0  0  0  0
    0.4915    0.0412    0.5697 C   0  0  0  0  0  0  0  0  0  0  0  0
   -0.1793    1.0408   -0.3464 C   0  0  0  0  0  0  0  0  0  0  0  0
   -0.2798    2.2413    0.3138 O   0  0  0  0  0  0  0  0  0  0  0  0
   -1.4654    0.4250   -0.6985 C   0  0  0  0  0  0  0  0  0  0  0  0
   -2.4039    0.9202   -1.2975 O   0  0  0  0  0  0  0  0  0  0  0  0
   -1.4805   -0.9770   -0.1978 C   0  0  0  0  0  0  0  0  0  0  0  0
   -1.7029   -0.9353    1.2685 O   0  0  0  0  0  0  0  0  0  0  0  0
   -0.4517   -1.1213    0.7153 C   0  0  0  0  0  0  0  0  0  0  0  0
    2.4462    0.3750   -0.2393 H   0  0  0  0  0  0  0  0  0  0  0  0
    2.1783   -1.3326    0.3605 H   0  0  0  0  0  0  0  0  0  0  0  0
    1.3752   -0.7780   -1.1682 H   0  0  0  0  0  0  0  0  0  0  0  0
    0.7566    0.4820    1.5489 H   0  0  0  0  0  0  0  0  0  0  0  0
    0.3919    1.2130   -1.2833 H   0  0  0  0  0  0  0  0  0  0  0  0
    0.6169    2.6735    0.2778 H   0  0  0  0  0  0  0  0  0  0  0  0
   -2.0650   -1.7461   -0.7078 H   0  0  0  0  0  0  0  0  0  0  0  0
    0.0481   -2.0590    1.0388 H   0  0  0  0  0  0  0  0  0  0  0  0
  1  2  1  0
  2  3  1  0
  3  4  1  0
  3  5  1  0
  5  6  2  0
  5  7  1  0
  7  8  1  0
  8  9  1  0
  9  2  1  0
  9  7  1  0
  1 10  1  0
  1 11  1  0
  1 12  1  0
  2 13  1  0
  3 14  1  0
  4 15  1  0
  7 16  1  0
  9 17  1  0
M  END
