
     RDKit          3D

 17 18  0  0  0  0  0  0  0  0999 V2000
   -2.1152   -0.3904   -0.1343 C   0  0  0  0  0  0  0  0  0  0  0  0
   -0.6740   -0.2402    0.2977 C   0  0  0  0  0  0  0  0  0  0  0  0
    0.2103   -1.2474   -0.3141 C   0  0  0  0  0  0  0  0  0  0  0  0
    1.5126   -1.0253   -0.2105 C   0  0  0  0  0  0  0  0  0  0  0  0
    1.9150    0.1897    0.4941 C   0  0  0  0  0  0  0  0  0  0  0  0
    2.8485    0.1007    1.3677 O   0  0  0  0  0  0  0  0  0  0  0  0
    1.2216    1.4379    0.1524 C   0  0  0  0  0  0  0  0  0  0  0  0
    0.2020    1.9747    0.8871 O   0  0  0  0  0  0  0  0  0  0  0  0
   -0.2261    1.1223   -0.1273 C   0  0  0  0  0  0  0  0  0  0  0  0
   -2.7186   -0.7556    0.7422 H   0  0  0  0  0  0  0  0  0  0  0  0
   -2.5512    0.5618   -0.5051 H   0  0  0  0  0  0  0  0  0  0  0  0
   -2.2039   -1.1420   -0.9420 H   0  0  0  0  0  0  0  0  0  0  0  0
   -0.5981   -0.3272    1.4238 H   0  0  0  0  0  0  0  0  0  0  0  0
   -0.1435   -2.1312   -0.8284 H   0  0  0  0  0  0  0  0  0  0  0  0
    2.2499   -1.7169   -0.6232 H   0  0  0  0  0  0  0  0  0  0  0  0
    1.7335    2.0500   -0.6282 H   0  0  0  0  0  0  0  0  0  0  0  0
   -0.6627    1.5393   -1.0520 H   0  0  0  0  0  0  0  0  0  0  0  0
  1  2  1  0
  2  3  1  0
  3  4  2  0
  4  5  1  0
  5  6  2  0
  5  7  1  0
  7  8  1  0
  8  9  1  0
  9  2  1  0
  9  7  1  0
  1 10  1  0
  1 11  1  0
  1 12  1  0
  2 13  1  0
  3 14  1  0
  4 15  1  0
  7 16  1  0
  9 17  1  0
M  END
