
     RDKit          3D

 17 17  0  0  0  0  0  0  0  0999 V2000
   -1.6319   -1.0339   -0.0592 C   0  0  0  0  0  0  0  0  0  0  0  0
   -1.0621    0.2466    0.5454 C   0  0  0  0  0  0  0  0  0  0  0  0
   -0.7146    1.2523   -0.4960 C   0  0  0  0  0  0  0  0  0  0  0  0
    0.6476    0.8575   -0.8993 C   0  0  0  0  0  0  0  0  0  0  0  0
    1.2114    0.0726    0.0020 C   0  0  0  0  0  0  0  0  0  0  0  0
    2.5384   -0.5058   -0.0578 C   0  0  0  0  0  0  0  0  0  0  0  0
    2.9467   -1.2294    0.8620 O   0  0  0  0  0  0  0  0  0  0  0  0
    0.2585   -0.1301    1.1073 C   0  0  0  0  0  0  0  0  0  0  0  0
    0.5030   -0.5261    2.2502 O   0  0  0  0  0  0  0  0  0  0  0  0
   -1.8515   -1.7296    0.7679 H   0  0  0  0  0  0  0  0  0  0  0  0
   -2.5538   -0.8633   -0.6190 H   0  0  0  0  0  0  0  0  0  0  0  0
   -0.8209   -1.4427   -0.7040 H   0  0  0  0  0  0  0  0  0  0  0  0
   -1.7250    0.6276    1.3416 H   0  0  0  0  0  0  0  0  0  0  0  0
   -0.6199    2.2461    0.0147 H   0  0  0  0  0  0  0  0  0  0  0  0
   -1.4198    1.2974   -1.3439 H   0  0  0  0  0  0  0  0  0  0  0  0
    1.1274    1.1614   -1.8025 H   0  0  0  0  0  0  0  0  0  0  0  0
    3.1665   -0.3007   -0.9093 H   0  0  0  0  0  0  0  0  0  0  0  0
  1  2  1  0
  2  3  1  0
  3  4  1  0
  4  5  2  0
  5  6  1  0
  6  7  2  0
  5  8  1  0
  8  9  2  0
  8  2  1  0
  1 10  1  0
  1 11  1  0
  1 12  1  0
  2 13  1  0
  3 14  1  0
  3 15  1  0
  4 16  1  0
  6 17  1  0
M  END
