
     RDKit          3D

 18 20  0  0  0  0  0  0  0  0999 V2000
    2.2528   -0.0470    0.8156 C   0  0  0  0  0  0  0  0  0  0  0  0
    1.5141    0.1810   -0.4725 C   0  0  0  0  0  0  0  0  0  0  0  0
    0.4193   -0.7135   -0.8934 C   0  0  0  0  0  0  0  0  0  0  0  0
   -0.5572   -1.1736    0.1299 C   0  0  0  0  0  0  0  0  0  0  0  0
   -0.7175   -0.5560    1.3356 O   0  0  0  0  0  0  0  0  0  0  0  0
   -0.9751    0.2870    0.2989 C   0  0  0  0  0  0  0  0  0  0  0  0
   -2.3697    0.5510   -0.1907 C   0  0  0  0  0  0  0  0  0  0  0  0
    0.1658    0.7785   -0.5118 C   0  0  0  0  0  0  0  0  0  0  0  0
    3.2460   -0.5114    0.5544 H   0  0  0  0  0  0  0  0  0  0  0  0
    2.4859    0.9669    1.2357 H   0  0  0  0  0  0  0  0  0  0  0  0
    1.7300   -0.6981    1.5270 H   0  0  0  0  0  0  0  0  0  0  0  0
    2.1929    0.5116   -1.3071 H   0  0  0  0  0  0  0  0  0  0  0  0
    0.1983   -0.9429   -1.9353 H   0  0  0  0  0  0  0  0  0  0  0  0
   -1.3153   -1.9216   -0.1289 H   0  0  0  0  0  0  0  0  0  0  0  0
   -3.0239   -0.3478   -0.1666 H   0  0  0  0  0  0  0  0  0  0  0  0
   -2.2813    0.8084   -1.2878 H   0  0  0  0  0  0  0  0  0  0  0  0
   -2.8568    1.3738    0.3433 H   0  0  0  0  0  0  0  0  0  0  0  0
   -0.1083    1.4536   -1.3459 H   0  0  0  0  0  0  0  0  0  0  0  0
  1  2  1  0
  2  3  1  0
  3  4  1  0
  4  5  1  0
  5  6  1  0
  6  7  1  0
  6  8  1  0
  8  2  1  0
  8  3  1  0
  6  4  1  0
  1  9  1  0
  1 10  1  0
  1 11  1  0
  2 12  1  0
  3 13  1  0
  4 14  1  0
  7 15  1  0
  7 16  1  0
  7 17  1  0
  8 18  1  0
M  END
