
     RDKit          3D

 21 22  0  0  0  0  0  0  0  0999 V2000
    1.8965   -0.7080   -0.3650 C   0  0  0  0  0  0  0  0  0  0  0  0
    0.9929   -0.1955    0.7459 C   0  0  0  0  0  0  0  0  0  0  0  0
    1.1663    1.2747    0.7772 C   0  0  0  0  0  0  0  0  0  0  0  0
    0.2028    1.8519    0.0763 C   0  0  0  0  0  0  0  0  0  0  0  0
   -0.6914    0.7999   -0.4769 C   0  0  0  0  0  0  0  0  0  0  0  0
   -1.9852    0.7925    0.2914 C   0  0  0  0  0  0  0  0  0  0  0  0
   -1.3492    0.0816    1.3256 O   0  0  0  0  0  0  0  0  0  0  0  0
   -0.4375   -0.3882    0.4312 C   0  0  0  0  0  0  0  0  0  0  0  0
   -0.8546   -1.7123   -0.1446 C   0  0  0  0  0  0  0  0  0  0  0  0
    1.6605   -1.7218   -0.6818 H   0  0  0  0  0  0  0  0  0  0  0  0
    1.8809    0.0238   -1.2202 H   0  0  0  0  0  0  0  0  0  0  0  0
    2.9337   -0.6645    0.0280 H   0  0  0  0  0  0  0  0  0  0  0  0
    1.3162   -0.6241    1.7156 H   0  0  0  0  0  0  0  0  0  0  0  0
    1.9928    1.7874    1.3178 H   0  0  0  0  0  0  0  0  0  0  0  0
    0.0430    2.9102   -0.0990 H   0  0  0  0  0  0  0  0  0  0  0  0
   -0.7042    0.6349   -1.5415 H   0  0  0  0  0  0  0  0  0  0  0  0
   -2.2653    1.7896    0.6476 H   0  0  0  0  0  0  0  0  0  0  0  0
   -2.7958    0.1927   -0.1328 H   0  0  0  0  0  0  0  0  0  0  0  0
   -0.4400   -1.9253   -1.1357 H   0  0  0  0  0  0  0  0  0  0  0  0
   -1.9697   -1.7098   -0.1868 H   0  0  0  0  0  0  0  0  0  0  0  0
   -0.5926   -2.4897    0.6098 H   0  0  0  0  0  0  0  0  0  0  0  0
  1  2  1  0
  2  3  1  0
  3  4  2  0
  4  5  1  0
  5  6  1  0
  6  7  1  0
  7  8  1  0
  8  9  1  0
  8  2  1  0
  8  5  1  0
  1 10  1  0
  1 11  1  0
  1 12  1  0
  2 13  1  0
  3 14  1  0
  4 15  1  0
  5 16  1  0
  6 17  1  0
  6 18  1  0
  9 19  1  0
  9 20  1  0
  9 21  1  0
M  END
