
     RDKit          3D

 18 20  0  0  0  0  0  0  0  0999 V2000
    1.8309    0.1883   -0.2486 C   0  0  0  0  0  0  0  0  0  0  0  0
    0.6954   -0.6845    0.1416 C   0  0  0  0  0  0  0  0  0  0  0  0
   -0.4953   -0.7077   -0.7869 C   0  0  0  0  0  0  0  0  0  0  0  0
   -1.3146   -0.9832    0.4835 C   0  0  0  0  0  0  0  0  0  0  0  0
   -0.2864   -0.0240    1.1004 C   0  0  0  0  0  0  0  0  0  0  0  0
   -0.6557    1.2532    0.4246 C   0  0  0  0  0  0  0  0  0  0  0  0
   -1.8526    1.3412   -0.2937 O   0  0  0  0  0  0  0  0  0  0  0  0
   -0.8224    0.7391   -1.0201 C   0  0  0  0  0  0  0  0  0  0  0  0
    1.5727    0.9615   -0.9712 H   0  0  0  0  0  0  0  0  0  0  0  0
    2.2179    0.6794    0.6924 H   0  0  0  0  0  0  0  0  0  0  0  0
    2.6921   -0.4469   -0.5914 H   0  0  0  0  0  0  0  0  0  0  0  0
    0.9690   -1.7026    0.4883 H   0  0  0  0  0  0  0  0  0  0  0  0
   -0.5452   -1.4128   -1.5702 H   0  0  0  0  0  0  0  0  0  0  0  0
   -2.3019   -0.5348    0.5034 H   0  0  0  0  0  0  0  0  0  0  0  0
   -1.1921   -2.0274    0.7566 H   0  0  0  0  0  0  0  0  0  0  0  0
   -0.1124   -0.0816    2.1379 H   0  0  0  0  0  0  0  0  0  0  0  0
   -0.0354    2.1330    0.5829 H   0  0  0  0  0  0  0  0  0  0  0  0
   -0.3640    1.3099   -1.8295 H   0  0  0  0  0  0  0  0  0  0  0  0
  1  2  1  0
  2  3  1  0
  3  4  1  0
  4  5  1  0
  5  6  1  0
  6  7  1  0
  7  8  1  0
  5  2  1  0
  8  6  1  0
  8  3  1  0
  1  9  1  0
  1 10  1  0
  1 11  1  0
  2 12  1  0
  3 13  1  0
  4 14  1  0
  4 15  1  0
  5 16  1  0
  6 17  1  0
  8 18  1  0
M  END
