
     RDKit          3D

 23 25  0  0  0  0  0  0  0  0999 V2000
   -1.9547   -1.0192    0.1116 C   0  0  0  0  0  0  0  0  0  0  0  0
   -1.0825   -0.0468   -0.6114 C   0  0  0  0  0  0  0  0  0  0  0  0
    0.0154   -0.6058   -1.4459 C   0  0  0  0  0  0  0  0  0  0  0  0
    1.4113   -0.7182   -1.0042 C   0  0  0  0  0  0  0  0  0  0  0  0
    1.7732   -0.9310    0.4471 C   0  0  0  0  0  0  0  0  0  0  0  0
    0.6184   -0.3195    1.1810 C   0  0  0  0  0  0  0  0  0  0  0  0
   -0.0358    0.6508    0.2194 C   0  0  0  0  0  0  0  0  0  0  0  0
   -0.3831    1.9881    0.7578 C   0  0  0  0  0  0  0  0  0  0  0  0
    0.8317    0.6043   -1.0070 C   0  0  0  0  0  0  0  0  0  0  0  0
   -2.1804   -0.7056    1.1466 H   0  0  0  0  0  0  0  0  0  0  0  0
   -2.9503   -1.0282   -0.4201 H   0  0  0  0  0  0  0  0  0  0  0  0
   -1.5912   -2.0633    0.0546 H   0  0  0  0  0  0  0  0  0  0  0  0
   -1.6642    0.7300   -1.1862 H   0  0  0  0  0  0  0  0  0  0  0  0
   -0.2107   -0.7645   -2.4938 H   0  0  0  0  0  0  0  0  0  0  0  0
    2.1551   -0.9786   -1.7579 H   0  0  0  0  0  0  0  0  0  0  0  0
    1.9798   -1.9682    0.7032 H   0  0  0  0  0  0  0  0  0  0  0  0
    2.6791   -0.2870    0.6362 H   0  0  0  0  0  0  0  0  0  0  0  0
    0.9478    0.2339    2.0844 H   0  0  0  0  0  0  0  0  0  0  0  0
   -0.0951   -1.1240    1.4969 H   0  0  0  0  0  0  0  0  0  0  0  0
   -0.8157    1.8665    1.7684 H   0  0  0  0  0  0  0  0  0  0  0  0
   -1.0365    2.5068    0.0566 H   0  0  0  0  0  0  0  0  0  0  0  0
    0.5821    2.5512    0.9178 H   0  0  0  0  0  0  0  0  0  0  0  0
    1.0063    1.4283   -1.6552 H   0  0  0  0  0  0  0  0  0  0  0  0
  1  2  1  0
  2  3  1  0
  3  4  1  0
  4  5  1  0
  5  6  1  0
  6  7  1  0
  7  8  1  0
  7  9  1  0
  7  2  1  0
  9  3  1  0
  9  4  1  0
  1 10  1  0
  1 11  1  0
  1 12  1  0
  2 13  1  0
  3 14  1  0
  4 15  1  0
  5 16  1  0
  5 17  1  0
  6 18  1  0
  6 19  1  0
  8 20  1  0
  8 21  1  0
  8 22  1  0
  9 23  1  0
M  END
