
     RDKit          3D

 21 22  0  0  0  0  0  0  0  0999 V2000
   -1.6011    1.1894    0.4103 C   0  0  0  0  0  0  0  0  0  0  0  0
   -1.1492   -0.2303    0.5810 C   0  0  0  0  0  0  0  0  0  0  0  0
   -1.5777   -1.1605   -0.5459 C   0  0  0  0  0  0  0  0  0  0  0  0
   -0.3370   -1.7843   -0.4197 O   0  0  0  0  0  0  0  0  0  0  0  0
    0.1877   -0.5968    0.0726 C   0  0  0  0  0  0  0  0  0  0  0  0
    0.7949    0.2583   -0.9958 C   0  0  0  0  0  0  0  0  0  0  0  0
    2.0405    0.7896   -0.3861 C   0  0  0  0  0  0  0  0  0  0  0  0
    2.2164    0.2416    0.8538 O   0  0  0  0  0  0  0  0  0  0  0  0
    1.3015   -0.7463    1.0630 C   0  0  0  0  0  0  0  0  0  0  0  0
   -0.7801    1.9211    0.3857 H   0  0  0  0  0  0  0  0  0  0  0  0
   -2.2148    1.4437    1.3131 H   0  0  0  0  0  0  0  0  0  0  0  0
   -2.3102    1.3042   -0.4526 H   0  0  0  0  0  0  0  0  0  0  0  0
   -1.3811   -0.7059    1.5500 H   0  0  0  0  0  0  0  0  0  0  0  0
   -1.7492   -0.6616   -1.5193 H   0  0  0  0  0  0  0  0  0  0  0  0
   -2.3831   -1.8705   -0.2818 H   0  0  0  0  0  0  0  0  0  0  0  0
    1.1012   -0.4397   -1.8286 H   0  0  0  0  0  0  0  0  0  0  0  0
    0.1212    0.9964   -1.4284 H   0  0  0  0  0  0  0  0  0  0  0  0
    1.9952    1.9101   -0.2501 H   0  0  0  0  0  0  0  0  0  0  0  0
    2.9351    0.6303   -1.0548 H   0  0  0  0  0  0  0  0  0  0  0  0
    0.9917   -0.7554    2.1087 H   0  0  0  0  0  0  0  0  0  0  0  0
    1.7981   -1.7335    0.8249 H   0  0  0  0  0  0  0  0  0  0  0  0
  1  2  1  0
  2  3  1  0
  3  4  1  0
  4  5  1  0
  5  6  1  0
  6  7  1  0
  7  8  1  0
  8  9  1  0
  5  2  1  0
  9  5  1  0
  1 10  1  0
  1 11  1  0
  1 12  1  0
  2 13  1  0
  3 14  1  0
  3 15  1  0
  6 16  1  0
  6 17  1  0
  7 18  1  0
  7 19  1  0
  9 20  1  0
  9 21  1  0
M  END
