
     RDKit          3D

 18 19  0  0  0  0  0  0  0  0999 V2000
   -1.8376   -0.7614   -0.1494 C   0  0  0  0  0  0  0  0  0  0  0  0
   -0.7414    0.1813   -0.5472 C   0  0  0  0  0  0  0  0  0  0  0  0
    0.4937    0.1057    0.3848 C   0  0  0  0  0  0  0  0  0  0  0  0
    1.4481   -0.8917   -0.1669 C   0  0  0  0  0  0  0  0  0  0  0  0
    2.5944   -1.0475    0.5821 O   0  0  0  0  0  0  0  0  0  0  0  0
    0.6740    1.5045   -0.1545 C   0  0  0  0  0  0  0  0  0  0  0  0
   -0.0762    2.5710    0.0546 O   0  0  0  0  0  0  0  0  0  0  0  0
   -0.8568    1.5131    0.1587 C   0  0  0  0  0  0  0  0  0  0  0  0
   -1.6804   -1.0370    0.9271 H   0  0  0  0  0  0  0  0  0  0  0  0
   -2.8453   -0.2627   -0.1655 H   0  0  0  0  0  0  0  0  0  0  0  0
   -1.8294   -1.7036   -0.7203 H   0  0  0  0  0  0  0  0  0  0  0  0
   -0.4814    0.2183   -1.6070 H   0  0  0  0  0  0  0  0  0  0  0  0
    0.2001    0.0175    1.4288 H   0  0  0  0  0  0  0  0  0  0  0  0
    1.7647   -0.5415   -1.1825 H   0  0  0  0  0  0  0  0  0  0  0  0
    0.9274   -1.8791   -0.3335 H   0  0  0  0  0  0  0  0  0  0  0  0
    2.4129   -0.6862    1.4993 H   0  0  0  0  0  0  0  0  0  0  0  0
    0.9297    1.4049   -1.2584 H   0  0  0  0  0  0  0  0  0  0  0  0
   -1.0967    1.2945    1.2498 H   0  0  0  0  0  0  0  0  0  0  0  0
  1  2  1  0
  2  3  1  0
  3  4  1  0
  4  5  1  0
  3  6  1  0
  6  7  1  0
  7  8  1  0
  8  2  1  0
  8  6  1  0
  1  9  1  0
  1 10  1  0
  1 11  1  0
  2 12  1  0
  3 13  1  0
  4 14  1  0
  4 15  1  0
  5 16  1  0
  6 17  1  0
  8 18  1  0
M  END
