
     RDKit          3D

 19 19  0  0  0  0  0  0  0  0999 V2000
   -1.9602    0.1364    0.6143 C   0  0  0  0  0  0  0  0  0  0  0  0
   -1.0550   -0.0332   -0.5747 C   0  0  0  0  0  0  0  0  0  0  0  0
   -0.4263    1.3021   -0.9358 C   0  0  0  0  0  0  0  0  0  0  0  0
    0.9476    1.2107   -0.4082 C   0  0  0  0  0  0  0  0  0  0  0  0
    1.2522   -0.0389   -0.0273 C   0  0  0  0  0  0  0  0  0  0  0  0
    2.5116   -0.4804    0.5334 C   0  0  0  0  0  0  0  0  0  0  0  0
    3.4287    0.3417    0.6961 O   0  0  0  0  0  0  0  0  0  0  0  0
    0.0889   -0.9437   -0.2646 C   0  0  0  0  0  0  0  0  0  0  0  0
   -0.1458   -1.6125    0.9568 O   0  0  0  0  0  0  0  0  0  0  0  0
   -3.0291    0.0414    0.3105 H   0  0  0  0  0  0  0  0  0  0  0  0
   -1.8033   -0.6646    1.3821 H   0  0  0  0  0  0  0  0  0  0  0  0
   -1.7667    1.0927    1.1438 H   0  0  0  0  0  0  0  0  0  0  0  0
   -1.6086   -0.4172   -1.4549 H   0  0  0  0  0  0  0  0  0  0  0  0
   -0.4856    1.5308   -2.0054 H   0  0  0  0  0  0  0  0  0  0  0  0
   -0.9523    2.1231   -0.3729 H   0  0  0  0  0  0  0  0  0  0  0  0
    1.6455    2.0205   -0.3239 H   0  0  0  0  0  0  0  0  0  0  0  0
    2.6534   -1.4966    0.8039 H   0  0  0  0  0  0  0  0  0  0  0  0
    0.3469   -1.6488   -1.0668 H   0  0  0  0  0  0  0  0  0  0  0  0
    0.3584   -2.4634    0.9936 H   0  0  0  0  0  0  0  0  0  0  0  0
  1  2  1  0
  2  3  1  0
  3  4  1  0
  4  5  2  0
  5  6  1  0
  6  7  2  0
  5  8  1  0
  8  9  1  0
  8  2  1  0
  1 10  1  0
  1 11  1  0
  1 12  1  0
  2 13  1  0
  3 14  1  0
  3 15  1  0
  4 16  1  0
  6 17  1  0
  8 18  1  0
  9 19  1  0
M  END
