
     RDKit          3D

 21 22  0  0  0  0  0  0  0  0999 V2000
   -2.6865    0.3414    0.3836 C   0  0  0  0  0  0  0  0  0  0  0  0
   -1.3793   -0.3242    0.1138 C   0  0  0  0  0  0  0  0  0  0  0  0
   -0.5038   -0.4354    1.3561 C   0  0  0  0  0  0  0  0  0  0  0  0
    0.8740   -0.6934    0.7912 C   0  0  0  0  0  0  0  0  0  0  0  0
    1.7665    0.4308    0.4170 C   0  0  0  0  0  0  0  0  0  0  0  0
    3.1932    0.0791    0.2095 C   0  0  0  0  0  0  0  0  0  0  0  0
    3.5555   -1.0330   -0.1201 O   0  0  0  0  0  0  0  0  0  0  0  0
    0.8451   -0.1474   -0.6112 C   0  0  0  0  0  0  0  0  0  0  0  0
   -0.4871    0.5494   -0.7721 C   0  0  0  0  0  0  0  0  0  0  0  0
   -3.1782    0.0061    1.2983 H   0  0  0  0  0  0  0  0  0  0  0  0
   -2.5506    1.4505    0.3641 H   0  0  0  0  0  0  0  0  0  0  0  0
   -3.3762    0.0810   -0.4629 H   0  0  0  0  0  0  0  0  0  0  0  0
   -1.4396   -1.3155   -0.3274 H   0  0  0  0  0  0  0  0  0  0  0  0
   -0.5544    0.4665    1.9872 H   0  0  0  0  0  0  0  0  0  0  0  0
   -0.8411   -1.3417    1.9127 H   0  0  0  0  0  0  0  0  0  0  0  0
    1.3402   -1.6773    0.9988 H   0  0  0  0  0  0  0  0  0  0  0  0
    1.5598    1.4627    0.7126 H   0  0  0  0  0  0  0  0  0  0  0  0
    3.9204    0.8645    0.3649 H   0  0  0  0  0  0  0  0  0  0  0  0
    1.2129   -0.8100   -1.4074 H   0  0  0  0  0  0  0  0  0  0  0  0
   -0.7842    0.4705   -1.8164 H   0  0  0  0  0  0  0  0  0  0  0  0
   -0.4865    1.5755   -0.3688 H   0  0  0  0  0  0  0  0  0  0  0  0
  1  2  1  0
  2  3  1  0
  3  4  1  0
  4  5  1  0
  5  6  1  0
  6  7  2  0
  5  8  1  0
  8  9  1  0
  9  2  1  0
  8  4  1  0
  1 10  1  0
  1 11  1  0
  1 12  1  0
  2 13  1  0
  3 14  1  0
  3 15  1  0
  4 16  1  0
  5 17  1  0
  6 18  1  0
  8 19  1  0
  9 20  1  0
  9 21  1  0
M  END
