
     RDKit          3D

 23 24  0  0  0  0  0  0  0  0999 V2000
    3.3026   -0.0624   -0.3268 C   0  0  0  0  0  0  0  0  0  0  0  0
    1.8306   -0.3735   -0.1800 C   0  0  0  0  0  0  0  0  0  0  0  0
    1.2161   -0.0335    1.1392 C   0  0  0  0  0  0  0  0  0  0  0  0
    0.1391    0.5111    0.2706 C   0  0  0  0  0  0  0  0  0  0  0  0
   -0.9218   -0.4469   -0.1884 C   0  0  0  0  0  0  0  0  0  0  0  0
   -1.9241    0.3213   -1.0664 C   0  0  0  0  0  0  0  0  0  0  0  0
   -2.6728    0.6139    0.2410 C   0  0  0  0  0  0  0  0  0  0  0  0
   -2.0540   -0.6883    0.7655 C   0  0  0  0  0  0  0  0  0  0  0  0
    1.0975    0.6484   -0.7601 O   0  0  0  0  0  0  0  0  0  0  0  0
    3.9496   -0.9348   -0.2781 H   0  0  0  0  0  0  0  0  0  0  0  0
    3.4681    0.3977   -1.3451 H   0  0  0  0  0  0  0  0  0  0  0  0
    3.5814    0.6389    0.4645 H   0  0  0  0  0  0  0  0  0  0  0  0
    1.5780   -1.3983   -0.4776 H   0  0  0  0  0  0  0  0  0  0  0  0
    0.9076   -0.8861    1.7757 H   0  0  0  0  0  0  0  0  0  0  0  0
    1.7537    0.7851    1.6685 H   0  0  0  0  0  0  0  0  0  0  0  0
   -0.2345    1.5337    0.5085 H   0  0  0  0  0  0  0  0  0  0  0  0
   -0.5273   -1.3056   -0.7296 H   0  0  0  0  0  0  0  0  0  0  0  0
   -2.4883   -0.3353   -1.7339 H   0  0  0  0  0  0  0  0  0  0  0  0
   -1.4810    1.2060   -1.5376 H   0  0  0  0  0  0  0  0  0  0  0  0
   -2.2705    1.4773    0.7957 H   0  0  0  0  0  0  0  0  0  0  0  0
   -3.7470    0.5827    0.0752 H   0  0  0  0  0  0  0  0  0  0  0  0
   -1.8322   -0.7031    1.8274 H   0  0  0  0  0  0  0  0  0  0  0  0
   -2.6707   -1.5481    0.3914 H   0  0  0  0  0  0  0  0  0  0  0  0
  1  2  1  0
  2  3  1  0
  3  4  1  0
  4  5  1  0
  5  6  1  0
  6  7  1  0
  7  8  1  0
  4  9  1  0
  9  2  1  0
  8  5  1  0
  1 10  1  0
  1 11  1  0
  1 12  1  0
  2 13  1  0
  3 14  1  0
  3 15  1  0
  4 16  1  0
  5 17  1  0
  6 18  1  0
  6 19  1  0
  7 20  1  0
  7 21  1  0
  8 22  1  0
  8 23  1  0
M  END
