
     RDKit          3D

 21 22  0  0  0  0  0  0  0  0999 V2000
    1.8976    1.1756   -0.4278 C   0  0  0  0  0  0  0  0  0  0  0  0
    0.7240    0.5087    0.2620 C   0  0  0  0  0  0  0  0  0  0  0  0
   -0.4336    1.4488    0.1933 C   0  0  0  0  0  0  0  0  0  0  0  0
   -1.7480    0.8078    0.2620 C   0  0  0  0  0  0  0  0  0  0  0  0
   -1.9429   -0.4110   -0.1640 C   0  0  0  0  0  0  0  0  0  0  0  0
   -0.8496   -1.1862   -0.7293 C   0  0  0  0  0  0  0  0  0  0  0  0
   -0.7496   -2.4665   -0.1420 O   0  0  0  0  0  0  0  0  0  0  0  0
    0.1476   -1.8793    0.7555 C   0  0  0  0  0  0  0  0  0  0  0  0
    0.5088   -0.8372   -0.2820 C   0  0  0  0  0  0  0  0  0  0  0  0
    1.7417    2.2866   -0.4929 H   0  0  0  0  0  0  0  0  0  0  0  0
    2.1113    0.7518   -1.4185 H   0  0  0  0  0  0  0  0  0  0  0  0
    2.8442    1.0571    0.1662 H   0  0  0  0  0  0  0  0  0  0  0  0
    1.0260    0.4118    1.3464 H   0  0  0  0  0  0  0  0  0  0  0  0
   -0.3463    2.1722    1.0299 H   0  0  0  0  0  0  0  0  0  0  0  0
   -0.3998    2.0670   -0.7415 H   0  0  0  0  0  0  0  0  0  0  0  0
   -2.5682    1.4158    0.6945 H   0  0  0  0  0  0  0  0  0  0  0  0
   -2.9275   -0.8475   -0.0953 H   0  0  0  0  0  0  0  0  0  0  0  0
   -1.0107   -1.3423   -1.8174 H   0  0  0  0  0  0  0  0  0  0  0  0
   -0.3574   -1.4246    1.6248 H   0  0  0  0  0  0  0  0  0  0  0  0
    1.0442   -2.4944    0.9805 H   0  0  0  0  0  0  0  0  0  0  0  0
    1.2881   -1.2141   -1.0043 H   0  0  0  0  0  0  0  0  0  0  0  0
  1  2  1  0
  2  3  1  0
  3  4  1  0
  4  5  2  0
  5  6  1  0
  6  7  1  0
  7  8  1  0
  8  9  1  0
  9  2  1  0
  9  6  1  0
  1 10  1  0
  1 11  1  0
  1 12  1  0
  2 13  1  0
  3 14  1  0
  3 15  1  0
  4 16  1  0
  5 17  1  0
  6 18  1  0
  8 19  1  0
  8 20  1  0
  9 21  1  0
M  END
