
     RDKit          3D

 19 19  0  0  0  0  0  0  0  0999 V2000
   -1.5985   -1.0291    0.1262 C   0  0  0  0  0  0  0  0  0  0  0  0
   -0.4608   -0.2490   -0.4513 C   0  0  0  0  0  0  0  0  0  0  0  0
   -0.8760    1.2271   -0.3903 C   0  0  0  0  0  0  0  0  0  0  0  0
    0.4262    1.9204   -0.0511 C   0  0  0  0  0  0  0  0  0  0  0  0
    1.4008    0.9406   -0.0711 O   0  0  0  0  0  0  0  0  0  0  0  0
    0.7771   -0.2455    0.3827 C   0  0  0  0  0  0  0  0  0  0  0  0
    1.7066   -1.3845    0.1221 C   0  0  0  0  0  0  0  0  0  0  0  0
   -1.3262   -1.9862    0.5743 H   0  0  0  0  0  0  0  0  0  0  0  0
   -2.3246   -1.1830   -0.7275 H   0  0  0  0  0  0  0  0  0  0  0  0
   -2.1634   -0.4178    0.8787 H   0  0  0  0  0  0  0  0  0  0  0  0
   -0.2683   -0.5497   -1.4868 H   0  0  0  0  0  0  0  0  0  0  0  0
   -1.3281    1.5670   -1.3226 H   0  0  0  0  0  0  0  0  0  0  0  0
   -1.5567    1.3947    0.4639 H   0  0  0  0  0  0  0  0  0  0  0  0
    0.4199    2.3551    0.9701 H   0  0  0  0  0  0  0  0  0  0  0  0
    0.6567    2.7350   -0.7443 H   0  0  0  0  0  0  0  0  0  0  0  0
    0.5470   -0.1015    1.4435 H   0  0  0  0  0  0  0  0  0  0  0  0
    1.8218   -1.9425    1.0908 H   0  0  0  0  0  0  0  0  0  0  0  0
    2.7423   -1.0075   -0.1015 H   0  0  0  0  0  0  0  0  0  0  0  0
    1.4040   -2.0435   -0.7056 H   0  0  0  0  0  0  0  0  0  0  0  0
  1  2  1  0
  2  3  1  0
  3  4  1  0
  4  5  1  0
  5  6  1  0
  6  7  1  0
  6  2  1  0
  1  8  1  0
  1  9  1  0
  1 10  1  0
  2 11  1  0
  3 12  1  0
  3 13  1  0
  4 14  1  0
  4 15  1  0
  6 16  1  0
  7 17  1  0
  7 18  1  0
  7 19  1  0
M  END
