
     RDKit          3D

 21 22  0  0  0  0  0  0  0  0999 V2000
   -0.7444   -1.7899    0.2549 C   0  0  0  0  0  0  0  0  0  0  0  0
   -0.7449   -0.4248   -0.3535 C   0  0  0  0  0  0  0  0  0  0  0  0
   -1.3365    0.6361    0.5322 C   0  0  0  0  0  0  0  0  0  0  0  0
   -0.9024    1.9172   -0.1720 C   0  0  0  0  0  0  0  0  0  0  0  0
    0.3990    1.4257    0.3702 C   0  0  0  0  0  0  0  0  0  0  0  0
   -0.3285    0.9241    1.4673 O   0  0  0  0  0  0  0  0  0  0  0  0
    0.6782    0.1639   -0.4236 C   0  0  0  0  0  0  0  0  0  0  0  0
    1.6473   -0.7218    0.3168 C   0  0  0  0  0  0  0  0  0  0  0  0
    1.0606    0.4318   -1.7088 O   0  0  0  0  0  0  0  0  0  0  0  0
   -1.7697   -2.0500    0.5419 H   0  0  0  0  0  0  0  0  0  0  0  0
   -0.4301   -2.5092   -0.5233 H   0  0  0  0  0  0  0  0  0  0  0  0
   -0.1130   -1.8481    1.1492 H   0  0  0  0  0  0  0  0  0  0  0  0
   -1.2308   -0.4127   -1.3271 H   0  0  0  0  0  0  0  0  0  0  0  0
   -2.3389    0.5592    0.8679 H   0  0  0  0  0  0  0  0  0  0  0  0
   -1.2390    2.8270    0.3552 H   0  0  0  0  0  0  0  0  0  0  0  0
   -1.0343    1.8953   -1.2585 H   0  0  0  0  0  0  0  0  0  0  0  0
    1.1985    2.0993    0.5648 H   0  0  0  0  0  0  0  0  0  0  0  0
    1.5806   -1.7805    0.0006 H   0  0  0  0  0  0  0  0  0  0  0  0
    2.6659   -0.3492    0.0838 H   0  0  0  0  0  0  0  0  0  0  0  0
    1.5222   -0.6554    1.4034 H   0  0  0  0  0  0  0  0  0  0  0  0
    1.4602   -0.3381   -2.1415 H   0  0  0  0  0  0  0  0  0  0  0  0
  1  2  1  0
  2  3  1  0
  3  4  1  0
  4  5  1  0
  5  6  1  0
  5  7  1  0
  7  8  1  0
  7  9  1  0
  7  2  1  0
  6  3  1  0
  1 10  1  0
  1 11  1  0
  1 12  1  0
  2 13  1  0
  3 14  1  0
  4 15  1  0
  4 16  1  0
  5 17  1  0
  8 18  1  0
  8 19  1  0
  8 20  1  0
  9 21  1  0
M  END
