
     RDKit          3D

 19 19  0  0  0  0  0  0  0  0999 V2000
    2.5579    0.1623   -0.0549 C   0  0  0  0  0  0  0  0  0  0  0  0
    1.0634    0.0126   -0.1983 C   0  0  0  0  0  0  0  0  0  0  0  0
    0.3858    1.2537    0.3280 C   0  0  0  0  0  0  0  0  0  0  0  0
   -0.9232    1.4333    0.3392 C   0  0  0  0  0  0  0  0  0  0  0  0
   -2.0132    0.5562   -0.1168 C   0  0  0  0  0  0  0  0  0  0  0  0
   -1.6858   -0.8805   -0.0794 C   0  0  0  0  0  0  0  0  0  0  0  0
   -2.7044   -1.5790   -0.2100 O   0  0  0  0  0  0  0  0  0  0  0  0
   -0.4770   -1.6861    0.0712 C   0  0  0  0  0  0  0  0  0  0  0  0
    0.6187   -1.0289    0.5682 O   0  0  0  0  0  0  0  0  0  0  0  0
    3.0293   -0.5463   -0.7522 H   0  0  0  0  0  0  0  0  0  0  0  0
    2.9031    1.1820   -0.3019 H   0  0  0  0  0  0  0  0  0  0  0  0
    2.8315   -0.0620    0.9916 H   0  0  0  0  0  0  0  0  0  0  0  0
    0.7830   -0.0781   -1.2814 H   0  0  0  0  0  0  0  0  0  0  0  0
    1.0011    2.0312    0.7135 H   0  0  0  0  0  0  0  0  0  0  0  0
   -1.2076    2.3971    0.7609 H   0  0  0  0  0  0  0  0  0  0  0  0
   -2.2553    0.8127   -1.1775 H   0  0  0  0  0  0  0  0  0  0  0  0
   -2.9267    0.7477    0.4884 H   0  0  0  0  0  0  0  0  0  0  0  0
   -0.2580   -2.2189   -0.8868 H   0  0  0  0  0  0  0  0  0  0  0  0
   -0.7224   -2.5089    0.7983 H   0  0  0  0  0  0  0  0  0  0  0  0
  1  2  1  0
  2  3  1  0
  3  4  2  0
  4  5  1  0
  5  6  1  0
  6  7  2  0
  6  8  1  0
  8  9  1  0
  9  2  1  0
  1 10  1  0
  1 11  1  0
  1 12  1  0
  2 13  1  0
  3 14  1  0
  4 15  1  0
  5 16  1  0
  5 17  1  0
  8 18  1  0
  8 19  1  0
M  END
