
     RDKit          3D

 19 19  0  0  0  0  0  0  0  0999 V2000
   -2.5643   -0.3298   -0.3508 C   0  0  0  0  0  0  0  0  0  0  0  0
   -1.1525   -0.2582    0.0928 C   0  0  0  0  0  0  0  0  0  0  0  0
   -0.4967    1.0858   -0.1620 C   0  0  0  0  0  0  0  0  0  0  0  0
    0.5038    1.3294    0.7651 O   0  0  0  0  0  0  0  0  0  0  0  0
    1.7604    0.9320    0.3307 C   0  0  0  0  0  0  0  0  0  0  0  0
    1.9379   -0.5696    0.5364 C   0  0  0  0  0  0  0  0  0  0  0  0
    1.0554   -1.3130   -0.4256 C   0  0  0  0  0  0  0  0  0  0  0  0
    1.6494   -2.0846   -1.2524 O   0  0  0  0  0  0  0  0  0  0  0  0
   -0.3230   -1.2464   -0.5053 O   0  0  0  0  0  0  0  0  0  0  0  0
   -2.8421    0.4698   -1.0602 H   0  0  0  0  0  0  0  0  0  0  0  0
   -3.2646   -0.2705    0.5295 H   0  0  0  0  0  0  0  0  0  0  0  0
   -2.7933   -1.2994   -0.8603 H   0  0  0  0  0  0  0  0  0  0  0  0
   -1.0537   -0.4308    1.2036 H   0  0  0  0  0  0  0  0  0  0  0  0
   -1.2880    1.8492   -0.0726 H   0  0  0  0  0  0  0  0  0  0  0  0
   -0.1086    1.1491   -1.2111 H   0  0  0  0  0  0  0  0  0  0  0  0
    2.5075    1.4329    0.9802 H   0  0  0  0  0  0  0  0  0  0  0  0
    1.9820    1.2317   -0.7035 H   0  0  0  0  0  0  0  0  0  0  0  0
    2.9702   -0.8907    0.4838 H   0  0  0  0  0  0  0  0  0  0  0  0
    1.5203   -0.7870    1.5501 H   0  0  0  0  0  0  0  0  0  0  0  0
  1  2  1  0
  2  3  1  0
  3  4  1  0
  4  5  1  0
  5  6  1  0
  6  7  1  0
  7  8  2  0
  7  9  1  0
  9  2  1  0
  1 10  1  0
  1 11  1  0
  1 12  1  0
  2 13  1  0
  3 14  1  0
  3 15  1  0
  5 16  1  0
  5 17  1  0
  6 18  1  0
  6 19  1  0
M  END
