
     RDKit          3D

 19 20  0  0  0  0  0  0  0  0999 V2000
   -1.7125   -1.0024   -0.5238 C   0  0  0  0  0  0  0  0  0  0  0  0
   -0.3789   -0.8681    0.1678 C   0  0  0  0  0  0  0  0  0  0  0  0
    0.7360   -1.3663   -0.6236 C   0  0  0  0  0  0  0  0  0  0  0  0
    1.7128   -0.4759   -0.6921 C   0  0  0  0  0  0  0  0  0  0  0  0
    1.4160    0.7607    0.0381 C   0  0  0  0  0  0  0  0  0  0  0  0
    1.0012    0.8158    1.4383 C   0  0  0  0  0  0  0  0  0  0  0  0
   -0.0498    0.5737    0.4414 C   0  0  0  0  0  0  0  0  0  0  0  0
   -0.9504    1.6029   -0.0665 C   0  0  0  0  0  0  0  0  0  0  0  0
   -1.4501    2.5005    0.5560 O   0  0  0  0  0  0  0  0  0  0  0  0
   -1.8935   -2.0771   -0.6792 H   0  0  0  0  0  0  0  0  0  0  0  0
   -1.6629   -0.4702   -1.4889 H   0  0  0  0  0  0  0  0  0  0  0  0
   -2.4910   -0.5856    0.1312 H   0  0  0  0  0  0  0  0  0  0  0  0
   -0.4426   -1.4198    1.1499 H   0  0  0  0  0  0  0  0  0  0  0  0
    0.7392   -2.3669   -1.0963 H   0  0  0  0  0  0  0  0  0  0  0  0
    2.6309   -0.6627   -1.2384 H   0  0  0  0  0  0  0  0  0  0  0  0
    1.6916    1.7366   -0.4525 H   0  0  0  0  0  0  0  0  0  0  0  0
    1.0508    1.7827    1.9482 H   0  0  0  0  0  0  0  0  0  0  0  0
    1.2597   -0.0376    2.1307 H   0  0  0  0  0  0  0  0  0  0  0  0
   -1.2064    1.5596   -1.1404 H   0  0  0  0  0  0  0  0  0  0  0  0
  1  2  1  0
  2  3  1  0
  3  4  2  0
  4  5  1  0
  5  6  1  0
  6  7  1  0
  7  8  1  0
  8  9  2  0
  7  2  1  0
  7  5  1  0
  1 10  1  0
  1 11  1  0
  1 12  1  0
  2 13  1  0
  3 14  1  0
  4 15  1  0
  5 16  1  0
  6 17  1  0
  6 18  1  0
  8 19  1  0
M  END
