
     RDKit          3D

 23 24  0  0  0  0  0  0  0  0999 V2000
    2.5549   -0.5009   -0.6604 C   0  0  0  0  0  0  0  0  0  0  0  0
    1.1060   -0.3172   -0.2843 C   0  0  0  0  0  0  0  0  0  0  0  0
    0.6485    1.1089   -0.4780 C   0  0  0  0  0  0  0  0  0  0  0  0
   -0.8015    1.1788   -0.0624 C   0  0  0  0  0  0  0  0  0  0  0  0
   -1.5289    0.0483   -0.7771 C   0  0  0  0  0  0  0  0  0  0  0  0
   -1.3951   -1.1177    0.1419 C   0  0  0  0  0  0  0  0  0  0  0  0
   -0.4920   -0.6972    1.2845 C   0  0  0  0  0  0  0  0  0  0  0  0
   -0.8612    0.7874    1.4030 C   0  0  0  0  0  0  0  0  0  0  0  0
    0.8410   -0.7833    0.9925 O   0  0  0  0  0  0  0  0  0  0  0  0
    2.5950   -0.4457   -1.7871 H   0  0  0  0  0  0  0  0  0  0  0  0
    2.8206   -1.5563   -0.4240 H   0  0  0  0  0  0  0  0  0  0  0  0
    3.2261    0.2191   -0.1966 H   0  0  0  0  0  0  0  0  0  0  0  0
    0.5381   -0.9817   -0.9940 H   0  0  0  0  0  0  0  0  0  0  0  0
    0.6796    1.3464   -1.5615 H   0  0  0  0  0  0  0  0  0  0  0  0
    1.2863    1.7865    0.1165 H   0  0  0  0  0  0  0  0  0  0  0  0
   -1.2867    2.1255   -0.2840 H   0  0  0  0  0  0  0  0  0  0  0  0
   -1.1298   -0.1245   -1.7975 H   0  0  0  0  0  0  0  0  0  0  0  0
   -2.5926    0.3702   -0.9269 H   0  0  0  0  0  0  0  0  0  0  0  0
   -1.0642   -2.0465   -0.3148 H   0  0  0  0  0  0  0  0  0  0  0  0
   -2.4128   -1.3170    0.5878 H   0  0  0  0  0  0  0  0  0  0  0  0
   -0.7725   -1.2316    2.2002 H   0  0  0  0  0  0  0  0  0  0  0  0
   -1.8688    0.8547    1.8276 H   0  0  0  0  0  0  0  0  0  0  0  0
   -0.0901    1.2939    1.9947 H   0  0  0  0  0  0  0  0  0  0  0  0
  1  2  1  0
  2  3  1  0
  3  4  1  0
  4  5  1  0
  5  6  1  0
  6  7  1  0
  7  8  1  0
  7  9  1  0
  9  2  1  0
  8  4  1  0
  1 10  1  0
  1 11  1  0
  1 12  1  0
  2 13  1  0
  3 14  1  0
  3 15  1  0
  4 16  1  0
  5 17  1  0
  5 18  1  0
  6 19  1  0
  6 20  1  0
  7 21  1  0
  8 22  1  0
  8 23  1  0
M  END
