
     RDKit          3D

 17 18  0  0  0  0  0  0  0  0999 V2000
    1.7343   -0.6298    0.6356 C   0  0  0  0  0  0  0  0  0  0  0  0
    1.0077    0.1201   -0.4166 C   0  0  0  0  0  0  0  0  0  0  0  0
    0.4202    1.4207    0.1052 C   0  0  0  0  0  0  0  0  0  0  0  0
    0.9840    2.3423    0.6157 O   0  0  0  0  0  0  0  0  0  0  0  0
   -1.0126    1.1797   -0.2131 C   0  0  0  0  0  0  0  0  0  0  0  0
   -0.9022    0.5970   -1.4963 O   0  0  0  0  0  0  0  0  0  0  0  0
   -0.3152   -0.4974   -0.8137 C   0  0  0  0  0  0  0  0  0  0  0  0
   -1.2835   -0.1976    0.2896 C   0  0  0  0  0  0  0  0  0  0  0  0
   -2.5572   -0.6226   -0.0515 O   0  0  0  0  0  0  0  0  0  0  0  0
    1.4827   -0.3699    1.6673 H   0  0  0  0  0  0  0  0  0  0  0  0
    1.6692   -1.7314    0.4892 H   0  0  0  0  0  0  0  0  0  0  0  0
    2.8333   -0.3951    0.5192 H   0  0  0  0  0  0  0  0  0  0  0  0
    1.5969    0.2991   -1.3299 H   0  0  0  0  0  0  0  0  0  0  0  0
   -1.7172    1.9623   -0.0825 H   0  0  0  0  0  0  0  0  0  0  0  0
   -0.3258   -1.4422   -1.3007 H   0  0  0  0  0  0  0  0  0  0  0  0
   -0.9579   -0.4293    1.3116 H   0  0  0  0  0  0  0  0  0  0  0  0
   -2.6569   -1.6059    0.0708 H   0  0  0  0  0  0  0  0  0  0  0  0
  1  2  1  0
  2  3  1  0
  3  4  2  0
  3  5  1  0
  5  6  1  0
  6  7  1  0
  7  8  1  0
  8  9  1  0
  7  2  1  0
  8  5  1  0
  1 10  1  0
  1 11  1  0
  1 12  1  0
  2 13  1  0
  5 14  1  0
  7 15  1  0
  8 16  1  0
  9 17  1  0
M  END
