
     RDKit          3D

 21 21  0  0  0  0  0  0  0  0999 V2000
   -1.2756    1.3841    0.4190 C   0  0  0  0  0  0  0  0  0  0  0  0
   -0.6574    0.4329   -0.5233 C   0  0  0  0  0  0  0  0  0  0  0  0
   -1.1760   -0.9800   -0.5359 C   0  0  0  0  0  0  0  0  0  0  0  0
   -1.6381   -1.4588    0.6826 O   0  0  0  0  0  0  0  0  0  0  0  0
    0.2282   -1.4379   -0.7462 C   0  0  0  0  0  0  0  0  0  0  0  0
    0.8073   -2.4104   -1.1869 O   0  0  0  0  0  0  0  0  0  0  0  0
    0.6810   -0.1443   -0.1632 C   0  0  0  0  0  0  0  0  0  0  0  0
    1.7847    0.5485   -0.9022 C   0  0  0  0  0  0  0  0  0  0  0  0
    0.9920   -0.2931    1.2811 C   0  0  0  0  0  0  0  0  0  0  0  0
   -0.5065    1.8954    1.0395 H   0  0  0  0  0  0  0  0  0  0  0  0
   -1.7842    2.2235   -0.1428 H   0  0  0  0  0  0  0  0  0  0  0  0
   -2.0762    0.9458    1.0509 H   0  0  0  0  0  0  0  0  0  0  0  0
   -0.6369    0.8220   -1.5701 H   0  0  0  0  0  0  0  0  0  0  0  0
   -1.8406   -1.2425   -1.3676 H   0  0  0  0  0  0  0  0  0  0  0  0
   -2.5836   -1.3181    0.8452 H   0  0  0  0  0  0  0  0  0  0  0  0
    2.4798    1.0576   -0.1908 H   0  0  0  0  0  0  0  0  0  0  0  0
    1.4009    1.2995   -1.6020 H   0  0  0  0  0  0  0  0  0  0  0  0
    2.3963   -0.2255   -1.4156 H   0  0  0  0  0  0  0  0  0  0  0  0
    2.1050   -0.4619    1.3685 H   0  0  0  0  0  0  0  0  0  0  0  0
    0.5367   -1.1964    1.7454 H   0  0  0  0  0  0  0  0  0  0  0  0
    0.7634    0.5598    1.9144 H   0  0  0  0  0  0  0  0  0  0  0  0
  1  2  1  0
  2  3  1  0
  3  4  1  0
  3  5  1  0
  5  6  2  0
  5  7  1  0
  7  8  1  0
  7  9  1  0
  7  2  1  0
  1 10  1  0
  1 11  1  0
  1 12  1  0
  2 13  1  0
  3 14  1  0
  4 15  1  0
  8 16  1  0
  8 17  1  0
  8 18  1  0
  9 19  1  0
  9 20  1  0
  9 21  1  0
M  END
