
     RDKit          3D

 21 22  0  0  0  0  0  0  0  0999 V2000
   -2.2025   -0.7778   -0.8033 C   0  0  0  0  0  0  0  0  0  0  0  0
   -1.3193   -0.6897    0.4168 C   0  0  0  0  0  0  0  0  0  0  0  0
   -0.9985    0.7577    0.8553 C   0  0  0  0  0  0  0  0  0  0  0  0
   -1.3041    1.7650   -0.0841 O   0  0  0  0  0  0  0  0  0  0  0  0
    0.0030   -0.2111    0.4066 C   0  0  0  0  0  0  0  0  0  0  0  0
    0.9008    0.1187   -0.7151 C   0  0  0  0  0  0  0  0  0  0  0  0
    1.9398    0.4260    0.3768 C   0  0  0  0  0  0  0  0  0  0  0  0
    3.2245    0.1099    0.0664 O   0  0  0  0  0  0  0  0  0  0  0  0
    1.1808   -0.6319    1.1995 C   0  0  0  0  0  0  0  0  0  0  0  0
   -1.6744   -0.4207   -1.6842 H   0  0  0  0  0  0  0  0  0  0  0  0
   -3.0591   -0.0721   -0.6275 H   0  0  0  0  0  0  0  0  0  0  0  0
   -2.6486   -1.7714   -0.9202 H   0  0  0  0  0  0  0  0  0  0  0  0
   -1.6809   -1.3345    1.2550 H   0  0  0  0  0  0  0  0  0  0  0  0
   -1.0571    0.9923    1.9172 H   0  0  0  0  0  0  0  0  0  0  0  0
   -1.0627    2.6074    0.3304 H   0  0  0  0  0  0  0  0  0  0  0  0
    0.6606    0.9608   -1.3638 H   0  0  0  0  0  0  0  0  0  0  0  0
    1.2493   -0.8071   -1.2581 H   0  0  0  0  0  0  0  0  0  0  0  0
    1.7274    1.4426    0.7613 H   0  0  0  0  0  0  0  0  0  0  0  0
    3.3806   -0.3612   -0.7667 H   0  0  0  0  0  0  0  0  0  0  0  0
    1.1895   -0.4694    2.2726 H   0  0  0  0  0  0  0  0  0  0  0  0
    1.5509   -1.6335    0.8420 H   0  0  0  0  0  0  0  0  0  0  0  0
  1  2  1  0
  2  3  1  0
  3  4  1  0
  3  5  1  0
  5  6  1  0
  6  7  1  0
  7  8  1  0
  7  9  1  0
  5  2  1  0
  9  5  1  0
  1 10  1  0
  1 11  1  0
  1 12  1  0
  2 13  1  0
  3 14  1  0
  4 15  1  0
  6 16  1  0
  6 17  1  0
  7 18  1  0
  8 19  1  0
  9 20  1  0
  9 21  1  0
M  END
