
     RDKit          3D

 21 22  0  0  0  0  0  0  0  0999 V2000
    2.1130   -0.4480    1.0110 C   0  0  0  0  0  0  0  0  0  0  0  0
    1.4605   -0.5343   -0.3587 C   0  0  0  0  0  0  0  0  0  0  0  0
    1.3093    0.8312   -0.9322 C   0  0  0  0  0  0  0  0  0  0  0  0
   -0.0576    1.3856   -0.8705 C   0  0  0  0  0  0  0  0  0  0  0  0
   -1.0101    0.7216   -0.2703 C   0  0  0  0  0  0  0  0  0  0  0  0
   -2.4295    0.5153    0.2085 C   0  0  0  0  0  0  0  0  0  0  0  0
   -2.1437   -0.9827    0.0027 C   0  0  0  0  0  0  0  0  0  0  0  0
   -0.7240   -0.5926    0.3535 C   0  0  0  0  0  0  0  0  0  0  0  0
    0.2837   -1.2791   -0.3144 O   0  0  0  0  0  0  0  0  0  0  0  0
    2.5314   -1.4360    1.2409 H   0  0  0  0  0  0  0  0  0  0  0  0
    2.9182    0.3103    0.9213 H   0  0  0  0  0  0  0  0  0  0  0  0
    1.3817   -0.1923    1.8000 H   0  0  0  0  0  0  0  0  0  0  0  0
    2.1714   -1.1045   -0.9907 H   0  0  0  0  0  0  0  0  0  0  0  0
    2.0266    1.5078   -0.4082 H   0  0  0  0  0  0  0  0  0  0  0  0
    1.5602    0.7736   -2.0287 H   0  0  0  0  0  0  0  0  0  0  0  0
   -0.2478    2.3383   -1.3266 H   0  0  0  0  0  0  0  0  0  0  0  0
   -3.1969    0.9281   -0.4404 H   0  0  0  0  0  0  0  0  0  0  0  0
   -2.4637    0.7348    1.2793 H   0  0  0  0  0  0  0  0  0  0  0  0
   -2.1908   -1.2914   -1.0596 H   0  0  0  0  0  0  0  0  0  0  0  0
   -2.6674   -1.6133    0.7202 H   0  0  0  0  0  0  0  0  0  0  0  0
   -0.6244   -0.5722    1.4630 H   0  0  0  0  0  0  0  0  0  0  0  0
  1  2  1  0
  2  3  1  0
  3  4  1  0
  4  5  2  0
  5  6  1  0
  6  7  1  0
  7  8  1  0
  8  9  1  0
  9  2  1  0
  8  5  1  0
  1 10  1  0
  1 11  1  0
  1 12  1  0
  2 13  1  0
  3 14  1  0
  3 15  1  0
  4 16  1  0
  6 17  1  0
  6 18  1  0
  7 19  1  0
  7 20  1  0
  8 21  1  0
M  END
