
     RDKit          3D

 21 22  0  0  0  0  0  0  0  0999 V2000
    2.4617   -0.1982   -0.0000 C   0  0  0  0  0  0  0  0  0  0  0  0
    1.0156    0.0339   -0.4635 C   0  0  0  0  0  0  0  0  0  0  0  0
    0.5807    1.3321    0.1197 C   0  0  0  0  0  0  0  0  0  0  0  0
   -0.8830    1.5103   -0.0155 C   0  0  0  0  0  0  0  0  0  0  0  0
   -1.4202    2.4964   -0.4699 O   0  0  0  0  0  0  0  0  0  0  0  0
   -1.7250    0.3868    0.4455 C   0  0  0  0  0  0  0  0  0  0  0  0
   -2.2595   -0.5099   -0.5898 C   0  0  0  0  0  0  0  0  0  0  0  0
   -1.1527   -0.9289    0.4007 C   0  0  0  0  0  0  0  0  0  0  0  0
    0.1940   -1.1402   -0.1491 C   0  0  0  0  0  0  0  0  0  0  0  0
    2.3837   -0.8153    0.9426 H   0  0  0  0  0  0  0  0  0  0  0  0
    2.9873   -0.8164   -0.7469 H   0  0  0  0  0  0  0  0  0  0  0  0
    2.9519    0.7421    0.2477 H   0  0  0  0  0  0  0  0  0  0  0  0
    1.1090    0.1885   -1.5792 H   0  0  0  0  0  0  0  0  0  0  0  0
    1.0550    2.1687   -0.4537 H   0  0  0  0  0  0  0  0  0  0  0  0
    0.9009    1.4829    1.1735 H   0  0  0  0  0  0  0  0  0  0  0  0
   -2.3427    0.6607    1.3508 H   0  0  0  0  0  0  0  0  0  0  0  0
   -1.9377   -0.3441   -1.6466 H   0  0  0  0  0  0  0  0  0  0  0  0
   -3.2392   -0.9797   -0.5053 H   0  0  0  0  0  0  0  0  0  0  0  0
   -1.5278   -1.6805    1.1567 H   0  0  0  0  0  0  0  0  0  0  0  0
    0.7590   -1.8277    0.5480 H   0  0  0  0  0  0  0  0  0  0  0  0
    0.0891   -1.7615   -1.0887 H   0  0  0  0  0  0  0  0  0  0  0  0
  1  2  1  0
  2  3  1  0
  3  4  1  0
  4  5  2  0
  4  6  1  0
  6  7  1  0
  7  8  1  0
  8  9  1  0
  9  2  1  0
  8  6  1  0
  1 10  1  0
  1 11  1  0
  1 12  1  0
  2 13  1  0
  3 14  1  0
  3 15  1  0
  6 16  1  0
  7 17  1  0
  7 18  1  0
  8 19  1  0
  9 20  1  0
  9 21  1  0
M  END
