
     RDKit          3D

 23 24  0  0  0  0  0  0  0  0999 V2000
    1.8279    0.6338    0.7209 C   0  0  0  0  0  0  0  0  0  0  0  0
    0.8802   -0.0862   -0.1593 C   0  0  0  0  0  0  0  0  0  0  0  0
    0.2774   -1.3318    0.5114 C   0  0  0  0  0  0  0  0  0  0  0  0
   -0.7125   -1.7431   -0.5498 C   0  0  0  0  0  0  0  0  0  0  0  0
   -1.2230   -0.4048   -1.1085 C   0  0  0  0  0  0  0  0  0  0  0  0
   -0.4797    0.6253   -0.2738 C   0  0  0  0  0  0  0  0  0  0  0  0
   -0.3995    1.9596   -0.8647 C   0  0  0  0  0  0  0  0  0  0  0  0
   -0.9741    0.5476    1.0093 O   0  0  0  0  0  0  0  0  0  0  0  0
   -0.5060   -0.6275    1.5947 C   0  0  0  0  0  0  0  0  0  0  0  0
    1.9897    0.2011    1.7123 H   0  0  0  0  0  0  0  0  0  0  0  0
    2.8368    0.6263    0.2129 H   0  0  0  0  0  0  0  0  0  0  0  0
    1.6006    1.7126    0.8697 H   0  0  0  0  0  0  0  0  0  0  0  0
    1.2071   -0.2797   -1.1756 H   0  0  0  0  0  0  0  0  0  0  0  0
    0.9873   -2.0574    0.8229 H   0  0  0  0  0  0  0  0  0  0  0  0
   -1.5836   -2.2094   -0.0530 H   0  0  0  0  0  0  0  0  0  0  0  0
   -0.2788   -2.3733   -1.3255 H   0  0  0  0  0  0  0  0  0  0  0  0
   -0.8233   -0.3084   -2.1494 H   0  0  0  0  0  0  0  0  0  0  0  0
   -2.3072   -0.3175   -1.0433 H   0  0  0  0  0  0  0  0  0  0  0  0
    0.5383    2.5166   -0.6775 H   0  0  0  0  0  0  0  0  0  0  0  0
   -1.2199    2.6133   -0.4528 H   0  0  0  0  0  0  0  0  0  0  0  0
   -0.4960    1.9159   -1.9889 H   0  0  0  0  0  0  0  0  0  0  0  0
    0.1503   -0.3099    2.4388 H   0  0  0  0  0  0  0  0  0  0  0  0
   -1.2919   -1.3031    1.9290 H   0  0  0  0  0  0  0  0  0  0  0  0
  1  2  1  0
  2  3  1  0
  3  4  1  0
  4  5  1  0
  5  6  1  0
  6  7  1  0
  6  8  1  0
  8  9  1  0
  6  2  1  0
  9  3  1  0
  1 10  1  0
  1 11  1  0
  1 12  1  0
  2 13  1  0
  3 14  1  0
  4 15  1  0
  4 16  1  0
  5 17  1  0
  5 18  1  0
  7 19  1  0
  7 20  1  0
  7 21  1  0
  9 22  1  0
  9 23  1  0
M  END
