
     RDKit          3D

 23 23  0  0  0  0  0  0  0  0999 V2000
   -0.7495    1.9355    0.2442 C   0  0  0  0  0  0  0  0  0  0  0  0
    0.2526    0.8293    0.2638 C   0  0  0  0  0  0  0  0  0  0  0  0
    1.0115    0.5761   -1.0028 C   0  0  0  0  0  0  0  0  0  0  0  0
    2.3598    0.8460   -0.9243 O   0  0  0  0  0  0  0  0  0  0  0  0
    0.6126   -0.8709   -0.9541 C   0  0  0  0  0  0  0  0  0  0  0  0
    1.6235   -1.7852   -0.7563 O   0  0  0  0  0  0  0  0  0  0  0  0
   -0.2744   -0.5668    0.2038 C   0  0  0  0  0  0  0  0  0  0  0  0
   -0.0346   -1.3046    1.4749 C   0  0  0  0  0  0  0  0  0  0  0  0
   -1.7337   -0.6978   -0.2124 C   0  0  0  0  0  0  0  0  0  0  0  0
   -0.9401    2.3104    1.2760 H   0  0  0  0  0  0  0  0  0  0  0  0
   -1.7279    1.6464   -0.1684 H   0  0  0  0  0  0  0  0  0  0  0  0
   -0.3382    2.7926   -0.3316 H   0  0  0  0  0  0  0  0  0  0  0  0
    0.9729    0.9867    1.1134 H   0  0  0  0  0  0  0  0  0  0  0  0
    0.5606    1.1706   -1.8330 H   0  0  0  0  0  0  0  0  0  0  0  0
    2.5161    1.7799   -1.2060 H   0  0  0  0  0  0  0  0  0  0  0  0
    0.0788   -1.1264   -1.9170 H   0  0  0  0  0  0  0  0  0  0  0  0
    2.0042   -1.7965    0.1414 H   0  0  0  0  0  0  0  0  0  0  0  0
    0.7518   -0.8330    2.1259 H   0  0  0  0  0  0  0  0  0  0  0  0
    0.1667   -2.3745    1.3682 H   0  0  0  0  0  0  0  0  0  0  0  0
   -0.9785   -1.2130    2.0907 H   0  0  0  0  0  0  0  0  0  0  0  0
   -1.8741   -1.7817   -0.4821 H   0  0  0  0  0  0  0  0  0  0  0  0
   -2.3514   -0.3869    0.6311 H   0  0  0  0  0  0  0  0  0  0  0  0
   -1.9086   -0.1363   -1.1453 H   0  0  0  0  0  0  0  0  0  0  0  0
  1  2  1  0
  2  3  1  0
  3  4  1  0
  3  5  1  0
  5  6  1  0
  5  7  1  0
  7  8  1  0
  7  9  1  0
  7  2  1  0
  1 10  1  0
  1 11  1  0
  1 12  1  0
  2 13  1  0
  3 14  1  0
  4 15  1  0
  5 16  1  0
  6 17  1  0
  8 18  1  0
  8 19  1  0
  8 20  1  0
  9 21  1  0
  9 22  1  0
  9 23  1  0
M  END
