
     RDKit          3D

 23 23  0  0  0  0  0  0  0  0999 V2000
    2.5106    0.0041    0.3059 C   0  0  0  0  0  0  0  0  0  0  0  0
    1.4456    0.1962   -0.7789 C   0  0  0  0  0  0  0  0  0  0  0  0
    0.5229   -1.0103   -0.8353 C   0  0  0  0  0  0  0  0  0  0  0  0
   -0.8571   -0.5038   -0.4663 C   0  0  0  0  0  0  0  0  0  0  0  0
   -1.6317   -1.5852    0.2021 C   0  0  0  0  0  0  0  0  0  0  0  0
   -0.5118    0.6451    0.4456 C   0  0  0  0  0  0  0  0  0  0  0  0
   -1.6510    1.5835    0.6730 C   0  0  0  0  0  0  0  0  0  0  0  0
    0.5772    1.3090   -0.3152 C   0  0  0  0  0  0  0  0  0  0  0  0
    0.7604    2.4874   -0.5359 O   0  0  0  0  0  0  0  0  0  0  0  0
    2.0030   -0.2316    1.2862 H   0  0  0  0  0  0  0  0  0  0  0  0
    3.2126   -0.7920    0.0485 H   0  0  0  0  0  0  0  0  0  0  0  0
    3.0398    0.9684    0.3905 H   0  0  0  0  0  0  0  0  0  0  0  0
    1.9539    0.3886   -1.7214 H   0  0  0  0  0  0  0  0  0  0  0  0
    0.5572   -1.4702   -1.8387 H   0  0  0  0  0  0  0  0  0  0  0  0
    0.8395   -1.7836   -0.0939 H   0  0  0  0  0  0  0  0  0  0  0  0
   -1.4076   -0.1831   -1.3732 H   0  0  0  0  0  0  0  0  0  0  0  0
   -2.6996   -1.3872    0.2969 H   0  0  0  0  0  0  0  0  0  0  0  0
   -1.5378   -2.5133   -0.4312 H   0  0  0  0  0  0  0  0  0  0  0  0
   -1.2407   -1.8656    1.1958 H   0  0  0  0  0  0  0  0  0  0  0  0
   -0.1183    0.2040    1.3877 H   0  0  0  0  0  0  0  0  0  0  0  0
   -1.3526    2.2822    1.4880 H   0  0  0  0  0  0  0  0  0  0  0  0
   -1.8105    2.1908   -0.2273 H   0  0  0  0  0  0  0  0  0  0  0  0
   -2.6038    1.0668    0.8970 H   0  0  0  0  0  0  0  0  0  0  0  0
  1  2  1  0
  2  3  1  0
  3  4  1  0
  4  5  1  0
  4  6  1  0
  6  7  1  0
  6  8  1  0
  8  9  2  0
  8  2  1  0
  1 10  1  0
  1 11  1  0
  1 12  1  0
  2 13  1  0
  3 14  1  0
  3 15  1  0
  4 16  1  0
  5 17  1  0
  5 18  1  0
  5 19  1  0
  6 20  1  0
  7 21  1  0
  7 22  1  0
  7 23  1  0
M  END
