
     RDKit          3D

 19 20  0  0  0  0  0  0  0  0999 V2000
   -1.5001    0.8241    1.0751 C   0  0  0  0  0  0  0  0  0  0  0  0
   -1.2023   -0.3555    0.1769 C   0  0  0  0  0  0  0  0  0  0  0  0
   -0.4895    0.0127   -1.1515 C   0  0  0  0  0  0  0  0  0  0  0  0
   -0.9556   -0.6624   -2.2965 O   0  0  0  0  0  0  0  0  0  0  0  0
    0.2044   -0.7482   -0.1145 C   0  0  0  0  0  0  0  0  0  0  0  0
    0.4079   -2.1194   -0.3944 O   0  0  0  0  0  0  0  0  0  0  0  0
    1.2709   -0.1722    0.7547 C   0  0  0  0  0  0  0  0  0  0  0  0
    2.0833    0.9390    0.4022 C   0  0  0  0  0  0  0  0  0  0  0  0
    2.5909   -0.3244    0.0427 O   0  0  0  0  0  0  0  0  0  0  0  0
   -2.6145    0.8207    1.2545 H   0  0  0  0  0  0  0  0  0  0  0  0
   -1.3058    1.7844    0.5415 H   0  0  0  0  0  0  0  0  0  0  0  0
   -0.9436    0.8178    2.0140 H   0  0  0  0  0  0  0  0  0  0  0  0
   -1.9811   -1.1513    0.0957 H   0  0  0  0  0  0  0  0  0  0  0  0
   -0.3402    1.0884   -1.3369 H   0  0  0  0  0  0  0  0  0  0  0  0
   -1.8628   -0.9860   -2.0792 H   0  0  0  0  0  0  0  0  0  0  0  0
    0.6586   -2.1472   -1.3621 H   0  0  0  0  0  0  0  0  0  0  0  0
    1.4099   -0.6595    1.7473 H   0  0  0  0  0  0  0  0  0  0  0  0
    2.7064    1.4198    1.1900 H   0  0  0  0  0  0  0  0  0  0  0  0
    1.8632    1.6192   -0.4350 H   0  0  0  0  0  0  0  0  0  0  0  0
  1  2  1  0
  2  3  1  0
  3  4  1  0
  3  5  1  0
  5  6  1  0
  5  7  1  0
  7  8  1  0
  8  9  1  0
  5  2  1  0
  9  7  1  0
  1 10  1  0
  1 11  1  0
  1 12  1  0
  2 13  1  0
  3 14  1  0
  4 15  1  0
  6 16  1  0
  7 17  1  0
  8 18  1  0
  8 19  1  0
M  END
