
     RDKit          3D

 19 20  0  0  0  0  0  0  0  0999 V2000
   -2.5393   -0.5602    0.4644 C   0  0  0  0  0  0  0  0  0  0  0  0
   -1.0518   -0.5911    0.3313 C   0  0  0  0  0  0  0  0  0  0  0  0
   -0.3188    0.5100    1.0261 C   0  0  0  0  0  0  0  0  0  0  0  0
    1.0352    0.3379    1.1589 O   0  0  0  0  0  0  0  0  0  0  0  0
    1.1591    0.5950   -0.2148 C   0  0  0  0  0  0  0  0  0  0  0  0
    2.0040   -0.5244   -0.8270 C   0  0  0  0  0  0  0  0  0  0  0  0
    3.2375   -0.5010   -0.1976 O   0  0  0  0  0  0  0  0  0  0  0  0
   -0.3108    0.4144   -0.4479 C   0  0  0  0  0  0  0  0  0  0  0  0
   -0.9466    1.3658   -1.2319 O   0  0  0  0  0  0  0  0  0  0  0  0
   -2.9039    0.4907    0.4640 H   0  0  0  0  0  0  0  0  0  0  0  0
   -2.7922   -0.9709    1.4849 H   0  0  0  0  0  0  0  0  0  0  0  0
   -3.0738   -1.1223   -0.3344 H   0  0  0  0  0  0  0  0  0  0  0  0
   -0.5744   -1.5958    0.4137 H   0  0  0  0  0  0  0  0  0  0  0  0
   -0.8424    1.3644    1.4676 H   0  0  0  0  0  0  0  0  0  0  0  0
    1.5526    1.6087   -0.3781 H   0  0  0  0  0  0  0  0  0  0  0  0
    2.0730   -0.3359   -1.9128 H   0  0  0  0  0  0  0  0  0  0  0  0
    1.4995   -1.4763   -0.5718 H   0  0  0  0  0  0  0  0  0  0  0  0
    3.3663   -1.2940    0.4107 H   0  0  0  0  0  0  0  0  0  0  0  0
   -0.5733    2.2849   -1.1052 H   0  0  0  0  0  0  0  0  0  0  0  0
  1  2  1  0
  2  3  1  0
  3  4  1  0
  4  5  1  0
  5  6  1  0
  6  7  1  0
  5  8  1  0
  8  9  1  0
  8  2  1  0
  8  3  1  0
  1 10  1  0
  1 11  1  0
  1 12  1  0
  2 13  1  0
  3 14  1  0
  5 15  1  0
  6 16  1  0
  6 17  1  0
  7 18  1  0
  9 19  1  0
M  END
