
     RDKit          3D

 21 22  0  0  0  0  0  0  0  0999 V2000
   -1.6695   -1.2414   -0.1485 C   0  0  0  0  0  0  0  0  0  0  0  0
   -1.2559    0.0897   -0.6781 C   0  0  0  0  0  0  0  0  0  0  0  0
   -1.5204    1.2262    0.3019 C   0  0  0  0  0  0  0  0  0  0  0  0
   -0.2813    1.2342    1.1287 C   0  0  0  0  0  0  0  0  0  0  0  0
    0.7138    0.6920    0.5083 C   0  0  0  0  0  0  0  0  0  0  0  0
    2.1098    0.2789    0.4537 C   0  0  0  0  0  0  0  0  0  0  0  0
    1.9463   -1.0833   -0.2054 C   0  0  0  0  0  0  0  0  0  0  0  0
    0.9267   -0.9114   -1.1016 O   0  0  0  0  0  0  0  0  0  0  0  0
    0.2333    0.2370   -0.8624 C   0  0  0  0  0  0  0  0  0  0  0  0
   -1.1236   -2.0385   -0.6901 H   0  0  0  0  0  0  0  0  0  0  0  0
   -2.7455   -1.3862   -0.3986 H   0  0  0  0  0  0  0  0  0  0  0  0
   -1.5132   -1.3448    0.9409 H   0  0  0  0  0  0  0  0  0  0  0  0
   -1.7546    0.3416   -1.6197 H   0  0  0  0  0  0  0  0  0  0  0  0
   -2.4159    1.0325    0.9203 H   0  0  0  0  0  0  0  0  0  0  0  0
   -1.5473    2.1654   -0.2584 H   0  0  0  0  0  0  0  0  0  0  0  0
   -0.2984    1.6723    2.1433 H   0  0  0  0  0  0  0  0  0  0  0  0
    2.6417    0.9542   -0.2462 H   0  0  0  0  0  0  0  0  0  0  0  0
    2.6076    0.2021    1.4365 H   0  0  0  0  0  0  0  0  0  0  0  0
    2.8930   -1.4090   -0.6699 H   0  0  0  0  0  0  0  0  0  0  0  0
    1.6012   -1.7848    0.5881 H   0  0  0  0  0  0  0  0  0  0  0  0
    0.4521    1.0733   -1.5428 H   0  0  0  0  0  0  0  0  0  0  0  0
  1  2  1  0
  2  3  1  0
  3  4  1  0
  4  5  2  0
  5  6  1  0
  6  7  1  0
  7  8  1  0
  8  9  1  0
  9  2  1  0
  9  5  1  0
  1 10  1  0
  1 11  1  0
  1 12  1  0
  2 13  1  0
  3 14  1  0
  3 15  1  0
  4 16  1  0
  6 17  1  0
  6 18  1  0
  7 19  1  0
  7 20  1  0
  9 21  1  0
M  END
