
     RDKit          3D

 21 22  0  0  0  0  0  0  0  0999 V2000
    2.0541   -0.4613    0.9105 C   0  0  0  0  0  0  0  0  0  0  0  0
    0.6031   -0.2429    0.5533 C   0  0  0  0  0  0  0  0  0  0  0  0
    0.4136    0.5928   -0.7362 C   0  0  0  0  0  0  0  0  0  0  0  0
    0.3661    2.0185   -0.3341 C   0  0  0  0  0  0  0  0  0  0  0  0
   -0.3151    2.8352   -0.8980 O   0  0  0  0  0  0  0  0  0  0  0  0
   -0.9251   -0.0842   -0.6963 C   0  0  0  0  0  0  0  0  0  0  0  0
   -1.7353    0.4726    0.4833 C   0  0  0  0  0  0  0  0  0  0  0  0
   -1.2586   -1.4522   -0.9151 C   0  0  0  0  0  0  0  0  0  0  0  0
    0.0408   -1.2945   -0.3480 C   0  0  0  0  0  0  0  0  0  0  0  0
    2.3214   -1.5127    0.5957 H   0  0  0  0  0  0  0  0  0  0  0  0
    2.7333    0.1870    0.3043 H   0  0  0  0  0  0  0  0  0  0  0  0
    2.2577   -0.4124    1.9845 H   0  0  0  0  0  0  0  0  0  0  0  0
    0.0378    0.0943    1.4049 H   0  0  0  0  0  0  0  0  0  0  0  0
    1.1042    0.3115   -1.5182 H   0  0  0  0  0  0  0  0  0  0  0  0
    0.9694    2.3818    0.5157 H   0  0  0  0  0  0  0  0  0  0  0  0
   -1.9502   -0.2844    1.2528 H   0  0  0  0  0  0  0  0  0  0  0  0
   -2.7478    0.6829    0.0155 H   0  0  0  0  0  0  0  0  0  0  0  0
   -1.3903    1.4358    0.8474 H   0  0  0  0  0  0  0  0  0  0  0  0
   -1.4479   -1.7368   -1.9959 H   0  0  0  0  0  0  0  0  0  0  0  0
   -1.9749   -2.0642   -0.2838 H   0  0  0  0  0  0  0  0  0  0  0  0
    0.8438   -1.4670   -1.1423 H   0  0  0  0  0  0  0  0  0  0  0  0
  1  2  1  0
  2  3  1  0
  3  4  1  0
  4  5  2  0
  3  6  1  0
  6  7  1  0
  6  8  1  0
  8  9  1  0
  9  2  1  0
  9  6  1  0
  1 10  1  0
  1 11  1  0
  1 12  1  0
  2 13  1  0
  3 14  1  0
  4 15  1  0
  7 16  1  0
  7 17  1  0
  7 18  1  0
  8 19  1  0
  8 20  1  0
  9 21  1  0
M  END
