
     RDKit          3D

 25 25  0  0  0  0  0  0  0  0999 V2000
    2.5964   -1.3701   -0.4853 C   0  0  0  0  0  0  0  0  0  0  0  0
    1.2812   -0.9844    0.0650 C   0  0  0  0  0  0  0  0  0  0  0  0
    1.2599    0.4654    0.5725 C   0  0  0  0  0  0  0  0  0  0  0  0
   -0.2425    0.5311    0.8532 C   0  0  0  0  0  0  0  0  0  0  0  0
   -0.7232    1.9380    1.0007 C   0  0  0  0  0  0  0  0  0  0  0  0
   -0.7766   -0.2014   -0.3194 C   0  0  0  0  0  0  0  0  0  0  0  0
   -1.3169    0.6988   -1.4099 C   0  0  0  0  0  0  0  0  0  0  0  0
   -1.8814   -1.1706    0.0409 C   0  0  0  0  0  0  0  0  0  0  0  0
    0.2630   -0.9372   -0.8798 O   0  0  0  0  0  0  0  0  0  0  0  0
    2.5442   -2.1075   -1.3132 H   0  0  0  0  0  0  0  0  0  0  0  0
    3.1937   -0.4665   -0.7819 H   0  0  0  0  0  0  0  0  0  0  0  0
    3.1828   -1.8720    0.3288 H   0  0  0  0  0  0  0  0  0  0  0  0
    1.0031   -1.6075    0.9480 H   0  0  0  0  0  0  0  0  0  0  0  0
    1.8529    0.5926    1.4736 H   0  0  0  0  0  0  0  0  0  0  0  0
    1.5058    1.1494   -0.2582 H   0  0  0  0  0  0  0  0  0  0  0  0
   -0.4300   -0.0248    1.7724 H   0  0  0  0  0  0  0  0  0  0  0  0
   -0.2420    2.3377    1.9389 H   0  0  0  0  0  0  0  0  0  0  0  0
   -1.7945    1.9243    1.1911 H   0  0  0  0  0  0  0  0  0  0  0  0
   -0.4001    2.6119    0.1948 H   0  0  0  0  0  0  0  0  0  0  0  0
   -1.7010    1.6503   -1.0493 H   0  0  0  0  0  0  0  0  0  0  0  0
   -0.5374    0.8662   -2.2029 H   0  0  0  0  0  0  0  0  0  0  0  0
   -2.1585    0.1878   -1.9455 H   0  0  0  0  0  0  0  0  0  0  0  0
   -1.6604   -1.7486    0.9417 H   0  0  0  0  0  0  0  0  0  0  0  0
   -1.9882   -1.8903   -0.8005 H   0  0  0  0  0  0  0  0  0  0  0  0
   -2.8301   -0.5727    0.1240 H   0  0  0  0  0  0  0  0  0  0  0  0
  1  2  1  0
  2  3  1  0
  3  4  1  0
  4  5  1  0
  4  6  1  0
  6  7  1  0
  6  8  1  0
  6  9  1  0
  9  2  1  0
  1 10  1  0
  1 11  1  0
  1 12  1  0
  2 13  1  0
  3 14  1  0
  3 15  1  0
  4 16  1  0
  5 17  1  0
  5 18  1  0
  5 19  1  0
  7 20  1  0
  7 21  1  0
  7 22  1  0
  8 23  1  0
  8 24  1  0
  8 25  1  0
M  END
