
     RDKit          3D

 21 22  0  0  0  0  0  0  0  0999 V2000
   -1.7823    0.9671   -0.9552 C   0  0  0  0  0  0  0  0  0  0  0  0
   -0.6713    0.0064   -0.6676 C   0  0  0  0  0  0  0  0  0  0  0  0
   -0.7943   -0.6836    0.6577 C   0  0  0  0  0  0  0  0  0  0  0  0
   -1.4987   -1.8906    0.5228 O   0  0  0  0  0  0  0  0  0  0  0  0
    0.6387   -1.0604    0.9711 C   0  0  0  0  0  0  0  0  0  0  0  0
    1.5090   -0.0900    0.2253 C   0  0  0  0  0  0  0  0  0  0  0  0
    2.8236   -0.4230    0.0059 O   0  0  0  0  0  0  0  0  0  0  0  0
    1.2619    1.3949    0.3978 C   0  0  0  0  0  0  0  0  0  0  0  0
    0.6820    0.6502   -0.7298 C   0  0  0  0  0  0  0  0  0  0  0  0
   -2.1897    1.4767   -0.0749 H   0  0  0  0  0  0  0  0  0  0  0  0
   -2.5860    0.4778   -1.5642 H   0  0  0  0  0  0  0  0  0  0  0  0
   -1.3617    1.7726   -1.6135 H   0  0  0  0  0  0  0  0  0  0  0  0
   -0.6965   -0.7972   -1.4541 H   0  0  0  0  0  0  0  0  0  0  0  0
   -1.2704   -0.0898    1.4410 H   0  0  0  0  0  0  0  0  0  0  0  0
   -2.4560   -1.7969    0.6699 H   0  0  0  0  0  0  0  0  0  0  0  0
    0.8581   -2.0770    0.5488 H   0  0  0  0  0  0  0  0  0  0  0  0
    0.7622   -1.0139    2.0616 H   0  0  0  0  0  0  0  0  0  0  0  0
    2.9262   -1.3912   -0.1754 H   0  0  0  0  0  0  0  0  0  0  0  0
    0.7150    1.6415    1.3168 H   0  0  0  0  0  0  0  0  0  0  0  0
    2.0798    2.0886    0.1648 H   0  0  0  0  0  0  0  0  0  0  0  0
    1.0502    0.8377   -1.7486 H   0  0  0  0  0  0  0  0  0  0  0  0
  1  2  1  0
  2  3  1  0
  3  4  1  0
  3  5  1  0
  5  6  1  0
  6  7  1  0
  6  8  1  0
  8  9  1  0
  9  2  1  0
  9  6  1  0
  1 10  1  0
  1 11  1  0
  1 12  1  0
  2 13  1  0
  3 14  1  0
  4 15  1  0
  5 16  1  0
  5 17  1  0
  7 18  1  0
  8 19  1  0
  8 20  1  0
  9 21  1  0
M  END
