
     RDKit          3D

 19 20  0  0  0  0  0  0  0  0999 V2000
    2.2319    0.1659   -0.6037 C   0  0  0  0  0  0  0  0  0  0  0  0
    0.7590    0.3311   -0.4503 C   0  0  0  0  0  0  0  0  0  0  0  0
    0.0522   -0.9001    0.1091 C   0  0  0  0  0  0  0  0  0  0  0  0
   -1.3455   -1.0710   -0.3996 C   0  0  0  0  0  0  0  0  0  0  0  0
   -1.3394   -0.7413   -1.7649 O   0  0  0  0  0  0  0  0  0  0  0  0
   -2.0907   -0.0175    0.3086 C   0  0  0  0  0  0  0  0  0  0  0  0
   -1.2808    0.7699    1.0077 C   0  0  0  0  0  0  0  0  0  0  0  0
    0.1196    0.3765    0.8827 C   0  0  0  0  0  0  0  0  0  0  0  0
    0.9775    0.4911    1.9781 O   0  0  0  0  0  0  0  0  0  0  0  0
    2.4150   -0.8918   -0.9528 H   0  0  0  0  0  0  0  0  0  0  0  0
    2.6730    0.8017   -1.4165 H   0  0  0  0  0  0  0  0  0  0  0  0
    2.7954    0.2586    0.3455 H   0  0  0  0  0  0  0  0  0  0  0  0
    0.2698    0.8979   -1.2636 H   0  0  0  0  0  0  0  0  0  0  0  0
    0.6294   -1.7275    0.5057 H   0  0  0  0  0  0  0  0  0  0  0  0
   -1.7195   -2.0833   -0.2214 H   0  0  0  0  0  0  0  0  0  0  0  0
   -1.5616    0.2175   -1.8871 H   0  0  0  0  0  0  0  0  0  0  0  0
   -3.1896    0.0733    0.2411 H   0  0  0  0  0  0  0  0  0  0  0  0
   -1.6618    1.6005    1.5917 H   0  0  0  0  0  0  0  0  0  0  0  0
    1.2662    1.4487    1.9896 H   0  0  0  0  0  0  0  0  0  0  0  0
  1  2  1  0
  2  3  1  0
  3  4  1  0
  4  5  1  0
  4  6  1  0
  6  7  2  0
  7  8  1  0
  8  9  1  0
  8  2  1  0
  8  3  1  0
  1 10  1  0
  1 11  1  0
  1 12  1  0
  2 13  1  0
  3 14  1  0
  4 15  1  0
  5 16  1  0
  6 17  1  0
  7 18  1  0
  9 19  1  0
M  END
