
     RDKit          3D

 23 24  0  0  0  0  0  0  0  0999 V2000
    1.8058    0.4068    0.9502 C   0  0  0  0  0  0  0  0  0  0  0  0
    1.4409    0.4064   -0.4921 C   0  0  0  0  0  0  0  0  0  0  0  0
    1.3193   -0.9816   -1.0919 C   0  0  0  0  0  0  0  0  0  0  0  0
   -0.1874   -0.8648   -0.9192 C   0  0  0  0  0  0  0  0  0  0  0  0
   -0.7189   -1.4483    0.3172 C   0  0  0  0  0  0  0  0  0  0  0  0
   -1.6884   -0.8089    0.9732 C   0  0  0  0  0  0  0  0  0  0  0  0
   -2.1339    0.4865    0.3350 C   0  0  0  0  0  0  0  0  0  0  0  0
   -0.8501    1.3043    0.1815 C   0  0  0  0  0  0  0  0  0  0  0  0
   -0.0036    0.6287   -0.8342 C   0  0  0  0  0  0  0  0  0  0  0  0
    1.0761   -0.0670    1.6167 H   0  0  0  0  0  0  0  0  0  0  0  0
    2.7816   -0.1530    1.0468 H   0  0  0  0  0  0  0  0  0  0  0  0
    1.9858    1.4314    1.3060 H   0  0  0  0  0  0  0  0  0  0  0  0
    2.0922    1.0999   -1.0637 H   0  0  0  0  0  0  0  0  0  0  0  0
    1.7429   -1.7907   -0.4757 H   0  0  0  0  0  0  0  0  0  0  0  0
    1.5915   -0.9620   -2.1481 H   0  0  0  0  0  0  0  0  0  0  0  0
   -0.7174   -1.2215   -1.8292 H   0  0  0  0  0  0  0  0  0  0  0  0
   -0.3769   -2.3840    0.7521 H   0  0  0  0  0  0  0  0  0  0  0  0
   -2.1316   -1.1747    1.8909 H   0  0  0  0  0  0  0  0  0  0  0  0
   -2.8406    1.0235    0.9675 H   0  0  0  0  0  0  0  0  0  0  0  0
   -2.5884    0.3020   -0.6450 H   0  0  0  0  0  0  0  0  0  0  0  0
   -0.3822    1.3765    1.1781 H   0  0  0  0  0  0  0  0  0  0  0  0
   -1.0975    2.3207   -0.1707 H   0  0  0  0  0  0  0  0  0  0  0  0
   -0.1193    1.0697   -1.8453 H   0  0  0  0  0  0  0  0  0  0  0  0
  1  2  1  0
  2  3  1  0
  3  4  1  0
  4  5  1  0
  5  6  2  0
  6  7  1  0
  7  8  1  0
  8  9  1  0
  9  2  1  0
  9  4  1  0
  1 10  1  0
  1 11  1  0
  1 12  1  0
  2 13  1  0
  3 14  1  0
  3 15  1  0
  4 16  1  0
  5 17  1  0
  6 18  1  0
  7 19  1  0
  7 20  1  0
  8 21  1  0
  8 22  1  0
  9 23  1  0
M  END
