
     RDKit          3D

 22 23  0  0  0  0  0  0  0  0999 V2000
   -0.5176   -1.8060    0.5875 C   0  0  0  0  0  0  0  0  0  0  0  0
   -0.1842   -0.7716   -0.4294 C   0  0  0  0  0  0  0  0  0  0  0  0
    1.0073    0.0915   -0.1599 C   0  0  0  0  0  0  0  0  0  0  0  0
    2.3282   -0.2317   -0.1442 C   0  0  0  0  0  0  0  0  0  0  0  0
    0.3037    1.1206   -1.0136 C   0  0  0  0  0  0  0  0  0  0  0  0
   -0.7934    0.5785   -0.1379 C   0  0  0  0  0  0  0  0  0  0  0  0
   -2.1156    0.9159   -0.1282 C   0  0  0  0  0  0  0  0  0  0  0  0
    0.1988    0.6829    0.9944 C   0  0  0  0  0  0  0  0  0  0  0  0
    0.2217   -1.9542    1.3718 H   0  0  0  0  0  0  0  0  0  0  0  0
   -0.7203   -2.7672    0.0583 H   0  0  0  0  0  0  0  0  0  0  0  0
   -1.4816   -1.4993    1.0882 H   0  0  0  0  0  0  0  0  0  0  0  0
   -0.2279   -1.0906   -1.4911 H   0  0  0  0  0  0  0  0  0  0  0  0
    2.9279    0.2083    0.7094 H   0  0  0  0  0  0  0  0  0  0  0  0
    2.9193    0.0839   -1.0552 H   0  0  0  0  0  0  0  0  0  0  0  0
    2.5572   -1.3376   -0.0668 H   0  0  0  0  0  0  0  0  0  0  0  0
    0.5908    2.1562   -0.8720 H   0  0  0  0  0  0  0  0  0  0  0  0
    0.1571    0.7772   -2.0664 H   0  0  0  0  0  0  0  0  0  0  0  0
   -2.8036    0.2146   -0.6711 H   0  0  0  0  0  0  0  0  0  0  0  0
   -2.3554    1.9235   -0.5807 H   0  0  0  0  0  0  0  0  0  0  0  0
   -2.5746    0.9867    0.9039 H   0  0  0  0  0  0  0  0  0  0  0  0
    0.5187    1.6955    1.2595 H   0  0  0  0  0  0  0  0  0  0  0  0
    0.0435    0.0229    1.8436 H   0  0  0  0  0  0  0  0  0  0  0  0
  1  2  1  0
  2  3  1  0
  3  4  1  0
  3  5  1  0
  5  6  1  0
  6  7  1  0
  6  8  1  0
  6  2  1  0
  8  3  1  0
  1  9  1  0
  1 10  1  0
  1 11  1  0
  2 12  1  0
  4 13  1  0
  4 14  1  0
  4 15  1  0
  5 16  1  0
  5 17  1  0
  7 18  1  0
  7 19  1  0
  7 20  1  0
  8 21  1  0
  8 22  1  0
M  END
