
     RDKit          3D

 19 20  0  0  0  0  0  0  0  0999 V2000
   -2.2084    0.4224    0.4388 C   0  0  0  0  0  0  0  0  0  0  0  0
   -1.1086   -0.3669   -0.1835 C   0  0  0  0  0  0  0  0  0  0  0  0
   -0.0964    0.4888   -0.8759 C   0  0  0  0  0  0  0  0  0  0  0  0
    1.1493    0.4030   -0.0193 C   0  0  0  0  0  0  0  0  0  0  0  0
    2.3391    0.5497   -0.8679 C   0  0  0  0  0  0  0  0  0  0  0  0
    2.9325    1.6353   -0.9286 O   0  0  0  0  0  0  0  0  0  0  0  0
    1.0769   -0.8797    0.7365 C   0  0  0  0  0  0  0  0  0  0  0  0
    0.6148   -2.0389    0.1680 O   0  0  0  0  0  0  0  0  0  0  0  0
   -0.3422   -1.2018    0.8198 C   0  0  0  0  0  0  0  0  0  0  0  0
   -2.1161    1.5121    0.1618 H   0  0  0  0  0  0  0  0  0  0  0  0
   -2.1011    0.3926    1.5360 H   0  0  0  0  0  0  0  0  0  0  0  0
   -3.2037    0.0393    0.1116 H   0  0  0  0  0  0  0  0  0  0  0  0
   -1.4987   -1.0958   -0.9492 H   0  0  0  0  0  0  0  0  0  0  0  0
    0.1783    0.0983   -1.8741 H   0  0  0  0  0  0  0  0  0  0  0  0
   -0.3802    1.5677   -0.9121 H   0  0  0  0  0  0  0  0  0  0  0  0
    1.1426    1.2355    0.7250 H   0  0  0  0  0  0  0  0  0  0  0  0
    2.7687   -0.2363   -1.4747 H   0  0  0  0  0  0  0  0  0  0  0  0
    1.6803   -0.9435    1.6685 H   0  0  0  0  0  0  0  0  0  0  0  0
   -0.8272   -1.5817    1.7194 H   0  0  0  0  0  0  0  0  0  0  0  0
  1  2  1  0
  2  3  1  0
  3  4  1  0
  4  5  1  0
  5  6  2  0
  4  7  1  0
  7  8  1  0
  8  9  1  0
  9  2  1  0
  9  7  1  0
  1 10  1  0
  1 11  1  0
  1 12  1  0
  2 13  1  0
  3 14  1  0
  3 15  1  0
  4 16  1  0
  5 17  1  0
  7 18  1  0
  9 19  1  0
M  END
