
     RDKit          3D

 20 22  0  0  0  0  0  0  0  0999 V2000
    2.6753   -0.3452   -0.1364 C   0  0  0  0  0  0  0  0  0  0  0  0
    1.2627   -0.3299    0.4506 C   0  0  0  0  0  0  0  0  0  0  0  0
    0.1908   -0.7107   -0.4682 C   0  0  0  0  0  0  0  0  0  0  0  0
   -1.2344   -0.8349   -0.0740 C   0  0  0  0  0  0  0  0  0  0  0  0
   -1.3684   -0.1667    1.2880 C   0  0  0  0  0  0  0  0  0  0  0  0
   -0.9406    1.0695    0.5137 C   0  0  0  0  0  0  0  0  0  0  0  0
   -1.8382    0.4849   -0.5885 C   0  0  0  0  0  0  0  0  0  0  0  0
    0.4201    0.7865   -0.0458 C   0  0  0  0  0  0  0  0  0  0  0  0
    3.1867   -1.2902    0.0626 H   0  0  0  0  0  0  0  0  0  0  0  0
    3.2111    0.5349    0.3085 H   0  0  0  0  0  0  0  0  0  0  0  0
    2.5873   -0.1234   -1.2172 H   0  0  0  0  0  0  0  0  0  0  0  0
    1.2622   -0.5067    1.5297 H   0  0  0  0  0  0  0  0  0  0  0  0
    0.4411   -0.9550   -1.5022 H   0  0  0  0  0  0  0  0  0  0  0  0
   -1.7912   -1.7221   -0.2577 H   0  0  0  0  0  0  0  0  0  0  0  0
   -2.4496   -0.0929    1.5352 H   0  0  0  0  0  0  0  0  0  0  0  0
   -0.7034   -0.5123    2.0668 H   0  0  0  0  0  0  0  0  0  0  0  0
   -1.1890    2.0257    0.8924 H   0  0  0  0  0  0  0  0  0  0  0  0
   -2.9028    0.5002   -0.3271 H   0  0  0  0  0  0  0  0  0  0  0  0
   -1.5474    0.7510   -1.6002 H   0  0  0  0  0  0  0  0  0  0  0  0
    0.7275    1.4373   -0.8690 H   0  0  0  0  0  0  0  0  0  0  0  0
  1  2  1  0
  2  3  1  0
  3  4  1  0
  4  5  1  0
  5  6  1  0
  6  7  1  0
  6  8  1  0
  8  2  1  0
  8  3  1  0
  7  4  1  0
  1  9  1  0
  1 10  1  0
  1 11  1  0
  2 12  1  0
  3 13  1  0
  4 14  1  0
  5 15  1  0
  5 16  1  0
  6 17  1  0
  7 18  1  0
  7 19  1  0
  8 20  1  0
M  END
