
     RDKit          3D

 17 18  0  0  0  0  0  0  0  0999 V2000
    1.7629   -0.2388   -0.4643 C   0  0  0  0  0  0  0  0  0  0  0  0
    0.6151    0.6446   -0.1332 C   0  0  0  0  0  0  0  0  0  0  0  0
   -0.7260    0.2615   -0.7121 C   0  0  0  0  0  0  0  0  0  0  0  0
   -0.8276   -1.1804   -0.3662 C   0  0  0  0  0  0  0  0  0  0  0  0
   -0.2274   -1.1708    0.9205 O   0  0  0  0  0  0  0  0  0  0  0  0
   -0.0564    0.1609    1.1640 C   0  0  0  0  0  0  0  0  0  0  0  0
   -1.2804    0.8831    0.5828 C   0  0  0  0  0  0  0  0  0  0  0  0
    1.8702   -1.1010    0.2476 H   0  0  0  0  0  0  0  0  0  0  0  0
    1.7106   -0.6678   -1.4691 H   0  0  0  0  0  0  0  0  0  0  0  0
    2.7043    0.3649   -0.3046 H   0  0  0  0  0  0  0  0  0  0  0  0
    0.7983    1.7410   -0.1366 H   0  0  0  0  0  0  0  0  0  0  0  0
   -1.0487    0.6569   -1.6298 H   0  0  0  0  0  0  0  0  0  0  0  0
   -0.3444   -1.8746   -1.0450 H   0  0  0  0  0  0  0  0  0  0  0  0
   -1.9068   -1.4334   -0.1540 H   0  0  0  0  0  0  0  0  0  0  0  0
    0.3380    0.5246    2.0772 H   0  0  0  0  0  0  0  0  0  0  0  0
   -2.2400    0.4676    0.8564 H   0  0  0  0  0  0  0  0  0  0  0  0
   -1.1417    1.9617    0.5662 H   0  0  0  0  0  0  0  0  0  0  0  0
  1  2  1  0
  2  3  1  0
  3  4  1  0
  4  5  1  0
  5  6  1  0
  6  7  1  0
  6  2  1  0
  7  3  1  0
  1  8  1  0
  1  9  1  0
  1 10  1  0
  2 11  1  0
  3 12  1  0
  4 13  1  0
  4 14  1  0
  6 15  1  0
  7 16  1  0
  7 17  1  0
M  END
