
     RDKit          3D

 17 17  0  0  0  0  0  0  0  0999 V2000
   -2.2194    0.1355   -0.4269 C   0  0  0  0  0  0  0  0  0  0  0  0
   -0.8606    0.0825    0.2121 C   0  0  0  0  0  0  0  0  0  0  0  0
    0.0696   -0.8963   -0.4613 C   0  0  0  0  0  0  0  0  0  0  0  0
    1.3282   -0.9298    0.4126 C   0  0  0  0  0  0  0  0  0  0  0  0
    1.9401    0.4065    0.2706 C   0  0  0  0  0  0  0  0  0  0  0  0
    3.1832    0.4833    0.2048 O   0  0  0  0  0  0  0  0  0  0  0  0
    1.0608    1.5567    0.2156 C   0  0  0  0  0  0  0  0  0  0  0  0
    1.5548    2.7142    0.1243 O   0  0  0  0  0  0  0  0  0  0  0  0
   -0.3358    1.3848    0.2636 O   0  0  0  0  0  0  0  0  0  0  0  0
   -2.2573    0.9651   -1.1918 H   0  0  0  0  0  0  0  0  0  0  0  0
   -2.5205   -0.8178   -0.9056 H   0  0  0  0  0  0  0  0  0  0  0  0
   -2.9668    0.4299    0.3497 H   0  0  0  0  0  0  0  0  0  0  0  0
   -1.0012   -0.2823    1.2530 H   0  0  0  0  0  0  0  0  0  0  0  0
    0.4027   -0.5673   -1.4544 H   0  0  0  0  0  0  0  0  0  0  0  0
   -0.3943   -1.8835   -0.4677 H   0  0  0  0  0  0  0  0  0  0  0  0
    2.0044   -1.7537    0.1165 H   0  0  0  0  0  0  0  0  0  0  0  0
    1.0122   -1.0279    1.4849 H   0  0  0  0  0  0  0  0  0  0  0  0
  1  2  1  0
  2  3  1  0
  3  4  1  0
  4  5  1  0
  5  6  2  0
  5  7  1  0
  7  8  2  0
  7  9  1  0
  9  2  1  0
  1 10  1  0
  1 11  1  0
  1 12  1  0
  2 13  1  0
  3 14  1  0
  3 15  1  0
  4 16  1  0
  4 17  1  0
M  END
