
     RDKit          3D

 23 23  0  0  0  0  0  0  0  0999 V2000
    2.9370    0.1426   -0.0610 C   0  0  0  0  0  0  0  0  0  0  0  0
    1.4258    0.1171   -0.3066 C   0  0  0  0  0  0  0  0  0  0  0  0
    0.8978   -1.2073    0.1037 C   0  0  0  0  0  0  0  0  0  0  0  0
   -0.3090   -1.7551    0.1198 C   0  0  0  0  0  0  0  0  0  0  0  0
   -1.6653   -1.2378   -0.2834 C   0  0  0  0  0  0  0  0  0  0  0  0
   -2.1092   -0.1889    0.7209 C   0  0  0  0  0  0  0  0  0  0  0  0
   -1.7862    1.2016    0.2381 C   0  0  0  0  0  0  0  0  0  0  0  0
   -0.4476    1.6573    0.6178 C   0  0  0  0  0  0  0  0  0  0  0  0
    0.8178    1.2419    0.4111 C   0  0  0  0  0  0  0  0  0  0  0  0
    3.3327    1.0823   -0.4940 H   0  0  0  0  0  0  0  0  0  0  0  0
    3.0624    0.1128    1.0498 H   0  0  0  0  0  0  0  0  0  0  0  0
    3.4223   -0.7663   -0.4824 H   0  0  0  0  0  0  0  0  0  0  0  0
    1.3103    0.1871   -1.4172 H   0  0  0  0  0  0  0  0  0  0  0  0
    1.6689   -1.8802    0.4737 H   0  0  0  0  0  0  0  0  0  0  0  0
   -0.3063   -2.7695    0.4973 H   0  0  0  0  0  0  0  0  0  0  0  0
   -2.3590   -2.0814   -0.2812 H   0  0  0  0  0  0  0  0  0  0  0  0
   -1.5986   -0.7279   -1.2630 H   0  0  0  0  0  0  0  0  0  0  0  0
   -1.6738   -0.4309    1.6887 H   0  0  0  0  0  0  0  0  0  0  0  0
   -3.2169   -0.2627    0.8067 H   0  0  0  0  0  0  0  0  0  0  0  0
   -1.9589    1.2098   -0.8589 H   0  0  0  0  0  0  0  0  0  0  0  0
   -2.5429    1.8848    0.6770 H   0  0  0  0  0  0  0  0  0  0  0  0
   -0.4400    2.5590    1.2208 H   0  0  0  0  0  0  0  0  0  0  0  0
    1.5386    1.9117    0.8992 H   0  0  0  0  0  0  0  0  0  0  0  0
  1  2  1  0
  2  3  1  0
  3  4  2  3
  4  5  1  0
  5  6  1  0
  6  7  1  0
  7  8  1  0
  8  9  2  3
  9  2  1  0
  1 10  1  0
  1 11  1  0
  1 12  1  0
  2 13  1  0
  3 14  1  0
  4 15  1  0
  5 16  1  0
  5 17  1  0
  6 18  1  0
  6 19  1  0
  7 20  1  0
  7 21  1  0
  8 22  1  0
  9 23  1  0
M  END
