
     RDKit          3D

 23 24  0  0  0  0  0  0  0  0999 V2000
   -1.9799   -1.4043    0.5869 C   0  0  0  0  0  0  0  0  0  0  0  0
   -0.9322   -0.2922    0.6857 C   0  0  0  0  0  0  0  0  0  0  0  0
   -1.6073    0.9421    0.0483 C   0  0  0  0  0  0  0  0  0  0  0  0
   -0.5309    1.5325   -0.8887 C   0  0  0  0  0  0  0  0  0  0  0  0
    0.6628    1.0052   -0.1856 C   0  0  0  0  0  0  0  0  0  0  0  0
    0.1748   -0.4990   -0.2801 C   0  0  0  0  0  0  0  0  0  0  0  0
    1.5135   -0.0953   -0.3688 C   0  0  0  0  0  0  0  0  0  0  0  0
    2.5453   -0.4103    0.7279 C   0  0  0  0  0  0  0  0  0  0  0  0
    2.1748   -0.1474   -1.6246 O   0  0  0  0  0  0  0  0  0  0  0  0
   -1.5389   -2.4002    0.6127 H   0  0  0  0  0  0  0  0  0  0  0  0
   -2.7433   -1.2557    1.3740 H   0  0  0  0  0  0  0  0  0  0  0  0
   -2.5369   -1.2625   -0.3858 H   0  0  0  0  0  0  0  0  0  0  0  0
   -0.6384   -0.0931    1.7162 H   0  0  0  0  0  0  0  0  0  0  0  0
   -1.9005    1.6721    0.8150 H   0  0  0  0  0  0  0  0  0  0  0  0
   -2.4539    0.6629   -0.5774 H   0  0  0  0  0  0  0  0  0  0  0  0
   -0.6587    1.0983   -1.9149 H   0  0  0  0  0  0  0  0  0  0  0  0
   -0.6034    2.6166   -0.8562 H   0  0  0  0  0  0  0  0  0  0  0  0
    0.6618    1.4440    0.8613 H   0  0  0  0  0  0  0  0  0  0  0  0
   -0.2998   -0.7904   -1.2713 H   0  0  0  0  0  0  0  0  0  0  0  0
    3.0963   -1.3116    0.4609 H   0  0  0  0  0  0  0  0  0  0  0  0
    3.2884    0.4371    0.6794 H   0  0  0  0  0  0  0  0  0  0  0  0
    2.1102   -0.3830    1.7240 H   0  0  0  0  0  0  0  0  0  0  0  0
    2.1964   -1.0660   -1.9388 H   0  0  0  0  0  0  0  0  0  0  0  0
  1  2  1  0
  2  3  1  0
  3  4  1  0
  4  5  1  0
  5  6  1  0
  6  7  1  0
  7  8  1  0
  7  9  1  0
  6  2  1  0
  7  5  1  0
  1 10  1  0
  1 11  1  0
  1 12  1  0
  2 13  1  0
  3 14  1  0
  3 15  1  0
  4 16  1  0
  4 17  1  0
  5 18  1  0
  6 19  1  0
  8 20  1  0
  8 21  1  0
  8 22  1  0
  9 23  1  0
M  END
