
     RDKit          3D

 25 25  0  0  0  0  0  0  0  0999 V2000
   -1.1012    1.3940    1.1078 C   0  0  0  0  0  0  0  0  0  0  0  0
   -0.8434    0.8837   -0.2702 C   0  0  0  0  0  0  0  0  0  0  0  0
    0.1848    1.6358   -1.0083 C   0  0  0  0  0  0  0  0  0  0  0  0
    1.3041    0.9566   -1.0436 C   0  0  0  0  0  0  0  0  0  0  0  0
    1.1571   -0.3277   -0.3343 C   0  0  0  0  0  0  0  0  0  0  0  0
    1.8207   -0.1782    1.0093 C   0  0  0  0  0  0  0  0  0  0  0  0
   -0.3108   -0.5384   -0.2769 C   0  0  0  0  0  0  0  0  0  0  0  0
   -0.7488   -1.2529   -1.5444 C   0  0  0  0  0  0  0  0  0  0  0  0
   -0.7944   -1.3383    0.8814 C   0  0  0  0  0  0  0  0  0  0  0  0
   -1.9406    0.7878    1.5324 H   0  0  0  0  0  0  0  0  0  0  0  0
   -1.4115    2.4547    1.0213 H   0  0  0  0  0  0  0  0  0  0  0  0
   -0.2402    1.2744    1.7914 H   0  0  0  0  0  0  0  0  0  0  0  0
   -1.7851    0.9064   -0.8384 H   0  0  0  0  0  0  0  0  0  0  0  0
    0.0664    2.6437   -1.4847 H   0  0  0  0  0  0  0  0  0  0  0  0
    2.2600    1.2738   -1.5340 H   0  0  0  0  0  0  0  0  0  0  0  0
    1.6505   -1.1003   -0.9616 H   0  0  0  0  0  0  0  0  0  0  0  0
    2.8290   -0.6812    0.9140 H   0  0  0  0  0  0  0  0  0  0  0  0
    2.0632    0.8812    1.2467 H   0  0  0  0  0  0  0  0  0  0  0  0
    1.2624   -0.5955    1.8424 H   0  0  0  0  0  0  0  0  0  0  0  0
   -0.2047   -2.2321   -1.5477 H   0  0  0  0  0  0  0  0  0  0  0  0
   -1.8385   -1.4865   -1.5229 H   0  0  0  0  0  0  0  0  0  0  0  0
   -0.4742   -0.6263   -2.4079 H   0  0  0  0  0  0  0  0  0  0  0  0
   -0.2661   -2.2999    0.8959 H   0  0  0  0  0  0  0  0  0  0  0  0
   -1.8762   -1.5877    0.6838 H   0  0  0  0  0  0  0  0  0  0  0  0
   -0.7624   -0.8470    1.8485 H   0  0  0  0  0  0  0  0  0  0  0  0
  1  2  1  0
  2  3  1  0
  3  4  2  0
  4  5  1  0
  5  6  1  0
  5  7  1  0
  7  8  1  0
  7  9  1  0
  7  2  1  0
  1 10  1  0
  1 11  1  0
  1 12  1  0
  2 13  1  0
  3 14  1  0
  4 15  1  0
  5 16  1  0
  6 17  1  0
  6 18  1  0
  6 19  1  0
  8 20  1  0
  8 21  1  0
  8 22  1  0
  9 23  1  0
  9 24  1  0
  9 25  1  0
M  END
