
     RDKit          3D

 17 18  0  0  0  0  0  0  0  0999 V2000
    1.7020   -0.4605   -0.5301 C   0  0  0  0  0  0  0  0  0  0  0  0
    0.7306    0.3846    0.2509 C   0  0  0  0  0  0  0  0  0  0  0  0
    0.1205    1.4520   -0.5642 C   0  0  0  0  0  0  0  0  0  0  0  0
   -1.1464    1.5813   -0.2087 C   0  0  0  0  0  0  0  0  0  0  0  0
   -1.4709    0.6302    0.8460 C   0  0  0  0  0  0  0  0  0  0  0  0
   -2.4416    0.7271    1.6094 O   0  0  0  0  0  0  0  0  0  0  0  0
   -0.4274   -0.3690    0.7530 C   0  0  0  0  0  0  0  0  0  0  0  0
   -0.7462   -1.6607    0.1021 C   0  0  0  0  0  0  0  0  0  0  0  0
   -0.3796   -1.5305    1.4435 O   0  0  0  0  0  0  0  0  0  0  0  0
    2.6553    0.1336   -0.5897 H   0  0  0  0  0  0  0  0  0  0  0  0
    1.8677   -1.3913    0.0717 H   0  0  0  0  0  0  0  0  0  0  0  0
    1.3292   -0.7698   -1.5140 H   0  0  0  0  0  0  0  0  0  0  0  0
    1.3170    0.9124    1.0492 H   0  0  0  0  0  0  0  0  0  0  0  0
    0.6176    2.0503   -1.3406 H   0  0  0  0  0  0  0  0  0  0  0  0
   -1.8825    2.2929   -0.6241 H   0  0  0  0  0  0  0  0  0  0  0  0
   -0.0334   -2.0361   -0.6336 H   0  0  0  0  0  0  0  0  0  0  0  0
   -1.8117   -1.9465   -0.1210 H   0  0  0  0  0  0  0  0  0  0  0  0
  1  2  1  0
  2  3  1  0
  3  4  2  0
  4  5  1  0
  5  6  2  0
  5  7  1  0
  7  8  1  0
  8  9  1  0
  7  2  1  0
  9  7  1  0
  1 10  1  0
  1 11  1  0
  1 12  1  0
  2 13  1  0
  3 14  1  0
  4 15  1  0
  8 16  1  0
  8 17  1  0
M  END
