
     RDKit          3D

 19 20  0  0  0  0  0  0  0  0999 V2000
   -1.7259   -1.1256   -0.3293 C   0  0  0  0  0  0  0  0  0  0  0  0
   -1.1545    0.2240   -0.0965 C   0  0  0  0  0  0  0  0  0  0  0  0
   -0.6049    0.3556    1.2896 C   0  0  0  0  0  0  0  0  0  0  0  0
   -0.6448   -0.1091    2.3876 O   0  0  0  0  0  0  0  0  0  0  0  0
    0.1215    1.4717    0.6446 C   0  0  0  0  0  0  0  0  0  0  0  0
    1.1715    1.4886   -0.3062 C   0  0  0  0  0  0  0  0  0  0  0  0
    0.3192    0.3437   -0.4427 C   0  0  0  0  0  0  0  0  0  0  0  0
    0.9964   -0.9384   -0.0015 C   0  0  0  0  0  0  0  0  0  0  0  0
    2.3591   -0.9320   -0.2760 O   0  0  0  0  0  0  0  0  0  0  0  0
   -2.8109   -1.0884   -0.0324 H   0  0  0  0  0  0  0  0  0  0  0  0
   -1.2447   -1.8972    0.3008 H   0  0  0  0  0  0  0  0  0  0  0  0
   -1.6375   -1.4393   -1.3848 H   0  0  0  0  0  0  0  0  0  0  0  0
   -1.7844    1.0642   -0.4235 H   0  0  0  0  0  0  0  0  0  0  0  0
   -0.7007    2.2221    0.3903 H   0  0  0  0  0  0  0  0  0  0  0  0
    1.1818    2.2004   -1.1786 H   0  0  0  0  0  0  0  0  0  0  0  0
    2.2237    1.4276    0.1063 H   0  0  0  0  0  0  0  0  0  0  0  0
    0.8744   -1.2027    1.0387 H   0  0  0  0  0  0  0  0  0  0  0  0
    0.5539   -1.7481   -0.6502 H   0  0  0  0  0  0  0  0  0  0  0  0
    2.5066   -0.3171   -1.0363 H   0  0  0  0  0  0  0  0  0  0  0  0
  1  2  1  0
  2  3  1  0
  3  4  2  0
  3  5  1  0
  5  6  1  0
  6  7  1  0
  7  8  1  0
  8  9  1  0
  7  2  1  0
  7  5  1  0
  1 10  1  0
  1 11  1  0
  1 12  1  0
  2 13  1  0
  5 14  1  0
  6 15  1  0
  6 16  1  0
  8 17  1  0
  8 18  1  0
  9 19  1  0
M  END
