
     RDKit          3D

 22 22  0  0  0  0  0  0  0  0999 V2000
   -1.9978    0.7758   -1.2955 C   0  0  0  0  0  0  0  0  0  0  0  0
   -1.3673    0.4931    0.0387 C   0  0  0  0  0  0  0  0  0  0  0  0
   -1.8893   -0.7564    0.7386 C   0  0  0  0  0  0  0  0  0  0  0  0
   -0.4499   -0.8995    1.2579 C   0  0  0  0  0  0  0  0  0  0  0  0
   -0.0380   -0.2299   -0.0479 C   0  0  0  0  0  0  0  0  0  0  0  0
    1.1691    0.6637    0.0758 C   0  0  0  0  0  0  0  0  0  0  0  0
    2.4063   -0.2101   -0.0315 C   0  0  0  0  0  0  0  0  0  0  0  0
    3.5634    0.5748    0.0777 O   0  0  0  0  0  0  0  0  0  0  0  0
   -3.0439    1.0375   -1.1358 H   0  0  0  0  0  0  0  0  0  0  0  0
   -1.4756    1.6243   -1.7449 H   0  0  0  0  0  0  0  0  0  0  0  0
   -1.9595   -0.1570   -1.8884 H   0  0  0  0  0  0  0  0  0  0  0  0
   -1.3152    1.3462    0.7396 H   0  0  0  0  0  0  0  0  0  0  0  0
   -2.6398   -0.5898    1.5093 H   0  0  0  0  0  0  0  0  0  0  0  0
   -2.0880   -1.5762    0.0182 H   0  0  0  0  0  0  0  0  0  0  0  0
   -0.3307   -0.2034    2.1070 H   0  0  0  0  0  0  0  0  0  0  0  0
   -0.1096   -1.9224    1.3945 H   0  0  0  0  0  0  0  0  0  0  0  0
   -0.0409   -0.9138   -0.9006 H   0  0  0  0  0  0  0  0  0  0  0  0
    1.1867    1.2202    1.0187 H   0  0  0  0  0  0  0  0  0  0  0  0
    1.1958    1.3956   -0.7534 H   0  0  0  0  0  0  0  0  0  0  0  0
    2.4475   -0.7119   -1.0160 H   0  0  0  0  0  0  0  0  0  0  0  0
    2.4470   -0.9539    0.7881 H   0  0  0  0  0  0  0  0  0  0  0  0
    4.3298   -0.0068    0.2910 H   0  0  0  0  0  0  0  0  0  0  0  0
  1  2  1  0
  2  3  1  0
  3  4  1  0
  4  5  1  0
  5  6  1  0
  6  7  1  0
  7  8  1  0
  5  2  1  0
  1  9  1  0
  1 10  1  0
  1 11  1  0
  2 12  1  0
  3 13  1  0
  3 14  1  0
  4 15  1  0
  4 16  1  0
  5 17  1  0
  6 18  1  0
  6 19  1  0
  7 20  1  0
  7 21  1  0
  8 22  1  0
M  END
