
     RDKit          3D

 21 22  0  0  0  0  0  0  0  0999 V2000
   -1.3963   -0.2035    1.2595 C   0  0  0  0  0  0  0  0  0  0  0  0
   -1.2400   -0.6626   -0.1628 C   0  0  0  0  0  0  0  0  0  0  0  0
    0.1551   -1.1183   -0.5347 C   0  0  0  0  0  0  0  0  0  0  0  0
    1.2205   -1.0634    0.4720 C   0  0  0  0  0  0  0  0  0  0  0  0
    1.8141    0.2616    0.7080 C   0  0  0  0  0  0  0  0  0  0  0  0
    1.3248    1.3572    0.1950 C   0  0  0  0  0  0  0  0  0  0  0  0
    0.1367    1.3960   -0.6688 C   0  0  0  0  0  0  0  0  0  0  0  0
   -0.3680    0.0839   -1.1155 C   0  0  0  0  0  0  0  0  0  0  0  0
   -0.7339    0.0359   -2.4799 O   0  0  0  0  0  0  0  0  0  0  0  0
   -1.1019   -1.0182    1.9644 H   0  0  0  0  0  0  0  0  0  0  0  0
   -0.8483    0.7047    1.5088 H   0  0  0  0  0  0  0  0  0  0  0  0
   -2.4776    0.0008    1.4902 H   0  0  0  0  0  0  0  0  0  0  0  0
   -2.1187   -1.1839   -0.5812 H   0  0  0  0  0  0  0  0  0  0  0  0
    0.1371   -2.0564   -1.1583 H   0  0  0  0  0  0  0  0  0  0  0  0
    2.0703   -1.7472    0.1790 H   0  0  0  0  0  0  0  0  0  0  0  0
    0.8738   -1.4631    1.4546 H   0  0  0  0  0  0  0  0  0  0  0  0
    2.6986    0.3134    1.3394 H   0  0  0  0  0  0  0  0  0  0  0  0
    1.8221    2.2951    0.4177 H   0  0  0  0  0  0  0  0  0  0  0  0
   -0.6721    1.9752   -0.1326 H   0  0  0  0  0  0  0  0  0  0  0  0
    0.3979    2.0647   -1.5422 H   0  0  0  0  0  0  0  0  0  0  0  0
   -1.6942    0.0280   -2.6127 H   0  0  0  0  0  0  0  0  0  0  0  0
  1  2  1  0
  2  3  1  0
  3  4  1  0
  4  5  1  0
  5  6  2  0
  6  7  1  0
  7  8  1  0
  8  9  1  0
  8  2  1  0
  8  3  1  0
  1 10  1  0
  1 11  1  0
  1 12  1  0
  2 13  1  0
  3 14  1  0
  4 15  1  0
  4 16  1  0
  5 17  1  0
  6 18  1  0
  7 19  1  0
  7 20  1  0
  9 21  1  0
M  END
