
     RDKit          3D

 21 21  0  0  0  0  0  0  0  0999 V2000
   -1.6169   -1.4795    0.2927 C   0  0  0  0  0  0  0  0  0  0  0  0
   -0.7169   -0.2860    0.3296 C   0  0  0  0  0  0  0  0  0  0  0  0
   -1.0307    0.8527   -0.5617 C   0  0  0  0  0  0  0  0  0  0  0  0
   -1.0111    2.1722    0.1500 C   0  0  0  0  0  0  0  0  0  0  0  0
   -0.9766    2.2493    1.3552 O   0  0  0  0  0  0  0  0  0  0  0  0
    0.3212    0.6293   -1.2513 C   0  0  0  0  0  0  0  0  0  0  0  0
    0.5999   -0.5496   -0.3823 C   0  0  0  0  0  0  0  0  0  0  0  0
    1.7462   -0.4402    0.5735 C   0  0  0  0  0  0  0  0  0  0  0  0
    2.9726   -0.6674   -0.0043 O   0  0  0  0  0  0  0  0  0  0  0  0
   -2.0591   -1.6997   -0.6751 H   0  0  0  0  0  0  0  0  0  0  0  0
   -1.0154   -2.3531    0.6809 H   0  0  0  0  0  0  0  0  0  0  0  0
   -2.4391   -1.3609    1.0466 H   0  0  0  0  0  0  0  0  0  0  0  0
   -0.5901    0.0359    1.4050 H   0  0  0  0  0  0  0  0  0  0  0  0
   -1.9003    0.7577   -1.2365 H   0  0  0  0  0  0  0  0  0  0  0  0
   -1.0281    3.0777   -0.4235 H   0  0  0  0  0  0  0  0  0  0  0  0
    0.1913    0.3813   -2.3459 H   0  0  0  0  0  0  0  0  0  0  0  0
    1.0057    1.4881   -1.1828 H   0  0  0  0  0  0  0  0  0  0  0  0
    0.6143   -1.5125   -0.9454 H   0  0  0  0  0  0  0  0  0  0  0  0
    1.5417   -1.1787    1.4038 H   0  0  0  0  0  0  0  0  0  0  0  0
    1.7424    0.5454    1.0476 H   0  0  0  0  0  0  0  0  0  0  0  0
    3.6488   -0.6618    0.7237 H   0  0  0  0  0  0  0  0  0  0  0  0
  1  2  1  0
  2  3  1  0
  3  4  1  0
  4  5  2  0
  3  6  1  0
  6  7  1  0
  7  8  1  0
  8  9  1  0
  7  2  1  0
  1 10  1  0
  1 11  1  0
  1 12  1  0
  2 13  1  0
  3 14  1  0
  4 15  1  0
  6 16  1  0
  6 17  1  0
  7 18  1  0
  8 19  1  0
  8 20  1  0
  9 21  1  0
M  END
