
     RDKit          3D

 19 20  0  0  0  0  0  0  0  0999 V2000
   -2.3479    0.3256   -0.1995 C   0  0  0  0  0  0  0  0  0  0  0  0
   -1.0887   -0.1234    0.5128 C   0  0  0  0  0  0  0  0  0  0  0  0
   -0.5400   -1.4104   -0.0214 C   0  0  0  0  0  0  0  0  0  0  0  0
    0.9425   -1.2453    0.1710 C   0  0  0  0  0  0  0  0  0  0  0  0
    1.7567   -2.1299    0.3700 O   0  0  0  0  0  0  0  0  0  0  0  0
    1.2582    0.1883    0.0781 C   0  0  0  0  0  0  0  0  0  0  0  0
    2.3103    0.7053   -0.8366 C   0  0  0  0  0  0  0  0  0  0  0  0
    0.9962    1.0031    1.2081 O   0  0  0  0  0  0  0  0  0  0  0  0
   -0.0008    0.8900    0.2669 C   0  0  0  0  0  0  0  0  0  0  0  0
   -2.5961    1.3342    0.2367 H   0  0  0  0  0  0  0  0  0  0  0  0
   -3.1823   -0.3757   -0.0484 H   0  0  0  0  0  0  0  0  0  0  0  0
   -2.1246    0.5138   -1.2615 H   0  0  0  0  0  0  0  0  0  0  0  0
   -1.2744   -0.2540    1.5913 H   0  0  0  0  0  0  0  0  0  0  0  0
   -0.8871   -2.2901    0.5755 H   0  0  0  0  0  0  0  0  0  0  0  0
   -0.8123   -1.6043   -1.0596 H   0  0  0  0  0  0  0  0  0  0  0  0
    3.1100    1.1857   -0.2121 H   0  0  0  0  0  0  0  0  0  0  0  0
    1.8961    1.5366   -1.4553 H   0  0  0  0  0  0  0  0  0  0  0  0
    2.7779   -0.0221   -1.4909 H   0  0  0  0  0  0  0  0  0  0  0  0
   -0.1937    1.7725   -0.3695 H   0  0  0  0  0  0  0  0  0  0  0  0
  1  2  1  0
  2  3  1  0
  3  4  1  0
  4  5  2  0
  4  6  1  0
  6  7  1  0
  6  8  1  0
  8  9  1  0
  9  2  1  0
  9  6  1  0
  1 10  1  0
  1 11  1  0
  1 12  1  0
  2 13  1  0
  3 14  1  0
  3 15  1  0
  7 16  1  0
  7 17  1  0
  7 18  1  0
  9 19  1  0
M  END
