
     RDKit          3D

 21 23  0  0  0  0  0  0  0  0999 V2000
    2.6768    0.9111    0.5582 C   0  0  0  0  0  0  0  0  0  0  0  0
    1.1883    0.7343    0.4844 C   0  0  0  0  0  0  0  0  0  0  0  0
    0.7604   -0.6127   -0.0636 C   0  0  0  0  0  0  0  0  0  0  0  0
   -0.5555   -1.1027    0.4828 C   0  0  0  0  0  0  0  0  0  0  0  0
   -1.5619   -0.4913   -0.4319 C   0  0  0  0  0  0  0  0  0  0  0  0
   -2.5008    0.5180    0.1988 C   0  0  0  0  0  0  0  0  0  0  0  0
   -1.6002    1.5287   -0.1048 O   0  0  0  0  0  0  0  0  0  0  0  0
   -0.9259    0.7413   -1.0121 C   0  0  0  0  0  0  0  0  0  0  0  0
    0.5465    0.6126   -0.8301 C   0  0  0  0  0  0  0  0  0  0  0  0
    3.2314    0.1262   -0.0277 H   0  0  0  0  0  0  0  0  0  0  0  0
    3.0324    1.8756    0.1889 H   0  0  0  0  0  0  0  0  0  0  0  0
    2.9755    0.7102    1.6271 H   0  0  0  0  0  0  0  0  0  0  0  0
    0.6529    1.1322    1.3796 H   0  0  0  0  0  0  0  0  0  0  0  0
    1.5212   -1.3276   -0.4089 H   0  0  0  0  0  0  0  0  0  0  0  0
   -0.7050   -0.7601    1.5472 H   0  0  0  0  0  0  0  0  0  0  0  0
   -0.5227   -2.2206    0.4326 H   0  0  0  0  0  0  0  0  0  0  0  0
   -2.0447   -1.1781   -1.1599 H   0  0  0  0  0  0  0  0  0  0  0  0
   -2.5959    0.3678    1.3016 H   0  0  0  0  0  0  0  0  0  0  0  0
   -3.4504    0.5332   -0.3607 H   0  0  0  0  0  0  0  0  0  0  0  0
   -1.2616    0.9032   -2.0462 H   0  0  0  0  0  0  0  0  0  0  0  0
    1.1391    0.8221   -1.7551 H   0  0  0  0  0  0  0  0  0  0  0  0
  1  2  1  0
  2  3  1  0
  3  4  1  0
  4  5  1  0
  5  6  1  0
  6  7  1  0
  7  8  1  0
  8  9  1  0
  9  2  1  0
  9  3  1  0
  8  5  1  0
  1 10  1  0
  1 11  1  0
  1 12  1  0
  2 13  1  0
  3 14  1  0
  4 15  1  0
  4 16  1  0
  5 17  1  0
  6 18  1  0
  6 19  1  0
  8 20  1  0
  9 21  1  0
M  END
