
     RDKit          3D

 19 20  0  0  0  0  0  0  0  0999 V2000
   -1.8160   -0.9923    0.1947 C   0  0  0  0  0  0  0  0  0  0  0  0
   -1.1408    0.1407   -0.5162 C   0  0  0  0  0  0  0  0  0  0  0  0
   -0.5761    1.2338    0.3301 C   0  0  0  0  0  0  0  0  0  0  0  0
    0.6890    1.1680   -0.4968 C   0  0  0  0  0  0  0  0  0  0  0  0
    1.4564   -0.0907   -0.4035 C   0  0  0  0  0  0  0  0  0  0  0  0
    1.6835   -0.6380    0.9693 C   0  0  0  0  0  0  0  0  0  0  0  0
    0.1843   -0.1263   -1.1057 C   0  0  0  0  0  0  0  0  0  0  0  0
   -1.2286   -1.4693    0.9735 H   0  0  0  0  0  0  0  0  0  0  0  0
   -2.0249   -1.7797   -0.5787 H   0  0  0  0  0  0  0  0  0  0  0  0
   -2.7458   -0.6073    0.6500 H   0  0  0  0  0  0  0  0  0  0  0  0
   -1.8730    0.5885   -1.2520 H   0  0  0  0  0  0  0  0  0  0  0  0
   -0.4882    0.9884    1.3857 H   0  0  0  0  0  0  0  0  0  0  0  0
   -1.0839    2.2290    0.2272 H   0  0  0  0  0  0  0  0  0  0  0  0
    0.9789    1.9993   -1.1386 H   0  0  0  0  0  0  0  0  0  0  0  0
    2.3702   -0.1546   -1.0525 H   0  0  0  0  0  0  0  0  0  0  0  0
    0.8606   -0.5150    1.6666 H   0  0  0  0  0  0  0  0  0  0  0  0
    2.5525   -0.0603    1.4044 H   0  0  0  0  0  0  0  0  0  0  0  0
    2.0194   -1.6927    0.9695 H   0  0  0  0  0  0  0  0  0  0  0  0
    0.1826   -0.2216   -2.2268 H   0  0  0  0  0  0  0  0  0  0  0  0
  1  2  1  0
  2  3  1  0
  3  4  1  0
  4  5  1  0
  5  6  1  0
  5  7  1  0
  7  2  1  0
  7  4  1  0
  1  8  1  0
  1  9  1  0
  1 10  1  0
  2 11  1  0
  3 12  1  0
  3 13  1  0
  4 14  1  0
  5 15  1  0
  6 16  1  0
  6 17  1  0
  6 18  1  0
  7 19  1  0
M  END
