
     RDKit          3D

 15 15  0  0  0  0  0  0  0  0999 V2000
   -1.4826   -0.9724   -0.2216 C   0  0  0  0  0  0  0  0  0  0  0  0
   -0.5814   -0.2966    0.8002 C   0  0  0  0  0  0  0  0  0  0  0  0
   -0.4519    1.1701    0.5675 C   0  0  0  0  0  0  0  0  0  0  0  0
    0.9077    1.6216    0.5845 O   0  0  0  0  0  0  0  0  0  0  0  0
    1.8856    0.8431   -0.0313 C   0  0  0  0  0  0  0  0  0  0  0  0
    2.8550    1.3461   -0.6700 O   0  0  0  0  0  0  0  0  0  0  0  0
    1.7139   -0.5940    0.1117 C   0  0  0  0  0  0  0  0  0  0  0  0
    2.5064   -1.4161   -0.3829 O   0  0  0  0  0  0  0  0  0  0  0  0
    0.6182   -1.0175    0.8304 O   0  0  0  0  0  0  0  0  0  0  0  0
   -2.1037   -1.7220    0.3045 H   0  0  0  0  0  0  0  0  0  0  0  0
   -2.0882   -0.2613   -0.7888 H   0  0  0  0  0  0  0  0  0  0  0  0
   -0.8650   -1.5328   -0.9718 H   0  0  0  0  0  0  0  0  0  0  0  0
   -1.0485   -0.4312    1.8211 H   0  0  0  0  0  0  0  0  0  0  0  0
   -0.9584    1.7665    1.3569 H   0  0  0  0  0  0  0  0  0  0  0  0
   -0.9072    1.4964   -0.3907 H   0  0  0  0  0  0  0  0  0  0  0  0
  1  2  1  0
  2  3  1  0
  3  4  1  0
  4  5  1  0
  5  6  2  0
  5  7  1  0
  7  8  2  0
  7  9  1  0
  9  2  1  0
  1 10  1  0
  1 11  1  0
  1 12  1  0
  2 13  1  0
  3 14  1  0
  3 15  1  0
M  END
