
     RDKit          3D

 19 19  0  0  0  0  0  0  0  0999 V2000
   -0.9093   -1.4185   -0.8154 C   0  0  0  0  0  0  0  0  0  0  0  0
   -0.9205    0.0379   -0.4948 C   0  0  0  0  0  0  0  0  0  0  0  0
   -1.1743    0.2079    0.9813 C   0  0  0  0  0  0  0  0  0  0  0  0
   -1.6930   -0.6329    1.7155 O   0  0  0  0  0  0  0  0  0  0  0  0
   -0.6552    1.5582    1.2236 C   0  0  0  0  0  0  0  0  0  0  0  0
    0.2640    1.8546    0.3242 C   0  0  0  0  0  0  0  0  0  0  0  0
    0.4206    0.7033   -0.5892 C   0  0  0  0  0  0  0  0  0  0  0  0
    1.4856   -0.1790    0.0360 C   0  0  0  0  0  0  0  0  0  0  0  0
    1.5985   -1.4066   -0.5695 O   0  0  0  0  0  0  0  0  0  0  0  0
   -0.5690   -2.0291    0.0439 H   0  0  0  0  0  0  0  0  0  0  0  0
   -0.3961   -1.6633   -1.7600 H   0  0  0  0  0  0  0  0  0  0  0  0
   -1.9840   -1.7246   -0.9774 H   0  0  0  0  0  0  0  0  0  0  0  0
   -1.6980    0.6167   -1.0006 H   0  0  0  0  0  0  0  0  0  0  0  0
   -1.0134    2.1808    2.0451 H   0  0  0  0  0  0  0  0  0  0  0  0
    0.7812    2.8118    0.3180 H   0  0  0  0  0  0  0  0  0  0  0  0
    0.6792    1.0018   -1.6195 H   0  0  0  0  0  0  0  0  0  0  0  0
    2.4503    0.3363   -0.0194 H   0  0  0  0  0  0  0  0  0  0  0  0
    1.2056   -0.2674    1.1209 H   0  0  0  0  0  0  0  0  0  0  0  0
    2.1276   -1.9880    0.0371 H   0  0  0  0  0  0  0  0  0  0  0  0
  1  2  1  0
  2  3  1  0
  3  4  2  0
  3  5  1  0
  5  6  2  0
  6  7  1  0
  7  8  1  0
  8  9  1  0
  7  2  1  0
  1 10  1  0
  1 11  1  0
  1 12  1  0
  2 13  1  0
  5 14  1  0
  6 15  1  0
  7 16  1  0
  8 17  1  0
  8 18  1  0
  9 19  1  0
M  END
