
     RDKit          3D

 17 18  0  0  0  0  0  0  0  0999 V2000
    2.0764    0.0510    0.6844 C   0  0  0  0  0  0  0  0  0  0  0  0
    0.6020   -0.0509    0.4438 C   0  0  0  0  0  0  0  0  0  0  0  0
    0.1752   -0.6984   -0.8329 C   0  0  0  0  0  0  0  0  0  0  0  0
   -1.2127   -1.2287   -0.6185 C   0  0  0  0  0  0  0  0  0  0  0  0
   -2.0879   -0.3514   -0.1531 C   0  0  0  0  0  0  0  0  0  0  0  0
   -1.5439    0.9981    0.0961 C   0  0  0  0  0  0  0  0  0  0  0  0
   -2.2314    1.9469    0.5021 O   0  0  0  0  0  0  0  0  0  0  0  0
   -0.0682    1.1194   -0.1894 C   0  0  0  0  0  0  0  0  0  0  0  0
    0.1427    0.5475   -1.4406 O   0  0  0  0  0  0  0  0  0  0  0  0
    2.3434    0.8700    1.3634 H   0  0  0  0  0  0  0  0  0  0  0  0
    2.3976   -0.9044    1.1651 H   0  0  0  0  0  0  0  0  0  0  0  0
    2.6746    0.1547   -0.2492 H   0  0  0  0  0  0  0  0  0  0  0  0
    0.0858   -0.3756    1.3649 H   0  0  0  0  0  0  0  0  0  0  0  0
    0.8676   -1.3774   -1.3248 H   0  0  0  0  0  0  0  0  0  0  0  0
   -1.4465   -2.2541   -0.8374 H   0  0  0  0  0  0  0  0  0  0  0  0
   -3.1288   -0.5536    0.0464 H   0  0  0  0  0  0  0  0  0  0  0  0
    0.3543    2.1069   -0.0202 H   0  0  0  0  0  0  0  0  0  0  0  0
  1  2  1  0
  2  3  1  0
  3  4  1  0
  4  5  2  0
  5  6  1  0
  6  7  2  0
  6  8  1  0
  8  9  1  0
  8  2  1  0
  9  3  1  0
  1 10  1  0
  1 11  1  0
  1 12  1  0
  2 13  1  0
  3 14  1  0
  4 15  1  0
  5 16  1  0
  8 17  1  0
M  END
