
     RDKit          3D

 25 25  0  0  0  0  0  0  0  0999 V2000
   -0.6476    1.8824   -0.6780 C   0  0  0  0  0  0  0  0  0  0  0  0
   -0.4359    0.7010    0.2463 C   0  0  0  0  0  0  0  0  0  0  0  0
   -1.8130    0.3574    0.7736 C   0  0  0  0  0  0  0  0  0  0  0  0
   -2.1305   -1.0156    0.2101 C   0  0  0  0  0  0  0  0  0  0  0  0
   -0.7685   -1.6221    0.1589 C   0  0  0  0  0  0  0  0  0  0  0  0
    0.0870   -0.5068   -0.4032 C   0  0  0  0  0  0  0  0  0  0  0  0
    1.5038   -0.8984   -0.0799 C   0  0  0  0  0  0  0  0  0  0  0  0
    2.5534    0.0923   -0.4132 C   0  0  0  0  0  0  0  0  0  0  0  0
    2.3745    1.2706    0.2577 O   0  0  0  0  0  0  0  0  0  0  0  0
   -1.1375    1.5378   -1.6033 H   0  0  0  0  0  0  0  0  0  0  0  0
   -1.4100    2.5397   -0.1611 H   0  0  0  0  0  0  0  0  0  0  0  0
    0.2195    2.5163   -0.8324 H   0  0  0  0  0  0  0  0  0  0  0  0
    0.2104    1.0027    1.0917 H   0  0  0  0  0  0  0  0  0  0  0  0
   -2.6083    1.0433    0.4192 H   0  0  0  0  0  0  0  0  0  0  0  0
   -1.8168    0.3569    1.8744 H   0  0  0  0  0  0  0  0  0  0  0  0
   -2.5391   -0.9523   -0.8146 H   0  0  0  0  0  0  0  0  0  0  0  0
   -2.8237   -1.5649    0.8838 H   0  0  0  0  0  0  0  0  0  0  0  0
   -0.7399   -2.5158   -0.4953 H   0  0  0  0  0  0  0  0  0  0  0  0
   -0.4093   -1.8682    1.1902 H   0  0  0  0  0  0  0  0  0  0  0  0
   -0.0881   -0.5417   -1.5095 H   0  0  0  0  0  0  0  0  0  0  0  0
    1.6976   -1.8575   -0.6166 H   0  0  0  0  0  0  0  0  0  0  0  0
    1.5745   -1.1432    0.9997 H   0  0  0  0  0  0  0  0  0  0  0  0
    2.6930    0.2333   -1.5146 H   0  0  0  0  0  0  0  0  0  0  0  0
    3.5366   -0.3447   -0.0730 H   0  0  0  0  0  0  0  0  0  0  0  0
    2.9178    1.2976    1.0892 H   0  0  0  0  0  0  0  0  0  0  0  0
  1  2  1  0
  2  3  1  0
  3  4  1  0
  4  5  1  0
  5  6  1  0
  6  7  1  0
  7  8  1  0
  8  9  1  0
  6  2  1  0
  1 10  1  0
  1 11  1  0
  1 12  1  0
  2 13  1  0
  3 14  1  0
  3 15  1  0
  4 16  1  0
  4 17  1  0
  5 18  1  0
  5 19  1  0
  6 20  1  0
  7 21  1  0
  7 22  1  0
  8 23  1  0
  8 24  1  0
  9 25  1  0
M  END
