
     RDKit          3D

 23 24  0  0  0  0  0  0  0  0999 V2000
   -2.6537   -0.2487    0.0191 C   0  0  0  0  0  0  0  0  0  0  0  0
   -1.2666    0.2260    0.1957 C   0  0  0  0  0  0  0  0  0  0  0  0
   -1.0067    1.6284   -0.3734 C   0  0  0  0  0  0  0  0  0  0  0  0
    0.3924    1.0947   -0.6919 C   0  0  0  0  0  0  0  0  0  0  0  0
    1.1263    1.0553    0.4908 O   0  0  0  0  0  0  0  0  0  0  0  0
    2.3051    0.3547    0.1698 C   0  0  0  0  0  0  0  0  0  0  0  0
    1.9683   -1.0801    0.0166 C   0  0  0  0  0  0  0  0  0  0  0  0
    0.5731   -1.3892   -0.3572 C   0  0  0  0  0  0  0  0  0  0  0  0
   -0.2526   -0.2623   -0.8417 C   0  0  0  0  0  0  0  0  0  0  0  0
   -2.9040   -0.9997    0.8199 H   0  0  0  0  0  0  0  0  0  0  0  0
   -3.3444    0.6255    0.2048 H   0  0  0  0  0  0  0  0  0  0  0  0
   -2.8879   -0.7302   -0.9321 H   0  0  0  0  0  0  0  0  0  0  0  0
   -0.8423    0.0985    1.1942 H   0  0  0  0  0  0  0  0  0  0  0  0
   -1.6086    1.8481   -1.2709 H   0  0  0  0  0  0  0  0  0  0  0  0
   -0.9835    2.4236    0.3899 H   0  0  0  0  0  0  0  0  0  0  0  0
    0.8718    1.5179   -1.5636 H   0  0  0  0  0  0  0  0  0  0  0  0
    2.6589    0.8124   -0.7882 H   0  0  0  0  0  0  0  0  0  0  0  0
    3.0303    0.5949    0.9539 H   0  0  0  0  0  0  0  0  0  0  0  0
    2.7149   -1.5343   -0.6914 H   0  0  0  0  0  0  0  0  0  0  0  0
    2.1923   -1.5868    1.0011 H   0  0  0  0  0  0  0  0  0  0  0  0
    0.0157   -1.8833    0.4911 H   0  0  0  0  0  0  0  0  0  0  0  0
    0.5782   -2.1808   -1.1632 H   0  0  0  0  0  0  0  0  0  0  0  0
   -0.6770   -0.3844   -1.8614 H   0  0  0  0  0  0  0  0  0  0  0  0
  1  2  1  0
  2  3  1  0
  3  4  1  0
  4  5  1  0
  5  6  1  0
  6  7  1  0
  7  8  1  0
  8  9  1  0
  9  2  1  0
  9  4  1  0
  1 10  1  0
  1 11  1  0
  1 12  1  0
  2 13  1  0
  3 14  1  0
  3 15  1  0
  4 16  1  0
  6 17  1  0
  6 18  1  0
  7 19  1  0
  7 20  1  0
  8 21  1  0
  8 22  1  0
  9 23  1  0
M  END
