
     RDKit          3D

 23 24  0  0  0  0  0  0  0  0999 V2000
   -2.3082   -0.9586   -0.6280 C   0  0  0  0  0  0  0  0  0  0  0  0
   -0.8625   -0.6181   -0.7854 C   0  0  0  0  0  0  0  0  0  0  0  0
   -0.0657   -0.7318    0.5163 C   0  0  0  0  0  0  0  0  0  0  0  0
    1.2948   -1.3524    0.3657 C   0  0  0  0  0  0  0  0  0  0  0  0
    2.3832   -0.3494    0.6525 C   0  0  0  0  0  0  0  0  0  0  0  0
    2.2242    0.8450    0.0928 C   0  0  0  0  0  0  0  0  0  0  0  0
    1.0338    1.0844   -0.7371 C   0  0  0  0  0  0  0  0  0  0  0  0
   -0.2411    0.5579   -0.1486 C   0  0  0  0  0  0  0  0  0  0  0  0
   -1.2259    1.5833    0.4022 C   0  0  0  0  0  0  0  0  0  0  0  0
   -2.7343   -1.2894   -1.5899 H   0  0  0  0  0  0  0  0  0  0  0  0
   -2.9164   -0.1955   -0.1421 H   0  0  0  0  0  0  0  0  0  0  0  0
   -2.3563   -1.8668    0.0421 H   0  0  0  0  0  0  0  0  0  0  0  0
   -0.3805   -0.9785   -1.7231 H   0  0  0  0  0  0  0  0  0  0  0  0
   -0.5965   -0.9504    1.4468 H   0  0  0  0  0  0  0  0  0  0  0  0
    1.3762   -2.2070    1.0372 H   0  0  0  0  0  0  0  0  0  0  0  0
    1.4818   -1.6880   -0.6917 H   0  0  0  0  0  0  0  0  0  0  0  0
    3.1979   -0.6440    1.2710 H   0  0  0  0  0  0  0  0  0  0  0  0
    2.9979    1.5756    0.2898 H   0  0  0  0  0  0  0  0  0  0  0  0
    1.2272    0.6189   -1.7354 H   0  0  0  0  0  0  0  0  0  0  0  0
    0.9138    2.1974   -0.8826 H   0  0  0  0  0  0  0  0  0  0  0  0
   -2.0297    1.6656   -0.3849 H   0  0  0  0  0  0  0  0  0  0  0  0
   -0.7530    2.5640    0.5647 H   0  0  0  0  0  0  0  0  0  0  0  0
   -1.6607    1.1381    1.3145 H   0  0  0  0  0  0  0  0  0  0  0  0
  1  2  1  0
  2  3  1  0
  3  4  1  0
  4  5  1  0
  5  6  2  0
  6  7  1  0
  7  8  1  0
  8  9  1  0
  8  2  1  0
  8  3  1  0
  1 10  1  0
  1 11  1  0
  1 12  1  0
  2 13  1  0
  3 14  1  0
  4 15  1  0
  4 16  1  0
  5 17  1  0
  6 18  1  0
  7 19  1  0
  7 20  1  0
  9 21  1  0
  9 22  1  0
  9 23  1  0
M  END
