
     RDKit          3D

 21 22  0  0  0  0  0  0  0  0999 V2000
    1.2678   -1.3815   -0.2397 C   0  0  0  0  0  0  0  0  0  0  0  0
    0.4499   -0.4604    0.5875 C   0  0  0  0  0  0  0  0  0  0  0  0
    0.8815    0.9886    0.6251 C   0  0  0  0  0  0  0  0  0  0  0  0
    2.0257    1.3438   -0.2165 C   0  0  0  0  0  0  0  0  0  0  0  0
    1.9218    1.3430   -1.4195 O   0  0  0  0  0  0  0  0  0  0  0  0
   -0.4667    1.4237    0.0462 C   0  0  0  0  0  0  0  0  0  0  0  0
   -0.8499    0.0030    0.0431 C   0  0  0  0  0  0  0  0  0  0  0  0
   -2.0774   -0.5648    0.5853 C   0  0  0  0  0  0  0  0  0  0  0  0
   -1.6809   -0.6696   -0.9126 C   0  0  0  0  0  0  0  0  0  0  0  0
    1.6055   -2.2801    0.3294 H   0  0  0  0  0  0  0  0  0  0  0  0
    0.6023   -1.8060   -1.0488 H   0  0  0  0  0  0  0  0  0  0  0  0
    2.1827   -0.9341   -0.6730 H   0  0  0  0  0  0  0  0  0  0  0  0
    0.3534   -0.8424    1.6272 H   0  0  0  0  0  0  0  0  0  0  0  0
    0.9732    1.4220    1.6487 H   0  0  0  0  0  0  0  0  0  0  0  0
    2.9916    1.6162    0.1936 H   0  0  0  0  0  0  0  0  0  0  0  0
   -1.0832    2.0337    0.7017 H   0  0  0  0  0  0  0  0  0  0  0  0
   -0.3600    1.9154   -0.9637 H   0  0  0  0  0  0  0  0  0  0  0  0
   -1.9704   -1.5429    1.1233 H   0  0  0  0  0  0  0  0  0  0  0  0
   -2.8872    0.1060    0.8536 H   0  0  0  0  0  0  0  0  0  0  0  0
   -2.3430   -0.0327   -1.5690 H   0  0  0  0  0  0  0  0  0  0  0  0
   -1.5368   -1.6810   -1.3219 H   0  0  0  0  0  0  0  0  0  0  0  0
  1  2  1  0
  2  3  1  0
  3  4  1  0
  4  5  2  0
  3  6  1  0
  6  7  1  0
  7  8  1  0
  8  9  1  0
  7  2  1  0
  9  7  1  0
  1 10  1  0
  1 11  1  0
  1 12  1  0
  2 13  1  0
  3 14  1  0
  4 15  1  0
  6 16  1  0
  6 17  1  0
  8 18  1  0
  8 19  1  0
  9 20  1  0
  9 21  1  0
M  END
