
     RDKit          3D

 23 25  0  0  0  0  0  0  0  0999 V2000
    3.0329    0.1447   -0.4367 C   0  0  0  0  0  0  0  0  0  0  0  0
    1.8666    0.5204    0.4603 C   0  0  0  0  0  0  0  0  0  0  0  0
    1.0884   -0.7496    0.8237 C   0  0  0  0  0  0  0  0  0  0  0  0
   -0.1214   -0.0994    0.2688 C   0  0  0  0  0  0  0  0  0  0  0  0
    0.6317    0.9940   -0.3203 C   0  0  0  0  0  0  0  0  0  0  0  0
   -1.3450   -0.0921    1.0106 C   0  0  0  0  0  0  0  0  0  0  0  0
   -2.6445    0.4679    0.5674 C   0  0  0  0  0  0  0  0  0  0  0  0
   -2.4898   -0.2661   -0.7423 C   0  0  0  0  0  0  0  0  0  0  0  0
   -1.1942   -0.8691   -0.3363 C   0  0  0  0  0  0  0  0  0  0  0  0
    2.8362   -0.8352   -0.9366 H   0  0  0  0  0  0  0  0  0  0  0  0
    3.9003   -0.0147    0.2375 H   0  0  0  0  0  0  0  0  0  0  0  0
    3.2462    0.9259   -1.1719 H   0  0  0  0  0  0  0  0  0  0  0  0
    2.1348    1.1548    1.3097 H   0  0  0  0  0  0  0  0  0  0  0  0
    1.0800   -0.8878    1.9285 H   0  0  0  0  0  0  0  0  0  0  0  0
    1.3750   -1.6392    0.2312 H   0  0  0  0  0  0  0  0  0  0  0  0
    0.3490    2.0381   -0.1314 H   0  0  0  0  0  0  0  0  0  0  0  0
    0.7803    0.8646   -1.4270 H   0  0  0  0  0  0  0  0  0  0  0  0
   -1.4199   -0.7733    1.9051 H   0  0  0  0  0  0  0  0  0  0  0  0
   -2.6460    1.5836    0.4825 H   0  0  0  0  0  0  0  0  0  0  0  0
   -3.5176    0.1565    1.1485 H   0  0  0  0  0  0  0  0  0  0  0  0
   -3.2911   -1.0422   -0.8552 H   0  0  0  0  0  0  0  0  0  0  0  0
   -2.5105    0.3894   -1.6177 H   0  0  0  0  0  0  0  0  0  0  0  0
   -1.1414   -1.9714   -0.2560 H   0  0  0  0  0  0  0  0  0  0  0  0
  1  2  1  0
  2  3  1  0
  3  4  1  0
  4  5  1  0
  4  6  1  0
  6  7  1  0
  7  8  1  0
  8  9  1  0
  5  2  1  0
  9  6  1  0
  9  4  1  0
  1 10  1  0
  1 11  1  0
  1 12  1  0
  2 13  1  0
  3 14  1  0
  3 15  1  0
  5 16  1  0
  5 17  1  0
  6 18  1  0
  7 19  1  0
  7 20  1  0
  8 21  1  0
  8 22  1  0
  9 23  1  0
M  END
