
     RDKit          3D

 22 23  0  0  0  0  0  0  0  0999 V2000
    2.3029   -0.2403   -0.7697 C   0  0  0  0  0  0  0  0  0  0  0  0
    1.1469   -0.2297    0.1792 C   0  0  0  0  0  0  0  0  0  0  0  0
    0.0422    0.7623   -0.1740 C   0  0  0  0  0  0  0  0  0  0  0  0
    0.0309    1.9719    0.6885 C   0  0  0  0  0  0  0  0  0  0  0  0
   -1.0278   -0.2476    0.0125 C   0  0  0  0  0  0  0  0  0  0  0  0
   -2.0685   -0.2977   -1.0752 C   0  0  0  0  0  0  0  0  0  0  0  0
   -0.9656   -1.3617    0.9554 C   0  0  0  0  0  0  0  0  0  0  0  0
    0.1044   -1.3188   -0.0568 C   0  0  0  0  0  0  0  0  0  0  0  0
    3.1581    0.2666   -0.2469 H   0  0  0  0  0  0  0  0  0  0  0  0
    2.6434   -1.2392   -1.0615 H   0  0  0  0  0  0  0  0  0  0  0  0
    1.9971    0.3137   -1.6798 H   0  0  0  0  0  0  0  0  0  0  0  0
    1.4352   -0.2173    1.2454 H   0  0  0  0  0  0  0  0  0  0  0  0
    0.1791    1.0353   -1.2604 H   0  0  0  0  0  0  0  0  0  0  0  0
   -0.4956    2.7891    0.1341 H   0  0  0  0  0  0  0  0  0  0  0  0
    1.0959    2.3351    0.7713 H   0  0  0  0  0  0  0  0  0  0  0  0
   -0.3808    1.7883    1.6879 H   0  0  0  0  0  0  0  0  0  0  0  0
   -2.0368    0.6210   -1.7258 H   0  0  0  0  0  0  0  0  0  0  0  0
   -1.8393   -1.1419   -1.7580 H   0  0  0  0  0  0  0  0  0  0  0  0
   -3.1064   -0.3364   -0.6856 H   0  0  0  0  0  0  0  0  0  0  0  0
   -1.7010   -2.1583    0.8685 H   0  0  0  0  0  0  0  0  0  0  0  0
   -0.6167   -1.2133    2.0187 H   0  0  0  0  0  0  0  0  0  0  0  0
    0.1026   -1.8811   -0.9851 H   0  0  0  0  0  0  0  0  0  0  0  0
  1  2  1  0
  2  3  1  0
  3  4  1  0
  3  5  1  0
  5  6  1  0
  5  7  1  0
  7  8  1  0
  8  2  1  0
  8  5  1  0
  1  9  1  0
  1 10  1  0
  1 11  1  0
  2 12  1  0
  3 13  1  0
  4 14  1  0
  4 15  1  0
  4 16  1  0
  6 17  1  0
  6 18  1  0
  6 19  1  0
  7 20  1  0
  7 21  1  0
  8 22  1  0
M  END
