
     RDKit          3D

 23 24  0  0  0  0  0  0  0  0999 V2000
   -2.3627    0.1010   -0.3095 C   0  0  0  0  0  0  0  0  0  0  0  0
   -1.1371   -0.1376    0.5517 C   0  0  0  0  0  0  0  0  0  0  0  0
   -0.0009    0.6918    0.4894 C   0  0  0  0  0  0  0  0  0  0  0  0
   -0.1873    1.8171   -0.5502 C   0  0  0  0  0  0  0  0  0  0  0  0
    1.3767    0.6423    0.8800 C   0  0  0  0  0  0  0  0  0  0  0  0
    2.0370   -0.0232   -0.0600 C   0  0  0  0  0  0  0  0  0  0  0  0
    0.9708   -0.4119   -1.0921 C   0  0  0  0  0  0  0  0  0  0  0  0
   -0.0459   -0.7788   -0.0430 C   0  0  0  0  0  0  0  0  0  0  0  0
    0.6086   -1.8500    0.8580 C   0  0  0  0  0  0  0  0  0  0  0  0
   -2.7537    1.1036   -0.0517 H   0  0  0  0  0  0  0  0  0  0  0  0
   -2.1537   -0.0284   -1.3893 H   0  0  0  0  0  0  0  0  0  0  0  0
   -3.1484   -0.6313   -0.0591 H   0  0  0  0  0  0  0  0  0  0  0  0
   -1.4753   -0.4121    1.5963 H   0  0  0  0  0  0  0  0  0  0  0  0
   -0.8889    1.5674   -1.3389 H   0  0  0  0  0  0  0  0  0  0  0  0
    0.7233    2.2471   -0.9231 H   0  0  0  0  0  0  0  0  0  0  0  0
   -0.7046    2.6231    0.0547 H   0  0  0  0  0  0  0  0  0  0  0  0
    1.8742    1.0488    1.7663 H   0  0  0  0  0  0  0  0  0  0  0  0
    3.0781   -0.2833   -0.1667 H   0  0  0  0  0  0  0  0  0  0  0  0
    1.2728   -1.2994   -1.6498 H   0  0  0  0  0  0  0  0  0  0  0  0
    0.7146    0.4024   -1.7489 H   0  0  0  0  0  0  0  0  0  0  0  0
    0.3850   -2.8100    0.3164 H   0  0  0  0  0  0  0  0  0  0  0  0
    0.1430   -1.8777    1.8641 H   0  0  0  0  0  0  0  0  0  0  0  0
    1.6743   -1.7008    1.0053 H   0  0  0  0  0  0  0  0  0  0  0  0
  1  2  1  0
  2  3  1  0
  3  4  1  0
  3  5  1  0
  5  6  2  0
  6  7  1  0
  7  8  1  0
  8  9  1  0
  8  2  1  0
  8  3  1  0
  1 10  1  0
  1 11  1  0
  1 12  1  0
  2 13  1  0
  4 14  1  0
  4 15  1  0
  4 16  1  0
  5 17  1  0
  6 18  1  0
  7 19  1  0
  7 20  1  0
  9 21  1  0
  9 22  1  0
  9 23  1  0
M  END
