
     RDKit          3D

 19 20  0  0  0  0  0  0  0  0999 V2000
    2.6986    0.3375    0.2234 C   0  0  0  0  0  0  0  0  0  0  0  0
    1.2616    0.3794   -0.2240 C   0  0  0  0  0  0  0  0  0  0  0  0
    0.5146   -0.9408   -0.0929 C   0  0  0  0  0  0  0  0  0  0  0  0
   -0.5454    0.0177    0.2410 C   0  0  0  0  0  0  0  0  0  0  0  0
   -1.6800   -0.4028    1.0958 C   0  0  0  0  0  0  0  0  0  0  0  0
   -2.6053    0.0731    0.0283 C   0  0  0  0  0  0  0  0  0  0  0  0
   -3.8097    0.1174   -0.1160 O   0  0  0  0  0  0  0  0  0  0  0  0
   -1.4673    0.4929   -0.8350 C   0  0  0  0  0  0  0  0  0  0  0  0
    0.3781    0.8866    0.7319 O   0  0  0  0  0  0  0  0  0  0  0  0
    2.7579    0.8958    1.1899 H   0  0  0  0  0  0  0  0  0  0  0  0
    3.3204    0.8739   -0.5148 H   0  0  0  0  0  0  0  0  0  0  0  0
    3.0525   -0.6860    0.4459 H   0  0  0  0  0  0  0  0  0  0  0  0
    1.0951    0.8023   -1.2319 H   0  0  0  0  0  0  0  0  0  0  0  0
    0.4425   -1.5250   -1.0148 H   0  0  0  0  0  0  0  0  0  0  0  0
    0.8233   -1.5413    0.7980 H   0  0  0  0  0  0  0  0  0  0  0  0
   -1.7394    0.1917    2.0467 H   0  0  0  0  0  0  0  0  0  0  0  0
   -1.7536   -1.5133    1.2807 H   0  0  0  0  0  0  0  0  0  0  0  0
   -1.3827   -0.0383   -1.8009 H   0  0  0  0  0  0  0  0  0  0  0  0
   -1.3613    1.5792   -0.9907 H   0  0  0  0  0  0  0  0  0  0  0  0
  1  2  1  0
  2  3  1  0
  3  4  1  0
  4  5  1  0
  5  6  1  0
  6  7  2  0
  6  8  1  0
  4  9  1  0
  9  2  1  0
  8  4  1  0
  1 10  1  0
  1 11  1  0
  1 12  1  0
  2 13  1  0
  3 14  1  0
  3 15  1  0
  5 16  1  0
  5 17  1  0
  8 18  1  0
  8 19  1  0
M  END
