
     RDKit          3D

 21 23  0  0  0  0  0  0  0  0999 V2000
    2.1125    0.3438    0.2727 C   0  0  0  0  0  0  0  0  0  0  0  0
    1.0334   -0.5141   -0.3419 C   0  0  0  0  0  0  0  0  0  0  0  0
   -0.0840   -0.7942    0.6403 C   0  0  0  0  0  0  0  0  0  0  0  0
   -0.9311   -1.9324    0.0757 C   0  0  0  0  0  0  0  0  0  0  0  0
   -1.8398   -1.3786   -0.7967 O   0  0  0  0  0  0  0  0  0  0  0  0
   -1.4247   -0.0917   -1.1158 C   0  0  0  0  0  0  0  0  0  0  0  0
    0.0480    0.1932   -1.2121 C   0  0  0  0  0  0  0  0  0  0  0  0
   -0.7920    0.3954    0.0901 C   0  0  0  0  0  0  0  0  0  0  0  0
   -0.8370    1.7127    0.6889 C   0  0  0  0  0  0  0  0  0  0  0  0
    2.7947    0.7489   -0.5000 H   0  0  0  0  0  0  0  0  0  0  0  0
    2.6866   -0.3022    0.9650 H   0  0  0  0  0  0  0  0  0  0  0  0
    1.7330    1.1879    0.8501 H   0  0  0  0  0  0  0  0  0  0  0  0
    1.4361   -1.4417   -0.7437 H   0  0  0  0  0  0  0  0  0  0  0  0
    0.1608   -0.8383    1.6869 H   0  0  0  0  0  0  0  0  0  0  0  0
   -1.3613   -2.5664    0.8553 H   0  0  0  0  0  0  0  0  0  0  0  0
   -0.2714   -2.6113   -0.5415 H   0  0  0  0  0  0  0  0  0  0  0  0
   -2.0856    0.4828   -1.7438 H   0  0  0  0  0  0  0  0  0  0  0  0
    0.3333    1.1126   -1.7225 H   0  0  0  0  0  0  0  0  0  0  0  0
   -0.6550    1.6594    1.7850 H   0  0  0  0  0  0  0  0  0  0  0  0
   -1.8764    2.1451    0.5963 H   0  0  0  0  0  0  0  0  0  0  0  0
   -0.1800    2.4893    0.2117 H   0  0  0  0  0  0  0  0  0  0  0  0
  1  2  1  0
  2  3  1  0
  3  4  1  0
  4  5  1  0
  5  6  1  0
  6  7  1  0
  7  8  1  0
  8  9  1  0
  7  2  1  0
  8  3  1  0
  8  6  1  0
  1 10  1  0
  1 11  1  0
  1 12  1  0
  2 13  1  0
  3 14  1  0
  4 15  1  0
  4 16  1  0
  6 17  1  0
  7 18  1  0
  9 19  1  0
  9 20  1  0
  9 21  1  0
M  END
