
     RDKit          3D

 20 21  0  0  0  0  0  0  0  0999 V2000
   -1.0387    2.0044   -0.1000 C   0  0  0  0  0  0  0  0  0  0  0  0
   -0.2871    0.8337    0.4602 C   0  0  0  0  0  0  0  0  0  0  0  0
   -0.5235   -0.4901   -0.2202 C   0  0  0  0  0  0  0  0  0  0  0  0
   -1.3077   -1.5017    0.5362 C   0  0  0  0  0  0  0  0  0  0  0  0
    0.9278   -0.7128   -0.3960 C   0  0  0  0  0  0  0  0  0  0  0  0
    1.3089   -1.2336   -1.6264 O   0  0  0  0  0  0  0  0  0  0  0  0
    1.9755   -0.2584    0.5154 C   0  0  0  0  0  0  0  0  0  0  0  0
    1.1283    0.7575   -0.1216 C   0  0  0  0  0  0  0  0  0  0  0  0
   -0.3139    2.8032   -0.4328 H   0  0  0  0  0  0  0  0  0  0  0  0
   -1.6898    1.7469   -0.9564 H   0  0  0  0  0  0  0  0  0  0  0  0
   -1.6906    2.4952    0.6776 H   0  0  0  0  0  0  0  0  0  0  0  0
   -0.3000    0.7794    1.5688 H   0  0  0  0  0  0  0  0  0  0  0  0
   -1.0251   -0.2903   -1.2132 H   0  0  0  0  0  0  0  0  0  0  0  0
   -1.1863   -1.4810    1.6163 H   0  0  0  0  0  0  0  0  0  0  0  0
   -1.0048   -2.5202    0.1577 H   0  0  0  0  0  0  0  0  0  0  0  0
   -2.3968   -1.4219    0.2530 H   0  0  0  0  0  0  0  0  0  0  0  0
    1.0491   -2.2093   -1.5928 H   0  0  0  0  0  0  0  0  0  0  0  0
    1.9218   -0.4169    1.6262 H   0  0  0  0  0  0  0  0  0  0  0  0
    3.0174   -0.3262    0.1447 H   0  0  0  0  0  0  0  0  0  0  0  0
    1.4355    1.4421   -0.8968 H   0  0  0  0  0  0  0  0  0  0  0  0
  1  2  1  0
  2  3  1  0
  3  4  1  0
  3  5  1  0
  5  6  1  0
  5  7  1  0
  7  8  1  0
  8  2  1  0
  8  5  1  0
  1  9  1  0
  1 10  1  0
  1 11  1  0
  2 12  1  0
  3 13  1  0
  4 14  1  0
  4 15  1  0
  4 16  1  0
  6 17  1  0
  7 18  1  0
  7 19  1  0
  8 20  1  0
M  END
