
     RDKit          3D

 19 19  0  0  0  0  0  0  0  0999 V2000
   -1.5766   -1.1844   -0.8456 C   0  0  0  0  0  0  0  0  0  0  0  0
   -0.7770   -0.3934    0.1709 C   0  0  0  0  0  0  0  0  0  0  0  0
   -1.5610    0.8246    0.4849 C   0  0  0  0  0  0  0  0  0  0  0  0
   -0.7551    1.8530    0.5001 C   0  0  0  0  0  0  0  0  0  0  0  0
    0.6107    1.4516    0.2078 C   0  0  0  0  0  0  0  0  0  0  0  0
    1.6748    2.1305    0.3934 O   0  0  0  0  0  0  0  0  0  0  0  0
    0.5376    0.0613   -0.3652 C   0  0  0  0  0  0  0  0  0  0  0  0
    1.6640   -0.7670    0.2103 C   0  0  0  0  0  0  0  0  0  0  0  0
    2.8979   -0.3789   -0.2600 O   0  0  0  0  0  0  0  0  0  0  0  0
   -1.0569   -2.1149   -1.1531 H   0  0  0  0  0  0  0  0  0  0  0  0
   -1.8404   -0.5590   -1.7246 H   0  0  0  0  0  0  0  0  0  0  0  0
   -2.5396   -1.4399   -0.3553 H   0  0  0  0  0  0  0  0  0  0  0  0
   -0.6815   -1.0482    1.0740 H   0  0  0  0  0  0  0  0  0  0  0  0
   -2.6525    0.8360    0.6721 H   0  0  0  0  0  0  0  0  0  0  0  0
   -1.0949    2.8857    0.7111 H   0  0  0  0  0  0  0  0  0  0  0  0
    0.5855    0.1440   -1.4620 H   0  0  0  0  0  0  0  0  0  0  0  0
    1.6611   -0.6006    1.3154 H   0  0  0  0  0  0  0  0  0  0  0  0
    1.4746   -1.8189   -0.0073 H   0  0  0  0  0  0  0  0  0  0  0  0
    3.4293    0.1184    0.4331 H   0  0  0  0  0  0  0  0  0  0  0  0
  1  2  1  0
  2  3  1  0
  3  4  2  0
  4  5  1  0
  5  6  2  0
  5  7  1  0
  7  8  1  0
  8  9  1  0
  7  2  1  0
  1 10  1  0
  1 11  1  0
  1 12  1  0
  2 13  1  0
  3 14  1  0
  4 15  1  0
  7 16  1  0
  8 17  1  0
  8 18  1  0
  9 19  1  0
M  END
