
     RDKit          3D

 19 20  0  0  0  0  0  0  0  0999 V2000
   -1.9936   -0.8497    0.9623 C   0  0  0  0  0  0  0  0  0  0  0  0
   -1.3852   -0.0435   -0.1459 C   0  0  0  0  0  0  0  0  0  0  0  0
   -1.0209    1.3915    0.2618 C   0  0  0  0  0  0  0  0  0  0  0  0
    0.0228    0.4089   -0.1109 C   0  0  0  0  0  0  0  0  0  0  0  0
    0.7878    0.5174   -1.3552 C   0  0  0  0  0  0  0  0  0  0  0  0
    1.9642   -0.0585   -1.2510 C   0  0  0  0  0  0  0  0  0  0  0  0
    2.1291   -0.6269    0.0884 C   0  0  0  0  0  0  0  0  0  0  0  0
    0.9852   -0.0872    0.8697 C   0  0  0  0  0  0  0  0  0  0  0  0
    0.9439   -0.0985    2.0915 O   0  0  0  0  0  0  0  0  0  0  0  0
   -2.3321   -1.8383    0.5730 H   0  0  0  0  0  0  0  0  0  0  0  0
   -1.2401   -1.0706    1.7426 H   0  0  0  0  0  0  0  0  0  0  0  0
   -2.8642   -0.2797    1.3559 H   0  0  0  0  0  0  0  0  0  0  0  0
   -1.8842   -0.1282   -1.1403 H   0  0  0  0  0  0  0  0  0  0  0  0
   -1.1085    1.6664    1.3250 H   0  0  0  0  0  0  0  0  0  0  0  0
   -1.2709    2.2005   -0.4365 H   0  0  0  0  0  0  0  0  0  0  0  0
    0.3921    1.0317   -2.2612 H   0  0  0  0  0  0  0  0  0  0  0  0
    2.6830   -0.0832   -2.0762 H   0  0  0  0  0  0  0  0  0  0  0  0
    3.1013   -0.3069    0.5332 H   0  0  0  0  0  0  0  0  0  0  0  0
    2.0903   -1.7454    0.0216 H   0  0  0  0  0  0  0  0  0  0  0  0
  1  2  1  0
  2  3  1  0
  3  4  1  0
  4  5  1  0
  5  6  2  0
  6  7  1  0
  7  8  1  0
  8  9  2  0
  4  2  1  0
  8  4  1  0
  1 10  1  0
  1 11  1  0
  1 12  1  0
  2 13  1  0
  3 14  1  0
  3 15  1  0
  5 16  1  0
  6 17  1  0
  7 18  1  0
  7 19  1  0
M  END
