
     RDKit          3D

 17 18  0  0  0  0  0  0  0  0999 V2000
   -0.8185    1.7159   -0.6164 C   0  0  0  0  0  0  0  0  0  0  0  0
   -0.3949    0.5563    0.2229 C   0  0  0  0  0  0  0  0  0  0  0  0
   -1.2663   -0.6888   -0.0488 C   0  0  0  0  0  0  0  0  0  0  0  0
   -0.3648   -1.7841   -0.0385 O   0  0  0  0  0  0  0  0  0  0  0  0
    0.6747   -1.3052    0.6800 C   0  0  0  0  0  0  0  0  0  0  0  0
    1.9303   -0.7417    0.3702 C   0  0  0  0  0  0  0  0  0  0  0  0
    0.8898   -0.0298   -0.2363 C   0  0  0  0  0  0  0  0  0  0  0  0
   -0.4132    2.6350   -0.1676 H   0  0  0  0  0  0  0  0  0  0  0  0
   -1.9297    1.7696   -0.6920 H   0  0  0  0  0  0  0  0  0  0  0  0
   -0.4168    1.5352   -1.6521 H   0  0  0  0  0  0  0  0  0  0  0  0
   -0.4165    0.7482    1.3082 H   0  0  0  0  0  0  0  0  0  0  0  0
   -2.0610   -0.7962    0.6807 H   0  0  0  0  0  0  0  0  0  0  0  0
   -1.6574   -0.6601   -1.0948 H   0  0  0  0  0  0  0  0  0  0  0  0
    0.3169   -1.0951    1.7352 H   0  0  0  0  0  0  0  0  0  0  0  0
    2.6243   -1.3754   -0.2609 H   0  0  0  0  0  0  0  0  0  0  0  0
    2.5394   -0.2541    1.1622 H   0  0  0  0  0  0  0  0  0  0  0  0
    0.7637   -0.2298   -1.3520 H   0  0  0  0  0  0  0  0  0  0  0  0
  1  2  1  0
  2  3  1  0
  3  4  1  0
  4  5  1  0
  5  6  1  0
  6  7  1  0
  7  2  1  0
  7  5  1  0
  1  8  1  0
  1  9  1  0
  1 10  1  0
  2 11  1  0
  3 12  1  0
  3 13  1  0
  5 14  1  0
  6 15  1  0
  6 16  1  0
  7 17  1  0
M  END
