
     RDKit          3D

 21 23  0  0  0  0  0  0  0  0999 V2000
    2.2884   -0.2887   -0.9477 C   0  0  0  0  0  0  0  0  0  0  0  0
    1.2179    0.1096    0.0024 C   0  0  0  0  0  0  0  0  0  0  0  0
    0.4120    1.2992   -0.4258 C   0  0  0  0  0  0  0  0  0  0  0  0
   -0.8918    1.1157    0.3653 C   0  0  0  0  0  0  0  0  0  0  0  0
   -0.8352   -0.1789    1.0282 C   0  0  0  0  0  0  0  0  0  0  0  0
    0.1810   -0.9661    0.2421 C   0  0  0  0  0  0  0  0  0  0  0  0
   -0.8586   -1.0896   -0.8643 C   0  0  0  0  0  0  0  0  0  0  0  0
   -1.6720   -0.0564   -0.1493 C   0  0  0  0  0  0  0  0  0  0  0  0
   -3.0234   -0.1444   -0.0247 O   0  0  0  0  0  0  0  0  0  0  0  0
    1.9403   -1.0597   -1.6342 H   0  0  0  0  0  0  0  0  0  0  0  0
    2.6109    0.6326   -1.5009 H   0  0  0  0  0  0  0  0  0  0  0  0
    3.1781   -0.6147   -0.3350 H   0  0  0  0  0  0  0  0  0  0  0  0
    1.6414    0.3617    1.0181 H   0  0  0  0  0  0  0  0  0  0  0  0
    0.8758    2.2630   -0.2490 H   0  0  0  0  0  0  0  0  0  0  0  0
    0.1642    1.1392   -1.5155 H   0  0  0  0  0  0  0  0  0  0  0  0
   -1.3695    1.9829    0.8130 H   0  0  0  0  0  0  0  0  0  0  0  0
   -1.1266   -0.4261    2.0246 H   0  0  0  0  0  0  0  0  0  0  0  0
    0.5284   -1.8970    0.6785 H   0  0  0  0  0  0  0  0  0  0  0  0
   -1.3600   -2.0686   -0.8382 H   0  0  0  0  0  0  0  0  0  0  0  0
   -0.5415   -0.7554   -1.8515 H   0  0  0  0  0  0  0  0  0  0  0  0
   -3.3600    0.6417    0.4448 H   0  0  0  0  0  0  0  0  0  0  0  0
  1  2  1  0
  2  3  1  0
  3  4  1  0
  4  5  1  0
  5  6  1  0
  6  7  1  0
  7  8  1  0
  8  9  1  0
  6  2  1  0
  8  4  1  0
  8  5  1  0
  1 10  1  0
  1 11  1  0
  1 12  1  0
  2 13  1  0
  3 14  1  0
  3 15  1  0
  4 16  1  0
  5 17  1  0
  6 18  1  0
  7 19  1  0
  7 20  1  0
  9 21  1  0
M  END
