
     RDKit          3D

 21 22  0  0  0  0  0  0  0  0999 V2000
    2.4541    0.6394   -0.1062 C   0  0  0  0  0  0  0  0  0  0  0  0
    1.6029   -0.5633   -0.3189 C   0  0  0  0  0  0  0  0  0  0  0  0
    0.6897   -0.7165    0.9171 C   0  0  0  0  0  0  0  0  0  0  0  0
   -0.5889   -0.9504    0.2081 C   0  0  0  0  0  0  0  0  0  0  0  0
   -0.3302    0.2396   -0.8061 C   0  0  0  0  0  0  0  0  0  0  0  0
    0.7104   -0.4032   -1.4138 O   0  0  0  0  0  0  0  0  0  0  0  0
   -1.5925   -0.1274   -0.3222 C   0  0  0  0  0  0  0  0  0  0  0  0
   -2.3239    0.7964    0.6675 C   0  0  0  0  0  0  0  0  0  0  0  0
   -2.5484   -0.6820   -1.2067 O   0  0  0  0  0  0  0  0  0  0  0  0
    2.0879    1.5658   -0.5449 H   0  0  0  0  0  0  0  0  0  0  0  0
    3.5047    0.5038   -0.4807 H   0  0  0  0  0  0  0  0  0  0  0  0
    2.5827    0.7880    1.0062 H   0  0  0  0  0  0  0  0  0  0  0  0
    2.1523   -1.4951   -0.5077 H   0  0  0  0  0  0  0  0  0  0  0  0
    0.7181    0.2024    1.5365 H   0  0  0  0  0  0  0  0  0  0  0  0
    1.0399   -1.5791    1.4802 H   0  0  0  0  0  0  0  0  0  0  0  0
   -0.5300   -1.9873   -0.2581 H   0  0  0  0  0  0  0  0  0  0  0  0
    0.0941    1.1856   -0.3420 H   0  0  0  0  0  0  0  0  0  0  0  0
   -2.7961    1.6037    0.0638 H   0  0  0  0  0  0  0  0  0  0  0  0
   -3.0596    0.2441    1.2598 H   0  0  0  0  0  0  0  0  0  0  0  0
   -1.5222    1.2280    1.3025 H   0  0  0  0  0  0  0  0  0  0  0  0
   -2.3449   -0.4924   -2.1346 H   0  0  0  0  0  0  0  0  0  0  0  0
  1  2  1  0
  2  3  1  0
  3  4  1  0
  4  5  1  0
  5  6  1  0
  5  7  1  0
  7  8  1  0
  7  9  1  0
  6  2  1  0
  7  4  1  0
  1 10  1  0
  1 11  1  0
  1 12  1  0
  2 13  1  0
  3 14  1  0
  3 15  1  0
  4 16  1  0
  5 17  1  0
  8 18  1  0
  8 19  1  0
  8 20  1  0
  9 21  1  0
M  END
