
     RDKit          3D

 21 22  0  0  0  0  0  0  0  0999 V2000
    2.2488    1.4126    0.0869 C   0  0  0  0  0  0  0  0  0  0  0  0
    1.1055    0.4902   -0.1184 C   0  0  0  0  0  0  0  0  0  0  0  0
    1.4196   -0.9304    0.3609 C   0  0  0  0  0  0  0  0  0  0  0  0
    0.0073   -1.5268    0.3062 C   0  0  0  0  0  0  0  0  0  0  0  0
   -0.8371   -0.2809    0.3829 C   0  0  0  0  0  0  0  0  0  0  0  0
   -2.2282   -0.3622    0.7904 C   0  0  0  0  0  0  0  0  0  0  0  0
   -1.8522    0.0300   -0.6530 C   0  0  0  0  0  0  0  0  0  0  0  0
   -2.0756    1.3974   -0.9390 O   0  0  0  0  0  0  0  0  0  0  0  0
    0.0072    0.7693    0.7200 O   0  0  0  0  0  0  0  0  0  0  0  0
    2.1395    2.3074   -0.5488 H   0  0  0  0  0  0  0  0  0  0  0  0
    2.4016    1.6292    1.1469 H   0  0  0  0  0  0  0  0  0  0  0  0
    3.1749    0.8917   -0.2978 H   0  0  0  0  0  0  0  0  0  0  0  0
    0.7841    0.3957   -1.1594 H   0  0  0  0  0  0  0  0  0  0  0  0
    1.7455   -0.8474    1.4155 H   0  0  0  0  0  0  0  0  0  0  0  0
    2.1154   -1.4397   -0.3000 H   0  0  0  0  0  0  0  0  0  0  0  0
   -0.1499   -2.1317    1.2017 H   0  0  0  0  0  0  0  0  0  0  0  0
   -0.1545   -2.0685   -0.6483 H   0  0  0  0  0  0  0  0  0  0  0  0
   -2.6679   -1.4003    0.8451 H   0  0  0  0  0  0  0  0  0  0  0  0
   -2.7532    0.4080    1.3950 H   0  0  0  0  0  0  0  0  0  0  0  0
   -2.1158   -0.6460   -1.4631 H   0  0  0  0  0  0  0  0  0  0  0  0
   -2.3150    1.9023   -0.1210 H   0  0  0  0  0  0  0  0  0  0  0  0
  1  2  1  0
  2  3  1  0
  3  4  1  0
  4  5  1  0
  5  6  1  0
  6  7  1  0
  7  8  1  0
  5  9  1  0
  9  2  1  0
  7  5  1  0
  1 10  1  0
  1 11  1  0
  1 12  1  0
  2 13  1  0
  3 14  1  0
  3 15  1  0
  4 16  1  0
  4 17  1  0
  6 18  1  0
  6 19  1  0
  7 20  1  0
  8 21  1  0
M  END
