
     RDKit          3D

 23 24  0  0  0  0  0  0  0  0999 V2000
    1.6865   -0.8297   -1.0449 C   0  0  0  0  0  0  0  0  0  0  0  0
    0.9368   -0.6425    0.2692 C   0  0  0  0  0  0  0  0  0  0  0  0
    1.3393    0.6841    0.8447 C   0  0  0  0  0  0  0  0  0  0  0  0
    0.3172    1.6820    0.3058 C   0  0  0  0  0  0  0  0  0  0  0  0
   -0.9309    0.8970    0.1765 C   0  0  0  0  0  0  0  0  0  0  0  0
   -1.4795    0.6355   -1.1758 C   0  0  0  0  0  0  0  0  0  0  0  0
   -0.8567   -0.6041   -1.2833 O   0  0  0  0  0  0  0  0  0  0  0  0
   -0.5376   -0.5407    0.0599 C   0  0  0  0  0  0  0  0  0  0  0  0
   -1.4017   -1.4357    0.8982 C   0  0  0  0  0  0  0  0  0  0  0  0
    2.7690   -0.8671   -0.8247 H   0  0  0  0  0  0  0  0  0  0  0  0
    1.3886   -1.8154   -1.4632 H   0  0  0  0  0  0  0  0  0  0  0  0
    1.4197   -0.0557   -1.7886 H   0  0  0  0  0  0  0  0  0  0  0  0
    1.2262   -1.5003    0.9079 H   0  0  0  0  0  0  0  0  0  0  0  0
    1.3102    0.6180    1.9490 H   0  0  0  0  0  0  0  0  0  0  0  0
    2.3416    1.0174    0.5548 H   0  0  0  0  0  0  0  0  0  0  0  0
    0.2213    2.4597    1.1111 H   0  0  0  0  0  0  0  0  0  0  0  0
    0.6611    2.1898   -0.5977 H   0  0  0  0  0  0  0  0  0  0  0  0
   -1.6824    1.1501    0.9476 H   0  0  0  0  0  0  0  0  0  0  0  0
   -2.5925    0.4864   -1.1210 H   0  0  0  0  0  0  0  0  0  0  0  0
   -1.2218    1.3332   -1.9865 H   0  0  0  0  0  0  0  0  0  0  0  0
   -0.8563   -2.3680    1.0939 H   0  0  0  0  0  0  0  0  0  0  0  0
   -2.3579   -1.5968    0.3339 H   0  0  0  0  0  0  0  0  0  0  0  0
   -1.7001   -0.8973    1.8331 H   0  0  0  0  0  0  0  0  0  0  0  0
  1  2  1  0
  2  3  1  0
  3  4  1  0
  4  5  1  0
  5  6  1  0
  6  7  1  0
  7  8  1  0
  8  9  1  0
  8  2  1  0
  8  5  1  0
  1 10  1  0
  1 11  1  0
  1 12  1  0
  2 13  1  0
  3 14  1  0
  3 15  1  0
  4 16  1  0
  4 17  1  0
  5 18  1  0
  6 19  1  0
  6 20  1  0
  9 21  1  0
  9 22  1  0
  9 23  1  0
M  END
