
     RDKit          3D

 21 22  0  0  0  0  0  0  0  0999 V2000
   -1.6786   -1.0749   -0.4928 C   0  0  0  0  0  0  0  0  0  0  0  0
   -0.6776   -0.0115   -0.8428 C   0  0  0  0  0  0  0  0  0  0  0  0
   -1.1486    1.2596   -0.1621 C   0  0  0  0  0  0  0  0  0  0  0  0
   -2.1535    1.8587   -0.4480 O   0  0  0  0  0  0  0  0  0  0  0  0
   -0.1002    1.4833    0.8345 C   0  0  0  0  0  0  0  0  0  0  0  0
    1.1624    1.2699   -0.0125 C   0  0  0  0  0  0  0  0  0  0  0  0
    0.6194   -0.1645   -0.0916 C   0  0  0  0  0  0  0  0  0  0  0  0
    1.5269   -1.2416   -0.3739 C   0  0  0  0  0  0  0  0  0  0  0  0
    0.1589    0.0803    1.3438 C   0  0  0  0  0  0  0  0  0  0  0  0
   -1.1946   -1.9302    0.0215 H   0  0  0  0  0  0  0  0  0  0  0  0
   -2.2105   -1.4020   -1.4315 H   0  0  0  0  0  0  0  0  0  0  0  0
   -2.4788   -0.7198    0.1878 H   0  0  0  0  0  0  0  0  0  0  0  0
   -0.5172    0.1342   -1.9080 H   0  0  0  0  0  0  0  0  0  0  0  0
   -0.1194    2.2917    1.5053 H   0  0  0  0  0  0  0  0  0  0  0  0
    1.0521    1.8398   -0.9466 H   0  0  0  0  0  0  0  0  0  0  0  0
    2.0949    1.3621    0.5398 H   0  0  0  0  0  0  0  0  0  0  0  0
    1.5081   -2.0221    0.4029 H   0  0  0  0  0  0  0  0  0  0  0  0
    2.5892   -0.8599   -0.3899 H   0  0  0  0  0  0  0  0  0  0  0  0
    1.3673   -1.6968   -1.3737 H   0  0  0  0  0  0  0  0  0  0  0  0
   -0.7891   -0.4200    1.5955 H   0  0  0  0  0  0  0  0  0  0  0  0
    0.9888   -0.0363    2.0424 H   0  0  0  0  0  0  0  0  0  0  0  0
  1  2  1  0
  2  3  1  0
  3  4  2  0
  3  5  1  0
  5  6  1  0
  6  7  1  0
  7  8  1  0
  7  9  1  0
  7  2  1  0
  9  5  1  0
  1 10  1  0
  1 11  1  0
  1 12  1  0
  2 13  1  0
  5 14  1  0
  6 15  1  0
  6 16  1  0
  8 17  1  0
  8 18  1  0
  8 19  1  0
  9 20  1  0
  9 21  1  0
M  END
