
     RDKit          3D

 18 18  0  0  0  0  0  0  0  0999 V2000
   -0.4091    1.9043    0.1328 C   0  0  0  0  0  0  0  0  0  0  0  0
   -0.4324    0.4400    0.4620 C   0  0  0  0  0  0  0  0  0  0  0  0
   -1.3470   -0.3517   -0.4500 C   0  0  0  0  0  0  0  0  0  0  0  0
   -0.8196   -1.7594   -0.1379 C   0  0  0  0  0  0  0  0  0  0  0  0
    0.6402   -1.4887   -0.2210 C   0  0  0  0  0  0  0  0  0  0  0  0
    0.8857   -0.2127    0.1245 C   0  0  0  0  0  0  0  0  0  0  0  0
    2.2002    0.3653    0.1470 C   0  0  0  0  0  0  0  0  0  0  0  0
    3.1965   -0.3117   -0.1617 O   0  0  0  0  0  0  0  0  0  0  0  0
   -1.3136    2.3580    0.5885 H   0  0  0  0  0  0  0  0  0  0  0  0
   -0.3577    2.0806   -0.9471 H   0  0  0  0  0  0  0  0  0  0  0  0
    0.4632    2.3436    0.6808 H   0  0  0  0  0  0  0  0  0  0  0  0
   -0.6875    0.2709    1.5183 H   0  0  0  0  0  0  0  0  0  0  0  0
   -1.0954   -0.1068   -1.5069 H   0  0  0  0  0  0  0  0  0  0  0  0
   -2.4025   -0.2466   -0.2092 H   0  0  0  0  0  0  0  0  0  0  0  0
   -1.1641   -2.5011   -0.8506 H   0  0  0  0  0  0  0  0  0  0  0  0
   -1.0610   -1.9628    0.9121 H   0  0  0  0  0  0  0  0  0  0  0  0
    1.3886   -2.2130   -0.5157 H   0  0  0  0  0  0  0  0  0  0  0  0
    2.3154    1.3919    0.4342 H   0  0  0  0  0  0  0  0  0  0  0  0
  1  2  1  0
  2  3  1  0
  3  4  1  0
  4  5  1  0
  5  6  2  0
  6  7  1  0
  7  8  2  0
  6  2  1  0
  1  9  1  0
  1 10  1  0
  1 11  1  0
  2 12  1  0
  3 13  1  0
  3 14  1  0
  4 15  1  0
  4 16  1  0
  5 17  1  0
  7 18  1  0
M  END
