
     RDKit          3D

 21 23  0  0  0  0  0  0  0  0999 V2000
    2.3111    1.1310   -0.0634 C   0  0  0  0  0  0  0  0  0  0  0  0
    1.7695   -0.1975   -0.5449 C   0  0  0  0  0  0  0  0  0  0  0  0
    0.8561   -0.8695    0.4387 C   0  0  0  0  0  0  0  0  0  0  0  0
   -0.1597   -0.3157   -0.4965 C   0  0  0  0  0  0  0  0  0  0  0  0
   -1.3566   -1.1295   -0.7895 C   0  0  0  0  0  0  0  0  0  0  0  0
   -2.2043   -0.2603    0.0603 C   0  0  0  0  0  0  0  0  0  0  0  0
   -1.7519    0.4116    1.2781 C   0  0  0  0  0  0  0  0  0  0  0  0
   -1.0412    0.7808    0.0261 C   0  0  0  0  0  0  0  0  0  0  0  0
    0.7211   -0.0238   -1.4764 O   0  0  0  0  0  0  0  0  0  0  0  0
    2.3370    1.0928    1.0395 H   0  0  0  0  0  0  0  0  0  0  0  0
    1.6493    1.9748   -0.3383 H   0  0  0  0  0  0  0  0  0  0  0  0
    3.3412    1.2362   -0.4808 H   0  0  0  0  0  0  0  0  0  0  0  0
    2.5210   -0.8758   -1.0016 H   0  0  0  0  0  0  0  0  0  0  0  0
    0.8963   -0.4246    1.4546 H   0  0  0  0  0  0  0  0  0  0  0  0
    0.8842   -1.9884    0.4383 H   0  0  0  0  0  0  0  0  0  0  0  0
   -1.2232   -2.1831   -0.4852 H   0  0  0  0  0  0  0  0  0  0  0  0
   -1.6110   -1.1257   -1.8896 H   0  0  0  0  0  0  0  0  0  0  0  0
   -3.1603    0.0620   -0.3850 H   0  0  0  0  0  0  0  0  0  0  0  0
   -2.4168    1.1396    1.7373 H   0  0  0  0  0  0  0  0  0  0  0  0
   -1.0914   -0.1040    2.0342 H   0  0  0  0  0  0  0  0  0  0  0  0
   -1.2705    1.6690   -0.5559 H   0  0  0  0  0  0  0  0  0  0  0  0
  1  2  1  0
  2  3  1  0
  3  4  1  0
  4  5  1  0
  5  6  1  0
  6  7  1  0
  7  8  1  0
  4  9  1  0
  9  2  1  0
  8  4  1  0
  8  6  1  0
  1 10  1  0
  1 11  1  0
  1 12  1  0
  2 13  1  0
  3 14  1  0
  3 15  1  0
  5 16  1  0
  5 17  1  0
  6 18  1  0
  7 19  1  0
  7 20  1  0
  8 21  1  0
M  END
