
     RDKit          3D

 23 24  0  0  0  0  0  0  0  0999 V2000
    1.0440    1.9611   -0.3174 C   0  0  0  0  0  0  0  0  0  0  0  0
    0.5016    0.7629    0.3611 C   0  0  0  0  0  0  0  0  0  0  0  0
    0.7477   -0.4751   -0.5249 C   0  0  0  0  0  0  0  0  0  0  0  0
    1.8560   -1.3003    0.0320 C   0  0  0  0  0  0  0  0  0  0  0  0
   -0.6060   -1.0834   -0.4650 C   0  0  0  0  0  0  0  0  0  0  0  0
   -1.4493    0.1136   -0.9099 C   0  0  0  0  0  0  0  0  0  0  0  0
   -0.9838    0.6847    0.4399 C   0  0  0  0  0  0  0  0  0  0  0  0
   -1.1724   -0.7515    0.9244 C   0  0  0  0  0  0  0  0  0  0  0  0
   -2.4944   -1.1510    0.9854 O   0  0  0  0  0  0  0  0  0  0  0  0
    0.3841    2.8311   -0.2740 H   0  0  0  0  0  0  0  0  0  0  0  0
    1.2450    1.7523   -1.3956 H   0  0  0  0  0  0  0  0  0  0  0  0
    1.9968    2.2567    0.2077 H   0  0  0  0  0  0  0  0  0  0  0  0
    0.9493    0.5853    1.3807 H   0  0  0  0  0  0  0  0  0  0  0  0
    0.9975   -0.1466   -1.5291 H   0  0  0  0  0  0  0  0  0  0  0  0
    2.1075   -2.0939   -0.6793 H   0  0  0  0  0  0  0  0  0  0  0  0
    2.7547   -0.6271    0.0762 H   0  0  0  0  0  0  0  0  0  0  0  0
    1.6771   -1.7046    1.0341 H   0  0  0  0  0  0  0  0  0  0  0  0
   -0.8225   -2.0298   -0.8747 H   0  0  0  0  0  0  0  0  0  0  0  0
   -2.5332   -0.0587   -0.8698 H   0  0  0  0  0  0  0  0  0  0  0  0
   -1.0505    0.6442   -1.7740 H   0  0  0  0  0  0  0  0  0  0  0  0
   -1.5639    1.4470    0.8792 H   0  0  0  0  0  0  0  0  0  0  0  0
   -0.5220   -1.0457    1.7530 H   0  0  0  0  0  0  0  0  0  0  0  0
   -3.0632   -0.5715    1.5399 H   0  0  0  0  0  0  0  0  0  0  0  0
  1  2  1  0
  2  3  1  0
  3  4  1  0
  3  5  1  0
  5  6  1  0
  6  7  1  0
  7  8  1  0
  8  9  1  0
  7  2  1  0
  8  5  1  0
  1 10  1  0
  1 11  1  0
  1 12  1  0
  2 13  1  0
  3 14  1  0
  4 15  1  0
  4 16  1  0
  4 17  1  0
  5 18  1  0
  6 19  1  0
  6 20  1  0
  7 21  1  0
  8 22  1  0
  9 23  1  0
M  END
