
     RDKit          3D

 23 23  0  0  0  0  0  0  0  0999 V2000
   -2.7678   -0.7337   -0.2855 C   0  0  0  0  0  0  0  0  0  0  0  0
   -1.4783    0.0049   -0.5606 C   0  0  0  0  0  0  0  0  0  0  0  0
   -0.3590   -0.9327   -0.8262 C   0  0  0  0  0  0  0  0  0  0  0  0
    0.7051   -0.6208   -0.1017 C   0  0  0  0  0  0  0  0  0  0  0  0
    1.9872   -1.3620   -0.1357 C   0  0  0  0  0  0  0  0  0  0  0  0
    3.0165   -0.5095   -0.5355 O   0  0  0  0  0  0  0  0  0  0  0  0
    0.4478    0.5626    0.7452 C   0  0  0  0  0  0  0  0  0  0  0  0
    1.1636    1.7985    0.2289 C   0  0  0  0  0  0  0  0  0  0  0  0
   -1.0365    0.8150    0.6377 C   0  0  0  0  0  0  0  0  0  0  0  0
   -3.2761   -0.3586    0.6451 H   0  0  0  0  0  0  0  0  0  0  0  0
   -2.5990   -1.8217   -0.1028 H   0  0  0  0  0  0  0  0  0  0  0  0
   -3.5016   -0.6556   -1.0952 H   0  0  0  0  0  0  0  0  0  0  0  0
   -1.6044    0.6421   -1.4498 H   0  0  0  0  0  0  0  0  0  0  0  0
   -0.4663   -1.7598   -1.5452 H   0  0  0  0  0  0  0  0  0  0  0  0
    2.2536   -1.7610    0.8738 H   0  0  0  0  0  0  0  0  0  0  0  0
    1.9206   -2.1619   -0.8826 H   0  0  0  0  0  0  0  0  0  0  0  0
    3.6226   -0.3114    0.2229 H   0  0  0  0  0  0  0  0  0  0  0  0
    0.7657    0.3623    1.7669 H   0  0  0  0  0  0  0  0  0  0  0  0
    0.7062    2.1637   -0.7180 H   0  0  0  0  0  0  0  0  0  0  0  0
    1.0456    2.5768    1.0136 H   0  0  0  0  0  0  0  0  0  0  0  0
    2.2365    1.6442    0.0864 H   0  0  0  0  0  0  0  0  0  0  0  0
   -1.2497    1.8876    0.4490 H   0  0  0  0  0  0  0  0  0  0  0  0
   -1.5323    0.5310    1.5693 H   0  0  0  0  0  0  0  0  0  0  0  0
  1  2  1  0
  2  3  1  0
  3  4  2  0
  4  5  1  0
  5  6  1  0
  4  7  1  0
  7  8  1  0
  7  9  1  0
  9  2  1  0
  1 10  1  0
  1 11  1  0
  1 12  1  0
  2 13  1  0
  3 14  1  0
  5 15  1  0
  5 16  1  0
  6 17  1  0
  7 18  1  0
  8 19  1  0
  8 20  1  0
  8 21  1  0
  9 22  1  0
  9 23  1  0
M  END
