
     RDKit          3D

 23 23  0  0  0  0  0  0  0  0999 V2000
   -1.8557    1.5983    0.5009 C   0  0  0  0  0  0  0  0  0  0  0  0
   -1.2405    0.2491    0.8442 C   0  0  0  0  0  0  0  0  0  0  0  0
   -0.9879   -0.6801   -0.2724 C   0  0  0  0  0  0  0  0  0  0  0  0
   -1.1328   -2.1666   -0.1365 C   0  0  0  0  0  0  0  0  0  0  0  0
    0.1446   -0.0694    0.5305 C   0  0  0  0  0  0  0  0  0  0  0  0
    1.0702    0.7951   -0.2393 C   0  0  0  0  0  0  0  0  0  0  0  0
    0.5613    1.0204   -1.5162 O   0  0  0  0  0  0  0  0  0  0  0  0
    2.4206    0.0930   -0.4444 C   0  0  0  0  0  0  0  0  0  0  0  0
    3.0199   -0.1807    0.7834 O   0  0  0  0  0  0  0  0  0  0  0  0
   -1.8423    2.2372    1.4004 H   0  0  0  0  0  0  0  0  0  0  0  0
   -2.9155    1.3938    0.2432 H   0  0  0  0  0  0  0  0  0  0  0  0
   -1.3864    2.0679   -0.3759 H   0  0  0  0  0  0  0  0  0  0  0  0
   -1.7017   -0.2001    1.7474 H   0  0  0  0  0  0  0  0  0  0  0  0
   -1.1937   -0.2974   -1.2867 H   0  0  0  0  0  0  0  0  0  0  0  0
   -0.4462   -2.6285   -0.8968 H   0  0  0  0  0  0  0  0  0  0  0  0
   -0.9593   -2.5467    0.8702 H   0  0  0  0  0  0  0  0  0  0  0  0
   -2.1635   -2.4286   -0.5068 H   0  0  0  0  0  0  0  0  0  0  0  0
    0.6711   -0.7419    1.2595 H   0  0  0  0  0  0  0  0  0  0  0  0
    1.2382    1.7960    0.2080 H   0  0  0  0  0  0  0  0  0  0  0  0
    0.6503    0.1781   -2.0413 H   0  0  0  0  0  0  0  0  0  0  0  0
    2.2992   -0.8186   -1.0519 H   0  0  0  0  0  0  0  0  0  0  0  0
    3.0463    0.7987   -1.0466 H   0  0  0  0  0  0  0  0  0  0  0  0
    2.7037    0.5311    1.4272 H   0  0  0  0  0  0  0  0  0  0  0  0
  1  2  1  0
  2  3  1  0
  3  4  1  0
  3  5  1  0
  5  6  1  0
  6  7  1  0
  6  8  1  0
  8  9  1  0
  5  2  1  0
  1 10  1  0
  1 11  1  0
  1 12  1  0
  2 13  1  0
  3 14  1  0
  4 15  1  0
  4 16  1  0
  4 17  1  0
  5 18  1  0
  6 19  1  0
  7 20  1  0
  8 21  1  0
  8 22  1  0
  9 23  1  0
M  END
