
     RDKit          3D

 19 20  0  0  0  0  0  0  0  0999 V2000
   -2.0926   -0.9665   -0.2213 C   0  0  0  0  0  0  0  0  0  0  0  0
   -1.1525    0.1954   -0.3074 C   0  0  0  0  0  0  0  0  0  0  0  0
   -0.8125    0.8157    1.0417 C   0  0  0  0  0  0  0  0  0  0  0  0
   -0.7211    2.1848    1.1336 O   0  0  0  0  0  0  0  0  0  0  0  0
    0.2242    0.1337    0.2310 C   0  0  0  0  0  0  0  0  0  0  0  0
    1.3010    0.9197   -0.3946 C   0  0  0  0  0  0  0  0  0  0  0  0
    2.3212    0.1013   -0.5882 C   0  0  0  0  0  0  0  0  0  0  0  0
    1.9436   -1.2406   -0.0964 C   0  0  0  0  0  0  0  0  0  0  0  0
    0.7720   -1.0595    0.6230 O   0  0  0  0  0  0  0  0  0  0  0  0
   -2.2976   -1.3980   -1.2305 H   0  0  0  0  0  0  0  0  0  0  0  0
   -3.0883   -0.5484    0.1099 H   0  0  0  0  0  0  0  0  0  0  0  0
   -1.7639   -1.7118    0.5097 H   0  0  0  0  0  0  0  0  0  0  0  0
   -1.3338    0.8659   -1.1619 H   0  0  0  0  0  0  0  0  0  0  0  0
   -1.1297    0.2878    1.9586 H   0  0  0  0  0  0  0  0  0  0  0  0
   -1.1354    2.6223    0.3435 H   0  0  0  0  0  0  0  0  0  0  0  0
    1.2423    1.9730   -0.6404 H   0  0  0  0  0  0  0  0  0  0  0  0
    3.2569    0.3870   -1.0304 H   0  0  0  0  0  0  0  0  0  0  0  0
    1.7528   -1.9601   -0.8938 H   0  0  0  0  0  0  0  0  0  0  0  0
    2.7133   -1.6016    0.6140 H   0  0  0  0  0  0  0  0  0  0  0  0
  1  2  1  0
  2  3  1  0
  3  4  1  0
  3  5  1  0
  5  6  1  0
  6  7  2  0
  7  8  1  0
  8  9  1  0
  5  2  1  0
  9  5  1  0
  1 10  1  0
  1 11  1  0
  1 12  1  0
  2 13  1  0
  3 14  1  0
  4 15  1  0
  6 16  1  0
  7 17  1  0
  8 18  1  0
  8 19  1  0
M  END
