
     RDKit          3D

 23 25  0  0  0  0  0  0  0  0999 V2000
   -2.2780    0.0400   -1.1067 C   0  0  0  0  0  0  0  0  0  0  0  0
   -1.1781    0.5921   -0.2533 C   0  0  0  0  0  0  0  0  0  0  0  0
   -1.5119    0.5816    1.2167 C   0  0  0  0  0  0  0  0  0  0  0  0
   -0.1467   -0.0831    1.4225 C   0  0  0  0  0  0  0  0  0  0  0  0
   -0.1245   -1.4732    0.9355 C   0  0  0  0  0  0  0  0  0  0  0  0
   -0.0163   -0.2897   -0.0066 C   0  0  0  0  0  0  0  0  0  0  0  0
    1.2331   -0.2282   -0.7960 C   0  0  0  0  0  0  0  0  0  0  0  0
    2.1016    0.9322   -0.9155 C   0  0  0  0  0  0  0  0  0  0  0  0
    2.5422   -0.2057   -0.0010 C   0  0  0  0  0  0  0  0  0  0  0  0
   -3.1494    0.7082   -1.0624 H   0  0  0  0  0  0  0  0  0  0  0  0
   -1.9741   -0.0471   -2.1599 H   0  0  0  0  0  0  0  0  0  0  0  0
   -2.5888   -0.9462   -0.7009 H   0  0  0  0  0  0  0  0  0  0  0  0
   -0.9047    1.6253   -0.5578 H   0  0  0  0  0  0  0  0  0  0  0  0
   -1.6436    1.5405    1.7069 H   0  0  0  0  0  0  0  0  0  0  0  0
   -2.3298   -0.1504    1.4390 H   0  0  0  0  0  0  0  0  0  0  0  0
    0.5781    0.3587    2.0875 H   0  0  0  0  0  0  0  0  0  0  0  0
    0.7761   -2.0515    1.1231 H   0  0  0  0  0  0  0  0  0  0  0  0
   -1.0501   -2.0741    0.8391 H   0  0  0  0  0  0  0  0  0  0  0  0
    1.2644   -0.9686   -1.6489 H   0  0  0  0  0  0  0  0  0  0  0  0
    2.6672    1.0734   -1.8785 H   0  0  0  0  0  0  0  0  0  0  0  0
    1.8804    1.9181   -0.4457 H   0  0  0  0  0  0  0  0  0  0  0  0
    2.4897    0.0094    1.0813 H   0  0  0  0  0  0  0  0  0  0  0  0
    3.3632   -0.8617   -0.3183 H   0  0  0  0  0  0  0  0  0  0  0  0
  1  2  1  0
  2  3  1  0
  3  4  1  0
  4  5  1  0
  5  6  1  0
  6  7  1  0
  7  8  1  0
  8  9  1  0
  6  2  1  0
  9  7  1  0
  6  4  1  0
  1 10  1  0
  1 11  1  0
  1 12  1  0
  2 13  1  0
  3 14  1  0
  3 15  1  0
  4 16  1  0
  5 17  1  0
  5 18  1  0
  7 19  1  0
  8 20  1  0
  8 21  1  0
  9 22  1  0
  9 23  1  0
M  END
