
     RDKit          3D

 18 18  0  0  0  0  0  0  0  0999 V2000
   -2.1005   -0.7865    0.5309 C   0  0  0  0  0  0  0  0  0  0  0  0
   -0.8000   -0.5136   -0.1294 C   0  0  0  0  0  0  0  0  0  0  0  0
   -0.7733    0.8403   -0.8482 C   0  0  0  0  0  0  0  0  0  0  0  0
    0.7140    0.9291   -1.0643 C   0  0  0  0  0  0  0  0  0  0  0  0
    1.3584    0.2889   -0.0853 C   0  0  0  0  0  0  0  0  0  0  0  0
    2.7821    0.1313    0.0893 C   0  0  0  0  0  0  0  0  0  0  0  0
    3.2159   -0.5049    1.0729 O   0  0  0  0  0  0  0  0  0  0  0  0
    0.3329   -0.2439    0.8337 C   0  0  0  0  0  0  0  0  0  0  0  0
   -2.0012   -0.7214    1.6369 H   0  0  0  0  0  0  0  0  0  0  0  0
   -2.9078   -0.1362    0.1376 H   0  0  0  0  0  0  0  0  0  0  0  0
   -2.3617   -1.8638    0.3311 H   0  0  0  0  0  0  0  0  0  0  0  0
   -0.4911   -1.2787   -0.8767 H   0  0  0  0  0  0  0  0  0  0  0  0
   -1.1474    1.6514   -0.2268 H   0  0  0  0  0  0  0  0  0  0  0  0
   -1.2566    0.8124   -1.8175 H   0  0  0  0  0  0  0  0  0  0  0  0
    1.2478    1.4163   -1.8614 H   0  0  0  0  0  0  0  0  0  0  0  0
    3.5233    0.5407   -0.5974 H   0  0  0  0  0  0  0  0  0  0  0  0
    0.0080    0.5795    1.4942 H   0  0  0  0  0  0  0  0  0  0  0  0
    0.6571   -1.1410    1.3804 H   0  0  0  0  0  0  0  0  0  0  0  0
  1  2  1  0
  2  3  1  0
  3  4  1  0
  4  5  2  0
  5  6  1  0
  6  7  2  0
  5  8  1  0
  8  2  1  0
  1  9  1  0
  1 10  1  0
  1 11  1  0
  2 12  1  0
  3 13  1  0
  3 14  1  0
  4 15  1  0
  6 16  1  0
  8 17  1  0
  8 18  1  0
M  END
