
     RDKit          3D

 22 23  0  0  0  0  0  0  0  0999 V2000
    2.5095   -0.0334   -0.2745 C   0  0  0  0  0  0  0  0  0  0  0  0
    1.0982    0.4543   -0.3429 C   0  0  0  0  0  0  0  0  0  0  0  0
    0.2876    0.3361    0.9226 C   0  0  0  0  0  0  0  0  0  0  0  0
    0.4882   -1.1512    0.7653 C   0  0  0  0  0  0  0  0  0  0  0  0
    0.1515   -0.6819   -0.6204 C   0  0  0  0  0  0  0  0  0  0  0  0
   -0.8987    0.1716    0.0358 C   0  0  0  0  0  0  0  0  0  0  0  0
   -2.0848   -0.5399    0.5899 C   0  0  0  0  0  0  0  0  0  0  0  0
   -1.2988    1.3438   -0.8015 C   0  0  0  0  0  0  0  0  0  0  0  0
    2.9143   -0.0024    0.7569 H   0  0  0  0  0  0  0  0  0  0  0  0
    3.2153    0.5912   -0.8967 H   0  0  0  0  0  0  0  0  0  0  0  0
    2.6053   -1.0636   -0.7267 H   0  0  0  0  0  0  0  0  0  0  0  0
    0.9824    1.3615   -0.9275 H   0  0  0  0  0  0  0  0  0  0  0  0
    0.3857    0.8733    1.7578 H   0  0  0  0  0  0  0  0  0  0  0  0
   -0.2239   -1.8041    1.2629 H   0  0  0  0  0  0  0  0  0  0  0  0
    1.5173   -1.4766    0.9485 H   0  0  0  0  0  0  0  0  0  0  0  0
    0.0707   -1.2228   -1.4533 H   0  0  0  0  0  0  0  0  0  0  0  0
   -2.9861    0.1418    0.5570 H   0  0  0  0  0  0  0  0  0  0  0  0
   -1.9978   -0.8656    1.6282 H   0  0  0  0  0  0  0  0  0  0  0  0
   -2.3708   -1.3798   -0.1101 H   0  0  0  0  0  0  0  0  0  0  0  0
   -2.4132    1.3414   -0.9881 H   0  0  0  0  0  0  0  0  0  0  0  0
   -0.8503    1.3209   -1.8220 H   0  0  0  0  0  0  0  0  0  0  0  0
   -1.1017    2.2855   -0.2613 H   0  0  0  0  0  0  0  0  0  0  0  0
  1  2  1  0
  2  3  1  0
  3  4  1  0
  4  5  1  0
  5  6  1  0
  6  7  1  0
  6  8  1  0
  5  2  1  0
  6  3  1  0
  1  9  1  0
  1 10  1  0
  1 11  1  0
  2 12  1  0
  3 13  1  0
  4 14  1  0
  4 15  1  0
  5 16  1  0
  7 17  1  0
  7 18  1  0
  7 19  1  0
  8 20  1  0
  8 21  1  0
  8 22  1  0
M  END
