
     RDKit          3D

 21 22  0  0  0  0  0  0  0  0999 V2000
    2.3144   -0.5879   -0.2044 C   0  0  0  0  0  0  0  0  0  0  0  0
    0.8635   -0.5460   -0.5927 C   0  0  0  0  0  0  0  0  0  0  0  0
   -0.1144   -0.3098    0.5142 C   0  0  0  0  0  0  0  0  0  0  0  0
   -1.1257   -1.4033    0.7436 C   0  0  0  0  0  0  0  0  0  0  0  0
   -1.8945   -1.5915   -0.4203 O   0  0  0  0  0  0  0  0  0  0  0  0
   -0.7400    0.8357   -0.2253 C   0  0  0  0  0  0  0  0  0  0  0  0
   -1.0931    2.1039    0.4800 C   0  0  0  0  0  0  0  0  0  0  0  0
   -0.8323    0.8611   -1.5883 O   0  0  0  0  0  0  0  0  0  0  0  0
    0.4664    0.7992   -1.1518 C   0  0  0  0  0  0  0  0  0  0  0  0
    2.9458   -0.3356   -1.1055 H   0  0  0  0  0  0  0  0  0  0  0  0
    2.6325   -1.5971    0.1023 H   0  0  0  0  0  0  0  0  0  0  0  0
    2.5071    0.1864    0.5425 H   0  0  0  0  0  0  0  0  0  0  0  0
    0.5388   -1.4064   -1.2390 H   0  0  0  0  0  0  0  0  0  0  0  0
    0.3633   -0.0074    1.4800 H   0  0  0  0  0  0  0  0  0  0  0  0
   -0.6109   -2.3397    0.9855 H   0  0  0  0  0  0  0  0  0  0  0  0
   -1.7738   -1.0886    1.5891 H   0  0  0  0  0  0  0  0  0  0  0  0
   -1.8060   -2.4936   -0.7762 H   0  0  0  0  0  0  0  0  0  0  0  0
   -2.2194    2.1848    0.4603 H   0  0  0  0  0  0  0  0  0  0  0  0
   -0.8193    2.0895    1.5429 H   0  0  0  0  0  0  0  0  0  0  0  0
   -0.7130    2.9819   -0.0727 H   0  0  0  0  0  0  0  0  0  0  0  0
    1.1105    1.6644   -1.0643 H   0  0  0  0  0  0  0  0  0  0  0  0
  1  2  1  0
  2  3  1  0
  3  4  1  0
  4  5  1  0
  3  6  1  0
  6  7  1  0
  6  8  1  0
  8  9  1  0
  9  2  1  0
  9  6  1  0
  1 10  1  0
  1 11  1  0
  1 12  1  0
  2 13  1  0
  3 14  1  0
  4 15  1  0
  4 16  1  0
  5 17  1  0
  7 18  1  0
  7 19  1  0
  7 20  1  0
  9 21  1  0
M  END
