
     RDKit          3D

 23 24  0  0  0  0  0  0  0  0999 V2000
    2.5468   -0.1240    0.8894 C   0  0  0  0  0  0  0  0  0  0  0  0
    1.3763   -0.2157   -0.0531 C   0  0  0  0  0  0  0  0  0  0  0  0
    0.1583   -0.5731    0.7335 C   0  0  0  0  0  0  0  0  0  0  0  0
   -0.9655   -0.0279   -0.1131 C   0  0  0  0  0  0  0  0  0  0  0  0
   -1.5993   -1.1799   -0.8352 C   0  0  0  0  0  0  0  0  0  0  0  0
   -1.9480    0.6386    0.8425 C   0  0  0  0  0  0  0  0  0  0  0  0
   -0.4091    1.0270   -1.0006 C   0  0  0  0  0  0  0  0  0  0  0  0
    0.4222    0.7294   -2.0601 O   0  0  0  0  0  0  0  0  0  0  0  0
    1.0189    1.0537   -0.7210 C   0  0  0  0  0  0  0  0  0  0  0  0
    3.4547    0.3035    0.4061 H   0  0  0  0  0  0  0  0  0  0  0  0
    2.8239   -1.1894    1.1384 H   0  0  0  0  0  0  0  0  0  0  0  0
    2.2912    0.4091    1.8183 H   0  0  0  0  0  0  0  0  0  0  0  0
    1.5975   -1.0557   -0.7548 H   0  0  0  0  0  0  0  0  0  0  0  0
    0.0588   -1.6609    0.8802 H   0  0  0  0  0  0  0  0  0  0  0  0
    0.1962   -0.1100    1.7474 H   0  0  0  0  0  0  0  0  0  0  0  0
   -2.1708   -0.8165   -1.7108 H   0  0  0  0  0  0  0  0  0  0  0  0
   -0.7910   -1.8449   -1.1882 H   0  0  0  0  0  0  0  0  0  0  0  0
   -2.2585   -1.7026   -0.0871 H   0  0  0  0  0  0  0  0  0  0  0  0
   -1.4282    1.5134    1.2813 H   0  0  0  0  0  0  0  0  0  0  0  0
   -2.1600   -0.0562    1.6677 H   0  0  0  0  0  0  0  0  0  0  0  0
   -2.8321    0.9882    0.2968 H   0  0  0  0  0  0  0  0  0  0  0  0
   -1.0173    1.9538   -1.1741 H   0  0  0  0  0  0  0  0  0  0  0  0
    1.6348    1.9402   -0.7311 H   0  0  0  0  0  0  0  0  0  0  0  0
  1  2  1  0
  2  3  1  0
  3  4  1  0
  4  5  1  0
  4  6  1  0
  4  7  1  0
  7  8  1  0
  8  9  1  0
  9  2  1  0
  9  7  1  0
  1 10  1  0
  1 11  1  0
  1 12  1  0
  2 13  1  0
  3 14  1  0
  3 15  1  0
  5 16  1  0
  5 17  1  0
  5 18  1  0
  6 19  1  0
  6 20  1  0
  6 21  1  0
  7 22  1  0
  9 23  1  0
M  END
