
     RDKit          3D

 20 21  0  0  0  0  0  0  0  0999 V2000
    2.2844   -0.3191    0.2623 C   0  0  0  0  0  0  0  0  0  0  0  0
    1.2434    0.0533   -0.7557 C   0  0  0  0  0  0  0  0  0  0  0  0
    0.6070    1.3597   -0.2594 C   0  0  0  0  0  0  0  0  0  0  0  0
    0.0114    0.8576    0.9227 O   0  0  0  0  0  0  0  0  0  0  0  0
   -0.8028   -0.1142    0.3660 C   0  0  0  0  0  0  0  0  0  0  0  0
   -2.1497    0.4219   -0.0631 C   0  0  0  0  0  0  0  0  0  0  0  0
   -1.9993   -0.6386    0.9923 C   0  0  0  0  0  0  0  0  0  0  0  0
    0.0381   -0.8846   -0.6169 C   0  0  0  0  0  0  0  0  0  0  0  0
    3.2852    0.0481    0.0236 H   0  0  0  0  0  0  0  0  0  0  0  0
    2.0239    0.1215    1.2672 H   0  0  0  0  0  0  0  0  0  0  0  0
    2.2324   -1.4116    0.4019 H   0  0  0  0  0  0  0  0  0  0  0  0
    1.6018    0.1271   -1.7755 H   0  0  0  0  0  0  0  0  0  0  0  0
   -0.2056    1.5915   -0.9372 H   0  0  0  0  0  0  0  0  0  0  0  0
    1.3371    2.1349   -0.0688 H   0  0  0  0  0  0  0  0  0  0  0  0
   -2.4456    0.1739   -1.0799 H   0  0  0  0  0  0  0  0  0  0  0  0
   -2.4923    1.4093    0.3554 H   0  0  0  0  0  0  0  0  0  0  0  0
   -2.3333   -1.6569    0.6750 H   0  0  0  0  0  0  0  0  0  0  0  0
   -2.2246   -0.3913    2.0494 H   0  0  0  0  0  0  0  0  0  0  0  0
    0.4391   -1.8308   -0.1725 H   0  0  0  0  0  0  0  0  0  0  0  0
   -0.4505   -1.0517   -1.5869 H   0  0  0  0  0  0  0  0  0  0  0  0
  1  2  1  0
  2  3  1  0
  3  4  1  0
  4  5  1  0
  5  6  1  0
  6  7  1  0
  5  8  1  0
  8  2  1  0
  7  5  1  0
  1  9  1  0
  1 10  1  0
  1 11  1  0
  2 12  1  0
  3 13  1  0
  3 14  1  0
  6 15  1  0
  6 16  1  0
  7 17  1  0
  7 18  1  0
  8 19  1  0
  8 20  1  0
M  END
