
     RDKit          3D

 25 26  0  0  0  0  0  0  0  0999 V2000
   -0.0899    1.8091    0.8011 C   0  0  0  0  0  0  0  0  0  0  0  0
   -0.1264    0.9924   -0.4973 C   0  0  0  0  0  0  0  0  0  0  0  0
   -1.5280    0.5079   -0.6585 C   0  0  0  0  0  0  0  0  0  0  0  0
   -1.8328   -0.3709    0.5442 C   0  0  0  0  0  0  0  0  0  0  0  0
   -0.9584   -1.5697    0.4922 C   0  0  0  0  0  0  0  0  0  0  0  0
    0.4755   -1.3226    0.2713 C   0  0  0  0  0  0  0  0  0  0  0  0
    0.8940   -1.3005   -1.2066 C   0  0  0  0  0  0  0  0  0  0  0  0
    0.8902   -0.0895   -0.3624 C   0  0  0  0  0  0  0  0  0  0  0  0
    2.2910    0.4521   -0.0377 C   0  0  0  0  0  0  0  0  0  0  0  0
   -1.1177    2.1923    1.0502 H   0  0  0  0  0  0  0  0  0  0  0  0
    0.5480    2.6873    0.6609 H   0  0  0  0  0  0  0  0  0  0  0  0
    0.2373    1.1579    1.6495 H   0  0  0  0  0  0  0  0  0  0  0  0
    0.1617    1.6253   -1.3657 H   0  0  0  0  0  0  0  0  0  0  0  0
   -1.7504    0.0335   -1.6107 H   0  0  0  0  0  0  0  0  0  0  0  0
   -2.1988    1.4102   -0.5530 H   0  0  0  0  0  0  0  0  0  0  0  0
   -1.6234    0.2436    1.4403 H   0  0  0  0  0  0  0  0  0  0  0  0
   -2.8846   -0.6449    0.5390 H   0  0  0  0  0  0  0  0  0  0  0  0
   -1.3449   -2.2440   -0.3264 H   0  0  0  0  0  0  0  0  0  0  0  0
   -1.1174   -2.1715    1.4301 H   0  0  0  0  0  0  0  0  0  0  0  0
    1.1904   -1.7878    0.9958 H   0  0  0  0  0  0  0  0  0  0  0  0
    1.8458   -1.8263   -1.4026 H   0  0  0  0  0  0  0  0  0  0  0  0
    0.1241   -1.4991   -1.9687 H   0  0  0  0  0  0  0  0  0  0  0  0
    2.9063    0.5359   -0.9568 H   0  0  0  0  0  0  0  0  0  0  0  0
    2.7875   -0.2562    0.6242 H   0  0  0  0  0  0  0  0  0  0  0  0
    2.2209    1.4354    0.4473 H   0  0  0  0  0  0  0  0  0  0  0  0
  1  2  1  0
  2  3  1  0
  3  4  1  0
  4  5  1  0
  5  6  1  0
  6  7  1  0
  7  8  1  0
  8  9  1  0
  8  2  1  0
  8  6  1  0
  1 10  1  0
  1 11  1  0
  1 12  1  0
  2 13  1  0
  3 14  1  0
  3 15  1  0
  4 16  1  0
  4 17  1  0
  5 18  1  0
  5 19  1  0
  6 20  1  0
  7 21  1  0
  7 22  1  0
  9 23  1  0
  9 24  1  0
  9 25  1  0
M  END
