
     RDKit          3D

 19 19  0  0  0  0  0  0  0  0999 V2000
    1.8844    0.2048    0.8039 C   0  0  0  0  0  0  0  0  0  0  0  0
    1.0361   -0.1106   -0.4393 C   0  0  0  0  0  0  0  0  0  0  0  0
    0.1316   -1.2652   -0.1994 C   0  0  0  0  0  0  0  0  0  0  0  0
   -1.2775   -1.0023    0.0611 C   0  0  0  0  0  0  0  0  0  0  0  0
   -1.7170    0.3984    0.2796 C   0  0  0  0  0  0  0  0  0  0  0  0
   -0.9491    1.4172   -0.4399 C   0  0  0  0  0  0  0  0  0  0  0  0
   -1.4771    2.5302   -0.6562 O   0  0  0  0  0  0  0  0  0  0  0  0
    0.3893    1.1214   -0.8819 C   0  0  0  0  0  0  0  0  0  0  0  0
    0.9739    1.9168   -1.6318 O   0  0  0  0  0  0  0  0  0  0  0  0
    2.6199    0.9624    0.4776 H   0  0  0  0  0  0  0  0  0  0  0  0
    2.4883   -0.7048    1.0652 H   0  0  0  0  0  0  0  0  0  0  0  0
    1.2751    0.5611    1.6301 H   0  0  0  0  0  0  0  0  0  0  0  0
    1.8093   -0.3742   -1.2140 H   0  0  0  0  0  0  0  0  0  0  0  0
    0.2201   -1.9601   -1.0884 H   0  0  0  0  0  0  0  0  0  0  0  0
    0.6060   -1.8692    0.6329 H   0  0  0  0  0  0  0  0  0  0  0  0
   -1.9429   -1.4378   -0.7450 H   0  0  0  0  0  0  0  0  0  0  0  0
   -1.5994   -1.5771    0.9829 H   0  0  0  0  0  0  0  0  0  0  0  0
   -2.7825    0.5204   -0.0118 H   0  0  0  0  0  0  0  0  0  0  0  0
   -1.6884    0.6684    1.3744 H   0  0  0  0  0  0  0  0  0  0  0  0
  1  2  1  0
  2  3  1  0
  3  4  1  0
  4  5  1  0
  5  6  1  0
  6  7  2  0
  6  8  1  0
  8  9  2  0
  8  2  1  0
  1 10  1  0
  1 11  1  0
  1 12  1  0
  2 13  1  0
  3 14  1  0
  3 15  1  0
  4 16  1  0
  4 17  1  0
  5 18  1  0
  5 19  1  0
M  END
