
     RDKit          3D

 21 22  0  0  0  0  0  0  0  0999 V2000
   -2.3737   -0.3296   -0.0348 C   0  0  0  0  0  0  0  0  0  0  0  0
   -1.0163   -0.2968   -0.6245 C   0  0  0  0  0  0  0  0  0  0  0  0
    0.0174   -1.2165   -0.0485 C   0  0  0  0  0  0  0  0  0  0  0  0
    0.0216   -0.3300    1.1550 C   0  0  0  0  0  0  0  0  0  0  0  0
   -0.0175    0.6369   -0.0021 C   0  0  0  0  0  0  0  0  0  0  0  0
   -0.0350    1.9792    0.0617 C   0  0  0  0  0  0  0  0  0  0  0  0
    0.4373    2.7213   -0.8156 O   0  0  0  0  0  0  0  0  0  0  0  0
    1.0125   -0.2451   -0.6473 C   0  0  0  0  0  0  0  0  0  0  0  0
    2.3739   -0.2456   -0.0902 C   0  0  0  0  0  0  0  0  0  0  0  0
   -2.7427    0.6921    0.2666 H   0  0  0  0  0  0  0  0  0  0  0  0
   -3.1008   -0.6450   -0.8366 H   0  0  0  0  0  0  0  0  0  0  0  0
   -2.5105   -1.0622    0.7817 H   0  0  0  0  0  0  0  0  0  0  0  0
   -1.0134   -0.2858   -1.7333 H   0  0  0  0  0  0  0  0  0  0  0  0
    0.0566   -2.2137   -0.0952 H   0  0  0  0  0  0  0  0  0  0  0  0
    0.9179   -0.3335    1.7699 H   0  0  0  0  0  0  0  0  0  0  0  0
   -0.8886   -0.2713    1.7454 H   0  0  0  0  0  0  0  0  0  0  0  0
   -0.4704    2.5564    0.9000 H   0  0  0  0  0  0  0  0  0  0  0  0
    0.9781   -0.3066   -1.7463 H   0  0  0  0  0  0  0  0  0  0  0  0
    3.0856    0.1187   -0.8883 H   0  0  0  0  0  0  0  0  0  0  0  0
    2.7143   -1.3053    0.0987 H   0  0  0  0  0  0  0  0  0  0  0  0
    2.5538    0.3826    0.7837 H   0  0  0  0  0  0  0  0  0  0  0  0
  1  2  1  0
  2  3  1  0
  3  4  1  0
  4  5  1  0
  5  6  1  0
  6  7  2  0
  5  8  1  0
  8  9  1  0
  5  2  1  0
  8  3  1  0
  1 10  1  0
  1 11  1  0
  1 12  1  0
  2 13  1  0
  3 14  1  0
  4 15  1  0
  4 16  1  0
  6 17  1  0
  8 18  1  0
  9 19  1  0
  9 20  1  0
  9 21  1  0
M  END
