
     RDKit          3D

 19 20  0  0  0  0  0  0  0  0999 V2000
    2.1385   -0.9257    0.2500 C   0  0  0  0  0  0  0  0  0  0  0  0
    1.0261   -0.2597   -0.4997 C   0  0  0  0  0  0  0  0  0  0  0  0
    0.5433    0.9937    0.1981 C   0  0  0  0  0  0  0  0  0  0  0  0
   -0.9393    0.9173    0.3227 C   0  0  0  0  0  0  0  0  0  0  0  0
   -1.8220    0.6483   -0.8235 C   0  0  0  0  0  0  0  0  0  0  0  0
   -1.3080   -0.4743   -0.0044 C   0  0  0  0  0  0  0  0  0  0  0  0
   -2.1446   -1.1054    0.9309 O   0  0  0  0  0  0  0  0  0  0  0  0
   -0.1366   -1.1793   -0.5188 C   0  0  0  0  0  0  0  0  0  0  0  0
   -0.0739   -2.3222   -0.9079 O   0  0  0  0  0  0  0  0  0  0  0  0
    2.1579   -2.0242   -0.0086 H   0  0  0  0  0  0  0  0  0  0  0  0
    3.1329   -0.5354   -0.0051 H   0  0  0  0  0  0  0  0  0  0  0  0
    1.9083   -0.8827    1.3289 H   0  0  0  0  0  0  0  0  0  0  0  0
    1.3333    0.0072   -1.5508 H   0  0  0  0  0  0  0  0  0  0  0  0
    0.8690    1.9022   -0.3481 H   0  0  0  0  0  0  0  0  0  0  0  0
    0.9707    1.0449    1.2420 H   0  0  0  0  0  0  0  0  0  0  0  0
   -1.3777    1.4627    1.1698 H   0  0  0  0  0  0  0  0  0  0  0  0
   -1.4447    0.7163   -1.8808 H   0  0  0  0  0  0  0  0  0  0  0  0
   -2.8800    0.8902   -0.7321 H   0  0  0  0  0  0  0  0  0  0  0  0
   -1.9529   -0.7103    1.8374 H   0  0  0  0  0  0  0  0  0  0  0  0
  1  2  1  0
  2  3  1  0
  3  4  1  0
  4  5  1  0
  5  6  1  0
  6  7  1  0
  6  8  1  0
  8  9  2  0
  8  2  1  0
  6  4  1  0
  1 10  1  0
  1 11  1  0
  1 12  1  0
  2 13  1  0
  3 14  1  0
  3 15  1  0
  4 16  1  0
  5 17  1  0
  5 18  1  0
  7 19  1  0
M  END
