
     RDKit          3D

 23 24  0  0  0  0  0  0  0  0999 V2000
    2.6768   -0.0823   -0.0847 C   0  0  0  0  0  0  0  0  0  0  0  0
    1.2421   -0.0424    0.3120 C   0  0  0  0  0  0  0  0  0  0  0  0
    0.5134    1.1050   -0.3863 C   0  0  0  0  0  0  0  0  0  0  0  0
   -0.8620    1.2679    0.1567 C   0  0  0  0  0  0  0  0  0  0  0  0
   -1.6688    1.9523   -0.7850 O   0  0  0  0  0  0  0  0  0  0  0  0
   -1.5319    0.0361    0.6155 C   0  0  0  0  0  0  0  0  0  0  0  0
   -2.0175   -0.9929   -0.3866 C   0  0  0  0  0  0  0  0  0  0  0  0
   -0.8615   -1.2301    0.5421 C   0  0  0  0  0  0  0  0  0  0  0  0
    0.4844   -1.2937   -0.0817 C   0  0  0  0  0  0  0  0  0  0  0  0
    3.1768    0.8113    0.3036 H   0  0  0  0  0  0  0  0  0  0  0  0
    2.7967   -0.1904   -1.1655 H   0  0  0  0  0  0  0  0  0  0  0  0
    3.1499   -0.9579    0.4008 H   0  0  0  0  0  0  0  0  0  0  0  0
    1.1324    0.0630    1.4072 H   0  0  0  0  0  0  0  0  0  0  0  0
    1.1364    2.0182   -0.1532 H   0  0  0  0  0  0  0  0  0  0  0  0
    0.5473    0.9542   -1.4689 H   0  0  0  0  0  0  0  0  0  0  0  0
   -0.7970    1.9756    1.0263 H   0  0  0  0  0  0  0  0  0  0  0  0
   -2.5103    2.2244   -0.3510 H   0  0  0  0  0  0  0  0  0  0  0  0
   -2.2794    0.1762    1.4525 H   0  0  0  0  0  0  0  0  0  0  0  0
   -1.7951   -0.8319   -1.4705 H   0  0  0  0  0  0  0  0  0  0  0  0
   -2.9496   -1.5361   -0.2203 H   0  0  0  0  0  0  0  0  0  0  0  0
   -0.9994   -1.9547    1.3954 H   0  0  0  0  0  0  0  0  0  0  0  0
    0.4024   -1.2541   -1.2074 H   0  0  0  0  0  0  0  0  0  0  0  0
    1.0138   -2.2178    0.1489 H   0  0  0  0  0  0  0  0  0  0  0  0
  1  2  1  0
  2  3  1  0
  3  4  1  0
  4  5  1  0
  4  6  1  0
  6  7  1  0
  7  8  1  0
  8  9  1  0
  9  2  1  0
  8  6  1  0
  1 10  1  0
  1 11  1  0
  1 12  1  0
  2 13  1  0
  3 14  1  0
  3 15  1  0
  4 16  1  0
  5 17  1  0
  6 18  1  0
  7 19  1  0
  7 20  1  0
  8 21  1  0
  9 22  1  0
  9 23  1  0
M  END
