
     RDKit          3D

 21 22  0  0  0  0  0  0  0  0999 V2000
    2.6236    0.1242   -0.6394 C   0  0  0  0  0  0  0  0  0  0  0  0
    1.0993    0.0872   -0.6175 C   0  0  0  0  0  0  0  0  0  0  0  0
    0.5590    1.3648   -0.0766 C   0  0  0  0  0  0  0  0  0  0  0  0
   -0.7312    1.3670    0.2357 C   0  0  0  0  0  0  0  0  0  0  0  0
   -1.5338    0.1147    0.0275 C   0  0  0  0  0  0  0  0  0  0  0  0
   -0.7874   -0.9961    0.6658 C   0  0  0  0  0  0  0  0  0  0  0  0
    0.5923   -1.1307    0.1184 C   0  0  0  0  0  0  0  0  0  0  0  0
   -2.6409    0.0493   -0.8192 C   0  0  0  0  0  0  0  0  0  0  0  0
   -2.8736    0.2301    0.6542 O   0  0  0  0  0  0  0  0  0  0  0  0
    2.9550   -0.5229    0.2178 H   0  0  0  0  0  0  0  0  0  0  0  0
    3.0145    1.1385   -0.4739 H   0  0  0  0  0  0  0  0  0  0  0  0
    3.0283   -0.3588   -1.5554 H   0  0  0  0  0  0  0  0  0  0  0  0
    0.7894    0.0630   -1.7002 H   0  0  0  0  0  0  0  0  0  0  0  0
    1.2046    2.2430    0.0495 H   0  0  0  0  0  0  0  0  0  0  0  0
   -1.1785    2.2697    0.6334 H   0  0  0  0  0  0  0  0  0  0  0  0
   -0.6972   -0.7510    1.7652 H   0  0  0  0  0  0  0  0  0  0  0  0
   -1.3144   -1.9627    0.5413 H   0  0  0  0  0  0  0  0  0  0  0  0
    0.6138   -1.9759   -0.6263 H   0  0  0  0  0  0  0  0  0  0  0  0
    1.3144   -1.3655    0.9549 H   0  0  0  0  0  0  0  0  0  0  0  0
   -3.0428   -0.9087   -1.1838 H   0  0  0  0  0  0  0  0  0  0  0  0
   -2.9945    0.9206   -1.3756 H   0  0  0  0  0  0  0  0  0  0  0  0
  1  2  1  0
  2  3  1  0
  3  4  2  0
  4  5  1  0
  5  6  1  0
  6  7  1  0
  5  8  1  0
  8  9  1  0
  7  2  1  0
  9  5  1  0
  1 10  1  0
  1 11  1  0
  1 12  1  0
  2 13  1  0
  3 14  1  0
  4 15  1  0
  6 16  1  0
  6 17  1  0
  7 18  1  0
  7 19  1  0
  8 20  1  0
  8 21  1  0
M  END
