
     RDKit          3D

 23 24  0  0  0  0  0  0  0  0999 V2000
   -0.3165    1.9209   -0.9150 C   0  0  0  0  0  0  0  0  0  0  0  0
   -0.1134    1.0652    0.2960 C   0  0  0  0  0  0  0  0  0  0  0  0
   -0.6267   -0.3681    0.2961 C   0  0  0  0  0  0  0  0  0  0  0  0
   -1.3438   -0.8074    1.5458 C   0  0  0  0  0  0  0  0  0  0  0  0
   -1.3526   -0.8024   -0.9823 C   0  0  0  0  0  0  0  0  0  0  0  0
    0.7619   -0.0738    0.1965 C   0  0  0  0  0  0  0  0  0  0  0  0
    1.5727   -0.5195   -0.9407 C   0  0  0  0  0  0  0  0  0  0  0  0
    2.4725   -1.0846   -0.0038 O   0  0  0  0  0  0  0  0  0  0  0  0
    1.8786   -0.3911    1.0757 C   0  0  0  0  0  0  0  0  0  0  0  0
   -0.0977    1.3655   -1.8357 H   0  0  0  0  0  0  0  0  0  0  0  0
    0.4439    2.7541   -0.8434 H   0  0  0  0  0  0  0  0  0  0  0  0
   -1.3286    2.3559   -0.9249 H   0  0  0  0  0  0  0  0  0  0  0  0
   -0.1324    1.6189    1.2724 H   0  0  0  0  0  0  0  0  0  0  0  0
   -2.3915   -0.4145    1.5006 H   0  0  0  0  0  0  0  0  0  0  0  0
   -1.4410   -1.9081    1.5868 H   0  0  0  0  0  0  0  0  0  0  0  0
   -0.8918   -0.4428    2.4735 H   0  0  0  0  0  0  0  0  0  0  0  0
   -0.7197   -0.5801   -1.8778 H   0  0  0  0  0  0  0  0  0  0  0  0
   -1.5399   -1.8920   -0.9094 H   0  0  0  0  0  0  0  0  0  0  0  0
   -2.2792   -0.2074   -1.1226 H   0  0  0  0  0  0  0  0  0  0  0  0
    1.1582   -1.3273   -1.6005 H   0  0  0  0  0  0  0  0  0  0  0  0
    2.0311    0.2466   -1.5954 H   0  0  0  0  0  0  0  0  0  0  0  0
    2.5506    0.4741    1.3366 H   0  0  0  0  0  0  0  0  0  0  0  0
    1.7053   -0.9823    1.9714 H   0  0  0  0  0  0  0  0  0  0  0  0
  1  2  1  0
  2  3  1  0
  3  4  1  0
  3  5  1  0
  3  6  1  0
  6  7  1  0
  7  8  1  0
  8  9  1  0
  6  2  1  0
  9  6  1  0
  1 10  1  0
  1 11  1  0
  1 12  1  0
  2 13  1  0
  4 14  1  0
  4 15  1  0
  4 16  1  0
  5 17  1  0
  5 18  1  0
  5 19  1  0
  7 20  1  0
  7 21  1  0
  9 22  1  0
  9 23  1  0
M  END
