
     RDKit          3D

 17 17  0  0  0  0  0  0  0  0999 V2000
   -2.1283   -0.3252   -0.1506 C   0  0  0  0  0  0  0  0  0  0  0  0
   -0.8954    0.0745    0.6133 C   0  0  0  0  0  0  0  0  0  0  0  0
   -0.3134    1.3872    0.1418 C   0  0  0  0  0  0  0  0  0  0  0  0
    1.0384    1.2055    0.4428 O   0  0  0  0  0  0  0  0  0  0  0  0
    1.3152    0.0196   -0.2267 C   0  0  0  0  0  0  0  0  0  0  0  0
    2.5853   -0.5903    0.1586 C   0  0  0  0  0  0  0  0  0  0  0  0
    3.2976   -0.0708    0.9912 O   0  0  0  0  0  0  0  0  0  0  0  0
    0.2099   -0.8515    0.2524 C   0  0  0  0  0  0  0  0  0  0  0  0
    0.2763   -2.0553    0.3063 O   0  0  0  0  0  0  0  0  0  0  0  0
   -2.0044   -1.3568   -0.5563 H   0  0  0  0  0  0  0  0  0  0  0  0
   -2.3146    0.3214   -1.0332 H   0  0  0  0  0  0  0  0  0  0  0  0
   -3.0144   -0.3570    0.5176 H   0  0  0  0  0  0  0  0  0  0  0  0
   -1.0900    0.1270    1.6809 H   0  0  0  0  0  0  0  0  0  0  0  0
   -0.3974    1.4936   -0.9397 H   0  0  0  0  0  0  0  0  0  0  0  0
   -0.7069    2.2594    0.6972 H   0  0  0  0  0  0  0  0  0  0  0  0
    1.2388    0.2330   -1.3114 H   0  0  0  0  0  0  0  0  0  0  0  0
    2.9033   -1.5144   -0.2968 H   0  0  0  0  0  0  0  0  0  0  0  0
  1  2  1  0
  2  3  1  0
  3  4  1  0
  4  5  1  0
  5  6  1  0
  6  7  2  0
  5  8  1  0
  8  9  2  0
  8  2  1  0
  1 10  1  0
  1 11  1  0
  1 12  1  0
  2 13  1  0
  3 14  1  0
  3 15  1  0
  5 16  1  0
  6 17  1  0
M  END
