
     RDKit          3D

 23 25  0  0  0  0  0  0  0  0999 V2000
    2.8502    0.0622    0.4382 C   0  0  0  0  0  0  0  0  0  0  0  0
    1.5196    0.6631   -0.0288 C   0  0  0  0  0  0  0  0  0  0  0  0
    0.6090   -0.2354   -0.6392 C   0  0  0  0  0  0  0  0  0  0  0  0
   -0.0335   -1.5020   -0.2915 C   0  0  0  0  0  0  0  0  0  0  0  0
   -1.4741   -1.1655    0.1727 C   0  0  0  0  0  0  0  0  0  0  0  0
   -1.8828    0.0931   -0.4527 C   0  0  0  0  0  0  0  0  0  0  0  0
   -1.8695    1.5248   -0.4156 C   0  0  0  0  0  0  0  0  0  0  0  0
   -1.0618    0.9495    0.5476 C   0  0  0  0  0  0  0  0  0  0  0  0
    0.2938    0.5312    0.7010 C   0  0  0  0  0  0  0  0  0  0  0  0
    2.6036   -0.9167    0.8737 H   0  0  0  0  0  0  0  0  0  0  0  0
    3.4537   -0.1025   -0.5021 H   0  0  0  0  0  0  0  0  0  0  0  0
    3.3789    0.7264    1.1234 H   0  0  0  0  0  0  0  0  0  0  0  0
    1.7215    1.6824   -0.4358 H   0  0  0  0  0  0  0  0  0  0  0  0
    0.2047    0.1777   -1.5829 H   0  0  0  0  0  0  0  0  0  0  0  0
    0.4571   -1.9909    0.6011 H   0  0  0  0  0  0  0  0  0  0  0  0
   -0.0367   -2.2428   -1.0864 H   0  0  0  0  0  0  0  0  0  0  0  0
   -2.1144   -1.9985   -0.2191 H   0  0  0  0  0  0  0  0  0  0  0  0
   -1.5696   -1.2648    1.2712 H   0  0  0  0  0  0  0  0  0  0  0  0
   -1.7552   -0.0960   -1.5131 H   0  0  0  0  0  0  0  0  0  0  0  0
   -1.3050    2.2193   -1.1208 H   0  0  0  0  0  0  0  0  0  0  0  0
   -2.8696    2.0240   -0.2408 H   0  0  0  0  0  0  0  0  0  0  0  0
   -1.6363    0.9327    1.5532 H   0  0  0  0  0  0  0  0  0  0  0  0
    0.5164   -0.0711    1.6452 H   0  0  0  0  0  0  0  0  0  0  0  0
  1  2  1  0
  2  3  1  0
  3  4  1  0
  4  5  1  0
  5  6  1  0
  6  7  1  0
  7  8  1  0
  8  9  1  0
  9  2  1  0
  9  3  1  0
  8  6  1  0
  1 10  1  0
  1 11  1  0
  1 12  1  0
  2 13  1  0
  3 14  1  0
  4 15  1  0
  4 16  1  0
  5 17  1  0
  5 18  1  0
  6 19  1  0
  7 20  1  0
  7 21  1  0
  8 22  1  0
  9 23  1  0
M  END
