
     RDKit          3D

 22 23  0  0  0  0  0  0  0  0999 V2000
   -2.6591   -0.2542    0.2016 C   0  0  0  0  0  0  0  0  0  0  0  0
   -1.3086    0.0799   -0.3691 C   0  0  0  0  0  0  0  0  0  0  0  0
   -0.7484    1.3371    0.3058 C   0  0  0  0  0  0  0  0  0  0  0  0
    0.7015    1.2836   -0.1644 C   0  0  0  0  0  0  0  0  0  0  0  0
    1.0145   -0.1667   -0.1432 C   0  0  0  0  0  0  0  0  0  0  0  0
    2.2491   -0.5524    0.6236 C   0  0  0  0  0  0  0  0  0  0  0  0
    2.1442   -0.7812   -0.8373 C   0  0  0  0  0  0  0  0  0  0  0  0
   -0.2542   -0.9371    0.0138 C   0  0  0  0  0  0  0  0  0  0  0  0
   -2.5245   -0.5513    1.2710 H   0  0  0  0  0  0  0  0  0  0  0  0
   -3.0606   -1.1064   -0.3965 H   0  0  0  0  0  0  0  0  0  0  0  0
   -3.3037    0.6469    0.1014 H   0  0  0  0  0  0  0  0  0  0  0  0
   -1.3867    0.2306   -1.4550 H   0  0  0  0  0  0  0  0  0  0  0  0
   -0.8083    1.1748    1.3939 H   0  0  0  0  0  0  0  0  0  0  0  0
   -1.2626    2.2417   -0.0215 H   0  0  0  0  0  0  0  0  0  0  0  0
    0.8335    1.7837   -1.1317 H   0  0  0  0  0  0  0  0  0  0  0  0
    1.2836    1.8442    0.6219 H   0  0  0  0  0  0  0  0  0  0  0  0
    2.0941   -1.3397    1.3671 H   0  0  0  0  0  0  0  0  0  0  0  0
    2.9594    0.2713    0.9157 H   0  0  0  0  0  0  0  0  0  0  0  0
    2.0102   -1.8613   -1.1240 H   0  0  0  0  0  0  0  0  0  0  0  0
    2.8253   -0.2563   -1.5142 H   0  0  0  0  0  0  0  0  0  0  0  0
   -0.4582   -1.2865    1.0330 H   0  0  0  0  0  0  0  0  0  0  0  0
   -0.3405   -1.8007   -0.6918 H   0  0  0  0  0  0  0  0  0  0  0  0
  1  2  1  0
  2  3  1  0
  3  4  1  0
  4  5  1  0
  5  6  1  0
  6  7  1  0
  5  8  1  0
  8  2  1  0
  7  5  1  0
  1  9  1  0
  1 10  1  0
  1 11  1  0
  2 12  1  0
  3 13  1  0
  3 14  1  0
  4 15  1  0
  4 16  1  0
  6 17  1  0
  6 18  1  0
  7 19  1  0
  7 20  1  0
  8 21  1  0
  8 22  1  0
M  END
