
     RDKit          3D

 23 24  0  0  0  0  0  0  0  0999 V2000
    1.6261    1.2472    0.8264 C   0  0  0  0  0  0  0  0  0  0  0  0
    0.7033    0.0637    0.9572 C   0  0  0  0  0  0  0  0  0  0  0  0
    1.4940   -1.1033    0.3471 C   0  0  0  0  0  0  0  0  0  0  0  0
    0.3383   -1.9335   -0.1088 C   0  0  0  0  0  0  0  0  0  0  0  0
   -0.7495   -1.2332   -0.3204 C   0  0  0  0  0  0  0  0  0  0  0  0
   -2.1055   -0.7426   -0.6399 C   0  0  0  0  0  0  0  0  0  0  0  0
   -1.8263    0.2781    0.4854 C   0  0  0  0  0  0  0  0  0  0  0  0
   -0.4241    0.2251   -0.0220 C   0  0  0  0  0  0  0  0  0  0  0  0
   -0.1230    1.0374   -1.2243 C   0  0  0  0  0  0  0  0  0  0  0  0
    2.4225    1.2328    1.6230 H   0  0  0  0  0  0  0  0  0  0  0  0
    2.1760    1.1400   -0.1290 H   0  0  0  0  0  0  0  0  0  0  0  0
    1.0953    2.2142    0.8198 H   0  0  0  0  0  0  0  0  0  0  0  0
    0.3868   -0.1440    1.9782 H   0  0  0  0  0  0  0  0  0  0  0  0
    2.0807   -1.6111    1.1339 H   0  0  0  0  0  0  0  0  0  0  0  0
    2.0854   -0.7115   -0.4753 H   0  0  0  0  0  0  0  0  0  0  0  0
    0.4207   -3.0235   -0.2451 H   0  0  0  0  0  0  0  0  0  0  0  0
   -2.9405   -1.4286   -0.3972 H   0  0  0  0  0  0  0  0  0  0  0  0
   -2.1749   -0.2344   -1.5974 H   0  0  0  0  0  0  0  0  0  0  0  0
   -2.3738    1.2296    0.3155 H   0  0  0  0  0  0  0  0  0  0  0  0
   -1.9417   -0.1727    1.4884 H   0  0  0  0  0  0  0  0  0  0  0  0
    0.3115    0.3533   -2.0073 H   0  0  0  0  0  0  0  0  0  0  0  0
    0.5655    1.8680   -1.1107 H   0  0  0  0  0  0  0  0  0  0  0  0
   -1.0467    1.4488   -1.6975 H   0  0  0  0  0  0  0  0  0  0  0  0
  1  2  1  0
  2  3  1  0
  3  4  1  0
  4  5  2  0
  5  6  1  0
  6  7  1  0
  7  8  1  0
  8  9  1  0
  8  2  1  0
  8  5  1  0
  1 10  1  0
  1 11  1  0
  1 12  1  0
  2 13  1  0
  3 14  1  0
  3 15  1  0
  4 16  1  0
  6 17  1  0
  6 18  1  0
  7 19  1  0
  7 20  1  0
  9 21  1  0
  9 22  1  0
  9 23  1  0
M  END
