
     RDKit          3D

 21 22  0  0  0  0  0  0  0  0999 V2000
    2.1958    1.1912    0.2052 C   0  0  0  0  0  0  0  0  0  0  0  0
    1.2712    0.2348   -0.5056 C   0  0  0  0  0  0  0  0  0  0  0  0
    1.7875   -1.1683   -0.3256 C   0  0  0  0  0  0  0  0  0  0  0  0
    2.8472   -1.7432   -0.4839 O   0  0  0  0  0  0  0  0  0  0  0  0
    0.4576   -1.6048    0.1384 C   0  0  0  0  0  0  0  0  0  0  0  0
    0.0721   -0.1455    0.2735 C   0  0  0  0  0  0  0  0  0  0  0  0
   -1.2710    0.0980   -0.3583 C   0  0  0  0  0  0  0  0  0  0  0  0
   -2.4381   -0.3353    0.5418 C   0  0  0  0  0  0  0  0  0  0  0  0
   -2.2148    1.0918    0.2104 C   0  0  0  0  0  0  0  0  0  0  0  0
    2.5504    0.7452    1.1567 H   0  0  0  0  0  0  0  0  0  0  0  0
    3.0968    1.3208   -0.4542 H   0  0  0  0  0  0  0  0  0  0  0  0
    1.7366    2.1622    0.4167 H   0  0  0  0  0  0  0  0  0  0  0  0
    1.1488    0.4307   -1.5873 H   0  0  0  0  0  0  0  0  0  0  0  0
    0.4371   -2.0792    1.1366 H   0  0  0  0  0  0  0  0  0  0  0  0
   -0.0753   -2.1355   -0.6698 H   0  0  0  0  0  0  0  0  0  0  0  0
    0.0925    0.2569    1.2999 H   0  0  0  0  0  0  0  0  0  0  0  0
   -1.3620   -0.1056   -1.4336 H   0  0  0  0  0  0  0  0  0  0  0  0
   -2.2312   -0.6411    1.5681 H   0  0  0  0  0  0  0  0  0  0  0  0
   -3.2549   -0.9128    0.0615 H   0  0  0  0  0  0  0  0  0  0  0  0
   -2.9576    1.5439   -0.4733 H   0  0  0  0  0  0  0  0  0  0  0  0
   -1.8888    1.7956    1.0172 H   0  0  0  0  0  0  0  0  0  0  0  0
  1  2  1  0
  2  3  1  0
  3  4  2  0
  3  5  1  0
  5  6  1  0
  6  7  1  0
  7  8  1  0
  8  9  1  0
  6  2  1  0
  9  7  1  0
  1 10  1  0
  1 11  1  0
  1 12  1  0
  2 13  1  0
  5 14  1  0
  5 15  1  0
  6 16  1  0
  7 17  1  0
  8 18  1  0
  8 19  1  0
  9 20  1  0
  9 21  1  0
M  END
