
     RDKit          3D

 21 22  0  0  0  0  0  0  0  0999 V2000
   -1.2824    1.6021    0.3014 C   0  0  0  0  0  0  0  0  0  0  0  0
   -0.8189    0.2542   -0.0928 C   0  0  0  0  0  0  0  0  0  0  0  0
   -1.3616   -0.8574    0.8049 C   0  0  0  0  0  0  0  0  0  0  0  0
   -0.5676   -2.0350    0.2772 C   0  0  0  0  0  0  0  0  0  0  0  0
    0.6499   -2.3513    0.8229 O   0  0  0  0  0  0  0  0  0  0  0  0
    0.7629   -1.4433   -0.2018 C   0  0  0  0  0  0  0  0  0  0  0  0
    0.6722    0.0387    0.0951 C   0  0  0  0  0  0  0  0  0  0  0  0
    1.4789    0.8656   -0.8757 C   0  0  0  0  0  0  0  0  0  0  0  0
    2.8267    0.6324   -0.6615 O   0  0  0  0  0  0  0  0  0  0  0  0
   -2.0736    1.6220    1.0636 H   0  0  0  0  0  0  0  0  0  0  0  0
   -1.7352    2.0897   -0.6120 H   0  0  0  0  0  0  0  0  0  0  0  0
   -0.4606    2.2957    0.6030 H   0  0  0  0  0  0  0  0  0  0  0  0
   -1.0679   -0.0465   -1.1289 H   0  0  0  0  0  0  0  0  0  0  0  0
   -1.0026   -0.6525    1.8229 H   0  0  0  0  0  0  0  0  0  0  0  0
   -2.4401   -0.9868    0.7070 H   0  0  0  0  0  0  0  0  0  0  0  0
   -1.1147   -2.7173   -0.3688 H   0  0  0  0  0  0  0  0  0  0  0  0
    1.0148   -1.7643   -1.2291 H   0  0  0  0  0  0  0  0  0  0  0  0
    0.9926    0.2734    1.1294 H   0  0  0  0  0  0  0  0  0  0  0  0
    1.2494    0.4687   -1.8995 H   0  0  0  0  0  0  0  0  0  0  0  0
    1.1879    1.9228   -0.8521 H   0  0  0  0  0  0  0  0  0  0  0  0
    3.0898    0.7891    0.2948 H   0  0  0  0  0  0  0  0  0  0  0  0
  1  2  1  0
  2  3  1  0
  3  4  1  0
  4  5  1  0
  5  6  1  0
  6  7  1  0
  7  8  1  0
  8  9  1  0
  7  2  1  0
  6  4  1  0
  1 10  1  0
  1 11  1  0
  1 12  1  0
  2 13  1  0
  3 14  1  0
  3 15  1  0
  4 16  1  0
  6 17  1  0
  7 18  1  0
  8 19  1  0
  8 20  1  0
  9 21  1  0
M  END
