
     RDKit          3D

 21 21  0  0  0  0  0  0  0  0999 V2000
    2.2740   -0.4423   -0.0694 C   0  0  0  0  0  0  0  0  0  0  0  0
    0.7790   -0.4807   -0.1801 C   0  0  0  0  0  0  0  0  0  0  0  0
    0.1122   -0.9721    1.0500 C   0  0  0  0  0  0  0  0  0  0  0  0
   -1.2333   -1.0446    0.9490 C   0  0  0  0  0  0  0  0  0  0  0  0
   -1.8252   -0.6376   -0.3287 C   0  0  0  0  0  0  0  0  0  0  0  0
   -1.2587    0.6087   -0.9161 C   0  0  0  0  0  0  0  0  0  0  0  0
    0.1832    0.8611   -0.5143 C   0  0  0  0  0  0  0  0  0  0  0  0
    0.2022    1.7740    0.6448 C   0  0  0  0  0  0  0  0  0  0  0  0
    0.7804    2.8308    0.5905 O   0  0  0  0  0  0  0  0  0  0  0  0
    2.6179   -1.4652    0.1803 H   0  0  0  0  0  0  0  0  0  0  0  0
    2.6769   -0.2130   -1.0736 H   0  0  0  0  0  0  0  0  0  0  0  0
    2.6525    0.2401    0.6957 H   0  0  0  0  0  0  0  0  0  0  0  0
    0.5153   -1.1724   -1.0052 H   0  0  0  0  0  0  0  0  0  0  0  0
    0.6084   -1.2536    1.9532 H   0  0  0  0  0  0  0  0  0  0  0  0
   -1.8012   -1.3920    1.7968 H   0  0  0  0  0  0  0  0  0  0  0  0
   -2.9316   -0.5424   -0.2126 H   0  0  0  0  0  0  0  0  0  0  0  0
   -1.6333   -1.4690   -1.0669 H   0  0  0  0  0  0  0  0  0  0  0  0
   -1.9178    1.4586   -0.6433 H   0  0  0  0  0  0  0  0  0  0  0  0
   -1.2657    0.5488   -2.0260 H   0  0  0  0  0  0  0  0  0  0  0  0
    0.7688    1.2669   -1.3711 H   0  0  0  0  0  0  0  0  0  0  0  0
   -0.3038    1.4959    1.5470 H   0  0  0  0  0  0  0  0  0  0  0  0
  1  2  1  0
  2  3  1  0
  3  4  2  0
  4  5  1  0
  5  6  1  0
  6  7  1  0
  7  8  1  0
  8  9  2  0
  7  2  1  0
  1 10  1  0
  1 11  1  0
  1 12  1  0
  2 13  1  0
  3 14  1  0
  4 15  1  0
  5 16  1  0
  5 17  1  0
  6 18  1  0
  6 19  1  0
  7 20  1  0
  8 21  1  0
M  END
