
     RDKit          3D

 21 22  0  0  0  0  0  0  0  0999 V2000
    2.5779    1.0793   -0.6876 C   0  0  0  0  0  0  0  0  0  0  0  0
    1.4485    0.0997   -0.7618 C   0  0  0  0  0  0  0  0  0  0  0  0
    1.5878   -1.0349    0.1764 C   0  0  0  0  0  0  0  0  0  0  0  0
    0.3739   -1.4122    0.5466 C   0  0  0  0  0  0  0  0  0  0  0  0
   -0.6630   -0.5724   -0.1035 C   0  0  0  0  0  0  0  0  0  0  0  0
    0.1275    0.6961   -0.3341 C   0  0  0  0  0  0  0  0  0  0  0  0
   -1.1004   -1.0823   -1.4321 O   0  0  0  0  0  0  0  0  0  0  0  0
   -1.9863   -0.8023   -0.3522 C   0  0  0  0  0  0  0  0  0  0  0  0
   -2.9526    0.3593   -0.5486 C   0  0  0  0  0  0  0  0  0  0  0  0
    3.2497    0.9410    0.1562 H   0  0  0  0  0  0  0  0  0  0  0  0
    3.1652    0.9825   -1.6477 H   0  0  0  0  0  0  0  0  0  0  0  0
    2.1470    2.1023   -0.7216 H   0  0  0  0  0  0  0  0  0  0  0  0
    1.3257   -0.3297   -1.7763 H   0  0  0  0  0  0  0  0  0  0  0  0
    2.5148   -1.5146    0.5331 H   0  0  0  0  0  0  0  0  0  0  0  0
    0.1759   -2.2349    1.2399 H   0  0  0  0  0  0  0  0  0  0  0  0
   -0.3156    1.3714   -1.0613 H   0  0  0  0  0  0  0  0  0  0  0  0
    0.3064    1.1894    0.6507 H   0  0  0  0  0  0  0  0  0  0  0  0
   -2.5047   -1.7175   -0.0187 H   0  0  0  0  0  0  0  0  0  0  0  0
   -3.8941   -0.0419   -0.9594 H   0  0  0  0  0  0  0  0  0  0  0  0
   -3.1200    0.8195    0.4457 H   0  0  0  0  0  0  0  0  0  0  0  0
   -2.4636    1.1022   -1.1879 H   0  0  0  0  0  0  0  0  0  0  0  0
  1  2  1  0
  2  3  1  0
  3  4  2  0
  4  5  1  0
  5  6  1  0
  5  7  1  0
  7  8  1  0
  8  9  1  0
  6  2  1  0
  8  5  1  0
  1 10  1  0
  1 11  1  0
  1 12  1  0
  2 13  1  0
  3 14  1  0
  4 15  1  0
  6 16  1  0
  6 17  1  0
  8 18  1  0
  9 19  1  0
  9 20  1  0
  9 21  1  0
M  END
