
     RDKit          3D

 23 24  0  0  0  0  0  0  0  0999 V2000
    2.4575    0.1402   -0.0843 C   0  0  0  0  0  0  0  0  0  0  0  0
    0.9984    0.2267   -0.4871 C   0  0  0  0  0  0  0  0  0  0  0  0
    0.4155   -1.1705   -0.7237 C   0  0  0  0  0  0  0  0  0  0  0  0
   -0.8160   -1.1332    0.1558 C   0  0  0  0  0  0  0  0  0  0  0  0
   -0.2138   -0.4519    1.3984 C   0  0  0  0  0  0  0  0  0  0  0  0
    0.2227    0.8197    0.6486 C   0  0  0  0  0  0  0  0  0  0  0  0
   -1.1114    1.2760    0.1104 C   0  0  0  0  0  0  0  0  0  0  0  0
   -1.7673   -0.0515   -0.2793 C   0  0  0  0  0  0  0  0  0  0  0  0
   -2.0235   -0.0534   -1.6345 O   0  0  0  0  0  0  0  0  0  0  0  0
    2.7877    1.1465    0.1900 H   0  0  0  0  0  0  0  0  0  0  0  0
    2.5049   -0.4876    0.8405 H   0  0  0  0  0  0  0  0  0  0  0  0
    3.0872   -0.3420   -0.8499 H   0  0  0  0  0  0  0  0  0  0  0  0
    0.8954    0.7967   -1.4407 H   0  0  0  0  0  0  0  0  0  0  0  0
    0.2081   -1.3703   -1.7688 H   0  0  0  0  0  0  0  0  0  0  0  0
    1.1355   -1.8856   -0.2613 H   0  0  0  0  0  0  0  0  0  0  0  0
   -1.2585   -2.0885    0.3689 H   0  0  0  0  0  0  0  0  0  0  0  0
    0.6358   -1.0098    1.7859 H   0  0  0  0  0  0  0  0  0  0  0  0
   -0.9790   -0.2237    2.1425 H   0  0  0  0  0  0  0  0  0  0  0  0
    0.7410    1.5244    1.2702 H   0  0  0  0  0  0  0  0  0  0  0  0
   -1.6711    1.7657    0.9253 H   0  0  0  0  0  0  0  0  0  0  0  0
   -1.0310    1.9473   -0.7550 H   0  0  0  0  0  0  0  0  0  0  0  0
   -2.7011   -0.1588    0.2865 H   0  0  0  0  0  0  0  0  0  0  0  0
   -2.5170    0.7836   -1.8385 H   0  0  0  0  0  0  0  0  0  0  0  0
  1  2  1  0
  2  3  1  0
  3  4  1  0
  4  5  1  0
  5  6  1  0
  6  7  1  0
  7  8  1  0
  8  9  1  0
  6  2  1  0
  8  4  1  0
  1 10  1  0
  1 11  1  0
  1 12  1  0
  2 13  1  0
  3 14  1  0
  3 15  1  0
  4 16  1  0
  5 17  1  0
  5 18  1  0
  6 19  1  0
  7 20  1  0
  7 21  1  0
  8 22  1  0
  9 23  1  0
M  END
