
     RDKit          3D

 21 22  0  0  0  0  0  0  0  0999 V2000
    3.0601    0.0066    0.0972 C   0  0  0  0  0  0  0  0  0  0  0  0
    1.6992   -0.3077    0.5977 C   0  0  0  0  0  0  0  0  0  0  0  0
    0.7482    0.8733    0.7362 C   0  0  0  0  0  0  0  0  0  0  0  0
   -0.3164   -0.1366    0.3592 C   0  0  0  0  0  0  0  0  0  0  0  0
   -1.4281    0.4062   -0.5018 C   0  0  0  0  0  0  0  0  0  0  0  0
   -2.4720   -0.6468   -0.8533 C   0  0  0  0  0  0  0  0  0  0  0  0
   -2.8083    0.4981    0.0371 C   0  0  0  0  0  0  0  0  0  0  0  0
    0.7381   -0.8795   -0.3684 C   0  0  0  0  0  0  0  0  0  0  0  0
    0.8006   -1.6182   -1.3177 O   0  0  0  0  0  0  0  0  0  0  0  0
    3.7389   -0.8369    0.4189 H   0  0  0  0  0  0  0  0  0  0  0  0
    3.4475    0.9475    0.5312 H   0  0  0  0  0  0  0  0  0  0  0  0
    3.0709    0.0207   -1.0132 H   0  0  0  0  0  0  0  0  0  0  0  0
    1.6730   -0.8935    1.5392 H   0  0  0  0  0  0  0  0  0  0  0  0
    0.6381    1.2624    1.7638 H   0  0  0  0  0  0  0  0  0  0  0  0
    0.9284    1.6451   -0.0478 H   0  0  0  0  0  0  0  0  0  0  0  0
   -0.6403   -0.7083    1.2388 H   0  0  0  0  0  0  0  0  0  0  0  0
   -1.1298    1.1215   -1.2868 H   0  0  0  0  0  0  0  0  0  0  0  0
   -2.4268   -1.6318   -0.3831 H   0  0  0  0  0  0  0  0  0  0  0  0
   -2.8241   -0.6497   -1.9097 H   0  0  0  0  0  0  0  0  0  0  0  0
   -3.4811    1.2629   -0.3893 H   0  0  0  0  0  0  0  0  0  0  0  0
   -3.0161    0.2645    1.1139 H   0  0  0  0  0  0  0  0  0  0  0  0
  1  2  1  0
  2  3  1  0
  3  4  1  0
  4  5  1  0
  5  6  1  0
  6  7  1  0
  4  8  1  0
  8  9  2  0
  8  2  1  0
  7  5  1  0
  1 10  1  0
  1 11  1  0
  1 12  1  0
  2 13  1  0
  3 14  1  0
  3 15  1  0
  4 16  1  0
  5 17  1  0
  6 18  1  0
  6 19  1  0
  7 20  1  0
  7 21  1  0
M  END
