
     RDKit          3D

 23 24  0  0  0  0  0  0  0  0999 V2000
    2.7862    0.5513    0.8308 C   0  0  0  0  0  0  0  0  0  0  0  0
    2.0286   -0.4088   -0.0839 C   0  0  0  0  0  0  0  0  0  0  0  0
    1.0193    0.4143   -0.8909 C   0  0  0  0  0  0  0  0  0  0  0  0
   -0.0523   -0.0167    0.0401 C   0  0  0  0  0  0  0  0  0  0  0  0
   -1.4247   -0.3658   -0.4315 C   0  0  0  0  0  0  0  0  0  0  0  0
   -2.2917   -0.7642    0.7283 C   0  0  0  0  0  0  0  0  0  0  0  0
   -2.0360    0.9111   -1.0198 C   0  0  0  0  0  0  0  0  0  0  0  0
    0.1560   -0.0616    1.4094 O   0  0  0  0  0  0  0  0  0  0  0  0
    0.8581   -0.9857    0.6666 C   0  0  0  0  0  0  0  0  0  0  0  0
    3.1431    1.4377    0.2338 H   0  0  0  0  0  0  0  0  0  0  0  0
    2.0677    0.9805    1.5659 H   0  0  0  0  0  0  0  0  0  0  0  0
    3.6012    0.0673    1.3711 H   0  0  0  0  0  0  0  0  0  0  0  0
    2.6392   -1.0960   -0.6600 H   0  0  0  0  0  0  0  0  0  0  0  0
    0.9024    0.0075   -1.9181 H   0  0  0  0  0  0  0  0  0  0  0  0
    1.2262    1.4874   -0.9275 H   0  0  0  0  0  0  0  0  0  0  0  0
   -1.3607   -1.1647   -1.1949 H   0  0  0  0  0  0  0  0  0  0  0  0
   -2.6841   -1.7950    0.5524 H   0  0  0  0  0  0  0  0  0  0  0  0
   -3.1151   -0.0495    0.9222 H   0  0  0  0  0  0  0  0  0  0  0  0
   -1.6835   -0.7783    1.6770 H   0  0  0  0  0  0  0  0  0  0  0  0
   -1.8910    1.6929   -0.2238 H   0  0  0  0  0  0  0  0  0  0  0  0
   -3.0996    0.7247   -1.2275 H   0  0  0  0  0  0  0  0  0  0  0  0
   -1.4568    1.2608   -1.8884 H   0  0  0  0  0  0  0  0  0  0  0  0
    0.6673   -2.0491    0.7116 H   0  0  0  0  0  0  0  0  0  0  0  0
  1  2  1  0
  2  3  1  0
  3  4  1  0
  4  5  1  0
  5  6  1  0
  5  7  1  0
  4  8  1  0
  8  9  1  0
  9  2  1  0
  9  4  1  0
  1 10  1  0
  1 11  1  0
  1 12  1  0
  2 13  1  0
  3 14  1  0
  3 15  1  0
  5 16  1  0
  6 17  1  0
  6 18  1  0
  6 19  1  0
  7 20  1  0
  7 21  1  0
  7 22  1  0
  9 23  1  0
M  END
