
     RDKit          3D

 15 15  0  0  0  0  0  0  0  0999 V2000
   -2.0019    0.0339   -0.3408 C   0  0  0  0  0  0  0  0  0  0  0  0
   -0.6168    0.1108    0.2496 C   0  0  0  0  0  0  0  0  0  0  0  0
    0.2107    1.0676   -0.5277 C   0  0  0  0  0  0  0  0  0  0  0  0
   -0.3156    1.7218   -1.4740 O   0  0  0  0  0  0  0  0  0  0  0  0
    1.5351    1.1704   -0.1414 O   0  0  0  0  0  0  0  0  0  0  0  0
    2.2301   -0.0343    0.1093 C   0  0  0  0  0  0  0  0  0  0  0  0
    1.4455   -1.1795    0.0927 O   0  0  0  0  0  0  0  0  0  0  0  0
    0.0670   -1.1775    0.3118 C   0  0  0  0  0  0  0  0  0  0  0  0
   -0.5150   -2.2382    0.5451 O   0  0  0  0  0  0  0  0  0  0  0  0
   -2.3045   -1.0290   -0.5243 H   0  0  0  0  0  0  0  0  0  0  0  0
   -2.7693    0.5251    0.2936 H   0  0  0  0  0  0  0  0  0  0  0  0
   -2.0441    0.5477   -1.3336 H   0  0  0  0  0  0  0  0  0  0  0  0
   -0.7378    0.5777    1.2719 H   0  0  0  0  0  0  0  0  0  0  0  0
    2.7844    0.0108    1.0849 H   0  0  0  0  0  0  0  0  0  0  0  0
    3.0322   -0.1074   -0.6677 H   0  0  0  0  0  0  0  0  0  0  0  0
  1  2  1  0
  2  3  1  0
  3  4  2  0
  3  5  1  0
  5  6  1  0
  6  7  1  0
  7  8  1  0
  8  9  2  0
  8  2  1  0
  1 10  1  0
  1 11  1  0
  1 12  1  0
  2 13  1  0
  6 14  1  0
  6 15  1  0
M  END
