
     RDKit          3D

 19 21  0  0  0  0  0  0  0  0999 V2000
    2.4391    0.0525    0.1949 C   0  0  0  0  0  0  0  0  0  0  0  0
    1.1183   -0.4269   -0.3766 C   0  0  0  0  0  0  0  0  0  0  0  0
   -0.0234   -0.2696    0.6543 C   0  0  0  0  0  0  0  0  0  0  0  0
   -1.1921   -1.1858    0.4738 C   0  0  0  0  0  0  0  0  0  0  0  0
   -1.9700   -0.5076   -0.6223 C   0  0  0  0  0  0  0  0  0  0  0  0
   -1.0150    0.0398   -1.4349 O   0  0  0  0  0  0  0  0  0  0  0  0
    0.0242    0.5059   -0.6790 C   0  0  0  0  0  0  0  0  0  0  0  0
   -0.2230    1.7318    0.1542 C   0  0  0  0  0  0  0  0  0  0  0  0
   -0.1328    0.9364    1.2857 O   0  0  0  0  0  0  0  0  0  0  0  0
    3.2934   -0.1570   -0.4599 H   0  0  0  0  0  0  0  0  0  0  0  0
    2.5897   -0.5516    1.1376 H   0  0  0  0  0  0  0  0  0  0  0  0
    2.3689    1.1104    0.5252 H   0  0  0  0  0  0  0  0  0  0  0  0
    1.1506   -1.3615   -0.9415 H   0  0  0  0  0  0  0  0  0  0  0  0
   -0.7904   -2.1509    0.0625 H   0  0  0  0  0  0  0  0  0  0  0  0
   -1.7592   -1.3965    1.3738 H   0  0  0  0  0  0  0  0  0  0  0  0
   -2.5529   -1.2676   -1.1854 H   0  0  0  0  0  0  0  0  0  0  0  0
   -2.6613    0.2297   -0.1736 H   0  0  0  0  0  0  0  0  0  0  0  0
    0.5539    2.4907    0.0183 H   0  0  0  0  0  0  0  0  0  0  0  0
   -1.2181    2.1777   -0.0071 H   0  0  0  0  0  0  0  0  0  0  0  0
  1  2  1  0
  2  3  1  0
  3  4  1  0
  4  5  1  0
  5  6  1  0
  6  7  1  0
  7  8  1  0
  8  9  1  0
  7  2  1  0
  7  3  1  0
  9  3  1  0
  1 10  1  0
  1 11  1  0
  1 12  1  0
  2 13  1  0
  4 14  1  0
  4 15  1  0
  5 16  1  0
  5 17  1  0
  8 18  1  0
  8 19  1  0
M  END
