
     RDKit          3D

 21 21  0  0  0  0  0  0  0  0999 V2000
   -2.0738    0.3033   -0.2131 C   0  0  0  0  0  0  0  0  0  0  0  0
   -0.7577   -0.2312    0.2950 C   0  0  0  0  0  0  0  0  0  0  0  0
   -0.1800   -1.0889   -0.8077 C   0  0  0  0  0  0  0  0  0  0  0  0
    1.0300   -1.7758   -0.1461 C   0  0  0  0  0  0  0  0  0  0  0  0
    1.9970   -0.6621    0.0149 C   0  0  0  0  0  0  0  0  0  0  0  0
    1.6181    0.5325    0.4179 C   0  0  0  0  0  0  0  0  0  0  0  0
    0.1957    0.8098    0.7291 C   0  0  0  0  0  0  0  0  0  0  0  0
   -0.1224    2.1665    0.2358 C   0  0  0  0  0  0  0  0  0  0  0  0
    0.3100    2.5727   -0.8161 O   0  0  0  0  0  0  0  0  0  0  0  0
   -2.7206    0.7100    0.5770 H   0  0  0  0  0  0  0  0  0  0  0  0
   -2.6159   -0.5687   -0.6576 H   0  0  0  0  0  0  0  0  0  0  0  0
   -1.8983    1.0065   -1.0537 H   0  0  0  0  0  0  0  0  0  0  0  0
   -1.0213   -0.9519    1.1173 H   0  0  0  0  0  0  0  0  0  0  0  0
   -0.9064   -1.8426   -1.1578 H   0  0  0  0  0  0  0  0  0  0  0  0
    0.2219   -0.4572   -1.6160 H   0  0  0  0  0  0  0  0  0  0  0  0
    1.4237   -2.5856   -0.7798 H   0  0  0  0  0  0  0  0  0  0  0  0
    0.6614   -2.1200    0.8423 H   0  0  0  0  0  0  0  0  0  0  0  0
    3.0677   -0.8032   -0.1995 H   0  0  0  0  0  0  0  0  0  0  0  0
    2.3672    1.3573    0.5305 H   0  0  0  0  0  0  0  0  0  0  0  0
    0.1542    0.8171    1.8687 H   0  0  0  0  0  0  0  0  0  0  0  0
   -0.7505    2.8113    0.8188 H   0  0  0  0  0  0  0  0  0  0  0  0
  1  2  1  0
  2  3  1  0
  3  4  1  0
  4  5  1  0
  5  6  2  0
  6  7  1  0
  7  8  1  0
  8  9  2  0
  7  2  1  0
  1 10  1  0
  1 11  1  0
  1 12  1  0
  2 13  1  0
  3 14  1  0
  3 15  1  0
  4 16  1  0
  4 17  1  0
  5 18  1  0
  6 19  1  0
  7 20  1  0
  8 21  1  0
M  END
