
     RDKit          3D

 20 22  0  0  0  0  0  0  0  0999 V2000
   -1.8667    0.6887    0.1209 C   0  0  0  0  0  0  0  0  0  0  0  0
   -0.9556   -0.3565   -0.4650 C   0  0  0  0  0  0  0  0  0  0  0  0
   -0.5304   -1.2815    0.6214 C   0  0  0  0  0  0  0  0  0  0  0  0
    0.9423   -1.0002    0.8267 C   0  0  0  0  0  0  0  0  0  0  0  0
    1.4941    0.3638    0.6345 C   0  0  0  0  0  0  0  0  0  0  0  0
    0.8079    1.3790   -0.2329 C   0  0  0  0  0  0  0  0  0  0  0  0
    0.2904    0.2129   -1.0780 C   0  0  0  0  0  0  0  0  0  0  0  0
    1.4048   -0.5993   -0.4842 C   0  0  0  0  0  0  0  0  0  0  0  0
   -2.0492    1.5052   -0.5955 H   0  0  0  0  0  0  0  0  0  0  0  0
   -1.5267    1.0604    1.1111 H   0  0  0  0  0  0  0  0  0  0  0  0
   -2.8493    0.1696    0.3160 H   0  0  0  0  0  0  0  0  0  0  0  0
   -1.5359   -0.8636   -1.2800 H   0  0  0  0  0  0  0  0  0  0  0  0
   -1.1200   -1.2562    1.5307 H   0  0  0  0  0  0  0  0  0  0  0  0
   -0.5808   -2.3283    0.2020 H   0  0  0  0  0  0  0  0  0  0  0  0
    1.5188   -1.6652    1.4691 H   0  0  0  0  0  0  0  0  0  0  0  0
    2.4201    0.6342    1.1356 H   0  0  0  0  0  0  0  0  0  0  0  0
    0.0466    2.0054    0.2214 H   0  0  0  0  0  0  0  0  0  0  0  0
    1.5598    1.9338   -0.8503 H   0  0  0  0  0  0  0  0  0  0  0  0
    0.2986    0.3742   -2.1538 H   0  0  0  0  0  0  0  0  0  0  0  0
    2.2313   -0.9763   -1.0496 H   0  0  0  0  0  0  0  0  0  0  0  0
  1  2  1  0
  2  3  1  0
  3  4  1  0
  4  5  1  0
  5  6  1  0
  6  7  1  0
  7  8  1  0
  7  2  1  0
  8  4  1  0
  8  5  1  0
  1  9  1  0
  1 10  1  0
  1 11  1  0
  2 12  1  0
  3 13  1  0
  3 14  1  0
  4 15  1  0
  5 16  1  0
  6 17  1  0
  6 18  1  0
  7 19  1  0
  8 20  1  0
M  END
