
     RDKit          3D

 21 21  0  0  0  0  0  0  0  0999 V2000
    2.1912   -0.3392   -0.1558 C   0  0  0  0  0  0  0  0  0  0  0  0
    0.9045    0.0201    0.6065 C   0  0  0  0  0  0  0  0  0  0  0  0
    0.4793    1.3625    0.1658 C   0  0  0  0  0  0  0  0  0  0  0  0
   -0.9964    1.5655    0.0385 C   0  0  0  0  0  0  0  0  0  0  0  0
   -1.4815    0.4830   -0.8445 C   0  0  0  0  0  0  0  0  0  0  0  0
   -2.1187    0.7711   -1.8264 O   0  0  0  0  0  0  0  0  0  0  0  0
   -1.1730   -0.8969   -0.4984 C   0  0  0  0  0  0  0  0  0  0  0  0
   -2.3627   -1.4582    0.0295 O   0  0  0  0  0  0  0  0  0  0  0  0
   -0.0615   -1.0840    0.4745 C   0  0  0  0  0  0  0  0  0  0  0  0
    1.9478   -0.2379   -1.2303 H   0  0  0  0  0  0  0  0  0  0  0  0
    2.3635   -1.4155    0.0525 H   0  0  0  0  0  0  0  0  0  0  0  0
    2.9873    0.3221    0.1912 H   0  0  0  0  0  0  0  0  0  0  0  0
    1.2434    0.1092    1.6775 H   0  0  0  0  0  0  0  0  0  0  0  0
    0.9257    1.6067   -0.8412 H   0  0  0  0  0  0  0  0  0  0  0  0
    0.8792    2.1771    0.8370 H   0  0  0  0  0  0  0  0  0  0  0  0
   -1.1484    2.5718   -0.4349 H   0  0  0  0  0  0  0  0  0  0  0  0
   -1.5286    1.5666    1.0082 H   0  0  0  0  0  0  0  0  0  0  0  0
   -0.9878   -1.4977   -1.4375 H   0  0  0  0  0  0  0  0  0  0  0  0
   -2.0474   -2.2978    0.4948 H   0  0  0  0  0  0  0  0  0  0  0  0
    0.4847   -2.0179    0.2016 H   0  0  0  0  0  0  0  0  0  0  0  0
   -0.5007   -1.3107    1.4916 H   0  0  0  0  0  0  0  0  0  0  0  0
  1  2  1  0
  2  3  1  0
  3  4  1  0
  4  5  1  0
  5  6  2  0
  5  7  1  0
  7  8  1  0
  7  9  1  0
  9  2  1  0
  1 10  1  0
  1 11  1  0
  1 12  1  0
  2 13  1  0
  3 14  1  0
  3 15  1  0
  4 16  1  0
  4 17  1  0
  7 18  1  0
  8 19  1  0
  9 20  1  0
  9 21  1  0
M  END
