
     RDKit          3D

 18 19  0  0  0  0  0  0  0  0999 V2000
    2.0736   -0.3368   -0.1966 C   0  0  0  0  0  0  0  0  0  0  0  0
    0.7750    0.1953    0.3013 C   0  0  0  0  0  0  0  0  0  0  0  0
   -0.0106    1.0635   -0.6282 C   0  0  0  0  0  0  0  0  0  0  0  0
   -1.2717    0.4837   -0.1045 C   0  0  0  0  0  0  0  0  0  0  0  0
   -2.0500    1.4154    0.3894 O   0  0  0  0  0  0  0  0  0  0  0  0
   -1.5181   -0.6959    0.7876 C   0  0  0  0  0  0  0  0  0  0  0  0
   -0.4417   -0.6601   -0.0356 C   0  0  0  0  0  0  0  0  0  0  0  0
   -0.2490   -1.3692   -1.2457 O   0  0  0  0  0  0  0  0  0  0  0  0
    2.2426   -0.1987   -1.2675 H   0  0  0  0  0  0  0  0  0  0  0  0
    2.8921    0.1825    0.3795 H   0  0  0  0  0  0  0  0  0  0  0  0
    2.1426   -1.4130    0.0946 H   0  0  0  0  0  0  0  0  0  0  0  0
    0.7739    0.5985    1.3347 H   0  0  0  0  0  0  0  0  0  0  0  0
    0.1478    0.7886   -1.7022 H   0  0  0  0  0  0  0  0  0  0  0  0
    0.2249    2.1060   -0.4841 H   0  0  0  0  0  0  0  0  0  0  0  0
   -1.6407    2.0450    1.0623 H   0  0  0  0  0  0  0  0  0  0  0  0
   -1.4052   -0.6196    1.8981 H   0  0  0  0  0  0  0  0  0  0  0  0
   -2.4660   -1.2566    0.5346 H   0  0  0  0  0  0  0  0  0  0  0  0
   -0.2195   -2.3286   -1.1175 H   0  0  0  0  0  0  0  0  0  0  0  0
  1  2  1  0
  2  3  1  0
  3  4  1  0
  4  5  1  0
  4  6  1  0
  6  7  1  0
  7  8  1  0
  7  2  1  0
  7  4  1  0
  1  9  1  0
  1 10  1  0
  1 11  1  0
  2 12  1  0
  3 13  1  0
  3 14  1  0
  5 15  1  0
  6 16  1  0
  6 17  1  0
  8 18  1  0
M  END
