
     RDKit          3D

 21 22  0  0  0  0  0  0  0  0999 V2000
   -2.2080   -0.6926   -0.6059 C   0  0  0  0  0  0  0  0  0  0  0  0
   -0.9903   -0.4451    0.2234 C   0  0  0  0  0  0  0  0  0  0  0  0
   -0.9174    0.9216    0.8212 C   0  0  0  0  0  0  0  0  0  0  0  0
    0.4045    1.5224    0.4390 C   0  0  0  0  0  0  0  0  0  0  0  0
    1.1950    0.4780   -0.2814 C   0  0  0  0  0  0  0  0  0  0  0  0
    2.0074    0.9443   -1.3301 O   0  0  0  0  0  0  0  0  0  0  0  0
    1.5112   -0.7920    0.3775 C   0  0  0  0  0  0  0  0  0  0  0  0
    2.4644   -1.6446   -0.1354 O   0  0  0  0  0  0  0  0  0  0  0  0
    0.2884   -0.6469   -0.5354 C   0  0  0  0  0  0  0  0  0  0  0  0
   -2.6945    0.2417   -0.9664 H   0  0  0  0  0  0  0  0  0  0  0  0
   -1.8901   -1.3186   -1.4814 H   0  0  0  0  0  0  0  0  0  0  0  0
   -2.9329   -1.3424   -0.0467 H   0  0  0  0  0  0  0  0  0  0  0  0
   -0.9809   -1.1848    1.0701 H   0  0  0  0  0  0  0  0  0  0  0  0
   -0.9673    0.8932    1.9472 H   0  0  0  0  0  0  0  0  0  0  0  0
   -1.7578    1.5901    0.5198 H   0  0  0  0  0  0  0  0  0  0  0  0
    0.2210    2.3959   -0.2149 H   0  0  0  0  0  0  0  0  0  0  0  0
    0.9698    1.8681    1.3217 H   0  0  0  0  0  0  0  0  0  0  0  0
    2.4872    1.7648   -1.0891 H   0  0  0  0  0  0  0  0  0  0  0  0
    1.3589   -0.8722    1.4593 H   0  0  0  0  0  0  0  0  0  0  0  0
    2.1259   -2.5808    0.0340 H   0  0  0  0  0  0  0  0  0  0  0  0
    0.3053   -1.1002   -1.5263 H   0  0  0  0  0  0  0  0  0  0  0  0
  1  2  1  0
  2  3  1  0
  3  4  1  0
  4  5  1  0
  5  6  1  0
  5  7  1  0
  7  8  1  0
  7  9  1  0
  9  2  1  0
  9  5  1  0
  1 10  1  0
  1 11  1  0
  1 12  1  0
  2 13  1  0
  3 14  1  0
  3 15  1  0
  4 16  1  0
  4 17  1  0
  6 18  1  0
  7 19  1  0
  8 20  1  0
  9 21  1  0
M  END
