
     RDKit          3D

 20 21  0  0  0  0  0  0  0  0999 V2000
    0.2907    1.9555    0.0782 C   0  0  0  0  0  0  0  0  0  0  0  0
    0.4073    0.6982   -0.7017 C   0  0  0  0  0  0  0  0  0  0  0  0
    1.5569   -0.2288   -0.2804 C   0  0  0  0  0  0  0  0  0  0  0  0
    1.7617   -0.0851    1.0822 O   0  0  0  0  0  0  0  0  0  0  0  0
    0.5894   -1.3899   -0.5620 C   0  0  0  0  0  0  0  0  0  0  0  0
   -0.5136   -0.4127   -0.4196 C   0  0  0  0  0  0  0  0  0  0  0  0
   -1.8763   -0.5581   -0.8264 C   0  0  0  0  0  0  0  0  0  0  0  0
   -1.4670   -0.5032    0.6608 C   0  0  0  0  0  0  0  0  0  0  0  0
   -0.0083    2.8150   -0.5838 H   0  0  0  0  0  0  0  0  0  0  0  0
    1.2899    2.2254    0.4709 H   0  0  0  0  0  0  0  0  0  0  0  0
   -0.4190    1.9180    0.9213 H   0  0  0  0  0  0  0  0  0  0  0  0
    0.5701    0.9351   -1.7903 H   0  0  0  0  0  0  0  0  0  0  0  0
    2.4342   -0.1965   -0.9241 H   0  0  0  0  0  0  0  0  0  0  0  0
    2.0913   -0.9236    1.4675 H   0  0  0  0  0  0  0  0  0  0  0  0
    0.6278   -2.1224    0.2788 H   0  0  0  0  0  0  0  0  0  0  0  0
    0.7400   -1.8768   -1.5338 H   0  0  0  0  0  0  0  0  0  0  0  0
   -2.2844   -1.5326   -1.1960 H   0  0  0  0  0  0  0  0  0  0  0  0
   -2.4310    0.3695   -1.1517 H   0  0  0  0  0  0  0  0  0  0  0  0
   -1.7370    0.3912    1.2365 H   0  0  0  0  0  0  0  0  0  0  0  0
   -1.6227   -1.4782    1.2010 H   0  0  0  0  0  0  0  0  0  0  0  0
  1  2  1  0
  2  3  1  0
  3  4  1  0
  3  5  1  0
  5  6  1  0
  6  7  1  0
  7  8  1  0
  6  2  1  0
  8  6  1  0
  1  9  1  0
  1 10  1  0
  1 11  1  0
  2 12  1  0
  3 13  1  0
  4 14  1  0
  5 15  1  0
  5 16  1  0
  7 17  1  0
  7 18  1  0
  8 19  1  0
  8 20  1  0
M  END
