
     RDKit          3D

 21 22  0  0  0  0  0  0  0  0999 V2000
   -0.6417    2.2553   -0.1813 C   0  0  0  0  0  0  0  0  0  0  0  0
   -0.0980    0.8972   -0.4511 C   0  0  0  0  0  0  0  0  0  0  0  0
    1.1136    0.5700    0.4326 C   0  0  0  0  0  0  0  0  0  0  0  0
    1.2942   -0.9009    0.0270 C   0  0  0  0  0  0  0  0  0  0  0  0
    2.2560   -1.5285    0.7844 O   0  0  0  0  0  0  0  0  0  0  0  0
   -0.0938   -1.4310    0.2325 C   0  0  0  0  0  0  0  0  0  0  0  0
   -1.1008   -1.4651   -0.8375 C   0  0  0  0  0  0  0  0  0  0  0  0
   -1.0329   -0.2237   -0.0535 C   0  0  0  0  0  0  0  0  0  0  0  0
   -1.9123    0.0645    0.9752 O   0  0  0  0  0  0  0  0  0  0  0  0
    0.1603    2.9853    0.1103 H   0  0  0  0  0  0  0  0  0  0  0  0
   -1.0625    2.6707   -1.1330 H   0  0  0  0  0  0  0  0  0  0  0  0
   -1.4802    2.2479    0.5433 H   0  0  0  0  0  0  0  0  0  0  0  0
    0.2272    0.7295   -1.4987 H   0  0  0  0  0  0  0  0  0  0  0  0
    0.8312    0.5678    1.4941 H   0  0  0  0  0  0  0  0  0  0  0  0
    1.9829    1.1772    0.1906 H   0  0  0  0  0  0  0  0  0  0  0  0
    1.5694   -0.8528   -1.0626 H   0  0  0  0  0  0  0  0  0  0  0  0
    3.1100   -1.4836    0.2571 H   0  0  0  0  0  0  0  0  0  0  0  0
   -0.2999   -1.9963    1.1700 H   0  0  0  0  0  0  0  0  0  0  0  0
   -0.7581   -1.4400   -1.8920 H   0  0  0  0  0  0  0  0  0  0  0  0
   -1.9803   -2.1113   -0.6590 H   0  0  0  0  0  0  0  0  0  0  0  0
   -2.0844   -0.7320    1.5514 H   0  0  0  0  0  0  0  0  0  0  0  0
  1  2  1  0
  2  3  1  0
  3  4  1  0
  4  5  1  0
  4  6  1  0
  6  7  1  0
  7  8  1  0
  8  9  1  0
  8  2  1  0
  8  6  1  0
  1 10  1  0
  1 11  1  0
  1 12  1  0
  2 13  1  0
  3 14  1  0
  3 15  1  0
  4 16  1  0
  5 17  1  0
  6 18  1  0
  7 19  1  0
  7 20  1  0
  9 21  1  0
M  END
