
     RDKit          3D

 23 24  0  0  0  0  0  0  0  0999 V2000
    2.2644   -0.7583    0.7465 C   0  0  0  0  0  0  0  0  0  0  0  0
    1.3774   -0.3451   -0.3952 C   0  0  0  0  0  0  0  0  0  0  0  0
    1.0867    1.1140   -0.4445 C   0  0  0  0  0  0  0  0  0  0  0  0
   -0.4179    1.2791   -0.4960 C   0  0  0  0  0  0  0  0  0  0  0  0
   -0.9840    1.8675    0.6279 O   0  0  0  0  0  0  0  0  0  0  0  0
   -1.0194    0.6042    1.2395 C   0  0  0  0  0  0  0  0  0  0  0  0
   -1.0112   -0.0396   -0.1145 C   0  0  0  0  0  0  0  0  0  0  0  0
   -2.3856   -0.3377   -0.6204 C   0  0  0  0  0  0  0  0  0  0  0  0
    0.0412   -1.0729   -0.3612 C   0  0  0  0  0  0  0  0  0  0  0  0
    3.3441   -0.7708    0.4507 H   0  0  0  0  0  0  0  0  0  0  0  0
    2.0279   -1.8148    1.0363 H   0  0  0  0  0  0  0  0  0  0  0  0
    2.1826   -0.1117    1.6297 H   0  0  0  0  0  0  0  0  0  0  0  0
    1.8953   -0.6806   -1.3373 H   0  0  0  0  0  0  0  0  0  0  0  0
    1.5468    1.7078    0.3574 H   0  0  0  0  0  0  0  0  0  0  0  0
    1.4713    1.5329   -1.4130 H   0  0  0  0  0  0  0  0  0  0  0  0
   -0.8281    1.6231   -1.4595 H   0  0  0  0  0  0  0  0  0  0  0  0
   -0.1426    0.4336    1.8787 H   0  0  0  0  0  0  0  0  0  0  0  0
   -1.9832    0.4623    1.7676 H   0  0  0  0  0  0  0  0  0  0  0  0
   -2.7708    0.4099   -1.3469 H   0  0  0  0  0  0  0  0  0  0  0  0
   -2.4339   -1.3674   -1.0295 H   0  0  0  0  0  0  0  0  0  0  0  0
   -3.1098   -0.3073    0.2401 H   0  0  0  0  0  0  0  0  0  0  0  0
    0.0351   -1.8783    0.3892 H   0  0  0  0  0  0  0  0  0  0  0  0
   -0.1863   -1.5499   -1.3456 H   0  0  0  0  0  0  0  0  0  0  0  0
  1  2  1  0
  2  3  1  0
  3  4  1  0
  4  5  1  0
  5  6  1  0
  6  7  1  0
  7  8  1  0
  7  9  1  0
  9  2  1  0
  7  4  1  0
  1 10  1  0
  1 11  1  0
  1 12  1  0
  2 13  1  0
  3 14  1  0
  3 15  1  0
  4 16  1  0
  6 17  1  0
  6 18  1  0
  8 19  1  0
  8 20  1  0
  8 21  1  0
  9 22  1  0
  9 23  1  0
M  END
