
     RDKit          3D

 15 15  0  0  0  0  0  0  0  0999 V2000
    1.5958    0.2315    0.5099 C   0  0  0  0  0  0  0  0  0  0  0  0
    0.7505   -0.3374   -0.6120 C   0  0  0  0  0  0  0  0  0  0  0  0
   -0.2843   -1.3207   -0.2324 C   0  0  0  0  0  0  0  0  0  0  0  0
   -0.6554    0.0701   -0.7352 C   0  0  0  0  0  0  0  0  0  0  0  0
   -1.3553    0.9097    0.2853 C   0  0  0  0  0  0  0  0  0  0  0  0
    1.9793    1.2512    0.2733 H   0  0  0  0  0  0  0  0  0  0  0  0
    2.4526   -0.4496    0.7432 H   0  0  0  0  0  0  0  0  0  0  0  0
    1.0007    0.2756    1.4624 H   0  0  0  0  0  0  0  0  0  0  0  0
    1.3380   -0.5048   -1.5445 H   0  0  0  0  0  0  0  0  0  0  0  0
   -0.6131   -2.1344   -0.9091 H   0  0  0  0  0  0  0  0  0  0  0  0
   -0.4129   -1.5458    0.8433 H   0  0  0  0  0  0  0  0  0  0  0  0
   -1.0720    0.1540   -1.7676 H   0  0  0  0  0  0  0  0  0  0  0  0
   -1.3802    0.4510    1.2988 H   0  0  0  0  0  0  0  0  0  0  0  0
   -0.9201    1.9240    0.4077 H   0  0  0  0  0  0  0  0  0  0  0  0
   -2.4235    1.0256   -0.0231 H   0  0  0  0  0  0  0  0  0  0  0  0
  1  2  1  0
  2  3  1  0
  3  4  1  0
  4  5  1  0
  4  2  1  0
  1  6  1  0
  1  7  1  0
  1  8  1  0
  2  9  1  0
  3 10  1  0
  3 11  1  0
  4 12  1  0
  5 13  1  0
  5 14  1  0
  5 15  1  0
M  END
