
     RDKit          3D

 21 23  0  0  0  0  0  0  0  0999 V2000
    2.0814   -0.4225    0.5488 C   0  0  0  0  0  0  0  0  0  0  0  0
    1.1495   -0.2584   -0.6010 C   0  0  0  0  0  0  0  0  0  0  0  0
   -0.0364   -1.1885   -0.3958 C   0  0  0  0  0  0  0  0  0  0  0  0
   -0.8919   -0.6727    0.7141 C   0  0  0  0  0  0  0  0  0  0  0  0
   -2.2743   -0.2322    0.3021 C   0  0  0  0  0  0  0  0  0  0  0  0
   -1.2213    0.7443    0.6787 C   0  0  0  0  0  0  0  0  0  0  0  0
   -0.5426    1.5723   -0.3605 C   0  0  0  0  0  0  0  0  0  0  0  0
   -0.5173    1.1259   -1.6760 O   0  0  0  0  0  0  0  0  0  0  0  0
    0.7261    1.1423   -0.8595 C   0  0  0  0  0  0  0  0  0  0  0  0
    2.2684   -1.5180    0.6787 H   0  0  0  0  0  0  0  0  0  0  0  0
    1.6863   -0.0608    1.5022 H   0  0  0  0  0  0  0  0  0  0  0  0
    3.0976    0.0077    0.3261 H   0  0  0  0  0  0  0  0  0  0  0  0
    1.6720   -0.6341   -1.5190 H   0  0  0  0  0  0  0  0  0  0  0  0
   -0.5681   -1.2447   -1.3643 H   0  0  0  0  0  0  0  0  0  0  0  0
    0.4038   -2.1730   -0.1009 H   0  0  0  0  0  0  0  0  0  0  0  0
   -0.7610   -1.1620    1.7013 H   0  0  0  0  0  0  0  0  0  0  0  0
   -2.5704   -0.3265   -0.7648 H   0  0  0  0  0  0  0  0  0  0  0  0
   -3.0765   -0.4508    1.0357 H   0  0  0  0  0  0  0  0  0  0  0  0
   -1.3719    1.2481    1.6615 H   0  0  0  0  0  0  0  0  0  0  0  0
   -0.7282    2.6632   -0.2789 H   0  0  0  0  0  0  0  0  0  0  0  0
    1.4747    1.8405   -1.2283 H   0  0  0  0  0  0  0  0  0  0  0  0
  1  2  1  0
  2  3  1  0
  3  4  1  0
  4  5  1  0
  5  6  1  0
  6  7  1  0
  7  8  1  0
  8  9  1  0
  9  2  1  0
  6  4  1  0
  9  7  1  0
  1 10  1  0
  1 11  1  0
  1 12  1  0
  2 13  1  0
  3 14  1  0
  3 15  1  0
  4 16  1  0
  5 17  1  0
  5 18  1  0
  6 19  1  0
  7 20  1  0
  9 21  1  0
M  END
