
     RDKit          3D

 21 21  0  0  0  0  0  0  0  0999 V2000
   -1.9829    0.2846   -1.2987 C   0  0  0  0  0  0  0  0  0  0  0  0
   -2.4463   -0.5205   -0.1198 C   0  0  0  0  0  0  0  0  0  0  0  0
   -2.4869    0.2256    1.1854 C   0  0  0  0  0  0  0  0  0  0  0  0
   -1.5884   -0.9646    0.9545 C   0  0  0  0  0  0  0  0  0  0  0  0
   -0.1477   -0.6995    0.8399 C   0  0  0  0  0  0  0  0  0  0  0  0
    1.0325   -0.4726    0.7384 C   0  0  0  0  0  0  0  0  0  0  0  0
    2.4876   -0.1993    0.6326 C   0  0  0  0  0  0  0  0  0  0  0  0
    2.6879    0.3949   -0.7533 C   0  0  0  0  0  0  0  0  0  0  0  0
    4.0437    0.6637   -0.8877 O   0  0  0  0  0  0  0  0  0  0  0  0
   -2.0737   -0.3637   -2.2158 H   0  0  0  0  0  0  0  0  0  0  0  0
   -0.9658    0.6745   -1.2084 H   0  0  0  0  0  0  0  0  0  0  0  0
   -2.7413    1.0961   -1.4518 H   0  0  0  0  0  0  0  0  0  0  0  0
   -3.3836   -1.1068   -0.3348 H   0  0  0  0  0  0  0  0  0  0  0  0
   -2.0580    1.2451    1.2144 H   0  0  0  0  0  0  0  0  0  0  0  0
   -3.3727    0.1122    1.8536 H   0  0  0  0  0  0  0  0  0  0  0  0
   -1.9093   -1.8806    1.5172 H   0  0  0  0  0  0  0  0  0  0  0  0
    3.0879   -1.1026    0.8013 H   0  0  0  0  0  0  0  0  0  0  0  0
    2.7501    0.5366    1.4199 H   0  0  0  0  0  0  0  0  0  0  0  0
    2.1830    1.4047   -0.7118 H   0  0  0  0  0  0  0  0  0  0  0  0
    2.2646   -0.2263   -1.5398 H   0  0  0  0  0  0  0  0  0  0  0  0
    4.6191   -0.0864   -0.6355 H   0  0  0  0  0  0  0  0  0  0  0  0
  1  2  1  0
  2  3  1  0
  3  4  1  0
  4  5  1  0
  5  6  3  0
  6  7  1  0
  7  8  1  0
  8  9  1  0
  4  2  1  0
  1 10  1  0
  1 11  1  0
  1 12  1  0
  2 13  1  0
  3 14  1  0
  3 15  1  0
  4 16  1  0
  7 17  1  0
  7 18  1  0
  8 19  1  0
  8 20  1  0
  9 21  1  0
M  END
