
     RDKit          3D

 19 20  0  0  0  0  0  0  0  0999 V2000
   -1.7257   -0.7567    0.0314 C   0  0  0  0  0  0  0  0  0  0  0  0
   -0.6574    0.0596   -0.5690 C   0  0  0  0  0  0  0  0  0  0  0  0
   -0.3912    1.3834    0.1672 C   0  0  0  0  0  0  0  0  0  0  0  0
    0.4511    0.5578    1.1066 C   0  0  0  0  0  0  0  0  0  0  0  0
    0.7616   -0.2145   -0.1827 C   0  0  0  0  0  0  0  0  0  0  0  0
    1.2905   -1.5398   -0.1023 C   0  0  0  0  0  0  0  0  0  0  0  0
    1.4709    0.8038   -0.9084 O   0  0  0  0  0  0  0  0  0  0  0  0
    0.6531    1.9182   -0.7256 C   0  0  0  0  0  0  0  0  0  0  0  0
    0.7176    3.0848   -1.1626 O   0  0  0  0  0  0  0  0  0  0  0  0
   -1.7921   -1.7235   -0.5090 H   0  0  0  0  0  0  0  0  0  0  0  0
   -1.6993   -0.9079    1.1057 H   0  0  0  0  0  0  0  0  0  0  0  0
   -2.7094   -0.2434   -0.1867 H   0  0  0  0  0  0  0  0  0  0  0  0
   -0.8319    0.2829   -1.6216 H   0  0  0  0  0  0  0  0  0  0  0  0
   -1.1964    1.9522    0.5011 H   0  0  0  0  0  0  0  0  0  0  0  0
   -0.0504   -0.0008    1.8836 H   0  0  0  0  0  0  0  0  0  0  0  0
    1.3318    1.1505    1.4258 H   0  0  0  0  0  0  0  0  0  0  0  0
    0.8894   -2.2481   -0.8776 H   0  0  0  0  0  0  0  0  0  0  0  0
    1.0896   -2.0084    0.8888 H   0  0  0  0  0  0  0  0  0  0  0  0
    2.3981   -1.5502   -0.2647 H   0  0  0  0  0  0  0  0  0  0  0  0
  1  2  1  0
  2  3  1  0
  3  4  1  0
  4  5  1  0
  5  6  1  0
  5  7  1  0
  7  8  1  0
  8  9  2  0
  5  2  1  0
  8  3  1  0
  1 10  1  0
  1 11  1  0
  1 12  1  0
  2 13  1  0
  3 14  1  0
  4 15  1  0
  4 16  1  0
  6 17  1  0
  6 18  1  0
  6 19  1  0
M  END
