
     RDKit          3D

 19 20  0  0  0  0  0  0  0  0999 V2000
    2.5929    0.7019    0.0134 C   0  0  0  0  0  0  0  0  0  0  0  0
    1.2720    0.0151    0.1387 C   0  0  0  0  0  0  0  0  0  0  0  0
    0.1776    0.9900    0.4011 C   0  0  0  0  0  0  0  0  0  0  0  0
   -1.0582    0.5003    0.3828 C   0  0  0  0  0  0  0  0  0  0  0  0
   -2.5322    0.5095    0.4782 C   0  0  0  0  0  0  0  0  0  0  0  0
   -2.5107   -0.7287   -0.1807 O   0  0  0  0  0  0  0  0  0  0  0  0
   -1.1616   -0.9800    0.0983 C   0  0  0  0  0  0  0  0  0  0  0  0
   -0.2767   -1.2262   -1.0846 C   0  0  0  0  0  0  0  0  0  0  0  0
    0.9772   -0.6979   -0.9967 O   0  0  0  0  0  0  0  0  0  0  0  0
    2.6219    1.4104   -0.8221 H   0  0  0  0  0  0  0  0  0  0  0  0
    2.7866    1.2257    0.9863 H   0  0  0  0  0  0  0  0  0  0  0  0
    3.3624   -0.0946   -0.1658 H   0  0  0  0  0  0  0  0  0  0  0  0
    1.3122   -0.6749    1.0183 H   0  0  0  0  0  0  0  0  0  0  0  0
    0.3435    2.0569    0.6016 H   0  0  0  0  0  0  0  0  0  0  0  0
   -2.8670    0.4168    1.5279 H   0  0  0  0  0  0  0  0  0  0  0  0
   -3.0361    1.3215   -0.0782 H   0  0  0  0  0  0  0  0  0  0  0  0
   -0.9861   -1.6123    0.9841 H   0  0  0  0  0  0  0  0  0  0  0  0
   -0.1972   -2.3278   -1.3208 H   0  0  0  0  0  0  0  0  0  0  0  0
   -0.8205   -0.8057   -1.9818 H   0  0  0  0  0  0  0  0  0  0  0  0
  1  2  1  0
  2  3  1  0
  3  4  2  0
  4  5  1  0
  5  6  1  0
  6  7  1  0
  7  8  1  0
  8  9  1  0
  9  2  1  0
  7  4  1  0
  1 10  1  0
  1 11  1  0
  1 12  1  0
  2 13  1  0
  3 14  1  0
  5 15  1  0
  5 16  1  0
  7 17  1  0
  8 18  1  0
  8 19  1  0
M  END
