
     RDKit          3D

 21 23  0  0  0  0  0  0  0  0999 V2000
    2.1600    0.8312   -0.4255 C   0  0  0  0  0  0  0  0  0  0  0  0
    1.2879   -0.3596   -0.1935 C   0  0  0  0  0  0  0  0  0  0  0  0
    0.6857   -0.3573    1.2265 C   0  0  0  0  0  0  0  0  0  0  0  0
   -0.7637   -0.3385    0.8753 C   0  0  0  0  0  0  0  0  0  0  0  0
   -0.8652    0.7062   -0.2439 C   0  0  0  0  0  0  0  0  0  0  0  0
   -2.2338    0.4080   -0.7520 C   0  0  0  0  0  0  0  0  0  0  0  0
   -2.1447   -1.0033   -0.8751 O   0  0  0  0  0  0  0  0  0  0  0  0
   -0.9360   -1.2857   -0.3118 C   0  0  0  0  0  0  0  0  0  0  0  0
    0.0044   -0.2757   -0.9846 C   0  0  0  0  0  0  0  0  0  0  0  0
    1.6041    1.6152   -0.9795 H   0  0  0  0  0  0  0  0  0  0  0  0
    3.0592    0.6024   -1.0255 H   0  0  0  0  0  0  0  0  0  0  0  0
    2.5056    1.2029    0.5694 H   0  0  0  0  0  0  0  0  0  0  0  0
    1.7927   -1.3292   -0.3132 H   0  0  0  0  0  0  0  0  0  0  0  0
    0.9684   -1.2519    1.7865 H   0  0  0  0  0  0  0  0  0  0  0  0
    0.9609    0.5807    1.7556 H   0  0  0  0  0  0  0  0  0  0  0  0
   -1.5154   -0.3321    1.6235 H   0  0  0  0  0  0  0  0  0  0  0  0
   -0.5334    1.6830   -0.0492 H   0  0  0  0  0  0  0  0  0  0  0  0
   -2.9893    0.5610    0.0636 H   0  0  0  0  0  0  0  0  0  0  0  0
   -2.5017    0.8881   -1.6913 H   0  0  0  0  0  0  0  0  0  0  0  0
   -0.5815   -2.2817   -0.2056 H   0  0  0  0  0  0  0  0  0  0  0  0
    0.0356   -0.2638   -2.0439 H   0  0  0  0  0  0  0  0  0  0  0  0
  1  2  1  0
  2  3  1  0
  3  4  1  0
  4  5  1  0
  5  6  1  0
  6  7  1  0
  7  8  1  0
  8  9  1  0
  9  2  1  0
  8  4  1  0
  9  5  1  0
  1 10  1  0
  1 11  1  0
  1 12  1  0
  2 13  1  0
  3 14  1  0
  3 15  1  0
  4 16  1  0
  5 17  1  0
  6 18  1  0
  6 19  1  0
  8 20  1  0
  9 21  1  0
M  END
