
     RDKit          3D

 21 22  0  0  0  0  0  0  0  0999 V2000
   -1.4496    1.3640   -0.4182 C   0  0  0  0  0  0  0  0  0  0  0  0
   -0.1444    0.6525   -0.5167 C   0  0  0  0  0  0  0  0  0  0  0  0
    0.8364    1.3597    0.3516 C   0  0  0  0  0  0  0  0  0  0  0  0
    2.0186    0.7662    0.4758 C   0  0  0  0  0  0  0  0  0  0  0  0
    2.1455   -0.5166   -0.2889 C   0  0  0  0  0  0  0  0  0  0  0  0
    1.0684   -1.3407   -0.2043 O   0  0  0  0  0  0  0  0  0  0  0  0
   -0.1694   -0.7716   -0.0884 C   0  0  0  0  0  0  0  0  0  0  0  0
   -1.3321   -1.6564   -0.3038 C   0  0  0  0  0  0  0  0  0  0  0  0
   -1.0363   -1.1534    1.0705 C   0  0  0  0  0  0  0  0  0  0  0  0
   -1.4262    2.2184   -1.1454 H   0  0  0  0  0  0  0  0  0  0  0  0
   -2.3303    0.7359   -0.6240 H   0  0  0  0  0  0  0  0  0  0  0  0
   -1.6191    1.8371    0.5798 H   0  0  0  0  0  0  0  0  0  0  0  0
    0.2641    0.7000   -1.5649 H   0  0  0  0  0  0  0  0  0  0  0  0
    0.6692    2.2848    0.8707 H   0  0  0  0  0  0  0  0  0  0  0  0
    2.8320    1.1341    1.0565 H   0  0  0  0  0  0  0  0  0  0  0  0
    3.0437   -1.0625    0.1006 H   0  0  0  0  0  0  0  0  0  0  0  0
    2.3136   -0.2540   -1.3674 H   0  0  0  0  0  0  0  0  0  0  0  0
   -1.1343   -2.7494   -0.4368 H   0  0  0  0  0  0  0  0  0  0  0  0
   -2.2442   -1.3319   -0.8332 H   0  0  0  0  0  0  0  0  0  0  0  0
   -0.5490   -1.8191    1.8140 H   0  0  0  0  0  0  0  0  0  0  0  0
   -1.7566   -0.3971    1.4724 H   0  0  0  0  0  0  0  0  0  0  0  0
  1  2  1  0
  2  3  1  0
  3  4  2  0
  4  5  1  0
  5  6  1  0
  6  7  1  0
  7  8  1  0
  8  9  1  0
  7  2  1  0
  9  7  1  0
  1 10  1  0
  1 11  1  0
  1 12  1  0
  2 13  1  0
  3 14  1  0
  4 15  1  0
  5 16  1  0
  5 17  1  0
  8 18  1  0
  8 19  1  0
  9 20  1  0
  9 21  1  0
M  END
