
     RDKit          3D

 15 16  0  0  0  0  0  0  0  0999 V2000
    1.7069   -0.2932   -0.4977 C   0  0  0  0  0  0  0  0  0  0  0  0
    0.4408   -0.4586    0.2576 C   0  0  0  0  0  0  0  0  0  0  0  0
   -0.1222    0.8111    0.8887 C   0  0  0  0  0  0  0  0  0  0  0  0
   -1.2850    0.3065    1.5191 O   0  0  0  0  0  0  0  0  0  0  0  0
   -1.8252   -0.5301    0.5430 C   0  0  0  0  0  0  0  0  0  0  0  0
   -2.8318   -1.2582    0.5080 O   0  0  0  0  0  0  0  0  0  0  0  0
   -0.8427   -0.3467   -0.5549 C   0  0  0  0  0  0  0  0  0  0  0  0
   -0.6170    1.1058   -0.4676 C   0  0  0  0  0  0  0  0  0  0  0  0
   -0.7528    2.0703   -1.1355 O   0  0  0  0  0  0  0  0  0  0  0  0
    1.6842   -0.7501   -1.5225 H   0  0  0  0  0  0  0  0  0  0  0  0
    1.9672    0.7888   -0.5359 H   0  0  0  0  0  0  0  0  0  0  0  0
    2.5299   -0.7758    0.0973 H   0  0  0  0  0  0  0  0  0  0  0  0
    0.3562   -1.2851    0.9684 H   0  0  0  0  0  0  0  0  0  0  0  0
    0.5277    1.4658    1.3961 H   0  0  0  0  0  0  0  0  0  0  0  0
   -0.9363   -0.8504   -1.4641 H   0  0  0  0  0  0  0  0  0  0  0  0
  1  2  1  0
  2  3  1  0
  3  4  1  0
  4  5  1  0
  5  6  2  0
  5  7  1  0
  7  8  1  0
  8  9  2  0
  7  2  1  0
  8  3  1  0
  1 10  1  0
  1 11  1  0
  1 12  1  0
  2 13  1  0
  3 14  1  0
  7 15  1  0
M  END
