
     RDKit          3D

 21 23  0  0  0  0  0  0  0  0999 V2000
   -2.2658    0.6712   -0.4798 C   0  0  0  0  0  0  0  0  0  0  0  0
   -0.8542    0.1544   -0.4609 C   0  0  0  0  0  0  0  0  0  0  0  0
   -0.6910   -1.0523    0.4272 C   0  0  0  0  0  0  0  0  0  0  0  0
    0.6583   -1.6633    0.1116 C   0  0  0  0  0  0  0  0  0  0  0  0
    1.7309   -0.6100    0.3236 C   0  0  0  0  0  0  0  0  0  0  0  0
    1.4806    0.0361    1.5468 O   0  0  0  0  0  0  0  0  0  0  0  0
    1.1557    1.1810    0.8589 C   0  0  0  0  0  0  0  0  0  0  0  0
    0.1682    1.2216   -0.2098 C   0  0  0  0  0  0  0  0  0  0  0  0
    1.5052    0.6342   -0.4530 C   0  0  0  0  0  0  0  0  0  0  0  0
   -2.7130    0.6797   -1.5025 H   0  0  0  0  0  0  0  0  0  0  0  0
   -2.3450    1.7213   -0.1129 H   0  0  0  0  0  0  0  0  0  0  0  0
   -2.9238    0.0165    0.1464 H   0  0  0  0  0  0  0  0  0  0  0  0
   -0.6382   -0.2072   -1.5108 H   0  0  0  0  0  0  0  0  0  0  0  0
   -1.4521   -1.7975    0.0905 H   0  0  0  0  0  0  0  0  0  0  0  0
   -0.8029   -0.8335    1.4957 H   0  0  0  0  0  0  0  0  0  0  0  0
    0.6530   -2.0739   -0.9026 H   0  0  0  0  0  0  0  0  0  0  0  0
    0.8525   -2.4483    0.8983 H   0  0  0  0  0  0  0  0  0  0  0  0
    2.7467   -1.0203    0.3251 H   0  0  0  0  0  0  0  0  0  0  0  0
    1.5470    2.1551    1.2290 H   0  0  0  0  0  0  0  0  0  0  0  0
   -0.0446    2.1821   -0.6808 H   0  0  0  0  0  0  0  0  0  0  0  0
    2.2327    1.0530   -1.1401 H   0  0  0  0  0  0  0  0  0  0  0  0
  1  2  1  0
  2  3  1  0
  3  4  1  0
  4  5  1  0
  5  6  1  0
  6  7  1  0
  7  8  1  0
  8  9  1  0
  8  2  1  0
  9  5  1  0
  9  7  1  0
  1 10  1  0
  1 11  1  0
  1 12  1  0
  2 13  1  0
  3 14  1  0
  3 15  1  0
  4 16  1  0
  4 17  1  0
  5 18  1  0
  7 19  1  0
  8 20  1  0
  9 21  1  0
M  END
