
     RDKit          3D

 15 15  0  0  0  0  0  0  0  0999 V2000
    2.0736   -0.5984    0.2408 C   0  0  0  0  0  0  0  0  0  0  0  0
    0.6938   -0.0577    0.0642 C   0  0  0  0  0  0  0  0  0  0  0  0
   -0.3886   -0.8452   -0.2661 C   0  0  0  0  0  0  0  0  0  0  0  0
   -1.6360   -0.3320   -0.4219 C   0  0  0  0  0  0  0  0  0  0  0  0
   -2.7492   -1.1271   -0.7593 O   0  0  0  0  0  0  0  0  0  0  0  0
   -1.8226    0.9519   -0.2541 O   0  0  0  0  0  0  0  0  0  0  0  0
   -0.8279    1.7242    0.0572 C   0  0  0  0  0  0  0  0  0  0  0  0
   -1.0589    2.9610    0.2091 O   0  0  0  0  0  0  0  0  0  0  0  0
    0.4706    1.2922    0.2355 C   0  0  0  0  0  0  0  0  0  0  0  0
    2.0973   -1.6976    0.0873 H   0  0  0  0  0  0  0  0  0  0  0  0
    2.7745   -0.1762   -0.5180 H   0  0  0  0  0  0  0  0  0  0  0  0
    2.4318   -0.4265    1.2758 H   0  0  0  0  0  0  0  0  0  0  0  0
   -0.2316   -1.9070   -0.4044 H   0  0  0  0  0  0  0  0  0  0  0  0
   -3.0767   -1.7606   -0.0417 H   0  0  0  0  0  0  0  0  0  0  0  0
    1.2500    1.9990    0.4955 H   0  0  0  0  0  0  0  0  0  0  0  0
  1  2  1  0
  2  3  1  0
  3  4  2  0
  4  5  1  0
  4  6  1  0
  6  7  1  0
  7  8  2  0
  7  9  1  0
  9  2  2  0
  1 10  1  0
  1 11  1  0
  1 12  1  0
  3 13  1  0
  5 14  1  0
  9 15  1  0
M  END
