
     RDKit          3D

 20 20  0  0  0  0  0  0  0  0999 V2000
   -2.4561   -0.5296    0.2000 C   0  0  0  0  0  0  0  0  0  0  0  0
   -0.9713   -0.3354    0.5162 C   0  0  0  0  0  0  0  0  0  0  0  0
   -0.7188    1.1500    0.3988 C   0  0  0  0  0  0  0  0  0  0  0  0
    0.6851    1.5291    0.5652 C   0  0  0  0  0  0  0  0  0  0  0  0
    1.8071    0.9292    0.1412 C   0  0  0  0  0  0  0  0  0  0  0  0
    1.9118   -0.3263   -0.6385 C   0  0  0  0  0  0  0  0  0  0  0  0
    1.0211   -1.3656   -0.0348 C   0  0  0  0  0  0  0  0  0  0  0  0
   -0.2849   -1.0837   -0.4166 O   0  0  0  0  0  0  0  0  0  0  0  0
   -3.0297    0.2863    0.6470 H   0  0  0  0  0  0  0  0  0  0  0  0
   -2.5335   -0.4376   -0.9232 H   0  0  0  0  0  0  0  0  0  0  0  0
   -2.7549   -1.5348    0.5346 H   0  0  0  0  0  0  0  0  0  0  0  0
   -0.7911   -0.6725    1.5543 H   0  0  0  0  0  0  0  0  0  0  0  0
   -1.3301    1.6334    1.1869 H   0  0  0  0  0  0  0  0  0  0  0  0
   -1.1216    1.5170   -0.5710 H   0  0  0  0  0  0  0  0  0  0  0  0
    0.8313    2.4597    1.1314 H   0  0  0  0  0  0  0  0  0  0  0  0
    2.7261    1.4408    0.4127 H   0  0  0  0  0  0  0  0  0  0  0  0
    1.6202   -0.1955   -1.7091 H   0  0  0  0  0  0  0  0  0  0  0  0
    2.9845   -0.6555   -0.6705 H   0  0  0  0  0  0  0  0  0  0  0  0
    1.2921   -2.3711   -0.4620 H   0  0  0  0  0  0  0  0  0  0  0  0
    1.1128   -1.4379    1.0580 H   0  0  0  0  0  0  0  0  0  0  0  0
  1  2  1  0
  2  3  1  0
  3  4  1  0
  4  5  2  0
  5  6  1  0
  6  7  1  0
  7  8  1  0
  8  2  1  0
  1  9  1  0
  1 10  1  0
  1 11  1  0
  2 12  1  0
  3 13  1  0
  3 14  1  0
  4 15  1  0
  5 16  1  0
  6 17  1  0
  6 18  1  0
  7 19  1  0
  7 20  1  0
M  END
