
     RDKit          3D

 23 23  0  0  0  0  0  0  0  0999 V2000
   -2.3809    0.2741    0.5666 C   0  0  0  0  0  0  0  0  0  0  0  0
   -1.6600   -0.4143   -0.5484 C   0  0  0  0  0  0  0  0  0  0  0  0
   -0.6654   -1.4533   -0.0441 C   0  0  0  0  0  0  0  0  0  0  0  0
    0.4196   -0.8172    0.7462 C   0  0  0  0  0  0  0  0  0  0  0  0
    0.8679    0.5132    0.2828 C   0  0  0  0  0  0  0  0  0  0  0  0
    2.2388    0.4680   -0.4025 C   0  0  0  0  0  0  0  0  0  0  0  0
    3.1379   -0.0220    0.5437 O   0  0  0  0  0  0  0  0  0  0  0  0
   -0.0775    1.2549   -0.5886 C   0  0  0  0  0  0  0  0  0  0  0  0
   -0.9313    0.4728   -1.3300 O   0  0  0  0  0  0  0  0  0  0  0  0
   -2.7984    1.2304    0.1425 H   0  0  0  0  0  0  0  0  0  0  0  0
   -1.7618    0.5599    1.4159 H   0  0  0  0  0  0  0  0  0  0  0  0
   -3.2712   -0.3233    0.8631 H   0  0  0  0  0  0  0  0  0  0  0  0
   -2.3795   -0.9364   -1.1770 H   0  0  0  0  0  0  0  0  0  0  0  0
   -0.1978   -1.8874   -0.9761 H   0  0  0  0  0  0  0  0  0  0  0  0
   -1.1488   -2.2545    0.5235 H   0  0  0  0  0  0  0  0  0  0  0  0
    1.2992   -1.5253    0.7437 H   0  0  0  0  0  0  0  0  0  0  0  0
    0.0982   -0.7994    1.8272 H   0  0  0  0  0  0  0  0  0  0  0  0
    1.0437    1.1505    1.2004 H   0  0  0  0  0  0  0  0  0  0  0  0
    2.4808    1.5154   -0.6682 H   0  0  0  0  0  0  0  0  0  0  0  0
    2.2154   -0.1419   -1.3215 H   0  0  0  0  0  0  0  0  0  0  0  0
    3.6335   -0.7591    0.1111 H   0  0  0  0  0  0  0  0  0  0  0  0
    0.5020    1.8819   -1.3203 H   0  0  0  0  0  0  0  0  0  0  0  0
   -0.6644    2.0131    0.0083 H   0  0  0  0  0  0  0  0  0  0  0  0
  1  2  1  0
  2  3  1  0
  3  4  1  0
  4  5  1  0
  5  6  1  0
  6  7  1  0
  5  8  1  0
  8  9  1  0
  9  2  1  0
  1 10  1  0
  1 11  1  0
  1 12  1  0
  2 13  1  0
  3 14  1  0
  3 15  1  0
  4 16  1  0
  4 17  1  0
  5 18  1  0
  6 19  1  0
  6 20  1  0
  7 21  1  0
  8 22  1  0
  8 23  1  0
M  END
