
     RDKit          3D

 16 16  0  0  0  0  0  0  0  0999 V2000
    1.8017   -0.2481    0.2787 C   0  0  0  0  0  0  0  0  0  0  0  0
    0.4922    0.0965   -0.3506 C   0  0  0  0  0  0  0  0  0  0  0  0
   -0.2338   -1.1330   -0.7361 C   0  0  0  0  0  0  0  0  0  0  0  0
   -1.4569   -1.1346   -0.2051 C   0  0  0  0  0  0  0  0  0  0  0  0
   -1.6773    0.0595    0.5719 C   0  0  0  0  0  0  0  0  0  0  0  0
   -2.7505    0.3222    1.1742 O   0  0  0  0  0  0  0  0  0  0  0  0
   -0.4240    0.8852    0.5174 C   0  0  0  0  0  0  0  0  0  0  0  0
   -0.8038    2.1027   -0.0676 O   0  0  0  0  0  0  0  0  0  0  0  0
    2.2141   -1.1350   -0.2828 H   0  0  0  0  0  0  0  0  0  0  0  0
    1.7412   -0.5455    1.3285 H   0  0  0  0  0  0  0  0  0  0  0  0
    2.5776    0.5538    0.1216 H   0  0  0  0  0  0  0  0  0  0  0  0
    0.7099    0.6508   -1.3086 H   0  0  0  0  0  0  0  0  0  0  0  0
    0.2078   -1.8976   -1.3643 H   0  0  0  0  0  0  0  0  0  0  0  0
   -2.1398   -1.9657   -0.3820 H   0  0  0  0  0  0  0  0  0  0  0  0
   -0.0617    1.0532    1.5368 H   0  0  0  0  0  0  0  0  0  0  0  0
   -0.1968    2.3357   -0.8321 H   0  0  0  0  0  0  0  0  0  0  0  0
  1  2  1  0
  2  3  1  0
  3  4  2  0
  4  5  1  0
  5  6  2  0
  5  7  1  0
  7  8  1  0
  7  2  1  0
  1  9  1  0
  1 10  1  0
  1 11  1  0
  2 12  1  0
  3 13  1  0
  4 14  1  0
  7 15  1  0
  8 16  1  0
M  END
