
     RDKit          3D

 23 23  0  0  0  0  0  0  0  0999 V2000
    2.1733   -0.8458   -0.0567 C   0  0  0  0  0  0  0  0  0  0  0  0
    1.2591    0.1166   -0.8288 C   0  0  0  0  0  0  0  0  0  0  0  0
    1.2196    1.3713   -0.0690 C   0  0  0  0  0  0  0  0  0  0  0  0
    0.3449    1.5235    0.8992 C   0  0  0  0  0  0  0  0  0  0  0  0
   -0.5890    0.4476    1.2221 C   0  0  0  0  0  0  0  0  0  0  0  0
   -1.0452   -0.3730    0.0608 C   0  0  0  0  0  0  0  0  0  0  0  0
   -2.3761    0.2108   -0.4320 C   0  0  0  0  0  0  0  0  0  0  0  0
   -1.3634   -1.6488    0.5557 O   0  0  0  0  0  0  0  0  0  0  0  0
   -0.0688   -0.5435   -1.0342 C   0  0  0  0  0  0  0  0  0  0  0  0
    1.9568   -1.8897   -0.2743 H   0  0  0  0  0  0  0  0  0  0  0  0
    3.2050   -0.5286   -0.3083 H   0  0  0  0  0  0  0  0  0  0  0  0
    2.0110   -0.6222    1.0174 H   0  0  0  0  0  0  0  0  0  0  0  0
    1.7416    0.3405   -1.8272 H   0  0  0  0  0  0  0  0  0  0  0  0
    1.8978    2.1630   -0.2966 H   0  0  0  0  0  0  0  0  0  0  0  0
    0.2866    2.4508    1.4917 H   0  0  0  0  0  0  0  0  0  0  0  0
   -0.1385   -0.2293    2.0053 H   0  0  0  0  0  0  0  0  0  0  0  0
   -1.4846    0.8805    1.7150 H   0  0  0  0  0  0  0  0  0  0  0  0
   -2.2420    1.2428   -0.7888 H   0  0  0  0  0  0  0  0  0  0  0  0
   -3.0638    0.1742    0.4518 H   0  0  0  0  0  0  0  0  0  0  0  0
   -2.7895   -0.4339   -1.2314 H   0  0  0  0  0  0  0  0  0  0  0  0
   -0.5631   -2.0719    0.9880 H   0  0  0  0  0  0  0  0  0  0  0  0
    0.1386   -1.6191   -1.2849 H   0  0  0  0  0  0  0  0  0  0  0  0
   -0.5102   -0.1159   -1.9750 H   0  0  0  0  0  0  0  0  0  0  0  0
  1  2  1  0
  2  3  1  0
  3  4  2  0
  4  5  1  0
  5  6  1  0
  6  7  1  0
  6  8  1  0
  6  9  1  0
  9  2  1  0
  1 10  1  0
  1 11  1  0
  1 12  1  0
  2 13  1  0
  3 14  1  0
  4 15  1  0
  5 16  1  0
  5 17  1  0
  7 18  1  0
  7 19  1  0
  7 20  1  0
  8 21  1  0
  9 22  1  0
  9 23  1  0
M  END
