
     RDKit          3D

 25 25  0  0  0  0  0  0  0  0999 V2000
   -0.6253   -2.1651   -0.3341 C   0  0  0  0  0  0  0  0  0  0  0  0
   -0.2357   -1.3737    0.8408 C   0  0  0  0  0  0  0  0  0  0  0  0
    1.2872   -1.2873    0.9914 C   0  0  0  0  0  0  0  0  0  0  0  0
    1.2047    0.1777    0.6027 C   0  0  0  0  0  0  0  0  0  0  0  0
    1.7142    0.3795   -0.7822 C   0  0  0  0  0  0  0  0  0  0  0  0
   -0.2703    0.1027    0.7976 C   0  0  0  0  0  0  0  0  0  0  0  0
   -1.1138    0.7588   -0.2625 C   0  0  0  0  0  0  0  0  0  0  0  0
   -1.0154    2.2665   -0.1374 C   0  0  0  0  0  0  0  0  0  0  0  0
   -1.7847    2.8928   -1.1042 O   0  0  0  0  0  0  0  0  0  0  0  0
   -1.1035   -1.6023   -1.1577 H   0  0  0  0  0  0  0  0  0  0  0  0
   -1.3316   -3.0043   -0.0635 H   0  0  0  0  0  0  0  0  0  0  0  0
    0.2547   -2.6755   -0.7806 H   0  0  0  0  0  0  0  0  0  0  0  0
   -0.6705   -1.8058    1.7846 H   0  0  0  0  0  0  0  0  0  0  0  0
    1.6417   -1.4860    2.0134 H   0  0  0  0  0  0  0  0  0  0  0  0
    1.8482   -1.9113    0.2689 H   0  0  0  0  0  0  0  0  0  0  0  0
    1.7722    0.7729    1.3515 H   0  0  0  0  0  0  0  0  0  0  0  0
    1.0903   -0.2204   -1.5015 H   0  0  0  0  0  0  0  0  0  0  0  0
    1.8619    1.4117   -1.0904 H   0  0  0  0  0  0  0  0  0  0  0  0
    2.7282   -0.1123   -0.8350 H   0  0  0  0  0  0  0  0  0  0  0  0
   -0.5397    0.5357    1.7919 H   0  0  0  0  0  0  0  0  0  0  0  0
   -2.1887    0.5211   -0.1666 H   0  0  0  0  0  0  0  0  0  0  0  0
   -0.8211    0.4600   -1.2904 H   0  0  0  0  0  0  0  0  0  0  0  0
    0.0121    2.6370   -0.1774 H   0  0  0  0  0  0  0  0  0  0  0  0
   -1.4126    2.5044    0.8932 H   0  0  0  0  0  0  0  0  0  0  0  0
   -2.3025    2.2232   -1.6526 H   0  0  0  0  0  0  0  0  0  0  0  0
  1  2  1  0
  2  3  1  0
  3  4  1  0
  4  5  1  0
  4  6  1  0
  6  7  1  0
  7  8  1  0
  8  9  1  0
  6  2  1  0
  1 10  1  0
  1 11  1  0
  1 12  1  0
  2 13  1  0
  3 14  1  0
  3 15  1  0
  4 16  1  0
  5 17  1  0
  5 18  1  0
  5 19  1  0
  6 20  1  0
  7 21  1  0
  7 22  1  0
  8 23  1  0
  8 24  1  0
  9 25  1  0
M  END
