
     RDKit          3D

 25 26  0  0  0  0  0  0  0  0999 V2000
    2.3798   -0.0939   -0.1833 C   0  0  0  0  0  0  0  0  0  0  0  0
    1.0369   -0.6231   -0.4835 C   0  0  0  0  0  0  0  0  0  0  0  0
    0.2295   -1.1274    0.7228 C   0  0  0  0  0  0  0  0  0  0  0  0
    0.2163    0.0431    1.6765 C   0  0  0  0  0  0  0  0  0  0  0  0
    0.0427    1.1790    0.6465 C   0  0  0  0  0  0  0  0  0  0  0  0
   -0.0976    0.3633   -0.5866 C   0  0  0  0  0  0  0  0  0  0  0  0
   -0.4493    0.9481   -1.8565 C   0  0  0  0  0  0  0  0  0  0  0  0
   -0.9448   -0.8478   -0.1551 C   0  0  0  0  0  0  0  0  0  0  0  0
   -2.2345   -0.5220    0.4902 C   0  0  0  0  0  0  0  0  0  0  0  0
    2.5649    0.8895   -0.6853 H   0  0  0  0  0  0  0  0  0  0  0  0
    3.1385   -0.7873   -0.6527 H   0  0  0  0  0  0  0  0  0  0  0  0
    2.6581   -0.0032    0.8616 H   0  0  0  0  0  0  0  0  0  0  0  0
    0.9642   -1.3645   -1.2958 H   0  0  0  0  0  0  0  0  0  0  0  0
    0.4338   -2.1025    1.0791 H   0  0  0  0  0  0  0  0  0  0  0  0
   -0.6337    0.0281    2.3585 H   0  0  0  0  0  0  0  0  0  0  0  0
    1.1530    0.1389    2.2303 H   0  0  0  0  0  0  0  0  0  0  0  0
    0.9599    1.8044    0.6729 H   0  0  0  0  0  0  0  0  0  0  0  0
   -0.7993    1.8256    0.8937 H   0  0  0  0  0  0  0  0  0  0  0  0
   -0.1005    0.3083   -2.6937 H   0  0  0  0  0  0  0  0  0  0  0  0
   -1.5728    0.9888   -1.9690 H   0  0  0  0  0  0  0  0  0  0  0  0
   -0.0808    1.9818   -1.9593 H   0  0  0  0  0  0  0  0  0  0  0  0
   -1.0598   -1.5186   -1.0310 H   0  0  0  0  0  0  0  0  0  0  0  0
   -2.5022   -1.3792    1.1733 H   0  0  0  0  0  0  0  0  0  0  0  0
   -2.2703    0.4212    1.0470 H   0  0  0  0  0  0  0  0  0  0  0  0
   -3.0322   -0.5507   -0.3004 H   0  0  0  0  0  0  0  0  0  0  0  0
  1  2  1  0
  2  3  1  0
  3  4  1  0
  4  5  1  0
  5  6  1  0
  6  7  1  0
  6  8  1  0
  8  9  1  0
  6  2  1  0
  8  3  1  0
  1 10  1  0
  1 11  1  0
  1 12  1  0
  2 13  1  0
  3 14  1  0
  4 15  1  0
  4 16  1  0
  5 17  1  0
  5 18  1  0
  7 19  1  0
  7 20  1  0
  7 21  1  0
  8 22  1  0
  9 23  1  0
  9 24  1  0
  9 25  1  0
M  END
