
     RDKit          3D

 19 19  0  0  0  0  0  0  0  0999 V2000
    1.8737    0.8296    0.5460 C   0  0  0  0  0  0  0  0  0  0  0  0
    0.7855    0.2734   -0.3120 C   0  0  0  0  0  0  0  0  0  0  0  0
    0.6767   -1.2508   -0.2970 C   0  0  0  0  0  0  0  0  0  0  0  0
   -0.8252   -1.0085   -0.5063 C   0  0  0  0  0  0  0  0  0  0  0  0
   -1.6465   -1.9669    0.0185 O   0  0  0  0  0  0  0  0  0  0  0  0
   -0.5956    0.2218    0.3587 C   0  0  0  0  0  0  0  0  0  0  0  0
   -1.4791    1.3833    0.0671 C   0  0  0  0  0  0  0  0  0  0  0  0
    1.5997    0.6705    1.6054 H   0  0  0  0  0  0  0  0  0  0  0  0
    2.8471    0.3453    0.2785 H   0  0  0  0  0  0  0  0  0  0  0  0
    1.9967    1.8999    0.2883 H   0  0  0  0  0  0  0  0  0  0  0  0
    0.6758    0.6984   -1.3166 H   0  0  0  0  0  0  0  0  0  0  0  0
    1.1796   -1.7692   -1.1049 H   0  0  0  0  0  0  0  0  0  0  0  0
    0.8194   -1.6182    0.7336 H   0  0  0  0  0  0  0  0  0  0  0  0
   -1.0003   -0.7055   -1.5598 H   0  0  0  0  0  0  0  0  0  0  0  0
   -1.2993   -2.8575   -0.2457 H   0  0  0  0  0  0  0  0  0  0  0  0
   -0.4543   -0.0550    1.4137 H   0  0  0  0  0  0  0  0  0  0  0  0
   -1.3102    1.7119   -0.9815 H   0  0  0  0  0  0  0  0  0  0  0  0
   -2.5429    1.0322    0.2106 H   0  0  0  0  0  0  0  0  0  0  0  0
   -1.3008    2.1653    0.8032 H   0  0  0  0  0  0  0  0  0  0  0  0
  1  2  1  0
  2  3  1  0
  3  4  1  0
  4  5  1  0
  4  6  1  0
  6  7  1  0
  6  2  1  0
  1  8  1  0
  1  9  1  0
  1 10  1  0
  2 11  1  0
  3 12  1  0
  3 13  1  0
  4 14  1  0
  5 15  1  0
  6 16  1  0
  7 17  1  0
  7 18  1  0
  7 19  1  0
M  END
