
     RDKit          3D

 23 24  0  0  0  0  0  0  0  0999 V2000
   -2.2443    0.2176    0.2829 C   0  0  0  0  0  0  0  0  0  0  0  0
   -0.7704    0.4344    0.3658 C   0  0  0  0  0  0  0  0  0  0  0  0
   -0.2943    1.4677   -0.6781 C   0  0  0  0  0  0  0  0  0  0  0  0
    0.6790    0.5614   -1.3975 C   0  0  0  0  0  0  0  0  0  0  0  0
   -0.1168   -0.5969   -1.5562 O   0  0  0  0  0  0  0  0  0  0  0  0
    0.0343   -0.7324   -0.1542 C   0  0  0  0  0  0  0  0  0  0  0  0
   -0.2156   -2.0611    0.3602 C   0  0  0  0  0  0  0  0  0  0  0  0
    1.4006   -0.1973   -0.3224 C   0  0  0  0  0  0  0  0  0  0  0  0
    2.0022    0.5924    0.7832 C   0  0  0  0  0  0  0  0  0  0  0  0
   -2.7755    1.1301   -0.1144 H   0  0  0  0  0  0  0  0  0  0  0  0
   -2.6812    0.0623    1.3047 H   0  0  0  0  0  0  0  0  0  0  0  0
   -2.5330   -0.6475   -0.3281 H   0  0  0  0  0  0  0  0  0  0  0  0
   -0.5109    0.7399    1.3797 H   0  0  0  0  0  0  0  0  0  0  0  0
   -1.1368    1.6781   -1.3415 H   0  0  0  0  0  0  0  0  0  0  0  0
    0.1650    2.3349   -0.2104 H   0  0  0  0  0  0  0  0  0  0  0  0
    1.2038    0.9230   -2.2464 H   0  0  0  0  0  0  0  0  0  0  0  0
    0.3972   -2.3650    1.2235 H   0  0  0  0  0  0  0  0  0  0  0  0
   -1.2755   -2.1611    0.6743 H   0  0  0  0  0  0  0  0  0  0  0  0
   -0.0869   -2.8206   -0.4662 H   0  0  0  0  0  0  0  0  0  0  0  0
    2.1199   -0.9147   -0.7536 H   0  0  0  0  0  0  0  0  0  0  0  0
    2.2124   -0.0696    1.6453 H   0  0  0  0  0  0  0  0  0  0  0  0
    1.4318    1.4520    1.1225 H   0  0  0  0  0  0  0  0  0  0  0  0
    2.9950    0.9727    0.4267 H   0  0  0  0  0  0  0  0  0  0  0  0
  1  2  1  0
  2  3  1  0
  3  4  1  0
  4  5  1  0
  5  6  1  0
  6  7  1  0
  6  8  1  0
  8  9  1  0
  6  2  1  0
  8  4  1  0
  1 10  1  0
  1 11  1  0
  1 12  1  0
  2 13  1  0
  3 14  1  0
  3 15  1  0
  4 16  1  0
  7 17  1  0
  7 18  1  0
  7 19  1  0
  8 20  1  0
  9 21  1  0
  9 22  1  0
  9 23  1  0
M  END
