
     RDKit          3D

 25 25  0  0  0  0  0  0  0  0999 V2000
    2.7210   -0.9644   -0.6051 C   0  0  0  0  0  0  0  0  0  0  0  0
    1.4155   -0.1921   -0.6769 C   0  0  0  0  0  0  0  0  0  0  0  0
    1.3290    0.9130    0.3547 C   0  0  0  0  0  0  0  0  0  0  0  0
    0.9040    2.1254   -0.1764 O   0  0  0  0  0  0  0  0  0  0  0  0
    0.4578   -0.2520    0.4519 C   0  0  0  0  0  0  0  0  0  0  0  0
   -1.0110   -0.1104    0.2705 C   0  0  0  0  0  0  0  0  0  0  0  0
   -1.4442    1.1891   -0.3337 C   0  0  0  0  0  0  0  0  0  0  0  0
   -1.6782   -0.1749    1.6499 C   0  0  0  0  0  0  0  0  0  0  0  0
   -1.6318   -1.2303   -0.5417 C   0  0  0  0  0  0  0  0  0  0  0  0
    2.6606   -1.9564   -1.0699 H   0  0  0  0  0  0  0  0  0  0  0  0
    2.9636   -1.1072    0.4885 H   0  0  0  0  0  0  0  0  0  0  0  0
    3.5762   -0.3612   -1.0025 H   0  0  0  0  0  0  0  0  0  0  0  0
    1.0806    0.0010   -1.7130 H   0  0  0  0  0  0  0  0  0  0  0  0
    2.1371    1.0292    1.1014 H   0  0  0  0  0  0  0  0  0  0  0  0
    1.6438    2.5087   -0.7201 H   0  0  0  0  0  0  0  0  0  0  0  0
    0.7404   -1.0218    1.2265 H   0  0  0  0  0  0  0  0  0  0  0  0
   -1.0051    1.4060   -1.3164 H   0  0  0  0  0  0  0  0  0  0  0  0
   -1.3646    2.0532    0.3815 H   0  0  0  0  0  0  0  0  0  0  0  0
   -2.5555    1.0978   -0.5171 H   0  0  0  0  0  0  0  0  0  0  0  0
   -1.4386    0.7716    2.2139 H   0  0  0  0  0  0  0  0  0  0  0  0
   -1.2094   -0.9942    2.2013 H   0  0  0  0  0  0  0  0  0  0  0  0
   -2.7782   -0.2885    1.5332 H   0  0  0  0  0  0  0  0  0  0  0  0
   -1.4113   -1.1513   -1.6089 H   0  0  0  0  0  0  0  0  0  0  0  0
   -1.3569   -2.1880   -0.0779 H   0  0  0  0  0  0  0  0  0  0  0  0
   -2.7447   -1.1021   -0.4257 H   0  0  0  0  0  0  0  0  0  0  0  0
  1  2  1  0
  2  3  1  0
  3  4  1  0
  3  5  1  0
  5  6  1  0
  6  7  1  0
  6  8  1  0
  6  9  1  0
  5  2  1  0
  1 10  1  0
  1 11  1  0
  1 12  1  0
  2 13  1  0
  3 14  1  0
  4 15  1  0
  5 16  1  0
  7 17  1  0
  7 18  1  0
  7 19  1  0
  8 20  1  0
  8 21  1  0
  8 22  1  0
  9 23  1  0
  9 24  1  0
  9 25  1  0
M  END
