
     RDKit          3D

 19 20  0  0  0  0  0  0  0  0999 V2000
   -0.7392    2.0065    0.0807 C   0  0  0  0  0  0  0  0  0  0  0  0
    0.0225    0.8706   -0.5278 C   0  0  0  0  0  0  0  0  0  0  0  0
   -0.8333   -0.3950   -0.7458 C   0  0  0  0  0  0  0  0  0  0  0  0
   -1.7752   -0.7392    0.2975 C   0  0  0  0  0  0  0  0  0  0  0  0
   -1.8045   -1.7946    0.9116 O   0  0  0  0  0  0  0  0  0  0  0  0
    0.5303   -1.0179   -0.7491 C   0  0  0  0  0  0  0  0  0  0  0  0
    1.4680   -1.2007    0.3025 C   0  0  0  0  0  0  0  0  0  0  0  0
    2.8616   -0.9621    0.1628 O   0  0  0  0  0  0  0  0  0  0  0  0
    0.6625   -0.0447    0.4967 C   0  0  0  0  0  0  0  0  0  0  0  0
   -1.7166    2.1844   -0.4102 H   0  0  0  0  0  0  0  0  0  0  0  0
   -0.9673    1.7168    1.1481 H   0  0  0  0  0  0  0  0  0  0  0  0
   -0.0917    2.8832    0.1074 H   0  0  0  0  0  0  0  0  0  0  0  0
    0.6152    1.0784   -1.4206 H   0  0  0  0  0  0  0  0  0  0  0  0
   -1.3242   -0.3827   -1.7316 H   0  0  0  0  0  0  0  0  0  0  0  0
   -2.5357   -0.0117    0.5801 H   0  0  0  0  0  0  0  0  0  0  0  0
    1.0541   -0.6177   -1.6813 H   0  0  0  0  0  0  0  0  0  0  0  0
    1.3404   -2.1435    0.9180 H   0  0  0  0  0  0  0  0  0  0  0  0
    3.3556   -1.2286    0.9597 H   0  0  0  0  0  0  0  0  0  0  0  0
   -0.1225   -0.2013    1.3014 H   0  0  0  0  0  0  0  0  0  0  0  0
  1  2  1  0
  2  3  1  0
  3  4  1  0
  4  5  2  0
  3  6  1  0
  6  7  1  0
  7  8  1  0
  7  9  1  0
  9  2  1  0
  9  6  1  0
  1 10  1  0
  1 11  1  0
  1 12  1  0
  2 13  1  0
  3 14  1  0
  4 15  1  0
  6 16  1  0
  7 17  1  0
  8 18  1  0
  9 19  1  0
M  END
