
     RDKit          3D

 23 25  0  0  0  0  0  0  0  0999 V2000
    2.6491   -0.2570   -0.0212 C   0  0  0  0  0  0  0  0  0  0  0  0
    1.2044   -0.1836   -0.5206 C   0  0  0  0  0  0  0  0  0  0  0  0
    0.4018   -1.3214    0.0871 C   0  0  0  0  0  0  0  0  0  0  0  0
   -0.7146   -0.6645    0.8406 C   0  0  0  0  0  0  0  0  0  0  0  0
   -1.9467   -0.6432   -0.0085 C   0  0  0  0  0  0  0  0  0  0  0  0
   -1.8318    0.6140   -0.8398 C   0  0  0  0  0  0  0  0  0  0  0  0
   -0.7912    1.4734   -0.2508 C   0  0  0  0  0  0  0  0  0  0  0  0
    0.5985    1.0823   -0.0130 C   0  0  0  0  0  0  0  0  0  0  0  0
   -0.3831    0.7765    1.0172 C   0  0  0  0  0  0  0  0  0  0  0  0
    3.2866    0.2737   -0.7492 H   0  0  0  0  0  0  0  0  0  0  0  0
    2.6970    0.3344    0.9358 H   0  0  0  0  0  0  0  0  0  0  0  0
    2.9772   -1.2851    0.1379 H   0  0  0  0  0  0  0  0  0  0  0  0
    1.1563   -0.2071   -1.6209 H   0  0  0  0  0  0  0  0  0  0  0  0
    0.0218   -1.9558   -0.7608 H   0  0  0  0  0  0  0  0  0  0  0  0
    1.0637   -1.9335    0.7112 H   0  0  0  0  0  0  0  0  0  0  0  0
   -0.8618   -1.2079    1.7885 H   0  0  0  0  0  0  0  0  0  0  0  0
   -2.0054   -1.5225   -0.6817 H   0  0  0  0  0  0  0  0  0  0  0  0
   -2.8244   -0.6221    0.6721 H   0  0  0  0  0  0  0  0  0  0  0  0
   -2.8221    1.1148   -0.7819 H   0  0  0  0  0  0  0  0  0  0  0  0
   -1.6827    0.3868   -1.9272 H   0  0  0  0  0  0  0  0  0  0  0  0
   -1.0328    2.5664   -0.2258 H   0  0  0  0  0  0  0  0  0  0  0  0
    1.3150    1.8932    0.2308 H   0  0  0  0  0  0  0  0  0  0  0  0
   -0.4748    1.2883    1.9802 H   0  0  0  0  0  0  0  0  0  0  0  0
  1  2  1  0
  2  3  1  0
  3  4  1  0
  4  5  1  0
  5  6  1  0
  6  7  1  0
  7  8  1  0
  8  9  1  0
  8  2  1  0
  9  4  1  0
  9  7  1  0
  1 10  1  0
  1 11  1  0
  1 12  1  0
  2 13  1  0
  3 14  1  0
  3 15  1  0
  4 16  1  0
  5 17  1  0
  5 18  1  0
  6 19  1  0
  6 20  1  0
  7 21  1  0
  8 22  1  0
  9 23  1  0
M  END
