
     RDKit          3D

 21 22  0  0  0  0  0  0  0  0999 V2000
   -2.3500    0.1906   -0.0755 C   0  0  0  0  0  0  0  0  0  0  0  0
   -0.8840    0.1717    0.1782 C   0  0  0  0  0  0  0  0  0  0  0  0
   -0.0545    0.8392   -0.8661 C   0  0  0  0  0  0  0  0  0  0  0  0
    1.1819    1.4099   -0.1666 C   0  0  0  0  0  0  0  0  0  0  0  0
    1.7975    0.0959    0.3364 C   0  0  0  0  0  0  0  0  0  0  0  0
    1.0548   -0.9343   -0.4590 C   0  0  0  0  0  0  0  0  0  0  0  0
    0.5932   -0.2002   -1.5801 O   0  0  0  0  0  0  0  0  0  0  0  0
   -0.3136   -1.2541    0.1562 C   0  0  0  0  0  0  0  0  0  0  0  0
   -0.2183   -1.8021    1.4013 O   0  0  0  0  0  0  0  0  0  0  0  0
   -2.6741   -0.4324   -0.9284 H   0  0  0  0  0  0  0  0  0  0  0  0
   -2.6459    1.2304   -0.3167 H   0  0  0  0  0  0  0  0  0  0  0  0
   -2.8736   -0.0666    0.8710 H   0  0  0  0  0  0  0  0  0  0  0  0
   -0.6830    0.5528    1.1976 H   0  0  0  0  0  0  0  0  0  0  0  0
   -0.5550    1.5458   -1.5022 H   0  0  0  0  0  0  0  0  0  0  0  0
    0.8852    2.0673    0.6469 H   0  0  0  0  0  0  0  0  0  0  0  0
    1.8675    1.8647   -0.9080 H   0  0  0  0  0  0  0  0  0  0  0  0
    2.8512    0.0778    0.0572 H   0  0  0  0  0  0  0  0  0  0  0  0
    1.6068    0.0510    1.4235 H   0  0  0  0  0  0  0  0  0  0  0  0
    1.6147   -1.8142   -0.7296 H   0  0  0  0  0  0  0  0  0  0  0  0
   -0.8337   -1.8825   -0.5944 H   0  0  0  0  0  0  0  0  0  0  0  0
    0.6328   -1.7107    1.8584 H   0  0  0  0  0  0  0  0  0  0  0  0
  1  2  1  0
  2  3  1  0
  3  4  1  0
  4  5  1  0
  5  6  1  0
  6  7  1  0
  6  8  1  0
  8  9  1  0
  8  2  1  0
  7  3  1  0
  1 10  1  0
  1 11  1  0
  1 12  1  0
  2 13  1  0
  3 14  1  0
  4 15  1  0
  4 16  1  0
  5 17  1  0
  5 18  1  0
  6 19  1  0
  8 20  1  0
  9 21  1  0
M  END
