
     RDKit          3D

 19 20  0  0  0  0  0  0  0  0999 V2000
   -1.6453   -1.3469    0.8782 C   0  0  0  0  0  0  0  0  0  0  0  0
   -0.7373   -0.7458   -0.1629 C   0  0  0  0  0  0  0  0  0  0  0  0
   -1.0552    0.5467   -0.7624 C   0  0  0  0  0  0  0  0  0  0  0  0
   -1.6966    1.4590    0.1110 O   0  0  0  0  0  0  0  0  0  0  0  0
   -0.4337    1.7343    0.5963 C   0  0  0  0  0  0  0  0  0  0  0  0
    0.1051    0.3689    0.2555 C   0  0  0  0  0  0  0  0  0  0  0  0
    1.5142    0.4093   -0.2559 C   0  0  0  0  0  0  0  0  0  0  0  0
    2.2406   -0.8059    0.1697 C   0  0  0  0  0  0  0  0  0  0  0  0
    2.4463   -1.7364   -0.6278 O   0  0  0  0  0  0  0  0  0  0  0  0
   -2.6640   -0.9671    0.8596 H   0  0  0  0  0  0  0  0  0  0  0  0
   -1.1490   -1.1553    1.8753 H   0  0  0  0  0  0  0  0  0  0  0  0
   -1.7036   -2.4547    0.8107 H   0  0  0  0  0  0  0  0  0  0  0  0
   -0.3140   -1.5156   -0.8606 H   0  0  0  0  0  0  0  0  0  0  0  0
   -0.7117    0.8784   -1.7373 H   0  0  0  0  0  0  0  0  0  0  0  0
    0.0241    2.5402   -0.0539 H   0  0  0  0  0  0  0  0  0  0  0  0
   -0.3445    2.0523    1.6376 H   0  0  0  0  0  0  0  0  0  0  0  0
    2.0420    1.3525    0.0419 H   0  0  0  0  0  0  0  0  0  0  0  0
    1.4432    0.3722   -1.3746 H   0  0  0  0  0  0  0  0  0  0  0  0
    2.6395   -0.9860    1.1567 H   0  0  0  0  0  0  0  0  0  0  0  0
  1  2  1  0
  2  3  1  0
  3  4  1  0
  4  5  1  0
  5  6  1  0
  6  7  1  0
  7  8  1  0
  8  9  2  0
  6  2  1  0
  6  3  1  0
  1 10  1  0
  1 11  1  0
  1 12  1  0
  2 13  1  0
  3 14  1  0
  5 15  1  0
  5 16  1  0
  7 17  1  0
  7 18  1  0
  8 19  1  0
M  END
