
     RDKit          3D

 21 22  0  0  0  0  0  0  0  0999 V2000
    2.5708    0.9944   -0.4847 C   0  0  0  0  0  0  0  0  0  0  0  0
    1.4700   -0.0230   -0.4695 C   0  0  0  0  0  0  0  0  0  0  0  0
    0.5474    0.0482    0.7441 C   0  0  0  0  0  0  0  0  0  0  0  0
   -0.4402   -0.2660   -0.3247 C   0  0  0  0  0  0  0  0  0  0  0  0
   -0.5445   -1.7655   -0.5785 C   0  0  0  0  0  0  0  0  0  0  0  0
   -1.8131    0.3240   -0.1825 C   0  0  0  0  0  0  0  0  0  0  0  0
   -2.2889    0.9800    0.9885 C   0  0  0  0  0  0  0  0  0  0  0  0
   -2.5516   -0.4060    0.8519 O   0  0  0  0  0  0  0  0  0  0  0  0
    0.3761    0.3127   -1.2594 O   0  0  0  0  0  0  0  0  0  0  0  0
    2.4084    1.7081    0.3500 H   0  0  0  0  0  0  0  0  0  0  0  0
    2.5492    1.5024   -1.4759 H   0  0  0  0  0  0  0  0  0  0  0  0
    3.5821    0.5334   -0.2958 H   0  0  0  0  0  0  0  0  0  0  0  0
    1.8703   -1.0376   -0.6219 H   0  0  0  0  0  0  0  0  0  0  0  0
    0.4922    1.0221    1.2341 H   0  0  0  0  0  0  0  0  0  0  0  0
    0.7266   -0.8281    1.4321 H   0  0  0  0  0  0  0  0  0  0  0  0
    0.1956   -2.1003   -1.3383 H   0  0  0  0  0  0  0  0  0  0  0  0
   -0.3890   -2.2500    0.4068 H   0  0  0  0  0  0  0  0  0  0  0  0
   -1.5547   -2.0220   -0.9793 H   0  0  0  0  0  0  0  0  0  0  0  0
   -2.3840    0.3708   -1.1256 H   0  0  0  0  0  0  0  0  0  0  0  0
   -1.6267    1.2878    1.8304 H   0  0  0  0  0  0  0  0  0  0  0  0
   -3.1960    1.6146    0.9182 H   0  0  0  0  0  0  0  0  0  0  0  0
  1  2  1  0
  2  3  1  0
  3  4  1  0
  4  5  1  0
  4  6  1  0
  6  7  1  0
  7  8  1  0
  4  9  1  0
  9  2  1  0
  8  6  1  0
  1 10  1  0
  1 11  1  0
  1 12  1  0
  2 13  1  0
  3 14  1  0
  3 15  1  0
  5 16  1  0
  5 17  1  0
  5 18  1  0
  6 19  1  0
  7 20  1  0
  7 21  1  0
M  END
