
     RDKit          3D

 23 23  0  0  0  0  0  0  0  0999 V2000
    2.8067    0.2039   -0.3078 C   0  0  0  0  0  0  0  0  0  0  0  0
    1.5141    0.0828    0.4901 C   0  0  0  0  0  0  0  0  0  0  0  0
    0.8291   -1.2019    0.1052 C   0  0  0  0  0  0  0  0  0  0  0  0
   -0.4893   -0.6983   -0.4485 C   0  0  0  0  0  0  0  0  0  0  0  0
   -1.6216   -1.6509   -0.1664 C   0  0  0  0  0  0  0  0  0  0  0  0
   -0.6155    0.5790    0.3935 C   0  0  0  0  0  0  0  0  0  0  0  0
   -1.7358    1.4326   -0.0858 C   0  0  0  0  0  0  0  0  0  0  0  0
   -1.7082    2.6332    0.5943 O   0  0  0  0  0  0  0  0  0  0  0  0
    0.6342    1.1211    0.2090 O   0  0  0  0  0  0  0  0  0  0  0  0
    2.5576    0.7217   -1.2511 H   0  0  0  0  0  0  0  0  0  0  0  0
    3.5051    0.8515    0.2407 H   0  0  0  0  0  0  0  0  0  0  0  0
    3.1982   -0.8206   -0.4716 H   0  0  0  0  0  0  0  0  0  0  0  0
    1.7395    0.1415    1.5835 H   0  0  0  0  0  0  0  0  0  0  0  0
    1.3924   -1.8136   -0.5963 H   0  0  0  0  0  0  0  0  0  0  0  0
    0.5662   -1.7791    1.0319 H   0  0  0  0  0  0  0  0  0  0  0  0
   -0.3833   -0.4263   -1.4978 H   0  0  0  0  0  0  0  0  0  0  0  0
   -1.7542   -1.7063    0.9381 H   0  0  0  0  0  0  0  0  0  0  0  0
   -2.5334   -1.2112   -0.6203 H   0  0  0  0  0  0  0  0  0  0  0  0
   -1.3799   -2.6184   -0.6147 H   0  0  0  0  0  0  0  0  0  0  0  0
   -0.7178    0.2758    1.4448 H   0  0  0  0  0  0  0  0  0  0  0  0
   -2.6904    0.9244    0.1780 H   0  0  0  0  0  0  0  0  0  0  0  0
   -1.6544    1.5498   -1.1860 H   0  0  0  0  0  0  0  0  0  0  0  0
   -1.4594    3.4096    0.0370 H   0  0  0  0  0  0  0  0  0  0  0  0
  1  2  1  0
  2  3  1  0
  3  4  1  0
  4  5  1  0
  4  6  1  0
  6  7  1  0
  7  8  1  0
  6  9  1  0
  9  2  1  0
  1 10  1  0
  1 11  1  0
  1 12  1  0
  2 13  1  0
  3 14  1  0
  3 15  1  0
  4 16  1  0
  5 17  1  0
  5 18  1  0
  5 19  1  0
  6 20  1  0
  7 21  1  0
  7 22  1  0
  8 23  1  0
M  END
