
     RDKit          3D

 23 24  0  0  0  0  0  0  0  0999 V2000
   -2.9864   -0.1982   -0.1311 C   0  0  0  0  0  0  0  0  0  0  0  0
   -1.7474    0.6406   -0.2558 C   0  0  0  0  0  0  0  0  0  0  0  0
   -0.9192    0.7511    1.0052 C   0  0  0  0  0  0  0  0  0  0  0  0
   -0.1415   -0.4530    0.5417 C   0  0  0  0  0  0  0  0  0  0  0  0
    1.3216   -0.4531    0.8165 C   0  0  0  0  0  0  0  0  0  0  0  0
    2.1618    0.6184    0.2513 C   0  0  0  0  0  0  0  0  0  0  0  0
    2.9661   -0.5084   -0.3813 C   0  0  0  0  0  0  0  0  0  0  0  0
    1.9744   -1.4094    0.0362 O   0  0  0  0  0  0  0  0  0  0  0  0
   -0.5931   -0.1788   -0.8498 C   0  0  0  0  0  0  0  0  0  0  0  0
   -2.7245   -1.2715    0.0831 H   0  0  0  0  0  0  0  0  0  0  0  0
   -3.4698   -0.2186   -1.1316 H   0  0  0  0  0  0  0  0  0  0  0  0
   -3.6580    0.1224    0.6791 H   0  0  0  0  0  0  0  0  0  0  0  0
   -1.9479    1.5721   -0.7917 H   0  0  0  0  0  0  0  0  0  0  0  0
   -0.3078    1.6743    0.9634 H   0  0  0  0  0  0  0  0  0  0  0  0
   -1.4668    0.5835    1.9458 H   0  0  0  0  0  0  0  0  0  0  0  0
   -0.6138   -1.3736    0.9439 H   0  0  0  0  0  0  0  0  0  0  0  0
    1.5226   -0.6167    1.8869 H   0  0  0  0  0  0  0  0  0  0  0  0
    1.7586    1.2637   -0.5313 H   0  0  0  0  0  0  0  0  0  0  0  0
    2.7828    1.1992    0.9512 H   0  0  0  0  0  0  0  0  0  0  0  0
    3.0516   -0.4661   -1.4720 H   0  0  0  0  0  0  0  0  0  0  0  0
    3.9429   -0.6970    0.0949 H   0  0  0  0  0  0  0  0  0  0  0  0
   -0.9506   -1.0563   -1.4271 H   0  0  0  0  0  0  0  0  0  0  0  0
    0.0444    0.4754   -1.4688 H   0  0  0  0  0  0  0  0  0  0  0  0
  1  2  1  0
  2  3  1  0
  3  4  1  0
  4  5  1  0
  5  6  1  0
  6  7  1  0
  7  8  1  0
  4  9  1  0
  9  2  1  0
  8  5  1  0
  1 10  1  0
  1 11  1  0
  1 12  1  0
  2 13  1  0
  3 14  1  0
  3 15  1  0
  4 16  1  0
  5 17  1  0
  6 18  1  0
  6 19  1  0
  7 20  1  0
  7 21  1  0
  9 22  1  0
  9 23  1  0
M  END
