
     RDKit          3D

 17 18  0  0  0  0  0  0  0  0999 V2000
    2.1023   -0.1365    0.1849 C   0  0  0  0  0  0  0  0  0  0  0  0
    0.7624   -0.4521   -0.4962 C   0  0  0  0  0  0  0  0  0  0  0  0
   -0.3457   -0.6845    0.3539 C   0  0  0  0  0  0  0  0  0  0  0  0
   -1.1401   -1.7794   -0.1058 O   0  0  0  0  0  0  0  0  0  0  0  0
   -1.3396    0.2904    0.9574 C   0  0  0  0  0  0  0  0  0  0  0  0
   -1.7181    0.4236   -0.4690 C   0  0  0  0  0  0  0  0  0  0  0  0
   -2.7147    0.4350   -1.1116 O   0  0  0  0  0  0  0  0  0  0  0  0
   -0.2788    0.5298   -0.6653 C   0  0  0  0  0  0  0  0  0  0  0  0
    0.1247    1.7670   -0.0816 O   0  0  0  0  0  0  0  0  0  0  0  0
    1.9835    0.5544    1.0249 H   0  0  0  0  0  0  0  0  0  0  0  0
    2.5419   -1.1143    0.4557 H   0  0  0  0  0  0  0  0  0  0  0  0
    2.7723    0.3073   -0.6027 H   0  0  0  0  0  0  0  0  0  0  0  0
    0.9807   -1.0663   -1.4228 H   0  0  0  0  0  0  0  0  0  0  0  0
   -0.5628   -2.5321   -0.3789 H   0  0  0  0  0  0  0  0  0  0  0  0
   -2.0547   -0.1709    1.6295 H   0  0  0  0  0  0  0  0  0  0  0  0
   -0.8969    1.1790    1.4330 H   0  0  0  0  0  0  0  0  0  0  0  0
   -0.2161    2.4495   -0.7053 H   0  0  0  0  0  0  0  0  0  0  0  0
  1  2  1  0
  2  3  1  0
  3  4  1  0
  3  5  1  0
  5  6  1  0
  6  7  2  0
  6  8  1  0
  8  9  1  0
  8  2  1  0
  8  3  1  0
  1 10  1  0
  1 11  1  0
  1 12  1  0
  2 13  1  0
  4 14  1  0
  5 15  1  0
  5 16  1  0
  9 17  1  0
M  END
