
     RDKit          3D

 18 18  0  0  0  0  0  0  0  0999 V2000
   -2.1693   -0.4063    0.8031 C   0  0  0  0  0  0  0  0  0  0  0  0
   -1.0938   -0.2139   -0.2168 C   0  0  0  0  0  0  0  0  0  0  0  0
   -0.7217    1.2114   -0.4710 C   0  0  0  0  0  0  0  0  0  0  0  0
    0.6612    1.3102   -0.4304 O   0  0  0  0  0  0  0  0  0  0  0  0
    1.1809    0.0356   -0.5169 C   0  0  0  0  0  0  0  0  0  0  0  0
    2.5708   -0.0787    0.0266 C   0  0  0  0  0  0  0  0  0  0  0  0
    0.1948   -0.7805    0.2025 C   0  0  0  0  0  0  0  0  0  0  0  0
    0.4160   -1.6846    0.9461 O   0  0  0  0  0  0  0  0  0  0  0  0
   -1.8530   -1.2477    1.4550 H   0  0  0  0  0  0  0  0  0  0  0  0
   -3.0942   -0.7810    0.2745 H   0  0  0  0  0  0  0  0  0  0  0  0
   -2.4484    0.4973    1.3533 H   0  0  0  0  0  0  0  0  0  0  0  0
   -1.3485   -0.6694   -1.2067 H   0  0  0  0  0  0  0  0  0  0  0  0
   -1.1122    1.8226    0.3763 H   0  0  0  0  0  0  0  0  0  0  0  0
   -1.0559    1.5961   -1.4532 H   0  0  0  0  0  0  0  0  0  0  0  0
    1.1786   -0.3099   -1.5855 H   0  0  0  0  0  0  0  0  0  0  0  0
    2.5575    0.1288    1.1210 H   0  0  0  0  0  0  0  0  0  0  0  0
    3.1989    0.6675   -0.4827 H   0  0  0  0  0  0  0  0  0  0  0  0
    2.9384   -1.0976   -0.1952 H   0  0  0  0  0  0  0  0  0  0  0  0
  1  2  1  0
  2  3  1  0
  3  4  1  0
  4  5  1  0
  5  6  1  0
  5  7  1  0
  7  8  2  0
  7  2  1  0
  1  9  1  0
  1 10  1  0
  1 11  1  0
  2 12  1  0
  3 13  1  0
  3 14  1  0
  5 15  1  0
  6 16  1  0
  6 17  1  0
  6 18  1  0
M  END
