
     RDKit          3D

 19 21  0  0  0  0  0  0  0  0999 V2000
    2.2832   -0.0160   -0.7328 C   0  0  0  0  0  0  0  0  0  0  0  0
    1.1339   -0.3473    0.1496 C   0  0  0  0  0  0  0  0  0  0  0  0
    0.1175   -1.2228   -0.4776 C   0  0  0  0  0  0  0  0  0  0  0  0
    0.3349   -2.0165   -1.3593 O   0  0  0  0  0  0  0  0  0  0  0  0
   -1.1684   -0.9189    0.1905 C   0  0  0  0  0  0  0  0  0  0  0  0
   -1.9078    0.1367   -0.6255 C   0  0  0  0  0  0  0  0  0  0  0  0
   -0.9836    1.1527   -0.0657 C   0  0  0  0  0  0  0  0  0  0  0  0
    0.3093    0.8415    0.5634 C   0  0  0  0  0  0  0  0  0  0  0  0
   -0.8470    0.1970    1.1445 C   0  0  0  0  0  0  0  0  0  0  0  0
    2.1829   -0.3275   -1.7782 H   0  0  0  0  0  0  0  0  0  0  0  0
    3.2148   -0.4533   -0.2774 H   0  0  0  0  0  0  0  0  0  0  0  0
    2.4560    1.0938   -0.6922 H   0  0  0  0  0  0  0  0  0  0  0  0
    1.4450   -0.8584    1.1000 H   0  0  0  0  0  0  0  0  0  0  0  0
   -1.7603   -1.7446    0.5514 H   0  0  0  0  0  0  0  0  0  0  0  0
   -2.9328    0.2507   -0.1792 H   0  0  0  0  0  0  0  0  0  0  0  0
   -1.8902   -0.0451   -1.7077 H   0  0  0  0  0  0  0  0  0  0  0  0
   -1.4116    2.1388    0.1243 H   0  0  0  0  0  0  0  0  0  0  0  0
    0.8722    1.6669    0.9860 H   0  0  0  0  0  0  0  0  0  0  0  0
   -1.4479    0.4721    1.9761 H   0  0  0  0  0  0  0  0  0  0  0  0
  1  2  1  0
  2  3  1  0
  3  4  2  0
  3  5  1  0
  5  6  1  0
  6  7  1  0
  7  8  1  0
  8  9  1  0
  8  2  1  0
  9  5  1  0
  9  7  1  0
  1 10  1  0
  1 11  1  0
  1 12  1  0
  2 13  1  0
  5 14  1  0
  6 15  1  0
  6 16  1  0
  7 17  1  0
  8 18  1  0
  9 19  1  0
M  END
