
     RDKit          3D

 19 20  0  0  0  0  0  0  0  0999 V2000
    1.9359    0.2661    0.6152 C   0  0  0  0  0  0  0  0  0  0  0  0
    0.7407    0.3069   -0.2927 C   0  0  0  0  0  0  0  0  0  0  0  0
    0.4337   -1.0312   -0.8912 C   0  0  0  0  0  0  0  0  0  0  0  0
   -0.6580   -1.7255   -0.5976 C   0  0  0  0  0  0  0  0  0  0  0  0
   -1.5704   -1.1323    0.3472 C   0  0  0  0  0  0  0  0  0  0  0  0
   -2.6414   -0.3850    0.2587 O   0  0  0  0  0  0  0  0  0  0  0  0
   -1.6370    0.3309   -0.1704 C   0  0  0  0  0  0  0  0  0  0  0  0
   -0.4391    0.9098    0.4461 C   0  0  0  0  0  0  0  0  0  0  0  0
   -0.3371    2.2997    0.3291 O   0  0  0  0  0  0  0  0  0  0  0  0
    2.3024   -0.7423    0.8350 H   0  0  0  0  0  0  0  0  0  0  0  0
    2.7908    0.8545    0.1734 H   0  0  0  0  0  0  0  0  0  0  0  0
    1.7264    0.7538    1.6008 H   0  0  0  0  0  0  0  0  0  0  0  0
    0.9841    0.9689   -1.1747 H   0  0  0  0  0  0  0  0  0  0  0  0
    1.1896   -1.3913   -1.5961 H   0  0  0  0  0  0  0  0  0  0  0  0
   -0.8419   -2.6825   -1.0487 H   0  0  0  0  0  0  0  0  0  0  0  0
   -1.2239   -1.2745    1.4081 H   0  0  0  0  0  0  0  0  0  0  0  0
   -1.6358    0.4654   -1.2938 H   0  0  0  0  0  0  0  0  0  0  0  0
   -0.2911    0.6188    1.5265 H   0  0  0  0  0  0  0  0  0  0  0  0
   -0.8279    2.5897   -0.4749 H   0  0  0  0  0  0  0  0  0  0  0  0
  1  2  1  0
  2  3  1  0
  3  4  2  0
  4  5  1  0
  5  6  1  0
  6  7  1  0
  7  8  1  0
  8  9  1  0
  8  2  1  0
  7  5  1  0
  1 10  1  0
  1 11  1  0
  1 12  1  0
  2 13  1  0
  3 14  1  0
  4 15  1  0
  5 16  1  0
  7 17  1  0
  8 18  1  0
  9 19  1  0
M  END
