
     RDKit          3D

 23 24  0  0  0  0  0  0  0  0999 V2000
    1.7313    1.3667   -0.1494 C   0  0  0  0  0  0  0  0  0  0  0  0
    0.8178    0.5886    0.7863 C   0  0  0  0  0  0  0  0  0  0  0  0
    0.7953   -0.8765    0.7932 C   0  0  0  0  0  0  0  0  0  0  0  0
    1.6473   -1.7143   -0.1146 C   0  0  0  0  0  0  0  0  0  0  0  0
   -0.3447   -0.1288    0.2846 C   0  0  0  0  0  0  0  0  0  0  0  0
   -0.7317   -0.0489   -1.1519 C   0  0  0  0  0  0  0  0  0  0  0  0
   -2.0073    0.7483   -1.0863 C   0  0  0  0  0  0  0  0  0  0  0  0
   -2.5252    0.6655    0.1351 C   0  0  0  0  0  0  0  0  0  0  0  0
   -1.6642   -0.1810    0.9971 C   0  0  0  0  0  0  0  0  0  0  0  0
    2.4668    0.7236   -0.6563 H   0  0  0  0  0  0  0  0  0  0  0  0
    2.3218    2.1401    0.3982 H   0  0  0  0  0  0  0  0  0  0  0  0
    1.1643    1.9188   -0.9251 H   0  0  0  0  0  0  0  0  0  0  0  0
    0.6653    1.1344    1.7640 H   0  0  0  0  0  0  0  0  0  0  0  0
    0.6552   -1.3517    1.8092 H   0  0  0  0  0  0  0  0  0  0  0  0
    1.9279   -1.2049   -1.0463 H   0  0  0  0  0  0  0  0  0  0  0  0
    2.5512   -2.0140    0.4770 H   0  0  0  0  0  0  0  0  0  0  0  0
    1.0605   -2.6361   -0.3965 H   0  0  0  0  0  0  0  0  0  0  0  0
   -0.0374    0.5159   -1.7906 H   0  0  0  0  0  0  0  0  0  0  0  0
   -0.8923   -1.0282   -1.6329 H   0  0  0  0  0  0  0  0  0  0  0  0
   -2.4624    1.3147   -1.8916 H   0  0  0  0  0  0  0  0  0  0  0  0
   -3.4472    1.1457    0.4651 H   0  0  0  0  0  0  0  0  0  0  0  0
   -1.6359    0.1530    2.0371 H   0  0  0  0  0  0  0  0  0  0  0  0
   -2.0564   -1.2310    0.8948 H   0  0  0  0  0  0  0  0  0  0  0  0
  1  2  1  0
  2  3  1  0
  3  4  1  0
  3  5  1  0
  5  6  1  0
  6  7  1  0
  7  8  2  0
  8  9  1  0
  5  2  1  0
  9  5  1  0
  1 10  1  0
  1 11  1  0
  1 12  1  0
  2 13  1  0
  3 14  1  0
  4 15  1  0
  4 16  1  0
  4 17  1  0
  6 18  1  0
  6 19  1  0
  7 20  1  0
  8 21  1  0
  9 22  1  0
  9 23  1  0
M  END
