
     RDKit          3D

 25 26  0  0  0  0  0  0  0  0999 V2000
   -0.8243    1.6992   -1.2346 C   0  0  0  0  0  0  0  0  0  0  0  0
   -0.9611    0.1946   -1.1363 C   0  0  0  0  0  0  0  0  0  0  0  0
    0.2646   -0.5906   -0.6219 C   0  0  0  0  0  0  0  0  0  0  0  0
    1.4730    0.2540   -0.3956 C   0  0  0  0  0  0  0  0  0  0  0  0
    2.7005   -0.5227    0.1172 C   0  0  0  0  0  0  0  0  0  0  0  0
    2.0262    0.5489    0.9276 C   0  0  0  0  0  0  0  0  0  0  0  0
   -0.9613   -0.4964    0.1679 C   0  0  0  0  0  0  0  0  0  0  0  0
   -1.8229   -1.7691    0.1786 C   0  0  0  0  0  0  0  0  0  0  0  0
   -1.0685    0.2839    1.4424 C   0  0  0  0  0  0  0  0  0  0  0  0
   -0.2789    1.9716   -2.1844 H   0  0  0  0  0  0  0  0  0  0  0  0
   -1.8661    2.0946   -1.3512 H   0  0  0  0  0  0  0  0  0  0  0  0
   -0.3163    2.1446   -0.3594 H   0  0  0  0  0  0  0  0  0  0  0  0
   -1.4869   -0.2435   -2.0091 H   0  0  0  0  0  0  0  0  0  0  0  0
    0.4773   -1.5326   -1.1930 H   0  0  0  0  0  0  0  0  0  0  0  0
    1.6936    0.9680   -1.2183 H   0  0  0  0  0  0  0  0  0  0  0  0
    3.6697   -0.3136   -0.3797 H   0  0  0  0  0  0  0  0  0  0  0  0
    2.5368   -1.5771    0.4262 H   0  0  0  0  0  0  0  0  0  0  0  0
    1.5985    0.2302    1.8768 H   0  0  0  0  0  0  0  0  0  0  0  0
    2.6464    1.4794    1.0207 H   0  0  0  0  0  0  0  0  0  0  0  0
   -1.4139   -2.4795    0.9219 H   0  0  0  0  0  0  0  0  0  0  0  0
   -2.8693   -1.5412    0.4301 H   0  0  0  0  0  0  0  0  0  0  0  0
   -1.8281   -2.2434   -0.8307 H   0  0  0  0  0  0  0  0  0  0  0  0
   -2.1521    0.5204    1.6390 H   0  0  0  0  0  0  0  0  0  0  0  0
   -0.5390    1.2340    1.4517 H   0  0  0  0  0  0  0  0  0  0  0  0
   -0.6977   -0.3132    2.3142 H   0  0  0  0  0  0  0  0  0  0  0  0
  1  2  1  0
  2  3  1  0
  3  4  1  0
  4  5  1  0
  5  6  1  0
  3  7  1  0
  7  8  1  0
  7  9  1  0
  7  2  1  0
  6  4  1  0
  1 10  1  0
  1 11  1  0
  1 12  1  0
  2 13  1  0
  3 14  1  0
  4 15  1  0
  5 16  1  0
  5 17  1  0
  6 18  1  0
  6 19  1  0
  8 20  1  0
  8 21  1  0
  8 22  1  0
  9 23  1  0
  9 24  1  0
  9 25  1  0
M  END
