
     RDKit          2D

 19 21  0  0  0  0  0  0  0  0999 V2000
   -2.6403   -1.1061    0.0000 C   0  0  0  0  0  0  0  0  0  0  0  0
   -2.5095    0.3882    0.0000 C   0  0  0  0  0  0  0  0  0  0  0  0
   -2.8978    1.8371    0.0000 C   0  0  0  0  0  0  0  0  0  0  0  0
   -1.8371    2.8978    0.0000 C   0  0  0  0  0  0  0  0  0  0  0  0
   -0.3882    2.5095    0.0000 C   0  0  0  0  0  0  0  0  0  0  0  0
   -0.0000   -1.0607    0.0000 C   0  0  0  0  0  0  0  0  0  0  0  0
    1.0607    0.0000    0.0000 O   0  0  0  0  0  0  0  0  0  0  0  0
    0.0000    1.0607    0.0000 C   0  0  0  0  0  0  0  0  0  0  0  0
   -1.0607    0.0000    0.0000 C   0  0  0  0  0  0  0  0  0  0  0  0
   -2.7710   -2.6004    0.0000 H   0  0  0  0  0  0  0  0  0  0  0  0
   -1.8605   -1.2718    0.0000 H   0  0  0  0  0  0  0  0  0  0  0  0
   -4.1346   -0.9753    0.0000 H   0  0  0  0  0  0  0  0  0  0  0  0
   -4.0038    0.2575    0.0000 H   0  0  0  0  0  0  0  0  0  0  0  0
   -4.3467    2.2253    0.0000 H   0  0  0  0  0  0  0  0  0  0  0  0
   -2.2253    4.3467    0.0000 H   0  0  0  0  0  0  0  0  0  0  0  0
    0.6724    3.5702    0.0000 H   0  0  0  0  0  0  0  0  0  0  0  0
   -0.0000   -2.5607    0.0000 H   0  0  0  0  0  0  0  0  0  0  0  0
    1.2990    1.8107    0.0000 H   0  0  0  0  0  0  0  0  0  0  0  0
   -1.3721   -0.7338    0.0000 H   0  0  0  0  0  0  0  0  0  0  0  0
  1  2  1  0
  2  3  1  0
  3  4  2  0
  4  5  1  0
  5  6  1  0
  6  7  1  0
  7  8  1  0
  8  9  1  0
  9  2  1  0
  8  5  1  0
  9  6  1  0
  1 10  1  0
  1 11  1  0
  1 12  1  0
  2 13  1  0
  3 14  1  0
  4 15  1  0
  5 16  1  0
  6 17  1  0
  8 18  1  0
  9 19  1  0
M  END
