
     RDKit          3D

 17 18  0  0  0  0  0  0  0  0999 V2000
   -1.9965   -0.8705    0.0109 C   0  0  0  0  0  0  0  0  0  0  0  0
   -0.9337   -0.2371   -0.9043 C   0  0  0  0  0  0  0  0  0  0  0  0
    0.4121   -0.5807   -0.6024 C   0  0  0  0  0  0  0  0  0  0  0  0
    1.3908    0.0651    0.3539 C   0  0  0  0  0  0  0  0  0  0  0  0
    2.5798   -0.6121    0.4243 O   0  0  0  0  0  0  0  0  0  0  0  0
    1.2908    1.1536   -0.6499 C   0  0  0  0  0  0  0  0  0  0  0  0
    2.0204    1.8750   -1.2600 O   0  0  0  0  0  0  0  0  0  0  0  0
   -0.1429    0.9046   -0.5214 C   0  0  0  0  0  0  0  0  0  0  0  0
   -0.5077    1.3261    0.7909 O   0  0  0  0  0  0  0  0  0  0  0  0
   -1.5195   -1.1871    0.9823 H   0  0  0  0  0  0  0  0  0  0  0  0
   -2.7897   -0.1506    0.2431 H   0  0  0  0  0  0  0  0  0  0  0  0
   -2.3415   -1.7865   -0.4866 H   0  0  0  0  0  0  0  0  0  0  0  0
   -1.3461   -0.1923   -1.9572 H   0  0  0  0  0  0  0  0  0  0  0  0
    1.0137   -0.7768   -1.5524 H   0  0  0  0  0  0  0  0  0  0  0  0
    1.0084    0.2890    1.3590 H   0  0  0  0  0  0  0  0  0  0  0  0
    2.3728   -1.5212    0.8107 H   0  0  0  0  0  0  0  0  0  0  0  0
   -0.5113    2.3016    0.7419 H   0  0  0  0  0  0  0  0  0  0  0  0
  1  2  1  0
  2  3  1  0
  3  4  1  0
  4  5  1  0
  4  6  1  0
  6  7  2  0
  6  8  1  0
  8  9  1  0
  8  2  1  0
  8  3  1  0
  1 10  1  0
  1 11  1  0
  1 12  1  0
  2 13  1  0
  3 14  1  0
  4 15  1  0
  5 16  1  0
  9 17  1  0
M  END
