
     RDKit          3D

 25 26  0  0  0  0  0  0  0  0999 V2000
   -1.9422    1.3991   -0.0235 C   0  0  0  0  0  0  0  0  0  0  0  0
   -1.3883    0.0345    0.2524 C   0  0  0  0  0  0  0  0  0  0  0  0
   -2.0212   -1.0972   -0.5353 C   0  0  0  0  0  0  0  0  0  0  0  0
   -0.5966   -1.6709   -0.6033 C   0  0  0  0  0  0  0  0  0  0  0  0
   -0.1411   -0.2341   -0.5862 C   0  0  0  0  0  0  0  0  0  0  0  0
    1.1567    0.0224    0.1359 C   0  0  0  0  0  0  0  0  0  0  0  0
    1.4473   -0.7660    1.3869 C   0  0  0  0  0  0  0  0  0  0  0  0
    1.5319    1.5049    0.1566 C   0  0  0  0  0  0  0  0  0  0  0  0
    2.3174    0.5284   -0.6234 C   0  0  0  0  0  0  0  0  0  0  0  0
   -1.5869    2.0774    0.7783 H   0  0  0  0  0  0  0  0  0  0  0  0
   -1.5042    1.8001   -0.9711 H   0  0  0  0  0  0  0  0  0  0  0  0
   -3.0444    1.4396   -0.0654 H   0  0  0  0  0  0  0  0  0  0  0  0
   -1.2749   -0.2535    1.2945 H   0  0  0  0  0  0  0  0  0  0  0  0
   -2.3592   -0.8025   -1.5568 H   0  0  0  0  0  0  0  0  0  0  0  0
   -2.6759   -1.7634    0.0208 H   0  0  0  0  0  0  0  0  0  0  0  0
   -0.4295   -2.2334   -1.5183 H   0  0  0  0  0  0  0  0  0  0  0  0
   -0.4013   -2.2330    0.3488 H   0  0  0  0  0  0  0  0  0  0  0  0
   -0.1786    0.1985   -1.5898 H   0  0  0  0  0  0  0  0  0  0  0  0
    1.8893   -1.7629    1.0998 H   0  0  0  0  0  0  0  0  0  0  0  0
    0.5199   -0.9911    1.9236 H   0  0  0  0  0  0  0  0  0  0  0  0
    2.1908   -0.2288    2.0171 H   0  0  0  0  0  0  0  0  0  0  0  0
    1.9624    1.8984    1.0962 H   0  0  0  0  0  0  0  0  0  0  0  0
    0.9366    2.2220   -0.4038 H   0  0  0  0  0  0  0  0  0  0  0  0
    2.2369    0.5633   -1.7457 H   0  0  0  0  0  0  0  0  0  0  0  0
    3.3552    0.3481   -0.2883 H   0  0  0  0  0  0  0  0  0  0  0  0
  1  2  1  0
  2  3  1  0
  3  4  1  0
  4  5  1  0
  5  6  1  0
  6  7  1  0
  6  8  1  0
  8  9  1  0
  5  2  1  0
  9  6  1  0
  1 10  1  0
  1 11  1  0
  1 12  1  0
  2 13  1  0
  3 14  1  0
  3 15  1  0
  4 16  1  0
  4 17  1  0
  5 18  1  0
  7 19  1  0
  7 20  1  0
  7 21  1  0
  8 22  1  0
  8 23  1  0
  9 24  1  0
  9 25  1  0
M  END
