
     RDKit          3D

 21 22  0  0  0  0  0  0  0  0999 V2000
    1.9254    0.3780   -0.8859 C   0  0  0  0  0  0  0  0  0  0  0  0
    1.4106   -0.3465    0.3286 C   0  0  0  0  0  0  0  0  0  0  0  0
    0.2869    0.2443    1.1176 C   0  0  0  0  0  0  0  0  0  0  0  0
   -0.4364    1.4524    0.6487 C   0  0  0  0  0  0  0  0  0  0  0  0
   -0.9335    1.3900   -0.6248 O   0  0  0  0  0  0  0  0  0  0  0  0
   -1.8064    0.2818   -0.6758 C   0  0  0  0  0  0  0  0  0  0  0  0
   -0.8655   -0.9253   -0.7853 C   0  0  0  0  0  0  0  0  0  0  0  0
    0.0825   -0.9894    0.3543 C   0  0  0  0  0  0  0  0  0  0  0  0
    0.0572   -2.2337    1.0299 O   0  0  0  0  0  0  0  0  0  0  0  0
    1.2694    0.3389   -1.7527 H   0  0  0  0  0  0  0  0  0  0  0  0
    2.1164    1.4491   -0.6617 H   0  0  0  0  0  0  0  0  0  0  0  0
    2.9061   -0.0454   -1.1932 H   0  0  0  0  0  0  0  0  0  0  0  0
    2.2298   -0.7652    0.9623 H   0  0  0  0  0  0  0  0  0  0  0  0
    0.2880    0.1175    2.2400 H   0  0  0  0  0  0  0  0  0  0  0  0
   -1.3179    1.6093    1.3367 H   0  0  0  0  0  0  0  0  0  0  0  0
    0.1559    2.4005    0.7438 H   0  0  0  0  0  0  0  0  0  0  0  0
   -2.4657    0.3128   -1.5533 H   0  0  0  0  0  0  0  0  0  0  0  0
   -2.3469    0.2654    0.2940 H   0  0  0  0  0  0  0  0  0  0  0  0
   -1.5375   -1.8267   -0.8566 H   0  0  0  0  0  0  0  0  0  0  0  0
   -0.3921   -0.8438   -1.7841 H   0  0  0  0  0  0  0  0  0  0  0  0
   -0.6262   -2.2641    1.7174 H   0  0  0  0  0  0  0  0  0  0  0  0
  1  2  1  0
  2  3  1  0
  3  4  1  0
  4  5  1  0
  5  6  1  0
  6  7  1  0
  7  8  1  0
  8  9  1  0
  8  2  1  0
  8  3  1  0
  1 10  1  0
  1 11  1  0
  1 12  1  0
  2 13  1  0
  3 14  1  0
  4 15  1  0
  4 16  1  0
  6 17  1  0
  6 18  1  0
  7 19  1  0
  7 20  1  0
  9 21  1  0
M  END
