
     RDKit          3D

 21 21  0  0  0  0  0  0  0  0999 V2000
    1.4735   -0.9458    0.5737 C   0  0  0  0  0  0  0  0  0  0  0  0
    0.6491   -0.2586   -0.4736 C   0  0  0  0  0  0  0  0  0  0  0  0
    1.2596    1.0713   -0.7878 C   0  0  0  0  0  0  0  0  0  0  0  0
    0.2231    2.0265   -0.3475 C   0  0  0  0  0  0  0  0  0  0  0  0
    0.4408    3.2194    0.0421 O   0  0  0  0  0  0  0  0  0  0  0  0
   -0.9877    1.3568   -0.4508 O   0  0  0  0  0  0  0  0  0  0  0  0
   -0.7578    0.0111   -0.0727 C   0  0  0  0  0  0  0  0  0  0  0  0
   -1.0062   -0.1096    1.4099 C   0  0  0  0  0  0  0  0  0  0  0  0
   -1.7112   -0.8539   -0.8781 C   0  0  0  0  0  0  0  0  0  0  0  0
    1.7814   -0.2109    1.3354 H   0  0  0  0  0  0  0  0  0  0  0  0
    2.4318   -1.2624    0.0657 H   0  0  0  0  0  0  0  0  0  0  0  0
    1.0231   -1.8587    0.9724 H   0  0  0  0  0  0  0  0  0  0  0  0
    0.7236   -0.8875   -1.4036 H   0  0  0  0  0  0  0  0  0  0  0  0
    1.3660    1.2162   -1.8996 H   0  0  0  0  0  0  0  0  0  0  0  0
    2.2354    1.2191   -0.2817 H   0  0  0  0  0  0  0  0  0  0  0  0
   -1.4457    0.8275    1.8185 H   0  0  0  0  0  0  0  0  0  0  0  0
   -1.8084   -0.8877    1.5396 H   0  0  0  0  0  0  0  0  0  0  0  0
   -0.1400   -0.4404    1.9832 H   0  0  0  0  0  0  0  0  0  0  0  0
   -1.2021   -1.8405   -1.0262 H   0  0  0  0  0  0  0  0  0  0  0  0
   -2.6336   -0.9648   -0.2525 H   0  0  0  0  0  0  0  0  0  0  0  0
   -1.9147   -0.4272   -1.8664 H   0  0  0  0  0  0  0  0  0  0  0  0
  1  2  1  0
  2  3  1  0
  3  4  1  0
  4  5  2  0
  4  6  1  0
  6  7  1  0
  7  8  1  0
  7  9  1  0
  7  2  1  0
  1 10  1  0
  1 11  1  0
  1 12  1  0
  2 13  1  0
  3 14  1  0
  3 15  1  0
  8 16  1  0
  8 17  1  0
  8 18  1  0
  9 19  1  0
  9 20  1  0
  9 21  1  0
M  END
