
     RDKit          3D

 21 21  0  0  0  0  0  0  0  0999 V2000
   -2.7509    0.6350   -0.7599 C   0  0  0  0  0  0  0  0  0  0  0  0
   -1.5392    0.5045    0.1393 C   0  0  0  0  0  0  0  0  0  0  0  0
   -1.2044   -0.9185    0.5405 C   0  0  0  0  0  0  0  0  0  0  0  0
   -0.9244   -1.0915    1.8906 O   0  0  0  0  0  0  0  0  0  0  0  0
   -0.3167   -0.1632   -0.3697 C   0  0  0  0  0  0  0  0  0  0  0  0
    1.0084    0.3516    0.1262 C   0  0  0  0  0  0  0  0  0  0  0  0
    2.1748   -0.4019   -0.4763 C   0  0  0  0  0  0  0  0  0  0  0  0
    3.4613    0.1355    0.0190 C   0  0  0  0  0  0  0  0  0  0  0  0
    4.0660   -0.3614    0.9389 O   0  0  0  0  0  0  0  0  0  0  0  0
   -2.6169    1.5154   -1.4602 H   0  0  0  0  0  0  0  0  0  0  0  0
   -3.6116    0.9088   -0.1173 H   0  0  0  0  0  0  0  0  0  0  0  0
   -2.9374   -0.2869   -1.3292 H   0  0  0  0  0  0  0  0  0  0  0  0
   -1.4037    1.3316    0.8273 H   0  0  0  0  0  0  0  0  0  0  0  0
   -1.7653   -1.7635    0.1043 H   0  0  0  0  0  0  0  0  0  0  0  0
   -1.7385   -0.7486    2.3845 H   0  0  0  0  0  0  0  0  0  0  0  0
   -0.2772   -0.4886   -1.4331 H   0  0  0  0  0  0  0  0  0  0  0  0
    1.1333    1.4327   -0.1141 H   0  0  0  0  0  0  0  0  0  0  0  0
    1.0716    0.2181    1.2385 H   0  0  0  0  0  0  0  0  0  0  0  0
    2.1604   -0.3714   -1.5690 H   0  0  0  0  0  0  0  0  0  0  0  0
    2.0933   -1.4633   -0.1321 H   0  0  0  0  0  0  0  0  0  0  0  0
    3.9170    1.0256   -0.4483 H   0  0  0  0  0  0  0  0  0  0  0  0
  1  2  1  0
  2  3  1  0
  3  4  1  0
  3  5  1  0
  5  6  1  0
  6  7  1  0
  7  8  1  0
  8  9  2  0
  5  2  1  0
  1 10  1  0
  1 11  1  0
  1 12  1  0
  2 13  1  0
  3 14  1  0
  4 15  1  0
  5 16  1  0
  6 17  1  0
  6 18  1  0
  7 19  1  0
  7 20  1  0
  8 21  1  0
M  END
