
     RDKit          3D

 19 20  0  0  0  0  0  0  0  0999 V2000
    2.2881   -0.2025    0.0144 C   0  0  0  0  0  0  0  0  0  0  0  0
    1.1128    0.0571   -0.9085 C   0  0  0  0  0  0  0  0  0  0  0  0
    0.1278    1.0495   -0.2772 C   0  0  0  0  0  0  0  0  0  0  0  0
    0.6843    1.7624    0.7578 O   0  0  0  0  0  0  0  0  0  0  0  0
   -0.7001   -0.1537    0.1088 C   0  0  0  0  0  0  0  0  0  0  0  0
   -2.1867   -0.0222    0.2514 C   0  0  0  0  0  0  0  0  0  0  0  0
   -2.7836   -1.1673   -0.2957 O   0  0  0  0  0  0  0  0  0  0  0  0
   -0.1135   -1.2341    0.7285 O   0  0  0  0  0  0  0  0  0  0  0  0
    0.0597   -1.0060   -0.6364 C   0  0  0  0  0  0  0  0  0  0  0  0
    1.8388   -0.3322    1.0426 H   0  0  0  0  0  0  0  0  0  0  0  0
    2.7351   -1.1614   -0.2503 H   0  0  0  0  0  0  0  0  0  0  0  0
    2.9854    0.6387    0.0691 H   0  0  0  0  0  0  0  0  0  0  0  0
    1.3444    0.2530   -1.9488 H   0  0  0  0  0  0  0  0  0  0  0  0
   -0.4392    1.6479   -1.0378 H   0  0  0  0  0  0  0  0  0  0  0  0
    0.7429    2.7202    0.4443 H   0  0  0  0  0  0  0  0  0  0  0  0
   -2.4074   -0.0326    1.3556 H   0  0  0  0  0  0  0  0  0  0  0  0
   -2.5194    0.8986   -0.2409 H   0  0  0  0  0  0  0  0  0  0  0  0
   -2.6418   -1.9258    0.3189 H   0  0  0  0  0  0  0  0  0  0  0  0
   -0.1275   -1.7897   -1.3646 H   0  0  0  0  0  0  0  0  0  0  0  0
  1  2  1  0
  2  3  1  0
  3  4  1  0
  3  5  1  0
  5  6  1  0
  6  7  1  0
  5  8  1  0
  8  9  1  0
  9  2  1  0
  9  5  1  0
  1 10  1  0
  1 11  1  0
  1 12  1  0
  2 13  1  0
  3 14  1  0
  4 15  1  0
  6 16  1  0
  6 17  1  0
  7 18  1  0
  9 19  1  0
M  END
