
     RDKit          3D

 23 23  0  0  0  0  0  0  0  0999 V2000
    1.7828   -0.4293    0.9381 C   0  0  0  0  0  0  0  0  0  0  0  0
    1.2926   -0.0035   -0.3866 C   0  0  0  0  0  0  0  0  0  0  0  0
    0.8611   -1.2081   -1.1883 C   0  0  0  0  0  0  0  0  0  0  0  0
   -0.4629   -1.2591   -1.2269 C   0  0  0  0  0  0  0  0  0  0  0  0
   -1.0573   -0.1148   -0.4688 C   0  0  0  0  0  0  0  0  0  0  0  0
   -1.4883   -0.6340    0.8650 C   0  0  0  0  0  0  0  0  0  0  0  0
   -2.1598    0.4270   -1.1149 O   0  0  0  0  0  0  0  0  0  0  0  0
    0.0868    0.8442   -0.4178 C   0  0  0  0  0  0  0  0  0  0  0  0
   -0.0119    1.8773    0.6487 C   0  0  0  0  0  0  0  0  0  0  0  0
    1.4580   -1.4665    1.2398 H   0  0  0  0  0  0  0  0  0  0  0  0
    1.5640    0.2194    1.7801 H   0  0  0  0  0  0  0  0  0  0  0  0
    2.9088   -0.5116    0.8876 H   0  0  0  0  0  0  0  0  0  0  0  0
    2.1152    0.5268   -0.9506 H   0  0  0  0  0  0  0  0  0  0  0  0
    1.5514   -1.8966   -1.6432 H   0  0  0  0  0  0  0  0  0  0  0  0
   -1.1011   -1.9983   -1.7202 H   0  0  0  0  0  0  0  0  0  0  0  0
   -1.4787    0.0941    1.6755 H   0  0  0  0  0  0  0  0  0  0  0  0
   -0.9381   -1.5756    1.1530 H   0  0  0  0  0  0  0  0  0  0  0  0
   -2.5582   -0.9707    0.7512 H   0  0  0  0  0  0  0  0  0  0  0  0
   -2.2288    0.1060   -2.0326 H   0  0  0  0  0  0  0  0  0  0  0  0
    0.0771    1.3946   -1.4022 H   0  0  0  0  0  0  0  0  0  0  0  0
   -0.9808    2.4214    0.4995 H   0  0  0  0  0  0  0  0  0  0  0  0
    0.7794    2.6463    0.4436 H   0  0  0  0  0  0  0  0  0  0  0  0
   -0.0111    1.5112    1.6699 H   0  0  0  0  0  0  0  0  0  0  0  0
  1  2  1  0
  2  3  1  0
  3  4  2  0
  4  5  1  0
  5  6  1  0
  5  7  1  0
  5  8  1  0
  8  9  1  0
  8  2  1  0
  1 10  1  0
  1 11  1  0
  1 12  1  0
  2 13  1  0
  3 14  1  0
  4 15  1  0
  6 16  1  0
  6 17  1  0
  6 18  1  0
  7 19  1  0
  8 20  1  0
  9 21  1  0
  9 22  1  0
  9 23  1  0
M  END
