
     RDKit          3D

 21 22  0  0  0  0  0  0  0  0999 V2000
    2.5463    0.0441    0.2765 C   0  0  0  0  0  0  0  0  0  0  0  0
    1.3248   -0.4564   -0.4940 C   0  0  0  0  0  0  0  0  0  0  0  0
    0.3885    0.6684   -0.7725 C   0  0  0  0  0  0  0  0  0  0  0  0
   -0.9820    0.2773   -0.3420 C   0  0  0  0  0  0  0  0  0  0  0  0
   -1.9273    1.4203   -0.0877 C   0  0  0  0  0  0  0  0  0  0  0  0
   -1.5992   -1.0095   -0.7073 C   0  0  0  0  0  0  0  0  0  0  0  0
   -0.8086   -0.8436    0.5725 C   0  0  0  0  0  0  0  0  0  0  0  0
    0.5973   -1.3387    0.4319 C   0  0  0  0  0  0  0  0  0  0  0  0
    1.0674   -2.3036    0.9839 O   0  0  0  0  0  0  0  0  0  0  0  0
    2.9269    0.9596   -0.1806 H   0  0  0  0  0  0  0  0  0  0  0  0
    2.1490    0.3093    1.2974 H   0  0  0  0  0  0  0  0  0  0  0  0
    3.2827   -0.7536    0.4112 H   0  0  0  0  0  0  0  0  0  0  0  0
    1.6422   -0.9522   -1.4313 H   0  0  0  0  0  0  0  0  0  0  0  0
    0.4660    0.9822   -1.8258 H   0  0  0  0  0  0  0  0  0  0  0  0
    0.6996    1.5509   -0.1466 H   0  0  0  0  0  0  0  0  0  0  0  0
   -1.5338    2.3643   -0.5640 H   0  0  0  0  0  0  0  0  0  0  0  0
   -2.8908    1.2193   -0.6244 H   0  0  0  0  0  0  0  0  0  0  0  0
   -2.1701    1.5698    0.9668 H   0  0  0  0  0  0  0  0  0  0  0  0
   -1.2066   -1.6456   -1.5191 H   0  0  0  0  0  0  0  0  0  0  0  0
   -2.6782   -1.1208   -0.5442 H   0  0  0  0  0  0  0  0  0  0  0  0
   -1.2941   -0.9415    1.5429 H   0  0  0  0  0  0  0  0  0  0  0  0
  1  2  1  0
  2  3  1  0
  3  4  1  0
  4  5  1  0
  4  6  1  0
  6  7  1  0
  7  8  1  0
  8  9  2  0
  8  2  1  0
  7  4  1  0
  1 10  1  0
  1 11  1  0
  1 12  1  0
  2 13  1  0
  3 14  1  0
  3 15  1  0
  5 16  1  0
  5 17  1  0
  5 18  1  0
  6 19  1  0
  6 20  1  0
  7 21  1  0
M  END
