
     RDKit          3D

 21 21  0  0  0  0  0  0  0  0999 V2000
    2.4369    0.2839   -0.5000 C   0  0  0  0  0  0  0  0  0  0  0  0
    0.9670    0.5734   -0.2966 C   0  0  0  0  0  0  0  0  0  0  0  0
    0.6035    0.7618    1.1074 C   0  0  0  0  0  0  0  0  0  0  0  0
   -0.5727    0.2321    1.3495 C   0  0  0  0  0  0  0  0  0  0  0  0
   -1.1168   -0.3696    0.1173 C   0  0  0  0  0  0  0  0  0  0  0  0
   -2.1350    0.5747   -0.4743 C   0  0  0  0  0  0  0  0  0  0  0  0
   -1.7114   -1.5802    0.4147 O   0  0  0  0  0  0  0  0  0  0  0  0
    0.0996   -0.5352   -0.7761 C   0  0  0  0  0  0  0  0  0  0  0  0
    0.6638   -1.7887   -0.6881 O   0  0  0  0  0  0  0  0  0  0  0  0
    2.9760    0.5882    0.4106 H   0  0  0  0  0  0  0  0  0  0  0  0
    2.6008   -0.8067   -0.6716 H   0  0  0  0  0  0  0  0  0  0  0  0
    2.8102    0.8782   -1.3647 H   0  0  0  0  0  0  0  0  0  0  0  0
    0.6768    1.5112   -0.8477 H   0  0  0  0  0  0  0  0  0  0  0  0
    1.2123    1.2788    1.8984 H   0  0  0  0  0  0  0  0  0  0  0  0
   -1.1153    0.2156    2.3197 H   0  0  0  0  0  0  0  0  0  0  0  0
   -2.7362    0.0510   -1.2569 H   0  0  0  0  0  0  0  0  0  0  0  0
   -2.7897    0.8952    0.3885 H   0  0  0  0  0  0  0  0  0  0  0  0
   -1.6647    1.4728   -0.9007 H   0  0  0  0  0  0  0  0  0  0  0  0
   -1.7512   -1.7295    1.3877 H   0  0  0  0  0  0  0  0  0  0  0  0
   -0.1621   -0.3661   -1.8533 H   0  0  0  0  0  0  0  0  0  0  0  0
    0.7082   -2.1410    0.2360 H   0  0  0  0  0  0  0  0  0  0  0  0
  1  2  1  0
  2  3  1  0
  3  4  2  0
  4  5  1  0
  5  6  1  0
  5  7  1  0
  5  8  1  0
  8  9  1  0
  8  2  1  0
  1 10  1  0
  1 11  1  0
  1 12  1  0
  2 13  1  0
  3 14  1  0
  4 15  1  0
  6 16  1  0
  6 17  1  0
  6 18  1  0
  7 19  1  0
  8 20  1  0
  9 21  1  0
M  END
