
     RDKit          3D

 20 20  0  0  0  0  0  0  0  0999 V2000
    1.7116    0.8799    0.2461 C   0  0  0  0  0  0  0  0  0  0  0  0
    0.7812   -0.2478    0.4913 C   0  0  0  0  0  0  0  0  0  0  0  0
    0.9977   -1.3709   -0.5049 C   0  0  0  0  0  0  0  0  0  0  0  0
   -0.1071   -1.3722   -1.3400 O   0  0  0  0  0  0  0  0  0  0  0  0
   -1.1744   -1.0604   -0.5174 C   0  0  0  0  0  0  0  0  0  0  0  0
   -0.6569    0.0490    0.3621 C   0  0  0  0  0  0  0  0  0  0  0  0
   -0.9767    1.3622   -0.3045 C   0  0  0  0  0  0  0  0  0  0  0  0
   -1.3649    0.0278    1.5659 O   0  0  0  0  0  0  0  0  0  0  0  0
    2.4454    0.6014   -0.5552 H   0  0  0  0  0  0  0  0  0  0  0  0
    2.3492    1.0813    1.1528 H   0  0  0  0  0  0  0  0  0  0  0  0
    1.2482    1.8371   -0.0118 H   0  0  0  0  0  0  0  0  0  0  0  0
    0.9748   -0.6690    1.5148 H   0  0  0  0  0  0  0  0  0  0  0  0
    1.0743   -2.3592    0.0050 H   0  0  0  0  0  0  0  0  0  0  0  0
    1.9493   -1.1892   -1.0508 H   0  0  0  0  0  0  0  0  0  0  0  0
   -1.4829   -1.8863    0.1462 H   0  0  0  0  0  0  0  0  0  0  0  0
   -2.0203   -0.6726   -1.0970 H   0  0  0  0  0  0  0  0  0  0  0  0
   -0.3822    1.5605   -1.2060 H   0  0  0  0  0  0  0  0  0  0  0  0
   -0.9866    2.1615    0.4382 H   0  0  0  0  0  0  0  0  0  0  0  0
   -2.0429    1.2601   -0.6661 H   0  0  0  0  0  0  0  0  0  0  0  0
   -2.3369    0.0067    1.3313 H   0  0  0  0  0  0  0  0  0  0  0  0
  1  2  1  0
  2  3  1  0
  3  4  1  0
  4  5  1  0
  5  6  1  0
  6  7  1  0
  6  8  1  0
  6  2  1  0
  1  9  1  0
  1 10  1  0
  1 11  1  0
  2 12  1  0
  3 13  1  0
  3 14  1  0
  5 15  1  0
  5 16  1  0
  7 17  1  0
  7 18  1  0
  7 19  1  0
  8 20  1  0
M  END
