
     RDKit          3D

 19 19  0  0  0  0  0  0  0  0999 V2000
    2.1365    0.2866    0.9826 C   0  0  0  0  0  0  0  0  0  0  0  0
    1.3408    0.4752   -0.2728 C   0  0  0  0  0  0  0  0  0  0  0  0
   -0.0267    0.9436   -0.0673 C   0  0  0  0  0  0  0  0  0  0  0  0
   -0.9030   -0.0405   -0.2151 C   0  0  0  0  0  0  0  0  0  0  0  0
   -2.3837    0.0401   -0.0856 C   0  0  0  0  0  0  0  0  0  0  0  0
   -2.7322    1.3517    0.2262 O   0  0  0  0  0  0  0  0  0  0  0  0
   -0.1755   -1.2994   -0.5438 C   0  0  0  0  0  0  0  0  0  0  0  0
    1.1856   -0.8475   -0.9285 C   0  0  0  0  0  0  0  0  0  0  0  0
    2.0231   -1.3814   -1.6121 O   0  0  0  0  0  0  0  0  0  0  0  0
    1.5912   -0.1891    1.8005 H   0  0  0  0  0  0  0  0  0  0  0  0
    2.9893   -0.3770    0.7145 H   0  0  0  0  0  0  0  0  0  0  0  0
    2.6135    1.2520    1.3190 H   0  0  0  0  0  0  0  0  0  0  0  0
    1.9386    1.1091   -0.9563 H   0  0  0  0  0  0  0  0  0  0  0  0
   -0.3114    1.9595    0.1752 H   0  0  0  0  0  0  0  0  0  0  0  0
   -2.7382   -0.6627    0.6857 H   0  0  0  0  0  0  0  0  0  0  0  0
   -2.8951   -0.2152   -1.0285 H   0  0  0  0  0  0  0  0  0  0  0  0
   -2.9237    1.3742    1.2035 H   0  0  0  0  0  0  0  0  0  0  0  0
   -0.0582   -1.9237    0.3738 H   0  0  0  0  0  0  0  0  0  0  0  0
   -0.6709   -1.8557   -1.3660 H   0  0  0  0  0  0  0  0  0  0  0  0
  1  2  1  0
  2  3  1  0
  3  4  2  0
  4  5  1  0
  5  6  1  0
  4  7  1  0
  7  8  1  0
  8  9  2  0
  8  2  1  0
  1 10  1  0
  1 11  1  0
  1 12  1  0
  2 13  1  0
  3 14  1  0
  5 15  1  0
  5 16  1  0
  6 17  1  0
  7 18  1  0
  7 19  1  0
M  END
