
     RDKit          3D

 21 22  0  0  0  0  0  0  0  0999 V2000
   -1.7595    0.0350    0.8031 C   0  0  0  0  0  0  0  0  0  0  0  0
   -1.1620   -0.1303   -0.5831 C   0  0  0  0  0  0  0  0  0  0  0  0
   -0.8304   -1.5604   -0.7292 C   0  0  0  0  0  0  0  0  0  0  0  0
    0.4420   -1.7439   -0.4613 C   0  0  0  0  0  0  0  0  0  0  0  0
    1.0788   -0.4601   -0.1140 C   0  0  0  0  0  0  0  0  0  0  0  0
    2.0898   -0.3181    0.7798 C   0  0  0  0  0  0  0  0  0  0  0  0
    2.4597   -0.4243   -0.6652 O   0  0  0  0  0  0  0  0  0  0  0  0
    0.1515    0.5602   -0.7108 C   0  0  0  0  0  0  0  0  0  0  0  0
    0.1627    1.8754    0.0142 C   0  0  0  0  0  0  0  0  0  0  0  0
   -1.1108   -0.4045    1.5678 H   0  0  0  0  0  0  0  0  0  0  0  0
   -2.7369   -0.5179    0.7761 H   0  0  0  0  0  0  0  0  0  0  0  0
   -1.9971    1.0783    1.0427 H   0  0  0  0  0  0  0  0  0  0  0  0
   -1.9111    0.1883   -1.3392 H   0  0  0  0  0  0  0  0  0  0  0  0
   -1.5797   -2.3116   -1.0210 H   0  0  0  0  0  0  0  0  0  0  0  0
    0.9124   -2.7401   -0.5062 H   0  0  0  0  0  0  0  0  0  0  0  0
    2.5411   -1.1609    1.3289 H   0  0  0  0  0  0  0  0  0  0  0  0
    2.5084    0.6633    1.1192 H   0  0  0  0  0  0  0  0  0  0  0  0
    0.3876    0.7057   -1.7827 H   0  0  0  0  0  0  0  0  0  0  0  0
    0.8920    2.5390   -0.4698 H   0  0  0  0  0  0  0  0  0  0  0  0
    0.3061    1.7883    1.0950 H   0  0  0  0  0  0  0  0  0  0  0  0
   -0.8447    2.3388   -0.1441 H   0  0  0  0  0  0  0  0  0  0  0  0
  1  2  1  0
  2  3  1  0
  3  4  2  0
  4  5  1  0
  5  6  1  0
  6  7  1  0
  5  8  1  0
  8  9  1  0
  8  2  1  0
  7  5  1  0
  1 10  1  0
  1 11  1  0
  1 12  1  0
  2 13  1  0
  3 14  1  0
  4 15  1  0
  6 16  1  0
  6 17  1  0
  8 18  1  0
  9 19  1  0
  9 20  1  0
  9 21  1  0
M  END
