
     RDKit          3D

 23 24  0  0  0  0  0  0  0  0999 V2000
   -1.6396    1.4143    0.7910 C   0  0  0  0  0  0  0  0  0  0  0  0
   -0.8236    0.9707   -0.4147 C   0  0  0  0  0  0  0  0  0  0  0  0
   -1.0189   -0.4376   -0.9088 C   0  0  0  0  0  0  0  0  0  0  0  0
   -2.1451   -1.2010   -0.2964 C   0  0  0  0  0  0  0  0  0  0  0  0
    0.1999   -0.0640   -0.2064 C   0  0  0  0  0  0  0  0  0  0  0  0
    1.4759    0.0777   -0.9750 C   0  0  0  0  0  0  0  0  0  0  0  0
    2.4848   -0.5618   -0.0198 C   0  0  0  0  0  0  0  0  0  0  0  0
    1.8334   -0.2239    1.3136 C   0  0  0  0  0  0  0  0  0  0  0  0
    0.4883   -0.4234    1.0803 O   0  0  0  0  0  0  0  0  0  0  0  0
   -1.6849    0.5736    1.4960 H   0  0  0  0  0  0  0  0  0  0  0  0
   -2.6458    1.7509    0.4377 H   0  0  0  0  0  0  0  0  0  0  0  0
   -1.1091    2.3013    1.2055 H   0  0  0  0  0  0  0  0  0  0  0  0
   -0.6377    1.7929   -1.1424 H   0  0  0  0  0  0  0  0  0  0  0  0
   -0.9461   -0.5332   -2.0262 H   0  0  0  0  0  0  0  0  0  0  0  0
   -2.2910   -2.1354   -0.9092 H   0  0  0  0  0  0  0  0  0  0  0  0
   -1.9649   -1.5423    0.7342 H   0  0  0  0  0  0  0  0  0  0  0  0
   -3.0855   -0.6278   -0.4210 H   0  0  0  0  0  0  0  0  0  0  0  0
    1.7760    1.1521   -1.1006 H   0  0  0  0  0  0  0  0  0  0  0  0
    1.4755   -0.4279   -1.9552 H   0  0  0  0  0  0  0  0  0  0  0  0
    3.4877   -0.1535   -0.1277 H   0  0  0  0  0  0  0  0  0  0  0  0
    2.4388   -1.6540   -0.1789 H   0  0  0  0  0  0  0  0  0  0  0  0
    2.0779    0.8435    1.5368 H   0  0  0  0  0  0  0  0  0  0  0  0
    2.2540   -0.8912    2.0871 H   0  0  0  0  0  0  0  0  0  0  0  0
  1  2  1  0
  2  3  1  0
  3  4  1  0
  3  5  1  0
  5  6  1  0
  6  7  1  0
  7  8  1  0
  8  9  1  0
  5  2  1  0
  9  5  1  0
  1 10  1  0
  1 11  1  0
  1 12  1  0
  2 13  1  0
  3 14  1  0
  4 15  1  0
  4 16  1  0
  4 17  1  0
  6 18  1  0
  6 19  1  0
  7 20  1  0
  7 21  1  0
  8 22  1  0
  8 23  1  0
M  END
