
     RDKit          3D

 21 22  0  0  0  0  0  0  0  0999 V2000
    1.9519   -1.1188   -0.2397 C   0  0  0  0  0  0  0  0  0  0  0  0
    0.8048   -0.4633    0.4514 C   0  0  0  0  0  0  0  0  0  0  0  0
    0.8559    1.0149    0.6265 C   0  0  0  0  0  0  0  0  0  0  0  0
   -0.6299    0.9978    0.2606 C   0  0  0  0  0  0  0  0  0  0  0  0
   -1.5708    1.3048    1.1851 O   0  0  0  0  0  0  0  0  0  0  0  0
   -0.8674    0.7569   -1.1599 C   0  0  0  0  0  0  0  0  0  0  0  0
    0.0283    1.3904   -2.0419 O   0  0  0  0  0  0  0  0  0  0  0  0
   -0.4533   -0.3611   -0.3142 C   0  0  0  0  0  0  0  0  0  0  0  0
   -1.4380   -1.4660   -0.0778 C   0  0  0  0  0  0  0  0  0  0  0  0
    1.8908   -2.2210   -0.0032 H   0  0  0  0  0  0  0  0  0  0  0  0
    2.9161   -0.7840    0.1837 H   0  0  0  0  0  0  0  0  0  0  0  0
    1.8513   -0.9827   -1.3150 H   0  0  0  0  0  0  0  0  0  0  0  0
    0.6228   -0.9584    1.4491 H   0  0  0  0  0  0  0  0  0  0  0  0
    1.0850    1.4121    1.6111 H   0  0  0  0  0  0  0  0  0  0  0  0
    1.4670    1.4719   -0.1980 H   0  0  0  0  0  0  0  0  0  0  0  0
   -1.5211    2.2728    1.3866 H   0  0  0  0  0  0  0  0  0  0  0  0
   -1.8952    0.7689   -1.5179 H   0  0  0  0  0  0  0  0  0  0  0  0
   -0.1405    2.3729   -1.9015 H   0  0  0  0  0  0  0  0  0  0  0  0
   -2.4074   -1.2870   -0.5818 H   0  0  0  0  0  0  0  0  0  0  0  0
   -1.5452   -1.7405    0.9842 H   0  0  0  0  0  0  0  0  0  0  0  0
   -1.0051   -2.3804   -0.5831 H   0  0  0  0  0  0  0  0  0  0  0  0
  1  2  1  0
  2  3  1  0
  3  4  1  0
  4  5  1  0
  4  6  1  0
  6  7  1  0
  6  8  1  0
  8  9  1  0
  8  2  1  0
  8  4  1  0
  1 10  1  0
  1 11  1  0
  1 12  1  0
  2 13  1  0
  3 14  1  0
  3 15  1  0
  5 16  1  0
  6 17  1  0
  7 18  1  0
  9 19  1  0
  9 20  1  0
  9 21  1  0
M  END
