
     RDKit          3D

 15 15  0  0  0  0  0  0  0  0999 V2000
   -1.5533   -0.5390    0.2626 C   0  0  0  0  0  0  0  0  0  0  0  0
   -0.5332    0.2321   -0.5105 C   0  0  0  0  0  0  0  0  0  0  0  0
    0.7609   -0.5018   -0.7174 C   0  0  0  0  0  0  0  0  0  0  0  0
    1.5829   -0.1307    0.5009 C   0  0  0  0  0  0  0  0  0  0  0  0
    1.1421    1.1922    0.8151 O   0  0  0  0  0  0  0  0  0  0  0  0
   -0.0833    1.4355    0.2321 C   0  0  0  0  0  0  0  0  0  0  0  0
   -0.7154    2.5147    0.3213 O   0  0  0  0  0  0  0  0  0  0  0  0
   -2.5672   -0.3082   -0.1291 H   0  0  0  0  0  0  0  0  0  0  0  0
   -1.5587   -0.2007    1.3327 H   0  0  0  0  0  0  0  0  0  0  0  0
   -1.4002   -1.6151    0.2772 H   0  0  0  0  0  0  0  0  0  0  0  0
   -0.9537    0.4786   -1.5079 H   0  0  0  0  0  0  0  0  0  0  0  0
    0.6645   -1.5712   -0.8731 H   0  0  0  0  0  0  0  0  0  0  0  0
    1.2652   -0.0184   -1.5925 H   0  0  0  0  0  0  0  0  0  0  0  0
    1.2831   -0.8061    1.3093 H   0  0  0  0  0  0  0  0  0  0  0  0
    2.6663   -0.1618    0.2792 H   0  0  0  0  0  0  0  0  0  0  0  0
  1  2  1  0
  2  3  1  0
  3  4  1  0
  4  5  1  0
  5  6  1  0
  6  7  2  0
  6  2  1  0
  1  8  1  0
  1  9  1  0
  1 10  1  0
  2 11  1  0
  3 12  1  0
  3 13  1  0
  4 14  1  0
  4 15  1  0
M  END
