
     RDKit          3D

 27 27  0  0  0  0  0  0  0  0999 V2000
   -2.0111    1.7870    0.3195 C   0  0  0  0  0  0  0  0  0  0  0  0
   -1.0519    0.5996    0.3380 C   0  0  0  0  0  0  0  0  0  0  0  0
   -1.7314   -0.5654   -0.2832 C   0  0  0  0  0  0  0  0  0  0  0  0
   -1.0345   -1.8492   -0.2433 C   0  0  0  0  0  0  0  0  0  0  0  0
    0.3129   -1.8746    0.4060 C   0  0  0  0  0  0  0  0  0  0  0  0
    1.3494   -1.0749   -0.3221 C   0  0  0  0  0  0  0  0  0  0  0  0
    1.3441    0.3150    0.2162 C   0  0  0  0  0  0  0  0  0  0  0  0
    2.6466    1.0471    0.0367 C   0  0  0  0  0  0  0  0  0  0  0  0
    0.1827    1.0436   -0.4229 C   0  0  0  0  0  0  0  0  0  0  0  0
   -1.8859    2.4151    1.2270 H   0  0  0  0  0  0  0  0  0  0  0  0
   -3.0595    1.4658    0.2957 H   0  0  0  0  0  0  0  0  0  0  0  0
   -1.8058    2.4283   -0.5701 H   0  0  0  0  0  0  0  0  0  0  0  0
   -0.8256    0.3704    1.3926 H   0  0  0  0  0  0  0  0  0  0  0  0
   -2.7625   -0.6292    0.1751 H   0  0  0  0  0  0  0  0  0  0  0  0
   -1.9421   -0.2958   -1.3602 H   0  0  0  0  0  0  0  0  0  0  0  0
   -1.6693   -2.5987    0.3088 H   0  0  0  0  0  0  0  0  0  0  0  0
   -0.9142   -2.3014   -1.2664 H   0  0  0  0  0  0  0  0  0  0  0  0
    0.3133   -1.5940    1.4616 H   0  0  0  0  0  0  0  0  0  0  0  0
    0.6615   -2.9484    0.3671 H   0  0  0  0  0  0  0  0  0  0  0  0
    1.0887   -1.0373   -1.4080 H   0  0  0  0  0  0  0  0  0  0  0  0
    2.3735   -1.5282   -0.2644 H   0  0  0  0  0  0  0  0  0  0  0  0
    1.1777    0.2467    1.3307 H   0  0  0  0  0  0  0  0  0  0  0  0
    2.5259    2.0360    0.5535 H   0  0  0  0  0  0  0  0  0  0  0  0
    2.9202    1.2252   -1.0068 H   0  0  0  0  0  0  0  0  0  0  0  0
    3.4139    0.5039    0.6133 H   0  0  0  0  0  0  0  0  0  0  0  0
    0.0519    0.6921   -1.4840 H   0  0  0  0  0  0  0  0  0  0  0  0
    0.3315    2.1212   -0.4103 H   0  0  0  0  0  0  0  0  0  0  0  0
  1  2  1  0
  2  3  1  0
  3  4  1  0
  4  5  1  0
  5  6  1  0
  6  7  1  0
  7  8  1  0
  7  9  1  0
  9  2  1  0
  1 10  1  0
  1 11  1  0
  1 12  1  0
  2 13  1  0
  3 14  1  0
  3 15  1  0
  4 16  1  0
  4 17  1  0
  5 18  1  0
  5 19  1  0
  6 20  1  0
  6 21  1  0
  7 22  1  0
  8 23  1  0
  8 24  1  0
  8 25  1  0
  9 26  1  0
  9 27  1  0
M  END
