
     RDKit          3D

 25 25  0  0  0  0  0  0  0  0999 V2000
    2.6212   -0.2650   -0.2552 C   0  0  0  0  0  0  0  0  0  0  0  0
    1.2363    0.2405   -0.5491 C   0  0  0  0  0  0  0  0  0  0  0  0
    0.2962   -0.7195   -1.1996 C   0  0  0  0  0  0  0  0  0  0  0  0
   -0.6859   -0.4738   -0.0707 C   0  0  0  0  0  0  0  0  0  0  0  0
   -1.0864   -1.8055    0.5633 C   0  0  0  0  0  0  0  0  0  0  0  0
   -1.9321    0.2627   -0.4657 C   0  0  0  0  0  0  0  0  0  0  0  0
   -1.7205    1.5082   -0.9839 O   0  0  0  0  0  0  0  0  0  0  0  0
    0.3503    0.2368    0.6847 C   0  0  0  0  0  0  0  0  0  0  0  0
    0.1019    1.6399    1.1425 C   0  0  0  0  0  0  0  0  0  0  0  0
    2.9946    0.2717    0.6636 H   0  0  0  0  0  0  0  0  0  0  0  0
    3.3242    0.0277   -1.0669 H   0  0  0  0  0  0  0  0  0  0  0  0
    2.6575   -1.3464   -0.0200 H   0  0  0  0  0  0  0  0  0  0  0  0
    1.2957    1.2254   -1.0489 H   0  0  0  0  0  0  0  0  0  0  0  0
   -0.0409   -0.3380   -2.1839 H   0  0  0  0  0  0  0  0  0  0  0  0
    0.6870   -1.7614   -1.2414 H   0  0  0  0  0  0  0  0  0  0  0  0
   -2.0850   -2.1366    0.2010 H   0  0  0  0  0  0  0  0  0  0  0  0
   -0.3488   -2.5864    0.3827 H   0  0  0  0  0  0  0  0  0  0  0  0
   -1.2216   -1.6663    1.6760 H   0  0  0  0  0  0  0  0  0  0  0  0
   -2.4359   -0.3521   -1.2525 H   0  0  0  0  0  0  0  0  0  0  0  0
   -2.6193    0.2558    0.4017 H   0  0  0  0  0  0  0  0  0  0  0  0
   -2.5069    2.0930   -0.7432 H   0  0  0  0  0  0  0  0  0  0  0  0
    0.7876   -0.3810    1.4880 H   0  0  0  0  0  0  0  0  0  0  0  0
    0.1022    2.3816    0.3012 H   0  0  0  0  0  0  0  0  0  0  0  0
   -0.7682    1.7536    1.8095 H   0  0  0  0  0  0  0  0  0  0  0  0
    0.9967    1.9351    1.7668 H   0  0  0  0  0  0  0  0  0  0  0  0
  1  2  1  0
  2  3  1  0
  3  4  1  0
  4  5  1  0
  4  6  1  0
  6  7  1  0
  4  8  1  0
  8  9  1  0
  8  2  1  0
  1 10  1  0
  1 11  1  0
  1 12  1  0
  2 13  1  0
  3 14  1  0
  3 15  1  0
  5 16  1  0
  5 17  1  0
  5 18  1  0
  6 19  1  0
  6 20  1  0
  7 21  1  0
  8 22  1  0
  9 23  1  0
  9 24  1  0
  9 25  1  0
M  END
