
     RDKit          3D

 20 20  0  0  0  0  0  0  0  0999 V2000
    2.1882    0.0927   -0.4800 C   0  0  0  0  0  0  0  0  0  0  0  0
    1.1307   -0.0991    0.5707 C   0  0  0  0  0  0  0  0  0  0  0  0
    0.2578    1.1433    0.5654 C   0  0  0  0  0  0  0  0  0  0  0  0
   -0.5063    1.1900   -0.6112 O   0  0  0  0  0  0  0  0  0  0  0  0
   -1.8003    0.8449   -0.2784 C   0  0  0  0  0  0  0  0  0  0  0  0
   -1.8693   -0.6778   -0.2796 C   0  0  0  0  0  0  0  0  0  0  0  0
   -0.9963   -1.1995    0.6349 O   0  0  0  0  0  0  0  0  0  0  0  0
    0.3039   -1.3255    0.1886 C   0  0  0  0  0  0  0  0  0  0  0  0
    1.6814    0.5334   -1.3720 H   0  0  0  0  0  0  0  0  0  0  0  0
    2.9431    0.7964   -0.0529 H   0  0  0  0  0  0  0  0  0  0  0  0
    2.6345   -0.8554   -0.8097 H   0  0  0  0  0  0  0  0  0  0  0  0
    1.5440   -0.2128    1.5958 H   0  0  0  0  0  0  0  0  0  0  0  0
    0.9074    2.0299    0.5468 H   0  0  0  0  0  0  0  0  0  0  0  0
   -0.3882    1.0808    1.4518 H   0  0  0  0  0  0  0  0  0  0  0  0
   -2.0144    1.1624    0.7613 H   0  0  0  0  0  0  0  0  0  0  0  0
   -2.5154    1.2585   -1.0183 H   0  0  0  0  0  0  0  0  0  0  0  0
   -2.9101   -0.9218    0.0670 H   0  0  0  0  0  0  0  0  0  0  0  0
   -1.7911   -1.0991   -1.2956 H   0  0  0  0  0  0  0  0  0  0  0  0
    0.3864   -1.5554   -0.8925 H   0  0  0  0  0  0  0  0  0  0  0  0
    0.8141   -2.1858    0.7079 H   0  0  0  0  0  0  0  0  0  0  0  0
  1  2  1  0
  2  3  1  0
  3  4  1  0
  4  5  1  0
  5  6  1  0
  6  7  1  0
  7  8  1  0
  8  2  1  0
  1  9  1  0
  1 10  1  0
  1 11  1  0
  2 12  1  0
  3 13  1  0
  3 14  1  0
  5 15  1  0
  5 16  1  0
  6 17  1  0
  6 18  1  0
  8 19  1  0
  8 20  1  0
M  END
