
     RDKit          3D

 18 19  0  0  0  0  0  0  0  0999 V2000
    1.7947   -0.8497   -0.0295 C   0  0  0  0  0  0  0  0  0  0  0  0
    0.8185    0.1614   -0.5352 C   0  0  0  0  0  0  0  0  0  0  0  0
    0.9644    1.4462    0.2307 C   0  0  0  0  0  0  0  0  0  0  0  0
    1.8573    2.1675    0.6366 O   0  0  0  0  0  0  0  0  0  0  0  0
   -0.5387    1.5203    0.3197 C   0  0  0  0  0  0  0  0  0  0  0  0
   -0.5752    0.0861   -0.0485 C   0  0  0  0  0  0  0  0  0  0  0  0
   -1.6718   -0.5971   -0.6980 C   0  0  0  0  0  0  0  0  0  0  0  0
   -1.1830   -0.9822    0.6894 C   0  0  0  0  0  0  0  0  0  0  0  0
    1.7098   -0.9347    1.0592 H   0  0  0  0  0  0  0  0  0  0  0  0
    2.8339   -0.4697   -0.2553 H   0  0  0  0  0  0  0  0  0  0  0  0
    1.7180   -1.8178   -0.5585 H   0  0  0  0  0  0  0  0  0  0  0  0
    0.8542    0.3167   -1.6341 H   0  0  0  0  0  0  0  0  0  0  0  0
   -1.0026    2.1474   -0.4715 H   0  0  0  0  0  0  0  0  0  0  0  0
   -0.9019    1.8144    1.3134 H   0  0  0  0  0  0  0  0  0  0  0  0
   -1.4450   -1.2625   -1.5507 H   0  0  0  0  0  0  0  0  0  0  0  0
   -2.6388   -0.0594   -0.7945 H   0  0  0  0  0  0  0  0  0  0  0  0
   -1.9370   -0.7606    1.4859 H   0  0  0  0  0  0  0  0  0  0  0  0
   -0.6566   -1.9261    0.8409 H   0  0  0  0  0  0  0  0  0  0  0  0
  1  2  1  0
  2  3  1  0
  3  4  2  0
  3  5  1  0
  5  6  1  0
  6  7  1  0
  7  8  1  0
  6  2  1  0
  8  6  1  0
  1  9  1  0
  1 10  1  0
  1 11  1  0
  2 12  1  0
  5 13  1  0
  5 14  1  0
  7 15  1  0
  7 16  1  0
  8 17  1  0
  8 18  1  0
M  END
