
     RDKit          3D

 23 24  0  0  0  0  0  0  0  0999 V2000
    0.2924    2.2961   -0.2125 C   0  0  0  0  0  0  0  0  0  0  0  0
   -0.1597    0.9718    0.2924 C   0  0  0  0  0  0  0  0  0  0  0  0
   -1.0867    0.3092   -0.7152 C   0  0  0  0  0  0  0  0  0  0  0  0
   -1.9206   -0.6861    0.0297 C   0  0  0  0  0  0  0  0  0  0  0  0
   -1.0455   -1.9064    0.2910 C   0  0  0  0  0  0  0  0  0  0  0  0
    0.3650   -1.4463    0.6215 C   0  0  0  0  0  0  0  0  0  0  0  0
    0.6995   -0.1866   -0.1220 C   0  0  0  0  0  0  0  0  0  0  0  0
    2.1677    0.1155   -0.2465 C   0  0  0  0  0  0  0  0  0  0  0  0
    0.0115   -0.2516   -1.3531 O   0  0  0  0  0  0  0  0  0  0  0  0
   -0.6332    2.8959   -0.4525 H   0  0  0  0  0  0  0  0  0  0  0  0
    0.8710    2.8878    0.5192 H   0  0  0  0  0  0  0  0  0  0  0  0
    0.9155    2.2110   -1.1178 H   0  0  0  0  0  0  0  0  0  0  0  0
   -0.5398    0.9725    1.3167 H   0  0  0  0  0  0  0  0  0  0  0  0
   -1.6074    0.9929   -1.3986 H   0  0  0  0  0  0  0  0  0  0  0  0
   -2.8609   -0.9549   -0.4628 H   0  0  0  0  0  0  0  0  0  0  0  0
   -2.2106   -0.2409    1.0250 H   0  0  0  0  0  0  0  0  0  0  0  0
   -1.0363   -2.4824   -0.6668 H   0  0  0  0  0  0  0  0  0  0  0  0
   -1.5037   -2.4832    1.1216 H   0  0  0  0  0  0  0  0  0  0  0  0
    0.5615   -1.4108    1.6947 H   0  0  0  0  0  0  0  0  0  0  0  0
    1.0397   -2.2497    0.2036 H   0  0  0  0  0  0  0  0  0  0  0  0
    2.7257   -0.5234    0.4679 H   0  0  0  0  0  0  0  0  0  0  0  0
    2.4186    1.1681    0.0347 H   0  0  0  0  0  0  0  0  0  0  0  0
    2.5364    0.0014   -1.2970 H   0  0  0  0  0  0  0  0  0  0  0  0
  1  2  1  0
  2  3  1  0
  3  4  1  0
  4  5  1  0
  5  6  1  0
  6  7  1  0
  7  8  1  0
  7  9  1  0
  7  2  1  0
  9  3  1  0
  1 10  1  0
  1 11  1  0
  1 12  1  0
  2 13  1  0
  3 14  1  0
  4 15  1  0
  4 16  1  0
  5 17  1  0
  5 18  1  0
  6 19  1  0
  6 20  1  0
  8 21  1  0
  8 22  1  0
  8 23  1  0
M  END
