
     RDKit          3D

 23 24  0  0  0  0  0  0  0  0999 V2000
    2.4227   -0.6803    0.8024 C   0  0  0  0  0  0  0  0  0  0  0  0
    1.3928   -0.3467   -0.2213 C   0  0  0  0  0  0  0  0  0  0  0  0
    0.1148   -1.1501   -0.0716 C   0  0  0  0  0  0  0  0  0  0  0  0
   -0.8574   -0.3015   -0.8936 C   0  0  0  0  0  0  0  0  0  0  0  0
   -2.2680   -0.5181   -0.4279 C   0  0  0  0  0  0  0  0  0  0  0  0
   -2.5805    0.4409    0.4950 O   0  0  0  0  0  0  0  0  0  0  0  0
   -1.4067    1.0680    0.8982 C   0  0  0  0  0  0  0  0  0  0  0  0
   -0.5650    1.0749   -0.3505 C   0  0  0  0  0  0  0  0  0  0  0  0
    0.8965    1.0801   -0.1135 C   0  0  0  0  0  0  0  0  0  0  0  0
    3.1176    0.1875    0.8884 H   0  0  0  0  0  0  0  0  0  0  0  0
    3.0407   -1.5314    0.4651 H   0  0  0  0  0  0  0  0  0  0  0  0
    1.9298   -0.8805    1.7564 H   0  0  0  0  0  0  0  0  0  0  0  0
    1.7735   -0.5739   -1.2511 H   0  0  0  0  0  0  0  0  0  0  0  0
    0.1881   -2.1381   -0.5231 H   0  0  0  0  0  0  0  0  0  0  0  0
   -0.2224   -1.2229    0.9704 H   0  0  0  0  0  0  0  0  0  0  0  0
   -0.6968   -0.4145   -1.9576 H   0  0  0  0  0  0  0  0  0  0  0  0
   -2.9246   -0.3679   -1.3339 H   0  0  0  0  0  0  0  0  0  0  0  0
   -2.4688   -1.5139   -0.0303 H   0  0  0  0  0  0  0  0  0  0  0  0
   -0.9226    0.5737    1.7510 H   0  0  0  0  0  0  0  0  0  0  0  0
   -1.6909    2.1044    1.1919 H   0  0  0  0  0  0  0  0  0  0  0  0
   -0.8743    1.8875   -0.9992 H   0  0  0  0  0  0  0  0  0  0  0  0
    1.3791    1.6300   -0.9741 H   0  0  0  0  0  0  0  0  0  0  0  0
    1.2224    1.5929    0.7902 H   0  0  0  0  0  0  0  0  0  0  0  0
  1  2  1  0
  2  3  1  0
  3  4  1  0
  4  5  1  0
  5  6  1  0
  6  7  1  0
  7  8  1  0
  8  9  1  0
  9  2  1  0
  8  4  1  0
  1 10  1  0
  1 11  1  0
  1 12  1  0
  2 13  1  0
  3 14  1  0
  3 15  1  0
  4 16  1  0
  5 17  1  0
  5 18  1  0
  7 19  1  0
  7 20  1  0
  8 21  1  0
  9 22  1  0
  9 23  1  0
M  END
