
     RDKit          3D

 23 24  0  0  0  0  0  0  0  0999 V2000
    3.2550   -0.4841    0.2640 C   0  0  0  0  0  0  0  0  0  0  0  0
    2.2108   -0.0607   -0.7732 C   0  0  0  0  0  0  0  0  0  0  0  0
    1.5185    1.2272   -0.4478 C   0  0  0  0  0  0  0  0  0  0  0  0
    0.4781    0.2777    0.0625 C   0  0  0  0  0  0  0  0  0  0  0  0
   -0.9188    0.4777   -0.4873 C   0  0  0  0  0  0  0  0  0  0  0  0
   -1.7866   -0.5662    0.1493 C   0  0  0  0  0  0  0  0  0  0  0  0
   -3.2253   -0.6834   -0.1454 C   0  0  0  0  0  0  0  0  0  0  0  0
   -2.8216    0.0086    1.1229 C   0  0  0  0  0  0  0  0  0  0  0  0
    1.0689   -0.8078   -0.5964 O   0  0  0  0  0  0  0  0  0  0  0  0
    3.9899   -1.1437   -0.2140 H   0  0  0  0  0  0  0  0  0  0  0  0
    2.7891   -1.0565    1.0863 H   0  0  0  0  0  0  0  0  0  0  0  0
    3.7611    0.4394    0.6032 H   0  0  0  0  0  0  0  0  0  0  0  0
    2.6395   -0.0637   -1.8021 H   0  0  0  0  0  0  0  0  0  0  0  0
    1.2079    1.8592   -1.2878 H   0  0  0  0  0  0  0  0  0  0  0  0
    2.1049    1.7707    0.3477 H   0  0  0  0  0  0  0  0  0  0  0  0
    0.4592    0.1221    1.1641 H   0  0  0  0  0  0  0  0  0  0  0  0
   -0.8735    0.3960   -1.5964 H   0  0  0  0  0  0  0  0  0  0  0  0
   -1.2629    1.5209   -0.2476 H   0  0  0  0  0  0  0  0  0  0  0  0
   -1.2627   -1.5037    0.4922 H   0  0  0  0  0  0  0  0  0  0  0  0
   -3.7335   -0.0848   -0.9218 H   0  0  0  0  0  0  0  0  0  0  0  0
   -3.6814   -1.6843   -0.0092 H   0  0  0  0  0  0  0  0  0  0  0  0
   -2.9860    1.0855    1.1419 H   0  0  0  0  0  0  0  0  0  0  0  0
   -2.9306   -0.5432    2.0951 H   0  0  0  0  0  0  0  0  0  0  0  0
  1  2  1  0
  2  3  1  0
  3  4  1  0
  4  5  1  0
  5  6  1  0
  6  7  1  0
  7  8  1  0
  4  9  1  0
  9  2  1  0
  8  6  1  0
  1 10  1  0
  1 11  1  0
  1 12  1  0
  2 13  1  0
  3 14  1  0
  3 15  1  0
  4 16  1  0
  5 17  1  0
  5 18  1  0
  6 19  1  0
  7 20  1  0
  7 21  1  0
  8 22  1  0
  8 23  1  0
M  END
