
     RDKit          3D

 21 21  0  0  0  0  0  0  0  0999 V2000
    2.5729   -0.2907   -0.9132 C   0  0  0  0  0  0  0  0  0  0  0  0
    1.3628    0.3391   -0.3093 C   0  0  0  0  0  0  0  0  0  0  0  0
    0.8316   -0.5359    0.8179 C   0  0  0  0  0  0  0  0  0  0  0  0
   -0.5452    0.0898    1.0112 C   0  0  0  0  0  0  0  0  0  0  0  0
   -1.5586   -0.8910    1.3808 C   0  0  0  0  0  0  0  0  0  0  0  0
   -1.5178   -2.0356    0.9803 O   0  0  0  0  0  0  0  0  0  0  0  0
   -0.7659    0.7771   -0.2929 C   0  0  0  0  0  0  0  0  0  0  0  0
   -2.1157    0.5267   -0.8993 C   0  0  0  0  0  0  0  0  0  0  0  0
    0.2657    0.3779   -1.1570 O   0  0  0  0  0  0  0  0  0  0  0  0
    2.2804   -1.2535   -1.4097 H   0  0  0  0  0  0  0  0  0  0  0  0
    3.2978   -0.4841   -0.0835 H   0  0  0  0  0  0  0  0  0  0  0  0
    3.0458    0.4127   -1.6146 H   0  0  0  0  0  0  0  0  0  0  0  0
    1.5480    1.3548    0.0450 H   0  0  0  0  0  0  0  0  0  0  0  0
    0.7042   -1.5719    0.4475 H   0  0  0  0  0  0  0  0  0  0  0  0
    1.4204   -0.4449    1.7301 H   0  0  0  0  0  0  0  0  0  0  0  0
   -0.3973    0.8878    1.7888 H   0  0  0  0  0  0  0  0  0  0  0  0
   -2.3724   -0.6039    2.0276 H   0  0  0  0  0  0  0  0  0  0  0  0
   -0.6564    1.8947   -0.2122 H   0  0  0  0  0  0  0  0  0  0  0  0
   -2.8837    1.2668   -0.5777 H   0  0  0  0  0  0  0  0  0  0  0  0
   -2.0157    0.6663   -2.0118 H   0  0  0  0  0  0  0  0  0  0  0  0
   -2.5010   -0.4822   -0.7482 H   0  0  0  0  0  0  0  0  0  0  0  0
  1  2  1  0
  2  3  1  0
  3  4  1  0
  4  5  1  0
  5  6  2  0
  4  7  1  0
  7  8  1  0
  7  9  1  0
  9  2  1  0
  1 10  1  0
  1 11  1  0
  1 12  1  0
  2 13  1  0
  3 14  1  0
  3 15  1  0
  4 16  1  0
  5 17  1  0
  7 18  1  0
  8 19  1  0
  8 20  1  0
  8 21  1  0
M  END
