
     RDKit          3D

 21 21  0  0  0  0  0  0  0  0999 V2000
   -2.3660    0.7477   -0.1464 C   0  0  0  0  0  0  0  0  0  0  0  0
   -0.9662    0.3552   -0.6561 C   0  0  0  0  0  0  0  0  0  0  0  0
   -0.0266    1.3459   -0.0920 C   0  0  0  0  0  0  0  0  0  0  0  0
    0.8486    0.8495    0.8561 O   0  0  0  0  0  0  0  0  0  0  0  0
    1.9912    0.4236    0.1790 C   0  0  0  0  0  0  0  0  0  0  0  0
    1.9263   -1.0704    0.1663 C   0  0  0  0  0  0  0  0  0  0  0  0
    0.5750   -1.5572   -0.1019 C   0  0  0  0  0  0  0  0  0  0  0  0
    0.5575   -2.8009   -0.0306 O   0  0  0  0  0  0  0  0  0  0  0  0
   -0.7507   -1.0579   -0.4241 C   0  0  0  0  0  0  0  0  0  0  0  0
   -3.1487    0.2451   -0.7122 H   0  0  0  0  0  0  0  0  0  0  0  0
   -2.4637    0.5135    0.9353 H   0  0  0  0  0  0  0  0  0  0  0  0
   -2.4490    1.8355   -0.3206 H   0  0  0  0  0  0  0  0  0  0  0  0
   -1.0423    0.5479   -1.7686 H   0  0  0  0  0  0  0  0  0  0  0  0
   -0.5319    2.2291    0.3981 H   0  0  0  0  0  0  0  0  0  0  0  0
    0.5990    1.8204   -0.8942 H   0  0  0  0  0  0  0  0  0  0  0  0
    2.0066    0.7669   -0.8787 H   0  0  0  0  0  0  0  0  0  0  0  0
    2.8862    0.8124    0.7076 H   0  0  0  0  0  0  0  0  0  0  0  0
    2.7035   -1.5314   -0.4840 H   0  0  0  0  0  0  0  0  0  0  0  0
    2.2007   -1.4066    1.2105 H   0  0  0  0  0  0  0  0  0  0  0  0
   -1.4244   -1.4098    0.4158 H   0  0  0  0  0  0  0  0  0  0  0  0
   -1.1252   -1.6585   -1.3078 H   0  0  0  0  0  0  0  0  0  0  0  0
  1  2  1  0
  2  3  1  0
  3  4  1  0
  4  5  1  0
  5  6  1  0
  6  7  1  0
  7  8  2  0
  7  9  1  0
  9  2  1  0
  1 10  1  0
  1 11  1  0
  1 12  1  0
  2 13  1  0
  3 14  1  0
  3 15  1  0
  5 16  1  0
  5 17  1  0
  6 18  1  0
  6 19  1  0
  9 20  1  0
  9 21  1  0
M  END
