
     RDKit          3D

 21 22  0  0  0  0  0  0  0  0999 V2000
   -2.4799   -0.5424    0.5184 C   0  0  0  0  0  0  0  0  0  0  0  0
   -1.7081    0.6959    0.1414 C   0  0  0  0  0  0  0  0  0  0  0  0
   -1.2710    0.7562   -1.2912 C   0  0  0  0  0  0  0  0  0  0  0  0
   -0.2761    0.6772   -0.1517 C   0  0  0  0  0  0  0  0  0  0  0  0
    0.5578   -0.5598   -0.0717 C   0  0  0  0  0  0  0  0  0  0  0  0
    2.0468   -0.3268   -0.4281 C   0  0  0  0  0  0  0  0  0  0  0  0
    2.4700    0.9940   -0.5343 O   0  0  0  0  0  0  0  0  0  0  0  0
    1.5974   -0.7897    0.9164 C   0  0  0  0  0  0  0  0  0  0  0  0
    1.8660    0.0661    1.9681 O   0  0  0  0  0  0  0  0  0  0  0  0
   -3.4699   -0.4682    0.0062 H   0  0  0  0  0  0  0  0  0  0  0  0
   -2.7115   -0.5996    1.6020 H   0  0  0  0  0  0  0  0  0  0  0  0
   -1.9195   -1.4146    0.1431 H   0  0  0  0  0  0  0  0  0  0  0  0
   -2.1625    1.6409    0.5512 H   0  0  0  0  0  0  0  0  0  0  0  0
   -1.4169    1.7101   -1.8256 H   0  0  0  0  0  0  0  0  0  0  0  0
   -1.3611   -0.1515   -1.9207 H   0  0  0  0  0  0  0  0  0  0  0  0
    0.2713    1.6491    0.0026 H   0  0  0  0  0  0  0  0  0  0  0  0
    0.0790   -1.4562   -0.5535 H   0  0  0  0  0  0  0  0  0  0  0  0
    2.4681   -1.0346   -1.1674 H   0  0  0  0  0  0  0  0  0  0  0  0
    2.8286    1.2218   -1.4027 H   0  0  0  0  0  0  0  0  0  0  0  0
    1.8580   -1.8528    1.1388 H   0  0  0  0  0  0  0  0  0  0  0  0
    2.7335   -0.2149    2.3589 H   0  0  0  0  0  0  0  0  0  0  0  0
  1  2  1  0
  2  3  1  0
  3  4  1  0
  4  5  1  0
  5  6  1  0
  6  7  1  0
  6  8  1  0
  8  9  1  0
  4  2  1  0
  8  5  1  0
  1 10  1  0
  1 11  1  0
  1 12  1  0
  2 13  1  0
  3 14  1  0
  3 15  1  0
  4 16  1  0
  5 17  1  0
  6 18  1  0
  7 19  1  0
  8 20  1  0
  9 21  1  0
M  END
