
     RDKit          3D

 21 21  0  0  0  0  0  0  0  0999 V2000
   -2.2161    1.1969   -0.3316 C   0  0  0  0  0  0  0  0  0  0  0  0
   -0.9505    0.5956    0.1913 C   0  0  0  0  0  0  0  0  0  0  0  0
   -1.1657   -0.7050    0.8870 C   0  0  0  0  0  0  0  0  0  0  0  0
   -0.1573   -1.5236    0.6010 C   0  0  0  0  0  0  0  0  0  0  0  0
    0.8129   -0.8728   -0.2930 C   0  0  0  0  0  0  0  0  0  0  0  0
    1.2663   -1.7358   -1.2701 O   0  0  0  0  0  0  0  0  0  0  0  0
    1.9940   -0.2821    0.4080 C   0  0  0  0  0  0  0  0  0  0  0  0
    1.6511    0.6078    1.4183 O   0  0  0  0  0  0  0  0  0  0  0  0
    0.0106    0.2400   -0.9159 C   0  0  0  0  0  0  0  0  0  0  0  0
   -3.0741    0.6529    0.1290 H   0  0  0  0  0  0  0  0  0  0  0  0
   -2.2806    1.2233   -1.4385 H   0  0  0  0  0  0  0  0  0  0  0  0
   -2.3473    2.2708   -0.0109 H   0  0  0  0  0  0  0  0  0  0  0  0
   -0.5090    1.3431    0.9085 H   0  0  0  0  0  0  0  0  0  0  0  0
   -2.0267   -0.9224    1.5254 H   0  0  0  0  0  0  0  0  0  0  0  0
   -0.0675   -2.5362    0.9798 H   0  0  0  0  0  0  0  0  0  0  0  0
    1.7443   -1.2656   -1.9895 H   0  0  0  0  0  0  0  0  0  0  0  0
    2.5716    0.2857   -0.3643 H   0  0  0  0  0  0  0  0  0  0  0  0
    2.6319   -1.0669    0.8861 H   0  0  0  0  0  0  0  0  0  0  0  0
    2.0598    1.5063    1.2760 H   0  0  0  0  0  0  0  0  0  0  0  0
   -0.5770   -0.1233   -1.7772 H   0  0  0  0  0  0  0  0  0  0  0  0
    0.6295    1.1112   -1.1429 H   0  0  0  0  0  0  0  0  0  0  0  0
  1  2  1  0
  2  3  1  0
  3  4  2  0
  4  5  1  0
  5  6  1  0
  5  7  1  0
  7  8  1  0
  5  9  1  0
  9  2  1  0
  1 10  1  0
  1 11  1  0
  1 12  1  0
  2 13  1  0
  3 14  1  0
  4 15  1  0
  6 16  1  0
  7 17  1  0
  7 18  1  0
  8 19  1  0
  9 20  1  0
  9 21  1  0
M  END
