
     RDKit          3D

 23 24  0  0  0  0  0  0  0  0999 V2000
   -1.9993   -0.8307   -0.8796 C   0  0  0  0  0  0  0  0  0  0  0  0
   -1.1684   -0.8518    0.3560 C   0  0  0  0  0  0  0  0  0  0  0  0
   -1.0329    0.4797    1.0829 C   0  0  0  0  0  0  0  0  0  0  0  0
   -1.5319    1.5686    0.4103 O   0  0  0  0  0  0  0  0  0  0  0  0
    0.4212    0.2781    1.1412 C   0  0  0  0  0  0  0  0  0  0  0  0
    1.3349    1.2218    0.4642 C   0  0  0  0  0  0  0  0  0  0  0  0
    2.1491    0.2705   -0.4306 C   0  0  0  0  0  0  0  0  0  0  0  0
    0.9605   -0.5099   -1.0159 C   0  0  0  0  0  0  0  0  0  0  0  0
    0.2912   -0.9575    0.2408 C   0  0  0  0  0  0  0  0  0  0  0  0
   -2.6890   -1.7194   -0.9680 H   0  0  0  0  0  0  0  0  0  0  0  0
   -1.4488   -0.7658   -1.8184 H   0  0  0  0  0  0  0  0  0  0  0  0
   -2.6944    0.0491   -0.7778 H   0  0  0  0  0  0  0  0  0  0  0  0
   -1.5719   -1.6336    1.0646 H   0  0  0  0  0  0  0  0  0  0  0  0
   -1.4800    0.4579    2.1206 H   0  0  0  0  0  0  0  0  0  0  0  0
   -1.1581    1.7446   -0.4628 H   0  0  0  0  0  0  0  0  0  0  0  0
    0.8473   -0.0289    2.1406 H   0  0  0  0  0  0  0  0  0  0  0  0
    1.9945    1.8052    1.1203 H   0  0  0  0  0  0  0  0  0  0  0  0
    0.8626    1.9205   -0.2462 H   0  0  0  0  0  0  0  0  0  0  0  0
    2.7291   -0.3872    0.2277 H   0  0  0  0  0  0  0  0  0  0  0  0
    2.7122    0.8009   -1.1929 H   0  0  0  0  0  0  0  0  0  0  0  0
    1.3491   -1.3059   -1.6491 H   0  0  0  0  0  0  0  0  0  0  0  0
    0.3649    0.2555   -1.5676 H   0  0  0  0  0  0  0  0  0  0  0  0
    0.7581   -1.8619    0.6395 H   0  0  0  0  0  0  0  0  0  0  0  0
  1  2  1  0
  2  3  1  0
  3  4  1  0
  3  5  1  0
  5  6  1  0
  6  7  1  0
  7  8  1  0
  8  9  1  0
  9  2  1  0
  9  5  1  0
  1 10  1  0
  1 11  1  0
  1 12  1  0
  2 13  1  0
  3 14  1  0
  4 15  1  0
  5 16  1  0
  6 17  1  0
  6 18  1  0
  7 19  1  0
  7 20  1  0
  8 21  1  0
  8 22  1  0
  9 23  1  0
M  END
