
     RDKit          3D

 21 21  0  0  0  0  0  0  0  0999 V2000
   -1.4565    1.1029   -0.8142 C   0  0  0  0  0  0  0  0  0  0  0  0
   -0.5644   -0.0662   -0.9536 C   0  0  0  0  0  0  0  0  0  0  0  0
   -0.4970   -1.0742    0.1447 C   0  0  0  0  0  0  0  0  0  0  0  0
   -1.3067   -0.7927    1.3280 C   0  0  0  0  0  0  0  0  0  0  0  0
    0.7144   -0.2731   -0.2810 C   0  0  0  0  0  0  0  0  0  0  0  0
    1.7732   -1.0341   -1.0151 C   0  0  0  0  0  0  0  0  0  0  0  0
    1.9627   -0.8141   -2.1928 O   0  0  0  0  0  0  0  0  0  0  0  0
    1.3065    0.5870    0.8040 C   0  0  0  0  0  0  0  0  0  0  0  0
    1.4290    1.9390    0.2239 O   0  0  0  0  0  0  0  0  0  0  0  0
   -1.0800    1.8059   -0.0897 H   0  0  0  0  0  0  0  0  0  0  0  0
   -2.5265    0.7999   -0.5848 H   0  0  0  0  0  0  0  0  0  0  0  0
   -1.5377    1.5953   -1.8368 H   0  0  0  0  0  0  0  0  0  0  0  0
   -0.6856   -0.5629   -1.9851 H   0  0  0  0  0  0  0  0  0  0  0  0
   -0.4462   -2.1822   -0.1440 H   0  0  0  0  0  0  0  0  0  0  0  0
   -0.8977   -0.1999    2.1441 H   0  0  0  0  0  0  0  0  0  0  0  0
   -1.6500   -1.7596    1.8297 H   0  0  0  0  0  0  0  0  0  0  0  0
   -2.3026   -0.3192    1.0758 H   0  0  0  0  0  0  0  0  0  0  0  0
    2.3707   -1.8008   -0.4817 H   0  0  0  0  0  0  0  0  0  0  0  0
    2.3045    0.2254    1.0279 H   0  0  0  0  0  0  0  0  0  0  0  0
    0.6929    0.7402    1.6829 H   0  0  0  0  0  0  0  0  0  0  0  0
    2.3970    2.0835    0.1177 H   0  0  0  0  0  0  0  0  0  0  0  0
  1  2  1  0
  2  3  1  0
  3  4  1  0
  3  5  1  0
  5  6  1  0
  6  7  2  0
  5  8  1  0
  8  9  1  0
  5  2  1  0
  1 10  1  0
  1 11  1  0
  1 12  1  0
  2 13  1  0
  3 14  1  0
  4 15  1  0
  4 16  1  0
  4 17  1  0
  6 18  1  0
  8 19  1  0
  8 20  1  0
  9 21  1  0
M  END
