
     RDKit          3D

 19 21  0  0  0  0  0  0  0  0999 V2000
    2.3570    0.1026   -0.2646 C   0  0  0  0  0  0  0  0  0  0  0  0
    0.9418    0.0503    0.2687 C   0  0  0  0  0  0  0  0  0  0  0  0
    0.3312    1.3888    0.3720 C   0  0  0  0  0  0  0  0  0  0  0  0
   -0.9792    1.4823    0.3989 C   0  0  0  0  0  0  0  0  0  0  0  0
   -1.8780    0.3159    0.3302 C   0  0  0  0  0  0  0  0  0  0  0  0
   -2.1146    0.0423   -1.0162 O   0  0  0  0  0  0  0  0  0  0  0  0
   -1.1184   -0.8873   -1.0910 C   0  0  0  0  0  0  0  0  0  0  0  0
    0.1016   -0.9989   -0.3406 C   0  0  0  0  0  0  0  0  0  0  0  0
   -1.2020   -1.0136    0.3991 C   0  0  0  0  0  0  0  0  0  0  0  0
    2.7647   -0.9272   -0.1745 H   0  0  0  0  0  0  0  0  0  0  0  0
    2.9353    0.7583    0.4354 H   0  0  0  0  0  0  0  0  0  0  0  0
    2.4235    0.4409   -1.3020 H   0  0  0  0  0  0  0  0  0  0  0  0
    1.0844   -0.2687    1.3514 H   0  0  0  0  0  0  0  0  0  0  0  0
    0.9603    2.3022    0.4253 H   0  0  0  0  0  0  0  0  0  0  0  0
   -1.4426    2.4580    0.4753 H   0  0  0  0  0  0  0  0  0  0  0  0
   -2.7649    0.3894    0.9687 H   0  0  0  0  0  0  0  0  0  0  0  0
   -1.3921   -1.7510   -1.7541 H   0  0  0  0  0  0  0  0  0  0  0  0
    0.6032   -1.9989   -0.3706 H   0  0  0  0  0  0  0  0  0  0  0  0
   -1.6112   -1.8854    0.8886 H   0  0  0  0  0  0  0  0  0  0  0  0
  1  2  1  0
  2  3  1  0
  3  4  2  0
  4  5  1  0
  5  6  1  0
  6  7  1  0
  7  8  1  0
  8  9  1  0
  8  2  1  0
  9  5  1  0
  9  7  1  0
  1 10  1  0
  1 11  1  0
  1 12  1  0
  2 13  1  0
  3 14  1  0
  4 15  1  0
  5 16  1  0
  7 17  1  0
  8 18  1  0
  9 19  1  0
M  END
