
     RDKit          3D

 21 22  0  0  0  0  0  0  0  0999 V2000
    2.1081    0.1771    0.6536 C   0  0  0  0  0  0  0  0  0  0  0  0
    0.7398   -0.3867    0.5940 C   0  0  0  0  0  0  0  0  0  0  0  0
    0.4249   -1.0372   -0.7625 C   0  0  0  0  0  0  0  0  0  0  0  0
   -0.9243   -0.4528   -1.0872 C   0  0  0  0  0  0  0  0  0  0  0  0
   -1.8650   -0.9128   -0.0323 C   0  0  0  0  0  0  0  0  0  0  0  0
   -1.6035   -0.2513    1.1100 C   0  0  0  0  0  0  0  0  0  0  0  0
   -0.3675    0.5723    0.8301 C   0  0  0  0  0  0  0  0  0  0  0  0
   -0.7131    0.9941   -0.6070 C   0  0  0  0  0  0  0  0  0  0  0  0
    0.3326    1.6008   -1.2404 O   0  0  0  0  0  0  0  0  0  0  0  0
    2.6676   -0.1403   -0.2707 H   0  0  0  0  0  0  0  0  0  0  0  0
    2.6920   -0.2519    1.5140 H   0  0  0  0  0  0  0  0  0  0  0  0
    2.1779    1.2575    0.7410 H   0  0  0  0  0  0  0  0  0  0  0  0
    0.6512   -1.1999    1.3730 H   0  0  0  0  0  0  0  0  0  0  0  0
    1.1925   -0.7981   -1.5061 H   0  0  0  0  0  0  0  0  0  0  0  0
    0.2925   -2.1319   -0.6484 H   0  0  0  0  0  0  0  0  0  0  0  0
   -1.2580   -0.5362   -2.0932 H   0  0  0  0  0  0  0  0  0  0  0  0
   -2.6392   -1.6562   -0.1456 H   0  0  0  0  0  0  0  0  0  0  0  0
   -2.1609   -0.3016    2.0280 H   0  0  0  0  0  0  0  0  0  0  0  0
   -0.2118    1.3807    1.5011 H   0  0  0  0  0  0  0  0  0  0  0  0
   -1.6765    1.4912   -0.6728 H   0  0  0  0  0  0  0  0  0  0  0  0
    0.1407    2.5830   -1.2786 H   0  0  0  0  0  0  0  0  0  0  0  0
  1  2  1  0
  2  3  1  0
  3  4  1  0
  4  5  1  0
  5  6  2  0
  6  7  1  0
  7  8  1  0
  8  9  1  0
  7  2  1  0
  8  4  1  0
  1 10  1  0
  1 11  1  0
  1 12  1  0
  2 13  1  0
  3 14  1  0
  3 15  1  0
  4 16  1  0
  5 17  1  0
  6 18  1  0
  7 19  1  0
  8 20  1  0
  9 21  1  0
M  END
