
     RDKit          3D

 19 20  0  0  0  0  0  0  0  0999 V2000
   -1.8905   -1.0466   -0.3954 C   0  0  0  0  0  0  0  0  0  0  0  0
   -0.6700   -0.5013    0.2686 C   0  0  0  0  0  0  0  0  0  0  0  0
    0.6383   -0.7498   -0.4519 C   0  0  0  0  0  0  0  0  0  0  0  0
    1.7796   -0.3805    0.4674 C   0  0  0  0  0  0  0  0  0  0  0  0
    1.7425    0.9282    0.8597 O   0  0  0  0  0  0  0  0  0  0  0  0
    0.5131    1.5175    0.9063 C   0  0  0  0  0  0  0  0  0  0  0  0
   -0.4419    0.9593   -0.1250 C   0  0  0  0  0  0  0  0  0  0  0  0
    0.3350    0.4513   -1.2651 C   0  0  0  0  0  0  0  0  0  0  0  0
    0.6331    0.7941   -2.3774 O   0  0  0  0  0  0  0  0  0  0  0  0
   -2.6267   -1.3206    0.4064 H   0  0  0  0  0  0  0  0  0  0  0  0
   -2.4175   -0.2616   -1.0005 H   0  0  0  0  0  0  0  0  0  0  0  0
   -1.6888   -1.8881   -1.0763 H   0  0  0  0  0  0  0  0  0  0  0  0
   -0.5757   -0.7008    1.3412 H   0  0  0  0  0  0  0  0  0  0  0  0
    0.7441   -1.6949   -0.9700 H   0  0  0  0  0  0  0  0  0  0  0  0
    2.7180   -0.5123   -0.1489 H   0  0  0  0  0  0  0  0  0  0  0  0
    1.8996   -1.1086    1.3058 H   0  0  0  0  0  0  0  0  0  0  0  0
    0.0059    1.3725    1.9022 H   0  0  0  0  0  0  0  0  0  0  0  0
    0.6344    2.6008    0.6732 H   0  0  0  0  0  0  0  0  0  0  0  0
   -1.3324    1.5417   -0.3205 H   0  0  0  0  0  0  0  0  0  0  0  0
  1  2  1  0
  2  3  1  0
  3  4  1  0
  4  5  1  0
  5  6  1  0
  6  7  1  0
  7  8  1  0
  8  9  2  0
  7  2  1  0
  8  3  1  0
  1 10  1  0
  1 11  1  0
  1 12  1  0
  2 13  1  0
  3 14  1  0
  4 15  1  0
  4 16  1  0
  6 17  1  0
  6 18  1  0
  7 19  1  0
M  END
