
     RDKit          3D

 23 24  0  0  0  0  0  0  0  0999 V2000
    2.0995    0.2222    0.7682 C   0  0  0  0  0  0  0  0  0  0  0  0
    1.7296   -0.0405   -0.6621 C   0  0  0  0  0  0  0  0  0  0  0  0
    0.5686   -1.0236   -0.8120 C   0  0  0  0  0  0  0  0  0  0  0  0
   -0.1790   -1.4850    0.3724 C   0  0  0  0  0  0  0  0  0  0  0  0
   -1.5595   -0.8748    0.3758 C   0  0  0  0  0  0  0  0  0  0  0  0
   -1.3634    0.6190    0.5256 C   0  0  0  0  0  0  0  0  0  0  0  0
   -2.6670    1.1729    0.5381 O   0  0  0  0  0  0  0  0  0  0  0  0
   -0.5412    1.2271   -0.5561 C   0  0  0  0  0  0  0  0  0  0  0  0
    0.4239    0.3520   -1.2369 C   0  0  0  0  0  0  0  0  0  0  0  0
    2.2824   -0.7802    1.2482 H   0  0  0  0  0  0  0  0  0  0  0  0
    3.1105    0.7251    0.8149 H   0  0  0  0  0  0  0  0  0  0  0  0
    1.4168    0.8557    1.3176 H   0  0  0  0  0  0  0  0  0  0  0  0
    2.6211   -0.1821   -1.3201 H   0  0  0  0  0  0  0  0  0  0  0  0
    0.7816   -1.8353   -1.5682 H   0  0  0  0  0  0  0  0  0  0  0  0
    0.2921   -1.2174    1.3388 H   0  0  0  0  0  0  0  0  0  0  0  0
   -0.3200   -2.5845    0.3924 H   0  0  0  0  0  0  0  0  0  0  0  0
   -2.1175   -1.0425   -0.5480 H   0  0  0  0  0  0  0  0  0  0  0  0
   -2.1166   -1.2153    1.2643 H   0  0  0  0  0  0  0  0  0  0  0  0
   -0.9702    0.8458    1.5612 H   0  0  0  0  0  0  0  0  0  0  0  0
   -2.7125    1.9458   -0.0778 H   0  0  0  0  0  0  0  0  0  0  0  0
   -1.2520    1.7061   -1.2792 H   0  0  0  0  0  0  0  0  0  0  0  0
    0.0018    2.1055   -0.0969 H   0  0  0  0  0  0  0  0  0  0  0  0
    0.4707    0.5041   -2.3603 H   0  0  0  0  0  0  0  0  0  0  0  0
  1  2  1  0
  2  3  1  0
  3  4  1  0
  4  5  1  0
  5  6  1  0
  6  7  1  0
  6  8  1  0
  8  9  1  0
  9  2  1  0
  9  3  1  0
  1 10  1  0
  1 11  1  0
  1 12  1  0
  2 13  1  0
  3 14  1  0
  4 15  1  0
  4 16  1  0
  5 17  1  0
  5 18  1  0
  6 19  1  0
  7 20  1  0
  8 21  1  0
  8 22  1  0
  9 23  1  0
M  END
