
     RDKit          3D

 23 24  0  0  0  0  0  0  0  0999 V2000
    1.8262   -1.2191   -0.2177 C   0  0  0  0  0  0  0  0  0  0  0  0
    0.8045   -0.2858    0.3595 C   0  0  0  0  0  0  0  0  0  0  0  0
    1.1937    1.1268   -0.0951 C   0  0  0  0  0  0  0  0  0  0  0  0
    0.0705    1.4668   -1.0363 C   0  0  0  0  0  0  0  0  0  0  0  0
   -1.1453    1.7864   -0.2189 C   0  0  0  0  0  0  0  0  0  0  0  0
   -1.5955    0.3935    0.2230 C   0  0  0  0  0  0  0  0  0  0  0  0
   -0.5081   -0.4679   -0.3468 C   0  0  0  0  0  0  0  0  0  0  0  0
   -0.9455   -1.8643   -0.5138 C   0  0  0  0  0  0  0  0  0  0  0  0
   -0.2464    0.1925   -1.5628 O   0  0  0  0  0  0  0  0  0  0  0  0
    2.7754   -0.6699   -0.4794 H   0  0  0  0  0  0  0  0  0  0  0  0
    1.4630   -1.6589   -1.1462 H   0  0  0  0  0  0  0  0  0  0  0  0
    2.1592   -1.9867    0.5339 H   0  0  0  0  0  0  0  0  0  0  0  0
    0.7435   -0.3337    1.4511 H   0  0  0  0  0  0  0  0  0  0  0  0
    1.1681    1.8010    0.8009 H   0  0  0  0  0  0  0  0  0  0  0  0
    2.1539    1.1474   -0.6111 H   0  0  0  0  0  0  0  0  0  0  0  0
    0.3201    2.1870   -1.8035 H   0  0  0  0  0  0  0  0  0  0  0  0
   -1.9058    2.3100   -0.8002 H   0  0  0  0  0  0  0  0  0  0  0  0
   -0.7997    2.3595    0.6743 H   0  0  0  0  0  0  0  0  0  0  0  0
   -1.7186    0.3217    1.3020 H   0  0  0  0  0  0  0  0  0  0  0  0
   -2.5411    0.1214   -0.3027 H   0  0  0  0  0  0  0  0  0  0  0  0
   -2.0402   -1.8737   -0.7376 H   0  0  0  0  0  0  0  0  0  0  0  0
   -0.8189   -2.4045    0.4428 H   0  0  0  0  0  0  0  0  0  0  0  0
   -0.4129   -2.4495   -1.2847 H   0  0  0  0  0  0  0  0  0  0  0  0
  1  2  1  0
  2  3  1  0
  3  4  1  0
  4  5  1  0
  5  6  1  0
  6  7  1  0
  7  8  1  0
  7  9  1  0
  7  2  1  0
  9  4  1  0
  1 10  1  0
  1 11  1  0
  1 12  1  0
  2 13  1  0
  3 14  1  0
  3 15  1  0
  4 16  1  0
  5 17  1  0
  5 18  1  0
  6 19  1  0
  6 20  1  0
  8 21  1  0
  8 22  1  0
  8 23  1  0
M  END
