
     RDKit          3D

 17 18  0  0  0  0  0  0  0  0999 V2000
    2.4062   -0.3001    0.0199 C   0  0  0  0  0  0  0  0  0  0  0  0
    1.0011   -0.2244   -0.5021 C   0  0  0  0  0  0  0  0  0  0  0  0
   -0.0509   -0.8612    0.3972 C   0  0  0  0  0  0  0  0  0  0  0  0
   -0.7666    0.3295   -0.0408 C   0  0  0  0  0  0  0  0  0  0  0  0
   -1.8354    0.9279    0.7885 C   0  0  0  0  0  0  0  0  0  0  0  0
   -2.3938    1.3798   -0.4378 O   0  0  0  0  0  0  0  0  0  0  0  0
   -1.7964    0.2751   -1.0433 C   0  0  0  0  0  0  0  0  0  0  0  0
   -2.1322   -0.3942   -2.0510 O   0  0  0  0  0  0  0  0  0  0  0  0
    0.3795    1.0144   -0.2595 O   0  0  0  0  0  0  0  0  0  0  0  0
    3.0987   -0.7303   -0.7317 H   0  0  0  0  0  0  0  0  0  0  0  0
    2.5211   -0.8537    0.9511 H   0  0  0  0  0  0  0  0  0  0  0  0
    2.7537    0.7447    0.1935 H   0  0  0  0  0  0  0  0  0  0  0  0
    0.9403   -0.5457   -1.5619 H   0  0  0  0  0  0  0  0  0  0  0  0
   -0.3834   -1.8563    0.1098 H   0  0  0  0  0  0  0  0  0  0  0  0
    0.3035   -0.7819    1.4540 H   0  0  0  0  0  0  0  0  0  0  0  0
   -2.5145    0.1704    1.2267 H   0  0  0  0  0  0  0  0  0  0  0  0
   -1.5309    1.7060    1.4876 H   0  0  0  0  0  0  0  0  0  0  0  0
  1  2  1  0
  2  3  1  0
  3  4  1  0
  4  5  1  0
  5  6  1  0
  6  7  1  0
  7  8  2  0
  4  9  1  0
  9  2  1  0
  7  4  1  0
  1 10  1  0
  1 11  1  0
  1 12  1  0
  2 13  1  0
  3 14  1  0
  3 15  1  0
  5 16  1  0
  5 17  1  0
M  END
