
     RDKit          3D

 21 22  0  0  0  0  0  0  0  0999 V2000
    2.1988    0.2489   -0.7196 C   0  0  0  0  0  0  0  0  0  0  0  0
    0.7401   -0.0808   -0.7303 C   0  0  0  0  0  0  0  0  0  0  0  0
    0.2378   -0.7007    0.5626 C   0  0  0  0  0  0  0  0  0  0  0  0
   -0.8357   -1.7209    0.3646 C   0  0  0  0  0  0  0  0  0  0  0  0
   -2.0033   -0.9798   -0.2654 C   0  0  0  0  0  0  0  0  0  0  0  0
   -1.6631    0.4636   -0.1600 C   0  0  0  0  0  0  0  0  0  0  0  0
   -2.4887    1.3498   -0.3080 O   0  0  0  0  0  0  0  0  0  0  0  0
   -0.2344    0.6189    0.1376 C   0  0  0  0  0  0  0  0  0  0  0  0
    0.2543    1.8915    0.8004 C   0  0  0  0  0  0  0  0  0  0  0  0
    2.5933    0.3289    0.3350 H   0  0  0  0  0  0  0  0  0  0  0  0
    2.4796    1.0951   -1.3467 H   0  0  0  0  0  0  0  0  0  0  0  0
    2.7457   -0.6473   -1.1366 H   0  0  0  0  0  0  0  0  0  0  0  0
    0.3725   -0.4824   -1.6962 H   0  0  0  0  0  0  0  0  0  0  0  0
    0.9144   -0.7396    1.4302 H   0  0  0  0  0  0  0  0  0  0  0  0
   -1.1167   -2.2828    1.2550 H   0  0  0  0  0  0  0  0  0  0  0  0
   -0.4397   -2.4517   -0.3996 H   0  0  0  0  0  0  0  0  0  0  0  0
   -2.8997   -1.2499    0.3190 H   0  0  0  0  0  0  0  0  0  0  0  0
   -2.1070   -1.2504   -1.3367 H   0  0  0  0  0  0  0  0  0  0  0  0
   -0.3050    2.1323    1.7168 H   0  0  0  0  0  0  0  0  0  0  0  0
    1.3086    1.7168    1.1005 H   0  0  0  0  0  0  0  0  0  0  0  0
    0.2480    2.7404    0.0775 H   0  0  0  0  0  0  0  0  0  0  0  0
  1  2  1  0
  2  3  1  0
  3  4  1  0
  4  5  1  0
  5  6  1  0
  6  7  2  0
  6  8  1  0
  8  9  1  0
  8  2  1  0
  8  3  1  0
  1 10  1  0
  1 11  1  0
  1 12  1  0
  2 13  1  0
  3 14  1  0
  4 15  1  0
  4 16  1  0
  5 17  1  0
  5 18  1  0
  9 19  1  0
  9 20  1  0
  9 21  1  0
M  END
