
     RDKit          3D

 25 26  0  0  0  0  0  0  0  0999 V2000
    3.1522    0.4177    0.1832 C   0  0  0  0  0  0  0  0  0  0  0  0
    2.1472   -0.7226    0.2425 C   0  0  0  0  0  0  0  0  0  0  0  0
    1.3136   -0.7784   -1.0096 C   0  0  0  0  0  0  0  0  0  0  0  0
    0.0650   -0.5896   -0.1943 C   0  0  0  0  0  0  0  0  0  0  0  0
   -0.6566    0.7399   -0.4538 C   0  0  0  0  0  0  0  0  0  0  0  0
   -1.8639    0.7174    0.4573 C   0  0  0  0  0  0  0  0  0  0  0  0
   -2.8138   -0.4689    0.1666 C   0  0  0  0  0  0  0  0  0  0  0  0
   -3.2222    0.9736   -0.0484 C   0  0  0  0  0  0  0  0  0  0  0  0
    0.9242   -0.4532    1.0676 C   0  0  0  0  0  0  0  0  0  0  0  0
    3.8352    0.2915    1.0445 H   0  0  0  0  0  0  0  0  0  0  0  0
    2.6059    1.3684    0.1794 H   0  0  0  0  0  0  0  0  0  0  0  0
    3.7693    0.3046   -0.7297 H   0  0  0  0  0  0  0  0  0  0  0  0
    2.6974   -1.6649    0.4836 H   0  0  0  0  0  0  0  0  0  0  0  0
    1.4044   -1.7642   -1.4973 H   0  0  0  0  0  0  0  0  0  0  0  0
    1.4540    0.0299   -1.7301 H   0  0  0  0  0  0  0  0  0  0  0  0
   -0.6036   -1.4524   -0.1150 H   0  0  0  0  0  0  0  0  0  0  0  0
   -0.9814    0.8028   -1.4973 H   0  0  0  0  0  0  0  0  0  0  0  0
    0.0192    1.5597   -0.1383 H   0  0  0  0  0  0  0  0  0  0  0  0
   -1.6303    0.8373    1.5207 H   0  0  0  0  0  0  0  0  0  0  0  0
   -3.2085   -1.0294    1.0115 H   0  0  0  0  0  0  0  0  0  0  0  0
   -2.6612   -1.0223   -0.7741 H   0  0  0  0  0  0  0  0  0  0  0  0
   -3.9752    1.3188    0.6905 H   0  0  0  0  0  0  0  0  0  0  0  0
   -3.4168    1.3411   -1.0708 H   0  0  0  0  0  0  0  0  0  0  0  0
    0.8696    0.5302    1.5524 H   0  0  0  0  0  0  0  0  0  0  0  0
    0.7763   -1.2870    1.7963 H   0  0  0  0  0  0  0  0  0  0  0  0
  1  2  1  0
  2  3  1  0
  3  4  1  0
  4  5  1  0
  5  6  1  0
  6  7  1  0
  7  8  1  0
  4  9  1  0
  9  2  1  0
  8  6  1  0
  1 10  1  0
  1 11  1  0
  1 12  1  0
  2 13  1  0
  3 14  1  0
  3 15  1  0
  4 16  1  0
  5 17  1  0
  5 18  1  0
  6 19  1  0
  7 20  1  0
  7 21  1  0
  8 22  1  0
  8 23  1  0
  9 24  1  0
  9 25  1  0
M  END
