
     RDKit          3D

 19 20  0  0  0  0  0  0  0  0999 V2000
   -2.2415   -0.5508    0.3306 C   0  0  0  0  0  0  0  0  0  0  0  0
   -1.1738    0.4338    0.0002 C   0  0  0  0  0  0  0  0  0  0  0  0
   -0.0831    0.4166    1.0621 C   0  0  0  0  0  0  0  0  0  0  0  0
    0.9893    0.3168    0.0281 C   0  0  0  0  0  0  0  0  0  0  0  0
    2.0767   -0.6918    0.2051 C   0  0  0  0  0  0  0  0  0  0  0  0
    0.9112    1.0239   -1.2716 C   0  0  0  0  0  0  0  0  0  0  0  0
   -0.1332   -0.0000   -0.9951 C   0  0  0  0  0  0  0  0  0  0  0  0
   -3.1830   -0.3914   -0.2573 H   0  0  0  0  0  0  0  0  0  0  0  0
   -2.5533   -0.3503    1.3984 H   0  0  0  0  0  0  0  0  0  0  0  0
   -1.9266   -1.6033    0.2795 H   0  0  0  0  0  0  0  0  0  0  0  0
   -1.5817    1.4345   -0.1965 H   0  0  0  0  0  0  0  0  0  0  0  0
   -0.1082   -0.5110    1.6945 H   0  0  0  0  0  0  0  0  0  0  0  0
   -0.1277    1.3461    1.6432 H   0  0  0  0  0  0  0  0  0  0  0  0
    1.7176   -1.4635    0.9076 H   0  0  0  0  0  0  0  0  0  0  0  0
    2.9601   -0.1513    0.6443 H   0  0  0  0  0  0  0  0  0  0  0  0
    2.3586   -1.2030   -0.7341 H   0  0  0  0  0  0  0  0  0  0  0  0
    0.5068    2.0731   -1.3260 H   0  0  0  0  0  0  0  0  0  0  0  0
    1.7334    0.8574   -1.9652 H   0  0  0  0  0  0  0  0  0  0  0  0
   -0.1417   -0.9859   -1.4480 H   0  0  0  0  0  0  0  0  0  0  0  0
  1  2  1  0
  2  3  1  0
  3  4  1  0
  4  5  1  0
  4  6  1  0
  6  7  1  0
  7  2  1  0
  7  4  1  0
  1  8  1  0
  1  9  1  0
  1 10  1  0
  2 11  1  0
  3 12  1  0
  3 13  1  0
  5 14  1  0
  5 15  1  0
  5 16  1  0
  6 17  1  0
  6 18  1  0
  7 19  1  0
M  END
