
     RDKit          3D

 25 26  0  0  0  0  0  0  0  0999 V2000
    2.1142   -0.6541    0.5637 C   0  0  0  0  0  0  0  0  0  0  0  0
    1.2658    0.1478   -0.3620 C   0  0  0  0  0  0  0  0  0  0  0  0
    0.0133    0.7407    0.2352 C   0  0  0  0  0  0  0  0  0  0  0  0
   -0.1889    2.1983    0.0018 C   0  0  0  0  0  0  0  0  0  0  0  0
   -0.5579    0.1643    1.4914 C   0  0  0  0  0  0  0  0  0  0  0  0
   -1.1646   -1.1650    1.1335 C   0  0  0  0  0  0  0  0  0  0  0  0
   -0.6384   -1.5522   -0.2166 C   0  0  0  0  0  0  0  0  0  0  0  0
   -0.0725   -0.2819   -0.7962 C   0  0  0  0  0  0  0  0  0  0  0  0
   -0.6604    0.1111   -2.1190 C   0  0  0  0  0  0  0  0  0  0  0  0
    1.9017   -1.7240    0.5929 H   0  0  0  0  0  0  0  0  0  0  0  0
    3.2175   -0.5648    0.3371 H   0  0  0  0  0  0  0  0  0  0  0  0
    2.0275   -0.2562    1.6136 H   0  0  0  0  0  0  0  0  0  0  0  0
    1.8334    0.7868   -1.0685 H   0  0  0  0  0  0  0  0  0  0  0  0
   -0.9546    2.4621   -0.7232 H   0  0  0  0  0  0  0  0  0  0  0  0
    0.7666    2.6700   -0.3544 H   0  0  0  0  0  0  0  0  0  0  0  0
   -0.4707    2.7151    0.9626 H   0  0  0  0  0  0  0  0  0  0  0  0
   -1.4114    0.8281    1.7958 H   0  0  0  0  0  0  0  0  0  0  0  0
    0.1235    0.1302    2.3409 H   0  0  0  0  0  0  0  0  0  0  0  0
   -2.2882   -1.1098    1.0484 H   0  0  0  0  0  0  0  0  0  0  0  0
   -0.8873   -1.9219    1.8797 H   0  0  0  0  0  0  0  0  0  0  0  0
    0.1081   -2.3674   -0.1354 H   0  0  0  0  0  0  0  0  0  0  0  0
   -1.4604   -1.9806   -0.8632 H   0  0  0  0  0  0  0  0  0  0  0  0
   -1.2408   -0.7423   -2.5784 H   0  0  0  0  0  0  0  0  0  0  0  0
   -1.4508    0.8928   -1.9286 H   0  0  0  0  0  0  0  0  0  0  0  0
    0.0754    0.4728   -2.8510 H   0  0  0  0  0  0  0  0  0  0  0  0
  1  2  1  0
  2  3  1  0
  3  4  1  0
  3  5  1  0
  5  6  1  0
  6  7  1  0
  7  8  1  0
  8  9  1  0
  8  2  1  0
  8  3  1  0
  1 10  1  0
  1 11  1  0
  1 12  1  0
  2 13  1  0
  4 14  1  0
  4 15  1  0
  4 16  1  0
  5 17  1  0
  5 18  1  0
  6 19  1  0
  6 20  1  0
  7 21  1  0
  7 22  1  0
  9 23  1  0
  9 24  1  0
  9 25  1  0
M  END
