
     RDKit          3D

 14 14  0  0  0  0  0  0  0  0999 V2000
   -1.6542   -0.0571   -0.4818 C   0  0  0  0  0  0  0  0  0  0  0  0
   -0.4761   -0.4057    0.4249 C   0  0  0  0  0  0  0  0  0  0  0  0
    0.6035   -1.0696   -0.3233 C   0  0  0  0  0  0  0  0  0  0  0  0
    1.6929   -0.3268   -0.3674 C   0  0  0  0  0  0  0  0  0  0  0  0
    1.4744    0.9256    0.3468 C   0  0  0  0  0  0  0  0  0  0  0  0
    2.2942    1.8751    0.5101 O   0  0  0  0  0  0  0  0  0  0  0  0
    0.1138    0.8743    0.8429 C   0  0  0  0  0  0  0  0  0  0  0  0
   -0.5144    1.7444    1.5217 O   0  0  0  0  0  0  0  0  0  0  0  0
   -2.4897   -0.7476   -0.2590 H   0  0  0  0  0  0  0  0  0  0  0  0
   -2.0371    0.9674   -0.2777 H   0  0  0  0  0  0  0  0  0  0  0  0
   -1.3232   -0.1290   -1.5575 H   0  0  0  0  0  0  0  0  0  0  0  0
   -0.8562   -1.0132    1.2716 H   0  0  0  0  0  0  0  0  0  0  0  0
    0.5353   -2.0429   -0.7870 H   0  0  0  0  0  0  0  0  0  0  0  0
    2.6368   -0.5948   -0.8643 H   0  0  0  0  0  0  0  0  0  0  0  0
  1  2  1  0
  2  3  1  0
  3  4  2  0
  4  5  1  0
  5  6  2  0
  5  7  1  0
  7  8  2  0
  7  2  1  0
  1  9  1  0
  1 10  1  0
  1 11  1  0
  2 12  1  0
  3 13  1  0
  4 14  1  0
M  END
