
     RDKit          3D

 20 20  0  0  0  0  0  0  0  0999 V2000
   -1.3816   -1.6581   -0.0574 C   0  0  0  0  0  0  0  0  0  0  0  0
   -0.7323   -0.3365   -0.4141 C   0  0  0  0  0  0  0  0  0  0  0  0
   -1.1822    0.8373    0.3992 C   0  0  0  0  0  0  0  0  0  0  0  0
   -1.4497    2.0034   -0.2834 O   0  0  0  0  0  0  0  0  0  0  0  0
    0.1912    0.9123    1.0398 C   0  0  0  0  0  0  0  0  0  0  0  0
    0.6413   -0.2550    0.2007 C   0  0  0  0  0  0  0  0  0  0  0  0
    1.7615    0.0647   -0.7693 C   0  0  0  0  0  0  0  0  0  0  0  0
    2.9414    0.0954   -0.0129 O   0  0  0  0  0  0  0  0  0  0  0  0
   -0.7560   -2.2530    0.6507 H   0  0  0  0  0  0  0  0  0  0  0  0
   -2.3556   -1.5128    0.4628 H   0  0  0  0  0  0  0  0  0  0  0  0
   -1.4861   -2.3048   -0.9640 H   0  0  0  0  0  0  0  0  0  0  0  0
   -0.7528   -0.1792   -1.5121 H   0  0  0  0  0  0  0  0  0  0  0  0
   -1.9991    0.5631    1.1105 H   0  0  0  0  0  0  0  0  0  0  0  0
   -2.3792    2.0427   -0.6413 H   0  0  0  0  0  0  0  0  0  0  0  0
    0.1492    0.7427    2.1215 H   0  0  0  0  0  0  0  0  0  0  0  0
    0.7743    1.8162    0.7688 H   0  0  0  0  0  0  0  0  0  0  0  0
    0.9264   -1.1018    0.8524 H   0  0  0  0  0  0  0  0  0  0  0  0
    1.5709    1.0514   -1.2423 H   0  0  0  0  0  0  0  0  0  0  0  0
    1.8204   -0.7000   -1.5585 H   0  0  0  0  0  0  0  0  0  0  0  0
    3.6981    0.1720   -0.6221 H   0  0  0  0  0  0  0  0  0  0  0  0
  1  2  1  0
  2  3  1  0
  3  4  1  0
  3  5  1  0
  5  6  1  0
  6  7  1  0
  7  8  1  0
  6  2  1  0
  1  9  1  0
  1 10  1  0
  1 11  1  0
  2 12  1  0
  3 13  1  0
  4 14  1  0
  5 15  1  0
  5 16  1  0
  6 17  1  0
  7 18  1  0
  7 19  1  0
  8 20  1  0
M  END
