
     RDKit          3D

 21 22  0  0  0  0  0  0  0  0999 V2000
    1.4611   -1.2118    0.5556 C   0  0  0  0  0  0  0  0  0  0  0  0
    0.9177    0.1523    0.3204 C   0  0  0  0  0  0  0  0  0  0  0  0
    1.0531    0.5875   -1.1517 C   0  0  0  0  0  0  0  0  0  0  0  0
    0.1107    1.7391   -1.1444 C   0  0  0  0  0  0  0  0  0  0  0  0
   -0.8244    1.5660   -0.2014 C   0  0  0  0  0  0  0  0  0  0  0  0
   -0.6198    0.1414    0.2311 C   0  0  0  0  0  0  0  0  0  0  0  0
   -1.3207   -0.2975    1.4050 C   0  0  0  0  0  0  0  0  0  0  0  0
   -0.7593   -0.6862   -1.0313 C   0  0  0  0  0  0  0  0  0  0  0  0
    0.4009   -0.4650   -1.7818 O   0  0  0  0  0  0  0  0  0  0  0  0
    1.4018   -1.8649   -0.3107 H   0  0  0  0  0  0  0  0  0  0  0  0
    0.9408   -1.6528    1.4350 H   0  0  0  0  0  0  0  0  0  0  0  0
    2.5228   -1.1200    0.8418 H   0  0  0  0  0  0  0  0  0  0  0  0
    1.2842    0.9134    1.0073 H   0  0  0  0  0  0  0  0  0  0  0  0
    2.0487    0.7859   -1.4583 H   0  0  0  0  0  0  0  0  0  0  0  0
    0.1774    2.5836   -1.8035 H   0  0  0  0  0  0  0  0  0  0  0  0
   -1.5610    2.2501    0.1831 H   0  0  0  0  0  0  0  0  0  0  0  0
   -2.2756    0.2910    1.5388 H   0  0  0  0  0  0  0  0  0  0  0  0
   -0.7729   -0.2666    2.3632 H   0  0  0  0  0  0  0  0  0  0  0  0
   -1.6765   -1.3584    1.2914 H   0  0  0  0  0  0  0  0  0  0  0  0
   -1.6705   -0.3298   -1.5403 H   0  0  0  0  0  0  0  0  0  0  0  0
   -0.8385   -1.7571   -0.7496 H   0  0  0  0  0  0  0  0  0  0  0  0
  1  2  1  0
  2  3  1  0
  3  4  1  0
  4  5  2  0
  5  6  1  0
  6  7  1  0
  6  8  1  0
  8  9  1  0
  6  2  1  0
  9  3  1  0
  1 10  1  0
  1 11  1  0
  1 12  1  0
  2 13  1  0
  3 14  1  0
  4 15  1  0
  5 16  1  0
  7 17  1  0
  7 18  1  0
  7 19  1  0
  8 20  1  0
  8 21  1  0
M  END
