
     RDKit          3D

 21 21  0  0  0  0  0  0  0  0999 V2000
   -0.1785    2.0297   -0.4697 C   0  0  0  0  0  0  0  0  0  0  0  0
    0.3780    0.9223    0.3568 C   0  0  0  0  0  0  0  0  0  0  0  0
    0.9352   -0.2966   -0.2934 C   0  0  0  0  0  0  0  0  0  0  0  0
    2.0705   -1.0351    0.3484 C   0  0  0  0  0  0  0  0  0  0  0  0
    2.4708   -2.1480   -0.3858 O   0  0  0  0  0  0  0  0  0  0  0  0
   -0.3604   -0.3220    0.4993 C   0  0  0  0  0  0  0  0  0  0  0  0
   -1.5667   -0.7237   -0.2497 C   0  0  0  0  0  0  0  0  0  0  0  0
   -2.7249    0.1748   -0.0423 C   0  0  0  0  0  0  0  0  0  0  0  0
   -2.6709    1.0919    0.7436 O   0  0  0  0  0  0  0  0  0  0  0  0
   -0.9284    1.7524   -1.2159 H   0  0  0  0  0  0  0  0  0  0  0  0
    0.6296    2.6088   -1.0043 H   0  0  0  0  0  0  0  0  0  0  0  0
   -0.6219    2.7832    0.2148 H   0  0  0  0  0  0  0  0  0  0  0  0
    0.9886    1.2917    1.2220 H   0  0  0  0  0  0  0  0  0  0  0  0
    0.9141   -0.3146   -1.3766 H   0  0  0  0  0  0  0  0  0  0  0  0
    2.9421   -0.3501    0.4393 H   0  0  0  0  0  0  0  0  0  0  0  0
    1.8008   -1.4071    1.3596 H   0  0  0  0  0  0  0  0  0  0  0  0
    3.1442   -2.6203    0.1932 H   0  0  0  0  0  0  0  0  0  0  0  0
   -0.3151   -0.7883    1.5313 H   0  0  0  0  0  0  0  0  0  0  0  0
   -1.3602   -0.8808   -1.3435 H   0  0  0  0  0  0  0  0  0  0  0  0
   -1.9169   -1.7406    0.1034 H   0  0  0  0  0  0  0  0  0  0  0  0
   -3.6300   -0.0274   -0.6305 H   0  0  0  0  0  0  0  0  0  0  0  0
  1  2  1  0
  2  3  1  0
  3  4  1  0
  4  5  1  0
  3  6  1  0
  6  7  1  0
  7  8  1  0
  8  9  2  0
  6  2  1  0
  1 10  1  0
  1 11  1  0
  1 12  1  0
  2 13  1  0
  3 14  1  0
  4 15  1  0
  4 16  1  0
  5 17  1  0
  6 18  1  0
  7 19  1  0
  7 20  1  0
  8 21  1  0
M  END
