
     RDKit          3D

 25 25  0  0  0  0  0  0  0  0999 V2000
    2.7518   -0.0550   -0.1788 C   0  0  0  0  0  0  0  0  0  0  0  0
    1.2403   -0.0353   -0.4491 C   0  0  0  0  0  0  0  0  0  0  0  0
    0.6519   -1.2017    0.2610 C   0  0  0  0  0  0  0  0  0  0  0  0
   -0.6408   -1.6934   -0.2792 C   0  0  0  0  0  0  0  0  0  0  0  0
   -1.6596   -0.6375   -0.5446 C   0  0  0  0  0  0  0  0  0  0  0  0
   -1.8769    0.2859    0.6245 C   0  0  0  0  0  0  0  0  0  0  0  0
   -1.5072    1.6980    0.1914 C   0  0  0  0  0  0  0  0  0  0  0  0
   -0.3855    1.6757   -0.6337 O   0  0  0  0  0  0  0  0  0  0  0  0
    0.7491    1.3027    0.0836 C   0  0  0  0  0  0  0  0  0  0  0  0
    3.1571   -0.8381   -0.8666 H   0  0  0  0  0  0  0  0  0  0  0  0
    3.2042    0.9303   -0.3219 H   0  0  0  0  0  0  0  0  0  0  0  0
    2.9081   -0.4706    0.8494 H   0  0  0  0  0  0  0  0  0  0  0  0
    1.0512   -0.0233   -1.5387 H   0  0  0  0  0  0  0  0  0  0  0  0
    1.3929   -2.0497    0.1761 H   0  0  0  0  0  0  0  0  0  0  0  0
    0.5972   -0.9825    1.3464 H   0  0  0  0  0  0  0  0  0  0  0  0
   -1.0840   -2.3875    0.4943 H   0  0  0  0  0  0  0  0  0  0  0  0
   -0.5309   -2.3079   -1.1878 H   0  0  0  0  0  0  0  0  0  0  0  0
   -1.4572   -0.0715   -1.4949 H   0  0  0  0  0  0  0  0  0  0  0  0
   -2.6280   -1.1799   -0.7597 H   0  0  0  0  0  0  0  0  0  0  0  0
   -1.3195   -0.0227    1.5244 H   0  0  0  0  0  0  0  0  0  0  0  0
   -2.9720    0.3317    0.8774 H   0  0  0  0  0  0  0  0  0  0  0  0
   -1.3422    2.3165    1.1010 H   0  0  0  0  0  0  0  0  0  0  0  0
   -2.3498    2.1267   -0.3834 H   0  0  0  0  0  0  0  0  0  0  0  0
    1.5699    2.0562   -0.0437 H   0  0  0  0  0  0  0  0  0  0  0  0
    0.4800    1.2332    1.1528 H   0  0  0  0  0  0  0  0  0  0  0  0
  1  2  1  0
  2  3  1  0
  3  4  1  0
  4  5  1  0
  5  6  1  0
  6  7  1  0
  7  8  1  0
  8  9  1  0
  9  2  1  0
  1 10  1  0
  1 11  1  0
  1 12  1  0
  2 13  1  0
  3 14  1  0
  3 15  1  0
  4 16  1  0
  4 17  1  0
  5 18  1  0
  5 19  1  0
  6 20  1  0
  6 21  1  0
  7 22  1  0
  7 23  1  0
  9 24  1  0
  9 25  1  0
M  END
