
     RDKit          3D

 21 23  0  0  0  0  0  0  0  0999 V2000
    1.6859   -0.9592    0.8790 C   0  0  0  0  0  0  0  0  0  0  0  0
    0.9239   -0.6110   -0.3764 C   0  0  0  0  0  0  0  0  0  0  0  0
    1.2301    0.8254   -0.7671 C   0  0  0  0  0  0  0  0  0  0  0  0
    0.7134    1.9424    0.0814 C   0  0  0  0  0  0  0  0  0  0  0  0
   -0.3005    1.1397   -0.7153 C   0  0  0  0  0  0  0  0  0  0  0  0
   -0.4979   -0.2393   -0.2240 C   0  0  0  0  0  0  0  0  0  0  0  0
   -1.2944   -0.4457    0.9848 C   0  0  0  0  0  0  0  0  0  0  0  0
   -1.6370   -1.0856   -0.3896 C   0  0  0  0  0  0  0  0  0  0  0  0
   -2.8558   -0.7265   -0.9210 O   0  0  0  0  0  0  0  0  0  0  0  0
    2.2616   -0.1006    1.2863 H   0  0  0  0  0  0  0  0  0  0  0  0
    2.4052   -1.7533    0.6147 H   0  0  0  0  0  0  0  0  0  0  0  0
    0.9966   -1.2800    1.6740 H   0  0  0  0  0  0  0  0  0  0  0  0
    1.0884   -1.2938   -1.2396 H   0  0  0  0  0  0  0  0  0  0  0  0
    1.7439    1.0462   -1.7004 H   0  0  0  0  0  0  0  0  0  0  0  0
    0.6322    1.7513    1.1886 H   0  0  0  0  0  0  0  0  0  0  0  0
    0.9909    2.9436   -0.2430 H   0  0  0  0  0  0  0  0  0  0  0  0
   -0.7000    1.5219   -1.6497 H   0  0  0  0  0  0  0  0  0  0  0  0
   -1.9649    0.4123    1.2733 H   0  0  0  0  0  0  0  0  0  0  0  0
   -1.0328   -1.1127    1.8031 H   0  0  0  0  0  0  0  0  0  0  0  0
   -1.4641   -2.2017   -0.4069 H   0  0  0  0  0  0  0  0  0  0  0  0
   -2.9245    0.2265   -1.1521 H   0  0  0  0  0  0  0  0  0  0  0  0
  1  2  1  0
  2  3  1  0
  3  4  1  0
  4  5  1  0
  5  6  1  0
  6  7  1  0
  7  8  1  0
  8  9  1  0
  6  2  1  0
  5  3  1  0
  8  6  1  0
  1 10  1  0
  1 11  1  0
  1 12  1  0
  2 13  1  0
  3 14  1  0
  4 15  1  0
  4 16  1  0
  5 17  1  0
  7 18  1  0
  7 19  1  0
  8 20  1  0
  9 21  1  0
M  END
