
     RDKit          3D

 21 22  0  0  0  0  0  0  0  0999 V2000
   -1.8279    1.1045    0.4196 C   0  0  0  0  0  0  0  0  0  0  0  0
   -1.0456    0.2832   -0.5523 C   0  0  0  0  0  0  0  0  0  0  0  0
   -1.6852   -1.0732   -0.7379 C   0  0  0  0  0  0  0  0  0  0  0  0
   -0.6144   -1.7337   -0.1683 O   0  0  0  0  0  0  0  0  0  0  0  0
    0.0588   -0.5379   -0.0769 C   0  0  0  0  0  0  0  0  0  0  0  0
    1.3468   -0.4208   -0.8318 C   0  0  0  0  0  0  0  0  0  0  0  0
    2.0196   -0.0226    0.4700 C   0  0  0  0  0  0  0  0  0  0  0  0
    2.3445    1.3358    0.4698 O   0  0  0  0  0  0  0  0  0  0  0  0
    0.7255   -0.2861    1.2094 C   0  0  0  0  0  0  0  0  0  0  0  0
   -1.2177    1.7490    1.0724 H   0  0  0  0  0  0  0  0  0  0  0  0
   -2.5302    0.4729    1.0204 H   0  0  0  0  0  0  0  0  0  0  0  0
   -2.5038    1.7707   -0.1858 H   0  0  0  0  0  0  0  0  0  0  0  0
   -0.8644    0.8203   -1.4990 H   0  0  0  0  0  0  0  0  0  0  0  0
   -2.6063   -1.2511   -0.1558 H   0  0  0  0  0  0  0  0  0  0  0  0
   -1.8580   -1.3054   -1.7932 H   0  0  0  0  0  0  0  0  0  0  0  0
    1.4040    0.3647   -1.6046 H   0  0  0  0  0  0  0  0  0  0  0  0
    1.6590   -1.3823   -1.2560 H   0  0  0  0  0  0  0  0  0  0  0  0
    2.8640   -0.6763    0.7273 H   0  0  0  0  0  0  0  0  0  0  0  0
    3.0980    1.4869   -0.1611 H   0  0  0  0  0  0  0  0  0  0  0  0
    0.8332   -1.2448    1.7963 H   0  0  0  0  0  0  0  0  0  0  0  0
    0.4001    0.5464    1.8376 H   0  0  0  0  0  0  0  0  0  0  0  0
  1  2  1  0
  2  3  1  0
  3  4  1  0
  4  5  1  0
  5  6  1  0
  6  7  1  0
  7  8  1  0
  7  9  1  0
  5  2  1  0
  9  5  1  0
  1 10  1  0
  1 11  1  0
  1 12  1  0
  2 13  1  0
  3 14  1  0
  3 15  1  0
  6 16  1  0
  6 17  1  0
  7 18  1  0
  8 19  1  0
  9 20  1  0
  9 21  1  0
M  END
