
     RDKit          3D

 18 19  0  0  0  0  0  0  0  0999 V2000
    1.8769   -0.6072    0.3827 C   0  0  0  0  0  0  0  0  0  0  0  0
    0.7744    0.4000    0.2817 C   0  0  0  0  0  0  0  0  0  0  0  0
    0.2340    0.5132   -1.1550 C   0  0  0  0  0  0  0  0  0  0  0  0
   -1.2278    0.3449   -0.8479 C   0  0  0  0  0  0  0  0  0  0  0  0
   -1.1902   -0.9290    0.0077 C   0  0  0  0  0  0  0  0  0  0  0  0
   -0.4813    0.0189    0.9828 C   0  0  0  0  0  0  0  0  0  0  0  0
   -1.4438    1.0509    0.4449 C   0  0  0  0  0  0  0  0  0  0  0  0
   -2.0438    1.9701    0.9317 O   0  0  0  0  0  0  0  0  0  0  0  0
    2.8256   -0.1568    0.0529 H   0  0  0  0  0  0  0  0  0  0  0  0
    2.0022   -0.8390    1.4658 H   0  0  0  0  0  0  0  0  0  0  0  0
    1.6476   -1.5731   -0.1049 H   0  0  0  0  0  0  0  0  0  0  0  0
    1.1620    1.3677    0.6314 H   0  0  0  0  0  0  0  0  0  0  0  0
    0.5557   -0.3283   -1.7699 H   0  0  0  0  0  0  0  0  0  0  0  0
    0.4839    1.4908   -1.5988 H   0  0  0  0  0  0  0  0  0  0  0  0
   -1.9541    0.4082   -1.6111 H   0  0  0  0  0  0  0  0  0  0  0  0
   -2.1708   -1.2593    0.3632 H   0  0  0  0  0  0  0  0  0  0  0  0
   -0.5380   -1.6674   -0.4686 H   0  0  0  0  0  0  0  0  0  0  0  0
   -0.5124   -0.2048    2.0115 H   0  0  0  0  0  0  0  0  0  0  0  0
  1  2  1  0
  2  3  1  0
  3  4  1  0
  4  5  1  0
  5  6  1  0
  6  7  1  0
  7  8  2  0
  6  2  1  0
  7  4  1  0
  1  9  1  0
  1 10  1  0
  1 11  1  0
  2 12  1  0
  3 13  1  0
  3 14  1  0
  4 15  1  0
  5 16  1  0
  5 17  1  0
  6 18  1  0
M  END
