
     RDKit          3D

 19 21  0  0  0  0  0  0  0  0999 V2000
    2.2701   -0.2501    0.3118 C   0  0  0  0  0  0  0  0  0  0  0  0
    0.9053   -0.4136   -0.2905 C   0  0  0  0  0  0  0  0  0  0  0  0
    0.4631    0.8847   -0.9640 C   0  0  0  0  0  0  0  0  0  0  0  0
   -0.7414    0.7157   -1.5869 O   0  0  0  0  0  0  0  0  0  0  0  0
   -1.7632    0.2804   -0.7851 C   0  0  0  0  0  0  0  0  0  0  0  0
   -1.7511    0.6106    0.6431 C   0  0  0  0  0  0  0  0  0  0  0  0
   -0.5655    0.5788    1.3552 O   0  0  0  0  0  0  0  0  0  0  0  0
   -0.1148   -0.6356    0.8313 C   0  0  0  0  0  0  0  0  0  0  0  0
   -1.4497   -0.7899    0.1651 C   0  0  0  0  0  0  0  0  0  0  0  0
    2.5275   -1.1717    0.8582 H   0  0  0  0  0  0  0  0  0  0  0  0
    3.0108   -0.0782   -0.4888 H   0  0  0  0  0  0  0  0  0  0  0  0
    2.2072    0.5920    1.0393 H   0  0  0  0  0  0  0  0  0  0  0  0
    0.8403   -1.2191   -1.0280 H   0  0  0  0  0  0  0  0  0  0  0  0
    1.1983    1.2296   -1.7142 H   0  0  0  0  0  0  0  0  0  0  0  0
    0.3753    1.6384   -0.1535 H   0  0  0  0  0  0  0  0  0  0  0  0
   -2.7468    0.2198   -1.2895 H   0  0  0  0  0  0  0  0  0  0  0  0
   -2.6973    0.8336    1.1528 H   0  0  0  0  0  0  0  0  0  0  0  0
    0.1482   -1.4046    1.5527 H   0  0  0  0  0  0  0  0  0  0  0  0
   -2.1164   -1.6209    0.3910 H   0  0  0  0  0  0  0  0  0  0  0  0
  1  2  1  0
  2  3  1  0
  3  4  1  0
  4  5  1  0
  5  6  1  0
  6  7  1  0
  7  8  1  0
  8  9  1  0
  8  2  1  0
  9  5  1  0
  9  6  1  0
  1 10  1  0
  1 11  1  0
  1 12  1  0
  2 13  1  0
  3 14  1  0
  3 15  1  0
  5 16  1  0
  6 17  1  0
  8 18  1  0
  9 19  1  0
M  END
