
     RDKit          3D

 17 18  0  0  0  0  0  0  0  0999 V2000
   -2.0828    0.7914    0.1046 C   0  0  0  0  0  0  0  0  0  0  0  0
   -0.9924   -0.1772    0.3813 C   0  0  0  0  0  0  0  0  0  0  0  0
   -0.5088   -0.9528   -0.8827 C   0  0  0  0  0  0  0  0  0  0  0  0
    0.7424   -1.0678   -0.0550 C   0  0  0  0  0  0  0  0  0  0  0  0
    1.9873   -0.9978   -0.6041 O   0  0  0  0  0  0  0  0  0  0  0  0
    2.5734    0.1892   -0.1152 C   0  0  0  0  0  0  0  0  0  0  0  0
    3.7737    0.5315   -0.1670 O   0  0  0  0  0  0  0  0  0  0  0  0
    1.5131    1.0002    0.4917 C   0  0  0  0  0  0  0  0  0  0  0  0
    0.3857    0.3552    0.3860 C   0  0  0  0  0  0  0  0  0  0  0  0
   -1.9994    1.6191    0.8638 H   0  0  0  0  0  0  0  0  0  0  0  0
   -3.0526    0.2954    0.2926 H   0  0  0  0  0  0  0  0  0  0  0  0
   -1.9819    1.2532   -0.8721 H   0  0  0  0  0  0  0  0  0  0  0  0
   -1.1351   -0.9065    1.1767 H   0  0  0  0  0  0  0  0  0  0  0  0
   -0.4303   -0.2556   -1.7146 H   0  0  0  0  0  0  0  0  0  0  0  0
   -1.0773   -1.8824   -1.0408 H   0  0  0  0  0  0  0  0  0  0  0  0
    0.6079   -1.7843    0.8013 H   0  0  0  0  0  0  0  0  0  0  0  0
    1.6768    1.9891    0.9532 H   0  0  0  0  0  0  0  0  0  0  0  0
  1  2  1  0
  2  3  1  0
  3  4  1  0
  4  5  1  0
  5  6  1  0
  6  7  2  0
  6  8  1  0
  8  9  2  0
  9  2  1  0
  9  4  1  0
  1 10  1  0
  1 11  1  0
  1 12  1  0
  2 13  1  0
  3 14  1  0
  3 15  1  0
  4 16  1  0
  8 17  1  0
M  END
