
     RDKit          3D

 18 20  0  0  0  0  0  0  0  0999 V2000
   -2.0240   -0.6290    0.5491 C   0  0  0  0  0  0  0  0  0  0  0  0
   -0.6377   -0.6021    0.0672 C   0  0  0  0  0  0  0  0  0  0  0  0
    0.3965    0.1055    0.8905 C   0  0  0  0  0  0  0  0  0  0  0  0
   -0.2271    1.3890    0.4301 C   0  0  0  0  0  0  0  0  0  0  0  0
   -0.2001    0.5337   -0.8105 C   0  0  0  0  0  0  0  0  0  0  0  0
    1.1604    0.1488   -0.3897 C   0  0  0  0  0  0  0  0  0  0  0  0
    2.1399   -0.6159   -0.8971 C   0  0  0  0  0  0  0  0  0  0  0  0
    2.2844    0.8524   -0.5917 O   0  0  0  0  0  0  0  0  0  0  0  0
   -2.7167   -0.5145   -0.3352 H   0  0  0  0  0  0  0  0  0  0  0  0
   -2.2374   -1.6788    0.9114 H   0  0  0  0  0  0  0  0  0  0  0  0
   -2.2790    0.0291    1.3800 H   0  0  0  0  0  0  0  0  0  0  0  0
   -0.2656   -1.5524   -0.3048 H   0  0  0  0  0  0  0  0  0  0  0  0
    0.7206   -0.1292    1.8064 H   0  0  0  0  0  0  0  0  0  0  0  0
    0.4621    2.2579    0.4173 H   0  0  0  0  0  0  0  0  0  0  0  0
   -1.1905    1.6648    0.8303 H   0  0  0  0  0  0  0  0  0  0  0  0
   -0.5548    0.7761   -1.7137 H   0  0  0  0  0  0  0  0  0  0  0  0
    2.8606   -1.2147   -0.2647 H   0  0  0  0  0  0  0  0  0  0  0  0
    2.3083   -0.8207   -1.9751 H   0  0  0  0  0  0  0  0  0  0  0  0
  1  2  1  0
  2  3  1  0
  3  4  1  0
  4  5  1  0
  5  6  1  0
  6  7  1  0
  7  8  1  0
  5  2  1  0
  8  6  1  0
  6  3  1  0
  1  9  1  0
  1 10  1  0
  1 11  1  0
  2 12  1  0
  3 13  1  0
  4 14  1  0
  4 15  1  0
  5 16  1  0
  7 17  1  0
  7 18  1  0
M  END
