
     RDKit          3D

 21 23  0  0  0  0  0  0  0  0999 V2000
    2.4010    0.4128   -0.2465 C   0  0  0  0  0  0  0  0  0  0  0  0
    1.0038    0.4046    0.2318 C   0  0  0  0  0  0  0  0  0  0  0  0
    0.5851   -0.8235    1.0492 C   0  0  0  0  0  0  0  0  0  0  0  0
    0.5575   -1.5407   -0.3096 C   0  0  0  0  0  0  0  0  0  0  0  0
   -0.0264   -0.1939   -0.7423 C   0  0  0  0  0  0  0  0  0  0  0  0
   -1.2190   -0.0928    0.1109 C   0  0  0  0  0  0  0  0  0  0  0  0
   -1.8338    1.3228    0.1739 C   0  0  0  0  0  0  0  0  0  0  0  0
   -2.5782    0.0948   -0.2493 C   0  0  0  0  0  0  0  0  0  0  0  0
   -0.7479   -0.6258    1.3221 O   0  0  0  0  0  0  0  0  0  0  0  0
    2.5682   -0.0722   -1.2324 H   0  0  0  0  0  0  0  0  0  0  0  0
    3.0571   -0.0331    0.5306 H   0  0  0  0  0  0  0  0  0  0  0  0
    2.7337    1.4912   -0.3125 H   0  0  0  0  0  0  0  0  0  0  0  0
    0.5796    1.3454    0.6298 H   0  0  0  0  0  0  0  0  0  0  0  0
    1.2568   -1.1841    1.7810 H   0  0  0  0  0  0  0  0  0  0  0  0
    1.5516   -1.7655   -0.7220 H   0  0  0  0  0  0  0  0  0  0  0  0
   -0.1642   -2.3790   -0.3437 H   0  0  0  0  0  0  0  0  0  0  0  0
    0.0182    0.0845   -1.7503 H   0  0  0  0  0  0  0  0  0  0  0  0
   -1.9210    1.7365    1.1778 H   0  0  0  0  0  0  0  0  0  0  0  0
   -1.5547    2.0284   -0.6179 H   0  0  0  0  0  0  0  0  0  0  0  0
   -2.8861    0.0058   -1.3100 H   0  0  0  0  0  0  0  0  0  0  0  0
   -3.3814   -0.2163    0.4493 H   0  0  0  0  0  0  0  0  0  0  0  0
  1  2  1  0
  2  3  1  0
  3  4  1  0
  4  5  1  0
  5  6  1  0
  6  7  1  0
  7  8  1  0
  6  9  1  0
  5  2  1  0
  8  6  1  0
  9  3  1  0
  1 10  1  0
  1 11  1  0
  1 12  1  0
  2 13  1  0
  3 14  1  0
  4 15  1  0
  4 16  1  0
  5 17  1  0
  7 18  1  0
  7 19  1  0
  8 20  1  0
  8 21  1  0
M  END
