
     RDKit          3D

 23 24  0  0  0  0  0  0  0  0999 V2000
    2.6634   -0.3483   -0.6626 C   0  0  0  0  0  0  0  0  0  0  0  0
    1.4083   -0.3778    0.1915 C   0  0  0  0  0  0  0  0  0  0  0  0
    1.1190    0.7940    1.0690 C   0  0  0  0  0  0  0  0  0  0  0  0
    0.5977    0.5607    2.3434 O   0  0  0  0  0  0  0  0  0  0  0  0
    0.3278    0.6109   -0.1481 C   0  0  0  0  0  0  0  0  0  0  0  0
   -1.1043    0.1846   -0.1500 C   0  0  0  0  0  0  0  0  0  0  0  0
   -2.0763    1.2990   -0.5134 C   0  0  0  0  0  0  0  0  0  0  0  0
   -1.6080   -0.9833    0.5678 C   0  0  0  0  0  0  0  0  0  0  0  0
   -1.3638   -1.1688   -0.8882 C   0  0  0  0  0  0  0  0  0  0  0  0
    3.0401   -1.3648   -0.8779 H   0  0  0  0  0  0  0  0  0  0  0  0
    3.4329    0.2426   -0.1658 H   0  0  0  0  0  0  0  0  0  0  0  0
    2.4100    0.1546   -1.6156 H   0  0  0  0  0  0  0  0  0  0  0  0
    1.1212   -1.3908    0.5155 H   0  0  0  0  0  0  0  0  0  0  0  0
    1.9149    1.5935    1.0888 H   0  0  0  0  0  0  0  0  0  0  0  0
    0.8112   -0.3456    2.6541 H   0  0  0  0  0  0  0  0  0  0  0  0
    0.5778    1.3173   -0.9928 H   0  0  0  0  0  0  0  0  0  0  0  0
   -2.5247    1.1012   -1.5056 H   0  0  0  0  0  0  0  0  0  0  0  0
   -1.5908    2.2959   -0.4527 H   0  0  0  0  0  0  0  0  0  0  0  0
   -2.8776    1.2615    0.2764 H   0  0  0  0  0  0  0  0  0  0  0  0
   -0.9592   -1.5819    1.2389 H   0  0  0  0  0  0  0  0  0  0  0  0
   -2.6893   -0.9794    0.8613 H   0  0  0  0  0  0  0  0  0  0  0  0
   -2.1601   -1.1437   -1.6339 H   0  0  0  0  0  0  0  0  0  0  0  0
   -0.4701   -1.7314   -1.2000 H   0  0  0  0  0  0  0  0  0  0  0  0
  1  2  1  0
  2  3  1  0
  3  4  1  0
  3  5  1  0
  5  6  1  0
  6  7  1  0
  6  8  1  0
  8  9  1  0
  5  2  1  0
  9  6  1  0
  1 10  1  0
  1 11  1  0
  1 12  1  0
  2 13  1  0
  3 14  1  0
  4 15  1  0
  5 16  1  0
  7 17  1  0
  7 18  1  0
  7 19  1  0
  8 20  1  0
  8 21  1  0
  9 22  1  0
  9 23  1  0
M  END
