
     RDKit          3D

 23 25  0  0  0  0  0  0  0  0999 V2000
   -1.0461    1.7709   -0.4604 C   0  0  0  0  0  0  0  0  0  0  0  0
   -0.3255    1.0124    0.6174 C   0  0  0  0  0  0  0  0  0  0  0  0
   -0.8692   -0.4230    0.7421 C   0  0  0  0  0  0  0  0  0  0  0  0
   -1.9916   -0.6800   -0.2050 C   0  0  0  0  0  0  0  0  0  0  0  0
    0.3404   -1.1849    0.2661 C   0  0  0  0  0  0  0  0  0  0  0  0
    0.9579   -0.3750   -0.8363 C   0  0  0  0  0  0  0  0  0  0  0  0
    2.2774   -0.8823   -0.3345 C   0  0  0  0  0  0  0  0  0  0  0  0
    1.5173   -0.5405    0.9210 C   0  0  0  0  0  0  0  0  0  0  0  0
    1.0798    0.7022    0.2031 C   0  0  0  0  0  0  0  0  0  0  0  0
   -0.7713    2.8351   -0.3568 H   0  0  0  0  0  0  0  0  0  0  0  0
   -2.1438    1.7140   -0.3918 H   0  0  0  0  0  0  0  0  0  0  0  0
   -0.6461    1.4121   -1.4388 H   0  0  0  0  0  0  0  0  0  0  0  0
   -0.4079    1.5572    1.5557 H   0  0  0  0  0  0  0  0  0  0  0  0
   -1.1304   -0.6075    1.7811 H   0  0  0  0  0  0  0  0  0  0  0  0
   -1.9141   -0.1615   -1.1599 H   0  0  0  0  0  0  0  0  0  0  0  0
   -2.9895   -0.5298    0.3005 H   0  0  0  0  0  0  0  0  0  0  0  0
   -1.9778   -1.7864   -0.4351 H   0  0  0  0  0  0  0  0  0  0  0  0
    0.2882   -2.2483    0.1760 H   0  0  0  0  0  0  0  0  0  0  0  0
    0.6488   -0.2848   -1.7811 H   0  0  0  0  0  0  0  0  0  0  0  0
    2.3990   -1.9550   -0.4615 H   0  0  0  0  0  0  0  0  0  0  0  0
    3.0902   -0.2163   -0.6193 H   0  0  0  0  0  0  0  0  0  0  0  0
    1.8352   -0.6266    1.8638 H   0  0  0  0  0  0  0  0  0  0  0  0
    1.7790    1.4979    0.0537 H   0  0  0  0  0  0  0  0  0  0  0  0
  1  2  1  0
  2  3  1  0
  3  4  1  0
  3  5  1  0
  5  6  1  0
  6  7  1  0
  7  8  1  0
  8  9  1  0
  9  2  1  0
  8  5  1  0
  9  6  1  0
  1 10  1  0
  1 11  1  0
  1 12  1  0
  2 13  1  0
  3 14  1  0
  4 15  1  0
  4 16  1  0
  4 17  1  0
  5 18  1  0
  6 19  1  0
  7 20  1  0
  7 21  1  0
  8 22  1  0
  9 23  1  0
M  END
