
     RDKit          3D

 19 20  0  0  0  0  0  0  0  0999 V2000
    2.1862   -0.7648   -0.0620 C   0  0  0  0  0  0  0  0  0  0  0  0
    0.8283   -0.2577    0.3163 C   0  0  0  0  0  0  0  0  0  0  0  0
    0.9507    1.2166    0.5216 C   0  0  0  0  0  0  0  0  0  0  0  0
    2.0379    1.8363    0.3938 O   0  0  0  0  0  0  0  0  0  0  0  0
   -0.2074    1.8933    0.8667 O   0  0  0  0  0  0  0  0  0  0  0  0
   -1.4396    1.1899    0.6635 C   0  0  0  0  0  0  0  0  0  0  0  0
   -1.3901    0.3838   -0.6033 C   0  0  0  0  0  0  0  0  0  0  0  0
   -1.5123   -1.1205   -0.4451 C   0  0  0  0  0  0  0  0  0  0  0  0
   -0.2016   -0.4552   -0.7768 C   0  0  0  0  0  0  0  0  0  0  0  0
    2.3195   -1.8551    0.1714 H   0  0  0  0  0  0  0  0  0  0  0  0
    2.9263   -0.2509    0.6179 H   0  0  0  0  0  0  0  0  0  0  0  0
    2.4957   -0.5090   -1.0846 H   0  0  0  0  0  0  0  0  0  0  0  0
    0.4926   -0.7762    1.2250 H   0  0  0  0  0  0  0  0  0  0  0  0
   -1.6810    0.5566    1.5546 H   0  0  0  0  0  0  0  0  0  0  0  0
   -2.2603    1.9316    0.5910 H   0  0  0  0  0  0  0  0  0  0  0  0
   -1.9697    0.7899   -1.4667 H   0  0  0  0  0  0  0  0  0  0  0  0
   -1.6997   -1.4886    0.5745 H   0  0  0  0  0  0  0  0  0  0  0  0
   -2.0239   -1.7068   -1.2379 H   0  0  0  0  0  0  0  0  0  0  0  0
    0.1485   -0.6131   -1.8197 H   0  0  0  0  0  0  0  0  0  0  0  0
  1  2  1  0
  2  3  1  0
  3  4  2  0
  3  5  1  0
  5  6  1  0
  6  7  1  0
  7  8  1  0
  8  9  1  0
  9  2  1  0
  9  7  1  0
  1 10  1  0
  1 11  1  0
  1 12  1  0
  2 13  1  0
  6 14  1  0
  6 15  1  0
  7 16  1  0
  8 17  1  0
  8 18  1  0
  9 19  1  0
M  END
