
     RDKit          3D

 17 18  0  0  0  0  0  0  0  0999 V2000
   -1.9567   -0.7307    0.1958 C   0  0  0  0  0  0  0  0  0  0  0  0
   -0.9463   -0.2040   -0.7801 C   0  0  0  0  0  0  0  0  0  0  0  0
   -0.5585    1.2866   -0.5842 C   0  0  0  0  0  0  0  0  0  0  0  0
    0.3921    0.2101   -0.4311 C   0  0  0  0  0  0  0  0  0  0  0  0
    1.4948   -0.0249   -1.2494 O   0  0  0  0  0  0  0  0  0  0  0  0
    2.0218   -0.8212   -0.2183 C   0  0  0  0  0  0  0  0  0  0  0  0
    2.8837   -1.7381   -0.1842 O   0  0  0  0  0  0  0  0  0  0  0  0
    1.1484   -0.1337    0.7822 C   0  0  0  0  0  0  0  0  0  0  0  0
    1.8650    0.9560    1.3087 O   0  0  0  0  0  0  0  0  0  0  0  0
   -1.6784   -0.5375    1.2411 H   0  0  0  0  0  0  0  0  0  0  0  0
   -2.0711   -1.8195    0.0005 H   0  0  0  0  0  0  0  0  0  0  0  0
   -2.9395   -0.2564   -0.0045 H   0  0  0  0  0  0  0  0  0  0  0  0
   -1.1473   -0.4938   -1.8389 H   0  0  0  0  0  0  0  0  0  0  0  0
   -1.0146    1.7931    0.3019 H   0  0  0  0  0  0  0  0  0  0  0  0
   -0.6352    1.9277   -1.4956 H   0  0  0  0  0  0  0  0  0  0  0  0
    0.6984   -0.7707    1.5382 H   0  0  0  0  0  0  0  0  0  0  0  0
    2.4434    1.3570    0.6133 H   0  0  0  0  0  0  0  0  0  0  0  0
  1  2  1  0
  2  3  1  0
  3  4  1  0
  4  5  1  0
  5  6  1  0
  6  7  2  0
  6  8  1  0
  8  9  1  0
  4  2  1  0
  8  4  1  0
  1 10  1  0
  1 11  1  0
  1 12  1  0
  2 13  1  0
  3 14  1  0
  3 15  1  0
  8 16  1  0
  9 17  1  0
M  END
