
     RDKit          3D

 21 22  0  0  0  0  0  0  0  0999 V2000
    2.3120    0.1218   -0.1779 C   0  0  0  0  0  0  0  0  0  0  0  0
    0.8844    0.1152    0.2636 C   0  0  0  0  0  0  0  0  0  0  0  0
    0.1981    1.3631   -0.2837 C   0  0  0  0  0  0  0  0  0  0  0  0
   -1.2643    1.2311    0.1298 C   0  0  0  0  0  0  0  0  0  0  0  0
   -1.7808   -0.0437   -0.4971 C   0  0  0  0  0  0  0  0  0  0  0  0
   -2.0865   -1.0181    0.4409 O   0  0  0  0  0  0  0  0  0  0  0  0
   -0.8634   -1.6056    0.7927 C   0  0  0  0  0  0  0  0  0  0  0  0
    0.1065   -1.0702   -0.2696 C   0  0  0  0  0  0  0  0  0  0  0  0
   -0.8066   -0.6890   -1.2637 O   0  0  0  0  0  0  0  0  0  0  0  0
    2.9494    0.3230    0.7002 H   0  0  0  0  0  0  0  0  0  0  0  0
    2.4893    0.9014   -0.9592 H   0  0  0  0  0  0  0  0  0  0  0  0
    2.5715   -0.8531   -0.6753 H   0  0  0  0  0  0  0  0  0  0  0  0
    0.7875    0.0973    1.3888 H   0  0  0  0  0  0  0  0  0  0  0  0
    0.1944    1.2259   -1.4028 H   0  0  0  0  0  0  0  0  0  0  0  0
    0.6579    2.2875    0.0424 H   0  0  0  0  0  0  0  0  0  0  0  0
   -1.3029    1.1234    1.2517 H   0  0  0  0  0  0  0  0  0  0  0  0
   -1.8428    2.1118   -0.1583 H   0  0  0  0  0  0  0  0  0  0  0  0
   -2.6180    0.2124   -1.1527 H   0  0  0  0  0  0  0  0  0  0  0  0
   -0.4937   -1.2763    1.7656 H   0  0  0  0  0  0  0  0  0  0  0  0
   -0.8703   -2.6983    0.7045 H   0  0  0  0  0  0  0  0  0  0  0  0
    0.7783   -1.8599   -0.6398 H   0  0  0  0  0  0  0  0  0  0  0  0
  1  2  1  0
  2  3  1  0
  3  4  1  0
  4  5  1  0
  5  6  1  0
  6  7  1  0
  7  8  1  0
  8  9  1  0
  8  2  1  0
  9  5  1  0
  1 10  1  0
  1 11  1  0
  1 12  1  0
  2 13  1  0
  3 14  1  0
  3 15  1  0
  4 16  1  0
  4 17  1  0
  5 18  1  0
  7 19  1  0
  7 20  1  0
  8 21  1  0
M  END
