
     RDKit          3D

 20 21  0  0  0  0  0  0  0  0999 V2000
    2.2672    1.3824   -0.0820 C   0  0  0  0  0  0  0  0  0  0  0  0
    1.4176    0.3265    0.5419 C   0  0  0  0  0  0  0  0  0  0  0  0
    1.7087   -1.0805    0.0137 C   0  0  0  0  0  0  0  0  0  0  0  0
    0.3673   -0.3893   -0.2198 C   0  0  0  0  0  0  0  0  0  0  0  0
   -0.8007   -1.0172    0.4396 C   0  0  0  0  0  0  0  0  0  0  0  0
   -1.6705   -1.6573   -0.5847 O   0  0  0  0  0  0  0  0  0  0  0  0
   -2.1819   -0.6515    0.2292 C   0  0  0  0  0  0  0  0  0  0  0  0
   -2.5897    0.6671   -0.4042 C   0  0  0  0  0  0  0  0  0  0  0  0
    1.8826    1.7442   -1.0550 H   0  0  0  0  0  0  0  0  0  0  0  0
    3.2750    0.9308   -0.3195 H   0  0  0  0  0  0  0  0  0  0  0  0
    2.4935    2.2123    0.6228 H   0  0  0  0  0  0  0  0  0  0  0  0
    1.2547    0.4420    1.6356 H   0  0  0  0  0  0  0  0  0  0  0  0
    1.7722   -1.8596    0.7736 H   0  0  0  0  0  0  0  0  0  0  0  0
    2.3667   -1.1865   -0.8685 H   0  0  0  0  0  0  0  0  0  0  0  0
    0.1997    0.0393   -1.2501 H   0  0  0  0  0  0  0  0  0  0  0  0
   -0.5802   -1.7612    1.2478 H   0  0  0  0  0  0  0  0  0  0  0  0
   -2.9335   -1.0166    0.9569 H   0  0  0  0  0  0  0  0  0  0  0  0
   -2.5693    1.4721    0.3574 H   0  0  0  0  0  0  0  0  0  0  0  0
   -3.6622    0.5263   -0.7276 H   0  0  0  0  0  0  0  0  0  0  0  0
   -2.0173    0.8767   -1.3072 H   0  0  0  0  0  0  0  0  0  0  0  0
  1  2  1  0
  2  3  1  0
  3  4  1  0
  4  5  1  0
  5  6  1  0
  6  7  1  0
  7  8  1  0
  4  2  1  0
  7  5  1  0
  1  9  1  0
  1 10  1  0
  1 11  1  0
  2 12  1  0
  3 13  1  0
  3 14  1  0
  4 15  1  0
  5 16  1  0
  7 17  1  0
  8 18  1  0
  8 19  1  0
  8 20  1  0
M  END
