
     RDKit          3D

 21 22  0  0  0  0  0  0  0  0999 V2000
   -2.1204   -0.5068    0.0437 C   0  0  0  0  0  0  0  0  0  0  0  0
   -0.9291    0.3011   -0.4517 C   0  0  0  0  0  0  0  0  0  0  0  0
   -0.5267    1.2566    0.6161 C   0  0  0  0  0  0  0  0  0  0  0  0
    0.7719    1.7066    0.5329 O   0  0  0  0  0  0  0  0  0  0  0  0
    1.6760    0.6662    0.3233 C   0  0  0  0  0  0  0  0  0  0  0  0
    1.2902   -0.5515    1.0847 C   0  0  0  0  0  0  0  0  0  0  0  0
    0.6377   -1.4107    0.3271 C   0  0  0  0  0  0  0  0  0  0  0  0
    0.1800   -0.6388   -0.8636 C   0  0  0  0  0  0  0  0  0  0  0  0
    1.4397    0.1959   -1.1187 C   0  0  0  0  0  0  0  0  0  0  0  0
   -2.7782    0.2009    0.6251 H   0  0  0  0  0  0  0  0  0  0  0  0
   -1.7130   -1.2970    0.7035 H   0  0  0  0  0  0  0  0  0  0  0  0
   -2.7323   -0.8856   -0.7830 H   0  0  0  0  0  0  0  0  0  0  0  0
   -1.2543    0.8663   -1.3543 H   0  0  0  0  0  0  0  0  0  0  0  0
   -0.7792    0.8645    1.6401 H   0  0  0  0  0  0  0  0  0  0  0  0
   -1.1852    2.1690    0.5121 H   0  0  0  0  0  0  0  0  0  0  0  0
    2.7051    0.9791    0.4941 H   0  0  0  0  0  0  0  0  0  0  0  0
    1.5173   -0.7210    2.1470 H   0  0  0  0  0  0  0  0  0  0  0  0
    0.4327   -2.4662    0.4657 H   0  0  0  0  0  0  0  0  0  0  0  0
   -0.1091   -1.2445   -1.7076 H   0  0  0  0  0  0  0  0  0  0  0  0
    1.2578    1.0306   -1.7910 H   0  0  0  0  0  0  0  0  0  0  0  0
    2.2192   -0.5146   -1.4457 H   0  0  0  0  0  0  0  0  0  0  0  0
  1  2  1  0
  2  3  1  0
  3  4  1  0
  4  5  1  0
  5  6  1  0
  6  7  2  0
  7  8  1  0
  8  9  1  0
  8  2  1  0
  9  5  1  0
  1 10  1  0
  1 11  1  0
  1 12  1  0
  2 13  1  0
  3 14  1  0
  3 15  1  0
  5 16  1  0
  6 17  1  0
  7 18  1  0
  8 19  1  0
  9 20  1  0
  9 21  1  0
M  END
