
     RDKit          3D

 21 21  0  0  0  0  0  0  0  0999 V2000
   -1.0298    1.8359    0.0465 C   0  0  0  0  0  0  0  0  0  0  0  0
   -0.5066    0.6013    0.7372 C   0  0  0  0  0  0  0  0  0  0  0  0
   -1.4641   -0.5525    0.4295 C   0  0  0  0  0  0  0  0  0  0  0  0
   -0.5493   -1.7256    0.4953 C   0  0  0  0  0  0  0  0  0  0  0  0
   -0.9865   -2.8137   -0.2522 O   0  0  0  0  0  0  0  0  0  0  0  0
    0.7473   -1.1938    0.0009 C   0  0  0  0  0  0  0  0  0  0  0  0
    0.7795    0.1261    0.1349 C   0  0  0  0  0  0  0  0  0  0  0  0
    1.9096    1.0120   -0.2485 C   0  0  0  0  0  0  0  0  0  0  0  0
    2.9733    0.2883   -0.7837 O   0  0  0  0  0  0  0  0  0  0  0  0
   -1.7471    1.5753   -0.7757 H   0  0  0  0  0  0  0  0  0  0  0  0
   -1.6146    2.4019    0.7989 H   0  0  0  0  0  0  0  0  0  0  0  0
   -0.2509    2.4939   -0.3341 H   0  0  0  0  0  0  0  0  0  0  0  0
   -0.3572    0.7310    1.8140 H   0  0  0  0  0  0  0  0  0  0  0  0
   -1.9979   -0.4175   -0.5096 H   0  0  0  0  0  0  0  0  0  0  0  0
   -2.2402   -0.6339    1.2403 H   0  0  0  0  0  0  0  0  0  0  0  0
   -0.4092   -1.9899    1.5713 H   0  0  0  0  0  0  0  0  0  0  0  0
   -1.9827   -2.8365   -0.3318 H   0  0  0  0  0  0  0  0  0  0  0  0
    1.5728   -1.7863   -0.4180 H   0  0  0  0  0  0  0  0  0  0  0  0
    1.6078    1.7551   -1.0165 H   0  0  0  0  0  0  0  0  0  0  0  0
    2.3154    1.5335    0.6538 H   0  0  0  0  0  0  0  0  0  0  0  0
    3.2304   -0.4045   -0.1443 H   0  0  0  0  0  0  0  0  0  0  0  0
  1  2  1  0
  2  3  1  0
  3  4  1  0
  4  5  1  0
  4  6  1  0
  6  7  2  0
  7  8  1  0
  8  9  1  0
  7  2  1  0
  1 10  1  0
  1 11  1  0
  1 12  1  0
  2 13  1  0
  3 14  1  0
  3 15  1  0
  4 16  1  0
  5 17  1  0
  6 18  1  0
  8 19  1  0
  8 20  1  0
  9 21  1  0
M  END
