
     RDKit          3D

 19 20  0  0  0  0  0  0  0  0999 V2000
   -2.3960   -0.1415   -0.5880 C   0  0  0  0  0  0  0  0  0  0  0  0
   -1.2140   -0.1831    0.3340 C   0  0  0  0  0  0  0  0  0  0  0  0
   -0.1818    0.8563    0.0403 C   0  0  0  0  0  0  0  0  0  0  0  0
    1.0966    0.2384    0.5608 C   0  0  0  0  0  0  0  0  0  0  0  0
    2.4132    0.8872    0.2203 C   0  0  0  0  0  0  0  0  0  0  0  0
    0.9712   -0.2534    1.8992 O   0  0  0  0  0  0  0  0  0  0  0  0
    0.8840   -1.1410    0.8033 C   0  0  0  0  0  0  0  0  0  0  0  0
   -0.4532   -1.4384    0.2633 C   0  0  0  0  0  0  0  0  0  0  0  0
   -0.8421   -2.4882   -0.1493 O   0  0  0  0  0  0  0  0  0  0  0  0
   -3.2686    0.3046   -0.0689 H   0  0  0  0  0  0  0  0  0  0  0  0
   -2.6873   -1.1671   -0.8910 H   0  0  0  0  0  0  0  0  0  0  0  0
   -2.2213    0.5032   -1.4841 H   0  0  0  0  0  0  0  0  0  0  0  0
   -1.5714   -0.0391    1.3724 H   0  0  0  0  0  0  0  0  0  0  0  0
   -0.0964    1.1239   -1.0219 H   0  0  0  0  0  0  0  0  0  0  0  0
   -0.4002    1.7560    0.6757 H   0  0  0  0  0  0  0  0  0  0  0  0
    2.8945    0.3199   -0.6091 H   0  0  0  0  0  0  0  0  0  0  0  0
    3.1007    0.8096    1.0831 H   0  0  0  0  0  0  0  0  0  0  0  0
    2.2906    1.9562   -0.0403 H   0  0  0  0  0  0  0  0  0  0  0  0
    1.6816   -1.9035    0.8112 H   0  0  0  0  0  0  0  0  0  0  0  0
  1  2  1  0
  2  3  1  0
  3  4  1  0
  4  5  1  0
  4  6  1  0
  6  7  1  0
  7  8  1  0
  8  9  2  0
  8  2  1  0
  7  4  1  0
  1 10  1  0
  1 11  1  0
  1 12  1  0
  2 13  1  0
  3 14  1  0
  3 15  1  0
  5 16  1  0
  5 17  1  0
  5 18  1  0
  7 19  1  0
M  END
