
     RDKit          3D

 23 24  0  0  0  0  0  0  0  0999 V2000
   -2.3922   -1.1408    0.0738 C   0  0  0  0  0  0  0  0  0  0  0  0
   -1.1819   -0.3555   -0.4540 C   0  0  0  0  0  0  0  0  0  0  0  0
   -1.2600    1.0721    0.0492 C   0  0  0  0  0  0  0  0  0  0  0  0
   -0.0198    1.7801   -0.5122 C   0  0  0  0  0  0  0  0  0  0  0  0
    1.1667    1.1699    0.1616 C   0  0  0  0  0  0  0  0  0  0  0  0
    1.2569   -0.3265   -0.0205 C   0  0  0  0  0  0  0  0  0  0  0  0
    2.4907   -0.9233    0.6560 C   0  0  0  0  0  0  0  0  0  0  0  0
    1.0498   -0.8669   -1.2876 O   0  0  0  0  0  0  0  0  0  0  0  0
    0.1000   -1.0353   -0.1318 C   0  0  0  0  0  0  0  0  0  0  0  0
   -3.2957   -0.8768   -0.5512 H   0  0  0  0  0  0  0  0  0  0  0  0
   -2.1376   -2.2036   -0.0148 H   0  0  0  0  0  0  0  0  0  0  0  0
   -2.6306   -0.8382    1.1035 H   0  0  0  0  0  0  0  0  0  0  0  0
   -1.3693   -0.2839   -1.5667 H   0  0  0  0  0  0  0  0  0  0  0  0
   -1.1960    1.1263    1.1510 H   0  0  0  0  0  0  0  0  0  0  0  0
   -2.1743    1.5288   -0.3387 H   0  0  0  0  0  0  0  0  0  0  0  0
   -0.0410    2.8476   -0.2848 H   0  0  0  0  0  0  0  0  0  0  0  0
   -0.0243    1.5732   -1.6105 H   0  0  0  0  0  0  0  0  0  0  0  0
    2.1224    1.6747   -0.0774 H   0  0  0  0  0  0  0  0  0  0  0  0
    1.0248    1.3320    1.2709 H   0  0  0  0  0  0  0  0  0  0  0  0
    3.3014   -0.8657   -0.1289 H   0  0  0  0  0  0  0  0  0  0  0  0
    2.8474   -0.2952    1.4866 H   0  0  0  0  0  0  0  0  0  0  0  0
    2.3700   -1.9797    0.8889 H   0  0  0  0  0  0  0  0  0  0  0  0
   -0.0075   -2.1132    0.1375 H   0  0  0  0  0  0  0  0  0  0  0  0
  1  2  1  0
  2  3  1  0
  3  4  1  0
  4  5  1  0
  5  6  1  0
  6  7  1  0
  6  8  1  0
  8  9  1  0
  9  2  1  0
  9  6  1  0
  1 10  1  0
  1 11  1  0
  1 12  1  0
  2 13  1  0
  3 14  1  0
  3 15  1  0
  4 16  1  0
  4 17  1  0
  5 18  1  0
  5 19  1  0
  7 20  1  0
  7 21  1  0
  7 22  1  0
  9 23  1  0
M  END
