
     RDKit          3D

 21 23  0  0  0  0  0  0  0  0999 V2000
    2.5541    1.0311    0.4074 C   0  0  0  0  0  0  0  0  0  0  0  0
    1.1884    0.3685    0.6184 C   0  0  0  0  0  0  0  0  0  0  0  0
    0.9915   -0.8537   -0.1723 C   0  0  0  0  0  0  0  0  0  0  0  0
   -0.2565   -1.6904   -0.0676 C   0  0  0  0  0  0  0  0  0  0  0  0
   -1.2642   -0.9076    0.7224 C   0  0  0  0  0  0  0  0  0  0  0  0
   -1.1324   -0.0460   -0.4879 C   0  0  0  0  0  0  0  0  0  0  0  0
   -2.2403    0.8181   -0.8903 C   0  0  0  0  0  0  0  0  0  0  0  0
   -0.9549   -1.2491   -1.2179 O   0  0  0  0  0  0  0  0  0  0  0  0
    0.2694    0.5019   -0.5144 C   0  0  0  0  0  0  0  0  0  0  0  0
    2.5151    2.1039    0.6014 H   0  0  0  0  0  0  0  0  0  0  0  0
    2.9245    0.7857   -0.6134 H   0  0  0  0  0  0  0  0  0  0  0  0
    3.2777    0.5277    1.1064 H   0  0  0  0  0  0  0  0  0  0  0  0
    0.8652    0.4562    1.6817 H   0  0  0  0  0  0  0  0  0  0  0  0
    1.7193   -1.1851   -0.9137 H   0  0  0  0  0  0  0  0  0  0  0  0
   -0.1719   -2.7442    0.0754 H   0  0  0  0  0  0  0  0  0  0  0  0
   -0.9188   -0.5279    1.6772 H   0  0  0  0  0  0  0  0  0  0  0  0
   -2.2340   -1.4337    0.7180 H   0  0  0  0  0  0  0  0  0  0  0  0
   -3.0136    0.1856   -1.4191 H   0  0  0  0  0  0  0  0  0  0  0  0
   -2.7977    1.3068   -0.0643 H   0  0  0  0  0  0  0  0  0  0  0  0
   -1.9092    1.5550   -1.6300 H   0  0  0  0  0  0  0  0  0  0  0  0
    0.5882    0.9973   -1.4279 H   0  0  0  0  0  0  0  0  0  0  0  0
  1  2  1  0
  2  3  1  0
  3  4  1  0
  4  5  1  0
  5  6  1  0
  6  7  1  0
  6  8  1  0
  6  9  1  0
  9  2  1  0
  9  3  1  0
  8  4  1  0
  1 10  1  0
  1 11  1  0
  1 12  1  0
  2 13  1  0
  3 14  1  0
  4 15  1  0
  5 16  1  0
  5 17  1  0
  7 18  1  0
  7 19  1  0
  7 20  1  0
  9 21  1  0
M  END
