
     RDKit          3D

 18 19  0  0  0  0  0  0  0  0999 V2000
   -2.3870   -0.0450   -0.5523 C   0  0  0  0  0  0  0  0  0  0  0  0
   -1.2295    0.3474    0.3773 C   0  0  0  0  0  0  0  0  0  0  0  0
   -0.1573   -0.5402    0.5415 C   0  0  0  0  0  0  0  0  0  0  0  0
    1.1986   -0.4514    1.1375 C   0  0  0  0  0  0  0  0  0  0  0  0
    1.9989   -0.1621   -0.1520 C   0  0  0  0  0  0  0  0  0  0  0  0
    0.9567    0.4076   -1.1051 C   0  0  0  0  0  0  0  0  0  0  0  0
    1.0888    0.3967   -2.2958 O   0  0  0  0  0  0  0  0  0  0  0  0
   -0.0568    0.8746   -0.1689 C   0  0  0  0  0  0  0  0  0  0  0  0
   -3.1123    0.7903   -0.5760 H   0  0  0  0  0  0  0  0  0  0  0  0
   -2.8920   -0.9118   -0.0822 H   0  0  0  0  0  0  0  0  0  0  0  0
   -2.0293   -0.2333   -1.5732 H   0  0  0  0  0  0  0  0  0  0  0  0
   -1.6759    0.8028    1.3112 H   0  0  0  0  0  0  0  0  0  0  0  0
   -0.1626   -1.4281   -0.1667 H   0  0  0  0  0  0  0  0  0  0  0  0
    1.5587   -1.4425    1.4901 H   0  0  0  0  0  0  0  0  0  0  0  0
    1.3290    0.3471    1.8756 H   0  0  0  0  0  0  0  0  0  0  0  0
    2.7040    0.6428    0.0417 H   0  0  0  0  0  0  0  0  0  0  0  0
    2.4334   -1.0825   -0.5625 H   0  0  0  0  0  0  0  0  0  0  0  0
    0.4345    1.6874    0.4599 H   0  0  0  0  0  0  0  0  0  0  0  0
  1  2  1  0
  2  3  1  0
  3  4  1  0
  4  5  1  0
  5  6  1  0
  6  7  2  0
  6  8  1  0
  8  2  1  0
  8  3  1  0
  1  9  1  0
  1 10  1  0
  1 11  1  0
  2 12  1  0
  3 13  1  0
  4 14  1  0
  4 15  1  0
  5 16  1  0
  5 17  1  0
  8 18  1  0
M  END
