
     RDKit          3D

 19 20  0  0  0  0  0  0  0  0999 V2000
   -1.6443   -1.0552    0.3008 C   0  0  0  0  0  0  0  0  0  0  0  0
   -0.8247    0.1780    0.4981 C   0  0  0  0  0  0  0  0  0  0  0  0
    0.4088   -0.0110    1.3073 C   0  0  0  0  0  0  0  0  0  0  0  0
    1.3743   -0.9683    0.6680 C   0  0  0  0  0  0  0  0  0  0  0  0
    1.8797   -0.3381   -0.3869 C   0  0  0  0  0  0  0  0  0  0  0  0
    1.1804    0.9736   -0.4066 C   0  0  0  0  0  0  0  0  0  0  0  0
    1.0697    1.2060    0.9869 O   0  0  0  0  0  0  0  0  0  0  0  0
   -0.2490    0.7062   -0.8094 C   0  0  0  0  0  0  0  0  0  0  0  0
   -0.9047    1.8225   -1.2637 O   0  0  0  0  0  0  0  0  0  0  0  0
   -2.4754   -1.0282    1.0491 H   0  0  0  0  0  0  0  0  0  0  0  0
   -2.1560   -0.9626   -0.6962 H   0  0  0  0  0  0  0  0  0  0  0  0
   -1.0862   -1.9925    0.3013 H   0  0  0  0  0  0  0  0  0  0  0  0
   -1.4293    0.9717    0.9300 H   0  0  0  0  0  0  0  0  0  0  0  0
    0.2830   -0.1570    2.3651 H   0  0  0  0  0  0  0  0  0  0  0  0
    1.6304   -1.9774    0.9791 H   0  0  0  0  0  0  0  0  0  0  0  0
    2.6251   -0.6583   -1.0963 H   0  0  0  0  0  0  0  0  0  0  0  0
    1.6779    1.7576   -0.9397 H   0  0  0  0  0  0  0  0  0  0  0  0
   -0.2305   -0.1251   -1.5545 H   0  0  0  0  0  0  0  0  0  0  0  0
   -1.1292    1.6583   -2.2327 H   0  0  0  0  0  0  0  0  0  0  0  0
  1  2  1  0
  2  3  1  0
  3  4  1  0
  4  5  2  0
  5  6  1  0
  6  7  1  0
  6  8  1  0
  8  9  1  0
  8  2  1  0
  7  3  1  0
  1 10  1  0
  1 11  1  0
  1 12  1  0
  2 13  1  0
  3 14  1  0
  4 15  1  0
  5 16  1  0
  6 17  1  0
  8 18  1  0
  9 19  1  0
M  END
