
     RDKit          3D

 22 23  0  0  0  0  0  0  0  0999 V2000
    2.4843    0.7858   -0.1273 C   0  0  0  0  0  0  0  0  0  0  0  0
    1.5146   -0.1458    0.5372 C   0  0  0  0  0  0  0  0  0  0  0  0
    1.0644   -1.3557   -0.2066 C   0  0  0  0  0  0  0  0  0  0  0  0
    0.1109   -0.2392    0.1498 C   0  0  0  0  0  0  0  0  0  0  0  0
   -0.4764    0.4876   -1.0201 C   0  0  0  0  0  0  0  0  0  0  0  0
   -1.9612    0.1648   -0.8484 C   0  0  0  0  0  0  0  0  0  0  0  0
   -2.1231    0.3938    0.6352 C   0  0  0  0  0  0  0  0  0  0  0  0
   -0.9502   -0.4397    1.1700 C   0  0  0  0  0  0  0  0  0  0  0  0
    2.8323    1.5598    0.5998 H   0  0  0  0  0  0  0  0  0  0  0  0
    3.4024    0.2232   -0.4149 H   0  0  0  0  0  0  0  0  0  0  0  0
    2.0789    1.3103   -1.0027 H   0  0  0  0  0  0  0  0  0  0  0  0
    1.7539   -0.3410    1.6156 H   0  0  0  0  0  0  0  0  0  0  0  0
    1.3492   -1.4999   -1.2765 H   0  0  0  0  0  0  0  0  0  0  0  0
    0.8324   -2.3056    0.3278 H   0  0  0  0  0  0  0  0  0  0  0  0
   -0.1499    0.0389   -1.9902 H   0  0  0  0  0  0  0  0  0  0  0  0
   -0.2874    1.5730   -1.0078 H   0  0  0  0  0  0  0  0  0  0  0  0
   -2.6057    0.7707   -1.4726 H   0  0  0  0  0  0  0  0  0  0  0  0
   -2.0383   -0.9361   -1.0316 H   0  0  0  0  0  0  0  0  0  0  0  0
   -1.8660    1.4431    0.8705 H   0  0  0  0  0  0  0  0  0  0  0  0
   -3.0826    0.0578    1.0221 H   0  0  0  0  0  0  0  0  0  0  0  0
   -0.6317   -0.0448    2.1599 H   0  0  0  0  0  0  0  0  0  0  0  0
   -1.2510   -1.5009    1.3108 H   0  0  0  0  0  0  0  0  0  0  0  0
  1  2  1  0
  2  3  1  0
  3  4  1  0
  4  5  1  0
  5  6  1  0
  6  7  1  0
  7  8  1  0
  4  2  1  0
  8  4  1  0
  1  9  1  0
  1 10  1  0
  1 11  1  0
  2 12  1  0
  3 13  1  0
  3 14  1  0
  5 15  1  0
  5 16  1  0
  6 17  1  0
  6 18  1  0
  7 19  1  0
  7 20  1  0
  8 21  1  0
  8 22  1  0
M  END
