
     RDKit          3D

 21 22  0  0  0  0  0  0  0  0999 V2000
    2.2886    0.6509   -0.8399 C   0  0  0  0  0  0  0  0  0  0  0  0
    1.4931    0.2217    0.3432 C   0  0  0  0  0  0  0  0  0  0  0  0
    1.1186   -1.2480    0.4005 C   0  0  0  0  0  0  0  0  0  0  0  0
   -0.1895   -0.8161   -0.1984 C   0  0  0  0  0  0  0  0  0  0  0  0
   -1.4402   -1.1573    0.5822 C   0  0  0  0  0  0  0  0  0  0  0  0
   -2.4835   -0.5116   -0.0701 O   0  0  0  0  0  0  0  0  0  0  0  0
   -2.3338    0.8527   -0.1797 C   0  0  0  0  0  0  0  0  0  0  0  0
   -1.0155    1.3691    0.1727 C   0  0  0  0  0  0  0  0  0  0  0  0
    0.0858    0.6232    0.1906 C   0  0  0  0  0  0  0  0  0  0  0  0
    1.7888    1.3932   -1.4849 H   0  0  0  0  0  0  0  0  0  0  0  0
    2.5635   -0.2668   -1.4090 H   0  0  0  0  0  0  0  0  0  0  0  0
    3.2807    1.0958   -0.5320 H   0  0  0  0  0  0  0  0  0  0  0  0
    1.9918    0.5199    1.2887 H   0  0  0  0  0  0  0  0  0  0  0  0
    1.0960   -1.7042    1.3861 H   0  0  0  0  0  0  0  0  0  0  0  0
    1.6579   -1.8901   -0.3388 H   0  0  0  0  0  0  0  0  0  0  0  0
   -0.3154   -0.9644   -1.2791 H   0  0  0  0  0  0  0  0  0  0  0  0
   -1.6538   -2.2224    0.6091 H   0  0  0  0  0  0  0  0  0  0  0  0
   -1.2891   -0.8044    1.6164 H   0  0  0  0  0  0  0  0  0  0  0  0
   -2.6635    1.1357   -1.2095 H   0  0  0  0  0  0  0  0  0  0  0  0
   -3.0828    1.3147    0.5144 H   0  0  0  0  0  0  0  0  0  0  0  0
   -0.8978    2.4085    0.4375 H   0  0  0  0  0  0  0  0  0  0  0  0
  1  2  1  0
  2  3  1  0
  3  4  1  0
  4  5  1  0
  5  6  1  0
  6  7  1  0
  7  8  1  0
  8  9  2  0
  9  2  1  0
  9  4  1  0
  1 10  1  0
  1 11  1  0
  1 12  1  0
  2 13  1  0
  3 14  1  0
  3 15  1  0
  4 16  1  0
  5 17  1  0
  5 18  1  0
  7 19  1  0
  7 20  1  0
  8 21  1  0
M  END
