
     RDKit          3D

 23 24  0  0  0  0  0  0  0  0999 V2000
   -1.3505    1.3319   -0.6822 C   0  0  0  0  0  0  0  0  0  0  0  0
   -0.6070    0.6681    0.4709 C   0  0  0  0  0  0  0  0  0  0  0  0
   -1.3973   -0.5057    0.9808 C   0  0  0  0  0  0  0  0  0  0  0  0
   -0.8177   -1.7465    0.3826 C   0  0  0  0  0  0  0  0  0  0  0  0
    0.4326   -1.3460   -0.3712 C   0  0  0  0  0  0  0  0  0  0  0  0
    0.6782    0.0853   -0.0311 C   0  0  0  0  0  0  0  0  0  0  0  0
    1.8957    0.3942    0.7839 C   0  0  0  0  0  0  0  0  0  0  0  0
    2.3211    1.3108   -0.1918 O   0  0  0  0  0  0  0  0  0  0  0  0
    1.3930    0.8453   -1.1010 C   0  0  0  0  0  0  0  0  0  0  0  0
   -2.4278    1.3290   -0.4127 H   0  0  0  0  0  0  0  0  0  0  0  0
   -1.1724    0.6706   -1.5679 H   0  0  0  0  0  0  0  0  0  0  0  0
   -0.9274    2.3348   -0.8210 H   0  0  0  0  0  0  0  0  0  0  0  0
   -0.4356    1.3926    1.3068 H   0  0  0  0  0  0  0  0  0  0  0  0
   -1.3356   -0.5376    2.0781 H   0  0  0  0  0  0  0  0  0  0  0  0
   -2.4667   -0.4065    0.7023 H   0  0  0  0  0  0  0  0  0  0  0  0
   -1.5348   -2.2985   -0.2774 H   0  0  0  0  0  0  0  0  0  0  0  0
   -0.5561   -2.4664    1.1903 H   0  0  0  0  0  0  0  0  0  0  0  0
    0.1562   -1.3855   -1.4600 H   0  0  0  0  0  0  0  0  0  0  0  0
    1.2875   -2.0004   -0.1562 H   0  0  0  0  0  0  0  0  0  0  0  0
    1.5917    0.9902    1.6891 H   0  0  0  0  0  0  0  0  0  0  0  0
    2.5834   -0.4319    0.9878 H   0  0  0  0  0  0  0  0  0  0  0  0
    1.8871    0.1763   -1.8562 H   0  0  0  0  0  0  0  0  0  0  0  0
    0.8024    1.5961   -1.6438 H   0  0  0  0  0  0  0  0  0  0  0  0
  1  2  1  0
  2  3  1  0
  3  4  1  0
  4  5  1  0
  5  6  1  0
  6  7  1  0
  7  8  1  0
  8  9  1  0
  6  2  1  0
  9  6  1  0
  1 10  1  0
  1 11  1  0
  1 12  1  0
  2 13  1  0
  3 14  1  0
  3 15  1  0
  4 16  1  0
  4 17  1  0
  5 18  1  0
  5 19  1  0
  7 20  1  0
  7 21  1  0
  9 22  1  0
  9 23  1  0
M  END
