
     RDKit          3D

 21 22  0  0  0  0  0  0  0  0999 V2000
   -1.8923    1.2663    0.1321 C   0  0  0  0  0  0  0  0  0  0  0  0
   -0.9012    0.3296   -0.5236 C   0  0  0  0  0  0  0  0  0  0  0  0
   -1.5017   -1.0793   -0.4010 C   0  0  0  0  0  0  0  0  0  0  0  0
   -0.2741   -1.9457   -0.2129 C   0  0  0  0  0  0  0  0  0  0  0  0
    0.7455   -1.2339    0.2062 C   0  0  0  0  0  0  0  0  0  0  0  0
    2.0430   -0.7027    0.6701 C   0  0  0  0  0  0  0  0  0  0  0  0
    1.6500    0.5118   -0.2026 C   0  0  0  0  0  0  0  0  0  0  0  0
    2.2351    1.6891    0.1767 O   0  0  0  0  0  0  0  0  0  0  0  0
    0.2907    0.2116    0.3769 C   0  0  0  0  0  0  0  0  0  0  0  0
   -2.5276    0.7204    0.8823 H   0  0  0  0  0  0  0  0  0  0  0  0
   -2.5998    1.7140   -0.5846 H   0  0  0  0  0  0  0  0  0  0  0  0
   -1.3708    2.0615    0.6981 H   0  0  0  0  0  0  0  0  0  0  0  0
   -0.6714    0.5959   -1.5531 H   0  0  0  0  0  0  0  0  0  0  0  0
   -2.0674   -1.3611   -1.2925 H   0  0  0  0  0  0  0  0  0  0  0  0
   -2.0795   -1.1741    0.5311 H   0  0  0  0  0  0  0  0  0  0  0  0
   -0.3271   -3.0072   -0.4227 H   0  0  0  0  0  0  0  0  0  0  0  0
    2.9469   -1.2194    0.3242 H   0  0  0  0  0  0  0  0  0  0  0  0
    1.9861   -0.3961    1.7138 H   0  0  0  0  0  0  0  0  0  0  0  0
    1.6779    0.2862   -1.2876 H   0  0  0  0  0  0  0  0  0  0  0  0
    2.4463    2.2026   -0.6396 H   0  0  0  0  0  0  0  0  0  0  0  0
    0.1912    0.5303    1.4087 H   0  0  0  0  0  0  0  0  0  0  0  0
  1  2  1  0
  2  3  1  0
  3  4  1  0
  4  5  2  0
  5  6  1  0
  6  7  1  0
  7  8  1  0
  7  9  1  0
  9  2  1  0
  9  5  1  0
  1 10  1  0
  1 11  1  0
  1 12  1  0
  2 13  1  0
  3 14  1  0
  3 15  1  0
  4 16  1  0
  6 17  1  0
  6 18  1  0
  7 19  1  0
  8 20  1  0
  9 21  1  0
M  END
