
     RDKit          3D

 19 21  0  0  0  0  0  0  0  0999 V2000
   -1.3190   -1.0736   -1.0872 C   0  0  0  0  0  0  0  0  0  0  0  0
   -0.6943   -0.3264    0.0479 C   0  0  0  0  0  0  0  0  0  0  0  0
   -1.2914    1.0411    0.2622 C   0  0  0  0  0  0  0  0  0  0  0  0
   -1.2036    1.4892    1.5744 O   0  0  0  0  0  0  0  0  0  0  0  0
   -0.2321    1.9352    0.7217 C   0  0  0  0  0  0  0  0  0  0  0  0
    1.0400    1.1881    0.5030 C   0  0  0  0  0  0  0  0  0  0  0  0
    1.2979    0.9001   -0.8515 O   0  0  0  0  0  0  0  0  0  0  0  0
    0.7766   -0.1180   -0.0831 C   0  0  0  0  0  0  0  0  0  0  0  0
    1.7047   -1.2926    0.1716 C   0  0  0  0  0  0  0  0  0  0  0  0
   -0.8556   -0.8438   -2.0713 H   0  0  0  0  0  0  0  0  0  0  0  0
   -2.4175   -0.8077   -1.0816 H   0  0  0  0  0  0  0  0  0  0  0  0
   -1.3101   -2.1757   -0.8680 H   0  0  0  0  0  0  0  0  0  0  0  0
   -0.8599   -0.9415    0.9743 H   0  0  0  0  0  0  0  0  0  0  0  0
   -2.0384    1.4429   -0.4251 H   0  0  0  0  0  0  0  0  0  0  0  0
   -0.2159    3.0224    0.4647 H   0  0  0  0  0  0  0  0  0  0  0  0
    1.9103    1.3422    1.1802 H   0  0  0  0  0  0  0  0  0  0  0  0
    1.0864   -2.2044    0.1092 H   0  0  0  0  0  0  0  0  0  0  0  0
    2.4155   -1.3364   -0.6863 H   0  0  0  0  0  0  0  0  0  0  0  0
    2.2063   -1.2411    1.1449 H   0  0  0  0  0  0  0  0  0  0  0  0
  1  2  1  0
  2  3  1  0
  3  4  1  0
  4  5  1  0
  5  6  1  0
  6  7  1  0
  7  8  1  0
  8  9  1  0
  8  2  1  0
  5  3  1  0
  8  6  1  0
  1 10  1  0
  1 11  1  0
  1 12  1  0
  2 13  1  0
  3 14  1  0
  5 15  1  0
  6 16  1  0
  9 17  1  0
  9 18  1  0
  9 19  1  0
M  END
