
     RDKit          3D

 23 25  0  0  0  0  0  0  0  0999 V2000
   -2.0298   -0.9336    0.4475 C   0  0  0  0  0  0  0  0  0  0  0  0
   -0.8987   -0.4805   -0.4824 C   0  0  0  0  0  0  0  0  0  0  0  0
    0.3544   -1.2204   -0.1368 C   0  0  0  0  0  0  0  0  0  0  0  0
    1.1420   -0.6047    0.9801 C   0  0  0  0  0  0  0  0  0  0  0  0
    1.6174    0.4148    0.0005 C   0  0  0  0  0  0  0  0  0  0  0  0
    1.4558   -0.6799   -1.0650 C   0  0  0  0  0  0  0  0  0  0  0  0
    0.6101    1.4717   -0.3099 C   0  0  0  0  0  0  0  0  0  0  0  0
   -0.4785    1.8302    0.6395 C   0  0  0  0  0  0  0  0  0  0  0  0
   -0.7665    0.9909   -0.5472 C   0  0  0  0  0  0  0  0  0  0  0  0
   -2.7506   -0.1174    0.6292 H   0  0  0  0  0  0  0  0  0  0  0  0
   -1.5959   -1.3322    1.4076 H   0  0  0  0  0  0  0  0  0  0  0  0
   -2.6021   -1.7748    0.0104 H   0  0  0  0  0  0  0  0  0  0  0  0
   -1.2066   -0.8486   -1.4985 H   0  0  0  0  0  0  0  0  0  0  0  0
    0.2311   -2.2967   -0.1457 H   0  0  0  0  0  0  0  0  0  0  0  0
    0.6171   -0.2812    1.8649 H   0  0  0  0  0  0  0  0  0  0  0  0
    1.9892   -1.2929    1.2456 H   0  0  0  0  0  0  0  0  0  0  0  0
    2.6241    0.8010    0.1084 H   0  0  0  0  0  0  0  0  0  0  0  0
    2.3038   -1.3750   -1.0580 H   0  0  0  0  0  0  0  0  0  0  0  0
    1.0899   -0.3204   -2.0291 H   0  0  0  0  0  0  0  0  0  0  0  0
    0.9742    2.2426   -1.0278 H   0  0  0  0  0  0  0  0  0  0  0  0
   -0.7670    2.9014    0.6258 H   0  0  0  0  0  0  0  0  0  0  0  0
   -0.5144    1.4031    1.6637 H   0  0  0  0  0  0  0  0  0  0  0  0
   -1.3990    1.5027   -1.3228 H   0  0  0  0  0  0  0  0  0  0  0  0
  1  2  1  0
  2  3  1  0
  3  4  1  0
  4  5  1  0
  5  6  1  0
  5  7  1  0
  7  8  1  0
  8  9  1  0
  9  2  1  0
  6  3  1  0
  9  7  1  0
  1 10  1  0
  1 11  1  0
  1 12  1  0
  2 13  1  0
  3 14  1  0
  4 15  1  0
  4 16  1  0
  5 17  1  0
  6 18  1  0
  6 19  1  0
  7 20  1  0
  8 21  1  0
  8 22  1  0
  9 23  1  0
M  END
