
     RDKit          3D

 23 24  0  0  0  0  0  0  0  0999 V2000
    2.3733    1.0704   -0.2920 C   0  0  0  0  0  0  0  0  0  0  0  0
    2.0204   -0.3497    0.0241 C   0  0  0  0  0  0  0  0  0  0  0  0
    1.1437   -1.0779   -0.9816 C   0  0  0  0  0  0  0  0  0  0  0  0
    0.6651   -0.7857    0.3914 C   0  0  0  0  0  0  0  0  0  0  0  0
   -0.4514    0.1639    0.6659 C   0  0  0  0  0  0  0  0  0  0  0  0
   -1.7203   -0.5863    1.0149 C   0  0  0  0  0  0  0  0  0  0  0  0
   -2.1320   -0.4160   -0.4531 C   0  0  0  0  0  0  0  0  0  0  0  0
   -1.1676    0.7578   -0.4890 C   0  0  0  0  0  0  0  0  0  0  0  0
   -1.8357    1.9347   -0.0892 O   0  0  0  0  0  0  0  0  0  0  0  0
    3.1408    1.0345   -1.1192 H   0  0  0  0  0  0  0  0  0  0  0  0
    2.9098    1.5228    0.5694 H   0  0  0  0  0  0  0  0  0  0  0  0
    1.5362    1.7106   -0.5470 H   0  0  0  0  0  0  0  0  0  0  0  0
    2.8836   -0.9491    0.3815 H   0  0  0  0  0  0  0  0  0  0  0  0
    0.8185   -0.5089   -1.8617 H   0  0  0  0  0  0  0  0  0  0  0  0
    1.4353   -2.1348   -1.2563 H   0  0  0  0  0  0  0  0  0  0  0  0
    0.6173   -1.7043    1.0518 H   0  0  0  0  0  0  0  0  0  0  0  0
   -0.1408    0.9081    1.4538 H   0  0  0  0  0  0  0  0  0  0  0  0
   -1.5743   -1.6748    1.2001 H   0  0  0  0  0  0  0  0  0  0  0  0
   -2.3935   -0.0801    1.7100 H   0  0  0  0  0  0  0  0  0  0  0  0
   -3.1900   -0.1083   -0.5566 H   0  0  0  0  0  0  0  0  0  0  0  0
   -1.8016   -1.2529   -1.1000 H   0  0  0  0  0  0  0  0  0  0  0  0
   -0.6755    0.8177   -1.4509 H   0  0  0  0  0  0  0  0  0  0  0  0
   -2.4612    1.7083    0.6503 H   0  0  0  0  0  0  0  0  0  0  0  0
  1  2  1  0
  2  3  1  0
  3  4  1  0
  4  5  1  0
  5  6  1  0
  6  7  1  0
  7  8  1  0
  8  9  1  0
  4  2  1  0
  8  5  1  0
  1 10  1  0
  1 11  1  0
  1 12  1  0
  2 13  1  0
  3 14  1  0
  3 15  1  0
  4 16  1  0
  5 17  1  0
  6 18  1  0
  6 19  1  0
  7 20  1  0
  7 21  1  0
  8 22  1  0
  9 23  1  0
M  END
