
     RDKit          3D

 21 22  0  0  0  0  0  0  0  0999 V2000
   -1.1970    1.7663    0.4166 C   0  0  0  0  0  0  0  0  0  0  0  0
   -0.4009    0.4843    0.4275 C   0  0  0  0  0  0  0  0  0  0  0  0
    0.8254    0.4985   -0.4560 C   0  0  0  0  0  0  0  0  0  0  0  0
    2.0956    0.2870    0.3520 C   0  0  0  0  0  0  0  0  0  0  0  0
    2.0573   -0.9309    1.0067 O   0  0  0  0  0  0  0  0  0  0  0  0
    0.3555   -0.8024   -1.1035 C   0  0  0  0  0  0  0  0  0  0  0  0
   -0.9474   -0.6280   -0.4120 C   0  0  0  0  0  0  0  0  0  0  0  0
   -1.9419   -1.5382   -0.1145 C   0  0  0  0  0  0  0  0  0  0  0  0
   -2.1355   -0.5221   -1.0748 O   0  0  0  0  0  0  0  0  0  0  0  0
   -1.0483    2.3390   -0.5321 H   0  0  0  0  0  0  0  0  0  0  0  0
   -0.7875    2.4030    1.2291 H   0  0  0  0  0  0  0  0  0  0  0  0
   -2.2511    1.5661    0.6418 H   0  0  0  0  0  0  0  0  0  0  0  0
   -0.2346    0.1510    1.4690 H   0  0  0  0  0  0  0  0  0  0  0  0
    0.8679    1.3169   -1.1738 H   0  0  0  0  0  0  0  0  0  0  0  0
    2.9809    0.4207   -0.2925 H   0  0  0  0  0  0  0  0  0  0  0  0
    2.0820    1.0763    1.1507 H   0  0  0  0  0  0  0  0  0  0  0  0
    2.9247   -1.4060    1.0175 H   0  0  0  0  0  0  0  0  0  0  0  0
    0.3257   -0.7493   -2.2142 H   0  0  0  0  0  0  0  0  0  0  0  0
    0.8994   -1.6839   -0.7036 H   0  0  0  0  0  0  0  0  0  0  0  0
   -1.9244   -2.5930   -0.4710 H   0  0  0  0  0  0  0  0  0  0  0  0
   -2.5457   -1.4553    0.8371 H   0  0  0  0  0  0  0  0  0  0  0  0
  1  2  1  0
  2  3  1  0
  3  4  1  0
  4  5  1  0
  3  6  1  0
  6  7  1  0
  7  8  1  0
  8  9  1  0
  7  2  1  0
  9  7  1  0
  1 10  1  0
  1 11  1  0
  1 12  1  0
  2 13  1  0
  3 14  1  0
  4 15  1  0
  4 16  1  0
  5 17  1  0
  6 18  1  0
  6 19  1  0
  8 20  1  0
  8 21  1  0
M  END
