
     RDKit          3D

 21 23  0  0  0  0  0  0  0  0999 V2000
   -2.8017    0.5635    0.3226 C   0  0  0  0  0  0  0  0  0  0  0  0
   -1.7095    0.0517   -0.5779 C   0  0  0  0  0  0  0  0  0  0  0  0
   -0.4804    0.8259   -0.8095 C   0  0  0  0  0  0  0  0  0  0  0  0
    0.5700    0.1510   -1.6643 C   0  0  0  0  0  0  0  0  0  0  0  0
    0.7054   -0.9006   -0.6124 C   0  0  0  0  0  0  0  0  0  0  0  0
    1.9733   -0.9155    0.1752 C   0  0  0  0  0  0  0  0  0  0  0  0
    2.4042    0.1876    0.9661 C   0  0  0  0  0  0  0  0  0  0  0  0
    1.7831   -0.9360    1.6403 O   0  0  0  0  0  0  0  0  0  0  0  0
   -0.4225   -0.2735    0.1608 C   0  0  0  0  0  0  0  0  0  0  0  0
   -2.5064    1.4870    0.8567 H   0  0  0  0  0  0  0  0  0  0  0  0
   -3.0301   -0.2780    1.0406 H   0  0  0  0  0  0  0  0  0  0  0  0
   -3.7561    0.7330   -0.2327 H   0  0  0  0  0  0  0  0  0  0  0  0
   -2.0041   -0.7219   -1.3012 H   0  0  0  0  0  0  0  0  0  0  0  0
   -0.3753    1.8861   -0.5455 H   0  0  0  0  0  0  0  0  0  0  0  0
    1.4729    0.7426   -1.8747 H   0  0  0  0  0  0  0  0  0  0  0  0
    0.0932   -0.2150   -2.6002 H   0  0  0  0  0  0  0  0  0  0  0  0
    0.4089   -1.9227   -0.9410 H   0  0  0  0  0  0  0  0  0  0  0  0
    2.7171   -1.7281   -0.0604 H   0  0  0  0  0  0  0  0  0  0  0  0
    3.4927    0.3071    1.1892 H   0  0  0  0  0  0  0  0  0  0  0  0
    1.8258    1.0919    1.1293 H   0  0  0  0  0  0  0  0  0  0  0  0
   -0.3607   -0.1364    1.2417 H   0  0  0  0  0  0  0  0  0  0  0  0
  1  2  1  0
  2  3  1  0
  3  4  1  0
  4  5  1  0
  5  6  1  0
  6  7  1  0
  7  8  1  0
  5  9  1  0
  9  2  1  0
  9  3  1  0
  8  6  1  0
  1 10  1  0
  1 11  1  0
  1 12  1  0
  2 13  1  0
  3 14  1  0
  4 15  1  0
  4 16  1  0
  5 17  1  0
  6 18  1  0
  7 19  1  0
  7 20  1  0
  9 21  1  0
M  END
