
     RDKit          3D

 19 19  0  0  0  0  0  0  0  0999 V2000
   -2.3671    0.4186   -0.3372 C   0  0  0  0  0  0  0  0  0  0  0  0
   -1.1647    0.0593    0.4758 C   0  0  0  0  0  0  0  0  0  0  0  0
   -0.7294   -1.3149    0.0119 C   0  0  0  0  0  0  0  0  0  0  0  0
    0.5884   -1.3667   -0.0681 C   0  0  0  0  0  0  0  0  0  0  0  0
    1.1319   -0.0729    0.3242 C   0  0  0  0  0  0  0  0  0  0  0  0
    2.4674    0.2437   -0.2736 C   0  0  0  0  0  0  0  0  0  0  0  0
    0.0546    0.9013    0.0435 C   0  0  0  0  0  0  0  0  0  0  0  0
   -1.9855    0.8896   -1.2887 H   0  0  0  0  0  0  0  0  0  0  0  0
   -3.0593    1.1244    0.1676 H   0  0  0  0  0  0  0  0  0  0  0  0
   -2.9619   -0.4909   -0.6046 H   0  0  0  0  0  0  0  0  0  0  0  0
   -1.3107    0.0887    1.5589 H   0  0  0  0  0  0  0  0  0  0  0  0
   -1.4490   -2.1066   -0.2087 H   0  0  0  0  0  0  0  0  0  0  0  0
    1.1107   -2.2900   -0.3918 H   0  0  0  0  0  0  0  0  0  0  0  0
    1.2795   -0.0836    1.4441 H   0  0  0  0  0  0  0  0  0  0  0  0
    3.0415   -0.7073   -0.3148 H   0  0  0  0  0  0  0  0  0  0  0  0
    2.3717    0.6775   -1.3019 H   0  0  0  0  0  0  0  0  0  0  0  0
    2.9558    1.0177    0.3538 H   0  0  0  0  0  0  0  0  0  0  0  0
   -0.0744    1.1919   -0.9962 H   0  0  0  0  0  0  0  0  0  0  0  0
    0.1004    1.8201    0.6858 H   0  0  0  0  0  0  0  0  0  0  0  0
  1  2  1  0
  2  3  1  0
  3  4  2  0
  4  5  1  0
  5  6  1  0
  5  7  1  0
  7  2  1  0
  1  8  1  0
  1  9  1  0
  1 10  1  0
  2 11  1  0
  3 12  1  0
  4 13  1  0
  5 14  1  0
  6 15  1  0
  6 16  1  0
  6 17  1  0
  7 18  1  0
  7 19  1  0
M  END
