
     RDKit          3D

 25 25  0  0  0  0  0  0  0  0999 V2000
    2.5383    0.8557    0.5089 C   0  0  0  0  0  0  0  0  0  0  0  0
    2.2042   -0.5193   -0.0446 C   0  0  0  0  0  0  0  0  0  0  0  0
    0.8689   -0.9873    0.5525 C   0  0  0  0  0  0  0  0  0  0  0  0
   -0.0470    0.0484   -0.0871 C   0  0  0  0  0  0  0  0  0  0  0  0
   -1.4659   -0.4298   -0.1609 C   0  0  0  0  0  0  0  0  0  0  0  0
   -2.2897    0.6579   -0.8049 C   0  0  0  0  0  0  0  0  0  0  0  0
   -1.9641   -0.5741    1.2749 C   0  0  0  0  0  0  0  0  0  0  0  0
    0.6065    0.2270   -1.4216 C   0  0  0  0  0  0  0  0  0  0  0  0
    1.8428   -0.3712   -1.3825 O   0  0  0  0  0  0  0  0  0  0  0  0
    2.3667    0.9089    1.5945 H   0  0  0  0  0  0  0  0  0  0  0  0
    3.5684    1.0952    0.2111 H   0  0  0  0  0  0  0  0  0  0  0  0
    1.8686    1.5895    0.0362 H   0  0  0  0  0  0  0  0  0  0  0  0
    2.9978   -1.2485    0.0845 H   0  0  0  0  0  0  0  0  0  0  0  0
    0.6285   -1.9621    0.1013 H   0  0  0  0  0  0  0  0  0  0  0  0
    0.8636   -0.9589    1.6368 H   0  0  0  0  0  0  0  0  0  0  0  0
   -0.0231    0.9515    0.5524 H   0  0  0  0  0  0  0  0  0  0  0  0
   -1.5902   -1.3456   -0.7368 H   0  0  0  0  0  0  0  0  0  0  0  0
   -2.2667    1.5704   -0.1906 H   0  0  0  0  0  0  0  0  0  0  0  0
   -3.3355    0.3089   -0.8348 H   0  0  0  0  0  0  0  0  0  0  0  0
   -1.9114    0.9059   -1.8178 H   0  0  0  0  0  0  0  0  0  0  0  0
   -1.6509    0.3559    1.8021 H   0  0  0  0  0  0  0  0  0  0  0  0
   -3.0648   -0.5826    1.2895 H   0  0  0  0  0  0  0  0  0  0  0  0
   -1.4843   -1.4450    1.7231 H   0  0  0  0  0  0  0  0  0  0  0  0
    0.7457    1.2837   -1.7153 H   0  0  0  0  0  0  0  0  0  0  0  0
   -0.0065   -0.3346   -2.1709 H   0  0  0  0  0  0  0  0  0  0  0  0
  1  2  1  0
  2  3  1  0
  3  4  1  0
  4  5  1  0
  5  6  1  0
  5  7  1  0
  4  8  1  0
  8  9  1  0
  9  2  1  0
  1 10  1  0
  1 11  1  0
  1 12  1  0
  2 13  1  0
  3 14  1  0
  3 15  1  0
  4 16  1  0
  5 17  1  0
  6 18  1  0
  6 19  1  0
  6 20  1  0
  7 21  1  0
  7 22  1  0
  7 23  1  0
  8 24  1  0
  8 25  1  0
M  END
