
     RDKit          3D

 21 22  0  0  0  0  0  0  0  0999 V2000
    2.3493   -0.0608   -0.1310 C   0  0  0  0  0  0  0  0  0  0  0  0
    0.9705    0.5317    0.1899 C   0  0  0  0  0  0  0  0  0  0  0  0
    0.4430   -0.1822    1.3620 C   0  0  0  0  0  0  0  0  0  0  0  0
   -0.5776   -1.0042    1.3630 C   0  0  0  0  0  0  0  0  0  0  0  0
   -1.2884   -1.2654    0.1013 C   0  0  0  0  0  0  0  0  0  0  0  0
   -1.2106   -0.1427   -0.8714 C   0  0  0  0  0  0  0  0  0  0  0  0
   -1.5514    1.2245   -0.3847 C   0  0  0  0  0  0  0  0  0  0  0  0
   -0.5436    1.7233   -1.2432 O   0  0  0  0  0  0  0  0  0  0  0  0
    0.1186    0.4929   -1.0174 C   0  0  0  0  0  0  0  0  0  0  0  0
    2.8049    0.4645   -0.9884 H   0  0  0  0  0  0  0  0  0  0  0  0
    2.2429   -1.1332   -0.2928 H   0  0  0  0  0  0  0  0  0  0  0  0
    3.0311    0.0953    0.7541 H   0  0  0  0  0  0  0  0  0  0  0  0
    1.1737    1.5965    0.4552 H   0  0  0  0  0  0  0  0  0  0  0  0
    0.9460   -0.0126    2.3163 H   0  0  0  0  0  0  0  0  0  0  0  0
   -0.9389   -1.5142    2.2502 H   0  0  0  0  0  0  0  0  0  0  0  0
   -0.8049   -2.1605   -0.3862 H   0  0  0  0  0  0  0  0  0  0  0  0
   -2.3274   -1.5205    0.2882 H   0  0  0  0  0  0  0  0  0  0  0  0
   -1.6734   -0.3649   -1.8301 H   0  0  0  0  0  0  0  0  0  0  0  0
   -2.5304    1.6312   -0.6386 H   0  0  0  0  0  0  0  0  0  0  0  0
   -1.2632    1.4796    0.6513 H   0  0  0  0  0  0  0  0  0  0  0  0
    0.6297    0.1218   -1.9477 H   0  0  0  0  0  0  0  0  0  0  0  0
  1  2  1  0
  2  3  1  0
  3  4  2  0
  4  5  1  0
  5  6  1  0
  6  7  1  0
  7  8  1  0
  8  9  1  0
  9  2  1  0
  9  6  1  0
  1 10  1  0
  1 11  1  0
  1 12  1  0
  2 13  1  0
  3 14  1  0
  4 15  1  0
  5 16  1  0
  5 17  1  0
  6 18  1  0
  7 19  1  0
  7 20  1  0
  9 21  1  0
M  END
