
     RDKit          3D

 23 24  0  0  0  0  0  0  0  0999 V2000
    3.1026    0.4206   -0.3816 C   0  0  0  0  0  0  0  0  0  0  0  0
    1.6775   -0.0407   -0.4995 C   0  0  0  0  0  0  0  0  0  0  0  0
    1.0981   -0.7267    0.6993 C   0  0  0  0  0  0  0  0  0  0  0  0
    0.0301    0.2624    0.4408 C   0  0  0  0  0  0  0  0  0  0  0  0
   -1.0149    0.6298    1.3593 C   0  0  0  0  0  0  0  0  0  0  0  0
   -1.3246   -0.0040    0.0292 C   0  0  0  0  0  0  0  0  0  0  0  0
   -2.0416    0.9516   -0.9283 C   0  0  0  0  0  0  0  0  0  0  0  0
   -1.8061   -1.4106   -0.0590 C   0  0  0  0  0  0  0  0  0  0  0  0
    0.8276    1.0734   -0.2963 O   0  0  0  0  0  0  0  0  0  0  0  0
    3.8190   -0.2888   -0.8481 H   0  0  0  0  0  0  0  0  0  0  0  0
    3.1598    1.4232   -0.8960 H   0  0  0  0  0  0  0  0  0  0  0  0
    3.3066    0.6107    0.6875 H   0  0  0  0  0  0  0  0  0  0  0  0
    1.4704   -0.6126   -1.4117 H   0  0  0  0  0  0  0  0  0  0  0  0
    0.8393   -1.7859    0.6001 H   0  0  0  0  0  0  0  0  0  0  0  0
    1.6815   -0.4468    1.6148 H   0  0  0  0  0  0  0  0  0  0  0  0
   -1.1994   -0.0587    2.2305 H   0  0  0  0  0  0  0  0  0  0  0  0
   -1.2756    1.6802    1.5580 H   0  0  0  0  0  0  0  0  0  0  0  0
   -1.3914    1.8615   -1.0033 H   0  0  0  0  0  0  0  0  0  0  0  0
   -2.1009    0.5426   -1.9499 H   0  0  0  0  0  0  0  0  0  0  0  0
   -3.0405    1.2127   -0.5042 H   0  0  0  0  0  0  0  0  0  0  0  0
   -1.2848   -2.1116    0.5975 H   0  0  0  0  0  0  0  0  0  0  0  0
   -1.6193   -1.7625   -1.1083 H   0  0  0  0  0  0  0  0  0  0  0  0
   -2.9135   -1.4196    0.0694 H   0  0  0  0  0  0  0  0  0  0  0  0
  1  2  1  0
  2  3  1  0
  3  4  1  0
  4  5  1  0
  5  6  1  0
  6  7  1  0
  6  8  1  0
  4  9  1  0
  9  2  1  0
  6  4  1  0
  1 10  1  0
  1 11  1  0
  1 12  1  0
  2 13  1  0
  3 14  1  0
  3 15  1  0
  5 16  1  0
  5 17  1  0
  7 18  1  0
  7 19  1  0
  7 20  1  0
  8 21  1  0
  8 22  1  0
  8 23  1  0
M  END
