
     RDKit          3D

 19 19  0  0  0  0  0  0  0  0999 V2000
    2.1164   -0.9240    0.6548 C   0  0  0  0  0  0  0  0  0  0  0  0
    0.7627   -0.3817    0.4342 C   0  0  0  0  0  0  0  0  0  0  0  0
    0.7496    0.9058   -0.3981 C   0  0  0  0  0  0  0  0  0  0  0  0
   -0.7555    1.0287   -0.5697 C   0  0  0  0  0  0  0  0  0  0  0  0
   -1.2662    1.5218    0.6204 O   0  0  0  0  0  0  0  0  0  0  0  0
   -1.1112   -0.4295   -0.7915 C   0  0  0  0  0  0  0  0  0  0  0  0
   -2.3199   -0.8404   -0.0702 C   0  0  0  0  0  0  0  0  0  0  0  0
   -2.2535   -1.7268    0.7482 O   0  0  0  0  0  0  0  0  0  0  0  0
   -0.0406   -1.1809   -0.3777 O   0  0  0  0  0  0  0  0  0  0  0  0
    2.1927   -2.0129    0.3997 H   0  0  0  0  0  0  0  0  0  0  0  0
    2.4950   -0.8466    1.6993 H   0  0  0  0  0  0  0  0  0  0  0  0
    2.8684   -0.3536    0.0371 H   0  0  0  0  0  0  0  0  0  0  0  0
    0.2820   -0.1921    1.4202 H   0  0  0  0  0  0  0  0  0  0  0  0
    1.1725    1.7523    0.1702 H   0  0  0  0  0  0  0  0  0  0  0  0
    1.2339    0.7204   -1.3581 H   0  0  0  0  0  0  0  0  0  0  0  0
   -0.9401    1.6620   -1.4325 H   0  0  0  0  0  0  0  0  0  0  0  0
   -0.6138    2.1862    0.9583 H   0  0  0  0  0  0  0  0  0  0  0  0
   -1.3004   -0.5165   -1.8951 H   0  0  0  0  0  0  0  0  0  0  0  0
   -3.2721   -0.3721   -0.2496 H   0  0  0  0  0  0  0  0  0  0  0  0
  1  2  1  0
  2  3  1  0
  3  4  1  0
  4  5  1  0
  4  6  1  0
  6  7  1  0
  7  8  2  0
  6  9  1  0
  9  2  1  0
  1 10  1  0
  1 11  1  0
  1 12  1  0
  2 13  1  0
  3 14  1  0
  3 15  1  0
  4 16  1  0
  5 17  1  0
  6 18  1  0
  7 19  1  0
M  END
