
     RDKit          3D

 21 22  0  0  0  0  0  0  0  0999 V2000
   -1.3156   -1.3550    0.8317 C   0  0  0  0  0  0  0  0  0  0  0  0
   -0.7955   -0.7339   -0.4185 C   0  0  0  0  0  0  0  0  0  0  0  0
   -1.4618    0.6331   -0.6321 C   0  0  0  0  0  0  0  0  0  0  0  0
   -0.0931    1.2554   -0.6135 C   0  0  0  0  0  0  0  0  0  0  0  0
    0.1711    2.3996    0.0741 O   0  0  0  0  0  0  0  0  0  0  0  0
    0.8700    0.7098   -1.6411 C   0  0  0  0  0  0  0  0  0  0  0  0
    0.5109   -0.0408   -0.3725 C   0  0  0  0  0  0  0  0  0  0  0  0
    1.6154   -0.3509    0.5291 C   0  0  0  0  0  0  0  0  0  0  0  0
    1.3391   -0.2399    1.8856 O   0  0  0  0  0  0  0  0  0  0  0  0
   -0.9053   -0.9435    1.7626 H   0  0  0  0  0  0  0  0  0  0  0  0
   -1.2453   -2.4715    0.7749 H   0  0  0  0  0  0  0  0  0  0  0  0
   -2.4223   -1.1408    0.8612 H   0  0  0  0  0  0  0  0  0  0  0  0
   -0.9847   -1.4077   -1.2857 H   0  0  0  0  0  0  0  0  0  0  0  0
   -1.8896    0.7254   -1.6623 H   0  0  0  0  0  0  0  0  0  0  0  0
   -2.1513    0.9362    0.1568 H   0  0  0  0  0  0  0  0  0  0  0  0
    0.0585    2.3610    1.0393 H   0  0  0  0  0  0  0  0  0  0  0  0
    0.3819    0.3723   -2.5863 H   0  0  0  0  0  0  0  0  0  0  0  0
    1.8288    1.2393   -1.6831 H   0  0  0  0  0  0  0  0  0  0  0  0
    2.5172    0.2309    0.2484 H   0  0  0  0  0  0  0  0  0  0  0  0
    1.9178   -1.4301    0.3741 H   0  0  0  0  0  0  0  0  0  0  0  0
    2.0536   -0.7487    2.3573 H   0  0  0  0  0  0  0  0  0  0  0  0
  1  2  1  0
  2  3  1  0
  3  4  1  0
  4  5  1  0
  4  6  1  0
  6  7  1  0
  7  8  1  0
  8  9  1  0
  7  2  1  0
  7  4  1  0
  1 10  1  0
  1 11  1  0
  1 12  1  0
  2 13  1  0
  3 14  1  0
  3 15  1  0
  5 16  1  0
  6 17  1  0
  6 18  1  0
  8 19  1  0
  8 20  1  0
  9 21  1  0
M  END
