
     RDKit          3D

 20 21  0  0  0  0  0  0  0  0999 V2000
    2.3562   -0.1160    0.1366 C   0  0  0  0  0  0  0  0  0  0  0  0
    0.9015   -0.2837    0.5517 C   0  0  0  0  0  0  0  0  0  0  0  0
    0.2603   -1.2329   -0.4167 C   0  0  0  0  0  0  0  0  0  0  0  0
   -1.0328   -0.5928   -0.8679 C   0  0  0  0  0  0  0  0  0  0  0  0
   -2.0337   -0.4167    0.2621 C   0  0  0  0  0  0  0  0  0  0  0  0
   -1.1969    0.6921   -0.1774 C   0  0  0  0  0  0  0  0  0  0  0  0
   -1.8485    1.7756   -0.7614 O   0  0  0  0  0  0  0  0  0  0  0  0
    0.1500    1.0047    0.3774 C   0  0  0  0  0  0  0  0  0  0  0  0
    3.0211    0.0838    0.9883 H   0  0  0  0  0  0  0  0  0  0  0  0
    2.4132    0.7474   -0.5740 H   0  0  0  0  0  0  0  0  0  0  0  0
    2.6909   -1.0231   -0.4277 H   0  0  0  0  0  0  0  0  0  0  0  0
    0.7992   -0.5863    1.6106 H   0  0  0  0  0  0  0  0  0  0  0  0
    0.9067   -1.5530   -1.2363 H   0  0  0  0  0  0  0  0  0  0  0  0
   -0.0405   -2.1425    0.1777 H   0  0  0  0  0  0  0  0  0  0  0  0
   -1.3664   -0.6584   -1.8997 H   0  0  0  0  0  0  0  0  0  0  0  0
   -3.0780   -0.4309   -0.0529 H   0  0  0  0  0  0  0  0  0  0  0  0
   -1.8613   -0.9798    1.2155 H   0  0  0  0  0  0  0  0  0  0  0  0
   -1.8892    2.4782   -0.0374 H   0  0  0  0  0  0  0  0  0  0  0  0
    0.7028    1.5841   -0.4201 H   0  0  0  0  0  0  0  0  0  0  0  0
    0.1454    1.6502    1.2636 H   0  0  0  0  0  0  0  0  0  0  0  0
  1  2  1  0
  2  3  1  0
  3  4  1  0
  4  5  1  0
  5  6  1  0
  6  7  1  0
  6  8  1  0
  8  2  1  0
  6  4  1  0
  1  9  1  0
  1 10  1  0
  1 11  1  0
  2 12  1  0
  3 13  1  0
  3 14  1  0
  4 15  1  0
  5 16  1  0
  5 17  1  0
  7 18  1  0
  8 19  1  0
  8 20  1  0
M  END
