
     RDKit          3D

 19 20  0  0  0  0  0  0  0  0999 V2000
   -1.9588    0.9967    0.2953 C   0  0  0  0  0  0  0  0  0  0  0  0
   -0.7357    0.1625    0.5313 C   0  0  0  0  0  0  0  0  0  0  0  0
    0.1928    0.1283   -0.6773 C   0  0  0  0  0  0  0  0  0  0  0  0
    1.5465    0.7075   -0.4477 C   0  0  0  0  0  0  0  0  0  0  0  0
    2.3096    0.0396    0.6226 C   0  0  0  0  0  0  0  0  0  0  0  0
    1.8128   -0.8818    1.2625 O   0  0  0  0  0  0  0  0  0  0  0  0
    0.0498   -1.3603   -0.6318 C   0  0  0  0  0  0  0  0  0  0  0  0
   -1.2949   -1.7245   -1.0286 O   0  0  0  0  0  0  0  0  0  0  0  0
   -0.9704   -1.3179    0.2542 C   0  0  0  0  0  0  0  0  0  0  0  0
   -2.8169    0.6199    0.8957 H   0  0  0  0  0  0  0  0  0  0  0  0
   -1.7358    2.0605    0.4542 H   0  0  0  0  0  0  0  0  0  0  0  0
   -2.2575    0.8893   -0.7618 H   0  0  0  0  0  0  0  0  0  0  0  0
   -0.2232    0.2902    1.4968 H   0  0  0  0  0  0  0  0  0  0  0  0
   -0.2814    0.5946   -1.5685 H   0  0  0  0  0  0  0  0  0  0  0  0
    1.4550    1.7850   -0.2306 H   0  0  0  0  0  0  0  0  0  0  0  0
    2.1006    0.6208   -1.4140 H   0  0  0  0  0  0  0  0  0  0  0  0
    3.3239    0.3947    0.8035 H   0  0  0  0  0  0  0  0  0  0  0  0
    0.8483   -2.0476   -0.9075 H   0  0  0  0  0  0  0  0  0  0  0  0
   -1.3646   -1.9575    1.0517 H   0  0  0  0  0  0  0  0  0  0  0  0
  1  2  1  0
  2  3  1  0
  3  4  1  0
  4  5  1  0
  5  6  2  0
  3  7  1  0
  7  8  1  0
  8  9  1  0
  9  2  1  0
  9  7  1  0
  1 10  1  0
  1 11  1  0
  1 12  1  0
  2 13  1  0
  3 14  1  0
  4 15  1  0
  4 16  1  0
  5 17  1  0
  7 18  1  0
  9 19  1  0
M  END
