
     RDKit          3D

 23 23  0  0  0  0  0  0  0  0999 V2000
   -2.2018    1.4461   -0.4991 C   0  0  0  0  0  0  0  0  0  0  0  0
   -1.6571    0.3470    0.3797 C   0  0  0  0  0  0  0  0  0  0  0  0
   -0.1908    0.6021    0.6620 C   0  0  0  0  0  0  0  0  0  0  0  0
    0.1006   -0.1685   -0.6338 C   0  0  0  0  0  0  0  0  0  0  0  0
    1.3405   -0.9986   -0.4130 C   0  0  0  0  0  0  0  0  0  0  0  0
    2.4518    0.0044   -0.0767 C   0  0  0  0  0  0  0  0  0  0  0  0
    3.6549   -0.6086    0.1528 O   0  0  0  0  0  0  0  0  0  0  0  0
   -1.2054   -0.8615   -0.4526 C   0  0  0  0  0  0  0  0  0  0  0  0
   -1.2250   -1.9960    0.3215 O   0  0  0  0  0  0  0  0  0  0  0  0
   -3.2984    1.3821   -0.5351 H   0  0  0  0  0  0  0  0  0  0  0  0
   -1.7244    1.3464   -1.4869 H   0  0  0  0  0  0  0  0  0  0  0  0
   -1.8662    2.4399   -0.0967 H   0  0  0  0  0  0  0  0  0  0  0  0
   -2.2671    0.0478    1.2257 H   0  0  0  0  0  0  0  0  0  0  0  0
    0.1159    0.0450    1.5562 H   0  0  0  0  0  0  0  0  0  0  0  0
    0.1500    1.6331    0.5766 H   0  0  0  0  0  0  0  0  0  0  0  0
    0.1193    0.4732   -1.5339 H   0  0  0  0  0  0  0  0  0  0  0  0
    1.1396   -1.6267    0.4963 H   0  0  0  0  0  0  0  0  0  0  0  0
    1.6136   -1.6108   -1.2794 H   0  0  0  0  0  0  0  0  0  0  0  0
    2.0942    0.5965    0.7975 H   0  0  0  0  0  0  0  0  0  0  0  0
    2.4856    0.7083   -0.9373 H   0  0  0  0  0  0  0  0  0  0  0  0
    4.3746    0.0648   -0.0688 H   0  0  0  0  0  0  0  0  0  0  0  0
   -1.8615   -0.9058   -1.3615 H   0  0  0  0  0  0  0  0  0  0  0  0
   -2.1430   -2.3600    0.2994 H   0  0  0  0  0  0  0  0  0  0  0  0
  1  2  1  0
  2  3  1  0
  3  4  1  0
  4  5  1  0
  5  6  1  0
  6  7  1  0
  4  8  1  0
  8  9  1  0
  8  2  1  0
  1 10  1  0
  1 11  1  0
  1 12  1  0
  2 13  1  0
  3 14  1  0
  3 15  1  0
  4 16  1  0
  5 17  1  0
  5 18  1  0
  6 19  1  0
  6 20  1  0
  7 21  1  0
  8 22  1  0
  9 23  1  0
M  END
