
     RDKit          3D

 23 24  0  0  0  0  0  0  0  0999 V2000
    1.8338    0.9891    1.0224 C   0  0  0  0  0  0  0  0  0  0  0  0
    0.9952    0.3578   -0.0308 C   0  0  0  0  0  0  0  0  0  0  0  0
    0.8989   -1.1212    0.0296 C   0  0  0  0  0  0  0  0  0  0  0  0
   -0.1974   -1.3993    1.0688 C   0  0  0  0  0  0  0  0  0  0  0  0
   -1.0707   -0.6666    0.0383 C   0  0  0  0  0  0  0  0  0  0  0  0
   -2.3794   -0.8673    0.0665 O   0  0  0  0  0  0  0  0  0  0  0  0
   -0.2195   -1.3928   -0.9891 C   0  0  0  0  0  0  0  0  0  0  0  0
   -0.4965    0.7195    0.1219 C   0  0  0  0  0  0  0  0  0  0  0  0
   -0.9422    1.6371   -0.9568 C   0  0  0  0  0  0  0  0  0  0  0  0
    2.5952    1.6365    0.4977 H   0  0  0  0  0  0  0  0  0  0  0  0
    1.1929    1.7134    1.5791 H   0  0  0  0  0  0  0  0  0  0  0  0
    2.3030    0.2716    1.7018 H   0  0  0  0  0  0  0  0  0  0  0  0
    1.2693    0.6579   -1.0600 H   0  0  0  0  0  0  0  0  0  0  0  0
    1.7437   -1.7519    0.0169 H   0  0  0  0  0  0  0  0  0  0  0  0
   -0.1173   -0.8275    1.9886 H   0  0  0  0  0  0  0  0  0  0  0  0
   -0.3774   -2.4735    1.1204 H   0  0  0  0  0  0  0  0  0  0  0  0
   -2.8374   -1.0184   -0.8111 H   0  0  0  0  0  0  0  0  0  0  0  0
   -0.0869   -0.8898   -1.9435 H   0  0  0  0  0  0  0  0  0  0  0  0
   -0.4092   -2.4799   -0.9964 H   0  0  0  0  0  0  0  0  0  0  0  0
   -0.5986    1.1101    1.1425 H   0  0  0  0  0  0  0  0  0  0  0  0
   -1.9404    1.4277   -1.3660 H   0  0  0  0  0  0  0  0  0  0  0  0
   -1.0143    2.6722   -0.5096 H   0  0  0  0  0  0  0  0  0  0  0  0
   -0.1447    1.6953   -1.7311 H   0  0  0  0  0  0  0  0  0  0  0  0
  1  2  1  0
  2  3  1  0
  3  4  1  0
  4  5  1  0
  5  6  1  0
  5  7  1  0
  5  8  1  0
  8  9  1  0
  8  2  1  0
  7  3  1  0
  1 10  1  0
  1 11  1  0
  1 12  1  0
  2 13  1  0
  3 14  1  0
  4 15  1  0
  4 16  1  0
  6 17  1  0
  7 18  1  0
  7 19  1  0
  8 20  1  0
  9 21  1  0
  9 22  1  0
  9 23  1  0
M  END
