
     RDKit          3D

 21 21  0  0  0  0  0  0  0  0999 V2000
   -1.7111    0.7026    1.0721 C   0  0  0  0  0  0  0  0  0  0  0  0
   -1.4433    0.3522   -0.3972 C   0  0  0  0  0  0  0  0  0  0  0  0
   -0.4447    1.3262   -0.9120 C   0  0  0  0  0  0  0  0  0  0  0  0
    0.8635    1.4599   -0.7710 C   0  0  0  0  0  0  0  0  0  0  0  0
    1.8728    0.6993   -0.0456 C   0  0  0  0  0  0  0  0  0  0  0  0
    1.9978   -0.5423    0.3932 C   0  0  0  0  0  0  0  0  0  0  0  0
    1.1261   -1.7444    0.3321 C   0  0  0  0  0  0  0  0  0  0  0  0
   -0.1498   -1.3626    0.6902 O   0  0  0  0  0  0  0  0  0  0  0  0
   -0.9443   -1.0639   -0.4201 C   0  0  0  0  0  0  0  0  0  0  0  0
   -1.3579    1.7329    1.2857 H   0  0  0  0  0  0  0  0  0  0  0  0
   -1.1048    0.0290    1.7402 H   0  0  0  0  0  0  0  0  0  0  0  0
   -2.7652    0.5926    1.3382 H   0  0  0  0  0  0  0  0  0  0  0  0
   -2.3725    0.4156   -0.9934 H   0  0  0  0  0  0  0  0  0  0  0  0
   -0.8872    2.0925   -1.5390 H   0  0  0  0  0  0  0  0  0  0  0  0
    1.2901    2.3165   -1.3053 H   0  0  0  0  0  0  0  0  0  0  0  0
    2.7411    1.3382    0.1846 H   0  0  0  0  0  0  0  0  0  0  0  0
    2.9420   -0.6766    0.8963 H   0  0  0  0  0  0  0  0  0  0  0  0
    1.0745   -2.0234   -0.7611 H   0  0  0  0  0  0  0  0  0  0  0  0
    1.5276   -2.5693    0.9285 H   0  0  0  0  0  0  0  0  0  0  0  0
   -0.4186   -1.3326   -1.3556 H   0  0  0  0  0  0  0  0  0  0  0  0
   -1.8360   -1.7423   -0.3606 H   0  0  0  0  0  0  0  0  0  0  0  0
  1  2  1  0
  2  3  1  0
  3  4  2  3
  4  5  1  0
  5  6  2  3
  6  7  1  0
  7  8  1  0
  8  9  1  0
  9  2  1  0
  1 10  1  0
  1 11  1  0
  1 12  1  0
  2 13  1  0
  3 14  1  0
  4 15  1  0
  5 16  1  0
  6 17  1  0
  7 18  1  0
  7 19  1  0
  9 20  1  0
  9 21  1  0
M  END
