
     RDKit          3D

 19 20  0  0  0  0  0  0  0  0999 V2000
    1.7828    0.2462   -0.3686 C   0  0  0  0  0  0  0  0  0  0  0  0
    0.5791   -0.2640    0.3614 C   0  0  0  0  0  0  0  0  0  0  0  0
   -0.3815    0.8819    0.7364 C   0  0  0  0  0  0  0  0  0  0  0  0
    0.2950    2.0861    0.7455 O   0  0  0  0  0  0  0  0  0  0  0  0
   -1.2938    0.8149   -0.4336 C   0  0  0  0  0  0  0  0  0  0  0  0
   -2.4259    0.2152   -0.6765 O   0  0  0  0  0  0  0  0  0  0  0  0
   -1.6175   -0.7001   -0.2212 C   0  0  0  0  0  0  0  0  0  0  0  0
   -0.2498   -1.1489   -0.5832 C   0  0  0  0  0  0  0  0  0  0  0  0
   -0.0945   -2.4671   -0.1121 O   0  0  0  0  0  0  0  0  0  0  0  0
    1.5730    0.2830   -1.4552 H   0  0  0  0  0  0  0  0  0  0  0  0
    2.1084    1.2502   -0.0577 H   0  0  0  0  0  0  0  0  0  0  0  0
    2.6204   -0.4737   -0.1921 H   0  0  0  0  0  0  0  0  0  0  0  0
    0.9126   -0.8106    1.2465 H   0  0  0  0  0  0  0  0  0  0  0  0
   -0.8821    0.6640    1.7090 H   0  0  0  0  0  0  0  0  0  0  0  0
   -0.3756    2.7978    0.5733 H   0  0  0  0  0  0  0  0  0  0  0  0
   -0.7205    1.0561   -1.3829 H   0  0  0  0  0  0  0  0  0  0  0  0
   -1.8539   -0.9887    0.8512 H   0  0  0  0  0  0  0  0  0  0  0  0
    0.0427   -1.0257   -1.6198 H   0  0  0  0  0  0  0  0  0  0  0  0
   -0.0189   -2.4168    0.8795 H   0  0  0  0  0  0  0  0  0  0  0  0
  1  2  1  0
  2  3  1  0
  3  4  1  0
  3  5  1  0
  5  6  1  0
  6  7  1  0
  7  8  1  0
  8  9  1  0
  8  2  1  0
  7  5  1  0
  1 10  1  0
  1 11  1  0
  1 12  1  0
  2 13  1  0
  3 14  1  0
  4 15  1  0
  5 16  1  0
  7 17  1  0
  8 18  1  0
  9 19  1  0
M  END
