
     RDKit          3D

 23 25  0  0  0  0  0  0  0  0999 V2000
    0.8366    1.9135    0.1381 C   0  0  0  0  0  0  0  0  0  0  0  0
    0.1636    0.6961    0.6957 C   0  0  0  0  0  0  0  0  0  0  0  0
    0.8145   -0.5916    0.3093 C   0  0  0  0  0  0  0  0  0  0  0  0
    2.2501   -0.4783   -0.0665 C   0  0  0  0  0  0  0  0  0  0  0  0
   -0.0490   -1.1422   -0.8320 C   0  0  0  0  0  0  0  0  0  0  0  0
   -1.4466   -1.4254   -0.3808 C   0  0  0  0  0  0  0  0  0  0  0  0
   -1.9844   -0.6046    0.7419 C   0  0  0  0  0  0  0  0  0  0  0  0
   -1.2509    0.6098    0.1628 C   0  0  0  0  0  0  0  0  0  0  0  0
   -1.0844   -0.1674   -1.0959 C   0  0  0  0  0  0  0  0  0  0  0  0
    1.8060    2.1223    0.5919 H   0  0  0  0  0  0  0  0  0  0  0  0
    0.1740    2.7865    0.3634 H   0  0  0  0  0  0  0  0  0  0  0  0
    0.9324    1.8240   -0.9471 H   0  0  0  0  0  0  0  0  0  0  0  0
    0.0621    0.7818    1.8120 H   0  0  0  0  0  0  0  0  0  0  0  0
    0.7045   -1.2912    1.1834 H   0  0  0  0  0  0  0  0  0  0  0  0
    2.4227   -1.1917   -0.9263 H   0  0  0  0  0  0  0  0  0  0  0  0
    2.9257   -0.7746    0.7522 H   0  0  0  0  0  0  0  0  0  0  0  0
    2.4761    0.5245   -0.4878 H   0  0  0  0  0  0  0  0  0  0  0  0
    0.4190   -1.6651   -1.6573 H   0  0  0  0  0  0  0  0  0  0  0  0
   -1.9967   -2.2361   -0.8423 H   0  0  0  0  0  0  0  0  0  0  0  0
   -3.0852   -0.4137    0.6086 H   0  0  0  0  0  0  0  0  0  0  0  0
   -1.6871   -0.8640    1.7583 H   0  0  0  0  0  0  0  0  0  0  0  0
   -1.8232    1.5325    0.1379 H   0  0  0  0  0  0  0  0  0  0  0  0
   -1.5796    0.0547   -2.0198 H   0  0  0  0  0  0  0  0  0  0  0  0
  1  2  1  0
  2  3  1  0
  3  4  1  0
  3  5  1  0
  5  6  1  0
  6  7  1  0
  7  8  1  0
  8  9  1  0
  8  2  1  0
  9  5  1  0
  9  6  1  0
  1 10  1  0
  1 11  1  0
  1 12  1  0
  2 13  1  0
  3 14  1  0
  4 15  1  0
  4 16  1  0
  4 17  1  0
  5 18  1  0
  6 19  1  0
  7 20  1  0
  7 21  1  0
  8 22  1  0
  9 23  1  0
M  END
