
     RDKit          3D

 21 23  0  0  0  0  0  0  0  0999 V2000
    2.4933    0.3913    0.2065 C   0  0  0  0  0  0  0  0  0  0  0  0
    1.4128   -0.3550   -0.4508 C   0  0  0  0  0  0  0  0  0  0  0  0
    0.3467   -0.9779    0.4078 C   0  0  0  0  0  0  0  0  0  0  0  0
   -0.1607    0.4001    0.6375 C   0  0  0  0  0  0  0  0  0  0  0  0
   -1.6180    0.4828    0.9829 C   0  0  0  0  0  0  0  0  0  0  0  0
   -2.3707    0.0989   -0.2979 C   0  0  0  0  0  0  0  0  0  0  0  0
   -1.7964   -1.0932   -0.7079 O   0  0  0  0  0  0  0  0  0  0  0  0
   -0.4536   -0.9834   -0.8712 C   0  0  0  0  0  0  0  0  0  0  0  0
    0.1607    0.3868   -0.8255 C   0  0  0  0  0  0  0  0  0  0  0  0
    2.2780    1.4237    0.4951 H   0  0  0  0  0  0  0  0  0  0  0  0
    2.9242   -0.1485    1.0998 H   0  0  0  0  0  0  0  0  0  0  0  0
    3.3636    0.4496   -0.5135 H   0  0  0  0  0  0  0  0  0  0  0  0
    1.7071   -1.0391   -1.2541 H   0  0  0  0  0  0  0  0  0  0  0  0
    0.4520   -1.7357    1.0531 H   0  0  0  0  0  0  0  0  0  0  0  0
    0.4241    1.0679    1.2744 H   0  0  0  0  0  0  0  0  0  0  0  0
   -1.8149   -0.2284    1.8005 H   0  0  0  0  0  0  0  0  0  0  0  0
   -1.8758    1.5036    1.2629 H   0  0  0  0  0  0  0  0  0  0  0  0
   -3.4463    0.0480   -0.1501 H   0  0  0  0  0  0  0  0  0  0  0  0
   -2.0559    0.8718   -1.0491 H   0  0  0  0  0  0  0  0  0  0  0  0
   -0.0332   -1.6878   -1.6101 H   0  0  0  0  0  0  0  0  0  0  0  0
    0.0630    1.1246   -1.4903 H   0  0  0  0  0  0  0  0  0  0  0  0
  1  2  1  0
  2  3  1  0
  3  4  1  0
  4  5  1  0
  5  6  1  0
  6  7  1  0
  7  8  1  0
  8  9  1  0
  9  2  1  0
  8  3  1  0
  9  4  1  0
  1 10  1  0
  1 11  1  0
  1 12  1  0
  2 13  1  0
  3 14  1  0
  4 15  1  0
  5 16  1  0
  5 17  1  0
  6 18  1  0
  6 19  1  0
  8 20  1  0
  9 21  1  0
M  END
