
     RDKit          3D

 19 20  0  0  0  0  0  0  0  0999 V2000
    2.5242    0.1254   -0.0446 C   0  0  0  0  0  0  0  0  0  0  0  0
    1.0766    0.4689   -0.0147 C   0  0  0  0  0  0  0  0  0  0  0  0
    0.2325   -0.4737    0.7813 C   0  0  0  0  0  0  0  0  0  0  0  0
    0.4373   -1.3970   -0.2580 O   0  0  0  0  0  0  0  0  0  0  0  0
    0.1770   -0.2406   -0.9668 C   0  0  0  0  0  0  0  0  0  0  0  0
   -0.9413   -0.0059    0.0124 C   0  0  0  0  0  0  0  0  0  0  0  0
   -2.0614   -1.0173   -0.0357 C   0  0  0  0  0  0  0  0  0  0  0  0
   -1.3553    1.3929    0.1527 C   0  0  0  0  0  0  0  0  0  0  0  0
   -1.7392    1.8322    1.2160 O   0  0  0  0  0  0  0  0  0  0  0  0
    2.8276   -0.5831   -0.8136 H   0  0  0  0  0  0  0  0  0  0  0  0
    3.1631    1.0551   -0.0822 H   0  0  0  0  0  0  0  0  0  0  0  0
    2.7849   -0.3410    0.9438 H   0  0  0  0  0  0  0  0  0  0  0  0
    0.8662    1.5469    0.1114 H   0  0  0  0  0  0  0  0  0  0  0  0
    0.3082   -0.6853    1.7616 H   0  0  0  0  0  0  0  0  0  0  0  0
    0.1244   -0.1331   -1.9680 H   0  0  0  0  0  0  0  0  0  0  0  0
   -2.9067   -0.5101   -0.5863 H   0  0  0  0  0  0  0  0  0  0  0  0
   -1.7832   -1.9518   -0.5367 H   0  0  0  0  0  0  0  0  0  0  0  0
   -2.3984   -1.1718    1.0084 H   0  0  0  0  0  0  0  0  0  0  0  0
   -1.3364    2.0894   -0.6810 H   0  0  0  0  0  0  0  0  0  0  0  0
  1  2  1  0
  2  3  1  0
  3  4  1  0
  4  5  1  0
  5  6  1  0
  6  7  1  0
  6  8  1  0
  8  9  2  0
  5  2  1  0
  6  3  1  0
  1 10  1  0
  1 11  1  0
  1 12  1  0
  2 13  1  0
  3 14  1  0
  5 15  1  0
  7 16  1  0
  7 17  1  0
  7 18  1  0
  8 19  1  0
M  END
