
     RDKit          3D

 20 21  0  0  0  0  0  0  0  0999 V2000
   -1.5562   -1.4578   -0.1029 C   0  0  0  0  0  0  0  0  0  0  0  0
   -0.9179   -0.2507    0.5047 C   0  0  0  0  0  0  0  0  0  0  0  0
   -1.4962    1.0145   -0.1484 C   0  0  0  0  0  0  0  0  0  0  0  0
   -0.0887    1.5971   -0.0188 C   0  0  0  0  0  0  0  0  0  0  0  0
    0.4048    0.1710   -0.0275 C   0  0  0  0  0  0  0  0  0  0  0  0
    1.6233   -0.1386    0.7247 C   0  0  0  0  0  0  0  0  0  0  0  0
    2.1137   -0.4732   -0.6563 C   0  0  0  0  0  0  0  0  0  0  0  0
    0.8354   -0.3386   -1.2058 O   0  0  0  0  0  0  0  0  0  0  0  0
   -1.0983   -2.3810    0.2835 H   0  0  0  0  0  0  0  0  0  0  0  0
   -2.6370   -1.4464    0.2066 H   0  0  0  0  0  0  0  0  0  0  0  0
   -1.5444   -1.3797   -1.2031 H   0  0  0  0  0  0  0  0  0  0  0  0
   -1.0434   -0.1573    1.5924 H   0  0  0  0  0  0  0  0  0  0  0  0
   -2.2690    1.5169    0.4262 H   0  0  0  0  0  0  0  0  0  0  0  0
   -1.7116    0.8716   -1.2299 H   0  0  0  0  0  0  0  0  0  0  0  0
    0.0535    2.0189    1.0085 H   0  0  0  0  0  0  0  0  0  0  0  0
    0.2493    2.2051   -0.8514 H   0  0  0  0  0  0  0  0  0  0  0  0
    1.6162   -0.9511    1.4606 H   0  0  0  0  0  0  0  0  0  0  0  0
    2.1334    0.8012    1.0787 H   0  0  0  0  0  0  0  0  0  0  0  0
    2.5489   -1.4867   -0.7096 H   0  0  0  0  0  0  0  0  0  0  0  0
    2.7842    0.2648   -1.1320 H   0  0  0  0  0  0  0  0  0  0  0  0
  1  2  1  0
  2  3  1  0
  3  4  1  0
  4  5  1  0
  5  6  1  0
  6  7  1  0
  7  8  1  0
  5  2  1  0
  8  5  1  0
  1  9  1  0
  1 10  1  0
  1 11  1  0
  2 12  1  0
  3 13  1  0
  3 14  1  0
  4 15  1  0
  4 16  1  0
  6 17  1  0
  6 18  1  0
  7 19  1  0
  7 20  1  0
M  END
