
     RDKit          2D

 21 23  0  0  0  0  0  0  0  0999 V2000
    0.4499    3.3200    0.0000 C   0  0  0  0  0  0  0  0  0  0  0  0
   -0.7504    1.2125    0.0000 C   0  0  0  0  0  0  0  0  0  0  0  0
   -0.2566   -0.1650    0.0000 C   0  0  0  0  0  0  0  0  0  0  0  0
   -0.0000   -1.0607    0.0000 C   0  0  0  0  0  0  0  0  0  0  0  0
    1.0607    0.0000    0.0000 O   0  0  0  0  0  0  0  0  0  0  0  0
    0.0000    1.0607    0.0000 C   0  0  0  0  0  0  0  0  0  0  0  0
   -1.0607    2.1213    0.0000 C   0  0  0  0  0  0  0  0  0  0  0  0
   -2.1213    1.0607    0.0000 C   0  0  0  0  0  0  0  0  0  0  0  0
   -1.0607    0.0000    0.0000 C   0  0  0  0  0  0  0  0  0  0  0  0
    0.4908    4.8195    0.0000 H   0  0  0  0  0  0  0  0  0  0  0  0
    1.9493    3.2791    0.0000 H   0  0  0  0  0  0  0  0  0  0  0  0
   -1.0334    3.5435    0.0000 H   0  0  0  0  0  0  0  0  0  0  0  0
    0.6341    1.7479    0.0000 H   0  0  0  0  0  0  0  0  0  0  0  0
    2.2023    1.1118    0.0000 H   0  0  0  0  0  0  0  0  0  0  0  0
    1.8157   -0.7774    0.0000 H   0  0  0  0  0  0  0  0  0  0  0  0
   -0.0000   -2.5607    0.0000 H   0  0  0  0  0  0  0  0  0  0  0  0
    0.7283    1.3848    0.0000 H   0  0  0  0  0  0  0  0  0  0  0  0
   -1.2435    3.6101    0.0000 H   0  0  0  0  0  0  0  0  0  0  0  0
   -3.1820    0.0000    0.0000 H   0  0  0  0  0  0  0  0  0  0  0  0
   -3.1820    2.1213    0.0000 H   0  0  0  0  0  0  0  0  0  0  0  0
   -2.1213   -1.0607    0.0000 H   0  0  0  0  0  0  0  0  0  0  0  0
  1  2  1  0
  2  3  1  0
  3  4  1  0
  4  5  1  0
  5  6  1  0
  6  7  1  0
  7  8  1  0
  8  9  1  0
  7  2  1  0
  9  4  1  0
  9  6  1  0
  1 10  1  0
  1 11  1  0
  1 12  1  0
  2 13  1  0
  3 14  1  0
  3 15  1  0
  4 16  1  0
  6 17  1  0
  7 18  1  0
  8 19  1  0
  8 20  1  0
  9 21  1  0
M  END
