
     RDKit          3D

 16 17  0  0  0  0  0  0  0  0999 V2000
    1.9511   -0.8169   -0.2803 C   0  0  0  0  0  0  0  0  0  0  0  0
    0.5085   -0.7148    0.2483 C   0  0  0  0  0  0  0  0  0  0  0  0
    0.1519    0.3681    1.1060 C   0  0  0  0  0  0  0  0  0  0  0  0
   -1.0970    1.0674    1.1526 O   0  0  0  0  0  0  0  0  0  0  0  0
   -0.5369    1.6702   -0.0045 C   0  0  0  0  0  0  0  0  0  0  0  0
   -0.3011    2.7948   -0.4569 O   0  0  0  0  0  0  0  0  0  0  0  0
   -0.3878    0.2145   -0.3764 C   0  0  0  0  0  0  0  0  0  0  0  0
   -1.8358   -0.3217   -0.4643 C   0  0  0  0  0  0  0  0  0  0  0  0
    2.4590    0.1626   -0.0787 H   0  0  0  0  0  0  0  0  0  0  0  0
    1.9632   -0.9466   -1.3738 H   0  0  0  0  0  0  0  0  0  0  0  0
    2.5270   -1.5743    0.2697 H   0  0  0  0  0  0  0  0  0  0  0  0
    0.1790   -1.7493    0.5748 H   0  0  0  0  0  0  0  0  0  0  0  0
    0.9554    1.1645    1.2161 H   0  0  0  0  0  0  0  0  0  0  0  0
   -2.3699    0.3088   -1.2039 H   0  0  0  0  0  0  0  0  0  0  0  0
   -2.3333   -0.2657    0.5222 H   0  0  0  0  0  0  0  0  0  0  0  0
   -1.8334   -1.3615   -0.8509 H   0  0  0  0  0  0  0  0  0  0  0  0
  1  2  1  0
  2  3  1  0
  3  4  1  0
  4  5  1  0
  5  6  2  0
  5  7  1  0
  7  8  1  0
  7  2  1  0
  7  3  1  0
  1  9  1  0
  1 10  1  0
  1 11  1  0
  2 12  1  0
  3 13  1  0
  8 14  1  0
  8 15  1  0
  8 16  1  0
M  END
