
     RDKit          3D

 21 22  0  0  0  0  0  0  0  0999 V2000
   -1.9060   -1.0891   -0.4221 C   0  0  0  0  0  0  0  0  0  0  0  0
   -1.1096   -0.3722    0.6053 C   0  0  0  0  0  0  0  0  0  0  0  0
    0.0486   -1.1517    1.1379 C   0  0  0  0  0  0  0  0  0  0  0  0
    1.1848   -0.7949    0.5974 C   0  0  0  0  0  0  0  0  0  0  0  0
    2.5537   -0.5263    0.0999 C   0  0  0  0  0  0  0  0  0  0  0  0
    2.1076    0.8287   -0.0204 O   0  0  0  0  0  0  0  0  0  0  0  0
    0.9287    0.2778   -0.4600 C   0  0  0  0  0  0  0  0  0  0  0  0
   -0.3789    0.8195   -0.0063 C   0  0  0  0  0  0  0  0  0  0  0  0
   -0.3182    1.8891    1.0211 C   0  0  0  0  0  0  0  0  0  0  0  0
   -2.9226   -0.6608   -0.4705 H   0  0  0  0  0  0  0  0  0  0  0  0
   -1.9334   -2.1768   -0.1742 H   0  0  0  0  0  0  0  0  0  0  0  0
   -1.4188   -1.0202   -1.4203 H   0  0  0  0  0  0  0  0  0  0  0  0
   -1.7501   -0.0526    1.4248 H   0  0  0  0  0  0  0  0  0  0  0  0
   -0.0866   -1.9243    1.8942 H   0  0  0  0  0  0  0  0  0  0  0  0
    3.3732   -0.6364    0.8146 H   0  0  0  0  0  0  0  0  0  0  0  0
    2.7365   -0.9658   -0.8957 H   0  0  0  0  0  0  0  0  0  0  0  0
    0.9373   -0.1421   -1.4713 H   0  0  0  0  0  0  0  0  0  0  0  0
   -0.9731    1.1642   -0.8684 H   0  0  0  0  0  0  0  0  0  0  0  0
   -0.0664    2.8958    0.5946 H   0  0  0  0  0  0  0  0  0  0  0  0
    0.3348    1.6259    1.8765 H   0  0  0  0  0  0  0  0  0  0  0  0
   -1.3414    2.0123    1.4510 H   0  0  0  0  0  0  0  0  0  0  0  0
  1  2  1  0
  2  3  1  0
  3  4  2  0
  4  5  1  0
  5  6  1  0
  6  7  1  0
  7  8  1  0
  8  9  1  0
  8  2  1  0
  7  4  1  0
  1 10  1  0
  1 11  1  0
  1 12  1  0
  2 13  1  0
  3 14  1  0
  5 15  1  0
  5 16  1  0
  7 17  1  0
  8 18  1  0
  9 19  1  0
  9 20  1  0
  9 21  1  0
M  END
