
     RDKit          3D

 19 20  0  0  0  0  0  0  0  0999 V2000
   -1.8740    0.7544    0.0406 C   0  0  0  0  0  0  0  0  0  0  0  0
   -1.1722   -0.5490   -0.2773 C   0  0  0  0  0  0  0  0  0  0  0  0
    0.0703   -0.5379   -1.0728 C   0  0  0  0  0  0  0  0  0  0  0  0
    0.7789    0.7473   -1.1905 C   0  0  0  0  0  0  0  0  0  0  0  0
    0.5924    1.5587   -2.0813 O   0  0  0  0  0  0  0  0  0  0  0  0
    1.7170    0.8143   -0.0359 C   0  0  0  0  0  0  0  0  0  0  0  0
    0.9914    0.0429    1.0359 C   0  0  0  0  0  0  0  0  0  0  0  0
    0.0854   -0.9365    0.3668 C   0  0  0  0  0  0  0  0  0  0  0  0
    0.2600   -2.2993    0.6885 O   0  0  0  0  0  0  0  0  0  0  0  0
   -1.3744    1.3194    0.8382 H   0  0  0  0  0  0  0  0  0  0  0  0
   -1.9365    1.4195   -0.8654 H   0  0  0  0  0  0  0  0  0  0  0  0
   -2.9221    0.5797    0.3552 H   0  0  0  0  0  0  0  0  0  0  0  0
   -1.8811   -1.3717   -0.5120 H   0  0  0  0  0  0  0  0  0  0  0  0
    0.3371   -1.3522   -1.7726 H   0  0  0  0  0  0  0  0  0  0  0  0
    1.9614    1.8443    0.2444 H   0  0  0  0  0  0  0  0  0  0  0  0
    2.6523    0.3167   -0.3616 H   0  0  0  0  0  0  0  0  0  0  0  0
    0.4542    0.7385    1.7147 H   0  0  0  0  0  0  0  0  0  0  0  0
    1.7703   -0.5183    1.6062 H   0  0  0  0  0  0  0  0  0  0  0  0
   -0.5104   -2.5710    1.2788 H   0  0  0  0  0  0  0  0  0  0  0  0
  1  2  1  0
  2  3  1  0
  3  4  1  0
  4  5  2  0
  4  6  1  0
  6  7  1  0
  7  8  1  0
  8  9  1  0
  8  2  1  0
  8  3  1  0
  1 10  1  0
  1 11  1  0
  1 12  1  0
  2 13  1  0
  3 14  1  0
  6 15  1  0
  6 16  1  0
  7 17  1  0
  7 18  1  0
  9 19  1  0
M  END
