
     RDKit          3D

 21 23  0  0  0  0  0  0  0  0999 V2000
   -0.4296    1.7878    0.3903 C   0  0  0  0  0  0  0  0  0  0  0  0
   -0.0292    0.4749    0.9727 C   0  0  0  0  0  0  0  0  0  0  0  0
    0.6974   -0.4272    0.0332 C   0  0  0  0  0  0  0  0  0  0  0  0
    2.0778   -0.2546   -0.3259 C   0  0  0  0  0  0  0  0  0  0  0  0
    0.8980   -0.3541   -1.3484 C   0  0  0  0  0  0  0  0  0  0  0  0
    0.1645   -1.5028    0.8995 C   0  0  0  0  0  0  0  0  0  0  0  0
   -1.0674   -1.8534    1.1926 O   0  0  0  0  0  0  0  0  0  0  0  0
   -1.0961   -0.5808    0.8709 C   0  0  0  0  0  0  0  0  0  0  0  0
   -1.7660   -0.4485   -0.5115 C   0  0  0  0  0  0  0  0  0  0  0  0
   -0.2226    1.8727   -0.7040 H   0  0  0  0  0  0  0  0  0  0  0  0
    0.1807    2.6189    0.8525 H   0  0  0  0  0  0  0  0  0  0  0  0
   -1.4788    2.0305    0.6466 H   0  0  0  0  0  0  0  0  0  0  0  0
    0.3874    0.5447    1.9988 H   0  0  0  0  0  0  0  0  0  0  0  0
    2.5199    0.7678   -0.2297 H   0  0  0  0  0  0  0  0  0  0  0  0
    2.7661   -1.0941   -0.2724 H   0  0  0  0  0  0  0  0  0  0  0  0
    0.7221    0.5275   -1.9810 H   0  0  0  0  0  0  0  0  0  0  0  0
    0.9531   -1.2975   -1.9581 H   0  0  0  0  0  0  0  0  0  0  0  0
    0.7659   -1.4631    1.8686 H   0  0  0  0  0  0  0  0  0  0  0  0
   -1.7907    0.5778   -0.8729 H   0  0  0  0  0  0  0  0  0  0  0  0
   -1.4068   -1.2045   -1.2130 H   0  0  0  0  0  0  0  0  0  0  0  0
   -2.8457   -0.7219   -0.3089 H   0  0  0  0  0  0  0  0  0  0  0  0
  1  2  1  0
  2  3  1  0
  3  4  1  0
  4  5  1  0
  3  6  1  0
  6  7  1  0
  7  8  1  0
  8  9  1  0
  8  2  1  0
  5  3  1  0
  8  6  1  0
  1 10  1  0
  1 11  1  0
  1 12  1  0
  2 13  1  0
  4 14  1  0
  4 15  1  0
  5 16  1  0
  5 17  1  0
  6 18  1  0
  9 19  1  0
  9 20  1  0
  9 21  1  0
M  END
