
     RDKit          3D

 23 24  0  0  0  0  0  0  0  0999 V2000
    2.4564   -0.2711   -0.0007 C   0  0  0  0  0  0  0  0  0  0  0  0
    1.0332    0.1814    0.2745 C   0  0  0  0  0  0  0  0  0  0  0  0
    0.6452    1.1373   -0.8036 C   0  0  0  0  0  0  0  0  0  0  0  0
   -0.7522    1.6440   -0.5384 C   0  0  0  0  0  0  0  0  0  0  0  0
   -1.7310    1.0451    0.1177 C   0  0  0  0  0  0  0  0  0  0  0  0
   -1.8443   -0.3571    0.5602 C   0  0  0  0  0  0  0  0  0  0  0  0
   -0.9837   -1.2025   -0.3923 C   0  0  0  0  0  0  0  0  0  0  0  0
    0.1623   -0.9734    0.5143 C   0  0  0  0  0  0  0  0  0  0  0  0
   -0.8483   -0.7125    1.6377 C   0  0  0  0  0  0  0  0  0  0  0  0
    2.6955   -1.0979    0.6923 H   0  0  0  0  0  0  0  0  0  0  0  0
    3.1056    0.6028    0.1746 H   0  0  0  0  0  0  0  0  0  0  0  0
    2.5416   -0.5930   -1.0707 H   0  0  0  0  0  0  0  0  0  0  0  0
    1.0926    0.7830    1.2306 H   0  0  0  0  0  0  0  0  0  0  0  0
    1.3053    2.0269   -0.7206 H   0  0  0  0  0  0  0  0  0  0  0  0
    0.7541    0.7510   -1.8245 H   0  0  0  0  0  0  0  0  0  0  0  0
   -0.9939    2.6163   -0.9295 H   0  0  0  0  0  0  0  0  0  0  0  0
   -2.5660    1.6704    0.3657 H   0  0  0  0  0  0  0  0  0  0  0  0
   -2.8542   -0.7360    0.7215 H   0  0  0  0  0  0  0  0  0  0  0  0
   -0.9324   -0.8220   -1.4152 H   0  0  0  0  0  0  0  0  0  0  0  0
   -1.3376   -2.2582   -0.3286 H   0  0  0  0  0  0  0  0  0  0  0  0
    0.7524   -1.9079    0.7445 H   0  0  0  0  0  0  0  0  0  0  0  0
   -0.5297    0.1035    2.2927 H   0  0  0  0  0  0  0  0  0  0  0  0
   -1.1709   -1.6302    2.1530 H   0  0  0  0  0  0  0  0  0  0  0  0
  1  2  1  0
  2  3  1  0
  3  4  1  0
  4  5  2  0
  5  6  1  0
  6  7  1  0
  7  8  1  0
  8  9  1  0
  8  2  1  0
  9  6  1  0
  1 10  1  0
  1 11  1  0
  1 12  1  0
  2 13  1  0
  3 14  1  0
  3 15  1  0
  4 16  1  0
  5 17  1  0
  6 18  1  0
  7 19  1  0
  7 20  1  0
  8 21  1  0
  9 22  1  0
  9 23  1  0
M  END
