
     RDKit          3D

 14 14  0  0  0  0  0  0  0  0999 V2000
   -0.6002    1.3442    0.1879 C   0  0  0  0  0  0  0  0  0  0  0  0
   -0.7810    0.0975   -0.6228 C   0  0  0  0  0  0  0  0  0  0  0  0
   -0.6217   -1.1908    0.1223 C   0  0  0  0  0  0  0  0  0  0  0  0
    0.4454   -0.8111   -0.8239 C   0  0  0  0  0  0  0  0  0  0  0  0
    1.6993   -0.1908   -0.3838 C   0  0  0  0  0  0  0  0  0  0  0  0
    1.8167    0.4918    0.6229 O   0  0  0  0  0  0  0  0  0  0  0  0
   -0.3608    1.0868    1.2293 H   0  0  0  0  0  0  0  0  0  0  0  0
    0.1376    2.0435   -0.2514 H   0  0  0  0  0  0  0  0  0  0  0  0
   -1.5970    1.8559    0.2230 H   0  0  0  0  0  0  0  0  0  0  0  0
   -1.4291    0.1395   -1.5231 H   0  0  0  0  0  0  0  0  0  0  0  0
   -1.3230   -1.9849   -0.1913 H   0  0  0  0  0  0  0  0  0  0  0  0
   -0.4811   -1.1516    1.2191 H   0  0  0  0  0  0  0  0  0  0  0  0
    0.5010   -1.3971   -1.7528 H   0  0  0  0  0  0  0  0  0  0  0  0
    2.5939   -0.3328   -0.9736 H   0  0  0  0  0  0  0  0  0  0  0  0
  1  2  1  0
  2  3  1  0
  3  4  1  0
  4  5  1  0
  5  6  2  0
  4  2  1  0
  1  7  1  0
  1  8  1  0
  1  9  1  0
  2 10  1  0
  3 11  1  0
  3 12  1  0
  4 13  1  0
  5 14  1  0
M  END
