
     RDKit          3D

 21 22  0  0  0  0  0  0  0  0999 V2000
    2.1341   -0.8403   -0.1589 C   0  0  0  0  0  0  0  0  0  0  0  0
    0.7344   -0.6622    0.3543 C   0  0  0  0  0  0  0  0  0  0  0  0
   -0.2781   -0.9743   -0.7593 C   0  0  0  0  0  0  0  0  0  0  0  0
   -1.0901    0.1979   -0.1871 C   0  0  0  0  0  0  0  0  0  0  0  0
   -2.0799   -0.3309    0.8114 C   0  0  0  0  0  0  0  0  0  0  0  0
   -1.7086    0.9776   -1.1482 O   0  0  0  0  0  0  0  0  0  0  0  0
    0.1765    0.6977    0.3767 C   0  0  0  0  0  0  0  0  0  0  0  0
    0.6445    1.9222    0.7009 C   0  0  0  0  0  0  0  0  0  0  0  0
    0.8708    1.5327   -0.6429 O   0  0  0  0  0  0  0  0  0  0  0  0
    2.4896   -1.8636    0.1593 H   0  0  0  0  0  0  0  0  0  0  0  0
    2.2012   -0.8485   -1.2683 H   0  0  0  0  0  0  0  0  0  0  0  0
    2.8301   -0.0718    0.2810 H   0  0  0  0  0  0  0  0  0  0  0  0
    0.5560   -1.2825    1.2609 H   0  0  0  0  0  0  0  0  0  0  0  0
    0.1360   -0.7546   -1.7616 H   0  0  0  0  0  0  0  0  0  0  0  0
   -0.7776   -1.9379   -0.6361 H   0  0  0  0  0  0  0  0  0  0  0  0
   -2.6368    0.4472    1.3436 H   0  0  0  0  0  0  0  0  0  0  0  0
   -1.5574   -1.0175    1.5299 H   0  0  0  0  0  0  0  0  0  0  0  0
   -2.8068   -0.9643    0.2551 H   0  0  0  0  0  0  0  0  0  0  0  0
   -1.3838    0.8522   -2.0549 H   0  0  0  0  0  0  0  0  0  0  0  0
   -0.0374    2.8157    0.7494 H   0  0  0  0  0  0  0  0  0  0  0  0
    1.5835    2.1051    1.2436 H   0  0  0  0  0  0  0  0  0  0  0  0
  1  2  1  0
  2  3  1  0
  3  4  1  0
  4  5  1  0
  4  6  1  0
  4  7  1  0
  7  8  1  0
  8  9  1  0
  7  2  1  0
  9  7  1  0
  1 10  1  0
  1 11  1  0
  1 12  1  0
  2 13  1  0
  3 14  1  0
  3 15  1  0
  5 16  1  0
  5 17  1  0
  5 18  1  0
  6 19  1  0
  8 20  1  0
  8 21  1  0
M  END
