
     RDKit          3D

 23 24  0  0  0  0  0  0  0  0999 V2000
    2.3883    0.0346    0.2188 C   0  0  0  0  0  0  0  0  0  0  0  0
    1.0727   -0.0658   -0.5262 C   0  0  0  0  0  0  0  0  0  0  0  0
    0.3226    1.2255   -0.5157 C   0  0  0  0  0  0  0  0  0  0  0  0
   -1.0903    1.1233   -0.0537 C   0  0  0  0  0  0  0  0  0  0  0  0
   -1.1498    1.6976    1.2381 O   0  0  0  0  0  0  0  0  0  0  0  0
   -1.5773   -0.2834    0.0808 C   0  0  0  0  0  0  0  0  0  0  0  0
   -0.6347   -0.9688    1.0812 C   0  0  0  0  0  0  0  0  0  0  0  0
    0.2561   -1.2478   -0.0941 C   0  0  0  0  0  0  0  0  0  0  0  0
   -1.0108   -1.2183   -0.9630 C   0  0  0  0  0  0  0  0  0  0  0  0
    2.7151    1.1069    0.3104 H   0  0  0  0  0  0  0  0  0  0  0  0
    3.2246   -0.4574   -0.3494 H   0  0  0  0  0  0  0  0  0  0  0  0
    2.2932   -0.4005    1.2194 H   0  0  0  0  0  0  0  0  0  0  0  0
    1.3591   -0.2679   -1.6013 H   0  0  0  0  0  0  0  0  0  0  0  0
    0.2992    1.7205   -1.5320 H   0  0  0  0  0  0  0  0  0  0  0  0
    0.9139    1.9553    0.1129 H   0  0  0  0  0  0  0  0  0  0  0  0
   -1.8006    1.7529   -0.6636 H   0  0  0  0  0  0  0  0  0  0  0  0
   -2.0390    2.0680    1.4134 H   0  0  0  0  0  0  0  0  0  0  0  0
   -2.6326   -0.3792    0.2940 H   0  0  0  0  0  0  0  0  0  0  0  0
   -1.0905   -1.9155    1.4385 H   0  0  0  0  0  0  0  0  0  0  0  0
   -0.2557   -0.2922    1.8489 H   0  0  0  0  0  0  0  0  0  0  0  0
    0.8102   -2.1744   -0.1096 H   0  0  0  0  0  0  0  0  0  0  0  0
   -1.5133   -2.2038   -0.8871 H   0  0  0  0  0  0  0  0  0  0  0  0
   -0.8607   -0.8096   -1.9608 H   0  0  0  0  0  0  0  0  0  0  0  0
  1  2  1  0
  2  3  1  0
  3  4  1  0
  4  5  1  0
  4  6  1  0
  6  7  1  0
  7  8  1  0
  8  9  1  0
  8  2  1  0
  9  6  1  0
  1 10  1  0
  1 11  1  0
  1 12  1  0
  2 13  1  0
  3 14  1  0
  3 15  1  0
  4 16  1  0
  5 17  1  0
  6 18  1  0
  7 19  1  0
  7 20  1  0
  8 21  1  0
  9 22  1  0
  9 23  1  0
M  END
