
     RDKit          3D

 19 21  0  0  0  0  0  0  0  0999 V2000
    2.3578   -0.1521   -0.2297 C   0  0  0  0  0  0  0  0  0  0  0  0
    0.9760   -0.1047    0.4157 C   0  0  0  0  0  0  0  0  0  0  0  0
    0.4725    1.2695    0.4087 C   0  0  0  0  0  0  0  0  0  0  0  0
   -0.7748    1.5880    0.2013 C   0  0  0  0  0  0  0  0  0  0  0  0
   -1.8052    0.5795   -0.0490 C   0  0  0  0  0  0  0  0  0  0  0  0
   -1.8845   -0.7337    0.5744 C   0  0  0  0  0  0  0  0  0  0  0  0
   -0.8209   -1.5605    0.8568 O   0  0  0  0  0  0  0  0  0  0  0  0
    0.0324   -1.0772   -0.1689 C   0  0  0  0  0  0  0  0  0  0  0  0
   -1.1932   -0.5333   -0.8151 C   0  0  0  0  0  0  0  0  0  0  0  0
    3.1613    0.0875    0.4981 H   0  0  0  0  0  0  0  0  0  0  0  0
    2.5871   -1.1129   -0.6817 H   0  0  0  0  0  0  0  0  0  0  0  0
    2.3911    0.6796   -0.9929 H   0  0  0  0  0  0  0  0  0  0  0  0
    1.1953   -0.3609    1.5065 H   0  0  0  0  0  0  0  0  0  0  0  0
    1.2240    2.0578    0.5939 H   0  0  0  0  0  0  0  0  0  0  0  0
   -1.0984    2.6521    0.2094 H   0  0  0  0  0  0  0  0  0  0  0  0
   -2.7595    0.9472   -0.5145 H   0  0  0  0  0  0  0  0  0  0  0  0
   -2.8586   -1.2580    0.5731 H   0  0  0  0  0  0  0  0  0  0  0  0
    0.4862   -1.9085   -0.7614 H   0  0  0  0  0  0  0  0  0  0  0  0
   -1.6887   -1.0595   -1.6245 H   0  0  0  0  0  0  0  0  0  0  0  0
  1  2  1  0
  2  3  1  0
  3  4  2  0
  4  5  1  0
  5  6  1  0
  6  7  1  0
  7  8  1  0
  8  9  1  0
  8  2  1  0
  9  5  1  0
  9  6  1  0
  1 10  1  0
  1 11  1  0
  1 12  1  0
  2 13  1  0
  3 14  1  0
  4 15  1  0
  5 16  1  0
  6 17  1  0
  8 18  1  0
  9 19  1  0
M  END
