
     RDKit          3D

 22 22  0  0  0  0  0  0  0  0999 V2000
    2.5100    0.1335   -0.0379 C   0  0  0  0  0  0  0  0  0  0  0  0
    1.0216    0.1182   -0.3836 C   0  0  0  0  0  0  0  0  0  0  0  0
    0.4969   -1.2289    0.0409 C   0  0  0  0  0  0  0  0  0  0  0  0
   -0.9703   -1.2634   -0.2697 C   0  0  0  0  0  0  0  0  0  0  0  0
   -1.7574   -0.1742    0.3719 C   0  0  0  0  0  0  0  0  0  0  0  0
   -2.9928   -0.1329   -0.3213 O   0  0  0  0  0  0  0  0  0  0  0  0
   -1.1313    1.1526    0.4411 C   0  0  0  0  0  0  0  0  0  0  0  0
    0.3157    1.2650    0.2419 C   0  0  0  0  0  0  0  0  0  0  0  0
    2.9009   -0.9115    0.0527 H   0  0  0  0  0  0  0  0  0  0  0  0
    3.1003    0.6158   -0.8471 H   0  0  0  0  0  0  0  0  0  0  0  0
    2.6928    0.6104    0.9387 H   0  0  0  0  0  0  0  0  0  0  0  0
    0.9742    0.1694   -1.4917 H   0  0  0  0  0  0  0  0  0  0  0  0
    0.7317   -1.4717    1.0880 H   0  0  0  0  0  0  0  0  0  0  0  0
    0.9940   -1.9882   -0.5989 H   0  0  0  0  0  0  0  0  0  0  0  0
   -1.3579   -2.2567    0.0484 H   0  0  0  0  0  0  0  0  0  0  0  0
   -1.0796   -1.2092   -1.3767 H   0  0  0  0  0  0  0  0  0  0  0  0
   -2.0464   -0.5475    1.4000 H   0  0  0  0  0  0  0  0  0  0  0  0
   -2.7360    0.0089   -1.2768 H   0  0  0  0  0  0  0  0  0  0  0  0
   -1.6810    1.8374   -0.2745 H   0  0  0  0  0  0  0  0  0  0  0  0
   -1.3897    1.6117    1.4435 H   0  0  0  0  0  0  0  0  0  0  0  0
    0.5455    2.1702   -0.3971 H   0  0  0  0  0  0  0  0  0  0  0  0
    0.8588    1.4911    1.2082 H   0  0  0  0  0  0  0  0  0  0  0  0
  1  2  1  0
  2  3  1  0
  3  4  1  0
  4  5  1  0
  5  6  1  0
  5  7  1  0
  7  8  1  0
  8  2  1  0
  1  9  1  0
  1 10  1  0
  1 11  1  0
  2 12  1  0
  3 13  1  0
  3 14  1  0
  4 15  1  0
  4 16  1  0
  5 17  1  0
  6 18  1  0
  7 19  1  0
  7 20  1  0
  8 21  1  0
  8 22  1  0
M  END
