
     RDKit          3D

 21 22  0  0  0  0  0  0  0  0999 V2000
   -0.4372    1.8006    0.7033 C   0  0  0  0  0  0  0  0  0  0  0  0
    0.0942    0.4094    0.7708 C   0  0  0  0  0  0  0  0  0  0  0  0
   -0.6298   -0.6413   -0.0076 C   0  0  0  0  0  0  0  0  0  0  0  0
   -1.8971   -1.1256    0.1807 C   0  0  0  0  0  0  0  0  0  0  0  0
    0.6623   -1.4222    0.0480 C   0  0  0  0  0  0  0  0  0  0  0  0
    1.0804    0.0063   -0.2879 C   0  0  0  0  0  0  0  0  0  0  0  0
    2.3395    0.4419   -0.4515 C   0  0  0  0  0  0  0  0  0  0  0  0
    2.7507    1.5632   -0.1090 O   0  0  0  0  0  0  0  0  0  0  0  0
   -0.0673    0.0056   -1.2460 C   0  0  0  0  0  0  0  0  0  0  0  0
   -0.6072    2.1441    1.7582 H   0  0  0  0  0  0  0  0  0  0  0  0
   -1.3904    1.8509    0.1407 H   0  0  0  0  0  0  0  0  0  0  0  0
    0.2852    2.5363    0.2751 H   0  0  0  0  0  0  0  0  0  0  0  0
    0.3778    0.0582    1.7790 H   0  0  0  0  0  0  0  0  0  0  0  0
   -2.5973   -0.4274    0.6781 H   0  0  0  0  0  0  0  0  0  0  0  0
   -1.9367   -2.0734    0.7831 H   0  0  0  0  0  0  0  0  0  0  0  0
   -2.4072   -1.4043   -0.7883 H   0  0  0  0  0  0  0  0  0  0  0  0
    0.9200   -1.7625    1.0546 H   0  0  0  0  0  0  0  0  0  0  0  0
    0.7596   -2.1269   -0.7804 H   0  0  0  0  0  0  0  0  0  0  0  0
    3.1348   -0.1723   -0.9145 H   0  0  0  0  0  0  0  0  0  0  0  0
   -0.4479    1.0102   -1.4745 H   0  0  0  0  0  0  0  0  0  0  0  0
    0.0136   -0.6710   -2.1118 H   0  0  0  0  0  0  0  0  0  0  0  0
  1  2  1  0
  2  3  1  0
  3  4  1  0
  3  5  1  0
  5  6  1  0
  6  7  1  0
  7  8  2  0
  6  9  1  0
  6  2  1  0
  9  3  1  0
  1 10  1  0
  1 11  1  0
  1 12  1  0
  2 13  1  0
  4 14  1  0
  4 15  1  0
  4 16  1  0
  5 17  1  0
  5 18  1  0
  7 19  1  0
  9 20  1  0
  9 21  1  0
M  END
