
     RDKit          3D

 27 27  0  0  0  0  0  0  0  0999 V2000
    2.7943    0.6452   -0.4046 C   0  0  0  0  0  0  0  0  0  0  0  0
    1.7577   -0.1458    0.3982 C   0  0  0  0  0  0  0  0  0  0  0  0
    1.0715   -1.1835   -0.4155 C   0  0  0  0  0  0  0  0  0  0  0  0
   -0.2147   -0.7384   -1.0393 C   0  0  0  0  0  0  0  0  0  0  0  0
   -1.1819   -0.1258   -0.0751 C   0  0  0  0  0  0  0  0  0  0  0  0
   -2.2855   -1.1111    0.3043 C   0  0  0  0  0  0  0  0  0  0  0  0
   -1.8732    1.0529   -0.7536 C   0  0  0  0  0  0  0  0  0  0  0  0
   -0.5694    0.3706    1.1864 C   0  0  0  0  0  0  0  0  0  0  0  0
    0.8473    0.8512    1.0391 C   0  0  0  0  0  0  0  0  0  0  0  0
    2.3030    1.4455   -0.9857 H   0  0  0  0  0  0  0  0  0  0  0  0
    3.4147    1.1705    0.3674 H   0  0  0  0  0  0  0  0  0  0  0  0
    3.4154   -0.0061   -1.0334 H   0  0  0  0  0  0  0  0  0  0  0  0
    2.3567   -0.6803    1.1877 H   0  0  0  0  0  0  0  0  0  0  0  0
    1.7157   -1.5856   -1.2149 H   0  0  0  0  0  0  0  0  0  0  0  0
    0.8322   -2.0510    0.2489 H   0  0  0  0  0  0  0  0  0  0  0  0
   -0.0649   -0.0789   -1.9284 H   0  0  0  0  0  0  0  0  0  0  0  0
   -0.7095   -1.6605   -1.4547 H   0  0  0  0  0  0  0  0  0  0  0  0
   -3.2015   -0.9205   -0.3079 H   0  0  0  0  0  0  0  0  0  0  0  0
   -1.9882   -2.1565    0.1296 H   0  0  0  0  0  0  0  0  0  0  0  0
   -2.5974   -0.9374    1.3610 H   0  0  0  0  0  0  0  0  0  0  0  0
   -2.9192    0.8223   -1.0063 H   0  0  0  0  0  0  0  0  0  0  0  0
   -1.8838    1.9535   -0.0988 H   0  0  0  0  0  0  0  0  0  0  0  0
   -1.3571    1.2905   -1.7013 H   0  0  0  0  0  0  0  0  0  0  0  0
   -0.5909   -0.3709    2.0220 H   0  0  0  0  0  0  0  0  0  0  0  0
   -1.1655    1.2427    1.5612 H   0  0  0  0  0  0  0  0  0  0  0  0
    0.8704    1.8522    0.5347 H   0  0  0  0  0  0  0  0  0  0  0  0
    1.2238    1.0554    2.0790 H   0  0  0  0  0  0  0  0  0  0  0  0
  1  2  1  0
  2  3  1  0
  3  4  1  0
  4  5  1  0
  5  6  1  0
  5  7  1  0
  5  8  1  0
  8  9  1  0
  9  2  1  0
  1 10  1  0
  1 11  1  0
  1 12  1  0
  2 13  1  0
  3 14  1  0
  3 15  1  0
  4 16  1  0
  4 17  1  0
  6 18  1  0
  6 19  1  0
  6 20  1  0
  7 21  1  0
  7 22  1  0
  7 23  1  0
  8 24  1  0
  8 25  1  0
  9 26  1  0
  9 27  1  0
M  END
