
     RDKit          3D

 21 22  0  0  0  0  0  0  0  0999 V2000
    1.9572    0.3866   -0.4624 C   0  0  0  0  0  0  0  0  0  0  0  0
    1.1638    0.0692    0.7474 C   0  0  0  0  0  0  0  0  0  0  0  0
    0.3111   -1.1330    0.7585 C   0  0  0  0  0  0  0  0  0  0  0  0
   -0.3704   -1.4712   -0.5127 C   0  0  0  0  0  0  0  0  0  0  0  0
   -1.5112   -0.4768   -0.7375 C   0  0  0  0  0  0  0  0  0  0  0  0
   -0.9218    0.8926   -0.3871 C   0  0  0  0  0  0  0  0  0  0  0  0
   -1.9474    1.8010   -0.1613 O   0  0  0  0  0  0  0  0  0  0  0  0
   -0.1651    0.7317    0.9053 C   0  0  0  0  0  0  0  0  0  0  0  0
   -0.6044   -0.4309    1.5777 O   0  0  0  0  0  0  0  0  0  0  0  0
    2.9594   -0.0791   -0.3587 H   0  0  0  0  0  0  0  0  0  0  0  0
    2.1584    1.4986   -0.4508 H   0  0  0  0  0  0  0  0  0  0  0  0
    1.4773    0.1821   -1.4210 H   0  0  0  0  0  0  0  0  0  0  0  0
    1.7647    0.1617    1.6632 H   0  0  0  0  0  0  0  0  0  0  0  0
    0.6957   -2.0098    1.3233 H   0  0  0  0  0  0  0  0  0  0  0  0
   -0.7881   -2.5007   -0.4210 H   0  0  0  0  0  0  0  0  0  0  0  0
    0.2446   -1.4431   -1.4131 H   0  0  0  0  0  0  0  0  0  0  0  0
   -2.2689   -0.7204    0.0402 H   0  0  0  0  0  0  0  0  0  0  0  0
   -1.9039   -0.5153   -1.7544 H   0  0  0  0  0  0  0  0  0  0  0  0
   -0.2700    1.2144   -1.2103 H   0  0  0  0  0  0  0  0  0  0  0  0
   -1.8928    2.2164    0.7419 H   0  0  0  0  0  0  0  0  0  0  0  0
   -0.0879    1.6262    1.5328 H   0  0  0  0  0  0  0  0  0  0  0  0
  1  2  1  0
  2  3  1  0
  3  4  1  0
  4  5  1  0
  5  6  1  0
  6  7  1  0
  6  8  1  0
  8  9  1  0
  8  2  1  0
  9  3  1  0
  1 10  1  0
  1 11  1  0
  1 12  1  0
  2 13  1  0
  3 14  1  0
  4 15  1  0
  4 16  1  0
  5 17  1  0
  5 18  1  0
  6 19  1  0
  7 20  1  0
  8 21  1  0
M  END
