
     RDKit          3D

 23 24  0  0  0  0  0  0  0  0999 V2000
    2.3268    0.9928    0.6035 C   0  0  0  0  0  0  0  0  0  0  0  0
    1.7019    0.0592   -0.3883 C   0  0  0  0  0  0  0  0  0  0  0  0
    0.5651    0.4352   -1.2365 C   0  0  0  0  0  0  0  0  0  0  0  0
   -0.2494    1.4432   -0.6760 O   0  0  0  0  0  0  0  0  0  0  0  0
   -0.8568    0.3926    0.0411 C   0  0  0  0  0  0  0  0  0  0  0  0
   -2.0573   -0.0634   -0.8002 C   0  0  0  0  0  0  0  0  0  0  0  0
   -1.3065    0.7707    1.4195 C   0  0  0  0  0  0  0  0  0  0  0  0
    0.3593   -0.4408   -0.0810 C   0  0  0  0  0  0  0  0  0  0  0  0
    0.1470   -1.9197   -0.1853 C   0  0  0  0  0  0  0  0  0  0  0  0
    3.2654    1.4122    0.1587 H   0  0  0  0  0  0  0  0  0  0  0  0
    1.6412    1.7615    0.9756 H   0  0  0  0  0  0  0  0  0  0  0  0
    2.6898    0.3590    1.4624 H   0  0  0  0  0  0  0  0  0  0  0  0
    2.4266   -0.6548   -0.8431 H   0  0  0  0  0  0  0  0  0  0  0  0
    0.4156    0.1234   -2.2624 H   0  0  0  0  0  0  0  0  0  0  0  0
   -2.4715   -1.0081   -0.4578 H   0  0  0  0  0  0  0  0  0  0  0  0
   -1.7253   -0.0933   -1.8505 H   0  0  0  0  0  0  0  0  0  0  0  0
   -2.8409    0.7233   -0.6492 H   0  0  0  0  0  0  0  0  0  0  0  0
   -1.2939   -0.0724    2.1262 H   0  0  0  0  0  0  0  0  0  0  0  0
   -0.7005    1.6334    1.7667 H   0  0  0  0  0  0  0  0  0  0  0  0
   -2.3713    1.1085    1.3611 H   0  0  0  0  0  0  0  0  0  0  0  0
    0.9445   -2.4213   -0.7806 H   0  0  0  0  0  0  0  0  0  0  0  0
    0.2184   -2.3290    0.8654 H   0  0  0  0  0  0  0  0  0  0  0  0
   -0.8283   -2.2119   -0.5693 H   0  0  0  0  0  0  0  0  0  0  0  0
  1  2  1  0
  2  3  1  0
  3  4  1  0
  4  5  1  0
  5  6  1  0
  5  7  1  0
  5  8  1  0
  8  9  1  0
  8  2  1  0
  8  3  1  0
  1 10  1  0
  1 11  1  0
  1 12  1  0
  2 13  1  0
  3 14  1  0
  6 15  1  0
  6 16  1  0
  6 17  1  0
  7 18  1  0
  7 19  1  0
  7 20  1  0
  9 21  1  0
  9 22  1  0
  9 23  1  0
M  END
