
     RDKit          3D

 21 22  0  0  0  0  0  0  0  0999 V2000
   -2.2876   -0.1399    0.5300 C   0  0  0  0  0  0  0  0  0  0  0  0
   -1.2059    0.3038   -0.4051 C   0  0  0  0  0  0  0  0  0  0  0  0
   -0.4000   -0.8194   -1.0309 C   0  0  0  0  0  0  0  0  0  0  0  0
    0.7995    0.1275   -0.9420 C   0  0  0  0  0  0  0  0  0  0  0  0
    2.0144   -0.4592   -0.3196 C   0  0  0  0  0  0  0  0  0  0  0  0
    1.6425   -0.6017    1.1141 C   0  0  0  0  0  0  0  0  0  0  0  0
    0.5565    0.1031    1.3955 C   0  0  0  0  0  0  0  0  0  0  0  0
    0.0622    0.7997    0.2135 C   0  0  0  0  0  0  0  0  0  0  0  0
    0.1189    2.1766    0.2117 O   0  0  0  0  0  0  0  0  0  0  0  0
   -2.6738    0.7711    1.0451 H   0  0  0  0  0  0  0  0  0  0  0  0
   -1.9927   -0.9232    1.2322 H   0  0  0  0  0  0  0  0  0  0  0  0
   -3.1310   -0.5124   -0.0902 H   0  0  0  0  0  0  0  0  0  0  0  0
   -1.5763    0.9811   -1.1706 H   0  0  0  0  0  0  0  0  0  0  0  0
   -0.6843   -1.0246   -2.0858 H   0  0  0  0  0  0  0  0  0  0  0  0
   -0.2752   -1.7129   -0.3972 H   0  0  0  0  0  0  0  0  0  0  0  0
    0.9280    0.7871   -1.8041 H   0  0  0  0  0  0  0  0  0  0  0  0
    2.2606   -1.4745   -0.6863 H   0  0  0  0  0  0  0  0  0  0  0  0
    2.8605    0.2187   -0.4779 H   0  0  0  0  0  0  0  0  0  0  0  0
    2.1920   -1.2074    1.8400 H   0  0  0  0  0  0  0  0  0  0  0  0
    0.1107    0.1431    2.3799 H   0  0  0  0  0  0  0  0  0  0  0  0
    0.6812    2.4634   -0.5522 H   0  0  0  0  0  0  0  0  0  0  0  0
  1  2  1  0
  2  3  1  0
  3  4  1  0
  4  5  1  0
  5  6  1  0
  6  7  2  0
  7  8  1  0
  8  9  1  0
  8  2  1  0
  8  4  1  0
  1 10  1  0
  1 11  1  0
  1 12  1  0
  2 13  1  0
  3 14  1  0
  3 15  1  0
  4 16  1  0
  5 17  1  0
  5 18  1  0
  6 19  1  0
  7 20  1  0
  9 21  1  0
M  END
