
     RDKit          3D

 19 20  0  0  0  0  0  0  0  0999 V2000
   -2.2684   -0.9448   -0.0766 C   0  0  0  0  0  0  0  0  0  0  0  0
   -1.0202   -0.3042    0.4264 C   0  0  0  0  0  0  0  0  0  0  0  0
   -1.0273    1.2333    0.1940 C   0  0  0  0  0  0  0  0  0  0  0  0
    0.4401    1.0864    0.2362 C   0  0  0  0  0  0  0  0  0  0  0  0
    1.7408    1.1940    0.3879 C   0  0  0  0  0  0  0  0  0  0  0  0
    2.4542   -0.0221   -0.1375 C   0  0  0  0  0  0  0  0  0  0  0  0
    1.3390   -1.0314   -0.2853 C   0  0  0  0  0  0  0  0  0  0  0  0
    1.5196   -2.2145   -0.2314 O   0  0  0  0  0  0  0  0  0  0  0  0
    0.1475   -0.2370   -0.4849 C   0  0  0  0  0  0  0  0  0  0  0  0
   -2.9665   -0.1932   -0.5497 H   0  0  0  0  0  0  0  0  0  0  0  0
   -2.8403   -1.2936    0.8338 H   0  0  0  0  0  0  0  0  0  0  0  0
   -2.1166   -1.7746   -0.7775 H   0  0  0  0  0  0  0  0  0  0  0  0
   -0.7261   -0.5219    1.4726 H   0  0  0  0  0  0  0  0  0  0  0  0
   -1.5052    1.7850    1.0034 H   0  0  0  0  0  0  0  0  0  0  0  0
   -1.4050    1.4145   -0.8325 H   0  0  0  0  0  0  0  0  0  0  0  0
    2.3005    2.0139    0.8225 H   0  0  0  0  0  0  0  0  0  0  0  0
    2.9359    0.2039   -1.1076 H   0  0  0  0  0  0  0  0  0  0  0  0
    3.1816   -0.3371    0.6364 H   0  0  0  0  0  0  0  0  0  0  0  0
   -0.1836   -0.0566   -1.5302 H   0  0  0  0  0  0  0  0  0  0  0  0
  1  2  1  0
  2  3  1  0
  3  4  1  0
  4  5  2  0
  5  6  1  0
  6  7  1  0
  7  8  2  0
  7  9  1  0
  9  2  1  0
  9  4  1  0
  1 10  1  0
  1 11  1  0
  1 12  1  0
  2 13  1  0
  3 14  1  0
  3 15  1  0
  5 16  1  0
  6 17  1  0
  6 18  1  0
  9 19  1  0
M  END
