
     RDKit          3D

 21 22  0  0  0  0  0  0  0  0999 V2000
    0.2176    2.0015   -0.5171 C   0  0  0  0  0  0  0  0  0  0  0  0
   -0.2596    0.5764   -0.5945 C   0  0  0  0  0  0  0  0  0  0  0  0
    0.6704   -0.3971   -0.0292 C   0  0  0  0  0  0  0  0  0  0  0  0
    2.1189   -0.4941   -0.3790 C   0  0  0  0  0  0  0  0  0  0  0  0
    2.7129   -1.5170    0.3297 O   0  0  0  0  0  0  0  0  0  0  0  0
    0.0555   -1.1858    0.8386 C   0  0  0  0  0  0  0  0  0  0  0  0
   -1.3778   -0.8522    0.9790 C   0  0  0  0  0  0  0  0  0  0  0  0
   -2.3129   -0.8144   -0.1426 C   0  0  0  0  0  0  0  0  0  0  0  0
   -1.5162    0.4162    0.1810 C   0  0  0  0  0  0  0  0  0  0  0  0
   -0.6490    2.6407   -0.2140 H   0  0  0  0  0  0  0  0  0  0  0  0
    0.4902    2.3481   -1.5441 H   0  0  0  0  0  0  0  0  0  0  0  0
    1.0165    2.1748    0.1993 H   0  0  0  0  0  0  0  0  0  0  0  0
   -0.4482    0.3013   -1.6547 H   0  0  0  0  0  0  0  0  0  0  0  0
    2.2025   -0.7469   -1.4647 H   0  0  0  0  0  0  0  0  0  0  0  0
    2.6157    0.4884   -0.2267 H   0  0  0  0  0  0  0  0  0  0  0  0
    3.2003   -1.2374    1.1263 H   0  0  0  0  0  0  0  0  0  0  0  0
    0.5274   -1.9937    1.3974 H   0  0  0  0  0  0  0  0  0  0  0  0
   -1.8124   -0.8779    2.0190 H   0  0  0  0  0  0  0  0  0  0  0  0
   -3.3762   -0.7562    0.0850 H   0  0  0  0  0  0  0  0  0  0  0  0
   -2.1019   -1.3284   -1.1178 H   0  0  0  0  0  0  0  0  0  0  0  0
   -1.9736    1.2539    0.7292 H   0  0  0  0  0  0  0  0  0  0  0  0
  1  2  1  0
  2  3  1  0
  3  4  1  0
  4  5  1  0
  3  6  2  0
  6  7  1  0
  7  8  1  0
  8  9  1  0
  9  2  1  0
  9  7  1  0
  1 10  1  0
  1 11  1  0
  1 12  1  0
  2 13  1  0
  4 14  1  0
  4 15  1  0
  5 16  1  0
  6 17  1  0
  7 18  1  0
  8 19  1  0
  8 20  1  0
  9 21  1  0
M  END
