
     RDKit          3D

 19 20  0  0  0  0  0  0  0  0999 V2000
   -2.1276   -0.9298    0.4411 C   0  0  0  0  0  0  0  0  0  0  0  0
   -1.2040   -0.0297   -0.3429 C   0  0  0  0  0  0  0  0  0  0  0  0
   -1.2203    1.3720    0.1820 C   0  0  0  0  0  0  0  0  0  0  0  0
    0.0060    1.8753    0.0539 C   0  0  0  0  0  0  0  0  0  0  0  0
    0.9239    0.9053   -0.5420 C   0  0  0  0  0  0  0  0  0  0  0  0
    2.1706    0.7991    0.0509 O   0  0  0  0  0  0  0  0  0  0  0  0
    2.5012   -0.5621    0.0142 C   0  0  0  0  0  0  0  0  0  0  0  0
    1.1433   -1.2174    0.1520 C   0  0  0  0  0  0  0  0  0  0  0  0
    0.2095   -0.3771   -0.1617 C   0  0  0  0  0  0  0  0  0  0  0  0
   -2.0172   -1.9478    0.0137 H   0  0  0  0  0  0  0  0  0  0  0  0
   -1.9170   -0.9443    1.5121 H   0  0  0  0  0  0  0  0  0  0  0  0
   -3.1725   -0.5969    0.2417 H   0  0  0  0  0  0  0  0  0  0  0  0
   -1.4946   -0.0549   -1.4025 H   0  0  0  0  0  0  0  0  0  0  0  0
   -2.1161    1.8257    0.5806 H   0  0  0  0  0  0  0  0  0  0  0  0
    0.2635    2.8796    0.3607 H   0  0  0  0  0  0  0  0  0  0  0  0
    0.9543    0.9092   -1.6497 H   0  0  0  0  0  0  0  0  0  0  0  0
    3.0563   -0.8017    0.9373 H   0  0  0  0  0  0  0  0  0  0  0  0
    3.0036   -0.8594   -0.9132 H   0  0  0  0  0  0  0  0  0  0  0  0
    1.0370   -2.2451    0.4718 H   0  0  0  0  0  0  0  0  0  0  0  0
  1  2  1  0
  2  3  1  0
  3  4  2  0
  4  5  1  0
  5  6  1  0
  6  7  1  0
  7  8  1  0
  8  9  2  0
  9  2  1  0
  9  5  1  0
  1 10  1  0
  1 11  1  0
  1 12  1  0
  2 13  1  0
  3 14  1  0
  4 15  1  0
  5 16  1  0
  7 17  1  0
  7 18  1  0
  8 19  1  0
M  END
