
     RDKit          3D

 21 22  0  0  0  0  0  0  0  0999 V2000
   -2.1788   -0.7788    0.7175 C   0  0  0  0  0  0  0  0  0  0  0  0
   -0.8137   -0.2969    0.3158 C   0  0  0  0  0  0  0  0  0  0  0  0
   -0.8949    1.0782   -0.3603 C   0  0  0  0  0  0  0  0  0  0  0  0
    0.3489    1.7928   -0.0165 C   0  0  0  0  0  0  0  0  0  0  0  0
    1.5609    1.2993    0.2402 C   0  0  0  0  0  0  0  0  0  0  0  0
    1.9531   -0.1300    0.2396 C   0  0  0  0  0  0  0  0  0  0  0  0
    1.2518   -0.9455   -0.8018 C   0  0  0  0  0  0  0  0  0  0  0  0
    0.7247   -2.1954   -0.2491 O   0  0  0  0  0  0  0  0  0  0  0  0
   -0.1298   -1.2083   -0.6689 C   0  0  0  0  0  0  0  0  0  0  0  0
   -2.4923   -0.1454    1.5932 H   0  0  0  0  0  0  0  0  0  0  0  0
   -2.8884   -0.6220   -0.1231 H   0  0  0  0  0  0  0  0  0  0  0  0
   -2.1348   -1.8383    0.9747 H   0  0  0  0  0  0  0  0  0  0  0  0
   -0.1991   -0.2106    1.2463 H   0  0  0  0  0  0  0  0  0  0  0  0
   -0.9330    0.9472   -1.4567 H   0  0  0  0  0  0  0  0  0  0  0  0
   -1.8076    1.5797   -0.0195 H   0  0  0  0  0  0  0  0  0  0  0  0
    0.3271    2.8771    0.0498 H   0  0  0  0  0  0  0  0  0  0  0  0
    2.3548    1.9979    0.4764 H   0  0  0  0  0  0  0  0  0  0  0  0
    3.0453   -0.1580   -0.0197 H   0  0  0  0  0  0  0  0  0  0  0  0
    1.8950   -0.5773    1.2594 H   0  0  0  0  0  0  0  0  0  0  0  0
    1.7560   -1.1043   -1.7967 H   0  0  0  0  0  0  0  0  0  0  0  0
   -0.7453   -1.3612   -1.6008 H   0  0  0  0  0  0  0  0  0  0  0  0
  1  2  1  0
  2  3  1  0
  3  4  1  0
  4  5  2  0
  5  6  1  0
  6  7  1  0
  7  8  1  0
  8  9  1  0
  9  2  1  0
  9  7  1  0
  1 10  1  0
  1 11  1  0
  1 12  1  0
  2 13  1  0
  3 14  1  0
  3 15  1  0
  4 16  1  0
  5 17  1  0
  6 18  1  0
  6 19  1  0
  7 20  1  0
  9 21  1  0
M  END
