
     RDKit          3D

 18 18  0  0  0  0  0  0  0  0999 V2000
   -1.6310   -0.9558    0.0418 C   0  0  0  0  0  0  0  0  0  0  0  0
   -0.2073   -0.9065   -0.4643 C   0  0  0  0  0  0  0  0  0  0  0  0
    0.8849   -0.6581    0.5087 C   0  0  0  0  0  0  0  0  0  0  0  0
    2.2427   -1.1871    0.2940 C   0  0  0  0  0  0  0  0  0  0  0  0
    2.6794   -1.3865   -0.8174 O   0  0  0  0  0  0  0  0  0  0  0  0
    0.4469    0.4155   -0.5212 C   0  0  0  0  0  0  0  0  0  0  0  0
   -0.1612    1.6363    0.0802 C   0  0  0  0  0  0  0  0  0  0  0  0
   -1.4030    1.9257   -0.4847 O   0  0  0  0  0  0  0  0  0  0  0  0
   -1.8915   -1.9427    0.4756 H   0  0  0  0  0  0  0  0  0  0  0  0
   -2.2962   -0.8046   -0.8341 H   0  0  0  0  0  0  0  0  0  0  0  0
   -1.8410   -0.1391    0.7461 H   0  0  0  0  0  0  0  0  0  0  0  0
    0.0061   -1.5954   -1.2988 H   0  0  0  0  0  0  0  0  0  0  0  0
    0.5438   -0.4973    1.5551 H   0  0  0  0  0  0  0  0  0  0  0  0
    2.8642   -1.4026    1.1468 H   0  0  0  0  0  0  0  0  0  0  0  0
    1.1556    0.6085   -1.3629 H   0  0  0  0  0  0  0  0  0  0  0  0
    0.4993    2.5083   -0.1057 H   0  0  0  0  0  0  0  0  0  0  0  0
   -0.2333    1.5564    1.1986 H   0  0  0  0  0  0  0  0  0  0  0  0
   -1.6583    2.8252   -0.1578 H   0  0  0  0  0  0  0  0  0  0  0  0
  1  2  1  0
  2  3  1  0
  3  4  1  0
  4  5  2  0
  3  6  1  0
  6  7  1  0
  7  8  1  0
  6  2  1  0
  1  9  1  0
  1 10  1  0
  1 11  1  0
  2 12  1  0
  3 13  1  0
  4 14  1  0
  6 15  1  0
  7 16  1  0
  7 17  1  0
  8 18  1  0
M  END
