
     RDKit          3D

 23 23  0  0  0  0  0  0  0  0999 V2000
   -1.7977    1.4568   -0.1761 C   0  0  0  0  0  0  0  0  0  0  0  0
   -0.4970    0.8854    0.2896 C   0  0  0  0  0  0  0  0  0  0  0  0
    0.6414    1.3039   -0.6125 C   0  0  0  0  0  0  0  0  0  0  0  0
    1.8158    0.8018   -0.2584 C   0  0  0  0  0  0  0  0  0  0  0  0
    1.8333   -0.0738    0.9405 C   0  0  0  0  0  0  0  0  0  0  0  0
    0.8654   -1.1982    0.6230 C   0  0  0  0  0  0  0  0  0  0  0  0
    1.3251   -1.7694   -0.5655 O   0  0  0  0  0  0  0  0  0  0  0  0
   -0.4988   -0.5865    0.4672 C   0  0  0  0  0  0  0  0  0  0  0  0
   -1.2196   -1.3315   -0.6303 C   0  0  0  0  0  0  0  0  0  0  0  0
   -2.2233    0.9706   -1.0580 H   0  0  0  0  0  0  0  0  0  0  0  0
   -1.5965    2.5288   -0.4610 H   0  0  0  0  0  0  0  0  0  0  0  0
   -2.5218    1.5188    0.6625 H   0  0  0  0  0  0  0  0  0  0  0  0
   -0.2625    1.3737    1.2742 H   0  0  0  0  0  0  0  0  0  0  0  0
    0.4972    1.9532   -1.4645 H   0  0  0  0  0  0  0  0  0  0  0  0
    2.6923    1.0094   -0.7946 H   0  0  0  0  0  0  0  0  0  0  0  0
    1.4529    0.4326    1.8506 H   0  0  0  0  0  0  0  0  0  0  0  0
    2.8201   -0.5493    1.1071 H   0  0  0  0  0  0  0  0  0  0  0  0
    0.8645   -1.9671    1.4280 H   0  0  0  0  0  0  0  0  0  0  0  0
    1.1153   -1.2476   -1.3547 H   0  0  0  0  0  0  0  0  0  0  0  0
   -1.0703   -0.8426    1.4114 H   0  0  0  0  0  0  0  0  0  0  0  0
   -1.0228   -2.4145   -0.4635 H   0  0  0  0  0  0  0  0  0  0  0  0
   -0.8966   -1.0681   -1.6375 H   0  0  0  0  0  0  0  0  0  0  0  0
   -2.3165   -1.1864   -0.5776 H   0  0  0  0  0  0  0  0  0  0  0  0
  1  2  1  0
  2  3  1  0
  3  4  2  0
  4  5  1  0
  5  6  1  0
  6  7  1  0
  6  8  1  0
  8  9  1  0
  8  2  1  0
  1 10  1  0
  1 11  1  0
  1 12  1  0
  2 13  1  0
  3 14  1  0
  4 15  1  0
  5 16  1  0
  5 17  1  0
  6 18  1  0
  7 19  1  0
  8 20  1  0
  9 21  1  0
  9 22  1  0
  9 23  1  0
M  END
