
     RDKit          3D

 27 27  0  0  0  0  0  0  0  0999 V2000
    1.8815    1.9225   -0.6789 C   0  0  0  0  0  0  0  0  0  0  0  0
    1.2586    0.7547    0.0047 C   0  0  0  0  0  0  0  0  0  0  0  0
    1.5022   -0.6589   -0.4888 C   0  0  0  0  0  0  0  0  0  0  0  0
    1.6818   -1.7658    0.4949 C   0  0  0  0  0  0  0  0  0  0  0  0
    0.2537   -0.0419   -0.8575 C   0  0  0  0  0  0  0  0  0  0  0  0
   -1.0699   -0.1671   -0.2159 C   0  0  0  0  0  0  0  0  0  0  0  0
   -1.1066   -0.8608    1.1212 C   0  0  0  0  0  0  0  0  0  0  0  0
   -1.5516    1.2597    0.1162 C   0  0  0  0  0  0  0  0  0  0  0  0
   -2.1355   -0.7498   -1.1181 C   0  0  0  0  0  0  0  0  0  0  0  0
    2.7720    1.6923   -1.2781 H   0  0  0  0  0  0  0  0  0  0  0  0
    2.0593    2.7178    0.0831 H   0  0  0  0  0  0  0  0  0  0  0  0
    1.1391    2.3834   -1.3946 H   0  0  0  0  0  0  0  0  0  0  0  0
    1.0684    0.8090    1.0824 H   0  0  0  0  0  0  0  0  0  0  0  0
    2.3166   -0.6570   -1.2766 H   0  0  0  0  0  0  0  0  0  0  0  0
    2.7765   -2.0505    0.5494 H   0  0  0  0  0  0  0  0  0  0  0  0
    1.4413   -1.4970    1.5443 H   0  0  0  0  0  0  0  0  0  0  0  0
    1.1847   -2.7214    0.1838 H   0  0  0  0  0  0  0  0  0  0  0  0
    0.1617    0.2985   -1.9360 H   0  0  0  0  0  0  0  0  0  0  0  0
   -2.1899   -0.7978    1.4478 H   0  0  0  0  0  0  0  0  0  0  0  0
   -0.8743   -1.9161    1.1031 H   0  0  0  0  0  0  0  0  0  0  0  0
   -0.5728   -0.2565    1.8897 H   0  0  0  0  0  0  0  0  0  0  0  0
   -0.7438    1.7033    0.7350 H   0  0  0  0  0  0  0  0  0  0  0  0
   -1.5282    1.8217   -0.8519 H   0  0  0  0  0  0  0  0  0  0  0  0
   -2.5324    1.2465    0.5857 H   0  0  0  0  0  0  0  0  0  0  0  0
   -3.1123   -0.4196   -0.7045 H   0  0  0  0  0  0  0  0  0  0  0  0
   -2.0228   -0.2249   -2.1032 H   0  0  0  0  0  0  0  0  0  0  0  0
   -2.0573   -1.8242   -1.2633 H   0  0  0  0  0  0  0  0  0  0  0  0
  1  2  1  0
  2  3  1  0
  3  4  1  0
  3  5  1  0
  5  6  1  0
  6  7  1  0
  6  8  1  0
  6  9  1  0
  5  2  1  0
  1 10  1  0
  1 11  1  0
  1 12  1  0
  2 13  1  0
  3 14  1  0
  4 15  1  0
  4 16  1  0
  4 17  1  0
  5 18  1  0
  7 19  1  0
  7 20  1  0
  7 21  1  0
  8 22  1  0
  8 23  1  0
  8 24  1  0
  9 25  1  0
  9 26  1  0
  9 27  1  0
M  END
