
     RDKit          3D

 23 23  0  0  0  0  0  0  0  0999 V2000
    2.3910   -0.9302   -0.2875 C   0  0  0  0  0  0  0  0  0  0  0  0
    1.2880    0.0797   -0.5973 C   0  0  0  0  0  0  0  0  0  0  0  0
    1.4016    1.1836    0.4034 C   0  0  0  0  0  0  0  0  0  0  0  0
    0.2561    1.8936    0.6181 O   0  0  0  0  0  0  0  0  0  0  0  0
   -0.8417    1.1553    0.9538 C   0  0  0  0  0  0  0  0  0  0  0  0
   -1.1790    0.1668   -0.1333 C   0  0  0  0  0  0  0  0  0  0  0  0
   -2.2766   -0.7331    0.4330 C   0  0  0  0  0  0  0  0  0  0  0  0
   -1.7252    0.8832   -1.2026 O   0  0  0  0  0  0  0  0  0  0  0  0
   -0.0129   -0.6303   -0.6066 C   0  0  0  0  0  0  0  0  0  0  0  0
    1.9901   -1.9725   -0.3587 H   0  0  0  0  0  0  0  0  0  0  0  0
    2.7614   -0.8036    0.7508 H   0  0  0  0  0  0  0  0  0  0  0  0
    3.2173   -0.8781   -1.0201 H   0  0  0  0  0  0  0  0  0  0  0  0
    1.5157    0.4747   -1.6204 H   0  0  0  0  0  0  0  0  0  0  0  0
    2.1713    1.9057    0.0063 H   0  0  0  0  0  0  0  0  0  0  0  0
    1.8395    0.7861    1.3395 H   0  0  0  0  0  0  0  0  0  0  0  0
   -0.7884    0.6345    1.9176 H   0  0  0  0  0  0  0  0  0  0  0  0
   -1.7128    1.8564    1.0248 H   0  0  0  0  0  0  0  0  0  0  0  0
   -2.8724   -1.1691   -0.3984 H   0  0  0  0  0  0  0  0  0  0  0  0
   -1.7990   -1.5914    0.9645 H   0  0  0  0  0  0  0  0  0  0  0  0
   -2.9366   -0.1422    1.1021 H   0  0  0  0  0  0  0  0  0  0  0  0
   -2.4548    0.3669   -1.6051 H   0  0  0  0  0  0  0  0  0  0  0  0
   -0.0003   -1.5872   -0.0212 H   0  0  0  0  0  0  0  0  0  0  0  0
   -0.2325   -0.9487   -1.6628 H   0  0  0  0  0  0  0  0  0  0  0  0
  1  2  1  0
  2  3  1  0
  3  4  1  0
  4  5  1  0
  5  6  1  0
  6  7  1  0
  6  8  1  0
  6  9  1  0
  9  2  1  0
  1 10  1  0
  1 11  1  0
  1 12  1  0
  2 13  1  0
  3 14  1  0
  3 15  1  0
  5 16  1  0
  5 17  1  0
  7 18  1  0
  7 19  1  0
  7 20  1  0
  8 21  1  0
  9 22  1  0
  9 23  1  0
M  END
