
     RDKit          3D

 25 26  0  0  0  0  0  0  0  0999 V2000
   -2.8728    0.1721    0.0867 C   0  0  0  0  0  0  0  0  0  0  0  0
   -1.4206    0.0624    0.5378 C   0  0  0  0  0  0  0  0  0  0  0  0
   -0.8753   -1.2497    0.0938 C   0  0  0  0  0  0  0  0  0  0  0  0
    0.6081   -1.3644    0.1320 C   0  0  0  0  0  0  0  0  0  0  0  0
    1.3250   -0.0751   -0.1670 C   0  0  0  0  0  0  0  0  0  0  0  0
    0.3716    0.8028   -0.9473 C   0  0  0  0  0  0  0  0  0  0  0  0
   -0.6939    1.2557    0.0196 C   0  0  0  0  0  0  0  0  0  0  0  0
    2.7391   -0.0031   -0.5014 C   0  0  0  0  0  0  0  0  0  0  0  0
    2.2544    0.4902    0.8298 C   0  0  0  0  0  0  0  0  0  0  0  0
   -3.0477    1.0918   -0.5168 H   0  0  0  0  0  0  0  0  0  0  0  0
   -3.5641    0.2682    0.9644 H   0  0  0  0  0  0  0  0  0  0  0  0
   -3.1603   -0.6916   -0.5589 H   0  0  0  0  0  0  0  0  0  0  0  0
   -1.4230    0.0533    1.6671 H   0  0  0  0  0  0  0  0  0  0  0  0
   -1.2791   -1.5700   -0.9116 H   0  0  0  0  0  0  0  0  0  0  0  0
   -1.2848   -2.0321    0.7985 H   0  0  0  0  0  0  0  0  0  0  0  0
    0.9537   -1.7997    1.0775 H   0  0  0  0  0  0  0  0  0  0  0  0
    0.9025   -2.1073   -0.6672 H   0  0  0  0  0  0  0  0  0  0  0  0
   -0.1272    0.1181   -1.6925 H   0  0  0  0  0  0  0  0  0  0  0  0
    0.8535    1.6063   -1.4975 H   0  0  0  0  0  0  0  0  0  0  0  0
   -1.3457    1.9694   -0.5429 H   0  0  0  0  0  0  0  0  0  0  0  0
   -0.1625    1.7526    0.8653 H   0  0  0  0  0  0  0  0  0  0  0  0
    3.2954   -0.9509   -0.5885 H   0  0  0  0  0  0  0  0  0  0  0  0
    3.1149    0.7737   -1.2100 H   0  0  0  0  0  0  0  0  0  0  0  0
    2.5649   -0.1423    1.6895 H   0  0  0  0  0  0  0  0  0  0  0  0
    2.2738    1.5697    1.0727 H   0  0  0  0  0  0  0  0  0  0  0  0
  1  2  1  0
  2  3  1  0
  3  4  1  0
  4  5  1  0
  5  6  1  0
  6  7  1  0
  5  8  1  0
  8  9  1  0
  7  2  1  0
  9  5  1  0
  1 10  1  0
  1 11  1  0
  1 12  1  0
  2 13  1  0
  3 14  1  0
  3 15  1  0
  4 16  1  0
  4 17  1  0
  6 18  1  0
  6 19  1  0
  7 20  1  0
  7 21  1  0
  8 22  1  0
  8 23  1  0
  9 24  1  0
  9 25  1  0
M  END
