
     RDKit          3D

 21 22  0  0  0  0  0  0  0  0999 V2000
    2.5500   -0.0779    0.1095 C   0  0  0  0  0  0  0  0  0  0  0  0
    1.0667   -0.0517    0.4783 C   0  0  0  0  0  0  0  0  0  0  0  0
    0.4858    1.1562   -0.1988 C   0  0  0  0  0  0  0  0  0  0  0  0
   -1.0004    1.2400   -0.0976 C   0  0  0  0  0  0  0  0  0  0  0  0
   -1.7425   -0.0018   -0.3604 C   0  0  0  0  0  0  0  0  0  0  0  0
   -2.9210    0.0200    0.4242 O   0  0  0  0  0  0  0  0  0  0  0  0
   -1.0248   -1.2770   -0.1658 C   0  0  0  0  0  0  0  0  0  0  0  0
   -0.6318   -1.6784    1.1145 O   0  0  0  0  0  0  0  0  0  0  0  0
    0.3593   -1.3031    0.1265 C   0  0  0  0  0  0  0  0  0  0  0  0
    2.7134    0.4130   -0.8883 H   0  0  0  0  0  0  0  0  0  0  0  0
    3.1625    0.4737    0.8654 H   0  0  0  0  0  0  0  0  0  0  0  0
    2.8912   -1.1296    0.1202 H   0  0  0  0  0  0  0  0  0  0  0  0
    1.0518    0.1482    1.5879 H   0  0  0  0  0  0  0  0  0  0  0  0
    0.9028    2.0496    0.3543 H   0  0  0  0  0  0  0  0  0  0  0  0
    0.8736    1.2693   -1.2395 H   0  0  0  0  0  0  0  0  0  0  0  0
   -1.3295    2.0495   -0.8112 H   0  0  0  0  0  0  0  0  0  0  0  0
   -1.2798    1.6523    0.9154 H   0  0  0  0  0  0  0  0  0  0  0  0
   -2.1192    0.0274   -1.4189 H   0  0  0  0  0  0  0  0  0  0  0  0
   -3.5338   -0.6712    0.0816 H   0  0  0  0  0  0  0  0  0  0  0  0
   -1.4554   -2.1443   -0.7467 H   0  0  0  0  0  0  0  0  0  0  0  0
    0.9812   -2.1642   -0.2506 H   0  0  0  0  0  0  0  0  0  0  0  0
  1  2  1  0
  2  3  1  0
  3  4  1  0
  4  5  1  0
  5  6  1  0
  5  7  1  0
  7  8  1  0
  8  9  1  0
  9  2  1  0
  9  7  1  0
  1 10  1  0
  1 11  1  0
  1 12  1  0
  2 13  1  0
  3 14  1  0
  3 15  1  0
  4 16  1  0
  4 17  1  0
  5 18  1  0
  6 19  1  0
  7 20  1  0
  9 21  1  0
M  END
