
     RDKit          3D

 21 22  0  0  0  0  0  0  0  0999 V2000
   -2.5205    0.1266   -0.2306 C   0  0  0  0  0  0  0  0  0  0  0  0
   -1.4365   -0.8659    0.0875 C   0  0  0  0  0  0  0  0  0  0  0  0
   -0.2188   -0.4808   -0.7318 C   0  0  0  0  0  0  0  0  0  0  0  0
    0.7344   -0.0135    0.3293 C   0  0  0  0  0  0  0  0  0  0  0  0
    1.7058    1.0406   -0.0381 C   0  0  0  0  0  0  0  0  0  0  0  0
    2.4122   -0.2087   -0.5880 C   0  0  0  0  0  0  0  0  0  0  0  0
    1.7822   -0.9116    0.4657 O   0  0  0  0  0  0  0  0  0  0  0  0
   -0.1280    0.1959    1.5208 C   0  0  0  0  0  0  0  0  0  0  0  0
   -1.0501   -0.8552    1.4154 O   0  0  0  0  0  0  0  0  0  0  0  0
   -2.0453    1.1408   -0.2410 H   0  0  0  0  0  0  0  0  0  0  0  0
   -3.3682    0.1037    0.4684 H   0  0  0  0  0  0  0  0  0  0  0  0
   -2.8663   -0.1040   -1.2721 H   0  0  0  0  0  0  0  0  0  0  0  0
   -1.7338   -1.8926   -0.1807 H   0  0  0  0  0  0  0  0  0  0  0  0
    0.1638   -1.3823   -1.2860 H   0  0  0  0  0  0  0  0  0  0  0  0
   -0.4305    0.3225   -1.4599 H   0  0  0  0  0  0  0  0  0  0  0  0
    2.2227    1.4547    0.8321 H   0  0  0  0  0  0  0  0  0  0  0  0
    1.4631    1.7177   -0.8665 H   0  0  0  0  0  0  0  0  0  0  0  0
    2.0135   -0.4718   -1.5893 H   0  0  0  0  0  0  0  0  0  0  0  0
    3.5012   -0.1841   -0.5225 H   0  0  0  0  0  0  0  0  0  0  0  0
   -0.6877    1.1291    1.4633 H   0  0  0  0  0  0  0  0  0  0  0  0
    0.4868    0.1390    2.4242 H   0  0  0  0  0  0  0  0  0  0  0  0
  1  2  1  0
  2  3  1  0
  3  4  1  0
  4  5  1  0
  5  6  1  0
  6  7  1  0
  4  8  1  0
  8  9  1  0
  9  2  1  0
  7  4  1  0
  1 10  1  0
  1 11  1  0
  1 12  1  0
  2 13  1  0
  3 14  1  0
  3 15  1  0
  5 16  1  0
  5 17  1  0
  6 18  1  0
  6 19  1  0
  8 20  1  0
  8 21  1  0
M  END
