
     RDKit          3D

 21 23  0  0  0  0  0  0  0  0999 V2000
   -2.2883    0.6853   -0.2970 C   0  0  0  0  0  0  0  0  0  0  0  0
   -1.0216    0.1671    0.3453 C   0  0  0  0  0  0  0  0  0  0  0  0
    0.1726    0.7011   -0.3838 C   0  0  0  0  0  0  0  0  0  0  0  0
    1.2154    1.1862    0.6101 C   0  0  0  0  0  0  0  0  0  0  0  0
    2.1249    0.0519    0.2249 C   0  0  0  0  0  0  0  0  0  0  0  0
    1.0666   -0.4559   -0.7124 C   0  0  0  0  0  0  0  0  0  0  0  0
    0.3550   -1.7097   -0.2928 C   0  0  0  0  0  0  0  0  0  0  0  0
   -0.8762   -1.9377   -0.8986 O   0  0  0  0  0  0  0  0  0  0  0  0
   -0.9200   -1.3248    0.3317 C   0  0  0  0  0  0  0  0  0  0  0  0
   -2.2967    1.7854   -0.1514 H   0  0  0  0  0  0  0  0  0  0  0  0
   -3.1916    0.2307    0.1373 H   0  0  0  0  0  0  0  0  0  0  0  0
   -2.1992    0.5146   -1.3840 H   0  0  0  0  0  0  0  0  0  0  0  0
   -1.0450    0.5113    1.4058 H   0  0  0  0  0  0  0  0  0  0  0  0
   -0.0676    1.3937   -1.1988 H   0  0  0  0  0  0  0  0  0  0  0  0
    1.5534    2.1980    0.3651 H   0  0  0  0  0  0  0  0  0  0  0  0
    0.8823    1.1632    1.6753 H   0  0  0  0  0  0  0  0  0  0  0  0
    2.3568   -0.6657    1.0324 H   0  0  0  0  0  0  0  0  0  0  0  0
    3.0249    0.4691   -0.2969 H   0  0  0  0  0  0  0  0  0  0  0  0
    1.4515   -0.5104   -1.7436 H   0  0  0  0  0  0  0  0  0  0  0  0
    0.9411   -2.5895   -0.0007 H   0  0  0  0  0  0  0  0  0  0  0  0
   -1.2384   -1.8638    1.2323 H   0  0  0  0  0  0  0  0  0  0  0  0
  1  2  1  0
  2  3  1  0
  3  4  1  0
  4  5  1  0
  5  6  1  0
  6  7  1  0
  7  8  1  0
  8  9  1  0
  9  2  1  0
  6  3  1  0
  9  7  1  0
  1 10  1  0
  1 11  1  0
  1 12  1  0
  2 13  1  0
  3 14  1  0
  4 15  1  0
  4 16  1  0
  5 17  1  0
  5 18  1  0
  6 19  1  0
  7 20  1  0
  9 21  1  0
M  END
