
     RDKit          3D

 23 24  0  0  0  0  0  0  0  0999 V2000
    2.7441   -0.5773   -0.2466 C   0  0  0  0  0  0  0  0  0  0  0  0
    1.4160   -0.2083    0.3961 C   0  0  0  0  0  0  0  0  0  0  0  0
    0.3287   -0.6664   -0.5493 C   0  0  0  0  0  0  0  0  0  0  0  0
   -1.0489   -0.2837   -0.0824 C   0  0  0  0  0  0  0  0  0  0  0  0
   -1.9304   -1.3421    0.5339 C   0  0  0  0  0  0  0  0  0  0  0  0
   -1.8127    0.7670   -0.8344 C   0  0  0  0  0  0  0  0  0  0  0  0
   -1.0143    1.0986    0.4378 C   0  0  0  0  0  0  0  0  0  0  0  0
    0.2863    1.8005    0.1617 C   0  0  0  0  0  0  0  0  0  0  0  0
    1.3908    1.1388    0.6551 O   0  0  0  0  0  0  0  0  0  0  0  0
    3.0455    0.2609   -0.9019 H   0  0  0  0  0  0  0  0  0  0  0  0
    2.5975   -1.5184   -0.8132 H   0  0  0  0  0  0  0  0  0  0  0  0
    3.5030   -0.7326    0.5277 H   0  0  0  0  0  0  0  0  0  0  0  0
    1.3520   -0.8066    1.3311 H   0  0  0  0  0  0  0  0  0  0  0  0
    0.3766   -1.7899   -0.5480 H   0  0  0  0  0  0  0  0  0  0  0  0
    0.4963   -0.3593   -1.5891 H   0  0  0  0  0  0  0  0  0  0  0  0
   -2.2822   -0.9822    1.5102 H   0  0  0  0  0  0  0  0  0  0  0  0
   -2.8568   -1.4610   -0.0960 H   0  0  0  0  0  0  0  0  0  0  0  0
   -1.4229   -2.3215    0.5733 H   0  0  0  0  0  0  0  0  0  0  0  0
   -1.4156    1.0930   -1.7958 H   0  0  0  0  0  0  0  0  0  0  0  0
   -2.8898    0.8444   -0.7013 H   0  0  0  0  0  0  0  0  0  0  0  0
   -1.5568    1.2876    1.3656 H   0  0  0  0  0  0  0  0  0  0  0  0
    0.2319    2.8057    0.6270 H   0  0  0  0  0  0  0  0  0  0  0  0
    0.4617    1.9529   -0.9313 H   0  0  0  0  0  0  0  0  0  0  0  0
  1  2  1  0
  2  3  1  0
  3  4  1  0
  4  5  1  0
  4  6  1  0
  6  7  1  0
  7  8  1  0
  8  9  1  0
  9  2  1  0
  7  4  1  0
  1 10  1  0
  1 11  1  0
  1 12  1  0
  2 13  1  0
  3 14  1  0
  3 15  1  0
  5 16  1  0
  5 17  1  0
  5 18  1  0
  6 19  1  0
  6 20  1  0
  7 21  1  0
  8 22  1  0
  8 23  1  0
M  END
