
     RDKit          3D

 23 23  0  0  0  0  0  0  0  0999 V2000
   -2.3866    0.4261    0.6633 C   0  0  0  0  0  0  0  0  0  0  0  0
   -1.6533   -0.2722   -0.4470 C   0  0  0  0  0  0  0  0  0  0  0  0
   -0.6690    0.7294   -1.0337 C   0  0  0  0  0  0  0  0  0  0  0  0
    0.4938    0.8316   -0.0596 C   0  0  0  0  0  0  0  0  0  0  0  0
    1.1192   -0.5060    0.2205 C   0  0  0  0  0  0  0  0  0  0  0  0
    2.5690   -0.4196   -0.1627 C   0  0  0  0  0  0  0  0  0  0  0  0
    3.1575    0.5500    0.6473 O   0  0  0  0  0  0  0  0  0  0  0  0
    0.4236   -1.4548   -0.5331 O   0  0  0  0  0  0  0  0  0  0  0  0
   -0.8848   -1.4741    0.0062 C   0  0  0  0  0  0  0  0  0  0  0  0
   -3.3935    0.7544    0.3192 H   0  0  0  0  0  0  0  0  0  0  0  0
   -2.4985   -0.1841    1.5677 H   0  0  0  0  0  0  0  0  0  0  0  0
   -1.8662    1.3695    0.9767 H   0  0  0  0  0  0  0  0  0  0  0  0
   -2.3525   -0.5703   -1.2806 H   0  0  0  0  0  0  0  0  0  0  0  0
   -0.3244    0.3674   -2.0150 H   0  0  0  0  0  0  0  0  0  0  0  0
   -1.1500    1.7263   -1.0666 H   0  0  0  0  0  0  0  0  0  0  0  0
    1.2158    1.5527   -0.5352 H   0  0  0  0  0  0  0  0  0  0  0  0
    0.1721    1.2884    0.8743 H   0  0  0  0  0  0  0  0  0  0  0  0
    1.0383   -0.8220    1.2736 H   0  0  0  0  0  0  0  0  0  0  0  0
    3.0968   -1.3718   -0.1487 H   0  0  0  0  0  0  0  0  0  0  0  0
    2.5986   -0.0134   -1.2111 H   0  0  0  0  0  0  0  0  0  0  0  0
    3.4537    1.3437    0.1709 H   0  0  0  0  0  0  0  0  0  0  0  0
   -1.4201   -2.3967   -0.2388 H   0  0  0  0  0  0  0  0  0  0  0  0
   -0.7395   -1.4546    1.1234 H   0  0  0  0  0  0  0  0  0  0  0  0
  1  2  1  0
  2  3  1  0
  3  4  1  0
  4  5  1  0
  5  6  1  0
  6  7  1  0
  5  8  1  0
  8  9  1  0
  9  2  1  0
  1 10  1  0
  1 11  1  0
  1 12  1  0
  2 13  1  0
  3 14  1  0
  3 15  1  0
  4 16  1  0
  4 17  1  0
  5 18  1  0
  6 19  1  0
  6 20  1  0
  7 21  1  0
  9 22  1  0
  9 23  1  0
M  END
