
     RDKit          3D

 21 23  0  0  0  0  0  0  0  0999 V2000
    2.3020   -0.7707    0.3957 C   0  0  0  0  0  0  0  0  0  0  0  0
    1.2352    0.2428    0.1957 C   0  0  0  0  0  0  0  0  0  0  0  0
    0.3269    0.0149   -1.0008 C   0  0  0  0  0  0  0  0  0  0  0  0
   -0.1601    1.2203   -1.5490 O   0  0  0  0  0  0  0  0  0  0  0  0
   -0.7267    1.9313   -0.5312 C   0  0  0  0  0  0  0  0  0  0  0  0
   -1.1198    0.9623    0.5659 C   0  0  0  0  0  0  0  0  0  0  0  0
    0.0076    0.1179    1.0660 C   0  0  0  0  0  0  0  0  0  0  0  0
   -0.7720   -0.3368   -0.0514 C   0  0  0  0  0  0  0  0  0  0  0  0
   -1.6533   -1.4821   -0.1722 C   0  0  0  0  0  0  0  0  0  0  0  0
    2.5297   -1.3113   -0.5597 H   0  0  0  0  0  0  0  0  0  0  0  0
    1.9948   -1.5140    1.1462 H   0  0  0  0  0  0  0  0  0  0  0  0
    3.2446   -0.2323    0.7061 H   0  0  0  0  0  0  0  0  0  0  0  0
    1.5836    1.3103    0.2261 H   0  0  0  0  0  0  0  0  0  0  0  0
    0.6377   -0.7232   -1.7210 H   0  0  0  0  0  0  0  0  0  0  0  0
    0.0444    2.6183   -0.0985 H   0  0  0  0  0  0  0  0  0  0  0  0
   -1.5665    2.5559   -0.8529 H   0  0  0  0  0  0  0  0  0  0  0  0
   -2.0733    1.0396    1.0724 H   0  0  0  0  0  0  0  0  0  0  0  0
    0.0360   -0.3249    2.0465 H   0  0  0  0  0  0  0  0  0  0  0  0
   -2.7226   -1.1210   -0.2480 H   0  0  0  0  0  0  0  0  0  0  0  0
   -1.5017   -2.1301   -1.0419 H   0  0  0  0  0  0  0  0  0  0  0  0
   -1.6463   -2.0672    0.7940 H   0  0  0  0  0  0  0  0  0  0  0  0
  1  2  1  0
  2  3  1  0
  3  4  1  0
  4  5  1  0
  5  6  1  0
  6  7  1  0
  7  8  1  0
  8  9  1  0
  7  2  1  0
  8  3  1  0
  8  6  1  0
  1 10  1  0
  1 11  1  0
  1 12  1  0
  2 13  1  0
  3 14  1  0
  5 15  1  0
  5 16  1  0
  6 17  1  0
  7 18  1  0
  9 19  1  0
  9 20  1  0
  9 21  1  0
M  END
