
     RDKit          3D

 23 24  0  0  0  0  0  0  0  0999 V2000
    3.0057    0.6464    0.3968 C   0  0  0  0  0  0  0  0  0  0  0  0
    1.8834   -0.2376   -0.1711 C   0  0  0  0  0  0  0  0  0  0  0  0
    0.6532    0.2703   -0.6159 C   0  0  0  0  0  0  0  0  0  0  0  0
   -0.4344    1.0745   -0.0145 C   0  0  0  0  0  0  0  0  0  0  0  0
   -1.3686   -0.0681    0.4430 C   0  0  0  0  0  0  0  0  0  0  0  0
   -2.4493   -0.3235   -0.5615 C   0  0  0  0  0  0  0  0  0  0  0  0
   -1.8827    0.1998    1.7031 O   0  0  0  0  0  0  0  0  0  0  0  0
   -0.4522   -1.3113    0.5080 C   0  0  0  0  0  0  0  0  0  0  0  0
    0.8357   -0.6168    0.6844 C   0  0  0  0  0  0  0  0  0  0  0  0
    2.6356    1.6711    0.5953 H   0  0  0  0  0  0  0  0  0  0  0  0
    3.3438    0.1344    1.3253 H   0  0  0  0  0  0  0  0  0  0  0  0
    3.8561    0.7041   -0.2776 H   0  0  0  0  0  0  0  0  0  0  0  0
    2.3749   -1.0835   -0.7448 H   0  0  0  0  0  0  0  0  0  0  0  0
    0.2079   -0.2731   -1.5108 H   0  0  0  0  0  0  0  0  0  0  0  0
   -0.1568    1.6429    0.8773 H   0  0  0  0  0  0  0  0  0  0  0  0
   -0.9796    1.7066   -0.7176 H   0  0  0  0  0  0  0  0  0  0  0  0
   -2.7479   -1.3957   -0.4593 H   0  0  0  0  0  0  0  0  0  0  0  0
   -3.3524    0.2628   -0.2961 H   0  0  0  0  0  0  0  0  0  0  0  0
   -2.1112   -0.1641   -1.5978 H   0  0  0  0  0  0  0  0  0  0  0  0
   -2.4579    0.9897    1.6184 H   0  0  0  0  0  0  0  0  0  0  0  0
   -0.7061   -1.9564    1.3448 H   0  0  0  0  0  0  0  0  0  0  0  0
   -0.4868   -1.8277   -0.4879 H   0  0  0  0  0  0  0  0  0  0  0  0
    0.7898   -0.0450    1.6643 H   0  0  0  0  0  0  0  0  0  0  0  0
  1  2  1  0
  2  3  1  0
  3  4  1  0
  4  5  1  0
  5  6  1  0
  5  7  1  0
  5  8  1  0
  8  9  1  0
  9  2  1  0
  9  3  1  0
  1 10  1  0
  1 11  1  0
  1 12  1  0
  2 13  1  0
  3 14  1  0
  4 15  1  0
  4 16  1  0
  6 17  1  0
  6 18  1  0
  6 19  1  0
  7 20  1  0
  8 21  1  0
  8 22  1  0
  9 23  1  0
M  END
