
     RDKit          3D

 20 21  0  0  0  0  0  0  0  0999 V2000
    2.4377   -0.2388    0.0700 C   0  0  0  0  0  0  0  0  0  0  0  0
    0.9879    0.1103    0.0788 C   0  0  0  0  0  0  0  0  0  0  0  0
    0.1846   -0.2425   -1.1247 C   0  0  0  0  0  0  0  0  0  0  0  0
   -1.0335    0.6738   -1.1516 C   0  0  0  0  0  0  0  0  0  0  0  0
   -1.8617    0.5094    0.0778 C   0  0  0  0  0  0  0  0  0  0  0  0
   -1.1341   -0.1059    1.2353 C   0  0  0  0  0  0  0  0  0  0  0  0
    0.0517   -0.8849    0.6923 C   0  0  0  0  0  0  0  0  0  0  0  0
   -0.2585   -1.4469   -0.5513 O   0  0  0  0  0  0  0  0  0  0  0  0
    2.5305   -1.3325   -0.0371 H   0  0  0  0  0  0  0  0  0  0  0  0
    2.9655    0.3160   -0.7322 H   0  0  0  0  0  0  0  0  0  0  0  0
    2.8786    0.1158    1.0264 H   0  0  0  0  0  0  0  0  0  0  0  0
    0.8421    1.1600    0.4245 H   0  0  0  0  0  0  0  0  0  0  0  0
    0.7006   -0.3784   -2.0691 H   0  0  0  0  0  0  0  0  0  0  0  0
   -1.6302    0.4631   -2.0632 H   0  0  0  0  0  0  0  0  0  0  0  0
   -0.6313    1.7160   -1.1928 H   0  0  0  0  0  0  0  0  0  0  0  0
   -2.7020   -0.1939   -0.1826 H   0  0  0  0  0  0  0  0  0  0  0  0
   -2.3566    1.4799    0.3605 H   0  0  0  0  0  0  0  0  0  0  0  0
   -1.7763   -0.7705    1.8501 H   0  0  0  0  0  0  0  0  0  0  0  0
   -0.6847    0.6728    1.9200 H   0  0  0  0  0  0  0  0  0  0  0  0
    0.4895   -1.6229    1.3688 H   0  0  0  0  0  0  0  0  0  0  0  0
  1  2  1  0
  2  3  1  0
  3  4  1  0
  4  5  1  0
  5  6  1  0
  6  7  1  0
  7  8  1  0
  7  2  1  0
  8  3  1  0
  1  9  1  0
  1 10  1  0
  1 11  1  0
  2 12  1  0
  3 13  1  0
  4 14  1  0
  4 15  1  0
  5 16  1  0
  5 17  1  0
  6 18  1  0
  6 19  1  0
  7 20  1  0
M  END
