
     RDKit          3D

 18 19  0  0  0  0  0  0  0  0999 V2000
    1.2777    1.3856   -0.1014 C   0  0  0  0  0  0  0  0  0  0  0  0
    0.8782    0.1193    0.6396 C   0  0  0  0  0  0  0  0  0  0  0  0
    1.5658   -1.0673   -0.0431 C   0  0  0  0  0  0  0  0  0  0  0  0
    0.4704   -1.1721   -0.9337 O   0  0  0  0  0  0  0  0  0  0  0  0
   -0.2818   -0.5236   -0.0211 C   0  0  0  0  0  0  0  0  0  0  0  0
   -1.4792   -1.0089    0.6292 C   0  0  0  0  0  0  0  0  0  0  0  0
   -1.5123    0.2069   -0.2339 C   0  0  0  0  0  0  0  0  0  0  0  0
   -2.2301    0.1898   -1.4281 O   0  0  0  0  0  0  0  0  0  0  0  0
    2.2672    1.7359    0.1852 H   0  0  0  0  0  0  0  0  0  0  0  0
    0.5035    2.1614    0.0890 H   0  0  0  0  0  0  0  0  0  0  0  0
    1.2140    1.1122   -1.1961 H   0  0  0  0  0  0  0  0  0  0  0  0
    0.9396    0.1448    1.7167 H   0  0  0  0  0  0  0  0  0  0  0  0
    2.4939   -0.7950   -0.5563 H   0  0  0  0  0  0  0  0  0  0  0  0
    1.6239   -1.8928    0.6942 H   0  0  0  0  0  0  0  0  0  0  0  0
   -1.5398   -0.9543    1.7226 H   0  0  0  0  0  0  0  0  0  0  0  0
   -2.0188   -1.8884    0.1791 H   0  0  0  0  0  0  0  0  0  0  0  0
   -1.6366    1.1628    0.3515 H   0  0  0  0  0  0  0  0  0  0  0  0
   -2.5357    1.0834   -1.6932 H   0  0  0  0  0  0  0  0  0  0  0  0
  1  2  1  0
  2  3  1  0
  3  4  1  0
  4  5  1  0
  5  6  1  0
  6  7  1  0
  7  8  1  0
  5  2  1  0
  7  5  1  0
  1  9  1  0
  1 10  1  0
  1 11  1  0
  2 12  1  0
  3 13  1  0
  3 14  1  0
  6 15  1  0
  6 16  1  0
  7 17  1  0
  8 18  1  0
M  END
