
     RDKit          3D

 23 23  0  0  0  0  0  0  0  0999 V2000
    1.6197   -1.0444   -0.4617 C   0  0  0  0  0  0  0  0  0  0  0  0
    0.9544    0.1030    0.2059 C   0  0  0  0  0  0  0  0  0  0  0  0
    0.9458    1.3698   -0.5970 C   0  0  0  0  0  0  0  0  0  0  0  0
   -0.2399    2.0961    0.0123 C   0  0  0  0  0  0  0  0  0  0  0  0
   -0.8232    1.2424    0.9156 O   0  0  0  0  0  0  0  0  0  0  0  0
   -0.4825   -0.0638    0.5348 C   0  0  0  0  0  0  0  0  0  0  0  0
   -0.6906   -0.9415    1.7351 C   0  0  0  0  0  0  0  0  0  0  0  0
   -1.3755   -0.4455   -0.5841 C   0  0  0  0  0  0  0  0  0  0  0  0
   -1.1868   -1.7069   -1.0943 O   0  0  0  0  0  0  0  0  0  0  0  0
    1.1352   -1.4021   -1.3775 H   0  0  0  0  0  0  0  0  0  0  0  0
    1.7462   -1.8587    0.2672 H   0  0  0  0  0  0  0  0  0  0  0  0
    2.6377   -0.7117   -0.7583 H   0  0  0  0  0  0  0  0  0  0  0  0
    1.4997    0.3138    1.1478 H   0  0  0  0  0  0  0  0  0  0  0  0
    1.8913    1.8938   -0.4633 H   0  0  0  0  0  0  0  0  0  0  0  0
    0.7106    1.1234   -1.6573 H   0  0  0  0  0  0  0  0  0  0  0  0
    0.1929    2.9934    0.5356 H   0  0  0  0  0  0  0  0  0  0  0  0
   -0.9607    2.4285   -0.7681 H   0  0  0  0  0  0  0  0  0  0  0  0
   -1.7369   -1.0034    2.0374 H   0  0  0  0  0  0  0  0  0  0  0  0
   -0.0397   -0.5821    2.5382 H   0  0  0  0  0  0  0  0  0  0  0  0
   -0.3862   -1.9842    1.4382 H   0  0  0  0  0  0  0  0  0  0  0  0
   -1.2770    0.2974   -1.4190 H   0  0  0  0  0  0  0  0  0  0  0  0
   -2.4271   -0.3583   -0.2383 H   0  0  0  0  0  0  0  0  0  0  0  0
   -1.7073   -1.7593   -1.9493 H   0  0  0  0  0  0  0  0  0  0  0  0
  1  2  1  0
  2  3  1  0
  3  4  1  0
  4  5  1  0
  5  6  1  0
  6  7  1  0
  6  8  1  0
  8  9  1  0
  6  2  1  0
  1 10  1  0
  1 11  1  0
  1 12  1  0
  2 13  1  0
  3 14  1  0
  3 15  1  0
  4 16  1  0
  4 17  1  0
  7 18  1  0
  7 19  1  0
  7 20  1  0
  8 21  1  0
  8 22  1  0
  9 23  1  0
M  END
