
     RDKit          3D

 20 21  0  0  0  0  0  0  0  0999 V2000
    0.4526    1.8682    0.4352 C   0  0  0  0  0  0  0  0  0  0  0  0
    0.5095    0.3923    0.7341 C   0  0  0  0  0  0  0  0  0  0  0  0
    1.7642   -0.2095    0.1640 C   0  0  0  0  0  0  0  0  0  0  0  0
    1.4050   -1.6244   -0.0647 C   0  0  0  0  0  0  0  0  0  0  0  0
    0.0849   -1.7322   -0.1341 C   0  0  0  0  0  0  0  0  0  0  0  0
   -0.5487   -0.4013    0.0429 C   0  0  0  0  0  0  0  0  0  0  0  0
   -1.5875    0.1334   -0.8104 C   0  0  0  0  0  0  0  0  0  0  0  0
   -1.9400   -0.3552    0.5603 C   0  0  0  0  0  0  0  0  0  0  0  0
    0.3819    2.0832   -0.6480 H   0  0  0  0  0  0  0  0  0  0  0  0
   -0.3955    2.3341    0.9740 H   0  0  0  0  0  0  0  0  0  0  0  0
    1.3859    2.3226    0.8398 H   0  0  0  0  0  0  0  0  0  0  0  0
    0.4959    0.2824    1.8379 H   0  0  0  0  0  0  0  0  0  0  0  0
    2.5577   -0.0958    0.9329 H   0  0  0  0  0  0  0  0  0  0  0  0
    2.0289    0.3105   -0.7851 H   0  0  0  0  0  0  0  0  0  0  0  0
    2.1454   -2.4339   -0.1575 H   0  0  0  0  0  0  0  0  0  0  0  0
   -0.4479   -2.6599   -0.2965 H   0  0  0  0  0  0  0  0  0  0  0  0
   -1.6536    1.2106   -1.0396 H   0  0  0  0  0  0  0  0  0  0  0  0
   -1.9801   -0.4970   -1.6466 H   0  0  0  0  0  0  0  0  0  0  0  0
   -2.5186   -1.2991    0.6442 H   0  0  0  0  0  0  0  0  0  0  0  0
   -2.1401    0.3711    1.3590 H   0  0  0  0  0  0  0  0  0  0  0  0
  1  2  1  0
  2  3  1  0
  3  4  1  0
  4  5  2  0
  5  6  1  0
  6  7  1  0
  7  8  1  0
  6  2  1  0
  8  6  1  0
  1  9  1  0
  1 10  1  0
  1 11  1  0
  2 12  1  0
  3 13  1  0
  3 14  1  0
  4 15  1  0
  5 16  1  0
  7 17  1  0
  7 18  1  0
  8 19  1  0
  8 20  1  0
M  END
