
     RDKit          3D

 23 23  0  0  0  0  0  0  0  0999 V2000
    2.8595   -1.0317    0.1067 C   0  0  0  0  0  0  0  0  0  0  0  0
    1.5168   -0.4236   -0.1818 C   0  0  0  0  0  0  0  0  0  0  0  0
    1.4993    0.9301    0.4387 C   0  0  0  0  0  0  0  0  0  0  0  0
    0.3210    1.5615    0.4374 C   0  0  0  0  0  0  0  0  0  0  0  0
   -0.8091    0.7901   -0.1994 C   0  0  0  0  0  0  0  0  0  0  0  0
   -2.0859    1.3763    0.3703 C   0  0  0  0  0  0  0  0  0  0  0  0
   -0.7600   -0.6510    0.1710 C   0  0  0  0  0  0  0  0  0  0  0  0
   -1.6899   -1.4004   -0.7871 C   0  0  0  0  0  0  0  0  0  0  0  0
    0.4636   -1.2217    0.2210 O   0  0  0  0  0  0  0  0  0  0  0  0
    2.8325   -1.7722    0.9285 H   0  0  0  0  0  0  0  0  0  0  0  0
    3.6242   -0.2606    0.3988 H   0  0  0  0  0  0  0  0  0  0  0  0
    3.2785   -1.5726   -0.7794 H   0  0  0  0  0  0  0  0  0  0  0  0
    1.4422   -0.3299   -1.2973 H   0  0  0  0  0  0  0  0  0  0  0  0
    2.3381    1.4171    0.8719 H   0  0  0  0  0  0  0  0  0  0  0  0
    0.1710    2.5358    0.8498 H   0  0  0  0  0  0  0  0  0  0  0  0
   -0.7280    0.9742   -1.2899 H   0  0  0  0  0  0  0  0  0  0  0  0
   -1.9558    2.4624    0.6400 H   0  0  0  0  0  0  0  0  0  0  0  0
   -2.9398    1.2873   -0.3168 H   0  0  0  0  0  0  0  0  0  0  0  0
   -2.3113    0.8593    1.3326 H   0  0  0  0  0  0  0  0  0  0  0  0
   -1.2495   -0.7573    1.1828 H   0  0  0  0  0  0  0  0  0  0  0  0
   -2.1630   -2.2624   -0.2787 H   0  0  0  0  0  0  0  0  0  0  0  0
   -2.5198   -0.7430   -1.1379 H   0  0  0  0  0  0  0  0  0  0  0  0
   -1.1346   -1.7676   -1.6813 H   0  0  0  0  0  0  0  0  0  0  0  0
  1  2  1  0
  2  3  1  0
  3  4  2  0
  4  5  1  0
  5  6  1  0
  5  7  1  0
  7  8  1  0
  7  9  1  0
  9  2  1  0
  1 10  1  0
  1 11  1  0
  1 12  1  0
  2 13  1  0
  3 14  1  0
  4 15  1  0
  5 16  1  0
  6 17  1  0
  6 18  1  0
  6 19  1  0
  7 20  1  0
  8 21  1  0
  8 22  1  0
  8 23  1  0
M  END
