
     RDKit          3D

 23 24  0  0  0  0  0  0  0  0999 V2000
    2.2957    0.1352   -0.5266 C   0  0  0  0  0  0  0  0  0  0  0  0
    1.2165   -0.5540    0.2977 C   0  0  0  0  0  0  0  0  0  0  0  0
    0.5578    0.4330    1.2098 C   0  0  0  0  0  0  0  0  0  0  0  0
   -0.9276    0.3016    1.2901 C   0  0  0  0  0  0  0  0  0  0  0  0
   -1.5110    1.2282    0.2250 C   0  0  0  0  0  0  0  0  0  0  0  0
   -1.6307    0.3134   -0.9501 C   0  0  0  0  0  0  0  0  0  0  0  0
   -1.1504   -0.9998   -0.4165 C   0  0  0  0  0  0  0  0  0  0  0  0
    0.3032   -1.2586   -0.6337 C   0  0  0  0  0  0  0  0  0  0  0  0
   -1.3836   -0.9822    0.9585 O   0  0  0  0  0  0  0  0  0  0  0  0
    2.8508    0.8620    0.1149 H   0  0  0  0  0  0  0  0  0  0  0  0
    2.9710   -0.6398   -0.9604 H   0  0  0  0  0  0  0  0  0  0  0  0
    1.8857    0.7109   -1.3642 H   0  0  0  0  0  0  0  0  0  0  0  0
    1.7817   -1.2688    0.9667 H   0  0  0  0  0  0  0  0  0  0  0  0
    0.9485    0.3762    2.2641 H   0  0  0  0  0  0  0  0  0  0  0  0
    0.8299    1.4633    0.8677 H   0  0  0  0  0  0  0  0  0  0  0  0
   -1.3043    0.5275    2.2947 H   0  0  0  0  0  0  0  0  0  0  0  0
   -2.4390    1.6767    0.5685 H   0  0  0  0  0  0  0  0  0  0  0  0
   -0.7857    2.0498   -0.0130 H   0  0  0  0  0  0  0  0  0  0  0  0
   -2.7194    0.2423   -1.2064 H   0  0  0  0  0  0  0  0  0  0  0  0
   -1.0923    0.6425   -1.8476 H   0  0  0  0  0  0  0  0  0  0  0  0
   -1.7364   -1.7991   -0.9334 H   0  0  0  0  0  0  0  0  0  0  0  0
    0.4600   -2.3689   -0.4919 H   0  0  0  0  0  0  0  0  0  0  0  0
    0.5795   -1.0910   -1.7137 H   0  0  0  0  0  0  0  0  0  0  0  0
  1  2  1  0
  2  3  1  0
  3  4  1  0
  4  5  1  0
  5  6  1  0
  6  7  1  0
  7  8  1  0
  7  9  1  0
  8  2  1  0
  9  4  1  0
  1 10  1  0
  1 11  1  0
  1 12  1  0
  2 13  1  0
  3 14  1  0
  3 15  1  0
  4 16  1  0
  5 17  1  0
  5 18  1  0
  6 19  1  0
  6 20  1  0
  7 21  1  0
  8 22  1  0
  8 23  1  0
M  END
