
     RDKit          3D

 19 21  0  0  0  0  0  0  0  0999 V2000
    2.1740    0.7866    0.1878 C   0  0  0  0  0  0  0  0  0  0  0  0
    0.9048    0.2369    0.7125 C   0  0  0  0  0  0  0  0  0  0  0  0
   -0.3313    1.0602    0.5843 C   0  0  0  0  0  0  0  0  0  0  0  0
   -1.0795   -0.2350    0.7118 C   0  0  0  0  0  0  0  0  0  0  0  0
   -2.2323   -0.0604   -0.1982 C   0  0  0  0  0  0  0  0  0  0  0  0
   -1.6369    0.6496   -1.2699 O   0  0  0  0  0  0  0  0  0  0  0  0
   -0.3242    0.7288   -0.8826 C   0  0  0  0  0  0  0  0  0  0  0  0
    0.0529   -0.5735   -0.2180 C   0  0  0  0  0  0  0  0  0  0  0  0
    0.3058   -1.6689   -0.7654 O   0  0  0  0  0  0  0  0  0  0  0  0
    2.0884    1.6570   -0.4726 H   0  0  0  0  0  0  0  0  0  0  0  0
    2.8453    0.0240   -0.2900 H   0  0  0  0  0  0  0  0  0  0  0  0
    2.7701    1.1453    1.0796 H   0  0  0  0  0  0  0  0  0  0  0  0
    1.0532   -0.2980    1.6772 H   0  0  0  0  0  0  0  0  0  0  0  0
   -0.5517    1.9381    1.0095 H   0  0  0  0  0  0  0  0  0  0  0  0
   -1.1611   -0.7176    1.6508 H   0  0  0  0  0  0  0  0  0  0  0  0
   -2.9995    0.5607    0.3122 H   0  0  0  0  0  0  0  0  0  0  0  0
   -2.7010   -0.9949   -0.5472 H   0  0  0  0  0  0  0  0  0  0  0  0
    0.3972    1.2039   -1.5173 H   0  0  0  0  0  0  0  0  0  0  0  0
    0.4260   -1.7482   -1.7644 H   0  0  0  0  0  0  0  0  0  0  0  0
  1  2  1  0
  2  3  1  0
  3  4  1  0
  4  5  1  0
  5  6  1  0
  6  7  1  0
  7  8  1  0
  8  9  1  0
  8  2  1  0
  7  3  1  0
  8  4  1  0
  1 10  1  0
  1 11  1  0
  1 12  1  0
  2 13  1  0
  3 14  1  0
  4 15  1  0
  5 16  1  0
  5 17  1  0
  7 18  1  0
  9 19  1  0
M  END
