
     RDKit          3D

 25 26  0  0  0  0  0  0  0  0999 V2000
    3.1025    0.2995   -0.2255 C   0  0  0  0  0  0  0  0  0  0  0  0
    1.7223    0.3851    0.3165 C   0  0  0  0  0  0  0  0  0  0  0  0
    1.1153   -0.9915    0.6103 C   0  0  0  0  0  0  0  0  0  0  0  0
   -0.3247   -0.5924    0.9092 C   0  0  0  0  0  0  0  0  0  0  0  0
   -1.3536   -1.3147    0.0877 C   0  0  0  0  0  0  0  0  0  0  0  0
   -1.6623   -0.0224   -0.6609 C   0  0  0  0  0  0  0  0  0  0  0  0
   -3.0254    0.5273   -0.2360 C   0  0  0  0  0  0  0  0  0  0  0  0
   -0.5804    0.6657    0.0966 C   0  0  0  0  0  0  0  0  0  0  0  0
    0.7099    0.9124   -0.6881 C   0  0  0  0  0  0  0  0  0  0  0  0
    3.7474    0.9909    0.3917 H   0  0  0  0  0  0  0  0  0  0  0  0
    3.4910   -0.7343    0.0080 H   0  0  0  0  0  0  0  0  0  0  0  0
    3.2141    0.5587   -1.2842 H   0  0  0  0  0  0  0  0  0  0  0  0
    1.6376    1.0366    1.2099 H   0  0  0  0  0  0  0  0  0  0  0  0
    1.6045   -1.4856    1.4557 H   0  0  0  0  0  0  0  0  0  0  0  0
    1.1968   -1.5572   -0.3384 H   0  0  0  0  0  0  0  0  0  0  0  0
   -0.5360   -0.4974    1.9897 H   0  0  0  0  0  0  0  0  0  0  0  0
   -2.2064   -1.6668    0.7095 H   0  0  0  0  0  0  0  0  0  0  0  0
   -0.9765   -2.1118   -0.5692 H   0  0  0  0  0  0  0  0  0  0  0  0
   -1.5344   -0.1150   -1.7504 H   0  0  0  0  0  0  0  0  0  0  0  0
   -3.1513    0.2529    0.8341 H   0  0  0  0  0  0  0  0  0  0  0  0
   -3.8526    0.0528   -0.7811 H   0  0  0  0  0  0  0  0  0  0  0  0
   -3.0442    1.6399   -0.2879 H   0  0  0  0  0  0  0  0  0  0  0  0
   -0.8998    1.5293    0.7038 H   0  0  0  0  0  0  0  0  0  0  0  0
    0.7431    0.2638   -1.5868 H   0  0  0  0  0  0  0  0  0  0  0  0
    0.8631    1.9742   -0.9140 H   0  0  0  0  0  0  0  0  0  0  0  0
  1  2  1  0
  2  3  1  0
  3  4  1  0
  4  5  1  0
  5  6  1  0
  6  7  1  0
  6  8  1  0
  8  9  1  0
  9  2  1  0
  8  4  1  0
  1 10  1  0
  1 11  1  0
  1 12  1  0
  2 13  1  0
  3 14  1  0
  3 15  1  0
  4 16  1  0
  5 17  1  0
  5 18  1  0
  6 19  1  0
  7 20  1  0
  7 21  1  0
  7 22  1  0
  8 23  1  0
  9 24  1  0
  9 25  1  0
M  END
