
     RDKit          3D

 21 21  0  0  0  0  0  0  0  0999 V2000
   -2.3338   -0.9453    0.3389 C   0  0  0  0  0  0  0  0  0  0  0  0
   -1.2315    0.1089    0.5079 C   0  0  0  0  0  0  0  0  0  0  0  0
   -1.2822    0.9992   -0.6814 C   0  0  0  0  0  0  0  0  0  0  0  0
   -0.0642    1.0135   -1.3959 O   0  0  0  0  0  0  0  0  0  0  0  0
    0.9080    1.3343   -0.4347 C   0  0  0  0  0  0  0  0  0  0  0  0
    1.0880    0.0994    0.4225 C   0  0  0  0  0  0  0  0  0  0  0  0
    2.0346   -0.8165   -0.3556 C   0  0  0  0  0  0  0  0  0  0  0  0
    2.2842   -1.9215    0.4750 O   0  0  0  0  0  0  0  0  0  0  0  0
   -0.0638   -0.5600    0.7079 O   0  0  0  0  0  0  0  0  0  0  0  0
   -2.9662   -0.7328   -0.5406 H   0  0  0  0  0  0  0  0  0  0  0  0
   -2.9657   -1.0098    1.2508 H   0  0  0  0  0  0  0  0  0  0  0  0
   -1.8932   -1.9555    0.1624 H   0  0  0  0  0  0  0  0  0  0  0  0
   -1.4922    0.6892    1.4233 H   0  0  0  0  0  0  0  0  0  0  0  0
   -2.0525    0.6780   -1.4358 H   0  0  0  0  0  0  0  0  0  0  0  0
   -1.4649    2.0623   -0.4045 H   0  0  0  0  0  0  0  0  0  0  0  0
    0.5664    2.1503    0.2275 H   0  0  0  0  0  0  0  0  0  0  0  0
    1.8496    1.5469   -0.9595 H   0  0  0  0  0  0  0  0  0  0  0  0
    1.6210    0.3811    1.3482 H   0  0  0  0  0  0  0  0  0  0  0  0
    1.5355   -1.2127   -1.2689 H   0  0  0  0  0  0  0  0  0  0  0  0
    3.0017   -0.3324   -0.5616 H   0  0  0  0  0  0  0  0  0  0  0  0
    2.9211   -1.5764    1.1742 H   0  0  0  0  0  0  0  0  0  0  0  0
  1  2  1  0
  2  3  1  0
  3  4  1  0
  4  5  1  0
  5  6  1  0
  6  7  1  0
  7  8  1  0
  6  9  1  0
  9  2  1  0
  1 10  1  0
  1 11  1  0
  1 12  1  0
  2 13  1  0
  3 14  1  0
  3 15  1  0
  5 16  1  0
  5 17  1  0
  6 18  1  0
  7 19  1  0
  7 20  1  0
  8 21  1  0
M  END
