
     RDKit          2D

 21 23  0  0  0  0  0  0  0  0999 V2000
    0.0000   -3.1820    0.0000 C   0  0  0  0  0  0  0  0  0  0  0  0
   -1.0607   -2.1213    0.0000 C   0  0  0  0  0  0  0  0  0  0  0  0
   -2.1213   -1.0607    0.0000 C   0  0  0  0  0  0  0  0  0  0  0  0
   -1.0607    0.0000    0.0000 C   0  0  0  0  0  0  0  0  0  0  0  0
   -0.0000   -1.0607    0.0000 C   0  0  0  0  0  0  0  0  0  0  0  0
    1.0607    0.0000    0.0000 O   0  0  0  0  0  0  0  0  0  0  0  0
    0.0000    1.0607    0.0000 C   0  0  0  0  0  0  0  0  0  0  0  0
   -0.7500    2.3597    0.0000 C   0  0  0  0  0  0  0  0  0  0  0  0
    0.7500    2.3597    0.0000 C   0  0  0  0  0  0  0  0  0  0  0  0
    1.0607   -4.2426    0.0000 H   0  0  0  0  0  0  0  0  0  0  0  0
   -1.0607   -4.2426    0.0000 H   0  0  0  0  0  0  0  0  0  0  0  0
    0.6980   -2.6367    0.0000 H   0  0  0  0  0  0  0  0  0  0  0  0
   -2.1213   -3.1820    0.0000 H   0  0  0  0  0  0  0  0  0  0  0  0
   -3.1820   -2.1213    0.0000 H   0  0  0  0  0  0  0  0  0  0  0  0
   -3.1820    0.0000    0.0000 H   0  0  0  0  0  0  0  0  0  0  0  0
   -2.2427    0.9235    0.0000 H   0  0  0  0  0  0  0  0  0  0  0  0
    0.6980   -1.6060    0.0000 H   0  0  0  0  0  0  0  0  0  0  0  0
   -2.2116    2.0223    0.0000 H   0  0  0  0  0  0  0  0  0  0  0  0
   -1.0105    3.8369    0.0000 H   0  0  0  0  0  0  0  0  0  0  0  0
    1.0105    3.8369    0.0000 H   0  0  0  0  0  0  0  0  0  0  0  0
    2.1595    1.8467    0.0000 H   0  0  0  0  0  0  0  0  0  0  0  0
  1  2  1  0
  2  3  1  0
  3  4  1  0
  4  5  1  0
  5  6  1  0
  6  7  1  0
  7  8  1  0
  8  9  1  0
  5  2  1  0
  9  7  1  0
  7  4  1  0
  1 10  1  0
  1 11  1  0
  1 12  1  0
  2 13  1  0
  3 14  1  0
  3 15  1  0
  4 16  1  0
  5 17  1  0
  8 18  1  0
  8 19  1  0
  9 20  1  0
  9 21  1  0
M  END
