
     RDKit          3D

 19 20  0  0  0  0  0  0  0  0999 V2000
    2.2208   -0.2268    0.0671 C   0  0  0  0  0  0  0  0  0  0  0  0
    0.8368    0.2262    0.5484 C   0  0  0  0  0  0  0  0  0  0  0  0
    0.1561   -1.0715    0.9471 C   0  0  0  0  0  0  0  0  0  0  0  0
    0.5785   -1.7489    1.9333 O   0  0  0  0  0  0  0  0  0  0  0  0
   -1.0076   -1.5766    0.2026 C   0  0  0  0  0  0  0  0  0  0  0  0
   -1.8359   -0.6402   -0.2949 C   0  0  0  0  0  0  0  0  0  0  0  0
   -1.4089    0.7071    0.0081 C   0  0  0  0  0  0  0  0  0  0  0  0
   -0.8919    1.7696   -0.7597 C   0  0  0  0  0  0  0  0  0  0  0  0
    0.0433    0.7314   -0.5923 C   0  0  0  0  0  0  0  0  0  0  0  0
    2.6866    0.5112   -0.5980 H   0  0  0  0  0  0  0  0  0  0  0  0
    2.8766   -0.5065    0.8948 H   0  0  0  0  0  0  0  0  0  0  0  0
    2.0313   -1.1421   -0.5640 H   0  0  0  0  0  0  0  0  0  0  0  0
    0.9260    0.9052    1.4061 H   0  0  0  0  0  0  0  0  0  0  0  0
   -1.1699   -2.6411    0.0759 H   0  0  0  0  0  0  0  0  0  0  0  0
   -2.7035   -0.9653   -0.8492 H   0  0  0  0  0  0  0  0  0  0  0  0
   -1.4880    0.8951    1.1227 H   0  0  0  0  0  0  0  0  0  0  0  0
   -1.3319    1.9407   -1.7827 H   0  0  0  0  0  0  0  0  0  0  0  0
   -0.7399    2.7678   -0.2744 H   0  0  0  0  0  0  0  0  0  0  0  0
    0.2217    0.0647   -1.4910 H   0  0  0  0  0  0  0  0  0  0  0  0
  1  2  1  0
  2  3  1  0
  3  4  2  0
  3  5  1  0
  5  6  2  0
  6  7  1  0
  7  8  1  0
  8  9  1  0
  9  2  1  0
  9  7  1  0
  1 10  1  0
  1 11  1  0
  1 12  1  0
  2 13  1  0
  5 14  1  0
  6 15  1  0
  7 16  1  0
  8 17  1  0
  8 18  1  0
  9 19  1  0
M  END
