
     RDKit          3D

 21 23  0  0  0  0  0  0  0  0999 V2000
    2.6659    0.4288   -0.3304 C   0  0  0  0  0  0  0  0  0  0  0  0
    1.1647    0.5308   -0.3358 C   0  0  0  0  0  0  0  0  0  0  0  0
    0.4543   -0.2755    0.6848 C   0  0  0  0  0  0  0  0  0  0  0  0
   -0.9842    0.0055    1.0014 C   0  0  0  0  0  0  0  0  0  0  0  0
   -1.4221    1.2018    0.1895 C   0  0  0  0  0  0  0  0  0  0  0  0
   -1.4186    0.7921   -1.1237 O   0  0  0  0  0  0  0  0  0  0  0  0
   -1.0574   -0.5490   -1.1672 C   0  0  0  0  0  0  0  0  0  0  0  0
   -1.6678   -1.0788    0.1449 C   0  0  0  0  0  0  0  0  0  0  0  0
    0.4043   -0.6389   -0.8371 C   0  0  0  0  0  0  0  0  0  0  0  0
    2.9922   -0.1161   -1.2404 H   0  0  0  0  0  0  0  0  0  0  0  0
    3.0488   -0.1078    0.5781 H   0  0  0  0  0  0  0  0  0  0  0  0
    3.1544    1.4431   -0.2747 H   0  0  0  0  0  0  0  0  0  0  0  0
    0.7915    1.5367   -0.5998 H   0  0  0  0  0  0  0  0  0  0  0  0
    0.9775   -1.0267    1.2830 H   0  0  0  0  0  0  0  0  0  0  0  0
   -1.2718   -0.0070    2.0275 H   0  0  0  0  0  0  0  0  0  0  0  0
   -0.8848    2.1174    0.4056 H   0  0  0  0  0  0  0  0  0  0  0  0
   -2.4999    1.3804    0.4664 H   0  0  0  0  0  0  0  0  0  0  0  0
   -1.3823   -1.0921   -2.0330 H   0  0  0  0  0  0  0  0  0  0  0  0
   -1.2970   -2.0754    0.3915 H   0  0  0  0  0  0  0  0  0  0  0  0
   -2.7521   -0.9687    0.1621 H   0  0  0  0  0  0  0  0  0  0  0  0
    0.9843   -1.5005   -1.1581 H   0  0  0  0  0  0  0  0  0  0  0  0
  1  2  1  0
  2  3  1  0
  3  4  1  0
  4  5  1  0
  5  6  1  0
  6  7  1  0
  7  8  1  0
  7  9  1  0
  9  2  1  0
  9  3  1  0
  8  4  1  0
  1 10  1  0
  1 11  1  0
  1 12  1  0
  2 13  1  0
  3 14  1  0
  4 15  1  0
  5 16  1  0
  5 17  1  0
  7 18  1  0
  8 19  1  0
  8 20  1  0
  9 21  1  0
M  END
