
     RDKit          3D

 25 25  0  0  0  0  0  0  0  0999 V2000
    3.1364    0.0196    0.3377 C   0  0  0  0  0  0  0  0  0  0  0  0
    1.8288    0.0293   -0.3814 C   0  0  0  0  0  0  0  0  0  0  0  0
    1.3570   -1.3036   -0.8445 C   0  0  0  0  0  0  0  0  0  0  0  0
    0.0403   -1.4544   -0.5363 O   0  0  0  0  0  0  0  0  0  0  0  0
   -0.3852   -0.4458    0.2715 C   0  0  0  0  0  0  0  0  0  0  0  0
   -1.5990    0.2849   -0.2601 C   0  0  0  0  0  0  0  0  0  0  0  0
   -2.7789   -0.6324   -0.4323 C   0  0  0  0  0  0  0  0  0  0  0  0
   -2.0107    1.4279    0.6137 C   0  0  0  0  0  0  0  0  0  0  0  0
    0.7333    0.4928    0.5515 C   0  0  0  0  0  0  0  0  0  0  0  0
    3.4078   -0.9348    0.7875 H   0  0  0  0  0  0  0  0  0  0  0  0
    3.9842    0.3075   -0.3401 H   0  0  0  0  0  0  0  0  0  0  0  0
    3.1567    0.7890    1.1635 H   0  0  0  0  0  0  0  0  0  0  0  0
    1.9293    0.6931   -1.2708 H   0  0  0  0  0  0  0  0  0  0  0  0
    1.9732   -2.1532   -0.4277 H   0  0  0  0  0  0  0  0  0  0  0  0
    1.4675   -1.4200   -1.9627 H   0  0  0  0  0  0  0  0  0  0  0  0
   -0.7106   -0.8983    1.2547 H   0  0  0  0  0  0  0  0  0  0  0  0
   -1.2941    0.7021   -1.2542 H   0  0  0  0  0  0  0  0  0  0  0  0
   -3.7045   -0.2438    0.0451 H   0  0  0  0  0  0  0  0  0  0  0  0
   -3.0272   -0.7190   -1.5297 H   0  0  0  0  0  0  0  0  0  0  0  0
   -2.6033   -1.6429   -0.0205 H   0  0  0  0  0  0  0  0  0  0  0  0
   -2.8862    1.1218    1.2310 H   0  0  0  0  0  0  0  0  0  0  0  0
   -1.2290    1.7552    1.3237 H   0  0  0  0  0  0  0  0  0  0  0  0
   -2.3732    2.2559   -0.0295 H   0  0  0  0  0  0  0  0  0  0  0  0
    0.4994    1.5428    0.2617 H   0  0  0  0  0  0  0  0  0  0  0  0
    1.0881    0.4264    1.5968 H   0  0  0  0  0  0  0  0  0  0  0  0
  1  2  1  0
  2  3  1  0
  3  4  1  0
  4  5  1  0
  5  6  1  0
  6  7  1  0
  6  8  1  0
  5  9  1  0
  9  2  1  0
  1 10  1  0
  1 11  1  0
  1 12  1  0
  2 13  1  0
  3 14  1  0
  3 15  1  0
  5 16  1  0
  6 17  1  0
  7 18  1  0
  7 19  1  0
  7 20  1  0
  8 21  1  0
  8 22  1  0
  8 23  1  0
  9 24  1  0
  9 25  1  0
M  END
