
     RDKit          3D

 21 23  0  0  0  0  0  0  0  0999 V2000
    2.4437    0.0935   -0.6296 C   0  0  0  0  0  0  0  0  0  0  0  0
    1.1232    0.6263   -0.1750 C   0  0  0  0  0  0  0  0  0  0  0  0
    0.9611    0.2928    1.2952 C   0  0  0  0  0  0  0  0  0  0  0  0
   -0.4923   -0.1608    1.4300 C   0  0  0  0  0  0  0  0  0  0  0  0
   -0.7640   -1.3696    0.5156 C   0  0  0  0  0  0  0  0  0  0  0  0
   -0.1079   -1.4271   -0.6985 O   0  0  0  0  0  0  0  0  0  0  0  0
   -0.0538   -0.0443   -0.8712 C   0  0  0  0  0  0  0  0  0  0  0  0
   -1.1229    0.0902    0.1615 C   0  0  0  0  0  0  0  0  0  0  0  0
   -2.5307    0.3296   -0.1237 C   0  0  0  0  0  0  0  0  0  0  0  0
    2.4647   -0.1748   -1.7019 H   0  0  0  0  0  0  0  0  0  0  0  0
    3.2084    0.8877   -0.3819 H   0  0  0  0  0  0  0  0  0  0  0  0
    2.7543   -0.7900   -0.0114 H   0  0  0  0  0  0  0  0  0  0  0  0
    1.0137    1.7089   -0.3440 H   0  0  0  0  0  0  0  0  0  0  0  0
    1.1487    1.1621    1.9363 H   0  0  0  0  0  0  0  0  0  0  0  0
    1.6652   -0.5189    1.6091 H   0  0  0  0  0  0  0  0  0  0  0  0
   -0.9656   -0.1928    2.4036 H   0  0  0  0  0  0  0  0  0  0  0  0
   -1.5859   -2.0381    0.7653 H   0  0  0  0  0  0  0  0  0  0  0  0
   -0.2878    0.3400   -1.8587 H   0  0  0  0  0  0  0  0  0  0  0  0
   -2.9993    0.8775    0.7446 H   0  0  0  0  0  0  0  0  0  0  0  0
   -3.1147   -0.6248   -0.2009 H   0  0  0  0  0  0  0  0  0  0  0  0
   -2.7580    0.9325   -1.0103 H   0  0  0  0  0  0  0  0  0  0  0  0
  1  2  1  0
  2  3  1  0
  3  4  1  0
  4  5  1  0
  5  6  1  0
  6  7  1  0
  7  8  1  0
  8  9  1  0
  7  2  1  0
  8  4  1  0
  8  5  1  0
  1 10  1  0
  1 11  1  0
  1 12  1  0
  2 13  1  0
  3 14  1  0
  3 15  1  0
  4 16  1  0
  5 17  1  0
  7 18  1  0
  9 19  1  0
  9 20  1  0
  9 21  1  0
M  END
