
     RDKit          3D

 23 24  0  0  0  0  0  0  0  0999 V2000
    2.3941   -0.3870   -0.2848 C   0  0  0  0  0  0  0  0  0  0  0  0
    1.2419    0.4213    0.1893 C   0  0  0  0  0  0  0  0  0  0  0  0
    0.6382   -0.1224    1.4929 C   0  0  0  0  0  0  0  0  0  0  0  0
   -0.8422   -0.1778    1.1732 C   0  0  0  0  0  0  0  0  0  0  0  0
   -1.3598    1.0947    0.9333 O   0  0  0  0  0  0  0  0  0  0  0  0
   -0.8235    1.5720   -0.2356 C   0  0  0  0  0  0  0  0  0  0  0  0
    0.0794    0.4677   -0.7591 C   0  0  0  0  0  0  0  0  0  0  0  0
   -0.7337   -0.7357   -0.2586 C   0  0  0  0  0  0  0  0  0  0  0  0
   -2.0570   -0.8465   -0.9146 C   0  0  0  0  0  0  0  0  0  0  0  0
    3.3432    0.2230   -0.2359 H   0  0  0  0  0  0  0  0  0  0  0  0
    2.5885   -1.3005    0.2827 H   0  0  0  0  0  0  0  0  0  0  0  0
    2.2700   -0.6165   -1.3694 H   0  0  0  0  0  0  0  0  0  0  0  0
    1.5798    1.4651    0.4294 H   0  0  0  0  0  0  0  0  0  0  0  0
    0.8760    0.5016    2.3492 H   0  0  0  0  0  0  0  0  0  0  0  0
    0.9840   -1.1732    1.5695 H   0  0  0  0  0  0  0  0  0  0  0  0
   -1.4295   -0.7934    1.8240 H   0  0  0  0  0  0  0  0  0  0  0  0
   -1.5409    1.9254   -0.9768 H   0  0  0  0  0  0  0  0  0  0  0  0
   -0.1314    2.4258    0.0166 H   0  0  0  0  0  0  0  0  0  0  0  0
    0.2821    0.4737   -1.7976 H   0  0  0  0  0  0  0  0  0  0  0  0
   -0.1418   -1.6429   -0.2057 H   0  0  0  0  0  0  0  0  0  0  0  0
   -2.4280    0.1103   -1.2749 H   0  0  0  0  0  0  0  0  0  0  0  0
   -1.9836   -1.5851   -1.7454 H   0  0  0  0  0  0  0  0  0  0  0  0
   -2.8056   -1.2996   -0.2018 H   0  0  0  0  0  0  0  0  0  0  0  0
  1  2  1  0
  2  3  1  0
  3  4  1  0
  4  5  1  0
  5  6  1  0
  6  7  1  0
  7  8  1  0
  8  9  1  0
  7  2  1  0
  8  4  1  0
  1 10  1  0
  1 11  1  0
  1 12  1  0
  2 13  1  0
  3 14  1  0
  3 15  1  0
  4 16  1  0
  6 17  1  0
  6 18  1  0
  7 19  1  0
  8 20  1  0
  9 21  1  0
  9 22  1  0
  9 23  1  0
M  END
