
     RDKit          3D

 21 22  0  0  0  0  0  0  0  0999 V2000
   -2.1293    1.3950    0.0671 C   0  0  0  0  0  0  0  0  0  0  0  0
   -1.1029    0.3445    0.4452 C   0  0  0  0  0  0  0  0  0  0  0  0
   -1.1420   -0.7199   -0.6209 C   0  0  0  0  0  0  0  0  0  0  0  0
   -0.1872   -1.8137   -0.2048 C   0  0  0  0  0  0  0  0  0  0  0  0
    0.3506   -1.7960    1.0807 O   0  0  0  0  0  0  0  0  0  0  0  0
    1.1244   -1.2562    0.0809 C   0  0  0  0  0  0  0  0  0  0  0  0
    1.1054    0.2638   -0.1035 C   0  0  0  0  0  0  0  0  0  0  0  0
    2.4840    0.7594    0.1665 C   0  0  0  0  0  0  0  0  0  0  0  0
    0.1388    0.8508    0.6946 O   0  0  0  0  0  0  0  0  0  0  0  0
   -2.8377    1.6123    0.8951 H   0  0  0  0  0  0  0  0  0  0  0  0
   -2.7720    1.0611   -0.7875 H   0  0  0  0  0  0  0  0  0  0  0  0
   -1.6592    2.3382   -0.2675 H   0  0  0  0  0  0  0  0  0  0  0  0
   -1.5109   -0.1455    1.3782 H   0  0  0  0  0  0  0  0  0  0  0  0
   -0.9568   -0.3343   -1.6291 H   0  0  0  0  0  0  0  0  0  0  0  0
   -2.1985   -1.1129   -0.6272 H   0  0  0  0  0  0  0  0  0  0  0  0
   -0.2413   -2.7740   -0.7352 H   0  0  0  0  0  0  0  0  0  0  0  0
    2.0335   -1.7503   -0.2748 H   0  0  0  0  0  0  0  0  0  0  0  0
    0.8371    0.5179   -1.1628 H   0  0  0  0  0  0  0  0  0  0  0  0
    3.0542    0.7438   -0.8089 H   0  0  0  0  0  0  0  0  0  0  0  0
    3.0564    0.0341    0.8164 H   0  0  0  0  0  0  0  0  0  0  0  0
    2.5535    1.7820    0.5412 H   0  0  0  0  0  0  0  0  0  0  0  0
  1  2  1  0
  2  3  1  0
  3  4  1  0
  4  5  1  0
  5  6  1  0
  6  7  1  0
  7  8  1  0
  7  9  1  0
  9  2  1  0
  6  4  1  0
  1 10  1  0
  1 11  1  0
  1 12  1  0
  2 13  1  0
  3 14  1  0
  3 15  1  0
  4 16  1  0
  6 17  1  0
  7 18  1  0
  8 19  1  0
  8 20  1  0
  8 21  1  0
M  END
