
     RDKit          3D

 21 22  0  0  0  0  0  0  0  0999 V2000
    2.4502    0.1022   -0.0742 C   0  0  0  0  0  0  0  0  0  0  0  0
    0.9974    0.3207    0.1545 C   0  0  0  0  0  0  0  0  0  0  0  0
    0.2291    1.0415   -0.9044 C   0  0  0  0  0  0  0  0  0  0  0  0
   -0.3523    2.2207   -0.4935 O   0  0  0  0  0  0  0  0  0  0  0  0
   -0.7818   -0.0794   -0.8879 C   0  0  0  0  0  0  0  0  0  0  0  0
   -2.1973    0.1595   -0.5360 C   0  0  0  0  0  0  0  0  0  0  0  0
   -0.2938   -1.3009   -1.2628 O   0  0  0  0  0  0  0  0  0  0  0  0
    0.1374   -0.8769   -0.0402 C   0  0  0  0  0  0  0  0  0  0  0  0
   -0.4132   -1.4811    1.2282 C   0  0  0  0  0  0  0  0  0  0  0  0
    2.7490   -0.8027    0.5328 H   0  0  0  0  0  0  0  0  0  0  0  0
    2.7144   -0.1203   -1.1173 H   0  0  0  0  0  0  0  0  0  0  0  0
    3.0648    0.9328    0.3638 H   0  0  0  0  0  0  0  0  0  0  0  0
    0.8313    0.8173    1.1528 H   0  0  0  0  0  0  0  0  0  0  0  0
    0.7305    1.0587   -1.8995 H   0  0  0  0  0  0  0  0  0  0  0  0
   -0.4300    2.1628    0.5090 H   0  0  0  0  0  0  0  0  0  0  0  0
   -2.8609   -0.4651   -1.1895 H   0  0  0  0  0  0  0  0  0  0  0  0
   -2.4686   -0.1305    0.5139 H   0  0  0  0  0  0  0  0  0  0  0  0
   -2.5131    1.2013   -0.6940 H   0  0  0  0  0  0  0  0  0  0  0  0
   -1.1680   -2.2579    1.0536 H   0  0  0  0  0  0  0  0  0  0  0  0
   -0.8980   -0.6423    1.7890 H   0  0  0  0  0  0  0  0  0  0  0  0
    0.4728   -1.8605    1.8018 H   0  0  0  0  0  0  0  0  0  0  0  0
  1  2  1  0
  2  3  1  0
  3  4  1  0
  3  5  1  0
  5  6  1  0
  5  7  1  0
  7  8  1  0
  8  9  1  0
  8  2  1  0
  8  5  1  0
  1 10  1  0
  1 11  1  0
  1 12  1  0
  2 13  1  0
  3 14  1  0
  4 15  1  0
  6 16  1  0
  6 17  1  0
  6 18  1  0
  9 19  1  0
  9 20  1  0
  9 21  1  0
M  END
