
     RDKit          3D

 19 20  0  0  0  0  0  0  0  0999 V2000
    2.0283   -0.1843    0.0658 C   0  0  0  0  0  0  0  0  0  0  0  0
    0.6038   -0.4886    0.3857 C   0  0  0  0  0  0  0  0  0  0  0  0
   -0.0868   -1.2608   -0.7507 C   0  0  0  0  0  0  0  0  0  0  0  0
   -1.5238   -1.0089   -0.4589 C   0  0  0  0  0  0  0  0  0  0  0  0
   -2.4473   -1.5584   -1.0161 O   0  0  0  0  0  0  0  0  0  0  0  0
   -1.6616    0.0116    0.6123 C   0  0  0  0  0  0  0  0  0  0  0  0
   -0.2864    0.6821    0.5023 C   0  0  0  0  0  0  0  0  0  0  0  0
   -0.1923    1.9154   -0.2373 C   0  0  0  0  0  0  0  0  0  0  0  0
   -0.0165    1.8059    1.1994 O   0  0  0  0  0  0  0  0  0  0  0  0
    2.6780   -0.8982    0.6209 H   0  0  0  0  0  0  0  0  0  0  0  0
    2.3450    0.8374    0.3734 H   0  0  0  0  0  0  0  0  0  0  0  0
    2.2838   -0.2962   -1.0058 H   0  0  0  0  0  0  0  0  0  0  0  0
    0.5099   -1.1386    1.2963 H   0  0  0  0  0  0  0  0  0  0  0  0
    0.2290   -0.9048   -1.7303 H   0  0  0  0  0  0  0  0  0  0  0  0
    0.1296   -2.3339   -0.5775 H   0  0  0  0  0  0  0  0  0  0  0  0
   -1.6995   -0.4795    1.6177 H   0  0  0  0  0  0  0  0  0  0  0  0
   -2.4758    0.7216    0.4410 H   0  0  0  0  0  0  0  0  0  0  0  0
   -1.1520    2.4115   -0.5358 H   0  0  0  0  0  0  0  0  0  0  0  0
    0.7346    2.1668   -0.8023 H   0  0  0  0  0  0  0  0  0  0  0  0
  1  2  1  0
  2  3  1  0
  3  4  1  0
  4  5  2  0
  4  6  1  0
  6  7  1  0
  7  8  1  0
  8  9  1  0
  7  2  1  0
  9  7  1  0
  1 10  1  0
  1 11  1  0
  1 12  1  0
  2 13  1  0
  3 14  1  0
  3 15  1  0
  6 16  1  0
  6 17  1  0
  8 18  1  0
  8 19  1  0
M  END
