
     RDKit          3D

 19 20  0  0  0  0  0  0  0  0999 V2000
   -1.7317   -0.4321   -0.3732 C   0  0  0  0  0  0  0  0  0  0  0  0
   -0.9044   -0.1094    0.8146 C   0  0  0  0  0  0  0  0  0  0  0  0
    0.3848   -0.8198    0.9956 C   0  0  0  0  0  0  0  0  0  0  0  0
    1.1351   -1.0798   -0.2790 C   0  0  0  0  0  0  0  0  0  0  0  0
    1.4193    0.2128   -0.9252 C   0  0  0  0  0  0  0  0  0  0  0  0
    2.3239    0.3333   -1.7045 O   0  0  0  0  0  0  0  0  0  0  0  0
    0.5600    1.3608   -0.5887 C   0  0  0  0  0  0  0  0  0  0  0  0
   -0.0373    1.0880    0.7753 C   0  0  0  0  0  0  0  0  0  0  0  0
    0.8954    0.3748    1.5584 O   0  0  0  0  0  0  0  0  0  0  0  0
   -1.1830   -0.6422   -1.2959 H   0  0  0  0  0  0  0  0  0  0  0  0
   -2.4352    0.4109   -0.5986 H   0  0  0  0  0  0  0  0  0  0  0  0
   -2.4048   -1.2893   -0.0925 H   0  0  0  0  0  0  0  0  0  0  0  0
   -1.5091   -0.1391    1.7422 H   0  0  0  0  0  0  0  0  0  0  0  0
    0.3734   -1.6773    1.6727 H   0  0  0  0  0  0  0  0  0  0  0  0
    0.5734   -1.7014   -1.0024 H   0  0  0  0  0  0  0  0  0  0  0  0
    2.0464   -1.6583   -0.0242 H   0  0  0  0  0  0  0  0  0  0  0  0
    1.1242    2.3116   -0.5406 H   0  0  0  0  0  0  0  0  0  0  0  0
   -0.2249    1.4406   -1.3832 H   0  0  0  0  0  0  0  0  0  0  0  0
   -0.4055    2.0159    1.2495 H   0  0  0  0  0  0  0  0  0  0  0  0
  1  2  1  0
  2  3  1  0
  3  4  1  0
  4  5  1  0
  5  6  2  0
  5  7  1  0
  7  8  1  0
  8  9  1  0
  8  2  1  0
  9  3  1  0
  1 10  1  0
  1 11  1  0
  1 12  1  0
  2 13  1  0
  3 14  1  0
  4 15  1  0
  4 16  1  0
  7 17  1  0
  7 18  1  0
  8 19  1  0
M  END
