
     RDKit          3D

 20 21  0  0  0  0  0  0  0  0999 V2000
    2.5480    0.7214   -0.2802 C   0  0  0  0  0  0  0  0  0  0  0  0
    1.4537   -0.1483    0.2723 C   0  0  0  0  0  0  0  0  0  0  0  0
    0.3366   -0.1753   -0.7535 C   0  0  0  0  0  0  0  0  0  0  0  0
   -0.8854   -0.2367    0.0926 C   0  0  0  0  0  0  0  0  0  0  0  0
   -2.0830   -0.8403   -0.4458 C   0  0  0  0  0  0  0  0  0  0  0  0
   -2.0528    0.6356   -0.1861 C   0  0  0  0  0  0  0  0  0  0  0  0
   -0.3883   -0.2918    1.4748 C   0  0  0  0  0  0  0  0  0  0  0  0
    0.8453    0.3807    1.3960 O   0  0  0  0  0  0  0  0  0  0  0  0
    3.5381    0.4506    0.1248 H   0  0  0  0  0  0  0  0  0  0  0  0
    2.6036    0.5564   -1.3891 H   0  0  0  0  0  0  0  0  0  0  0  0
    2.2657    1.7735   -0.1064 H   0  0  0  0  0  0  0  0  0  0  0  0
    1.8092   -1.1708    0.4911 H   0  0  0  0  0  0  0  0  0  0  0  0
    0.3519    0.6990   -1.4097 H   0  0  0  0  0  0  0  0  0  0  0  0
    0.4129   -1.0812   -1.3937 H   0  0  0  0  0  0  0  0  0  0  0  0
   -2.7742   -1.5036    0.0945 H   0  0  0  0  0  0  0  0  0  0  0  0
   -2.0789   -1.0670   -1.5544 H   0  0  0  0  0  0  0  0  0  0  0  0
   -2.7422    0.9648    0.6168 H   0  0  0  0  0  0  0  0  0  0  0  0
   -1.9167    1.3581   -1.0077 H   0  0  0  0  0  0  0  0  0  0  0  0
   -0.1915   -1.3144    1.8107 H   0  0  0  0  0  0  0  0  0  0  0  0
   -1.0521    0.2893    2.1530 H   0  0  0  0  0  0  0  0  0  0  0  0
  1  2  1  0
  2  3  1  0
  3  4  1  0
  4  5  1  0
  5  6  1  0
  4  7  1  0
  7  8  1  0
  8  2  1  0
  6  4  1  0
  1  9  1  0
  1 10  1  0
  1 11  1  0
  2 12  1  0
  3 13  1  0
  3 14  1  0
  5 15  1  0
  5 16  1  0
  6 17  1  0
  6 18  1  0
  7 19  1  0
  7 20  1  0
M  END
