
     RDKit          3D

 16 17  0  0  0  0  0  0  0  0999 V2000
   -1.8988   -0.7777    0.4083 C   0  0  0  0  0  0  0  0  0  0  0  0
   -0.5682   -0.7024   -0.3611 C   0  0  0  0  0  0  0  0  0  0  0  0
   -0.1594    0.4958   -1.0100 C   0  0  0  0  0  0  0  0  0  0  0  0
    1.1057    1.0736   -1.1048 O   0  0  0  0  0  0  0  0  0  0  0  0
    0.7902    1.4844    0.2207 C   0  0  0  0  0  0  0  0  0  0  0  0
    0.4830   -0.0183    0.3414 C   0  0  0  0  0  0  0  0  0  0  0  0
    1.8168   -0.7206    0.1708 C   0  0  0  0  0  0  0  0  0  0  0  0
    2.5783   -0.6478    1.1073 O   0  0  0  0  0  0  0  0  0  0  0  0
   -2.7078   -1.1657   -0.2232 H   0  0  0  0  0  0  0  0  0  0  0  0
   -1.7165   -1.5746    1.1878 H   0  0  0  0  0  0  0  0  0  0  0  0
   -2.0906    0.1851    0.8812 H   0  0  0  0  0  0  0  0  0  0  0  0
   -0.4193   -1.6679   -0.9332 H   0  0  0  0  0  0  0  0  0  0  0  0
   -0.8957    1.3501   -0.8717 H   0  0  0  0  0  0  0  0  0  0  0  0
   -0.0560    2.1515    0.3237 H   0  0  0  0  0  0  0  0  0  0  0  0
    1.6521    1.7835    0.8192 H   0  0  0  0  0  0  0  0  0  0  0  0
    2.0861   -1.2491   -0.7074 H   0  0  0  0  0  0  0  0  0  0  0  0
  1  2  1  0
  2  3  1  0
  3  4  1  0
  4  5  1  0
  5  6  1  0
  6  7  1  0
  7  8  2  0
  6  2  1  0
  6  3  1  0
  1  9  1  0
  1 10  1  0
  1 11  1  0
  2 12  1  0
  3 13  1  0
  5 14  1  0
  5 15  1  0
  7 16  1  0
M  END
