
     RDKit          3D

 21 22  0  0  0  0  0  0  0  0999 V2000
   -0.6729   -2.0937    0.5369 C   0  0  0  0  0  0  0  0  0  0  0  0
   -0.4961   -0.7245   -0.0333 C   0  0  0  0  0  0  0  0  0  0  0  0
   -1.3394    0.3286    0.5985 C   0  0  0  0  0  0  0  0  0  0  0  0
   -1.3364    1.5164   -0.3341 C   0  0  0  0  0  0  0  0  0  0  0  0
   -0.0846    1.9646   -0.2720 C   0  0  0  0  0  0  0  0  0  0  0  0
    0.5890    1.1800    0.7885 C   0  0  0  0  0  0  0  0  0  0  0  0
   -0.5119    0.8591    1.6168 O   0  0  0  0  0  0  0  0  0  0  0  0
    0.9158   -0.1740    0.2216 C   0  0  0  0  0  0  0  0  0  0  0  0
    1.6813   -0.1206   -1.0613 C   0  0  0  0  0  0  0  0  0  0  0  0
   -0.9622   -2.1130    1.5919 H   0  0  0  0  0  0  0  0  0  0  0  0
    0.2814   -2.6614    0.3373 H   0  0  0  0  0  0  0  0  0  0  0  0
   -1.4340   -2.6189   -0.1042 H   0  0  0  0  0  0  0  0  0  0  0  0
   -0.6667   -0.7077   -1.1277 H   0  0  0  0  0  0  0  0  0  0  0  0
   -2.3134    0.0435    0.9331 H   0  0  0  0  0  0  0  0  0  0  0  0
   -2.1529    1.9044   -0.9094 H   0  0  0  0  0  0  0  0  0  0  0  0
    0.2967    2.7557   -0.9084 H   0  0  0  0  0  0  0  0  0  0  0  0
    1.3877    1.6792    1.3038 H   0  0  0  0  0  0  0  0  0  0  0  0
    1.3491   -0.7969    1.0002 H   0  0  0  0  0  0  0  0  0  0  0  0
    1.0646    0.4711   -1.7877 H   0  0  0  0  0  0  0  0  0  0  0  0
    2.6200    0.4257   -0.9167 H   0  0  0  0  0  0  0  0  0  0  0  0
    1.7848   -1.1177   -1.4738 H   0  0  0  0  0  0  0  0  0  0  0  0
  1  2  1  0
  2  3  1  0
  3  4  1  0
  4  5  2  0
  5  6  1  0
  6  7  1  0
  6  8  1  0
  8  9  1  0
  8  2  1  0
  7  3  1  0
  1 10  1  0
  1 11  1  0
  1 12  1  0
  2 13  1  0
  3 14  1  0
  4 15  1  0
  5 16  1  0
  6 17  1  0
  8 18  1  0
  9 19  1  0
  9 20  1  0
  9 21  1  0
M  END
