
     RDKit          3D

 17 17  0  0  0  0  0  0  0  0999 V2000
    2.1374    0.0608   -0.2512 C   0  0  0  0  0  0  0  0  0  0  0  0
    0.6879   -0.2304    0.1489 C   0  0  0  0  0  0  0  0  0  0  0  0
   -0.0758   -0.5649   -1.0827 C   0  0  0  0  0  0  0  0  0  0  0  0
   -1.3811   -0.0336   -1.0825 O   0  0  0  0  0  0  0  0  0  0  0  0
   -1.7967   -0.1622    0.2656 C   0  0  0  0  0  0  0  0  0  0  0  0
   -1.1080    0.9679    0.9962 C   0  0  0  0  0  0  0  0  0  0  0  0
    0.2358    0.8386    0.8615 O   0  0  0  0  0  0  0  0  0  0  0  0
    2.2773   -0.0394   -1.3527 H   0  0  0  0  0  0  0  0  0  0  0  0
    2.8443   -0.6025    0.3058 H   0  0  0  0  0  0  0  0  0  0  0  0
    2.4311    1.0972    0.0210 H   0  0  0  0  0  0  0  0  0  0  0  0
    0.6424   -1.1308    0.8247 H   0  0  0  0  0  0  0  0  0  0  0  0
   -0.2310   -1.6797   -1.1891 H   0  0  0  0  0  0  0  0  0  0  0  0
    0.4239   -0.2616   -2.0245 H   0  0  0  0  0  0  0  0  0  0  0  0
   -1.4101   -1.1060    0.7113 H   0  0  0  0  0  0  0  0  0  0  0  0
   -2.8851   -0.0919    0.3204 H   0  0  0  0  0  0  0  0  0  0  0  0
   -1.4227    1.9096    0.4686 H   0  0  0  0  0  0  0  0  0  0  0  0
   -1.3696    1.0290    2.0589 H   0  0  0  0  0  0  0  0  0  0  0  0
  1  2  1  0
  2  3  1  0
  3  4  1  0
  4  5  1  0
  5  6  1  0
  6  7  1  0
  7  2  1  0
  1  8  1  0
  1  9  1  0
  1 10  1  0
  2 11  1  0
  3 12  1  0
  3 13  1  0
  5 14  1  0
  5 15  1  0
  6 16  1  0
  6 17  1  0
M  END
