
     RDKit          3D

 17 18  0  0  0  0  0  0  0  0999 V2000
   -2.4659    0.6861   -0.2531 C   0  0  0  0  0  0  0  0  0  0  0  0
   -1.2728   -0.1888   -0.0820 C   0  0  0  0  0  0  0  0  0  0  0  0
   -1.2617   -1.5683    0.0584 C   0  0  0  0  0  0  0  0  0  0  0  0
   -0.0259   -1.9870    0.1862 O   0  0  0  0  0  0  0  0  0  0  0  0
    0.8281   -0.9767    0.1431 C   0  0  0  0  0  0  0  0  0  0  0  0
    0.0628    0.1566   -0.0245 C   0  0  0  0  0  0  0  0  0  0  0  0
    0.9830    1.2806   -0.0745 C   0  0  0  0  0  0  0  0  0  0  0  0
    2.2284    0.8644    0.0538 C   0  0  0  0  0  0  0  0  0  0  0  0
    2.2801   -0.6019    0.2057 C   0  0  0  0  0  0  0  0  0  0  0  0
   -2.3030    1.7029    0.1053 H   0  0  0  0  0  0  0  0  0  0  0  0
   -3.2669    0.2446    0.4100 H   0  0  0  0  0  0  0  0  0  0  0  0
   -2.8608    0.6821   -1.2756 H   0  0  0  0  0  0  0  0  0  0  0  0
   -2.1434   -2.2027    0.0615 H   0  0  0  0  0  0  0  0  0  0  0  0
    0.6459    2.3136   -0.2024 H   0  0  0  0  0  0  0  0  0  0  0  0
    3.0780    1.5261    0.0456 H   0  0  0  0  0  0  0  0  0  0  0  0
    2.6679   -0.8202    1.2301 H   0  0  0  0  0  0  0  0  0  0  0  0
    2.8262   -1.1113   -0.5876 H   0  0  0  0  0  0  0  0  0  0  0  0
  1  2  1  0
  2  3  2  0
  3  4  1  0
  4  5  1  0
  5  6  2  0
  6  7  1  0
  7  8  2  0
  8  9  1  0
  6  2  1  0
  9  5  1  0
  1 10  1  0
  1 11  1  0
  1 12  1  0
  3 13  1  0
  7 14  1  0
  8 15  1  0
  9 16  1  0
  9 17  1  0
M  END
