
     RDKit          3D

 21 22  0  0  0  0  0  0  0  0999 V2000
   -2.6102   -0.5895   -0.4743 C   0  0  0  0  0  0  0  0  0  0  0  0
   -1.6972    0.3068    0.3757 C   0  0  0  0  0  0  0  0  0  0  0  0
   -0.5980   -0.3269    0.9766 C   0  0  0  0  0  0  0  0  0  0  0  0
    0.5743   -1.0724    0.4822 C   0  0  0  0  0  0  0  0  0  0  0  0
    1.6059    0.0774    0.5415 C   0  0  0  0  0  0  0  0  0  0  0  0
    2.5890   -0.0355   -0.5385 C   0  0  0  0  0  0  0  0  0  0  0  0
    2.2474   -0.4110   -1.6406 O   0  0  0  0  0  0  0  0  0  0  0  0
    0.7552    1.3588    0.4041 C   0  0  0  0  0  0  0  0  0  0  0  0
   -0.4880    0.7822   -0.1508 C   0  0  0  0  0  0  0  0  0  0  0  0
   -2.8469   -1.5327    0.0497 H   0  0  0  0  0  0  0  0  0  0  0  0
   -3.5355   -0.0967   -0.7540 H   0  0  0  0  0  0  0  0  0  0  0  0
   -2.0519   -0.8241   -1.4265 H   0  0  0  0  0  0  0  0  0  0  0  0
   -2.3373    1.0127    0.9653 H   0  0  0  0  0  0  0  0  0  0  0  0
   -0.3590    0.0394    2.0262 H   0  0  0  0  0  0  0  0  0  0  0  0
    0.9019   -1.9181    1.0994 H   0  0  0  0  0  0  0  0  0  0  0  0
    0.4972   -1.3192   -0.6051 H   0  0  0  0  0  0  0  0  0  0  0  0
    2.0246    0.0562    1.5527 H   0  0  0  0  0  0  0  0  0  0  0  0
    3.6305    0.2332   -0.2993 H   0  0  0  0  0  0  0  0  0  0  0  0
    0.6586    1.8743    1.3620 H   0  0  0  0  0  0  0  0  0  0  0  0
    1.2873    2.0004   -0.3253 H   0  0  0  0  0  0  0  0  0  0  0  0
   -0.2478    0.3847   -1.1885 H   0  0  0  0  0  0  0  0  0  0  0  0
  1  2  1  0
  2  3  1  0
  3  4  1  0
  4  5  1  0
  5  6  1  0
  6  7  2  0
  5  8  1  0
  8  9  1  0
  9  2  1  0
  9  3  1  0
  1 10  1  0
  1 11  1  0
  1 12  1  0
  2 13  1  0
  3 14  1  0
  4 15  1  0
  4 16  1  0
  5 17  1  0
  6 18  1  0
  8 19  1  0
  8 20  1  0
  9 21  1  0
M  END
