
     RDKit          3D

 21 22  0  0  0  0  0  0  0  0999 V2000
    2.1947   -1.0983   -0.3525 C   0  0  0  0  0  0  0  0  0  0  0  0
    1.4195   -0.0415    0.3912 C   0  0  0  0  0  0  0  0  0  0  0  0
    1.1018    1.1117   -0.5253 C   0  0  0  0  0  0  0  0  0  0  0  0
   -0.3581    0.8028   -0.4013 C   0  0  0  0  0  0  0  0  0  0  0  0
   -1.3321    1.8484   -0.1280 C   0  0  0  0  0  0  0  0  0  0  0  0
   -1.0183    3.0113   -0.2373 O   0  0  0  0  0  0  0  0  0  0  0  0
   -0.7912   -0.5777   -0.7272 C   0  0  0  0  0  0  0  0  0  0  0  0
   -2.2535   -0.9359   -0.5277 C   0  0  0  0  0  0  0  0  0  0  0  0
   -0.0473   -0.2972    0.5271 C   0  0  0  0  0  0  0  0  0  0  0  0
    1.7966   -1.2478   -1.3755 H   0  0  0  0  0  0  0  0  0  0  0  0
    3.2499   -0.7354   -0.4283 H   0  0  0  0  0  0  0  0  0  0  0  0
    2.2331   -2.0622    0.1784 H   0  0  0  0  0  0  0  0  0  0  0  0
    1.9292    0.2135    1.3321 H   0  0  0  0  0  0  0  0  0  0  0  0
    1.3917    2.0945   -0.1058 H   0  0  0  0  0  0  0  0  0  0  0  0
    1.4271    0.9692   -1.5827 H   0  0  0  0  0  0  0  0  0  0  0  0
   -2.3358    1.6140    0.1722 H   0  0  0  0  0  0  0  0  0  0  0  0
   -0.2477   -1.0691   -1.5456 H   0  0  0  0  0  0  0  0  0  0  0  0
   -2.4646   -1.8396   -1.1379 H   0  0  0  0  0  0  0  0  0  0  0  0
   -2.9396   -0.1537   -0.8669 H   0  0  0  0  0  0  0  0  0  0  0  0
   -2.4679   -1.2051    0.5300 H   0  0  0  0  0  0  0  0  0  0  0  0
   -0.4876   -0.4018    1.5191 H   0  0  0  0  0  0  0  0  0  0  0  0
  1  2  1  0
  2  3  1  0
  3  4  1  0
  4  5  1  0
  5  6  2  0
  4  7  1  0
  7  8  1  0
  7  9  1  0
  9  2  1  0
  9  4  1  0
  1 10  1  0
  1 11  1  0
  1 12  1  0
  2 13  1  0
  3 14  1  0
  3 15  1  0
  5 16  1  0
  7 17  1  0
  8 18  1  0
  8 19  1  0
  8 20  1  0
  9 21  1  0
M  END
