
     RDKit          3D

 23 24  0  0  0  0  0  0  0  0999 V2000
   -2.0826   -1.5037   -0.1484 C   0  0  0  0  0  0  0  0  0  0  0  0
   -0.8502   -0.9271    0.4643 C   0  0  0  0  0  0  0  0  0  0  0  0
    0.4639   -1.3688   -0.1548 C   0  0  0  0  0  0  0  0  0  0  0  0
    0.7825    0.0735   -0.3751 C   0  0  0  0  0  0  0  0  0  0  0  0
    2.0456    0.6261    0.2119 C   0  0  0  0  0  0  0  0  0  0  0  0
    3.1064   -0.1054   -0.3489 O   0  0  0  0  0  0  0  0  0  0  0  0
   -0.0665    0.8191   -1.3055 C   0  0  0  0  0  0  0  0  0  0  0  0
   -0.5536    0.4803    0.0568 C   0  0  0  0  0  0  0  0  0  0  0  0
   -0.8142    1.5755    1.0380 C   0  0  0  0  0  0  0  0  0  0  0  0
   -2.7541   -1.8243    0.6731 H   0  0  0  0  0  0  0  0  0  0  0  0
   -2.6155   -0.7145   -0.7081 H   0  0  0  0  0  0  0  0  0  0  0  0
   -1.9018   -2.3417   -0.8268 H   0  0  0  0  0  0  0  0  0  0  0  0
   -0.7711   -1.0262    1.5706 H   0  0  0  0  0  0  0  0  0  0  0  0
    1.1322   -1.9313    0.5069 H   0  0  0  0  0  0  0  0  0  0  0  0
    0.3656   -1.8957   -1.1212 H   0  0  0  0  0  0  0  0  0  0  0  0
    2.1575    1.6933    0.0417 H   0  0  0  0  0  0  0  0  0  0  0  0
    2.0553    0.3544    1.3040 H   0  0  0  0  0  0  0  0  0  0  0  0
    3.4503    0.3343   -1.1702 H   0  0  0  0  0  0  0  0  0  0  0  0
    0.1060    1.8820   -1.4984 H   0  0  0  0  0  0  0  0  0  0  0  0
   -0.4417    0.2622   -2.1939 H   0  0  0  0  0  0  0  0  0  0  0  0
    0.0822    2.1793    1.2820 H   0  0  0  0  0  0  0  0  0  0  0  0
   -1.2653    1.1371    1.9709 H   0  0  0  0  0  0  0  0  0  0  0  0
   -1.6307    2.2219    0.6183 H   0  0  0  0  0  0  0  0  0  0  0  0
  1  2  1  0
  2  3  1  0
  3  4  1  0
  4  5  1  0
  5  6  1  0
  4  7  1  0
  7  8  1  0
  8  9  1  0
  8  2  1  0
  8  4  1  0
  1 10  1  0
  1 11  1  0
  1 12  1  0
  2 13  1  0
  3 14  1  0
  3 15  1  0
  5 16  1  0
  5 17  1  0
  6 18  1  0
  7 19  1  0
  7 20  1  0
  9 21  1  0
  9 22  1  0
  9 23  1  0
M  END
