
     RDKit          3D

 17 17  0  0  0  0  0  0  0  0999 V2000
    1.7727   -0.6619    0.0685 C   0  0  0  0  0  0  0  0  0  0  0  0
    0.3946   -0.2930   -0.3871 C   0  0  0  0  0  0  0  0  0  0  0  0
    0.3659    1.2284   -0.5097 C   0  0  0  0  0  0  0  0  0  0  0  0
   -0.5401    1.6820    0.4285 O   0  0  0  0  0  0  0  0  0  0  0  0
   -1.5250    0.7171    0.4071 C   0  0  0  0  0  0  0  0  0  0  0  0
   -0.6709   -0.5407    0.6303 C   0  0  0  0  0  0  0  0  0  0  0  0
   -1.4583   -1.6357    0.3878 O   0  0  0  0  0  0  0  0  0  0  0  0
    2.1309    0.1047    0.8071 H   0  0  0  0  0  0  0  0  0  0  0  0
    2.4499   -0.5497   -0.8144 H   0  0  0  0  0  0  0  0  0  0  0  0
    1.8366   -1.6549    0.5268 H   0  0  0  0  0  0  0  0  0  0  0  0
    0.1759   -0.7855   -1.3612 H   0  0  0  0  0  0  0  0  0  0  0  0
    1.3344    1.6891   -0.2990 H   0  0  0  0  0  0  0  0  0  0  0  0
    0.0899    1.4795   -1.5467 H   0  0  0  0  0  0  0  0  0  0  0  0
   -2.3091    0.8291    1.1384 H   0  0  0  0  0  0  0  0  0  0  0  0
   -1.8804    0.6288   -0.6498 H   0  0  0  0  0  0  0  0  0  0  0  0
   -0.3041   -0.5782    1.6683 H   0  0  0  0  0  0  0  0  0  0  0  0
   -1.8629   -1.6593   -0.4949 H   0  0  0  0  0  0  0  0  0  0  0  0
  1  2  1  0
  2  3  1  0
  3  4  1  0
  4  5  1  0
  5  6  1  0
  6  7  1  0
  6  2  1  0
  1  8  1  0
  1  9  1  0
  1 10  1  0
  2 11  1  0
  3 12  1  0
  3 13  1  0
  5 14  1  0
  5 15  1  0
  6 16  1  0
  7 17  1  0
M  END
