
     RDKit          3D

 19 19  0  0  0  0  0  0  0  0999 V2000
   -2.3401    0.2703   -0.0113 C   0  0  0  0  0  0  0  0  0  0  0  0
   -0.9988   -0.3003    0.4609 C   0  0  0  0  0  0  0  0  0  0  0  0
   -0.1225    0.8209    0.7759 C   0  0  0  0  0  0  0  0  0  0  0  0
    1.0846    1.2271    0.4446 C   0  0  0  0  0  0  0  0  0  0  0  0
    2.0169    0.5558   -0.4734 C   0  0  0  0  0  0  0  0  0  0  0  0
    2.0030   -0.8915   -0.1629 C   0  0  0  0  0  0  0  0  0  0  0  0
    3.1334   -1.3997    0.0030 O   0  0  0  0  0  0  0  0  0  0  0  0
    0.8531   -1.6539   -0.0565 O   0  0  0  0  0  0  0  0  0  0  0  0
   -0.4810   -1.3249   -0.4769 C   0  0  0  0  0  0  0  0  0  0  0  0
   -2.8201   -0.3614   -0.7609 H   0  0  0  0  0  0  0  0  0  0  0  0
   -2.9667    0.4898    0.8769 H   0  0  0  0  0  0  0  0  0  0  0  0
   -2.1305    1.2708   -0.4840 H   0  0  0  0  0  0  0  0  0  0  0  0
   -1.2245   -0.8277    1.4359 H   0  0  0  0  0  0  0  0  0  0  0  0
   -0.5975    1.5234    1.4861 H   0  0  0  0  0  0  0  0  0  0  0  0
    1.4768    2.1517    0.8700 H   0  0  0  0  0  0  0  0  0  0  0  0
    1.6230    0.6646   -1.5253 H   0  0  0  0  0  0  0  0  0  0  0  0
    3.0244    0.9894   -0.4766 H   0  0  0  0  0  0  0  0  0  0  0  0
   -1.0791   -2.2382   -0.3876 H   0  0  0  0  0  0  0  0  0  0  0  0
   -0.4545   -0.9663   -1.5380 H   0  0  0  0  0  0  0  0  0  0  0  0
  1  2  1  0
  2  3  1  0
  3  4  2  0
  4  5  1  0
  5  6  1  0
  6  7  2  0
  6  8  1  0
  8  9  1  0
  9  2  1  0
  1 10  1  0
  1 11  1  0
  1 12  1  0
  2 13  1  0
  3 14  1  0
  4 15  1  0
  5 16  1  0
  5 17  1  0
  9 18  1  0
  9 19  1  0
M  END
