
     RDKit          3D

 17 18  0  0  0  0  0  0  0  0999 V2000
   -2.5013   -0.4495   -0.7404 C   0  0  0  0  0  0  0  0  0  0  0  0
   -1.3326    0.1003   -0.0388 C   0  0  0  0  0  0  0  0  0  0  0  0
   -1.3616    1.1738    0.8264 C   0  0  0  0  0  0  0  0  0  0  0  0
   -0.1546    1.3882    1.2641 O   0  0  0  0  0  0  0  0  0  0  0  0
    0.7039    0.5349    0.7586 C   0  0  0  0  0  0  0  0  0  0  0  0
   -0.0136   -0.3011   -0.0769 C   0  0  0  0  0  0  0  0  0  0  0  0
    0.8597   -1.2180   -0.6308 O   0  0  0  0  0  0  0  0  0  0  0  0
    2.1605   -0.6059   -0.6260 C   0  0  0  0  0  0  0  0  0  0  0  0
    2.1302    0.1089    0.7241 C   0  0  0  0  0  0  0  0  0  0  0  0
   -3.0008   -1.2671   -0.1552 H   0  0  0  0  0  0  0  0  0  0  0  0
   -3.2681    0.3474   -0.8467 H   0  0  0  0  0  0  0  0  0  0  0  0
   -2.2669   -0.7905   -1.7739 H   0  0  0  0  0  0  0  0  0  0  0  0
   -2.2378    1.7596    1.1109 H   0  0  0  0  0  0  0  0  0  0  0  0
    2.2205    0.1846   -1.4014 H   0  0  0  0  0  0  0  0  0  0  0  0
    2.9648   -1.3372   -0.7007 H   0  0  0  0  0  0  0  0  0  0  0  0
    2.3182   -0.6126    1.5521 H   0  0  0  0  0  0  0  0  0  0  0  0
    2.7795    0.9840    0.7546 H   0  0  0  0  0  0  0  0  0  0  0  0
  1  2  1  0
  2  3  2  0
  3  4  1  0
  4  5  1  0
  5  6  2  0
  6  7  1  0
  7  8  1  0
  8  9  1  0
  6  2  1  0
  9  5  1  0
  1 10  1  0
  1 11  1  0
  1 12  1  0
  3 13  1  0
  8 14  1  0
  8 15  1  0
  9 16  1  0
  9 17  1  0
M  END
