
     RDKit          3D

 21 22  0  0  0  0  0  0  0  0999 V2000
   -2.5147    0.2064   -0.7103 C   0  0  0  0  0  0  0  0  0  0  0  0
   -1.3449   -0.0890    0.1695 C   0  0  0  0  0  0  0  0  0  0  0  0
   -1.1292   -1.4955    0.5955 C   0  0  0  0  0  0  0  0  0  0  0  0
    0.2455   -1.3147    0.3058 O   0  0  0  0  0  0  0  0  0  0  0  0
   -0.1357   -0.4680   -0.6942 C   0  0  0  0  0  0  0  0  0  0  0  0
    0.6843    0.7374   -0.9654 C   0  0  0  0  0  0  0  0  0  0  0  0
    0.7591    1.6233    0.2182 O   0  0  0  0  0  0  0  0  0  0  0  0
    1.9529    1.0597   -0.3961 C   0  0  0  0  0  0  0  0  0  0  0  0
    2.6440    0.1314    0.5684 C   0  0  0  0  0  0  0  0  0  0  0  0
   -2.4672    1.3008   -0.9544 H   0  0  0  0  0  0  0  0  0  0  0  0
   -2.3982   -0.3094   -1.6921 H   0  0  0  0  0  0  0  0  0  0  0  0
   -3.4963    0.0429   -0.2452 H   0  0  0  0  0  0  0  0  0  0  0  0
   -1.0706    0.6530    0.9142 H   0  0  0  0  0  0  0  0  0  0  0  0
   -1.5985   -2.2197   -0.0934 H   0  0  0  0  0  0  0  0  0  0  0  0
   -1.2510   -1.7177    1.6779 H   0  0  0  0  0  0  0  0  0  0  0  0
   -0.3842   -1.0085   -1.6157 H   0  0  0  0  0  0  0  0  0  0  0  0
    0.2967    1.3663   -1.8021 H   0  0  0  0  0  0  0  0  0  0  0  0
    2.5883    1.8155   -0.9307 H   0  0  0  0  0  0  0  0  0  0  0  0
    2.5517   -0.9433    0.2376 H   0  0  0  0  0  0  0  0  0  0  0  0
    2.3280    0.2637    1.6130 H   0  0  0  0  0  0  0  0  0  0  0  0
    3.7400    0.3652    0.5491 H   0  0  0  0  0  0  0  0  0  0  0  0
  1  2  1  0
  2  3  1  0
  3  4  1  0
  4  5  1  0
  5  6  1  0
  6  7  1  0
  7  8  1  0
  8  9  1  0
  5  2  1  0
  8  6  1  0
  1 10  1  0
  1 11  1  0
  1 12  1  0
  2 13  1  0
  3 14  1  0
  3 15  1  0
  5 16  1  0
  6 17  1  0
  8 18  1  0
  9 19  1  0
  9 20  1  0
  9 21  1  0
M  END
