
     RDKit          3D

 23 23  0  0  0  0  0  0  0  0999 V2000
   -0.4967    1.8103   -0.5718 C   0  0  0  0  0  0  0  0  0  0  0  0
   -0.7238    0.6064    0.2774 C   0  0  0  0  0  0  0  0  0  0  0  0
   -1.9651   -0.0933   -0.1675 C   0  0  0  0  0  0  0  0  0  0  0  0
   -1.5435   -1.4588   -0.4980 C   0  0  0  0  0  0  0  0  0  0  0  0
   -0.2705   -1.6251   -0.2544 C   0  0  0  0  0  0  0  0  0  0  0  0
    0.3642   -0.3915    0.2800 C   0  0  0  0  0  0  0  0  0  0  0  0
    0.8610   -0.7149    1.6690 C   0  0  0  0  0  0  0  0  0  0  0  0
    1.5342   -0.0610   -0.5918 C   0  0  0  0  0  0  0  0  0  0  0  0
    2.1649    1.1159   -0.2597 O   0  0  0  0  0  0  0  0  0  0  0  0
   -0.1984    1.5483   -1.6111 H   0  0  0  0  0  0  0  0  0  0  0  0
   -1.4704    2.3629   -0.6398 H   0  0  0  0  0  0  0  0  0  0  0  0
    0.2610    2.4870   -0.1270 H   0  0  0  0  0  0  0  0  0  0  0  0
   -0.8867    0.9630    1.3257 H   0  0  0  0  0  0  0  0  0  0  0  0
   -2.7313   -0.1433    0.6339 H   0  0  0  0  0  0  0  0  0  0  0  0
   -2.4463    0.4259   -1.0346 H   0  0  0  0  0  0  0  0  0  0  0  0
   -2.1920   -2.2316   -0.8911 H   0  0  0  0  0  0  0  0  0  0  0  0
    0.2930   -2.5429   -0.4115 H   0  0  0  0  0  0  0  0  0  0  0  0
    1.8628   -1.1880    1.5509 H   0  0  0  0  0  0  0  0  0  0  0  0
    0.2044   -1.4603    2.1578 H   0  0  0  0  0  0  0  0  0  0  0  0
    0.9198    0.2456    2.2389 H   0  0  0  0  0  0  0  0  0  0  0  0
    1.2876   -0.0235   -1.6714 H   0  0  0  0  0  0  0  0  0  0  0  0
    2.2823   -0.8826   -0.4718 H   0  0  0  0  0  0  0  0  0  0  0  0
    2.8895    1.2514   -0.9320 H   0  0  0  0  0  0  0  0  0  0  0  0
  1  2  1  0
  2  3  1  0
  3  4  1  0
  4  5  2  0
  5  6  1  0
  6  7  1  0
  6  8  1  0
  8  9  1  0
  6  2  1  0
  1 10  1  0
  1 11  1  0
  1 12  1  0
  2 13  1  0
  3 14  1  0
  3 15  1  0
  4 16  1  0
  5 17  1  0
  7 18  1  0
  7 19  1  0
  7 20  1  0
  8 21  1  0
  8 22  1  0
  9 23  1  0
M  END
