
     RDKit          3D

 23 23  0  0  0  0  0  0  0  0999 V2000
   -1.5633    0.9855   -0.7905 C   0  0  0  0  0  0  0  0  0  0  0  0
   -1.7101   -0.2109    0.0592 C   0  0  0  0  0  0  0  0  0  0  0  0
   -1.7188    0.1294    1.5300 C   0  0  0  0  0  0  0  0  0  0  0  0
   -0.3653   -0.1547    1.5738 O   0  0  0  0  0  0  0  0  0  0  0  0
   -0.5433   -1.0084    0.5002 C   0  0  0  0  0  0  0  0  0  0  0  0
    0.5829   -1.2958   -0.3971 C   0  0  0  0  0  0  0  0  0  0  0  0
    1.4271   -0.2603   -0.9781 C   0  0  0  0  0  0  0  0  0  0  0  0
    2.2551    0.5619   -0.0621 C   0  0  0  0  0  0  0  0  0  0  0  0
    1.5150    1.2716    0.8392 O   0  0  0  0  0  0  0  0  0  0  0  0
   -1.4283    0.7028   -1.8647 H   0  0  0  0  0  0  0  0  0  0  0  0
   -2.5546    1.5400   -0.7280 H   0  0  0  0  0  0  0  0  0  0  0  0
   -0.7321    1.6352   -0.5219 H   0  0  0  0  0  0  0  0  0  0  0  0
   -2.6438   -0.8211   -0.1555 H   0  0  0  0  0  0  0  0  0  0  0  0
   -2.2680   -0.6301    2.1406 H   0  0  0  0  0  0  0  0  0  0  0  0
   -1.9898    1.1777    1.7637 H   0  0  0  0  0  0  0  0  0  0  0  0
   -0.9616   -1.9916    0.9454 H   0  0  0  0  0  0  0  0  0  0  0  0
    0.2557   -2.0171   -1.2103 H   0  0  0  0  0  0  0  0  0  0  0  0
    1.2916   -1.9692    0.2100 H   0  0  0  0  0  0  0  0  0  0  0  0
    0.9105    0.3987   -1.7337 H   0  0  0  0  0  0  0  0  0  0  0  0
    2.1894   -0.7922   -1.6566 H   0  0  0  0  0  0  0  0  0  0  0  0
    2.9564    1.2498   -0.6333 H   0  0  0  0  0  0  0  0  0  0  0  0
    2.9553   -0.0881    0.5589 H   0  0  0  0  0  0  0  0  0  0  0  0
    2.1401    1.5869    1.5580 H   0  0  0  0  0  0  0  0  0  0  0  0
  1  2  1  0
  2  3  1  0
  3  4  1  0
  4  5  1  0
  5  6  1  0
  6  7  1  0
  7  8  1  0
  8  9  1  0
  5  2  1  0
  1 10  1  0
  1 11  1  0
  1 12  1  0
  2 13  1  0
  3 14  1  0
  3 15  1  0
  5 16  1  0
  6 17  1  0
  6 18  1  0
  7 19  1  0
  7 20  1  0
  8 21  1  0
  8 22  1  0
  9 23  1  0
M  END
