
     RDKit          3D

 21 22  0  0  0  0  0  0  0  0999 V2000
   -2.9079   -0.1329    0.0279 C   0  0  0  0  0  0  0  0  0  0  0  0
   -1.6745    0.7061    0.1096 C   0  0  0  0  0  0  0  0  0  0  0  0
   -0.7642    0.6886   -1.0779 C   0  0  0  0  0  0  0  0  0  0  0  0
    0.3683    0.3070   -0.1597 C   0  0  0  0  0  0  0  0  0  0  0  0
    1.4874   -0.5432   -0.6537 C   0  0  0  0  0  0  0  0  0  0  0  0
    2.4702   -0.7589    0.4853 C   0  0  0  0  0  0  0  0  0  0  0  0
    2.9779    0.4600    0.9325 O   0  0  0  0  0  0  0  0  0  0  0  0
    0.5308    0.9317    1.0523 O   0  0  0  0  0  0  0  0  0  0  0  0
   -0.5219    0.0730    0.8910 C   0  0  0  0  0  0  0  0  0  0  0  0
   -3.4868    0.0262    0.9619 H   0  0  0  0  0  0  0  0  0  0  0  0
   -2.7324   -1.2091   -0.0672 H   0  0  0  0  0  0  0  0  0  0  0  0
   -3.5440    0.2378   -0.7969 H   0  0  0  0  0  0  0  0  0  0  0  0
   -1.9103    1.7295    0.4437 H   0  0  0  0  0  0  0  0  0  0  0  0
   -0.5817    1.6493   -1.5820 H   0  0  0  0  0  0  0  0  0  0  0  0
   -0.9521   -0.0949   -1.8318 H   0  0  0  0  0  0  0  0  0  0  0  0
    2.0481    0.0489   -1.4365 H   0  0  0  0  0  0  0  0  0  0  0  0
    1.1626   -1.5190   -1.0451 H   0  0  0  0  0  0  0  0  0  0  0  0
    3.2897   -1.4347    0.2051 H   0  0  0  0  0  0  0  0  0  0  0  0
    1.9049   -1.1881    1.3526 H   0  0  0  0  0  0  0  0  0  0  0  0
    3.5283    0.8244    0.1853 H   0  0  0  0  0  0  0  0  0  0  0  0
   -0.6927   -0.8017    1.5017 H   0  0  0  0  0  0  0  0  0  0  0  0
  1  2  1  0
  2  3  1  0
  3  4  1  0
  4  5  1  0
  5  6  1  0
  6  7  1  0
  4  8  1  0
  8  9  1  0
  9  2  1  0
  9  4  1  0
  1 10  1  0
  1 11  1  0
  1 12  1  0
  2 13  1  0
  3 14  1  0
  3 15  1  0
  5 16  1  0
  5 17  1  0
  6 18  1  0
  6 19  1  0
  7 20  1  0
  9 21  1  0
M  END
