
     RDKit          3D

 18 20  0  0  0  0  0  0  0  0999 V2000
   -2.2682   -0.3821    0.2079 C   0  0  0  0  0  0  0  0  0  0  0  0
   -0.7496   -0.4744    0.2896 C   0  0  0  0  0  0  0  0  0  0  0  0
   -0.1577   -0.0990   -1.0313 C   0  0  0  0  0  0  0  0  0  0  0  0
   -0.4988    1.2366   -0.7031 O   0  0  0  0  0  0  0  0  0  0  0  0
   -0.1591    0.8625    0.6199 C   0  0  0  0  0  0  0  0  0  0  0  0
    1.3329    0.7315    0.4999 C   0  0  0  0  0  0  0  0  0  0  0  0
    2.0004   -0.5652    0.3357 C   0  0  0  0  0  0  0  0  0  0  0  0
    1.3400   -0.0450   -0.8693 C   0  0  0  0  0  0  0  0  0  0  0  0
   -2.6796   -1.2801   -0.3309 H   0  0  0  0  0  0  0  0  0  0  0  0
   -2.7055   -0.2284    1.1924 H   0  0  0  0  0  0  0  0  0  0  0  0
   -2.4923    0.5177   -0.4344 H   0  0  0  0  0  0  0  0  0  0  0  0
   -0.3654   -1.3497    0.8024 H   0  0  0  0  0  0  0  0  0  0  0  0
   -0.5697   -0.4943   -1.9350 H   0  0  0  0  0  0  0  0  0  0  0  0
   -0.5760    1.4483    1.4105 H   0  0  0  0  0  0  0  0  0  0  0  0
    1.8907    1.6643    0.5142 H   0  0  0  0  0  0  0  0  0  0  0  0
    1.6651   -1.5001    0.8106 H   0  0  0  0  0  0  0  0  0  0  0  0
    3.1250   -0.5013    0.3068 H   0  0  0  0  0  0  0  0  0  0  0  0
    1.8677    0.4588   -1.6859 H   0  0  0  0  0  0  0  0  0  0  0  0
  1  2  1  0
  2  3  1  0
  3  4  1  0
  4  5  1  0
  5  6  1  0
  6  7  1  0
  7  8  1  0
  5  2  1  0
  8  6  1  0
  8  3  1  0
  1  9  1  0
  1 10  1  0
  1 11  1  0
  2 12  1  0
  3 13  1  0
  5 14  1  0
  6 15  1  0
  7 16  1  0
  7 17  1  0
  8 18  1  0
M  END
