
     RDKit          3D

 17 18  0  0  0  0  0  0  0  0999 V2000
    1.6998    0.3977   -0.2182 C   0  0  0  0  0  0  0  0  0  0  0  0
    0.4999    0.4061    0.6503 C   0  0  0  0  0  0  0  0  0  0  0  0
   -0.0057   -0.9254    1.1388 C   0  0  0  0  0  0  0  0  0  0  0  0
   -0.1419   -1.7682   -0.0841 C   0  0  0  0  0  0  0  0  0  0  0  0
   -0.7497   -0.8902   -0.9244 C   0  0  0  0  0  0  0  0  0  0  0  0
   -0.8420    0.3015   -0.0312 C   0  0  0  0  0  0  0  0  0  0  0  0
   -1.5158    1.4774   -0.4773 C   0  0  0  0  0  0  0  0  0  0  0  0
   -2.4618    1.9081    0.2046 O   0  0  0  0  0  0  0  0  0  0  0  0
   -1.2800   -0.3059    1.1494 O   0  0  0  0  0  0  0  0  0  0  0  0
    2.3576   -0.4824   -0.0977 H   0  0  0  0  0  0  0  0  0  0  0  0
    2.3378    1.2819    0.0730 H   0  0  0  0  0  0  0  0  0  0  0  0
    1.4728    0.5806   -1.3068 H   0  0  0  0  0  0  0  0  0  0  0  0
    0.4775    1.1589    1.4423 H   0  0  0  0  0  0  0  0  0  0  0  0
    0.3555   -1.3461    2.0362 H   0  0  0  0  0  0  0  0  0  0  0  0
    0.1553   -2.7915   -0.2639 H   0  0  0  0  0  0  0  0  0  0  0  0
   -1.0627   -1.0452   -1.9429 H   0  0  0  0  0  0  0  0  0  0  0  0
   -1.2967    2.0427   -1.3482 H   0  0  0  0  0  0  0  0  0  0  0  0
  1  2  1  0
  2  3  1  0
  3  4  1  0
  4  5  2  0
  5  6  1  0
  6  7  1  0
  7  8  2  0
  6  9  1  0
  6  2  1  0
  9  3  1  0
  1 10  1  0
  1 11  1  0
  1 12  1  0
  2 13  1  0
  3 14  1  0
  4 15  1  0
  5 16  1  0
  7 17  1  0
M  END
