
     RDKit          3D

 17 19  0  0  0  0  0  0  0  0999 V2000
    2.3598   -0.1877   -0.2061 C   0  0  0  0  0  0  0  0  0  0  0  0
    0.9020    0.1413   -0.3777 C   0  0  0  0  0  0  0  0  0  0  0  0
    0.0801    0.6256    0.7613 C   0  0  0  0  0  0  0  0  0  0  0  0
   -1.2008    1.2746    0.3806 C   0  0  0  0  0  0  0  0  0  0  0  0
   -1.4525    2.4423    0.5922 O   0  0  0  0  0  0  0  0  0  0  0  0
   -2.0908    0.3079   -0.2745 C   0  0  0  0  0  0  0  0  0  0  0  0
   -1.6540   -0.2841   -1.4872 O   0  0  0  0  0  0  0  0  0  0  0  0
   -1.4582   -0.9366   -0.2472 C   0  0  0  0  0  0  0  0  0  0  0  0
   -0.0503   -0.8035    0.3066 C   0  0  0  0  0  0  0  0  0  0  0  0
    2.5819   -1.1800   -0.6704 H   0  0  0  0  0  0  0  0  0  0  0  0
    2.6383   -0.2745    0.8699 H   0  0  0  0  0  0  0  0  0  0  0  0
    3.0317    0.5485   -0.6595 H   0  0  0  0  0  0  0  0  0  0  0  0
    0.6238    0.4572   -1.4062 H   0  0  0  0  0  0  0  0  0  0  0  0
    0.5352    0.8487    1.7421 H   0  0  0  0  0  0  0  0  0  0  0  0
   -3.1776    0.4491   -0.2615 H   0  0  0  0  0  0  0  0  0  0  0  0
   -1.9957   -1.8865   -0.0846 H   0  0  0  0  0  0  0  0  0  0  0  0
    0.3273   -1.5423    1.0219 H   0  0  0  0  0  0  0  0  0  0  0  0
  1  2  1  0
  2  3  1  0
  3  4  1  0
  4  5  2  0
  4  6  1  0
  6  7  1  0
  7  8  1  0
  8  9  1  0
  9  2  1  0
  9  3  1  0
  8  6  1  0
  1 10  1  0
  1 11  1  0
  1 12  1  0
  2 13  1  0
  3 14  1  0
  6 15  1  0
  8 16  1  0
  9 17  1  0
M  END
