
     RDKit          3D

 21 21  0  0  0  0  0  0  0  0999 V2000
    2.3721   -0.4990   -0.3499 C   0  0  0  0  0  0  0  0  0  0  0  0
    1.1707   -0.0585    0.4900 C   0  0  0  0  0  0  0  0  0  0  0  0
    0.0891   -1.0687    0.2929 C   0  0  0  0  0  0  0  0  0  0  0  0
   -1.1314   -0.7383   -0.0935 C   0  0  0  0  0  0  0  0  0  0  0  0
   -2.1022   -1.8158   -0.2514 C   0  0  0  0  0  0  0  0  0  0  0  0
   -3.2875   -1.5842   -0.6167 O   0  0  0  0  0  0  0  0  0  0  0  0
   -1.5517    0.6473   -0.3683 C   0  0  0  0  0  0  0  0  0  0  0  0
   -0.6667    1.5504    0.5043 C   0  0  0  0  0  0  0  0  0  0  0  0
    0.7443    1.3151    0.0675 C   0  0  0  0  0  0  0  0  0  0  0  0
    3.0466   -1.0537    0.3214 H   0  0  0  0  0  0  0  0  0  0  0  0
    2.0253   -1.1565   -1.1860 H   0  0  0  0  0  0  0  0  0  0  0  0
    2.8610    0.3639   -0.8256 H   0  0  0  0  0  0  0  0  0  0  0  0
    1.4215   -0.0220    1.5703 H   0  0  0  0  0  0  0  0  0  0  0  0
    0.3625   -2.0988    0.4860 H   0  0  0  0  0  0  0  0  0  0  0  0
   -1.8606   -2.8542   -0.0665 H   0  0  0  0  0  0  0  0  0  0  0  0
   -1.3259    0.9658   -1.4213 H   0  0  0  0  0  0  0  0  0  0  0  0
   -2.6086    0.8385   -0.1079 H   0  0  0  0  0  0  0  0  0  0  0  0
   -0.8134    1.2061    1.5417 H   0  0  0  0  0  0  0  0  0  0  0  0
   -0.9850    2.6034    0.4294 H   0  0  0  0  0  0  0  0  0  0  0  0
    1.3877    2.0502    0.6143 H   0  0  0  0  0  0  0  0  0  0  0  0
    0.8521    1.4090   -1.0309 H   0  0  0  0  0  0  0  0  0  0  0  0
  1  2  1  0
  2  3  1  0
  3  4  2  0
  4  5  1  0
  5  6  2  0
  4  7  1  0
  7  8  1  0
  8  9  1  0
  9  2  1  0
  1 10  1  0
  1 11  1  0
  1 12  1  0
  2 13  1  0
  3 14  1  0
  5 15  1  0
  7 16  1  0
  7 17  1  0
  8 18  1  0
  8 19  1  0
  9 20  1  0
  9 21  1  0
M  END
