
     RDKit          3D

 21 21  0  0  0  0  0  0  0  0999 V2000
    2.6224    0.4151    1.1613 C   0  0  0  0  0  0  0  0  0  0  0  0
    1.5342   -0.3388    0.4087 C   0  0  0  0  0  0  0  0  0  0  0  0
    1.5912   -0.0583   -1.0608 C   0  0  0  0  0  0  0  0  0  0  0  0
    0.3417    0.5581   -1.3084 O   0  0  0  0  0  0  0  0  0  0  0  0
   -0.4520   -0.1259   -0.3857 C   0  0  0  0  0  0  0  0  0  0  0  0
   -1.8154    0.5138   -0.3500 C   0  0  0  0  0  0  0  0  0  0  0  0
   -2.7516   -0.2076    0.5730 C   0  0  0  0  0  0  0  0  0  0  0  0
   -2.3482    0.4146   -1.6423 O   0  0  0  0  0  0  0  0  0  0  0  0
    0.2657    0.0934    0.7963 O   0  0  0  0  0  0  0  0  0  0  0  0
    3.5088   -0.2445    1.1674 H   0  0  0  0  0  0  0  0  0  0  0  0
    2.2811    0.7229    2.1604 H   0  0  0  0  0  0  0  0  0  0  0  0
    2.8602    1.3577    0.6076 H   0  0  0  0  0  0  0  0  0  0  0  0
    1.6484   -1.4458    0.5404 H   0  0  0  0  0  0  0  0  0  0  0  0
    2.4295    0.5766   -1.3360 H   0  0  0  0  0  0  0  0  0  0  0  0
    1.5839   -0.9873   -1.6791 H   0  0  0  0  0  0  0  0  0  0  0  0
   -0.4883   -1.2089   -0.5671 H   0  0  0  0  0  0  0  0  0  0  0  0
   -1.7269    1.5498   -0.0054 H   0  0  0  0  0  0  0  0  0  0  0  0
   -3.2958   -1.0121    0.0003 H   0  0  0  0  0  0  0  0  0  0  0  0
   -2.2369   -0.6642    1.4462 H   0  0  0  0  0  0  0  0  0  0  0  0
   -3.5390    0.5106    0.8854 H   0  0  0  0  0  0  0  0  0  0  0  0
   -2.0131   -0.4191   -2.0292 H   0  0  0  0  0  0  0  0  0  0  0  0
  1  2  1  0
  2  3  1  0
  3  4  1  0
  4  5  1  0
  5  6  1  0
  6  7  1  0
  6  8  1  0
  5  9  1  0
  9  2  1  0
  1 10  1  0
  1 11  1  0
  1 12  1  0
  2 13  1  0
  3 14  1  0
  3 15  1  0
  5 16  1  0
  6 17  1  0
  7 18  1  0
  7 19  1  0
  7 20  1  0
  8 21  1  0
M  END
