
     RDKit          3D

 23 24  0  0  0  0  0  0  0  0999 V2000
    1.9765   -0.7311    0.1825 C   0  0  0  0  0  0  0  0  0  0  0  0
    0.8471   -0.0229   -0.4639 C   0  0  0  0  0  0  0  0  0  0  0  0
    0.8943    1.4920   -0.2649 C   0  0  0  0  0  0  0  0  0  0  0  0
   -0.5851    1.7829   -0.0279 C   0  0  0  0  0  0  0  0  0  0  0  0
   -0.8374    0.6604    0.9991 C   0  0  0  0  0  0  0  0  0  0  0  0
   -0.5101   -0.4443   -0.0259 C   0  0  0  0  0  0  0  0  0  0  0  0
   -0.6923   -1.7977    0.4580 C   0  0  0  0  0  0  0  0  0  0  0  0
   -1.4848    0.0205   -1.1004 C   0  0  0  0  0  0  0  0  0  0  0  0
   -1.3371    1.4044   -1.1146 O   0  0  0  0  0  0  0  0  0  0  0  0
    2.5137   -1.4060   -0.5468 H   0  0  0  0  0  0  0  0  0  0  0  0
    2.7461    0.0209    0.4833 H   0  0  0  0  0  0  0  0  0  0  0  0
    1.6859   -1.3957    1.0204 H   0  0  0  0  0  0  0  0  0  0  0  0
    0.9154   -0.1772   -1.5779 H   0  0  0  0  0  0  0  0  0  0  0  0
    1.2459    2.0221   -1.1555 H   0  0  0  0  0  0  0  0  0  0  0  0
    1.4269    1.7443    0.6666 H   0  0  0  0  0  0  0  0  0  0  0  0
   -0.7806    2.7626    0.3691 H   0  0  0  0  0  0  0  0  0  0  0  0
   -0.1003    0.6866    1.8009 H   0  0  0  0  0  0  0  0  0  0  0  0
   -1.8820    0.6229    1.3005 H   0  0  0  0  0  0  0  0  0  0  0  0
    0.0343   -2.5496    0.1389 H   0  0  0  0  0  0  0  0  0  0  0  0
   -1.7351   -2.1509    0.2127 H   0  0  0  0  0  0  0  0  0  0  0  0
   -0.6700   -1.8036    1.5879 H   0  0  0  0  0  0  0  0  0  0  0  0
   -2.5133   -0.3008   -0.8849 H   0  0  0  0  0  0  0  0  0  0  0  0
   -1.1580   -0.4397   -2.0573 H   0  0  0  0  0  0  0  0  0  0  0  0
  1  2  1  0
  2  3  1  0
  3  4  1  0
  4  5  1  0
  5  6  1  0
  6  7  1  0
  6  8  1  0
  8  9  1  0
  6  2  1  0
  9  4  1  0
  1 10  1  0
  1 11  1  0
  1 12  1  0
  2 13  1  0
  3 14  1  0
  3 15  1  0
  4 16  1  0
  5 17  1  0
  5 18  1  0
  7 19  1  0
  7 20  1  0
  7 21  1  0
  8 22  1  0
  8 23  1  0
M  END
