
     RDKit          3D

 19 21  0  0  0  0  0  0  0  0999 V2000
    0.0648    1.7277    0.2828 C   0  0  0  0  0  0  0  0  0  0  0  0
   -0.1104    0.2808    0.7394 C   0  0  0  0  0  0  0  0  0  0  0  0
    0.8842   -0.5910   -0.0164 C   0  0  0  0  0  0  0  0  0  0  0  0
    2.2540   -0.0933   -0.2989 C   0  0  0  0  0  0  0  0  0  0  0  0
    0.6685   -1.9356   -0.1369 O   0  0  0  0  0  0  0  0  0  0  0  0
   -0.1080   -1.0553   -0.8459 C   0  0  0  0  0  0  0  0  0  0  0  0
   -1.1866   -0.4053    0.0016 C   0  0  0  0  0  0  0  0  0  0  0  0
   -2.3972   -0.9087    0.3451 C   0  0  0  0  0  0  0  0  0  0  0  0
   -2.2642    0.1963   -0.5496 O   0  0  0  0  0  0  0  0  0  0  0  0
   -0.8499    2.3036    0.4876 H   0  0  0  0  0  0  0  0  0  0  0  0
    0.2394    1.7030   -0.8120 H   0  0  0  0  0  0  0  0  0  0  0  0
    0.9738    2.1874    0.7275 H   0  0  0  0  0  0  0  0  0  0  0  0
   -0.1324    0.1394    1.8175 H   0  0  0  0  0  0  0  0  0  0  0  0
    2.6641   -0.4429   -1.2729 H   0  0  0  0  0  0  0  0  0  0  0  0
    2.9410   -0.5498    0.4739 H   0  0  0  0  0  0  0  0  0  0  0  0
    2.3704    1.0012   -0.1700 H   0  0  0  0  0  0  0  0  0  0  0  0
   -0.2200   -1.0983   -1.9286 H   0  0  0  0  0  0  0  0  0  0  0  0
   -2.8812   -1.7701   -0.1668 H   0  0  0  0  0  0  0  0  0  0  0  0
   -2.9102   -0.6891    1.3227 H   0  0  0  0  0  0  0  0  0  0  0  0
  1  2  1  0
  2  3  1  0
  3  4  1  0
  3  5  1  0
  5  6  1  0
  6  7  1  0
  7  8  1  0
  8  9  1  0
  7  2  1  0
  6  3  1  0
  9  7  1  0
  1 10  1  0
  1 11  1  0
  1 12  1  0
  2 13  1  0
  4 14  1  0
  4 15  1  0
  4 16  1  0
  6 17  1  0
  8 18  1  0
  8 19  1  0
M  END
