
     RDKit          3D

 19 20  0  0  0  0  0  0  0  0999 V2000
    1.8538    0.2909   -0.1777 C   0  0  0  0  0  0  0  0  0  0  0  0
    0.6941   -0.3327    0.5456 C   0  0  0  0  0  0  0  0  0  0  0  0
    0.0444   -1.3236   -0.3955 C   0  0  0  0  0  0  0  0  0  0  0  0
   -1.3777   -1.4670    0.0557 C   0  0  0  0  0  0  0  0  0  0  0  0
   -1.3779   -0.0546   -0.3995 C   0  0  0  0  0  0  0  0  0  0  0  0
   -0.4540   -0.4466   -1.3877 O   0  0  0  0  0  0  0  0  0  0  0  0
   -0.4923    0.6481    0.6262 C   0  0  0  0  0  0  0  0  0  0  0  0
   -0.1509    1.9682    0.0968 C   0  0  0  0  0  0  0  0  0  0  0  0
    0.2365    2.8703    0.8169 O   0  0  0  0  0  0  0  0  0  0  0  0
    2.1096    1.3026    0.2496 H   0  0  0  0  0  0  0  0  0  0  0  0
    1.5633    0.3915   -1.2531 H   0  0  0  0  0  0  0  0  0  0  0  0
    2.7154   -0.3749   -0.0750 H   0  0  0  0  0  0  0  0  0  0  0  0
    0.9389   -0.7576    1.5166 H   0  0  0  0  0  0  0  0  0  0  0  0
    0.5955   -2.1731   -0.7200 H   0  0  0  0  0  0  0  0  0  0  0  0
   -1.5342   -1.6485    1.1355 H   0  0  0  0  0  0  0  0  0  0  0  0
   -1.9256   -2.1646   -0.5867 H   0  0  0  0  0  0  0  0  0  0  0  0
   -2.2690    0.4317   -0.7101 H   0  0  0  0  0  0  0  0  0  0  0  0
   -0.9386    0.6485    1.6221 H   0  0  0  0  0  0  0  0  0  0  0  0
   -0.2310    2.1914   -0.9596 H   0  0  0  0  0  0  0  0  0  0  0  0
  1  2  1  0
  2  3  1  0
  3  4  1  0
  4  5  1  0
  5  6  1  0
  5  7  1  0
  7  8  1  0
  8  9  2  0
  7  2  1  0
  6  3  1  0
  1 10  1  0
  1 11  1  0
  1 12  1  0
  2 13  1  0
  3 14  1  0
  4 15  1  0
  4 16  1  0
  5 17  1  0
  7 18  1  0
  8 19  1  0
M  END
