
     RDKit          3D

 21 21  0  0  0  0  0  0  0  0999 V2000
   -2.2583   -0.3306    0.4583 C   0  0  0  0  0  0  0  0  0  0  0  0
   -1.1890    0.2958   -0.4033 C   0  0  0  0  0  0  0  0  0  0  0  0
   -0.3419    1.2872    0.3571 C   0  0  0  0  0  0  0  0  0  0  0  0
    1.0528    1.1994   -0.2172 C   0  0  0  0  0  0  0  0  0  0  0  0
    1.1660   -0.2626   -0.5551 C   0  0  0  0  0  0  0  0  0  0  0  0
    1.8569   -0.9621    0.5714 C   0  0  0  0  0  0  0  0  0  0  0  0
   -0.2194   -0.7699   -0.8294 C   0  0  0  0  0  0  0  0  0  0  0  0
   -1.8273   -1.1674    1.0547 H   0  0  0  0  0  0  0  0  0  0  0  0
   -3.0262   -0.7563   -0.2386 H   0  0  0  0  0  0  0  0  0  0  0  0
   -2.7897    0.4132    1.0822 H   0  0  0  0  0  0  0  0  0  0  0  0
   -1.6938    0.8048   -1.2347 H   0  0  0  0  0  0  0  0  0  0  0  0
   -0.3658    1.0459    1.4288 H   0  0  0  0  0  0  0  0  0  0  0  0
   -0.6859    2.3293    0.2211 H   0  0  0  0  0  0  0  0  0  0  0  0
    1.8409    1.4616    0.5051 H   0  0  0  0  0  0  0  0  0  0  0  0
    1.1249    1.7802   -1.1479 H   0  0  0  0  0  0  0  0  0  0  0  0
    1.7896   -0.3698   -1.4770 H   0  0  0  0  0  0  0  0  0  0  0  0
    2.9618   -0.8611    0.3929 H   0  0  0  0  0  0  0  0  0  0  0  0
    1.6861   -0.4766    1.5651 H   0  0  0  0  0  0  0  0  0  0  0  0
    1.6500   -2.0356    0.6456 H   0  0  0  0  0  0  0  0  0  0  0  0
   -0.3709   -0.9295   -1.9221 H   0  0  0  0  0  0  0  0  0  0  0  0
   -0.3609   -1.6959   -0.2568 H   0  0  0  0  0  0  0  0  0  0  0  0
  1  2  1  0
  2  3  1  0
  3  4  1  0
  4  5  1  0
  5  6  1  0
  5  7  1  0
  7  2  1  0
  1  8  1  0
  1  9  1  0
  1 10  1  0
  2 11  1  0
  3 12  1  0
  3 13  1  0
  4 14  1  0
  4 15  1  0
  5 16  1  0
  6 17  1  0
  6 18  1  0
  6 19  1  0
  7 20  1  0
  7 21  1  0
M  END
