
     RDKit          3D

 17 18  0  0  0  0  0  0  0  0999 V2000
    1.6315   -0.3983   -0.3400 C   0  0  0  0  0  0  0  0  0  0  0  0
    0.6283    0.5540    0.2080 C   0  0  0  0  0  0  0  0  0  0  0  0
   -0.4571    1.0053   -0.7519 C   0  0  0  0  0  0  0  0  0  0  0  0
   -0.8614   -0.2962   -1.3457 C   0  0  0  0  0  0  0  0  0  0  0  0
   -0.9215   -1.0945   -0.2564 C   0  0  0  0  0  0  0  0  0  0  0  0
   -0.5776   -0.1623    0.8457 C   0  0  0  0  0  0  0  0  0  0  0  0
   -0.4969   -0.5615    2.0934 O   0  0  0  0  0  0  0  0  0  0  0  0
   -1.3152    1.0492    0.4473 C   0  0  0  0  0  0  0  0  0  0  0  0
   -2.1831    1.7321    0.8828 O   0  0  0  0  0  0  0  0  0  0  0  0
    1.6677   -1.2811    0.3634 H   0  0  0  0  0  0  0  0  0  0  0  0
    2.6464    0.0655   -0.2437 H   0  0  0  0  0  0  0  0  0  0  0  0
    1.4224   -0.7707   -1.3495 H   0  0  0  0  0  0  0  0  0  0  0  0
    0.9996    1.4078    0.7990 H   0  0  0  0  0  0  0  0  0  0  0  0
   -0.3075    1.8511   -1.3552 H   0  0  0  0  0  0  0  0  0  0  0  0
   -1.0618   -0.5634   -2.3763 H   0  0  0  0  0  0  0  0  0  0  0  0
   -1.1610   -2.1507   -0.2040 H   0  0  0  0  0  0  0  0  0  0  0  0
    0.3473   -0.3864    2.5831 H   0  0  0  0  0  0  0  0  0  0  0  0
  1  2  1  0
  2  3  1  0
  3  4  1  0
  4  5  2  0
  5  6  1  0
  6  7  1  0
  6  8  1  0
  8  9  2  0
  6  2  1  0
  8  3  1  0
  1 10  1  0
  1 11  1  0
  1 12  1  0
  2 13  1  0
  3 14  1  0
  4 15  1  0
  5 16  1  0
  7 17  1  0
M  END
