
     RDKit          3D

 23 25  0  0  0  0  0  0  0  0999 V2000
   -3.1287   -0.0102   -0.1891 C   0  0  0  0  0  0  0  0  0  0  0  0
   -1.8170    0.4960    0.3453 C   0  0  0  0  0  0  0  0  0  0  0  0
   -0.9841    1.4553   -0.3657 C   0  0  0  0  0  0  0  0  0  0  0  0
   -0.6215    0.0269   -0.4947 C   0  0  0  0  0  0  0  0  0  0  0  0
    0.4463   -0.6209    0.3114 C   0  0  0  0  0  0  0  0  0  0  0  0
    1.6462   -1.1094   -0.4490 C   0  0  0  0  0  0  0  0  0  0  0  0
    2.3675   -1.0219    0.8711 C   0  0  0  0  0  0  0  0  0  0  0  0
    1.5636    0.2514    0.8099 C   0  0  0  0  0  0  0  0  0  0  0  0
    1.9940    0.3349   -0.6285 C   0  0  0  0  0  0  0  0  0  0  0  0
   -4.0051    0.4099    0.3056 H   0  0  0  0  0  0  0  0  0  0  0  0
   -3.1503   -1.1124   -0.0122 H   0  0  0  0  0  0  0  0  0  0  0  0
   -3.1471    0.1073   -1.2984 H   0  0  0  0  0  0  0  0  0  0  0  0
   -1.7386    0.4587    1.4419 H   0  0  0  0  0  0  0  0  0  0  0  0
   -1.3237    2.0046   -1.2775 H   0  0  0  0  0  0  0  0  0  0  0  0
   -0.2751    2.0688    0.2376 H   0  0  0  0  0  0  0  0  0  0  0  0
   -0.8091   -0.4281   -1.4767 H   0  0  0  0  0  0  0  0  0  0  0  0
    0.0313   -1.3340    1.0454 H   0  0  0  0  0  0  0  0  0  0  0  0
    1.6900   -1.8490   -1.1160 H   0  0  0  0  0  0  0  0  0  0  0  0
    3.4525   -0.9107    0.8245 H   0  0  0  0  0  0  0  0  0  0  0  0
    1.9795   -1.6925    1.6657 H   0  0  0  0  0  0  0  0  0  0  0  0
    1.5234    0.9818    1.4850 H   0  0  0  0  0  0  0  0  0  0  0  0
    1.2595    0.9197   -1.2163 H   0  0  0  0  0  0  0  0  0  0  0  0
    3.0466    0.5739   -0.8192 H   0  0  0  0  0  0  0  0  0  0  0  0
  1  2  1  0
  2  3  1  0
  3  4  1  0
  4  5  1  0
  5  6  1  0
  6  7  1  0
  7  8  1  0
  8  9  1  0
  4  2  1  0
  8  5  1  0
  9  6  1  0
  1 10  1  0
  1 11  1  0
  1 12  1  0
  2 13  1  0
  3 14  1  0
  3 15  1  0
  4 16  1  0
  5 17  1  0
  6 18  1  0
  7 19  1  0
  7 20  1  0
  8 21  1  0
  9 22  1  0
  9 23  1  0
M  END
