
     RDKit          3D

 21 24  0  0  0  0  0  0  0  0999 V2000
   -2.5137    0.1700   -0.4472 C   0  0  0  0  0  0  0  0  0  0  0  0
   -1.1762    0.6321    0.0490 C   0  0  0  0  0  0  0  0  0  0  0  0
   -0.7693   -0.1428    1.2878 C   0  0  0  0  0  0  0  0  0  0  0  0
   -0.0059   -1.2943    0.8163 C   0  0  0  0  0  0  0  0  0  0  0  0
    0.6879   -0.0867    1.3235 C   0  0  0  0  0  0  0  0  0  0  0  0
    1.1351    0.2464   -0.0404 C   0  0  0  0  0  0  0  0  0  0  0  0
    2.4898    0.6700   -0.4046 C   0  0  0  0  0  0  0  0  0  0  0  0
   -0.0480    0.3069   -0.8986 C   0  0  0  0  0  0  0  0  0  0  0  0
    0.4858   -0.9928   -0.5536 C   0  0  0  0  0  0  0  0  0  0  0  0
   -3.2447    0.3382    0.3718 H   0  0  0  0  0  0  0  0  0  0  0  0
   -2.5039   -0.9356   -0.6268 H   0  0  0  0  0  0  0  0  0  0  0  0
   -2.7822    0.6755   -1.3777 H   0  0  0  0  0  0  0  0  0  0  0  0
   -1.2386    1.6835    0.3263 H   0  0  0  0  0  0  0  0  0  0  0  0
   -1.4304   -0.2079    2.1457 H   0  0  0  0  0  0  0  0  0  0  0  0
    0.0438   -2.2678    1.2783 H   0  0  0  0  0  0  0  0  0  0  0  0
    1.3141   -0.0969    2.2005 H   0  0  0  0  0  0  0  0  0  0  0  0
    2.5583    1.7879   -0.4242 H   0  0  0  0  0  0  0  0  0  0  0  0
    3.2164    0.3089    0.3724 H   0  0  0  0  0  0  0  0  0  0  0  0
    2.8237    0.2299   -1.3620 H   0  0  0  0  0  0  0  0  0  0  0  0
   -0.0524    0.6636   -1.9268 H   0  0  0  0  0  0  0  0  0  0  0  0
    1.0102   -1.6879   -1.1811 H   0  0  0  0  0  0  0  0  0  0  0  0
  1  2  1  0
  2  3  1  0
  3  4  1  0
  4  5  1  0
  5  6  1  0
  6  7  1  0
  6  8  1  0
  8  9  1  0
  8  2  1  0
  5  3  1  0
  9  6  1  0
  9  4  1  0
  1 10  1  0
  1 11  1  0
  1 12  1  0
  2 13  1  0
  3 14  1  0
  4 15  1  0
  5 16  1  0
  7 17  1  0
  7 18  1  0
  7 19  1  0
  8 20  1  0
  9 21  1  0
M  END
