
     RDKit          3D

 23 23  0  0  0  0  0  0  0  0999 V2000
   -1.8790    0.4062    0.5185 C   0  0  0  0  0  0  0  0  0  0  0  0
   -0.9771    0.1166   -0.6789 C   0  0  0  0  0  0  0  0  0  0  0  0
   -0.2602    1.3261   -1.1276 C   0  0  0  0  0  0  0  0  0  0  0  0
    0.9030    1.6796   -0.6191 O   0  0  0  0  0  0  0  0  0  0  0  0
    1.4471    1.1340    0.4647 C   0  0  0  0  0  0  0  0  0  0  0  0
    1.9467   -0.3058    0.2809 C   0  0  0  0  0  0  0  0  0  0  0  0
    0.7346   -1.1604    0.6534 C   0  0  0  0  0  0  0  0  0  0  0  0
   -0.1926   -1.1210   -0.5003 C   0  0  0  0  0  0  0  0  0  0  0  0
   -1.1053   -2.1915   -0.3504 O   0  0  0  0  0  0  0  0  0  0  0  0
   -2.7827   -0.2705    0.4797 H   0  0  0  0  0  0  0  0  0  0  0  0
   -1.3770    0.3106    1.4757 H   0  0  0  0  0  0  0  0  0  0  0  0
   -2.3029    1.4286    0.3274 H   0  0  0  0  0  0  0  0  0  0  0  0
   -1.7270   -0.1248   -1.4984 H   0  0  0  0  0  0  0  0  0  0  0  0
   -0.9885    2.1881   -1.0072 H   0  0  0  0  0  0  0  0  0  0  0  0
   -0.1461    1.2724   -2.2555 H   0  0  0  0  0  0  0  0  0  0  0  0
    2.3901    1.7105    0.7155 H   0  0  0  0  0  0  0  0  0  0  0  0
    0.8626    1.1562    1.4061 H   0  0  0  0  0  0  0  0  0  0  0  0
    2.8214   -0.5217    0.8898 H   0  0  0  0  0  0  0  0  0  0  0  0
    2.1486   -0.4590   -0.8021 H   0  0  0  0  0  0  0  0  0  0  0  0
    1.0842   -2.1979    0.8129 H   0  0  0  0  0  0  0  0  0  0  0  0
    0.3396   -0.7817    1.6034 H   0  0  0  0  0  0  0  0  0  0  0  0
    0.3654   -1.3366   -1.4220 H   0  0  0  0  0  0  0  0  0  0  0  0
   -1.3050   -2.2581    0.6334 H   0  0  0  0  0  0  0  0  0  0  0  0
  1  2  1  0
  2  3  1  0
  3  4  1  0
  4  5  1  0
  5  6  1  0
  6  7  1  0
  7  8  1  0
  8  9  1  0
  8  2  1  0
  1 10  1  0
  1 11  1  0
  1 12  1  0
  2 13  1  0
  3 14  1  0
  3 15  1  0
  5 16  1  0
  5 17  1  0
  6 18  1  0
  6 19  1  0
  7 20  1  0
  7 21  1  0
  8 22  1  0
  9 23  1  0
M  END
