
     RDKit          3D

 22 22  0  0  0  0  0  0  0  0999 V2000
   -1.2862   -1.5080    0.7910 C   0  0  0  0  0  0  0  0  0  0  0  0
   -0.6397   -0.5545   -0.1510 C   0  0  0  0  0  0  0  0  0  0  0  0
   -1.5876    0.5944   -0.5084 C   0  0  0  0  0  0  0  0  0  0  0  0
   -0.6852    1.7831   -0.7984 C   0  0  0  0  0  0  0  0  0  0  0  0
    0.7440    1.2567   -0.6220 C   0  0  0  0  0  0  0  0  0  0  0  0
    0.5258    0.1860    0.4161 C   0  0  0  0  0  0  0  0  0  0  0  0
    1.7378   -0.6674    0.6417 C   0  0  0  0  0  0  0  0  0  0  0  0
    2.2291   -1.2611   -0.4917 O   0  0  0  0  0  0  0  0  0  0  0  0
   -1.6423   -0.9831    1.6932 H   0  0  0  0  0  0  0  0  0  0  0  0
   -2.1774   -1.9363    0.2972 H   0  0  0  0  0  0  0  0  0  0  0  0
   -0.5742   -2.3154    1.0189 H   0  0  0  0  0  0  0  0  0  0  0  0
   -0.3870   -1.0519   -1.1137 H   0  0  0  0  0  0  0  0  0  0  0  0
   -2.2232    0.3538   -1.3695 H   0  0  0  0  0  0  0  0  0  0  0  0
   -2.2626    0.8118    0.3601 H   0  0  0  0  0  0  0  0  0  0  0  0
   -0.8424    2.1851   -1.8098 H   0  0  0  0  0  0  0  0  0  0  0  0
   -0.7939    2.5713   -0.0034 H   0  0  0  0  0  0  0  0  0  0  0  0
    1.4438    2.0325   -0.3300 H   0  0  0  0  0  0  0  0  0  0  0  0
    0.9822    0.7417   -1.5737 H   0  0  0  0  0  0  0  0  0  0  0  0
    0.2211    0.6070    1.3963 H   0  0  0  0  0  0  0  0  0  0  0  0
    2.5210   -0.0091    1.0901 H   0  0  0  0  0  0  0  0  0  0  0  0
    1.4872   -1.4166    1.4062 H   0  0  0  0  0  0  0  0  0  0  0  0
    3.2097   -1.4200   -0.3394 H   0  0  0  0  0  0  0  0  0  0  0  0
  1  2  1  0
  2  3  1  0
  3  4  1  0
  4  5  1  0
  5  6  1  0
  6  7  1  0
  7  8  1  0
  6  2  1  0
  1  9  1  0
  1 10  1  0
  1 11  1  0
  2 12  1  0
  3 13  1  0
  3 14  1  0
  4 15  1  0
  4 16  1  0
  5 17  1  0
  5 18  1  0
  6 19  1  0
  7 20  1  0
  7 21  1  0
  8 22  1  0
M  END
