
     RDKit          3D

 25 25  0  0  0  0  0  0  0  0999 V2000
    2.9287    0.4335    0.0246 C   0  0  0  0  0  0  0  0  0  0  0  0
    1.4414    0.4382   -0.0887 C   0  0  0  0  0  0  0  0  0  0  0  0
    0.9766   -1.0103   -0.2986 C   0  0  0  0  0  0  0  0  0  0  0  0
   -0.4892   -0.8773   -0.7182 C   0  0  0  0  0  0  0  0  0  0  0  0
   -1.1947   -0.1300    0.3908 C   0  0  0  0  0  0  0  0  0  0  0  0
   -1.8888    1.0704   -0.2427 C   0  0  0  0  0  0  0  0  0  0  0  0
   -2.2851   -1.0694    0.9167 C   0  0  0  0  0  0  0  0  0  0  0  0
   -0.3949    0.1976    1.4430 O   0  0  0  0  0  0  0  0  0  0  0  0
    0.7343    0.9090    1.1513 C   0  0  0  0  0  0  0  0  0  0  0  0
    3.3461    1.4530   -0.0222 H   0  0  0  0  0  0  0  0  0  0  0  0
    3.3337   -0.1199   -0.8515 H   0  0  0  0  0  0  0  0  0  0  0  0
    3.2542   -0.0977    0.9210 H   0  0  0  0  0  0  0  0  0  0  0  0
    1.1157    1.0352   -0.9582 H   0  0  0  0  0  0  0  0  0  0  0  0
    0.9470   -1.5147    0.6983 H   0  0  0  0  0  0  0  0  0  0  0  0
    1.5840   -1.5225   -1.0405 H   0  0  0  0  0  0  0  0  0  0  0  0
   -0.9250   -1.8598   -0.9263 H   0  0  0  0  0  0  0  0  0  0  0  0
   -0.4532   -0.2610   -1.6649 H   0  0  0  0  0  0  0  0  0  0  0  0
   -1.7209    1.1107   -1.3403 H   0  0  0  0  0  0  0  0  0  0  0  0
   -3.0031    1.0009   -0.1220 H   0  0  0  0  0  0  0  0  0  0  0  0
   -1.5846    2.0213    0.2045 H   0  0  0  0  0  0  0  0  0  0  0  0
   -3.2937   -0.7137    0.6601 H   0  0  0  0  0  0  0  0  0  0  0  0
   -2.1773   -2.0885    0.5226 H   0  0  0  0  0  0  0  0  0  0  0  0
   -2.2493   -1.1500    2.0237 H   0  0  0  0  0  0  0  0  0  0  0  0
    1.4575    0.7430    2.0041 H   0  0  0  0  0  0  0  0  0  0  0  0
    0.5404    2.0020    1.1594 H   0  0  0  0  0  0  0  0  0  0  0  0
  1  2  1  0
  2  3  1  0
  3  4  1  0
  4  5  1  0
  5  6  1  0
  5  7  1  0
  5  8  1  0
  8  9  1  0
  9  2  1  0
  1 10  1  0
  1 11  1  0
  1 12  1  0
  2 13  1  0
  3 14  1  0
  3 15  1  0
  4 16  1  0
  4 17  1  0
  6 18  1  0
  6 19  1  0
  6 20  1  0
  7 21  1  0
  7 22  1  0
  7 23  1  0
  9 24  1  0
  9 25  1  0
M  END
