
     RDKit          3D

 23 23  0  0  0  0  0  0  0  0999 V2000
    0.2328    1.7182    0.8807 C   0  0  0  0  0  0  0  0  0  0  0  0
    0.1732    0.8568   -0.3380 C   0  0  0  0  0  0  0  0  0  0  0  0
   -1.0360   -0.0030   -0.5096 C   0  0  0  0  0  0  0  0  0  0  0  0
   -1.8863   -0.2494    0.6834 C   0  0  0  0  0  0  0  0  0  0  0  0
   -1.8590    0.3580   -1.6017 O   0  0  0  0  0  0  0  0  0  0  0  0
   -0.1379   -1.1326   -0.9376 C   0  0  0  0  0  0  0  0  0  0  0  0
    1.0563   -0.3154   -0.4259 C   0  0  0  0  0  0  0  0  0  0  0  0
    1.6005   -0.9339    0.8028 C   0  0  0  0  0  0  0  0  0  0  0  0
    2.0754   -0.1839   -1.3950 O   0  0  0  0  0  0  0  0  0  0  0  0
   -0.1341    1.2593    1.7982 H   0  0  0  0  0  0  0  0  0  0  0  0
    1.2415    2.0903    1.0470 H   0  0  0  0  0  0  0  0  0  0  0  0
   -0.4373    2.6069    0.6827 H   0  0  0  0  0  0  0  0  0  0  0  0
    0.2915    1.5122   -1.2517 H   0  0  0  0  0  0  0  0  0  0  0  0
   -2.5038   -1.1591    0.5301 H   0  0  0  0  0  0  0  0  0  0  0  0
   -1.3765   -0.3498    1.6315 H   0  0  0  0  0  0  0  0  0  0  0  0
   -2.6150    0.5936    0.7646 H   0  0  0  0  0  0  0  0  0  0  0  0
   -2.2716   -0.4979   -1.9009 H   0  0  0  0  0  0  0  0  0  0  0  0
   -0.2989   -2.0795   -0.4142 H   0  0  0  0  0  0  0  0  0  0  0  0
   -0.0561   -1.3099   -2.0229 H   0  0  0  0  0  0  0  0  0  0  0  0
    0.9407   -0.9726    1.6637 H   0  0  0  0  0  0  0  0  0  0  0  0
    1.8552   -2.0081    0.5605 H   0  0  0  0  0  0  0  0  0  0  0  0
    2.5828   -0.4620    1.0533 H   0  0  0  0  0  0  0  0  0  0  0  0
    2.5628    0.6619   -1.3009 H   0  0  0  0  0  0  0  0  0  0  0  0
  1  2  1  0
  2  3  1  0
  3  4  1  0
  3  5  1  0
  3  6  1  0
  6  7  1  0
  7  8  1  0
  7  9  1  0
  7  2  1  0
  1 10  1  0
  1 11  1  0
  1 12  1  0
  2 13  1  0
  4 14  1  0
  4 15  1  0
  4 16  1  0
  5 17  1  0
  6 18  1  0
  6 19  1  0
  8 20  1  0
  8 21  1  0
  8 22  1  0
  9 23  1  0
M  END
