
     RDKit          3D

 21 21  0  0  0  0  0  0  0  0999 V2000
    1.6515    0.0693   -1.1896 C   0  0  0  0  0  0  0  0  0  0  0  0
    0.9441    0.1974    0.1358 C   0  0  0  0  0  0  0  0  0  0  0  0
    1.0259   -1.1195    0.8288 C   0  0  0  0  0  0  0  0  0  0  0  0
   -0.0981   -1.7870    0.6974 C   0  0  0  0  0  0  0  0  0  0  0  0
   -1.0596   -1.0023   -0.0934 C   0  0  0  0  0  0  0  0  0  0  0  0
   -0.5356    0.4155   -0.0082 C   0  0  0  0  0  0  0  0  0  0  0  0
   -1.0323    1.0159    1.2951 C   0  0  0  0  0  0  0  0  0  0  0  0
   -0.9081    1.2382   -1.1549 C   0  0  0  0  0  0  0  0  0  0  0  0
   -0.4780    0.9824   -2.2554 O   0  0  0  0  0  0  0  0  0  0  0  0
    1.1245   -0.6906   -1.7928 H   0  0  0  0  0  0  0  0  0  0  0  0
    1.8135    1.0249   -1.7018 H   0  0  0  0  0  0  0  0  0  0  0  0
    2.6619   -0.3506   -0.9762 H   0  0  0  0  0  0  0  0  0  0  0  0
    1.4462    0.9942    0.7271 H   0  0  0  0  0  0  0  0  0  0  0  0
    1.9254   -1.4400    1.3617 H   0  0  0  0  0  0  0  0  0  0  0  0
   -0.2629   -2.7732    1.1227 H   0  0  0  0  0  0  0  0  0  0  0  0
   -1.0527   -1.3427   -1.1487 H   0  0  0  0  0  0  0  0  0  0  0  0
   -2.0627   -1.0060    0.3438 H   0  0  0  0  0  0  0  0  0  0  0  0
   -2.0342    0.5734    1.5452 H   0  0  0  0  0  0  0  0  0  0  0  0
   -1.1879    2.1058    1.1792 H   0  0  0  0  0  0  0  0  0  0  0  0
   -0.3143    0.8169    2.1185 H   0  0  0  0  0  0  0  0  0  0  0  0
   -1.5666    2.0778   -1.0341 H   0  0  0  0  0  0  0  0  0  0  0  0
  1  2  1  0
  2  3  1  0
  3  4  2  0
  4  5  1  0
  5  6  1  0
  6  7  1  0
  6  8  1  0
  8  9  2  0
  6  2  1  0
  1 10  1  0
  1 11  1  0
  1 12  1  0
  2 13  1  0
  3 14  1  0
  4 15  1  0
  5 16  1  0
  5 17  1  0
  7 18  1  0
  7 19  1  0
  7 20  1  0
  8 21  1  0
M  END
