
     RDKit          3D

 21 22  0  0  0  0  0  0  0  0999 V2000
   -2.8361    0.4863   -0.0318 C   0  0  0  0  0  0  0  0  0  0  0  0
   -1.4979   -0.1008   -0.5006 C   0  0  0  0  0  0  0  0  0  0  0  0
   -0.3360    0.7647   -0.2478 C   0  0  0  0  0  0  0  0  0  0  0  0
    0.9565    0.6194   -1.0082 C   0  0  0  0  0  0  0  0  0  0  0  0
    2.0504    0.4630    0.0464 C   0  0  0  0  0  0  0  0  0  0  0  0
    1.9050   -0.9226    0.6720 C   0  0  0  0  0  0  0  0  0  0  0  0
    0.5347   -1.4416    0.3727 C   0  0  0  0  0  0  0  0  0  0  0  0
    0.4224   -2.5830   -0.0106 O   0  0  0  0  0  0  0  0  0  0  0  0
   -0.5882   -0.4981    0.5744 C   0  0  0  0  0  0  0  0  0  0  0  0
   -2.6548    1.0605    0.9202 H   0  0  0  0  0  0  0  0  0  0  0  0
   -3.5936   -0.2934    0.1052 H   0  0  0  0  0  0  0  0  0  0  0  0
   -3.1193    1.2565   -0.7900 H   0  0  0  0  0  0  0  0  0  0  0  0
   -1.6010   -0.7643   -1.3601 H   0  0  0  0  0  0  0  0  0  0  0  0
   -0.4560    1.7152    0.2749 H   0  0  0  0  0  0  0  0  0  0  0  0
    0.9816   -0.3389   -1.5975 H   0  0  0  0  0  0  0  0  0  0  0  0
    1.1555    1.5024   -1.6118 H   0  0  0  0  0  0  0  0  0  0  0  0
    1.8514    1.2614    0.8208 H   0  0  0  0  0  0  0  0  0  0  0  0
    3.0581    0.5881   -0.3982 H   0  0  0  0  0  0  0  0  0  0  0  0
    1.9379   -0.8191    1.7959 H   0  0  0  0  0  0  0  0  0  0  0  0
    2.7023   -1.5833    0.3361 H   0  0  0  0  0  0  0  0  0  0  0  0
   -0.8728   -0.3726    1.6380 H   0  0  0  0  0  0  0  0  0  0  0  0
  1  2  1  0
  2  3  1  0
  3  4  1  0
  4  5  1  0
  5  6  1  0
  6  7  1  0
  7  8  2  0
  7  9  1  0
  9  2  1  0
  9  3  1  0
  1 10  1  0
  1 11  1  0
  1 12  1  0
  2 13  1  0
  3 14  1  0
  4 15  1  0
  4 16  1  0
  5 17  1  0
  5 18  1  0
  6 19  1  0
  6 20  1  0
  9 21  1  0
M  END
