
     RDKit          3D

 21 22  0  0  0  0  0  0  0  0999 V2000
    2.4762    0.3148    0.0805 C   0  0  0  0  0  0  0  0  0  0  0  0
    1.1897   -0.4107    0.3529 C   0  0  0  0  0  0  0  0  0  0  0  0
    0.2997    0.3071    1.3260 C   0  0  0  0  0  0  0  0  0  0  0  0
   -0.9325    0.7241    0.5748 C   0  0  0  0  0  0  0  0  0  0  0  0
   -0.7497    2.0496    0.1353 O   0  0  0  0  0  0  0  0  0  0  0  0
   -0.9662   -0.1325   -0.6604 C   0  0  0  0  0  0  0  0  0  0  0  0
   -2.1351   -1.0171   -0.9482 C   0  0  0  0  0  0  0  0  0  0  0  0
   -0.1183    0.2849   -1.6687 O   0  0  0  0  0  0  0  0  0  0  0  0
    0.3876   -0.7103   -0.8682 C   0  0  0  0  0  0  0  0  0  0  0  0
    2.3553    1.4107    0.0006 H   0  0  0  0  0  0  0  0  0  0  0  0
    3.1402    0.1287    0.9692 H   0  0  0  0  0  0  0  0  0  0  0  0
    2.9249   -0.0944   -0.8395 H   0  0  0  0  0  0  0  0  0  0  0  0
    1.4662   -1.3909    0.8195 H   0  0  0  0  0  0  0  0  0  0  0  0
    0.8625    1.1881    1.7001 H   0  0  0  0  0  0  0  0  0  0  0  0
    0.0395   -0.3094    2.2037 H   0  0  0  0  0  0  0  0  0  0  0  0
   -1.8410    0.6597    1.1902 H   0  0  0  0  0  0  0  0  0  0  0  0
   -1.6006    2.5674    0.1765 H   0  0  0  0  0  0  0  0  0  0  0  0
   -2.0017   -1.4092   -1.9922 H   0  0  0  0  0  0  0  0  0  0  0  0
   -3.1097   -0.4990   -0.9069 H   0  0  0  0  0  0  0  0  0  0  0  0
   -2.1595   -1.9345   -0.3055 H   0  0  0  0  0  0  0  0  0  0  0  0
    0.4727   -1.7270   -1.3396 H   0  0  0  0  0  0  0  0  0  0  0  0
  1  2  1  0
  2  3  1  0
  3  4  1  0
  4  5  1  0
  4  6  1  0
  6  7  1  0
  6  8  1  0
  8  9  1  0
  9  2  1  0
  9  6  1  0
  1 10  1  0
  1 11  1  0
  1 12  1  0
  2 13  1  0
  3 14  1  0
  3 15  1  0
  4 16  1  0
  5 17  1  0
  7 18  1  0
  7 19  1  0
  7 20  1  0
  9 21  1  0
M  END
