
     RDKit          3D

 22 22  0  0  0  0  0  0  0  0999 V2000
   -2.5627    0.6408    0.2576 C   0  0  0  0  0  0  0  0  0  0  0  0
   -1.3440   -0.2925    0.2854 C   0  0  0  0  0  0  0  0  0  0  0  0
   -0.7908   -0.4653   -1.0682 C   0  0  0  0  0  0  0  0  0  0  0  0
    0.6670   -0.2395   -1.2262 C   0  0  0  0  0  0  0  0  0  0  0  0
    1.4267   -0.2856    0.0869 C   0  0  0  0  0  0  0  0  0  0  0  0
    2.8556    0.1380   -0.1639 C   0  0  0  0  0  0  0  0  0  0  0  0
    0.7969    0.6294    0.9208 O   0  0  0  0  0  0  0  0  0  0  0  0
   -0.4349    0.1830    1.3444 C   0  0  0  0  0  0  0  0  0  0  0  0
   -3.2213    0.3727    1.0837 H   0  0  0  0  0  0  0  0  0  0  0  0
   -3.0666    0.6314   -0.7100 H   0  0  0  0  0  0  0  0  0  0  0  0
   -2.1507    1.6848    0.3911 H   0  0  0  0  0  0  0  0  0  0  0  0
   -1.7690   -1.2866    0.6141 H   0  0  0  0  0  0  0  0  0  0  0  0
   -1.0138   -1.4855   -1.5017 H   0  0  0  0  0  0  0  0  0  0  0  0
   -1.3182    0.2379   -1.7783 H   0  0  0  0  0  0  0  0  0  0  0  0
    0.8710    0.7699   -1.6856 H   0  0  0  0  0  0  0  0  0  0  0  0
    1.1738   -0.9707   -1.9019 H   0  0  0  0  0  0  0  0  0  0  0  0
    1.3917   -1.3244    0.4727 H   0  0  0  0  0  0  0  0  0  0  0  0
    3.2687    0.6702    0.7120 H   0  0  0  0  0  0  0  0  0  0  0  0
    2.8797    0.7769   -1.0796 H   0  0  0  0  0  0  0  0  0  0  0  0
    3.4527   -0.7969   -0.3020 H   0  0  0  0  0  0  0  0  0  0  0  0
   -0.8800    1.0262    1.9533 H   0  0  0  0  0  0  0  0  0  0  0  0
   -0.2319   -0.6142    2.1200 H   0  0  0  0  0  0  0  0  0  0  0  0
  1  2  1  0
  2  3  1  0
  3  4  1  0
  4  5  1  0
  5  6  1  0
  5  7  1  0
  7  8  1  0
  8  2  1  0
  1  9  1  0
  1 10  1  0
  1 11  1  0
  2 12  1  0
  3 13  1  0
  3 14  1  0
  4 15  1  0
  4 16  1  0
  5 17  1  0
  6 18  1  0
  6 19  1  0
  6 20  1  0
  8 21  1  0
  8 22  1  0
M  END
