
     RDKit          3D

 21 22  0  0  0  0  0  0  0  0999 V2000
    1.8789    1.0162   -0.4640 C   0  0  0  0  0  0  0  0  0  0  0  0
    0.9720    0.0465    0.1912 C   0  0  0  0  0  0  0  0  0  0  0  0
    0.5786   -1.1727   -0.6159 C   0  0  0  0  0  0  0  0  0  0  0  0
    1.1449   -2.3568   -0.2051 O   0  0  0  0  0  0  0  0  0  0  0  0
   -0.8517   -0.9419   -0.2655 C   0  0  0  0  0  0  0  0  0  0  0  0
   -1.8189   -1.1114   -1.2404 O   0  0  0  0  0  0  0  0  0  0  0  0
   -1.3032   -0.5363    1.0705 C   0  0  0  0  0  0  0  0  0  0  0  0
   -0.4886    0.3985    0.2550 C   0  0  0  0  0  0  0  0  0  0  0  0
   -1.0376    1.6000   -0.4021 C   0  0  0  0  0  0  0  0  0  0  0  0
    2.5640    0.5397   -1.2026 H   0  0  0  0  0  0  0  0  0  0  0  0
    2.5664    1.4292    0.3316 H   0  0  0  0  0  0  0  0  0  0  0  0
    1.3516    1.8810   -0.9088 H   0  0  0  0  0  0  0  0  0  0  0  0
    1.3133   -0.3095    1.2070 H   0  0  0  0  0  0  0  0  0  0  0  0
    0.8482   -0.9850   -1.6869 H   0  0  0  0  0  0  0  0  0  0  0  0
    1.5395   -2.2546    0.6886 H   0  0  0  0  0  0  0  0  0  0  0  0
   -2.4362   -1.8526   -0.9458 H   0  0  0  0  0  0  0  0  0  0  0  0
   -0.8268   -0.9069    2.0041 H   0  0  0  0  0  0  0  0  0  0  0  0
   -2.3550   -0.2798    1.1902 H   0  0  0  0  0  0  0  0  0  0  0  0
   -0.8819    2.4792    0.2497 H   0  0  0  0  0  0  0  0  0  0  0  0
   -2.1313    1.4915   -0.5325 H   0  0  0  0  0  0  0  0  0  0  0  0
   -0.6262    1.8259   -1.4067 H   0  0  0  0  0  0  0  0  0  0  0  0
  1  2  1  0
  2  3  1  0
  3  4  1  0
  3  5  1  0
  5  6  1  0
  5  7  1  0
  7  8  1  0
  8  9  1  0
  8  2  1  0
  8  5  1  0
  1 10  1  0
  1 11  1  0
  1 12  1  0
  2 13  1  0
  3 14  1  0
  4 15  1  0
  6 16  1  0
  7 17  1  0
  7 18  1  0
  9 19  1  0
  9 20  1  0
  9 21  1  0
M  END
