
     RDKit          3D

 19 20  0  0  0  0  0  0  0  0999 V2000
   -1.8393   -1.6751   -0.1927 C   0  0  0  0  0  0  0  0  0  0  0  0
   -1.0769   -0.4191   -0.4615 C   0  0  0  0  0  0  0  0  0  0  0  0
   -0.9111    0.6390    0.5653 C   0  0  0  0  0  0  0  0  0  0  0  0
   -0.8478    2.0642    0.1287 C   0  0  0  0  0  0  0  0  0  0  0  0
   -0.1929    2.3820   -0.8545 O   0  0  0  0  0  0  0  0  0  0  0  0
    0.2111   -0.2784    0.3529 C   0  0  0  0  0  0  0  0  0  0  0  0
    1.4287    0.1171   -0.4303 C   0  0  0  0  0  0  0  0  0  0  0  0
    2.7341    0.3031    0.1414 C   0  0  0  0  0  0  0  0  0  0  0  0
    2.4836   -0.9299   -0.4381 O   0  0  0  0  0  0  0  0  0  0  0  0
   -1.2672   -2.5186   -0.6756 H   0  0  0  0  0  0  0  0  0  0  0  0
   -1.9402   -1.9387    0.8577 H   0  0  0  0  0  0  0  0  0  0  0  0
   -2.8342   -1.6592   -0.6798 H   0  0  0  0  0  0  0  0  0  0  0  0
   -1.0528   -0.1109   -1.5225 H   0  0  0  0  0  0  0  0  0  0  0  0
   -1.5476    0.4967    1.4803 H   0  0  0  0  0  0  0  0  0  0  0  0
   -1.3656    2.8695    0.6473 H   0  0  0  0  0  0  0  0  0  0  0  0
    0.3936   -1.0262    1.1650 H   0  0  0  0  0  0  0  0  0  0  0  0
    1.2575    0.4079   -1.4850 H   0  0  0  0  0  0  0  0  0  0  0  0
    3.4739    0.9138   -0.4168 H   0  0  0  0  0  0  0  0  0  0  0  0
    2.8933    0.3628    1.2418 H   0  0  0  0  0  0  0  0  0  0  0  0
  1  2  1  0
  2  3  1  0
  3  4  1  0
  4  5  2  0
  3  6  1  0
  6  7  1  0
  7  8  1  0
  8  9  1  0
  6  2  1  0
  9  7  1  0
  1 10  1  0
  1 11  1  0
  1 12  1  0
  2 13  1  0
  3 14  1  0
  4 15  1  0
  6 16  1  0
  7 17  1  0
  8 18  1  0
  8 19  1  0
M  END
