
     RDKit          3D

 17 18  0  0  0  0  0  0  0  0999 V2000
   -1.4113    1.2287    0.1581 C   0  0  0  0  0  0  0  0  0  0  0  0
   -0.7213    0.1244   -0.5779 C   0  0  0  0  0  0  0  0  0  0  0  0
   -1.1544   -1.2242   -0.0841 C   0  0  0  0  0  0  0  0  0  0  0  0
   -0.5786   -0.8524    1.1247 O   0  0  0  0  0  0  0  0  0  0  0  0
    0.4075   -0.4654    0.1923 C   0  0  0  0  0  0  0  0  0  0  0  0
    1.6069    0.1258    0.5222 C   0  0  0  0  0  0  0  0  0  0  0  0
    2.3995    0.4084   -0.5662 O   0  0  0  0  0  0  0  0  0  0  0  0
    0.1466   -1.7195   -0.4623 C   0  0  0  0  0  0  0  0  0  0  0  0
    0.6400   -2.6540   -1.0089 O   0  0  0  0  0  0  0  0  0  0  0  0
   -0.7615    2.1012    0.3050 H   0  0  0  0  0  0  0  0  0  0  0  0
   -1.7549    0.8589    1.1469 H   0  0  0  0  0  0  0  0  0  0  0  0
   -2.3247    1.4986   -0.4203 H   0  0  0  0  0  0  0  0  0  0  0  0
   -0.6110    0.2506   -1.6515 H   0  0  0  0  0  0  0  0  0  0  0  0
   -2.0649   -1.6404   -0.2010 H   0  0  0  0  0  0  0  0  0  0  0  0
    2.2187   -0.4983    1.2194 H   0  0  0  0  0  0  0  0  0  0  0  0
    1.4742    1.0973    1.0755 H   0  0  0  0  0  0  0  0  0  0  0  0
    2.4894    1.3603   -0.7720 H   0  0  0  0  0  0  0  0  0  0  0  0
  1  2  1  0
  2  3  1  0
  3  4  1  0
  4  5  1  0
  5  6  1  0
  6  7  1  0
  5  8  1  0
  8  9  2  0
  5  2  1  0
  8  3  1  0
  1 10  1  0
  1 11  1  0
  1 12  1  0
  2 13  1  0
  3 14  1  0
  6 15  1  0
  6 16  1  0
  7 17  1  0
M  END
