
     RDKit          3D

 19 20  0  0  0  0  0  0  0  0999 V2000
    2.7410    0.3011   -0.5946 C   0  0  0  0  0  0  0  0  0  0  0  0
    1.6591   -0.3861    0.1548 C   0  0  0  0  0  0  0  0  0  0  0  0
    0.7358    0.3333    1.0563 C   0  0  0  0  0  0  0  0  0  0  0  0
   -0.4428   -0.2148    1.4854 O   0  0  0  0  0  0  0  0  0  0  0  0
   -0.8208   -0.8200    0.3067 C   0  0  0  0  0  0  0  0  0  0  0  0
   -2.2191   -0.5899   -0.1499 C   0  0  0  0  0  0  0  0  0  0  0  0
   -2.5522    0.8214   -0.3885 C   0  0  0  0  0  0  0  0  0  0  0  0
   -3.6639    1.1083   -0.7614 O   0  0  0  0  0  0  0  0  0  0  0  0
    0.2672   -0.0773   -0.3796 C   0  0  0  0  0  0  0  0  0  0  0  0
    3.1406    1.2016   -0.1167 H   0  0  0  0  0  0  0  0  0  0  0  0
    3.6076   -0.4025   -0.7310 H   0  0  0  0  0  0  0  0  0  0  0  0
    2.4444    0.5937   -1.6395 H   0  0  0  0  0  0  0  0  0  0  0  0
    1.7938   -1.4781    0.3704 H   0  0  0  0  0  0  0  0  0  0  0  0
    0.9108    1.3916    1.2356 H   0  0  0  0  0  0  0  0  0  0  0  0
   -0.5965   -1.9045    0.3488 H   0  0  0  0  0  0  0  0  0  0  0  0
   -2.3809   -1.1995   -1.0701 H   0  0  0  0  0  0  0  0  0  0  0  0
   -2.9016   -1.0526    0.6173 H   0  0  0  0  0  0  0  0  0  0  0  0
   -1.8228    1.6032   -0.2368 H   0  0  0  0  0  0  0  0  0  0  0  0
    0.1003    0.7712   -1.0313 H   0  0  0  0  0  0  0  0  0  0  0  0
  1  2  1  0
  2  3  1  0
  3  4  1  0
  4  5  1  0
  5  6  1  0
  6  7  1  0
  7  8  2  0
  5  9  1  0
  9  2  1  0
  9  3  1  0
  1 10  1  0
  1 11  1  0
  1 12  1  0
  2 13  1  0
  3 14  1  0
  5 15  1  0
  6 16  1  0
  6 17  1  0
  7 18  1  0
  9 19  1  0
M  END
