
     RDKit          3D

 19 21  0  0  0  0  0  0  0  0999 V2000
    2.1921    0.3376   -0.0969 C   0  0  0  0  0  0  0  0  0  0  0  0
    0.7685    0.5063   -0.5704 C   0  0  0  0  0  0  0  0  0  0  0  0
   -0.1381    0.5969    0.6479 C   0  0  0  0  0  0  0  0  0  0  0  0
   -1.5910    0.8322    0.2575 C   0  0  0  0  0  0  0  0  0  0  0  0
   -1.9537   -0.5614   -0.2224 C   0  0  0  0  0  0  0  0  0  0  0  0
   -1.1448   -0.8450   -1.2923 O   0  0  0  0  0  0  0  0  0  0  0  0
    0.1477   -0.8792   -0.7932 C   0  0  0  0  0  0  0  0  0  0  0  0
   -0.0628   -0.9054    0.7008 C   0  0  0  0  0  0  0  0  0  0  0  0
   -1.3710   -1.3414    0.8041 O   0  0  0  0  0  0  0  0  0  0  0  0
    2.9196    0.7611   -0.7879 H   0  0  0  0  0  0  0  0  0  0  0  0
    2.3113    0.8933    0.8735 H   0  0  0  0  0  0  0  0  0  0  0  0
    2.4553   -0.7095    0.1073 H   0  0  0  0  0  0  0  0  0  0  0  0
    0.5890    1.2286   -1.3595 H   0  0  0  0  0  0  0  0  0  0  0  0
    0.2346    1.1554    1.4922 H   0  0  0  0  0  0  0  0  0  0  0  0
   -2.1913    1.1446    1.1106 H   0  0  0  0  0  0  0  0  0  0  0  0
   -1.6706    1.4998   -0.6230 H   0  0  0  0  0  0  0  0  0  0  0  0
   -3.0071   -0.7332   -0.3480 H   0  0  0  0  0  0  0  0  0  0  0  0
    0.8226   -1.6193   -1.2135 H   0  0  0  0  0  0  0  0  0  0  0  0
    0.6896   -1.3615    1.3131 H   0  0  0  0  0  0  0  0  0  0  0  0
  1  2  1  0
  2  3  1  0
  3  4  1  0
  4  5  1  0
  5  6  1  0
  6  7  1  0
  7  8  1  0
  8  9  1  0
  7  2  1  0
  8  3  1  0
  9  5  1  0
  1 10  1  0
  1 11  1  0
  1 12  1  0
  2 13  1  0
  3 14  1  0
  4 15  1  0
  4 16  1  0
  5 17  1  0
  7 18  1  0
  8 19  1  0
M  END
