
     RDKit          3D

 23 24  0  0  0  0  0  0  0  0999 V2000
   -0.8889    1.6746    0.6645 C   0  0  0  0  0  0  0  0  0  0  0  0
   -0.1993    0.9192   -0.3946 C   0  0  0  0  0  0  0  0  0  0  0  0
   -0.9776   -0.2189   -1.0452 C   0  0  0  0  0  0  0  0  0  0  0  0
   -1.6457   -1.0893   -0.0216 C   0  0  0  0  0  0  0  0  0  0  0  0
   -0.7017   -1.8833    0.6616 O   0  0  0  0  0  0  0  0  0  0  0  0
    0.2893   -0.9945    1.1449 C   0  0  0  0  0  0  0  0  0  0  0  0
    0.7861   -0.1431    0.0282 C   0  0  0  0  0  0  0  0  0  0  0  0
    2.1998    0.3226    0.0983 C   0  0  0  0  0  0  0  0  0  0  0  0
    0.4107   -0.8293   -1.2953 C   0  0  0  0  0  0  0  0  0  0  0  0
   -1.9807    1.4672    0.6444 H   0  0  0  0  0  0  0  0  0  0  0  0
   -0.4508    1.5894    1.6807 H   0  0  0  0  0  0  0  0  0  0  0  0
   -0.8079    2.7743    0.4136 H   0  0  0  0  0  0  0  0  0  0  0  0
    0.2724    1.5210   -1.2268 H   0  0  0  0  0  0  0  0  0  0  0  0
   -1.5351    0.0353   -1.9397 H   0  0  0  0  0  0  0  0  0  0  0  0
   -2.3012   -1.7984   -0.5735 H   0  0  0  0  0  0  0  0  0  0  0  0
   -2.2937   -0.5476    0.6811 H   0  0  0  0  0  0  0  0  0  0  0  0
   -0.2201   -0.4187    1.9516 H   0  0  0  0  0  0  0  0  0  0  0  0
    1.1164   -1.5349    1.6249 H   0  0  0  0  0  0  0  0  0  0  0  0
    2.4017    0.9115   -0.8359 H   0  0  0  0  0  0  0  0  0  0  0  0
    2.9089   -0.5031    0.1788 H   0  0  0  0  0  0  0  0  0  0  0  0
    2.3136    0.9658    0.9800 H   0  0  0  0  0  0  0  0  0  0  0  0
    0.4396   -1.9143   -1.2754 H   0  0  0  0  0  0  0  0  0  0  0  0
    0.8640   -0.3054   -2.1447 H   0  0  0  0  0  0  0  0  0  0  0  0
  1  2  1  0
  2  3  1  0
  3  4  1  0
  4  5  1  0
  5  6  1  0
  6  7  1  0
  7  8  1  0
  7  9  1  0
  7  2  1  0
  9  3  1  0
  1 10  1  0
  1 11  1  0
  1 12  1  0
  2 13  1  0
  3 14  1  0
  4 15  1  0
  4 16  1  0
  6 17  1  0
  6 18  1  0
  8 19  1  0
  8 20  1  0
  8 21  1  0
  9 22  1  0
  9 23  1  0
M  END
