
     RDKit          3D

 21 24  0  0  0  0  0  0  0  0999 V2000
    2.3026   -0.4868   -0.3204 C   0  0  0  0  0  0  0  0  0  0  0  0
    1.2123    0.1705    0.4599 C   0  0  0  0  0  0  0  0  0  0  0  0
    0.1946   -0.8749    0.9868 C   0  0  0  0  0  0  0  0  0  0  0  0
   -1.3345   -0.9335    0.6465 C   0  0  0  0  0  0  0  0  0  0  0  0
   -2.1153    0.0717   -0.2511 C   0  0  0  0  0  0  0  0  0  0  0  0
   -1.0960    1.1163   -0.7753 C   0  0  0  0  0  0  0  0  0  0  0  0
    0.4327    1.1788   -0.4343 C   0  0  0  0  0  0  0  0  0  0  0  0
   -0.2986    0.1376   -0.7033 C   0  0  0  0  0  0  0  0  0  0  0  0
   -0.6042    0.0993    0.9018 C   0  0  0  0  0  0  0  0  0  0  0  0
    2.6373   -1.3753    0.2231 H   0  0  0  0  0  0  0  0  0  0  0  0
    3.1580    0.2280   -0.3663 H   0  0  0  0  0  0  0  0  0  0  0  0
    1.9244   -0.7446   -1.3298 H   0  0  0  0  0  0  0  0  0  0  0  0
    1.6192    0.7053    1.3166 H   0  0  0  0  0  0  0  0  0  0  0  0
    0.5838   -1.8700    0.9426 H   0  0  0  0  0  0  0  0  0  0  0  0
   -1.8568   -1.5987    1.2741 H   0  0  0  0  0  0  0  0  0  0  0  0
   -2.4736   -0.5295   -1.0998 H   0  0  0  0  0  0  0  0  0  0  0  0
   -2.8949    0.5730    0.3271 H   0  0  0  0  0  0  0  0  0  0  0  0
   -1.4679    2.1087   -0.9106 H   0  0  0  0  0  0  0  0  0  0  0  0
    0.9790    1.7985   -1.0981 H   0  0  0  0  0  0  0  0  0  0  0  0
   -0.1231   -0.7378   -1.2739 H   0  0  0  0  0  0  0  0  0  0  0  0
   -0.7790    0.9634    1.4844 H   0  0  0  0  0  0  0  0  0  0  0  0
  1  2  1  0
  2  3  1  0
  3  4  1  0
  4  5  1  0
  5  6  1  0
  6  7  1  0
  7  8  1  0
  8  9  1  0
  7  2  1  0
  9  3  1  0
  9  4  1  0
  8  6  1  0
  1 10  1  0
  1 11  1  0
  1 12  1  0
  2 13  1  0
  3 14  1  0
  4 15  1  0
  5 16  1  0
  5 17  1  0
  6 18  1  0
  7 19  1  0
  8 20  1  0
  9 21  1  0
M  END
