
     RDKit          3D

 23 24  0  0  0  0  0  0  0  0999 V2000
   -2.0875   -1.2048    0.7957 C   0  0  0  0  0  0  0  0  0  0  0  0
   -1.6943   -0.2663   -0.3158 C   0  0  0  0  0  0  0  0  0  0  0  0
   -0.4932   -0.6151   -1.0861 C   0  0  0  0  0  0  0  0  0  0  0  0
    0.6511   -1.2587   -0.3601 C   0  0  0  0  0  0  0  0  0  0  0  0
    0.6894   -0.0875    0.5970 C   0  0  0  0  0  0  0  0  0  0  0  0
    1.9926    0.6630    0.4976 C   0  0  0  0  0  0  0  0  0  0  0  0
    3.0201   -0.1999    0.8057 O   0  0  0  0  0  0  0  0  0  0  0  0
   -0.4708    0.5142   -0.1361 C   0  0  0  0  0  0  0  0  0  0  0  0
   -0.4732    1.9345   -0.5637 C   0  0  0  0  0  0  0  0  0  0  0  0
   -1.8087   -0.7986    1.7972 H   0  0  0  0  0  0  0  0  0  0  0  0
   -3.1941   -1.3256    0.8162 H   0  0  0  0  0  0  0  0  0  0  0  0
   -1.6546   -2.2054    0.6232 H   0  0  0  0  0  0  0  0  0  0  0  0
   -2.5289    0.2315   -0.8854 H   0  0  0  0  0  0  0  0  0  0  0  0
   -0.4657   -0.4836   -2.1760 H   0  0  0  0  0  0  0  0  0  0  0  0
    1.5824   -1.4040   -0.9301 H   0  0  0  0  0  0  0  0  0  0  0  0
    0.3908   -2.2221    0.1635 H   0  0  0  0  0  0  0  0  0  0  0  0
    0.4091   -0.3121    1.6398 H   0  0  0  0  0  0  0  0  0  0  0  0
    2.1291    1.0355   -0.5172 H   0  0  0  0  0  0  0  0  0  0  0  0
    1.9295    1.5097    1.2179 H   0  0  0  0  0  0  0  0  0  0  0  0
    3.5530   -0.4831    0.0242 H   0  0  0  0  0  0  0  0  0  0  0  0
   -0.9106    2.5583    0.2426 H   0  0  0  0  0  0  0  0  0  0  0  0
    0.5273    2.3505   -0.7870 H   0  0  0  0  0  0  0  0  0  0  0  0
   -1.0927    2.0695   -1.4631 H   0  0  0  0  0  0  0  0  0  0  0  0
  1  2  1  0
  2  3  1  0
  3  4  1  0
  4  5  1  0
  5  6  1  0
  6  7  1  0
  5  8  1  0
  8  9  1  0
  8  2  1  0
  8  3  1  0
  1 10  1  0
  1 11  1  0
  1 12  1  0
  2 13  1  0
  3 14  1  0
  4 15  1  0
  4 16  1  0
  5 17  1  0
  6 18  1  0
  6 19  1  0
  7 20  1  0
  9 21  1  0
  9 22  1  0
  9 23  1  0
M  END
