
     RDKit          3D

 23 25  0  0  0  0  0  0  0  0999 V2000
    2.6181   -0.2064   -0.3554 C   0  0  0  0  0  0  0  0  0  0  0  0
    1.1771   -0.6130   -0.3317 C   0  0  0  0  0  0  0  0  0  0  0  0
    0.5239   -0.6759    1.0218 C   0  0  0  0  0  0  0  0  0  0  0  0
    0.5612    0.8610    0.9979 C   0  0  0  0  0  0  0  0  0  0  0  0
    0.2999    0.6252   -0.4977 C   0  0  0  0  0  0  0  0  0  0  0  0
   -1.0689    0.0795   -0.4891 C   0  0  0  0  0  0  0  0  0  0  0  0
   -2.1661    1.1316   -0.3540 C   0  0  0  0  0  0  0  0  0  0  0  0
   -1.4509   -1.3185   -0.5574 C   0  0  0  0  0  0  0  0  0  0  0  0
   -0.9304   -0.8877    0.7420 C   0  0  0  0  0  0  0  0  0  0  0  0
    3.2247   -0.7039    0.4341 H   0  0  0  0  0  0  0  0  0  0  0  0
    3.0617   -0.5172   -1.3239 H   0  0  0  0  0  0  0  0  0  0  0  0
    2.7547    0.9147   -0.3335 H   0  0  0  0  0  0  0  0  0  0  0  0
    0.9823   -1.4320   -1.0198 H   0  0  0  0  0  0  0  0  0  0  0  0
    1.0044   -1.1641    1.8265 H   0  0  0  0  0  0  0  0  0  0  0  0
    1.5195    1.3047    1.2400 H   0  0  0  0  0  0  0  0  0  0  0  0
   -0.3316    1.2905    1.4628 H   0  0  0  0  0  0  0  0  0  0  0  0
    0.6177    1.3788   -1.1739 H   0  0  0  0  0  0  0  0  0  0  0  0
   -1.8871    1.9492    0.3203 H   0  0  0  0  0  0  0  0  0  0  0  0
   -3.1426    0.6605   -0.1186 H   0  0  0  0  0  0  0  0  0  0  0  0
   -2.2744    1.5652   -1.3709 H   0  0  0  0  0  0  0  0  0  0  0  0
   -2.5646   -1.5133   -0.5609 H   0  0  0  0  0  0  0  0  0  0  0  0
   -0.9342   -2.0956   -1.1546 H   0  0  0  0  0  0  0  0  0  0  0  0
   -1.5944   -0.6334    1.5961 H   0  0  0  0  0  0  0  0  0  0  0  0
  1  2  1  0
  2  3  1  0
  3  4  1  0
  4  5  1  0
  5  6  1  0
  6  7  1  0
  6  8  1  0
  8  9  1  0
  5  2  1  0
  9  6  1  0
  9  3  1  0
  1 10  1  0
  1 11  1  0
  1 12  1  0
  2 13  1  0
  3 14  1  0
  4 15  1  0
  4 16  1  0
  5 17  1  0
  7 18  1  0
  7 19  1  0
  7 20  1  0
  8 21  1  0
  8 22  1  0
  9 23  1  0
M  END
