
     RDKit          3D

 23 23  0  0  0  0  0  0  0  0999 V2000
    2.3959    0.4927    0.2112 C   0  0  0  0  0  0  0  0  0  0  0  0
    1.3698   -0.0931   -0.7695 C   0  0  0  0  0  0  0  0  0  0  0  0
    0.7838   -1.3418   -0.2444 C   0  0  0  0  0  0  0  0  0  0  0  0
   -0.6443   -1.3151    0.1202 C   0  0  0  0  0  0  0  0  0  0  0  0
   -1.2988    0.0265    0.0888 C   0  0  0  0  0  0  0  0  0  0  0  0
   -2.6693   -0.0266    0.6864 C   0  0  0  0  0  0  0  0  0  0  0  0
   -0.5365    0.9145    0.8536 O   0  0  0  0  0  0  0  0  0  0  0  0
    0.1263    1.7378   -0.0869 C   0  0  0  0  0  0  0  0  0  0  0  0
    0.4783    0.8825   -1.1390 O   0  0  0  0  0  0  0  0  0  0  0  0
    2.7794    1.4567   -0.1249 H   0  0  0  0  0  0  0  0  0  0  0  0
    1.9560    0.4814    1.2169 H   0  0  0  0  0  0  0  0  0  0  0  0
    3.2226   -0.2765    0.2358 H   0  0  0  0  0  0  0  0  0  0  0  0
    1.9803   -0.3342   -1.6901 H   0  0  0  0  0  0  0  0  0  0  0  0
    1.3797   -1.6559    0.6633 H   0  0  0  0  0  0  0  0  0  0  0  0
    0.9418   -2.1988   -0.9647 H   0  0  0  0  0  0  0  0  0  0  0  0
   -1.2623   -1.9907   -0.5406 H   0  0  0  0  0  0  0  0  0  0  0  0
   -0.8186   -1.7349    1.1549 H   0  0  0  0  0  0  0  0  0  0  0  0
   -1.3968    0.3389   -0.9629 H   0  0  0  0  0  0  0  0  0  0  0  0
   -3.2998   -0.6681    0.0278 H   0  0  0  0  0  0  0  0  0  0  0  0
   -3.1065    1.0063    0.6037 H   0  0  0  0  0  0  0  0  0  0  0  0
   -2.6730   -0.3789    1.7309 H   0  0  0  0  0  0  0  0  0  0  0  0
   -0.6771    2.4068   -0.4867 H   0  0  0  0  0  0  0  0  0  0  0  0
    0.9692    2.2703    0.3466 H   0  0  0  0  0  0  0  0  0  0  0  0
  1  2  1  0
  2  3  1  0
  3  4  1  0
  4  5  1  0
  5  6  1  0
  5  7  1  0
  7  8  1  0
  8  9  1  0
  9  2  1  0
  1 10  1  0
  1 11  1  0
  1 12  1  0
  2 13  1  0
  3 14  1  0
  3 15  1  0
  4 16  1  0
  4 17  1  0
  5 18  1  0
  6 19  1  0
  6 20  1  0
  6 21  1  0
  8 22  1  0
  8 23  1  0
M  END
