
     RDKit          3D

 19 20  0  0  0  0  0  0  0  0999 V2000
    2.6399    0.2380   -0.0221 C   0  0  0  0  0  0  0  0  0  0  0  0
    1.2707    0.3365    0.5601 C   0  0  0  0  0  0  0  0  0  0  0  0
    0.1847    0.4024   -0.5205 C   0  0  0  0  0  0  0  0  0  0  0  0
   -0.9221   -0.3346    0.1469 C   0  0  0  0  0  0  0  0  0  0  0  0
   -2.3010   -0.3720   -0.2686 C   0  0  0  0  0  0  0  0  0  0  0  0
   -1.9509    0.5465    0.8426 C   0  0  0  0  0  0  0  0  0  0  0  0
   -0.2377   -1.3747    0.9154 C   0  0  0  0  0  0  0  0  0  0  0  0
   -0.6678   -2.5261    1.1491 O   0  0  0  0  0  0  0  0  0  0  0  0
    0.9768   -0.8174    1.3250 O   0  0  0  0  0  0  0  0  0  0  0  0
    3.2789    1.0070    0.4858 H   0  0  0  0  0  0  0  0  0  0  0  0
    3.0984   -0.7475    0.2570 H   0  0  0  0  0  0  0  0  0  0  0  0
    2.6048    0.3775   -1.1128 H   0  0  0  0  0  0  0  0  0  0  0  0
    1.1461    1.2054    1.2458 H   0  0  0  0  0  0  0  0  0  0  0  0
   -0.0697    1.4515   -0.7229 H   0  0  0  0  0  0  0  0  0  0  0  0
    0.5646   -0.0874   -1.4392 H   0  0  0  0  0  0  0  0  0  0  0  0
   -2.6537    0.0529   -1.2285 H   0  0  0  0  0  0  0  0  0  0  0  0
   -2.9092   -1.2614    0.0360 H   0  0  0  0  0  0  0  0  0  0  0  0
   -2.1076    0.2693    1.8982 H   0  0  0  0  0  0  0  0  0  0  0  0
   -1.9453    1.6341    0.5713 H   0  0  0  0  0  0  0  0  0  0  0  0
  1  2  1  0
  2  3  1  0
  3  4  1  0
  4  5  1  0
  5  6  1  0
  4  7  1  0
  7  8  2  0
  7  9  1  0
  9  2  1  0
  6  4  1  0
  1 10  1  0
  1 11  1  0
  1 12  1  0
  2 13  1  0
  3 14  1  0
  3 15  1  0
  5 16  1  0
  5 17  1  0
  6 18  1  0
  6 19  1  0
M  END
