
     RDKit          3D

 23 24  0  0  0  0  0  0  0  0999 V2000
    1.9120   -0.5181    0.5700 C   0  0  0  0  0  0  0  0  0  0  0  0
    1.1209    0.1331   -0.5157 C   0  0  0  0  0  0  0  0  0  0  0  0
    0.5617    1.4808   -0.1412 C   0  0  0  0  0  0  0  0  0  0  0  0
   -0.8013    1.5496    0.3849 C   0  0  0  0  0  0  0  0  0  0  0  0
   -1.7452    0.4151   -0.0455 C   0  0  0  0  0  0  0  0  0  0  0  0
   -0.9546   -0.8080    0.0988 C   0  0  0  0  0  0  0  0  0  0  0  0
   -0.3623   -0.8499    1.3878 O   0  0  0  0  0  0  0  0  0  0  0  0
   -0.6028   -1.8688   -0.7649 C   0  0  0  0  0  0  0  0  0  0  0  0
    0.0397   -0.6621   -1.1090 C   0  0  0  0  0  0  0  0  0  0  0  0
    1.7192   -1.6193    0.6658 H   0  0  0  0  0  0  0  0  0  0  0  0
    1.8030   -0.0006    1.5680 H   0  0  0  0  0  0  0  0  0  0  0  0
    3.0273   -0.4643    0.3832 H   0  0  0  0  0  0  0  0  0  0  0  0
    1.8561    0.3502   -1.3528 H   0  0  0  0  0  0  0  0  0  0  0  0
    0.6469    2.2080   -1.0015 H   0  0  0  0  0  0  0  0  0  0  0  0
    1.2683    1.9043    0.6286 H   0  0  0  0  0  0  0  0  0  0  0  0
   -1.2557    2.5248    0.1650 H   0  0  0  0  0  0  0  0  0  0  0  0
   -0.7645    1.4676    1.5099 H   0  0  0  0  0  0  0  0  0  0  0  0
   -2.6535    0.4933    0.5531 H   0  0  0  0  0  0  0  0  0  0  0  0
   -2.0183    0.6553   -1.1046 H   0  0  0  0  0  0  0  0  0  0  0  0
   -1.0441   -1.2571    1.9637 H   0  0  0  0  0  0  0  0  0  0  0  0
    0.0086   -2.7173   -0.3742 H   0  0  0  0  0  0  0  0  0  0  0  0
   -1.3979   -2.2808   -1.4407 H   0  0  0  0  0  0  0  0  0  0  0  0
   -0.3634   -0.1358   -2.0287 H   0  0  0  0  0  0  0  0  0  0  0  0
  1  2  1  0
  2  3  1  0
  3  4  1  0
  4  5  1  0
  5  6  1  0
  6  7  1  0
  6  8  1  0
  8  9  1  0
  9  2  1  0
  9  6  1  0
  1 10  1  0
  1 11  1  0
  1 12  1  0
  2 13  1  0
  3 14  1  0
  3 15  1  0
  4 16  1  0
  4 17  1  0
  5 18  1  0
  5 19  1  0
  7 20  1  0
  8 21  1  0
  8 22  1  0
  9 23  1  0
M  END
