
     RDKit          3D

 25 26  0  0  0  0  0  0  0  0999 V2000
   -0.8834    2.1305    0.4183 C   0  0  0  0  0  0  0  0  0  0  0  0
    0.2696    1.4477   -0.1888 C   0  0  0  0  0  0  0  0  0  0  0  0
    0.9660    0.3851    0.6069 C   0  0  0  0  0  0  0  0  0  0  0  0
    0.0279   -0.4777    1.3980 C   0  0  0  0  0  0  0  0  0  0  0  0
   -1.1560   -0.9616    0.6247 C   0  0  0  0  0  0  0  0  0  0  0  0
   -1.2199   -0.4659   -0.7831 C   0  0  0  0  0  0  0  0  0  0  0  0
   -0.0393    0.3512   -1.2023 C   0  0  0  0  0  0  0  0  0  0  0  0
    1.2761   -0.2474   -0.7571 C   0  0  0  0  0  0  0  0  0  0  0  0
    1.3992   -1.7130   -0.7769 C   0  0  0  0  0  0  0  0  0  0  0  0
   -0.5842    2.4888    1.4424 H   0  0  0  0  0  0  0  0  0  0  0  0
   -1.8339    1.5938    0.4209 H   0  0  0  0  0  0  0  0  0  0  0  0
   -1.0674    3.0861   -0.1545 H   0  0  0  0  0  0  0  0  0  0  0  0
    1.0204    2.1437   -0.6250 H   0  0  0  0  0  0  0  0  0  0  0  0
    1.8370    0.6756    1.1863 H   0  0  0  0  0  0  0  0  0  0  0  0
   -0.3501    0.1573    2.2463 H   0  0  0  0  0  0  0  0  0  0  0  0
    0.6045   -1.2842    1.8579 H   0  0  0  0  0  0  0  0  0  0  0  0
   -1.1760   -2.0917    0.6388 H   0  0  0  0  0  0  0  0  0  0  0  0
   -2.1261   -0.6799    1.1326 H   0  0  0  0  0  0  0  0  0  0  0  0
   -2.1329    0.1457   -0.9844 H   0  0  0  0  0  0  0  0  0  0  0  0
   -1.2898   -1.3318   -1.4808 H   0  0  0  0  0  0  0  0  0  0  0  0
   -0.1076    0.6643   -2.2387 H   0  0  0  0  0  0  0  0  0  0  0  0
    2.1072    0.3104   -1.2102 H   0  0  0  0  0  0  0  0  0  0  0  0
    0.8195   -2.1111   -1.6585 H   0  0  0  0  0  0  0  0  0  0  0  0
    1.1686   -2.2434    0.1472 H   0  0  0  0  0  0  0  0  0  0  0  0
    2.4706   -1.9725   -1.0247 H   0  0  0  0  0  0  0  0  0  0  0  0
  1  2  1  0
  2  3  1  0
  3  4  1  0
  4  5  1  0
  5  6  1  0
  6  7  1  0
  7  8  1  0
  8  9  1  0
  7  2  1  0
  8  3  1  0
  1 10  1  0
  1 11  1  0
  1 12  1  0
  2 13  1  0
  3 14  1  0
  4 15  1  0
  4 16  1  0
  5 17  1  0
  5 18  1  0
  6 19  1  0
  6 20  1  0
  7 21  1  0
  8 22  1  0
  9 23  1  0
  9 24  1  0
  9 25  1  0
M  END
