
     RDKit          3D

 21 21  0  0  0  0  0  0  0  0999 V2000
    1.8603   -1.4312    0.3445 C   0  0  0  0  0  0  0  0  0  0  0  0
    1.3650   -0.1815   -0.2915 C   0  0  0  0  0  0  0  0  0  0  0  0
    2.1077    0.6329   -1.1327 C   0  0  0  0  0  0  0  0  0  0  0  0
    1.2737    1.6947   -1.4379 C   0  0  0  0  0  0  0  0  0  0  0  0
    0.1199    1.5431   -0.8302 O   0  0  0  0  0  0  0  0  0  0  0  0
    0.1338    0.4471   -0.1461 C   0  0  0  0  0  0  0  0  0  0  0  0
   -0.9566   -0.1304    0.6895 C   0  0  0  0  0  0  0  0  0  0  0  0
   -1.8619    0.9707    1.2046 C   0  0  0  0  0  0  0  0  0  0  0  0
   -1.8230   -0.9491   -0.3413 C   0  0  0  0  0  0  0  0  0  0  0  0
    1.0636   -2.1848    0.4111 H   0  0  0  0  0  0  0  0  0  0  0  0
    2.7540   -1.7605   -0.1722 H   0  0  0  0  0  0  0  0  0  0  0  0
    2.1864   -1.2030    1.4124 H   0  0  0  0  0  0  0  0  0  0  0  0
    3.1254    0.4563   -1.4704 H   0  0  0  0  0  0  0  0  0  0  0  0
    1.5298    2.5296   -2.0847 H   0  0  0  0  0  0  0  0  0  0  0  0
   -0.6358   -0.8283    1.4296 H   0  0  0  0  0  0  0  0  0  0  0  0
   -2.2036    0.7140    2.2555 H   0  0  0  0  0  0  0  0  0  0  0  0
   -1.2791    1.9018    1.2330 H   0  0  0  0  0  0  0  0  0  0  0  0
   -2.7977    1.0901    0.6318 H   0  0  0  0  0  0  0  0  0  0  0  0
   -1.1002   -1.6335   -0.8107 H   0  0  0  0  0  0  0  0  0  0  0  0
   -2.2347   -0.2038   -1.0702 H   0  0  0  0  0  0  0  0  0  0  0  0
   -2.6271   -1.4741    0.1761 H   0  0  0  0  0  0  0  0  0  0  0  0
  1  2  1  0
  2  3  1  0
  3  4  2  0
  4  5  1  0
  5  6  1  0
  6  7  1  0
  7  8  1  0
  7  9  1  0
  6  2  2  0
  1 10  1  0
  1 11  1  0
  1 12  1  0
  3 13  1  0
  4 14  1  0
  7 15  1  0
  8 16  1  0
  8 17  1  0
  8 18  1  0
  9 19  1  0
  9 20  1  0
  9 21  1  0
M  END
