
     RDKit          3D

 17 18  0  0  0  0  0  0  0  0999 V2000
   -1.4909   -0.9556    0.5295 C   0  0  0  0  0  0  0  0  0  0  0  0
   -0.4414    0.0896    0.7076 C   0  0  0  0  0  0  0  0  0  0  0  0
   -0.7471    1.4242    0.0585 C   0  0  0  0  0  0  0  0  0  0  0  0
    0.2987    2.3424    0.1807 O   0  0  0  0  0  0  0  0  0  0  0  0
    0.3552    1.3516   -0.7665 C   0  0  0  0  0  0  0  0  0  0  0  0
    0.6359   -0.0789   -0.3741 C   0  0  0  0  0  0  0  0  0  0  0  0
    0.2769   -0.9446   -1.3954 O   0  0  0  0  0  0  0  0  0  0  0  0
    1.9297   -0.3339    0.2627 C   0  0  0  0  0  0  0  0  0  0  0  0
    2.5987   -1.2710   -0.1341 O   0  0  0  0  0  0  0  0  0  0  0  0
   -0.9755   -1.9477    0.4632 H   0  0  0  0  0  0  0  0  0  0  0  0
   -2.2293   -0.8992    1.3274 H   0  0  0  0  0  0  0  0  0  0  0  0
   -1.9453   -0.7991   -0.4881 H   0  0  0  0  0  0  0  0  0  0  0  0
   -0.0380    0.2316    1.7218 H   0  0  0  0  0  0  0  0  0  0  0  0
   -1.7700    1.7573   -0.0706 H   0  0  0  0  0  0  0  0  0  0  0  0
    0.4260    1.5690   -1.8408 H   0  0  0  0  0  0  0  0  0  0  0  0
    0.7708   -1.7860   -1.2497 H   0  0  0  0  0  0  0  0  0  0  0  0
    2.3455    0.2503    1.0678 H   0  0  0  0  0  0  0  0  0  0  0  0
  1  2  1  0
  2  3  1  0
  3  4  1  0
  4  5  1  0
  5  6  1  0
  6  7  1  0
  6  8  1  0
  8  9  2  0
  6  2  1  0
  5  3  1  0
  1 10  1  0
  1 11  1  0
  1 12  1  0
  2 13  1  0
  3 14  1  0
  5 15  1  0
  7 16  1  0
  8 17  1  0
M  END
