
     RDKit          3D

 23 23  0  0  0  0  0  0  0  0999 V2000
    2.8806    0.5861   -0.0103 C   0  0  0  0  0  0  0  0  0  0  0  0
    1.7394   -0.1905    0.5861 C   0  0  0  0  0  0  0  0  0  0  0  0
    0.5556    0.6971    0.8978 C   0  0  0  0  0  0  0  0  0  0  0  0
   -0.1579    0.1137   -0.2941 C   0  0  0  0  0  0  0  0  0  0  0  0
   -1.5471   -0.2949    0.0647 C   0  0  0  0  0  0  0  0  0  0  0  0
   -2.3286   -0.8885   -1.0731 C   0  0  0  0  0  0  0  0  0  0  0  0
   -2.2720    0.8845    0.5759 C   0  0  0  0  0  0  0  0  0  0  0  0
   -1.6540    1.7940    1.0678 O   0  0  0  0  0  0  0  0  0  0  0  0
    0.8802   -0.9506   -0.3830 C   0  0  0  0  0  0  0  0  0  0  0  0
    2.9985    0.4379   -1.0931 H   0  0  0  0  0  0  0  0  0  0  0  0
    2.8577    1.6584    0.2414 H   0  0  0  0  0  0  0  0  0  0  0  0
    3.8171    0.1796    0.4667 H   0  0  0  0  0  0  0  0  0  0  0  0
    1.9984   -0.8288    1.4514 H   0  0  0  0  0  0  0  0  0  0  0  0
    0.7795    1.7861    0.8225 H   0  0  0  0  0  0  0  0  0  0  0  0
    0.1007    0.4833    1.8836 H   0  0  0  0  0  0  0  0  0  0  0  0
   -0.0958    0.8117   -1.1513 H   0  0  0  0  0  0  0  0  0  0  0  0
   -1.5361   -1.0505    0.8781 H   0  0  0  0  0  0  0  0  0  0  0  0
   -1.7666   -1.7520   -1.4754 H   0  0  0  0  0  0  0  0  0  0  0  0
   -2.6213   -0.1587   -1.8428 H   0  0  0  0  0  0  0  0  0  0  0  0
   -3.2706   -1.3018   -0.6483 H   0  0  0  0  0  0  0  0  0  0  0  0
   -3.3372    0.9257    0.5075 H   0  0  0  0  0  0  0  0  0  0  0  0
    1.3985   -0.9826   -1.3838 H   0  0  0  0  0  0  0  0  0  0  0  0
    0.5809   -1.9593   -0.0883 H   0  0  0  0  0  0  0  0  0  0  0  0
  1  2  1  0
  2  3  1  0
  3  4  1  0
  4  5  1  0
  5  6  1  0
  5  7  1  0
  7  8  2  0
  4  9  1  0
  9  2  1  0
  1 10  1  0
  1 11  1  0
  1 12  1  0
  2 13  1  0
  3 14  1  0
  3 15  1  0
  4 16  1  0
  5 17  1  0
  6 18  1  0
  6 19  1  0
  6 20  1  0
  7 21  1  0
  9 22  1  0
  9 23  1  0
M  END
