
     RDKit          3D

 19 21  0  0  0  0  0  0  0  0999 V2000
    1.9539   -0.7249    0.2171 C   0  0  0  0  0  0  0  0  0  0  0  0
    0.9222    0.3241    0.4829 C   0  0  0  0  0  0  0  0  0  0  0  0
   -0.2635   -0.0825    1.2980 C   0  0  0  0  0  0  0  0  0  0  0  0
   -1.5501   -0.4639    0.6505 C   0  0  0  0  0  0  0  0  0  0  0  0
   -1.4343   -1.1444   -0.6862 C   0  0  0  0  0  0  0  0  0  0  0  0
   -0.5397   -0.4669   -1.3905 C   0  0  0  0  0  0  0  0  0  0  0  0
    0.0029    0.6810   -0.6282 C   0  0  0  0  0  0  0  0  0  0  0  0
    0.3434    1.7942   -1.3711 O   0  0  0  0  0  0  0  0  0  0  0  0
   -1.0777    0.8709    0.3965 C   0  0  0  0  0  0  0  0  0  0  0  0
    2.5532   -0.8377    1.1606 H   0  0  0  0  0  0  0  0  0  0  0  0
    1.5704   -1.6690   -0.1511 H   0  0  0  0  0  0  0  0  0  0  0  0
    2.6581   -0.3010   -0.5524 H   0  0  0  0  0  0  0  0  0  0  0  0
    1.4149    1.2422    0.8944 H   0  0  0  0  0  0  0  0  0  0  0  0
   -0.2487    0.1141    2.3631 H   0  0  0  0  0  0  0  0  0  0  0  0
   -2.3511   -0.7636    1.3261 H   0  0  0  0  0  0  0  0  0  0  0  0
   -1.9912   -2.0370   -1.0113 H   0  0  0  0  0  0  0  0  0  0  0  0
   -0.2452   -0.7367   -2.4181 H   0  0  0  0  0  0  0  0  0  0  0  0
   -0.4053    2.4052   -1.4461 H   0  0  0  0  0  0  0  0  0  0  0  0
   -1.3124    1.7959    0.8660 H   0  0  0  0  0  0  0  0  0  0  0  0
  1  2  1  0
  2  3  1  0
  3  4  1  0
  4  5  1  0
  5  6  2  0
  6  7  1  0
  7  8  1  0
  7  9  1  0
  7  2  1  0
  9  3  1  0
  9  4  1  0
  1 10  1  0
  1 11  1  0
  1 12  1  0
  2 13  1  0
  3 14  1  0
  4 15  1  0
  5 16  1  0
  6 17  1  0
  8 18  1  0
  9 19  1  0
M  END
