
     RDKit          3D

 21 22  0  0  0  0  0  0  0  0999 V2000
   -1.7631    1.6437    0.0653 C   0  0  0  0  0  0  0  0  0  0  0  0
   -0.8490    0.5459   -0.3554 C   0  0  0  0  0  0  0  0  0  0  0  0
   -1.4302   -0.8426   -0.0880 C   0  0  0  0  0  0  0  0  0  0  0  0
   -0.6149   -1.7429   -0.7080 O   0  0  0  0  0  0  0  0  0  0  0  0
    0.6919   -1.7364   -0.3458 C   0  0  0  0  0  0  0  0  0  0  0  0
    1.1838   -0.6397    0.4867 C   0  0  0  0  0  0  0  0  0  0  0  0
    2.1493    0.2928   -0.2408 C   0  0  0  0  0  0  0  0  0  0  0  0
    1.3996    1.4081    0.0839 O   0  0  0  0  0  0  0  0  0  0  0  0
    0.3888    0.6030    0.5441 C   0  0  0  0  0  0  0  0  0  0  0  0
   -2.8066    1.3393    0.1686 H   0  0  0  0  0  0  0  0  0  0  0  0
   -1.6657    2.4673   -0.6929 H   0  0  0  0  0  0  0  0  0  0  0  0
   -1.4713    2.1069    1.0478 H   0  0  0  0  0  0  0  0  0  0  0  0
   -0.5237    0.6284   -1.4063 H   0  0  0  0  0  0  0  0  0  0  0  0
   -1.4087   -1.0144    1.0234 H   0  0  0  0  0  0  0  0  0  0  0  0
   -2.4497   -0.9527   -0.4573 H   0  0  0  0  0  0  0  0  0  0  0  0
    0.9031   -2.7135    0.1834 H   0  0  0  0  0  0  0  0  0  0  0  0
    1.3079   -1.8179   -1.2905 H   0  0  0  0  0  0  0  0  0  0  0  0
    1.5700   -0.9106    1.5093 H   0  0  0  0  0  0  0  0  0  0  0  0
    2.2152    0.1157   -1.3303 H   0  0  0  0  0  0  0  0  0  0  0  0
    3.1504    0.3674    0.2206 H   0  0  0  0  0  0  0  0  0  0  0  0
    0.0227    0.8523    1.5821 H   0  0  0  0  0  0  0  0  0  0  0  0
  1  2  1  0
  2  3  1  0
  3  4  1  0
  4  5  1  0
  5  6  1  0
  6  7  1  0
  7  8  1  0
  8  9  1  0
  9  2  1  0
  9  6  1  0
  1 10  1  0
  1 11  1  0
  1 12  1  0
  2 13  1  0
  3 14  1  0
  3 15  1  0
  5 16  1  0
  5 17  1  0
  6 18  1  0
  7 19  1  0
  7 20  1  0
  9 21  1  0
M  END
