
     RDKit          3D

 22 22  0  0  0  0  0  0  0  0999 V2000
   -0.1027    2.2482    0.3339 C   0  0  0  0  0  0  0  0  0  0  0  0
   -0.2591    0.8915   -0.3355 C   0  0  0  0  0  0  0  0  0  0  0  0
   -1.6442    0.3832   -0.2503 C   0  0  0  0  0  0  0  0  0  0  0  0
   -1.9604   -0.8806    0.0147 C   0  0  0  0  0  0  0  0  0  0  0  0
   -0.9302   -1.9355    0.2578 C   0  0  0  0  0  0  0  0  0  0  0  0
    0.3511   -1.4620   -0.4087 C   0  0  0  0  0  0  0  0  0  0  0  0
    0.6789   -0.1227    0.2400 C   0  0  0  0  0  0  0  0  0  0  0  0
    2.1250    0.1624   -0.0279 C   0  0  0  0  0  0  0  0  0  0  0  0
    0.4865    2.1851    1.2736 H   0  0  0  0  0  0  0  0  0  0  0  0
    0.4369    2.9619   -0.3322 H   0  0  0  0  0  0  0  0  0  0  0  0
   -1.0829    2.7043    0.5883 H   0  0  0  0  0  0  0  0  0  0  0  0
   -0.0152    1.0057   -1.4094 H   0  0  0  0  0  0  0  0  0  0  0  0
   -2.5018    1.0591   -0.4095 H   0  0  0  0  0  0  0  0  0  0  0  0
   -2.9966   -1.2017    0.0657 H   0  0  0  0  0  0  0  0  0  0  0  0
   -1.2118   -2.8874   -0.2028 H   0  0  0  0  0  0  0  0  0  0  0  0
   -0.7099   -2.0276    1.3570 H   0  0  0  0  0  0  0  0  0  0  0  0
    1.1938   -2.1347   -0.2569 H   0  0  0  0  0  0  0  0  0  0  0  0
    0.0905   -1.3297   -1.4942 H   0  0  0  0  0  0  0  0  0  0  0  0
    0.4948   -0.1936    1.3241 H   0  0  0  0  0  0  0  0  0  0  0  0
    2.3615    1.2423   -0.0902 H   0  0  0  0  0  0  0  0  0  0  0  0
    2.7455   -0.3451    0.7549 H   0  0  0  0  0  0  0  0  0  0  0  0
    2.4503   -0.3232   -0.9924 H   0  0  0  0  0  0  0  0  0  0  0  0
  1  2  1  0
  2  3  1  0
  3  4  2  0
  4  5  1  0
  5  6  1  0
  6  7  1  0
  7  8  1  0
  7  2  1  0
  1  9  1  0
  1 10  1  0
  1 11  1  0
  2 12  1  0
  3 13  1  0
  4 14  1  0
  5 15  1  0
  5 16  1  0
  6 17  1  0
  6 18  1  0
  7 19  1  0
  8 20  1  0
  8 21  1  0
  8 22  1  0
M  END
