
     RDKit          3D

 23 24  0  0  0  0  0  0  0  0999 V2000
    2.3938    1.1334   -0.1164 C   0  0  0  0  0  0  0  0  0  0  0  0
    1.6798   -0.1160   -0.5095 C   0  0  0  0  0  0  0  0  0  0  0  0
    0.4511    0.0581   -1.3711 C   0  0  0  0  0  0  0  0  0  0  0  0
   -0.3707   -0.7235   -0.4017 C   0  0  0  0  0  0  0  0  0  0  0  0
   -1.7494   -0.2359   -0.0350 C   0  0  0  0  0  0  0  0  0  0  0  0
   -1.7418    1.1313    0.5912 C   0  0  0  0  0  0  0  0  0  0  0  0
   -2.4580   -1.1549    0.7142 O   0  0  0  0  0  0  0  0  0  0  0  0
    0.1218   -1.9508    0.2462 C   0  0  0  0  0  0  0  0  0  0  0  0
    0.7599   -0.6667    0.5728 C   0  0  0  0  0  0  0  0  0  0  0  0
    2.8264    0.9823    0.9091 H   0  0  0  0  0  0  0  0  0  0  0  0
    1.7294    2.0061   -0.0956 H   0  0  0  0  0  0  0  0  0  0  0  0
    3.2721    1.2868   -0.7983 H   0  0  0  0  0  0  0  0  0  0  0  0
    2.3639   -0.9253   -0.8364 H   0  0  0  0  0  0  0  0  0  0  0  0
    0.4901   -0.3988   -2.3632 H   0  0  0  0  0  0  0  0  0  0  0  0
    0.2130    1.1370   -1.4552 H   0  0  0  0  0  0  0  0  0  0  0  0
   -2.3071   -0.1424   -1.0124 H   0  0  0  0  0  0  0  0  0  0  0  0
   -2.5952    1.1894    1.3289 H   0  0  0  0  0  0  0  0  0  0  0  0
   -1.8878    1.9157   -0.1988 H   0  0  0  0  0  0  0  0  0  0  0  0
   -0.8350    1.3392    1.1945 H   0  0  0  0  0  0  0  0  0  0  0  0
   -3.1395   -0.7147    1.2853 H   0  0  0  0  0  0  0  0  0  0  0  0
   -0.5196   -2.4003    1.0075 H   0  0  0  0  0  0  0  0  0  0  0  0
    0.7259   -2.6486   -0.3905 H   0  0  0  0  0  0  0  0  0  0  0  0
    0.5768   -0.1013    1.4814 H   0  0  0  0  0  0  0  0  0  0  0  0
  1  2  1  0
  2  3  1  0
  3  4  1  0
  4  5  1  0
  5  6  1  0
  5  7  1  0
  4  8  1  0
  8  9  1  0
  9  2  1  0
  9  4  1  0
  1 10  1  0
  1 11  1  0
  1 12  1  0
  2 13  1  0
  3 14  1  0
  3 15  1  0
  5 16  1  0
  6 17  1  0
  6 18  1  0
  6 19  1  0
  7 20  1  0
  8 21  1  0
  8 22  1  0
  9 23  1  0
M  END
