
     RDKit          3D

 21 22  0  0  0  0  0  0  0  0999 V2000
    2.4278    0.1000    0.6361 C   0  0  0  0  0  0  0  0  0  0  0  0
    1.2816    0.2824   -0.2854 C   0  0  0  0  0  0  0  0  0  0  0  0
    1.0347   -0.8832   -1.2084 C   0  0  0  0  0  0  0  0  0  0  0  0
   -0.3549   -0.7418   -1.4428 O   0  0  0  0  0  0  0  0  0  0  0  0
   -0.8133   -0.7853   -0.1175 C   0  0  0  0  0  0  0  0  0  0  0  0
   -2.2128   -0.2521    0.0215 C   0  0  0  0  0  0  0  0  0  0  0  0
   -2.0096    1.2157    0.1383 C   0  0  0  0  0  0  0  0  0  0  0  0
   -0.6875    1.4825    0.3508 O   0  0  0  0  0  0  0  0  0  0  0  0
    0.0022    0.3153    0.5253 C   0  0  0  0  0  0  0  0  0  0  0  0
    2.1627    0.6046    1.6112 H   0  0  0  0  0  0  0  0  0  0  0  0
    3.2978    0.6954    0.2518 H   0  0  0  0  0  0  0  0  0  0  0  0
    2.6820   -0.9292    0.8920 H   0  0  0  0  0  0  0  0  0  0  0  0
    1.4060    1.1794   -0.9204 H   0  0  0  0  0  0  0  0  0  0  0  0
    1.1175   -1.8539   -0.6432 H   0  0  0  0  0  0  0  0  0  0  0  0
    1.6172   -0.8643   -2.1267 H   0  0  0  0  0  0  0  0  0  0  0  0
   -0.6546   -1.7691    0.3179 H   0  0  0  0  0  0  0  0  0  0  0  0
   -2.6100   -0.6438    1.0026 H   0  0  0  0  0  0  0  0  0  0  0  0
   -2.9059   -0.5812   -0.7487 H   0  0  0  0  0  0  0  0  0  0  0  0
   -2.3488    1.6928   -0.8254 H   0  0  0  0  0  0  0  0  0  0  0  0
   -2.6252    1.6148    0.9616 H   0  0  0  0  0  0  0  0  0  0  0  0
    0.1930    0.1210    1.6095 H   0  0  0  0  0  0  0  0  0  0  0  0
  1  2  1  0
  2  3  1  0
  3  4  1  0
  4  5  1  0
  5  6  1  0
  6  7  1  0
  7  8  1  0
  8  9  1  0
  9  2  1  0
  9  5  1  0
  1 10  1  0
  1 11  1  0
  1 12  1  0
  2 13  1  0
  3 14  1  0
  3 15  1  0
  5 16  1  0
  6 17  1  0
  6 18  1  0
  7 19  1  0
  7 20  1  0
  9 21  1  0
M  END
