
     RDKit          3D

 16 17  0  0  0  0  0  0  0  0999 V2000
    1.6556    0.8161    0.5869 C   0  0  0  0  0  0  0  0  0  0  0  0
    0.7337   -0.3956    0.4811 C   0  0  0  0  0  0  0  0  0  0  0  0
    0.7693   -1.0674   -0.9132 C   0  0  0  0  0  0  0  0  0  0  0  0
   -0.3525   -0.2885   -0.4902 C   0  0  0  0  0  0  0  0  0  0  0  0
   -0.7785    0.9010   -1.0363 O   0  0  0  0  0  0  0  0  0  0  0  0
   -1.9250    0.7592   -0.2195 C   0  0  0  0  0  0  0  0  0  0  0  0
   -1.7145   -0.6965   -0.2816 C   0  0  0  0  0  0  0  0  0  0  0  0
   -2.3820   -1.6873   -0.1951 O   0  0  0  0  0  0  0  0  0  0  0  0
    1.3249    1.5379    1.3319 H   0  0  0  0  0  0  0  0  0  0  0  0
    2.7109    0.4780    0.7254 H   0  0  0  0  0  0  0  0  0  0  0  0
    1.6468    1.3222   -0.4215 H   0  0  0  0  0  0  0  0  0  0  0  0
    0.6104   -1.0344    1.3559 H   0  0  0  0  0  0  0  0  0  0  0  0
    0.7106   -2.1894   -0.8478 H   0  0  0  0  0  0  0  0  0  0  0  0
    1.5523   -0.7355   -1.6115 H   0  0  0  0  0  0  0  0  0  0  0  0
   -1.7212    1.1191    0.8216 H   0  0  0  0  0  0  0  0  0  0  0  0
   -2.8408    1.1611   -0.6389 H   0  0  0  0  0  0  0  0  0  0  0  0
  1  2  1  0
  2  3  1  0
  3  4  1  0
  4  5  1  0
  5  6  1  0
  6  7  1  0
  7  8  2  0
  4  2  1  0
  7  4  1  0
  1  9  1  0
  1 10  1  0
  1 11  1  0
  2 12  1  0
  3 13  1  0
  3 14  1  0
  6 15  1  0
  6 16  1  0
M  END
