
     RDKit          3D

 21 23  0  0  0  0  0  0  0  0999 V2000
    2.3908   -0.1071   -0.0032 C   0  0  0  0  0  0  0  0  0  0  0  0
    0.9622    0.0027    0.5472 C   0  0  0  0  0  0  0  0  0  0  0  0
    0.3539    1.2075   -0.1342 C   0  0  0  0  0  0  0  0  0  0  0  0
   -0.9732    0.7060   -0.6249 C   0  0  0  0  0  0  0  0  0  0  0  0
   -1.9351    0.7165    0.5244 C   0  0  0  0  0  0  0  0  0  0  0  0
   -2.0453   -0.5434    1.0294 O   0  0  0  0  0  0  0  0  0  0  0  0
   -1.2297   -1.4017    0.3616 C   0  0  0  0  0  0  0  0  0  0  0  0
    0.2062   -1.1983    0.1433 C   0  0  0  0  0  0  0  0  0  0  0  0
   -0.7375   -0.7582   -0.8784 C   0  0  0  0  0  0  0  0  0  0  0  0
    3.0738    0.5637    0.5104 H   0  0  0  0  0  0  0  0  0  0  0  0
    2.7488   -1.1442    0.0525 H   0  0  0  0  0  0  0  0  0  0  0  0
    2.3367    0.1403   -1.1036 H   0  0  0  0  0  0  0  0  0  0  0  0
    1.0747    0.1550    1.6317 H   0  0  0  0  0  0  0  0  0  0  0  0
    0.2221    2.0201    0.6232 H   0  0  0  0  0  0  0  0  0  0  0  0
    0.9308    1.5565   -1.0022 H   0  0  0  0  0  0  0  0  0  0  0  0
   -1.2896    1.2741   -1.4951 H   0  0  0  0  0  0  0  0  0  0  0  0
   -1.5653    1.3808    1.3603 H   0  0  0  0  0  0  0  0  0  0  0  0
   -2.8890    1.1564    0.1510 H   0  0  0  0  0  0  0  0  0  0  0  0
   -1.6191   -2.4278    0.2403 H   0  0  0  0  0  0  0  0  0  0  0  0
    0.8256   -2.1077   -0.0635 H   0  0  0  0  0  0  0  0  0  0  0  0
   -0.8419   -1.1913   -1.8702 H   0  0  0  0  0  0  0  0  0  0  0  0
  1  2  1  0
  2  3  1  0
  3  4  1  0
  4  5  1  0
  5  6  1  0
  6  7  1  0
  7  8  1  0
  8  9  1  0
  8  2  1  0
  9  4  1  0
  9  7  1  0
  1 10  1  0
  1 11  1  0
  1 12  1  0
  2 13  1  0
  3 14  1  0
  3 15  1  0
  4 16  1  0
  5 17  1  0
  5 18  1  0
  7 19  1  0
  8 20  1  0
  9 21  1  0
M  END
