
     RDKit          3D

 23 24  0  0  0  0  0  0  0  0999 V2000
    2.4321   -0.4534   -0.6440 C   0  0  0  0  0  0  0  0  0  0  0  0
    1.3014   -0.3796    0.3113 C   0  0  0  0  0  0  0  0  0  0  0  0
    0.0351   -1.0710   -0.2192 C   0  0  0  0  0  0  0  0  0  0  0  0
   -1.0874   -0.1286    0.0512 C   0  0  0  0  0  0  0  0  0  0  0  0
   -2.4131   -0.6928    0.2462 C   0  0  0  0  0  0  0  0  0  0  0  0
   -0.9963    0.9769   -0.9586 C   0  0  0  0  0  0  0  0  0  0  0  0
    0.1772    1.5797   -0.7006 C   0  0  0  0  0  0  0  0  0  0  0  0
    0.7761    1.0157    0.5445 C   0  0  0  0  0  0  0  0  0  0  0  0
   -0.5349    0.6387    1.2685 C   0  0  0  0  0  0  0  0  0  0  0  0
    2.1721   -1.0545   -1.5543 H   0  0  0  0  0  0  0  0  0  0  0  0
    2.8577    0.5161   -0.9498 H   0  0  0  0  0  0  0  0  0  0  0  0
    3.2798   -1.0058   -0.1457 H   0  0  0  0  0  0  0  0  0  0  0  0
    1.5264   -0.8197    1.2969 H   0  0  0  0  0  0  0  0  0  0  0  0
   -0.1181   -2.0524    0.3010 H   0  0  0  0  0  0  0  0  0  0  0  0
    0.1236   -1.2209   -1.3255 H   0  0  0  0  0  0  0  0  0  0  0  0
   -2.5504   -1.0148    1.3140 H   0  0  0  0  0  0  0  0  0  0  0  0
   -2.5311   -1.6061   -0.4041 H   0  0  0  0  0  0  0  0  0  0  0  0
   -3.2102    0.0126   -0.0623 H   0  0  0  0  0  0  0  0  0  0  0  0
   -1.7308    1.2162   -1.7198 H   0  0  0  0  0  0  0  0  0  0  0  0
    0.5720    2.3552   -1.3455 H   0  0  0  0  0  0  0  0  0  0  0  0
    1.4000    1.6736    1.1023 H   0  0  0  0  0  0  0  0  0  0  0  0
   -0.3548   -0.0219    2.1137 H   0  0  0  0  0  0  0  0  0  0  0  0
   -1.1262    1.5367    1.4799 H   0  0  0  0  0  0  0  0  0  0  0  0
  1  2  1  0
  2  3  1  0
  3  4  1  0
  4  5  1  0
  4  6  1  0
  6  7  2  0
  7  8  1  0
  8  9  1  0
  8  2  1  0
  9  4  1  0
  1 10  1  0
  1 11  1  0
  1 12  1  0
  2 13  1  0
  3 14  1  0
  3 15  1  0
  5 16  1  0
  5 17  1  0
  5 18  1  0
  6 19  1  0
  7 20  1  0
  8 21  1  0
  9 22  1  0
  9 23  1  0
M  END
