
     RDKit          3D

 23 23  0  0  0  0  0  0  0  0999 V2000
    2.8152   -0.2225   -0.2080 C   0  0  0  0  0  0  0  0  0  0  0  0
    1.4054   -0.6142    0.0589 C   0  0  0  0  0  0  0  0  0  0  0  0
    0.6213    0.3494    0.9601 C   0  0  0  0  0  0  0  0  0  0  0  0
   -0.5342    0.1196    0.0201 C   0  0  0  0  0  0  0  0  0  0  0  0
   -1.3556   -1.0493    0.4535 C   0  0  0  0  0  0  0  0  0  0  0  0
   -2.4325   -1.2859   -0.3980 O   0  0  0  0  0  0  0  0  0  0  0  0
   -1.3807    1.3144   -0.2877 C   0  0  0  0  0  0  0  0  0  0  0  0
   -1.9561    1.8390    0.8697 O   0  0  0  0  0  0  0  0  0  0  0  0
    0.4756   -0.1274   -1.0611 C   0  0  0  0  0  0  0  0  0  0  0  0
    3.0739    0.6321    0.4514 H   0  0  0  0  0  0  0  0  0  0  0  0
    3.4670   -1.1076   -0.0154 H   0  0  0  0  0  0  0  0  0  0  0  0
    2.9361    0.1410   -1.2536 H   0  0  0  0  0  0  0  0  0  0  0  0
    1.2206   -1.6798    0.2893 H   0  0  0  0  0  0  0  0  0  0  0  0
    0.4227   -0.0252    1.9638 H   0  0  0  0  0  0  0  0  0  0  0  0
    1.0958    1.3381    0.9157 H   0  0  0  0  0  0  0  0  0  0  0  0
   -1.8156   -0.7726    1.4481 H   0  0  0  0  0  0  0  0  0  0  0  0
   -0.7671   -1.9626    0.6579 H   0  0  0  0  0  0  0  0  0  0  0  0
   -2.6124   -2.2694   -0.4655 H   0  0  0  0  0  0  0  0  0  0  0  0
   -2.2041    0.9734   -0.9497 H   0  0  0  0  0  0  0  0  0  0  0  0
   -0.8140    2.0754   -0.8550 H   0  0  0  0  0  0  0  0  0  0  0  0
   -2.7816    2.3503    0.6518 H   0  0  0  0  0  0  0  0  0  0  0  0
    0.2413   -0.8663   -1.8196 H   0  0  0  0  0  0  0  0  0  0  0  0
    0.8790    0.8500   -1.4266 H   0  0  0  0  0  0  0  0  0  0  0  0
  1  2  1  0
  2  3  1  0
  3  4  1  0
  4  5  1  0
  5  6  1  0
  4  7  1  0
  7  8  1  0
  4  9  1  0
  9  2  1  0
  1 10  1  0
  1 11  1  0
  1 12  1  0
  2 13  1  0
  3 14  1  0
  3 15  1  0
  5 16  1  0
  5 17  1  0
  6 18  1  0
  7 19  1  0
  7 20  1  0
  8 21  1  0
  9 22  1  0
  9 23  1  0
M  END
