
     RDKit          2D

 18 20  0  0  0  0  0  0  0  0999 V2000
   -2.8883    1.2909    0.0000 C   0  0  0  0  0  0  0  0  0  0  0  0
   -1.5133    0.6913    0.0000 C   0  0  0  0  0  0  0  0  0  0  0  0
   -1.0607    2.1213    0.0000 C   0  0  0  0  0  0  0  0  0  0  0  0
   -2.1213    1.0607    0.0000 C   0  0  0  0  0  0  0  0  0  0  0  0
   -1.0607    0.0000    0.0000 C   0  0  0  0  0  0  0  0  0  0  0  0
   -0.0000   -1.0607    0.0000 C   0  0  0  0  0  0  0  0  0  0  0  0
    1.0607    0.0000    0.0000 O   0  0  0  0  0  0  0  0  0  0  0  0
    0.0000    1.0607    0.0000 C   0  0  0  0  0  0  0  0  0  0  0  0
   -4.2632    1.8906    0.0000 H   0  0  0  0  0  0  0  0  0  0  0  0
   -2.2886    2.6659    0.0000 H   0  0  0  0  0  0  0  0  0  0  0  0
   -3.2936    0.6046    0.0000 H   0  0  0  0  0  0  0  0  0  0  0  0
   -2.4070   -0.5135    0.0000 H   0  0  0  0  0  0  0  0  0  0  0  0
   -1.0607    3.6213    0.0000 H   0  0  0  0  0  0  0  0  0  0  0  0
   -2.6121    0.4325    0.0000 H   0  0  0  0  0  0  0  0  0  0  0  0
   -3.1820    2.1213    0.0000 H   0  0  0  0  0  0  0  0  0  0  0  0
   -1.9841   -1.1820    0.0000 H   0  0  0  0  0  0  0  0  0  0  0  0
   -0.0000   -2.5607    0.0000 H   0  0  0  0  0  0  0  0  0  0  0  0
    1.0607    2.1213    0.0000 H   0  0  0  0  0  0  0  0  0  0  0  0
  1  2  1  0
  2  3  1  0
  3  4  1  0
  4  5  1  0
  5  6  1  0
  6  7  1  0
  7  8  1  0
  6  2  1  0
  8  3  1  0
  8  5  1  0
  1  9  1  0
  1 10  1  0
  1 11  1  0
  2 12  1  0
  3 13  1  0
  4 14  1  0
  4 15  1  0
  5 16  1  0
  6 17  1  0
  8 18  1  0
M  END
