
     RDKit          3D

 16 17  0  0  0  0  0  0  0  0999 V2000
   -2.0140    0.1949   -0.2379 C   0  0  0  0  0  0  0  0  0  0  0  0
   -0.8678   -0.6134    0.2687 C   0  0  0  0  0  0  0  0  0  0  0  0
    0.2802   -0.8036   -0.7121 C   0  0  0  0  0  0  0  0  0  0  0  0
    1.0871    0.0948    0.1906 C   0  0  0  0  0  0  0  0  0  0  0  0
    2.2997    0.7328   -0.2279 C   0  0  0  0  0  0  0  0  0  0  0  0
    2.4155    1.2536   -1.3238 O   0  0  0  0  0  0  0  0  0  0  0  0
    1.1821   -0.4629    1.5536 O   0  0  0  0  0  0  0  0  0  0  0  0
    0.1015    0.2634    1.0792 C   0  0  0  0  0  0  0  0  0  0  0  0
   -2.2235    0.0531   -1.3239 H   0  0  0  0  0  0  0  0  0  0  0  0
   -2.9453   -0.0864    0.3240 H   0  0  0  0  0  0  0  0  0  0  0  0
   -1.8772    1.2728   -0.0664 H   0  0  0  0  0  0  0  0  0  0  0  0
   -1.1317   -1.5635    0.7747 H   0  0  0  0  0  0  0  0  0  0  0  0
    0.7251   -1.8314   -0.6863 H   0  0  0  0  0  0  0  0  0  0  0  0
    0.1532   -0.3492   -1.6906 H   0  0  0  0  0  0  0  0  0  0  0  0
    3.1622    0.7756    0.4186 H   0  0  0  0  0  0  0  0  0  0  0  0
   -0.3469    1.0693    1.6596 H   0  0  0  0  0  0  0  0  0  0  0  0
  1  2  1  0
  2  3  1  0
  3  4  1  0
  4  5  1  0
  5  6  2  0
  4  7  1  0
  7  8  1  0
  8  2  1  0
  8  4  1  0
  1  9  1  0
  1 10  1  0
  1 11  1  0
  2 12  1  0
  3 13  1  0
  3 14  1  0
  5 15  1  0
  8 16  1  0
M  END
