
     RDKit          3D

 21 22  0  0  0  0  0  0  0  0999 V2000
   -2.3776   -0.7457    0.0266 C   0  0  0  0  0  0  0  0  0  0  0  0
   -1.1026   -0.0597    0.4306 C   0  0  0  0  0  0  0  0  0  0  0  0
   -1.0640    1.3124   -0.2579 C   0  0  0  0  0  0  0  0  0  0  0  0
    0.3859    1.0620   -0.5388 C   0  0  0  0  0  0  0  0  0  0  0  0
    1.1995    1.4416    0.5273 O   0  0  0  0  0  0  0  0  0  0  0  0
    2.1837    0.4505    0.5140 C   0  0  0  0  0  0  0  0  0  0  0  0
    1.3343   -0.8070    0.5009 C   0  0  0  0  0  0  0  0  0  0  0  0
    2.0691   -1.8336   -0.1082 O   0  0  0  0  0  0  0  0  0  0  0  0
    0.1294   -0.4296   -0.3170 C   0  0  0  0  0  0  0  0  0  0  0  0
   -2.6650   -0.4685   -1.0213 H   0  0  0  0  0  0  0  0  0  0  0  0
   -3.1924   -0.2965    0.6617 H   0  0  0  0  0  0  0  0  0  0  0  0
   -2.3550   -1.8294    0.0870 H   0  0  0  0  0  0  0  0  0  0  0  0
   -1.0232   -0.0103    1.5221 H   0  0  0  0  0  0  0  0  0  0  0  0
   -1.6286    1.3320   -1.2259 H   0  0  0  0  0  0  0  0  0  0  0  0
   -1.3153    2.1135    0.4380 H   0  0  0  0  0  0  0  0  0  0  0  0
    0.7647    1.3262   -1.5280 H   0  0  0  0  0  0  0  0  0  0  0  0
    2.8016    0.5632   -0.3861 H   0  0  0  0  0  0  0  0  0  0  0  0
    2.7613    0.5655    1.4484 H   0  0  0  0  0  0  0  0  0  0  0  0
    1.0381   -1.0347    1.5259 H   0  0  0  0  0  0  0  0  0  0  0  0
    2.1084   -1.6397   -1.0797 H   0  0  0  0  0  0  0  0  0  0  0  0
   -0.0524   -1.0121   -1.2197 H   0  0  0  0  0  0  0  0  0  0  0  0
  1  2  1  0
  2  3  1  0
  3  4  1  0
  4  5  1  0
  5  6  1  0
  6  7  1  0
  7  8  1  0
  7  9  1  0
  9  2  1  0
  9  4  1  0
  1 10  1  0
  1 11  1  0
  1 12  1  0
  2 13  1  0
  3 14  1  0
  3 15  1  0
  4 16  1  0
  6 17  1  0
  6 18  1  0
  7 19  1  0
  8 20  1  0
  9 21  1  0
M  END
