
     RDKit          3D

 23 24  0  0  0  0  0  0  0  0999 V2000
    2.1376   -1.1556   -0.4646 C   0  0  0  0  0  0  0  0  0  0  0  0
    0.9950   -0.5550    0.3401 C   0  0  0  0  0  0  0  0  0  0  0  0
    1.1520    0.9363    0.5035 C   0  0  0  0  0  0  0  0  0  0  0  0
    0.1883    1.7710   -0.2718 C   0  0  0  0  0  0  0  0  0  0  0  0
   -1.2659    1.3508   -0.1267 C   0  0  0  0  0  0  0  0  0  0  0  0
   -1.2599    0.0853    0.6077 C   0  0  0  0  0  0  0  0  0  0  0  0
   -1.5635   -1.2508    0.2431 C   0  0  0  0  0  0  0  0  0  0  0  0
   -2.6231   -1.4618   -0.6578 O   0  0  0  0  0  0  0  0  0  0  0  0
   -0.3245   -0.7956   -0.2760 C   0  0  0  0  0  0  0  0  0  0  0  0
    2.3385   -0.4648   -1.3022 H   0  0  0  0  0  0  0  0  0  0  0  0
    1.8249   -2.1562   -0.8257 H   0  0  0  0  0  0  0  0  0  0  0  0
    3.0125   -1.2017    0.2176 H   0  0  0  0  0  0  0  0  0  0  0  0
    1.0279   -1.0468    1.3347 H   0  0  0  0  0  0  0  0  0  0  0  0
    2.1704    1.1893    0.1384 H   0  0  0  0  0  0  0  0  0  0  0  0
    1.1490    1.1982    1.5853 H   0  0  0  0  0  0  0  0  0  0  0  0
    0.2340    2.8007    0.1444 H   0  0  0  0  0  0  0  0  0  0  0  0
    0.4904    1.8626   -1.3369 H   0  0  0  0  0  0  0  0  0  0  0  0
   -1.6460    1.1605   -1.1733 H   0  0  0  0  0  0  0  0  0  0  0  0
   -1.9073    2.1210    0.2968 H   0  0  0  0  0  0  0  0  0  0  0  0
   -0.9492    0.2470    1.6809 H   0  0  0  0  0  0  0  0  0  0  0  0
   -1.5607   -2.0443    1.0240 H   0  0  0  0  0  0  0  0  0  0  0  0
   -3.3292   -2.0194   -0.3016 H   0  0  0  0  0  0  0  0  0  0  0  0
   -0.2912   -0.5707   -1.3798 H   0  0  0  0  0  0  0  0  0  0  0  0
  1  2  1  0
  2  3  1  0
  3  4  1  0
  4  5  1  0
  5  6  1  0
  6  7  1  0
  7  8  1  0
  7  9  1  0
  9  2  1  0
  9  6  1  0
  1 10  1  0
  1 11  1  0
  1 12  1  0
  2 13  1  0
  3 14  1  0
  3 15  1  0
  4 16  1  0
  4 17  1  0
  5 18  1  0
  5 19  1  0
  6 20  1  0
  7 21  1  0
  8 22  1  0
  9 23  1  0
M  END
