
     RDKit          3D

 23 23  0  0  0  0  0  0  0  0999 V2000
    2.5938   -0.0437    0.2991 C   0  0  0  0  0  0  0  0  0  0  0  0
    1.2790   -0.3204   -0.4088 C   0  0  0  0  0  0  0  0  0  0  0  0
    0.3722   -1.1240    0.4602 C   0  0  0  0  0  0  0  0  0  0  0  0
   -1.0594   -1.1030    0.0592 C   0  0  0  0  0  0  0  0  0  0  0  0
   -1.8234    0.0948    0.5391 C   0  0  0  0  0  0  0  0  0  0  0  0
   -3.1629   -0.0879    0.1270 O   0  0  0  0  0  0  0  0  0  0  0  0
   -1.3537    1.3641   -0.1447 C   0  0  0  0  0  0  0  0  0  0  0  0
   -0.5899    0.9570   -1.2528 O   0  0  0  0  0  0  0  0  0  0  0  0
    0.7257    0.9796   -0.8679 C   0  0  0  0  0  0  0  0  0  0  0  0
    3.3419   -0.7883   -0.0072 H   0  0  0  0  0  0  0  0  0  0  0  0
    2.4671    0.0461    1.3936 H   0  0  0  0  0  0  0  0  0  0  0  0
    3.0135    0.9532   -0.0271 H   0  0  0  0  0  0  0  0  0  0  0  0
    1.5087   -0.9430   -1.3147 H   0  0  0  0  0  0  0  0  0  0  0  0
    0.4597   -0.8789    1.5494 H   0  0  0  0  0  0  0  0  0  0  0  0
    0.7199   -2.1964    0.3933 H   0  0  0  0  0  0  0  0  0  0  0  0
   -1.5819   -2.0200    0.4188 H   0  0  0  0  0  0  0  0  0  0  0  0
   -1.0887   -1.0735   -1.0683 H   0  0  0  0  0  0  0  0  0  0  0  0
   -1.7953    0.1879    1.6387 H   0  0  0  0  0  0  0  0  0  0  0  0
   -3.3346   -1.0129   -0.1422 H   0  0  0  0  0  0  0  0  0  0  0  0
   -0.7535    1.9273    0.5765 H   0  0  0  0  0  0  0  0  0  0  0  0
   -2.1957    1.9844   -0.4752 H   0  0  0  0  0  0  0  0  0  0  0  0
    1.3926    1.3536   -1.6959 H   0  0  0  0  0  0  0  0  0  0  0  0
    0.8651    1.7439   -0.0499 H   0  0  0  0  0  0  0  0  0  0  0  0
  1  2  1  0
  2  3  1  0
  3  4  1  0
  4  5  1  0
  5  6  1  0
  5  7  1  0
  7  8  1  0
  8  9  1  0
  9  2  1  0
  1 10  1  0
  1 11  1  0
  1 12  1  0
  2 13  1  0
  3 14  1  0
  3 15  1  0
  4 16  1  0
  4 17  1  0
  5 18  1  0
  6 19  1  0
  7 20  1  0
  7 21  1  0
  9 22  1  0
  9 23  1  0
M  END
