
     RDKit          3D

 23 24  0  0  0  0  0  0  0  0999 V2000
   -0.4154    1.7836   -1.1076 C   0  0  0  0  0  0  0  0  0  0  0  0
   -1.1461    0.7008   -0.3674 C   0  0  0  0  0  0  0  0  0  0  0  0
   -0.4588    0.2912    0.9320 C   0  0  0  0  0  0  0  0  0  0  0  0
    0.9338    0.7495    1.2018 C   0  0  0  0  0  0  0  0  0  0  0  0
    2.0035   -0.0607    0.5691 C   0  0  0  0  0  0  0  0  0  0  0  0
    1.5575   -1.3462    0.2243 O   0  0  0  0  0  0  0  0  0  0  0  0
    0.6281   -1.1540   -0.8139 C   0  0  0  0  0  0  0  0  0  0  0  0
   -0.6341   -0.6449   -0.1802 C   0  0  0  0  0  0  0  0  0  0  0  0
   -1.6628   -1.7580    0.0664 C   0  0  0  0  0  0  0  0  0  0  0  0
    0.5951    1.5222   -1.4221 H   0  0  0  0  0  0  0  0  0  0  0  0
   -0.9608    2.1456   -1.9993 H   0  0  0  0  0  0  0  0  0  0  0  0
   -0.3204    2.6476   -0.4009 H   0  0  0  0  0  0  0  0  0  0  0  0
   -2.2484    0.8298   -0.3687 H   0  0  0  0  0  0  0  0  0  0  0  0
   -1.1815    0.2416    1.7977 H   0  0  0  0  0  0  0  0  0  0  0  0
    1.0863    0.6899    2.3201 H   0  0  0  0  0  0  0  0  0  0  0  0
    1.0383    1.8519    0.9832 H   0  0  0  0  0  0  0  0  0  0  0  0
    2.4192    0.3715   -0.3695 H   0  0  0  0  0  0  0  0  0  0  0  0
    2.8941   -0.1402    1.2591 H   0  0  0  0  0  0  0  0  0  0  0  0
    0.4813   -2.1531   -1.2904 H   0  0  0  0  0  0  0  0  0  0  0  0
    0.9896   -0.4731   -1.5886 H   0  0  0  0  0  0  0  0  0  0  0  0
   -2.6757   -1.3450    0.0695 H   0  0  0  0  0  0  0  0  0  0  0  0
   -1.5138   -2.6077   -0.6113 H   0  0  0  0  0  0  0  0  0  0  0  0
   -1.4089   -2.1427    1.0968 H   0  0  0  0  0  0  0  0  0  0  0  0
  1  2  1  0
  2  3  1  0
  3  4  1  0
  4  5  1  0
  5  6  1  0
  6  7  1  0
  7  8  1  0
  8  9  1  0
  8  2  1  0
  8  3  1  0
  1 10  1  0
  1 11  1  0
  1 12  1  0
  2 13  1  0
  3 14  1  0
  4 15  1  0
  4 16  1  0
  5 17  1  0
  5 18  1  0
  7 19  1  0
  7 20  1  0
  9 21  1  0
  9 22  1  0
  9 23  1  0
M  END
