
     RDKit          3D

 19 20  0  0  0  0  0  0  0  0999 V2000
   -2.0461   -0.9083   -0.2766 C   0  0  0  0  0  0  0  0  0  0  0  0
   -0.8214   -0.1917    0.1879 C   0  0  0  0  0  0  0  0  0  0  0  0
   -0.6231    1.2081   -0.3174 C   0  0  0  0  0  0  0  0  0  0  0  0
    0.4933    1.8078    0.5029 C   0  0  0  0  0  0  0  0  0  0  0  0
    1.4879    0.9829    0.8312 C   0  0  0  0  0  0  0  0  0  0  0  0
    1.6411   -0.2391   -0.0091 C   0  0  0  0  0  0  0  0  0  0  0  0
    1.8722   -1.3617    0.7685 O   0  0  0  0  0  0  0  0  0  0  0  0
    0.3340   -0.4436   -0.7526 C   0  0  0  0  0  0  0  0  0  0  0  0
   -0.0474    0.6888   -1.4565 O   0  0  0  0  0  0  0  0  0  0  0  0
   -1.8846   -1.4679   -1.2320 H   0  0  0  0  0  0  0  0  0  0  0  0
   -2.2839   -1.7121    0.4786 H   0  0  0  0  0  0  0  0  0  0  0  0
   -2.9356   -0.2796   -0.3710 H   0  0  0  0  0  0  0  0  0  0  0  0
   -0.5696   -0.2770    1.2560 H   0  0  0  0  0  0  0  0  0  0  0  0
   -1.5029    1.8360   -0.4281 H   0  0  0  0  0  0  0  0  0  0  0  0
    0.4923    2.8379    0.8074 H   0  0  0  0  0  0  0  0  0  0  0  0
    2.1668    1.1623    1.6594 H   0  0  0  0  0  0  0  0  0  0  0  0
    2.4909   -0.1147   -0.7246 H   0  0  0  0  0  0  0  0  0  0  0  0
    1.4069   -2.1367    0.3692 H   0  0  0  0  0  0  0  0  0  0  0  0
    0.3291   -1.3914   -1.2933 H   0  0  0  0  0  0  0  0  0  0  0  0
  1  2  1  0
  2  3  1  0
  3  4  1  0
  4  5  2  0
  5  6  1  0
  6  7  1  0
  6  8  1  0
  8  9  1  0
  8  2  1  0
  9  3  1  0
  1 10  1  0
  1 11  1  0
  1 12  1  0
  2 13  1  0
  3 14  1  0
  4 15  1  0
  5 16  1  0
  6 17  1  0
  7 18  1  0
  8 19  1  0
M  END
