
     RDKit          3D

 19 19  0  0  0  0  0  0  0  0999 V2000
   -1.7117   -0.8943   -0.1436 C   0  0  0  0  0  0  0  0  0  0  0  0
   -0.3087   -0.5233   -0.5235 C   0  0  0  0  0  0  0  0  0  0  0  0
   -0.0988    0.9489   -0.7060 C   0  0  0  0  0  0  0  0  0  0  0  0
   -1.1440    1.5874   -1.3275 O   0  0  0  0  0  0  0  0  0  0  0  0
    0.1341    1.4385    0.6739 C   0  0  0  0  0  0  0  0  0  0  0  0
    0.5590    0.4278    1.4162 C   0  0  0  0  0  0  0  0  0  0  0  0
    0.6543   -0.8237    0.6273 C   0  0  0  0  0  0  0  0  0  0  0  0
    2.0083   -0.9002    0.0434 C   0  0  0  0  0  0  0  0  0  0  0  0
    2.2220   -0.8856   -1.1671 O   0  0  0  0  0  0  0  0  0  0  0  0
   -2.1843   -1.5916   -0.8959 H   0  0  0  0  0  0  0  0  0  0  0  0
   -1.6701   -1.5167    0.7994 H   0  0  0  0  0  0  0  0  0  0  0  0
   -2.3797   -0.0424    0.0227 H   0  0  0  0  0  0  0  0  0  0  0  0
   -0.0113   -1.1307   -1.4032 H   0  0  0  0  0  0  0  0  0  0  0  0
    0.8394    1.0776   -1.2995 H   0  0  0  0  0  0  0  0  0  0  0  0
   -0.9032    2.5407   -1.4199 H   0  0  0  0  0  0  0  0  0  0  0  0
   -0.0304    2.4639    0.9778 H   0  0  0  0  0  0  0  0  0  0  0  0
    0.8011    0.5078    2.4506 H   0  0  0  0  0  0  0  0  0  0  0  0
    0.3510   -1.7110    1.1869 H   0  0  0  0  0  0  0  0  0  0  0  0
    2.8729   -0.9732    0.6881 H   0  0  0  0  0  0  0  0  0  0  0  0
  1  2  1  0
  2  3  1  0
  3  4  1  0
  3  5  1  0
  5  6  2  0
  6  7  1  0
  7  8  1  0
  8  9  2  0
  7  2  1  0
  1 10  1  0
  1 11  1  0
  1 12  1  0
  2 13  1  0
  3 14  1  0
  4 15  1  0
  5 16  1  0
  6 17  1  0
  7 18  1  0
  8 19  1  0
M  END
