
     RDKit          3D

 21 21  0  0  0  0  0  0  0  0999 V2000
    0.8675   -1.3112   -0.7972 C   0  0  0  0  0  0  0  0  0  0  0  0
    0.5837    0.1564   -0.8016 C   0  0  0  0  0  0  0  0  0  0  0  0
    1.2177    0.9221    0.3541 C   0  0  0  0  0  0  0  0  0  0  0  0
    2.3676    0.3306    0.8613 O   0  0  0  0  0  0  0  0  0  0  0  0
   -0.0472    0.5994    1.1298 C   0  0  0  0  0  0  0  0  0  0  0  0
   -0.0361   -0.5986    1.8050 O   0  0  0  0  0  0  0  0  0  0  0  0
   -0.7332    0.5938   -0.2137 C   0  0  0  0  0  0  0  0  0  0  0  0
   -1.8746   -0.3640   -0.3579 C   0  0  0  0  0  0  0  0  0  0  0  0
   -2.9871    0.2432    0.2533 O   0  0  0  0  0  0  0  0  0  0  0  0
    0.7319   -1.7192   -1.8369 H   0  0  0  0  0  0  0  0  0  0  0  0
    1.9419   -1.5297   -0.5524 H   0  0  0  0  0  0  0  0  0  0  0  0
    0.2668   -1.9019   -0.1110 H   0  0  0  0  0  0  0  0  0  0  0  0
    0.8321    0.6666   -1.7545 H   0  0  0  0  0  0  0  0  0  0  0  0
    1.3007    1.9937    0.1271 H   0  0  0  0  0  0  0  0  0  0  0  0
    3.1066    0.5846    0.2531 H   0  0  0  0  0  0  0  0  0  0  0  0
   -0.3366    1.4577    1.7899 H   0  0  0  0  0  0  0  0  0  0  0  0
    0.8755   -0.8133    2.0718 H   0  0  0  0  0  0  0  0  0  0  0  0
   -0.9618    1.6351   -0.5088 H   0  0  0  0  0  0  0  0  0  0  0  0
   -1.6827   -1.3474    0.1019 H   0  0  0  0  0  0  0  0  0  0  0  0
   -2.1606   -0.5509   -1.4071 H   0  0  0  0  0  0  0  0  0  0  0  0
   -3.2721    0.9529   -0.4061 H   0  0  0  0  0  0  0  0  0  0  0  0
  1  2  1  0
  2  3  1  0
  3  4  1  0
  3  5  1  0
  5  6  1  0
  5  7  1  0
  7  8  1  0
  8  9  1  0
  7  2  1  0
  1 10  1  0
  1 11  1  0
  1 12  1  0
  2 13  1  0
  3 14  1  0
  4 15  1  0
  5 16  1  0
  6 17  1  0
  7 18  1  0
  8 19  1  0
  8 20  1  0
  9 21  1  0
M  END
