
     RDKit          3D

 23 24  0  0  0  0  0  0  0  0999 V2000
    2.4975   -0.0980   -0.8306 C   0  0  0  0  0  0  0  0  0  0  0  0
    1.1688    0.5315   -0.5627 C   0  0  0  0  0  0  0  0  0  0  0  0
    0.9360    0.9774    0.8509 C   0  0  0  0  0  0  0  0  0  0  0  0
    0.1408   -0.1702    0.2629 C   0  0  0  0  0  0  0  0  0  0  0  0
    0.4580   -1.5844    0.7472 C   0  0  0  0  0  0  0  0  0  0  0  0
   -1.3171    0.1444    0.0453 C   0  0  0  0  0  0  0  0  0  0  0  0
   -1.9473   -0.0897   -1.2975 C   0  0  0  0  0  0  0  0  0  0  0  0
   -2.0780    0.9226    1.0181 C   0  0  0  0  0  0  0  0  0  0  0  0
   -2.0992   -0.4838    1.1406 O   0  0  0  0  0  0  0  0  0  0  0  0
    2.4562   -0.8520   -1.6427 H   0  0  0  0  0  0  0  0  0  0  0  0
    2.9798   -0.4949    0.0918 H   0  0  0  0  0  0  0  0  0  0  0  0
    3.1948    0.7111   -1.1959 H   0  0  0  0  0  0  0  0  0  0  0  0
    0.7829    1.1662   -1.3930 H   0  0  0  0  0  0  0  0  0  0  0  0
    1.6699    0.6585    1.6263 H   0  0  0  0  0  0  0  0  0  0  0  0
    0.4807    1.9614    0.9649 H   0  0  0  0  0  0  0  0  0  0  0  0
   -0.3810   -1.9717    1.3335 H   0  0  0  0  0  0  0  0  0  0  0  0
    0.6787   -2.2597   -0.0992 H   0  0  0  0  0  0  0  0  0  0  0  0
    1.3926   -1.5119    1.3455 H   0  0  0  0  0  0  0  0  0  0  0  0
   -2.4667    0.8483   -1.6162 H   0  0  0  0  0  0  0  0  0  0  0  0
   -2.7027   -0.9043   -1.2960 H   0  0  0  0  0  0  0  0  0  0  0  0
   -1.1850   -0.2823   -2.0963 H   0  0  0  0  0  0  0  0  0  0  0  0
   -3.0429    1.3333    0.7186 H   0  0  0  0  0  0  0  0  0  0  0  0
   -1.6169    1.4481    1.8844 H   0  0  0  0  0  0  0  0  0  0  0  0
  1  2  1  0
  2  3  1  0
  3  4  1  0
  4  5  1  0
  4  6  1  0
  6  7  1  0
  6  8  1  0
  8  9  1  0
  4  2  1  0
  9  6  1  0
  1 10  1  0
  1 11  1  0
  1 12  1  0
  2 13  1  0
  3 14  1  0
  3 15  1  0
  5 16  1  0
  5 17  1  0
  5 18  1  0
  7 19  1  0
  7 20  1  0
  7 21  1  0
  8 22  1  0
  8 23  1  0
M  END
