
     RDKit          3D

 23 24  0  0  0  0  0  0  0  0999 V2000
    2.4562    0.4601    0.0587 C   0  0  0  0  0  0  0  0  0  0  0  0
    1.4591   -0.5899    0.5382 C   0  0  0  0  0  0  0  0  0  0  0  0
    0.3893    0.0182    1.3878 C   0  0  0  0  0  0  0  0  0  0  0  0
   -0.9665   -0.3975    0.9465 C   0  0  0  0  0  0  0  0  0  0  0  0
   -1.0609   -1.6848    0.4753 O   0  0  0  0  0  0  0  0  0  0  0  0
   -0.5837   -1.2412   -0.7508 C   0  0  0  0  0  0  0  0  0  0  0  0
    0.9145   -1.2695   -0.6962 C   0  0  0  0  0  0  0  0  0  0  0  0
   -1.1765    0.1034   -0.4765 C   0  0  0  0  0  0  0  0  0  0  0  0
   -2.6438    0.1569   -0.7804 C   0  0  0  0  0  0  0  0  0  0  0  0
    2.8797    0.1283   -0.8994 H   0  0  0  0  0  0  0  0  0  0  0  0
    1.9292    1.4448   -0.0469 H   0  0  0  0  0  0  0  0  0  0  0  0
    3.2950    0.5886    0.7773 H   0  0  0  0  0  0  0  0  0  0  0  0
    2.0369   -1.2945    1.1901 H   0  0  0  0  0  0  0  0  0  0  0  0
    0.4621    1.1354    1.2572 H   0  0  0  0  0  0  0  0  0  0  0  0
    0.5301   -0.1880    2.4706 H   0  0  0  0  0  0  0  0  0  0  0  0
   -1.7971   -0.1561    1.6147 H   0  0  0  0  0  0  0  0  0  0  0  0
   -0.9502   -1.7602   -1.6413 H   0  0  0  0  0  0  0  0  0  0  0  0
    1.2215   -2.3538   -0.6262 H   0  0  0  0  0  0  0  0  0  0  0  0
    1.3690   -0.9009   -1.6316 H   0  0  0  0  0  0  0  0  0  0  0  0
   -0.5788    0.9837   -0.7530 H   0  0  0  0  0  0  0  0  0  0  0  0
   -3.0477   -0.8156   -1.1488 H   0  0  0  0  0  0  0  0  0  0  0  0
   -3.2034    0.3440    0.1820 H   0  0  0  0  0  0  0  0  0  0  0  0
   -2.9337    0.9887   -1.4471 H   0  0  0  0  0  0  0  0  0  0  0  0
  1  2  1  0
  2  3  1  0
  3  4  1  0
  4  5  1  0
  5  6  1  0
  6  7  1  0
  6  8  1  0
  8  9  1  0
  7  2  1  0
  8  4  1  0
  1 10  1  0
  1 11  1  0
  1 12  1  0
  2 13  1  0
  3 14  1  0
  3 15  1  0
  4 16  1  0
  6 17  1  0
  7 18  1  0
  7 19  1  0
  8 20  1  0
  9 21  1  0
  9 22  1  0
  9 23  1  0
M  END
