
     RDKit          3D

 19 21  0  0  0  0  0  0  0  0999 V2000
    2.6701    0.2388   -0.1250 C   0  0  0  0  0  0  0  0  0  0  0  0
    1.3043   -0.3608   -0.2836 C   0  0  0  0  0  0  0  0  0  0  0  0
    0.2576   -0.1397    0.7888 C   0  0  0  0  0  0  0  0  0  0  0  0
   -0.6454   -1.1523    0.9057 O   0  0  0  0  0  0  0  0  0  0  0  0
   -1.9974   -0.7512    0.7978 C   0  0  0  0  0  0  0  0  0  0  0  0
   -2.0345    0.4603   -0.0308 C   0  0  0  0  0  0  0  0  0  0  0  0
   -2.2428    0.6675   -1.3155 O   0  0  0  0  0  0  0  0  0  0  0  0
   -1.0670    0.1064   -1.1908 C   0  0  0  0  0  0  0  0  0  0  0  0
    0.2149    0.5421   -0.6222 C   0  0  0  0  0  0  0  0  0  0  0  0
    2.7870    0.9908   -0.9602 H   0  0  0  0  0  0  0  0  0  0  0  0
    2.8181    0.7891    0.8023 H   0  0  0  0  0  0  0  0  0  0  0  0
    3.4900   -0.5087   -0.3226 H   0  0  0  0  0  0  0  0  0  0  0  0
    1.3198   -1.3451   -0.8222 H   0  0  0  0  0  0  0  0  0  0  0  0
    0.5806    0.4791    1.6245 H   0  0  0  0  0  0  0  0  0  0  0  0
   -2.3126   -0.5345    1.8480 H   0  0  0  0  0  0  0  0  0  0  0  0
   -2.6402   -1.5463    0.4284 H   0  0  0  0  0  0  0  0  0  0  0  0
   -1.8321    1.3914    0.5485 H   0  0  0  0  0  0  0  0  0  0  0  0
   -1.0433   -0.9769   -1.5133 H   0  0  0  0  0  0  0  0  0  0  0  0
    0.3729    1.6500   -0.5576 H   0  0  0  0  0  0  0  0  0  0  0  0
  1  2  1  0
  2  3  1  0
  3  4  1  0
  4  5  1  0
  5  6  1  0
  6  7  1  0
  7  8  1  0
  8  9  1  0
  9  2  1  0
  9  3  1  0
  8  6  1  0
  1 10  1  0
  1 11  1  0
  1 12  1  0
  2 13  1  0
  3 14  1  0
  5 15  1  0
  5 16  1  0
  6 17  1  0
  8 18  1  0
  9 19  1  0
M  END
