
     RDKit          3D

 20 21  0  0  0  0  0  0  0  0999 V2000
   -2.1468    0.4275   -0.4796 C   0  0  0  0  0  0  0  0  0  0  0  0
   -1.0884   -0.6480   -0.7552 C   0  0  0  0  0  0  0  0  0  0  0  0
   -0.6926   -1.4591    0.4522 C   0  0  0  0  0  0  0  0  0  0  0  0
    0.1881   -0.4543   -0.1005 C   0  0  0  0  0  0  0  0  0  0  0  0
    1.5224   -0.6597   -0.6691 C   0  0  0  0  0  0  0  0  0  0  0  0
    1.9312    0.6805   -0.0377 C   0  0  0  0  0  0  0  0  0  0  0  0
    0.5278    0.8435    0.5416 C   0  0  0  0  0  0  0  0  0  0  0  0
    0.5495    0.8768    1.9260 O   0  0  0  0  0  0  0  0  0  0  0  0
   -2.1128    1.2363   -1.2217 H   0  0  0  0  0  0  0  0  0  0  0  0
   -3.1383   -0.0449   -0.3649 H   0  0  0  0  0  0  0  0  0  0  0  0
   -1.9162    0.8980    0.5110 H   0  0  0  0  0  0  0  0  0  0  0  0
   -1.2378   -1.1836   -1.7119 H   0  0  0  0  0  0  0  0  0  0  0  0
   -0.5415   -2.5374    0.2559 H   0  0  0  0  0  0  0  0  0  0  0  0
   -1.1549   -1.2405    1.4401 H   0  0  0  0  0  0  0  0  0  0  0  0
    1.6171   -0.6823   -1.7687 H   0  0  0  0  0  0  0  0  0  0  0  0
    2.0474   -1.5250   -0.1774 H   0  0  0  0  0  0  0  0  0  0  0  0
    2.6998    0.5832    0.7529 H   0  0  0  0  0  0  0  0  0  0  0  0
    2.1522    1.4124   -0.8409 H   0  0  0  0  0  0  0  0  0  0  0  0
   -0.0597    1.6708    0.0762 H   0  0  0  0  0  0  0  0  0  0  0  0
    0.8535    1.8057    2.1718 H   0  0  0  0  0  0  0  0  0  0  0  0
  1  2  1  0
  2  3  1  0
  3  4  1  0
  4  5  1  0
  5  6  1  0
  6  7  1  0
  7  8  1  0
  4  2  1  0
  7  4  1  0
  1  9  1  0
  1 10  1  0
  1 11  1  0
  2 12  1  0
  3 13  1  0
  3 14  1  0
  5 15  1  0
  5 16  1  0
  6 17  1  0
  6 18  1  0
  7 19  1  0
  8 20  1  0
M  END
