
     RDKit          3D

 21 22  0  0  0  0  0  0  0  0999 V2000
    1.3408   -1.3740   -0.5186 C   0  0  0  0  0  0  0  0  0  0  0  0
    0.9715    0.0078   -0.1433 C   0  0  0  0  0  0  0  0  0  0  0  0
    0.6105    0.8741   -1.3695 C   0  0  0  0  0  0  0  0  0  0  0  0
   -0.4655    0.1190   -1.8814 O   0  0  0  0  0  0  0  0  0  0  0  0
   -1.2366   -0.2599   -0.7810 C   0  0  0  0  0  0  0  0  0  0  0  0
   -0.4364    0.1349    0.4303 C   0  0  0  0  0  0  0  0  0  0  0  0
   -0.7008   -0.5180    1.6793 C   0  0  0  0  0  0  0  0  0  0  0  0
   -0.4817    1.6708    0.4303 C   0  0  0  0  0  0  0  0  0  0  0  0
    0.0792    2.0081   -0.8136 O   0  0  0  0  0  0  0  0  0  0  0  0
    1.9689   -1.8024    0.3084 H   0  0  0  0  0  0  0  0  0  0  0  0
    0.4850   -2.0350   -0.7126 H   0  0  0  0  0  0  0  0  0  0  0  0
    2.0294   -1.3512   -1.4040 H   0  0  0  0  0  0  0  0  0  0  0  0
    1.6698    0.5243    0.5128 H   0  0  0  0  0  0  0  0  0  0  0  0
    1.4193    0.9942   -2.0532 H   0  0  0  0  0  0  0  0  0  0  0  0
   -2.1821    0.3357   -0.7468 H   0  0  0  0  0  0  0  0  0  0  0  0
   -1.5310   -1.3129   -0.7932 H   0  0  0  0  0  0  0  0  0  0  0  0
   -0.0084   -1.3982    1.8254 H   0  0  0  0  0  0  0  0  0  0  0  0
   -1.7594   -0.8199    1.7738 H   0  0  0  0  0  0  0  0  0  0  0  0
   -0.4677    0.1600    2.5448 H   0  0  0  0  0  0  0  0  0  0  0  0
    0.2102    2.0234    1.1928 H   0  0  0  0  0  0  0  0  0  0  0  0
   -1.5149    2.0193    0.5193 H   0  0  0  0  0  0  0  0  0  0  0  0
  1  2  1  0
  2  3  1  0
  3  4  1  0
  4  5  1  0
  5  6  1  0
  6  7  1  0
  6  8  1  0
  8  9  1  0
  6  2  1  0
  9  3  1  0
  1 10  1  0
  1 11  1  0
  1 12  1  0
  2 13  1  0
  3 14  1  0
  5 15  1  0
  5 16  1  0
  7 17  1  0
  7 18  1  0
  7 19  1  0
  8 20  1  0
  8 21  1  0
M  END
