
     RDKit          3D

 21 22  0  0  0  0  0  0  0  0999 V2000
    2.2868   -0.4971    0.3747 C   0  0  0  0  0  0  0  0  0  0  0  0
    0.8081   -0.1578    0.3617 C   0  0  0  0  0  0  0  0  0  0  0  0
    0.1591   -1.0868   -0.6319 C   0  0  0  0  0  0  0  0  0  0  0  0
   -1.3042   -1.2674   -0.4444 C   0  0  0  0  0  0  0  0  0  0  0  0
   -1.9843   -0.2003    0.2805 C   0  0  0  0  0  0  0  0  0  0  0  0
   -1.7487    1.0914    0.4738 C   0  0  0  0  0  0  0  0  0  0  0  0
   -0.6099    1.8613   -0.0561 C   0  0  0  0  0  0  0  0  0  0  0  0
   -0.0163    1.4946   -1.2597 O   0  0  0  0  0  0  0  0  0  0  0  0
    0.6781    1.2817   -0.0193 C   0  0  0  0  0  0  0  0  0  0  0  0
    2.5878   -1.0561   -0.5438 H   0  0  0  0  0  0  0  0  0  0  0  0
    2.5517   -1.1350    1.2476 H   0  0  0  0  0  0  0  0  0  0  0  0
    2.9266    0.3968    0.4106 H   0  0  0  0  0  0  0  0  0  0  0  0
    0.4166   -0.3835    1.3677 H   0  0  0  0  0  0  0  0  0  0  0  0
    0.3933   -0.6941   -1.6464 H   0  0  0  0  0  0  0  0  0  0  0  0
    0.6523   -2.0755   -0.5286 H   0  0  0  0  0  0  0  0  0  0  0  0
   -1.7647   -1.3346   -1.4743 H   0  0  0  0  0  0  0  0  0  0  0  0
   -1.5243   -2.2460    0.0263 H   0  0  0  0  0  0  0  0  0  0  0  0
   -2.9069   -0.5382    0.7858 H   0  0  0  0  0  0  0  0  0  0  0  0
   -2.4752    1.6191    1.0843 H   0  0  0  0  0  0  0  0  0  0  0  0
   -0.7013    2.9772    0.0609 H   0  0  0  0  0  0  0  0  0  0  0  0
    1.5754    1.9504    0.1308 H   0  0  0  0  0  0  0  0  0  0  0  0
  1  2  1  0
  2  3  1  0
  3  4  1  0
  4  5  1  0
  5  6  2  0
  6  7  1  0
  7  8  1  0
  8  9  1  0
  9  2  1  0
  9  7  1  0
  1 10  1  0
  1 11  1  0
  1 12  1  0
  2 13  1  0
  3 14  1  0
  3 15  1  0
  4 16  1  0
  4 17  1  0
  5 18  1  0
  6 19  1  0
  7 20  1  0
  9 21  1  0
M  END
