
     RDKit          3D

 23 24  0  0  0  0  0  0  0  0999 V2000
   -0.7372    1.6633   -1.2507 C   0  0  0  0  0  0  0  0  0  0  0  0
   -0.8731    0.6483   -0.1506 C   0  0  0  0  0  0  0  0  0  0  0  0
   -0.7747   -0.7650   -0.5639 C   0  0  0  0  0  0  0  0  0  0  0  0
   -1.7137   -1.8071   -0.0025 C   0  0  0  0  0  0  0  0  0  0  0  0
    0.2276   -0.1143    0.4003 C   0  0  0  0  0  0  0  0  0  0  0  0
    0.1248   -0.5606    1.8652 C   0  0  0  0  0  0  0  0  0  0  0  0
    1.6290   -0.1120   -0.1161 C   0  0  0  0  0  0  0  0  0  0  0  0
    2.4389    1.0753   -0.1824 C   0  0  0  0  0  0  0  0  0  0  0  0
    1.9324    0.3857   -1.3660 O   0  0  0  0  0  0  0  0  0  0  0  0
   -0.0686    1.3754   -2.0591 H   0  0  0  0  0  0  0  0  0  0  0  0
   -0.5022    2.6599   -0.8042 H   0  0  0  0  0  0  0  0  0  0  0  0
   -1.7634    1.7636   -1.7121 H   0  0  0  0  0  0  0  0  0  0  0  0
   -1.7219    0.8831    0.5490 H   0  0  0  0  0  0  0  0  0  0  0  0
   -0.4394   -0.9877   -1.5931 H   0  0  0  0  0  0  0  0  0  0  0  0
   -1.6228   -1.9243    1.0828 H   0  0  0  0  0  0  0  0  0  0  0  0
   -2.7842   -1.5468   -0.2320 H   0  0  0  0  0  0  0  0  0  0  0  0
   -1.5270   -2.7805   -0.4707 H   0  0  0  0  0  0  0  0  0  0  0  0
   -0.8795   -0.4114    2.2627 H   0  0  0  0  0  0  0  0  0  0  0  0
    0.5423   -1.5564    2.0116 H   0  0  0  0  0  0  0  0  0  0  0  0
    0.7975    0.1508    2.4235 H   0  0  0  0  0  0  0  0  0  0  0  0
    2.1615   -1.0878    0.0958 H   0  0  0  0  0  0  0  0  0  0  0  0
    2.0039    2.0790   -0.1293 H   0  0  0  0  0  0  0  0  0  0  0  0
    3.5497    0.9695   -0.0582 H   0  0  0  0  0  0  0  0  0  0  0  0
  1  2  1  0
  2  3  1  0
  3  4  1  0
  3  5  1  0
  5  6  1  0
  5  7  1  0
  7  8  1  0
  8  9  1  0
  5  2  1  0
  9  7  1  0
  1 10  1  0
  1 11  1  0
  1 12  1  0
  2 13  1  0
  3 14  1  0
  4 15  1  0
  4 16  1  0
  4 17  1  0
  6 18  1  0
  6 19  1  0
  6 20  1  0
  7 21  1  0
  8 22  1  0
  8 23  1  0
M  END
