
     RDKit          3D

 19 20  0  0  0  0  0  0  0  0999 V2000
    1.2449    1.5899    0.2619 C   0  0  0  0  0  0  0  0  0  0  0  0
    0.2197    0.5120    0.4934 C   0  0  0  0  0  0  0  0  0  0  0  0
    0.6653   -0.8180    0.0100 C   0  0  0  0  0  0  0  0  0  0  0  0
    1.9610   -1.4332    0.3654 C   0  0  0  0  0  0  0  0  0  0  0  0
    2.7745   -0.8444    1.1166 O   0  0  0  0  0  0  0  0  0  0  0  0
   -0.2366   -1.3759   -0.7714 C   0  0  0  0  0  0  0  0  0  0  0  0
   -1.4222   -0.5301   -0.9434 C   0  0  0  0  0  0  0  0  0  0  0  0
   -2.2329   -0.0780    0.2074 C   0  0  0  0  0  0  0  0  0  0  0  0
   -1.0590    0.7430   -0.2583 C   0  0  0  0  0  0  0  0  0  0  0  0
    1.5688    1.5949   -0.7968 H   0  0  0  0  0  0  0  0  0  0  0  0
    0.7940    2.5459    0.5770 H   0  0  0  0  0  0  0  0  0  0  0  0
    2.0951    1.3854    0.9424 H   0  0  0  0  0  0  0  0  0  0  0  0
    0.0024    0.4423    1.5795 H   0  0  0  0  0  0  0  0  0  0  0  0
    2.2314   -2.4078   -0.0186 H   0  0  0  0  0  0  0  0  0  0  0  0
   -0.1053   -2.3527   -1.2306 H   0  0  0  0  0  0  0  0  0  0  0  0
   -1.8973   -0.4898   -1.9442 H   0  0  0  0  0  0  0  0  0  0  0  0
   -2.1513   -0.5424    1.2090 H   0  0  0  0  0  0  0  0  0  0  0  0
   -3.2145    0.3593   -0.0137 H   0  0  0  0  0  0  0  0  0  0  0  0
   -1.2380    1.6997   -0.7855 H   0  0  0  0  0  0  0  0  0  0  0  0
  1  2  1  0
  2  3  1  0
  3  4  1  0
  4  5  2  0
  3  6  2  0
  6  7  1  0
  7  8  1  0
  8  9  1  0
  9  2  1  0
  9  7  1  0
  1 10  1  0
  1 11  1  0
  1 12  1  0
  2 13  1  0
  4 14  1  0
  6 15  1  0
  7 16  1  0
  8 17  1  0
  8 18  1  0
  9 19  1  0
M  END
