
     RDKit          3D

 23 23  0  0  0  0  0  0  0  0999 V2000
   -2.1373   -0.8072    1.0399 C   0  0  0  0  0  0  0  0  0  0  0  0
   -1.2207   -0.4620   -0.0984 C   0  0  0  0  0  0  0  0  0  0  0  0
   -0.7436    0.9264   -0.2848 C   0  0  0  0  0  0  0  0  0  0  0  0
   -0.4446    1.4498   -1.6851 C   0  0  0  0  0  0  0  0  0  0  0  0
    0.2021   -0.1153    0.2070 C   0  0  0  0  0  0  0  0  0  0  0  0
    0.6522    0.0228    1.6425 C   0  0  0  0  0  0  0  0  0  0  0  0
    1.2101   -0.7413   -0.7177 C   0  0  0  0  0  0  0  0  0  0  0  0
    2.6008   -0.4038   -0.4235 C   0  0  0  0  0  0  0  0  0  0  0  0
    2.9297    0.3208    0.4832 O   0  0  0  0  0  0  0  0  0  0  0  0
   -2.5394    0.1495    1.4374 H   0  0  0  0  0  0  0  0  0  0  0  0
   -2.9885   -1.4297    0.7033 H   0  0  0  0  0  0  0  0  0  0  0  0
   -1.6393   -1.3665    1.8566 H   0  0  0  0  0  0  0  0  0  0  0  0
   -1.4395   -1.0122   -1.0373 H   0  0  0  0  0  0  0  0  0  0  0  0
   -1.1371    1.6742    0.4063 H   0  0  0  0  0  0  0  0  0  0  0  0
   -0.7822    0.7192   -2.4497 H   0  0  0  0  0  0  0  0  0  0  0  0
   -0.8705    2.4605   -1.8452 H   0  0  0  0  0  0  0  0  0  0  0  0
    0.6654    1.5804   -1.7491 H   0  0  0  0  0  0  0  0  0  0  0  0
   -0.2027    0.0019    2.3508 H   0  0  0  0  0  0  0  0  0  0  0  0
    1.1048    1.0303    1.7524 H   0  0  0  0  0  0  0  0  0  0  0  0
    1.3976   -0.7688    1.8647 H   0  0  0  0  0  0  0  0  0  0  0  0
    0.9491   -0.5509   -1.8002 H   0  0  0  0  0  0  0  0  0  0  0  0
    1.0535   -1.8553   -0.6050 H   0  0  0  0  0  0  0  0  0  0  0  0
    3.3800   -0.8226   -1.0479 H   0  0  0  0  0  0  0  0  0  0  0  0
  1  2  1  0
  2  3  1  0
  3  4  1  0
  3  5  1  0
  5  6  1  0
  5  7  1  0
  7  8  1  0
  8  9  2  0
  5  2  1  0
  1 10  1  0
  1 11  1  0
  1 12  1  0
  2 13  1  0
  3 14  1  0
  4 15  1  0
  4 16  1  0
  4 17  1  0
  6 18  1  0
  6 19  1  0
  6 20  1  0
  7 21  1  0
  7 22  1  0
  8 23  1  0
M  END
