
     RDKit          3D

 19 19  0  0  0  0  0  0  0  0999 V2000
   -2.1317    0.5208   -0.7194 C   0  0  0  0  0  0  0  0  0  0  0  0
   -0.7927    0.3470   -0.0925 C   0  0  0  0  0  0  0  0  0  0  0  0
   -0.6847   -0.9206    0.7380 C   0  0  0  0  0  0  0  0  0  0  0  0
    0.6459   -1.2395    0.7698 O   0  0  0  0  0  0  0  0  0  0  0  0
    1.2926   -0.6524   -0.2809 C   0  0  0  0  0  0  0  0  0  0  0  0
    2.1484    0.4905    0.2810 C   0  0  0  0  0  0  0  0  0  0  0  0
    0.2483    0.0201   -1.1548 C   0  0  0  0  0  0  0  0  0  0  0  0
   -2.3645   -0.4205   -1.2965 H   0  0  0  0  0  0  0  0  0  0  0  0
   -2.0824    1.3478   -1.4368 H   0  0  0  0  0  0  0  0  0  0  0  0
   -2.8938    0.6867    0.0742 H   0  0  0  0  0  0  0  0  0  0  0  0
   -0.5407    1.2333    0.4880 H   0  0  0  0  0  0  0  0  0  0  0  0
   -1.2664   -1.7151    0.1844 H   0  0  0  0  0  0  0  0  0  0  0  0
   -1.0660   -0.8099    1.7526 H   0  0  0  0  0  0  0  0  0  0  0  0
    1.9435   -1.3269   -0.8496 H   0  0  0  0  0  0  0  0  0  0  0  0
    2.8681    0.8576   -0.4792 H   0  0  0  0  0  0  0  0  0  0  0  0
    1.5108    1.3444    0.5786 H   0  0  0  0  0  0  0  0  0  0  0  0
    2.7286    0.0915    1.1340 H   0  0  0  0  0  0  0  0  0  0  0  0
   -0.1878   -0.7550   -1.8042 H   0  0  0  0  0  0  0  0  0  0  0  0
    0.6245    0.9003   -1.6692 H   0  0  0  0  0  0  0  0  0  0  0  0
  1  2  1  0
  2  3  1  0
  3  4  1  0
  4  5  1  0
  5  6  1  0
  5  7  1  0
  7  2  1  0
  1  8  1  0
  1  9  1  0
  1 10  1  0
  2 11  1  0
  3 12  1  0
  3 13  1  0
  5 14  1  0
  6 15  1  0
  6 16  1  0
  6 17  1  0
  7 18  1  0
  7 19  1  0
M  END
