
     RDKit          3D

 20 21  0  0  0  0  0  0  0  0999 V2000
   -2.7701    1.1572   -0.3945 C   0  0  0  0  0  0  0  0  0  0  0  0
   -1.8122    0.3633    0.4841 C   0  0  0  0  0  0  0  0  0  0  0  0
   -1.7869   -1.1008    0.2744 C   0  0  0  0  0  0  0  0  0  0  0  0
   -0.6175   -0.2807   -0.2241 C   0  0  0  0  0  0  0  0  0  0  0  0
    0.5465   -0.4658    0.4978 O   0  0  0  0  0  0  0  0  0  0  0  0
    1.6933   -0.4320   -0.2485 C   0  0  0  0  0  0  0  0  0  0  0  0
    2.9456   -1.0927    0.1473 C   0  0  0  0  0  0  0  0  0  0  0  0
    2.8249    0.3753    0.4162 C   0  0  0  0  0  0  0  0  0  0  0  0
   -3.6845    1.3741    0.1539 H   0  0  0  0  0  0  0  0  0  0  0  0
   -2.2331    2.0651   -0.7664 H   0  0  0  0  0  0  0  0  0  0  0  0
   -3.0350    0.5322   -1.2643 H   0  0  0  0  0  0  0  0  0  0  0  0
   -1.6217    0.8220    1.4768 H   0  0  0  0  0  0  0  0  0  0  0  0
   -1.6246   -1.8123    1.1111 H   0  0  0  0  0  0  0  0  0  0  0  0
   -2.4708   -1.5211   -0.5061 H   0  0  0  0  0  0  0  0  0  0  0  0
   -0.5680   -0.1208   -1.3251 H   0  0  0  0  0  0  0  0  0  0  0  0
    1.5261   -0.2588   -1.3409 H   0  0  0  0  0  0  0  0  0  0  0  0
    3.6707   -1.3347   -0.6712 H   0  0  0  0  0  0  0  0  0  0  0  0
    2.9893   -1.8179    0.9741 H   0  0  0  0  0  0  0  0  0  0  0  0
    2.7153    0.6497    1.4701 H   0  0  0  0  0  0  0  0  0  0  0  0
    3.3127    1.1008   -0.2646 H   0  0  0  0  0  0  0  0  0  0  0  0
  1  2  1  0
  2  3  1  0
  3  4  1  0
  4  5  1  0
  5  6  1  0
  6  7  1  0
  7  8  1  0
  4  2  1  0
  8  6  1  0
  1  9  1  0
  1 10  1  0
  1 11  1  0
  2 12  1  0
  3 13  1  0
  3 14  1  0
  4 15  1  0
  6 16  1  0
  7 17  1  0
  7 18  1  0
  8 19  1  0
  8 20  1  0
M  END
