
     RDKit          3D

 18 19  0  0  0  0  0  0  0  0999 V2000
   -2.0603   -0.4156    0.3914 C   0  0  0  0  0  0  0  0  0  0  0  0
   -1.1473    0.0949   -0.6816 C   0  0  0  0  0  0  0  0  0  0  0  0
   -0.5270    1.4445   -0.3199 C   0  0  0  0  0  0  0  0  0  0  0  0
    0.5247    0.6473    0.3627 C   0  0  0  0  0  0  0  0  0  0  0  0
    1.8513    0.8725    0.0502 O   0  0  0  0  0  0  0  0  0  0  0  0
    2.3501   -0.4408    0.2719 C   0  0  0  0  0  0  0  0  0  0  0  0
    1.3688   -1.1872   -0.6018 C   0  0  0  0  0  0  0  0  0  0  0  0
    0.2302   -0.5102   -0.5723 C   0  0  0  0  0  0  0  0  0  0  0  0
   -3.0166    0.1396    0.3698 H   0  0  0  0  0  0  0  0  0  0  0  0
   -2.2979   -1.4769    0.2628 H   0  0  0  0  0  0  0  0  0  0  0  0
   -1.6115   -0.2300    1.4023 H   0  0  0  0  0  0  0  0  0  0  0  0
   -1.5967    0.0385   -1.6732 H   0  0  0  0  0  0  0  0  0  0  0  0
   -1.1792    1.9551    0.4362 H   0  0  0  0  0  0  0  0  0  0  0  0
   -0.2529    2.0235   -1.1953 H   0  0  0  0  0  0  0  0  0  0  0  0
    0.3223    0.4191    1.4253 H   0  0  0  0  0  0  0  0  0  0  0  0
    3.3769   -0.5490   -0.0711 H   0  0  0  0  0  0  0  0  0  0  0  0
    2.1498   -0.7281    1.3043 H   0  0  0  0  0  0  0  0  0  0  0  0
    1.5153   -2.0971   -1.1618 H   0  0  0  0  0  0  0  0  0  0  0  0
  1  2  1  0
  2  3  1  0
  3  4  1  0
  4  5  1  0
  5  6  1  0
  6  7  1  0
  7  8  2  0
  8  2  1  0
  8  4  1  0
  1  9  1  0
  1 10  1  0
  1 11  1  0
  2 12  1  0
  3 13  1  0
  3 14  1  0
  4 15  1  0
  6 16  1  0
  6 17  1  0
  7 18  1  0
M  END
