
     RDKit          3D

 23 23  0  0  0  0  0  0  0  0999 V2000
   -2.4063    1.0491   -0.6075 C   0  0  0  0  0  0  0  0  0  0  0  0
   -1.3209    0.3629    0.1922 C   0  0  0  0  0  0  0  0  0  0  0  0
   -1.2680   -1.1284   -0.1182 C   0  0  0  0  0  0  0  0  0  0  0  0
   -0.3121   -1.7546    0.8729 C   0  0  0  0  0  0  0  0  0  0  0  0
    0.9986   -1.0774    0.7241 C   0  0  0  0  0  0  0  0  0  0  0  0
    1.1516    0.1449    0.2610 C   0  0  0  0  0  0  0  0  0  0  0  0
    2.5006    0.7862    0.1296 C   0  0  0  0  0  0  0  0  0  0  0  0
    3.5082   -0.0659    0.5504 O   0  0  0  0  0  0  0  0  0  0  0  0
   -0.0060    0.9969   -0.1731 C   0  0  0  0  0  0  0  0  0  0  0  0
   -3.0522    1.6342    0.0940 H   0  0  0  0  0  0  0  0  0  0  0  0
   -1.9782    1.7994   -1.3231 H   0  0  0  0  0  0  0  0  0  0  0  0
   -3.0406    0.3636   -1.1719 H   0  0  0  0  0  0  0  0  0  0  0  0
   -1.4635    0.4751    1.2715 H   0  0  0  0  0  0  0  0  0  0  0  0
   -0.9717   -1.3139   -1.1672 H   0  0  0  0  0  0  0  0  0  0  0  0
   -2.2756   -1.5683    0.0898 H   0  0  0  0  0  0  0  0  0  0  0  0
   -0.6922   -1.4785    1.8910 H   0  0  0  0  0  0  0  0  0  0  0  0
   -0.2177   -2.8418    0.7440 H   0  0  0  0  0  0  0  0  0  0  0  0
    1.8829   -1.6277    1.0163 H   0  0  0  0  0  0  0  0  0  0  0  0
    2.4931    1.6539    0.8328 H   0  0  0  0  0  0  0  0  0  0  0  0
    2.6612    1.1886   -0.8899 H   0  0  0  0  0  0  0  0  0  0  0  0
    3.6788   -0.7603   -0.1567 H   0  0  0  0  0  0  0  0  0  0  0  0
    0.1004    1.1731   -1.2537 H   0  0  0  0  0  0  0  0  0  0  0  0
    0.0293    1.9889    0.3220 H   0  0  0  0  0  0  0  0  0  0  0  0
  1  2  1  0
  2  3  1  0
  3  4  1  0
  4  5  1  0
  5  6  2  0
  6  7  1  0
  7  8  1  0
  6  9  1  0
  9  2  1  0
  1 10  1  0
  1 11  1  0
  1 12  1  0
  2 13  1  0
  3 14  1  0
  3 15  1  0
  4 16  1  0
  4 17  1  0
  5 18  1  0
  7 19  1  0
  7 20  1  0
  8 21  1  0
  9 22  1  0
  9 23  1  0
M  END
