
     RDKit          3D

 21 23  0  0  0  0  0  0  0  0999 V2000
    2.4849    0.6791    0.0661 C   0  0  0  0  0  0  0  0  0  0  0  0
    1.1814    0.2526   -0.5142 C   0  0  0  0  0  0  0  0  0  0  0  0
    0.9051   -1.2009   -0.0822 C   0  0  0  0  0  0  0  0  0  0  0  0
   -0.2596   -0.8989    0.8617 C   0  0  0  0  0  0  0  0  0  0  0  0
    0.2530    0.2375    1.5334 O   0  0  0  0  0  0  0  0  0  0  0  0
    0.0503    0.8991    0.2956 C   0  0  0  0  0  0  0  0  0  0  0  0
   -1.0957    0.0264    0.1042 C   0  0  0  0  0  0  0  0  0  0  0  0
   -1.9325   -0.1984   -1.0186 C   0  0  0  0  0  0  0  0  0  0  0  0
   -2.4948    0.3211    0.2824 C   0  0  0  0  0  0  0  0  0  0  0  0
    2.5243    1.7699    0.2081 H   0  0  0  0  0  0  0  0  0  0  0  0
    3.3236    0.3122   -0.5682 H   0  0  0  0  0  0  0  0  0  0  0  0
    2.5736    0.2185    1.0888 H   0  0  0  0  0  0  0  0  0  0  0  0
    1.0653    0.3922   -1.5841 H   0  0  0  0  0  0  0  0  0  0  0  0
    1.7595   -1.6439    0.4285 H   0  0  0  0  0  0  0  0  0  0  0  0
    0.5058   -1.7889   -0.9271 H   0  0  0  0  0  0  0  0  0  0  0  0
   -0.6383   -1.6925    1.4571 H   0  0  0  0  0  0  0  0  0  0  0  0
    0.0026    1.9616    0.3124 H   0  0  0  0  0  0  0  0  0  0  0  0
   -2.0055    0.5475   -1.8478 H   0  0  0  0  0  0  0  0  0  0  0  0
   -2.2783   -1.2111   -1.3702 H   0  0  0  0  0  0  0  0  0  0  0  0
   -2.8280    1.3750    0.3494 H   0  0  0  0  0  0  0  0  0  0  0  0
   -3.0967   -0.3583    0.9247 H   0  0  0  0  0  0  0  0  0  0  0  0
  1  2  1  0
  2  3  1  0
  3  4  1  0
  4  5  1  0
  5  6  1  0
  6  7  1  0
  7  8  1  0
  8  9  1  0
  6  2  1  0
  9  7  1  0
  7  4  1  0
  1 10  1  0
  1 11  1  0
  1 12  1  0
  2 13  1  0
  3 14  1  0
  3 15  1  0
  4 16  1  0
  6 17  1  0
  8 18  1  0
  8 19  1  0
  9 20  1  0
  9 21  1  0
M  END
