
     RDKit          3D

 23 24  0  0  0  0  0  0  0  0999 V2000
    1.9743   -0.7908   -0.2447 C   0  0  0  0  0  0  0  0  0  0  0  0
    0.9563   -0.0357    0.5966 C   0  0  0  0  0  0  0  0  0  0  0  0
    1.4222    1.4296    0.5557 C   0  0  0  0  0  0  0  0  0  0  0  0
    1.1254    1.7300   -0.7894 O   0  0  0  0  0  0  0  0  0  0  0  0
   -0.1531    1.2468   -1.0233 C   0  0  0  0  0  0  0  0  0  0  0  0
   -0.3756    0.0861   -0.0912 C   0  0  0  0  0  0  0  0  0  0  0  0
   -0.9620   -1.1415   -0.6711 C   0  0  0  0  0  0  0  0  0  0  0  0
   -2.0602   -1.1269    0.3705 C   0  0  0  0  0  0  0  0  0  0  0  0
   -1.5152    0.2035    0.8638 C   0  0  0  0  0  0  0  0  0  0  0  0
    2.9835   -0.3234   -0.0712 H   0  0  0  0  0  0  0  0  0  0  0  0
    1.6803   -0.6324   -1.3129 H   0  0  0  0  0  0  0  0  0  0  0  0
    2.0255   -1.8471    0.0251 H   0  0  0  0  0  0  0  0  0  0  0  0
    0.9086   -0.3745    1.6288 H   0  0  0  0  0  0  0  0  0  0  0  0
    2.4958    1.4714    0.7377 H   0  0  0  0  0  0  0  0  0  0  0  0
    0.8054    2.0528    1.2141 H   0  0  0  0  0  0  0  0  0  0  0  0
   -0.9297    2.0166   -0.9732 H   0  0  0  0  0  0  0  0  0  0  0  0
   -0.1434    0.8473   -2.0755 H   0  0  0  0  0  0  0  0  0  0  0  0
   -1.3654   -0.9260   -1.7044 H   0  0  0  0  0  0  0  0  0  0  0  0
   -0.3536   -2.0498   -0.7203 H   0  0  0  0  0  0  0  0  0  0  0  0
   -2.0062   -1.9534    1.1176 H   0  0  0  0  0  0  0  0  0  0  0  0
   -3.0927   -1.0444   -0.0414 H   0  0  0  0  0  0  0  0  0  0  0  0
   -2.1934    1.0633    0.6663 H   0  0  0  0  0  0  0  0  0  0  0  0
   -1.2266    0.0986    1.9425 H   0  0  0  0  0  0  0  0  0  0  0  0
  1  2  1  0
  2  3  1  0
  3  4  1  0
  4  5  1  0
  5  6  1  0
  6  7  1  0
  7  8  1  0
  8  9  1  0
  6  2  1  0
  9  6  1  0
  1 10  1  0
  1 11  1  0
  1 12  1  0
  2 13  1  0
  3 14  1  0
  3 15  1  0
  5 16  1  0
  5 17  1  0
  7 18  1  0
  7 19  1  0
  8 20  1  0
  8 21  1  0
  9 22  1  0
  9 23  1  0
M  END
