
     RDKit          3D

 18 18  0  0  0  0  0  0  0  0999 V2000
    2.2221    0.8650    0.2735 C   0  0  0  0  0  0  0  0  0  0  0  0
    1.0198    0.0932    0.6729 C   0  0  0  0  0  0  0  0  0  0  0  0
    0.7786   -1.1493   -0.1420 C   0  0  0  0  0  0  0  0  0  0  0  0
   -0.7069   -1.2615   -0.0966 C   0  0  0  0  0  0  0  0  0  0  0  0
   -1.4166   -2.1989   -0.4173 O   0  0  0  0  0  0  0  0  0  0  0  0
   -1.2037    0.0365    0.4360 C   0  0  0  0  0  0  0  0  0  0  0  0
   -2.2983    0.5794   -0.4653 C   0  0  0  0  0  0  0  0  0  0  0  0
   -0.1163    0.8912    0.4100 O   0  0  0  0  0  0  0  0  0  0  0  0
    2.5749    1.4450    1.1755 H   0  0  0  0  0  0  0  0  0  0  0  0
    3.0775    0.2757   -0.0679 H   0  0  0  0  0  0  0  0  0  0  0  0
    2.0096    1.6267   -0.4994 H   0  0  0  0  0  0  0  0  0  0  0  0
    0.9702   -0.1912    1.7341 H   0  0  0  0  0  0  0  0  0  0  0  0
    1.1459   -1.0934   -1.1682 H   0  0  0  0  0  0  0  0  0  0  0  0
    1.1988   -2.0197    0.3963 H   0  0  0  0  0  0  0  0  0  0  0  0
   -1.5331   -0.0544    1.4799 H   0  0  0  0  0  0  0  0  0  0  0  0
   -1.9475    1.4573   -1.0522 H   0  0  0  0  0  0  0  0  0  0  0  0
   -2.6343   -0.1942   -1.1893 H   0  0  0  0  0  0  0  0  0  0  0  0
   -3.1409    0.8926    0.1729 H   0  0  0  0  0  0  0  0  0  0  0  0
  1  2  1  0
  2  3  1  0
  3  4  1  0
  4  5  2  0
  4  6  1  0
  6  7  1  0
  6  8  1  0
  8  2  1  0
  1  9  1  0
  1 10  1  0
  1 11  1  0
  2 12  1  0
  3 13  1  0
  3 14  1  0
  6 15  1  0
  7 16  1  0
  7 17  1  0
  7 18  1  0
M  END
