
     RDKit          3D

 21 21  0  0  0  0  0  0  0  0999 V2000
    1.8435   -0.9393   -0.0112 C   0  0  0  0  0  0  0  0  0  0  0  0
    0.7750   -0.1904   -0.7368 C   0  0  0  0  0  0  0  0  0  0  0  0
   -0.6505   -0.4553   -0.6021 C   0  0  0  0  0  0  0  0  0  0  0  0
   -1.2300   -1.5696    0.2170 C   0  0  0  0  0  0  0  0  0  0  0  0
   -1.4626   -0.1169   -1.7104 O   0  0  0  0  0  0  0  0  0  0  0  0
   -0.0805    0.6824    0.1850 C   0  0  0  0  0  0  0  0  0  0  0  0
   -0.4071    2.0893   -0.2825 C   0  0  0  0  0  0  0  0  0  0  0  0
    0.0683    0.5190    1.6392 C   0  0  0  0  0  0  0  0  0  0  0  0
    0.2565    1.4734    2.3708 O   0  0  0  0  0  0  0  0  0  0  0  0
    1.8864   -2.0059   -0.2141 H   0  0  0  0  0  0  0  0  0  0  0  0
    1.7844   -0.8185    1.1070 H   0  0  0  0  0  0  0  0  0  0  0  0
    2.8407   -0.5011   -0.2748 H   0  0  0  0  0  0  0  0  0  0  0  0
    1.1254    0.2845   -1.7010 H   0  0  0  0  0  0  0  0  0  0  0  0
   -1.6383   -1.1438    1.1683 H   0  0  0  0  0  0  0  0  0  0  0  0
   -2.1106   -2.0581   -0.2722 H   0  0  0  0  0  0  0  0  0  0  0  0
   -0.5087   -2.3494    0.5025 H   0  0  0  0  0  0  0  0  0  0  0  0
   -0.9724    0.3610   -2.3973 H   0  0  0  0  0  0  0  0  0  0  0  0
    0.1453    2.8062    0.3447 H   0  0  0  0  0  0  0  0  0  0  0  0
   -1.5111    2.2062   -0.1236 H   0  0  0  0  0  0  0  0  0  0  0  0
   -0.1721    2.1775   -1.3415 H   0  0  0  0  0  0  0  0  0  0  0  0
    0.0183   -0.4513    2.1330 H   0  0  0  0  0  0  0  0  0  0  0  0
  1  2  1  0
  2  3  1  0
  3  4  1  0
  3  5  1  0
  3  6  1  0
  6  7  1  0
  6  8  1  0
  8  9  2  0
  6  2  1  0
  1 10  1  0
  1 11  1  0
  1 12  1  0
  2 13  1  0
  4 14  1  0
  4 15  1  0
  4 16  1  0
  5 17  1  0
  7 18  1  0
  7 19  1  0
  7 20  1  0
  8 21  1  0
M  END
