
     RDKit          3D

 23 25  0  0  0  0  0  0  0  0999 V2000
   -2.2813   -1.0438    0.2692 C   0  0  0  0  0  0  0  0  0  0  0  0
   -1.6819    0.3236    0.0551 C   0  0  0  0  0  0  0  0  0  0  0  0
   -1.0723    0.5982   -1.3406 C   0  0  0  0  0  0  0  0  0  0  0  0
   -0.2669    0.5597   -0.1296 C   0  0  0  0  0  0  0  0  0  0  0  0
    0.4800    1.7362    0.4182 C   0  0  0  0  0  0  0  0  0  0  0  0
    1.5975    0.8194    0.7947 C   0  0  0  0  0  0  0  0  0  0  0  0
    1.3525   -0.4317    1.5395 C   0  0  0  0  0  0  0  0  0  0  0  0
    0.8262   -0.3842    0.1524 C   0  0  0  0  0  0  0  0  0  0  0  0
    1.5927   -1.0719   -0.9532 C   0  0  0  0  0  0  0  0  0  0  0  0
   -3.3726   -0.9474    0.0611 H   0  0  0  0  0  0  0  0  0  0  0  0
   -1.8847   -1.8126   -0.4070 H   0  0  0  0  0  0  0  0  0  0  0  0
   -2.1999   -1.3689    1.3315 H   0  0  0  0  0  0  0  0  0  0  0  0
   -2.3091    1.1608    0.4487 H   0  0  0  0  0  0  0  0  0  0  0  0
   -1.1280   -0.2220   -2.0783 H   0  0  0  0  0  0  0  0  0  0  0  0
   -1.2675    1.6296   -1.7604 H   0  0  0  0  0  0  0  0  0  0  0  0
    0.7340    2.4369   -0.4156 H   0  0  0  0  0  0  0  0  0  0  0  0
   -0.0564    2.2047    1.2537 H   0  0  0  0  0  0  0  0  0  0  0  0
    2.5808    1.0467    0.3751 H   0  0  0  0  0  0  0  0  0  0  0  0
    0.6895   -0.4114    2.4230 H   0  0  0  0  0  0  0  0  0  0  0  0
    2.2505   -1.0850    1.6690 H   0  0  0  0  0  0  0  0  0  0  0  0
    1.1410   -0.7869   -1.9274 H   0  0  0  0  0  0  0  0  0  0  0  0
    1.6029   -2.1816   -0.8398 H   0  0  0  0  0  0  0  0  0  0  0  0
    2.6732   -0.7685   -0.9393 H   0  0  0  0  0  0  0  0  0  0  0  0
  1  2  1  0
  2  3  1  0
  3  4  1  0
  4  5  1  0
  5  6  1  0
  6  7  1  0
  7  8  1  0
  8  9  1  0
  4  2  1  0
  8  6  1  0
  8  4  1  0
  1 10  1  0
  1 11  1  0
  1 12  1  0
  2 13  1  0
  3 14  1  0
  3 15  1  0
  5 16  1  0
  5 17  1  0
  6 18  1  0
  7 19  1  0
  7 20  1  0
  9 21  1  0
  9 22  1  0
  9 23  1  0
M  END
