
     RDKit          3D

 21 23  0  0  0  0  0  0  0  0999 V2000
    2.2629   -0.3479    0.1590 C   0  0  0  0  0  0  0  0  0  0  0  0
    1.0413   -0.0139   -0.6277 C   0  0  0  0  0  0  0  0  0  0  0  0
    0.0111   -1.0875   -0.7818 C   0  0  0  0  0  0  0  0  0  0  0  0
   -0.9838    0.0140   -0.9716 C   0  0  0  0  0  0  0  0  0  0  0  0
   -2.2014   -0.5010   -0.2903 C   0  0  0  0  0  0  0  0  0  0  0  0
   -1.6309   -1.1477    0.8352 O   0  0  0  0  0  0  0  0  0  0  0  0
   -0.2925   -0.9024    0.6795 C   0  0  0  0  0  0  0  0  0  0  0  0
   -0.1378    0.5129    0.1555 C   0  0  0  0  0  0  0  0  0  0  0  0
   -0.2279    1.6710    0.8610 C   0  0  0  0  0  0  0  0  0  0  0  0
    2.4893   -1.4324    0.0522 H   0  0  0  0  0  0  0  0  0  0  0  0
    3.1265    0.1783   -0.3306 H   0  0  0  0  0  0  0  0  0  0  0  0
    2.2303   -0.0686    1.2147 H   0  0  0  0  0  0  0  0  0  0  0  0
    1.2003    0.5100   -1.5868 H   0  0  0  0  0  0  0  0  0  0  0  0
    0.0821   -1.9509   -1.2833 H   0  0  0  0  0  0  0  0  0  0  0  0
   -1.0378    0.5434   -1.8888 H   0  0  0  0  0  0  0  0  0  0  0  0
   -2.6705   -1.2646   -0.9595 H   0  0  0  0  0  0  0  0  0  0  0  0
   -2.8999    0.2839    0.0135 H   0  0  0  0  0  0  0  0  0  0  0  0
    0.4139   -1.2491    1.4046 H   0  0  0  0  0  0  0  0  0  0  0  0
   -0.7978    2.5087    0.3585 H   0  0  0  0  0  0  0  0  0  0  0  0
    0.7602    2.1583    1.1198 H   0  0  0  0  0  0  0  0  0  0  0  0
   -0.7379    1.5858    1.8669 H   0  0  0  0  0  0  0  0  0  0  0  0
  1  2  1  0
  2  3  1  0
  3  4  1  0
  4  5  1  0
  5  6  1  0
  6  7  1  0
  7  8  1  0
  8  9  1  0
  8  2  1  0
  7  3  1  0
  8  4  1  0
  1 10  1  0
  1 11  1  0
  1 12  1  0
  2 13  1  0
  3 14  1  0
  4 15  1  0
  5 16  1  0
  5 17  1  0
  7 18  1  0
  9 19  1  0
  9 20  1  0
  9 21  1  0
M  END
