
     RDKit          3D

 19 19  0  0  0  0  0  0  0  0999 V2000
    2.3377   -0.4262    0.2975 C   0  0  0  0  0  0  0  0  0  0  0  0
    1.1910    0.1401   -0.4765 C   0  0  0  0  0  0  0  0  0  0  0  0
    0.0025   -0.8090   -0.5291 C   0  0  0  0  0  0  0  0  0  0  0  0
   -1.0525   -0.2314    0.3635 C   0  0  0  0  0  0  0  0  0  0  0  0
   -2.4304   -0.2819   -0.2492 C   0  0  0  0  0  0  0  0  0  0  0  0
   -0.6878    1.2058    0.5699 C   0  0  0  0  0  0  0  0  0  0  0  0
   -1.4254    2.1119    1.0296 O   0  0  0  0  0  0  0  0  0  0  0  0
    0.6867    1.3855    0.1430 C   0  0  0  0  0  0  0  0  0  0  0  0
    1.3378    2.4392    0.2826 O   0  0  0  0  0  0  0  0  0  0  0  0
    3.2988   -0.3391   -0.2752 H   0  0  0  0  0  0  0  0  0  0  0  0
    2.2137   -1.5012    0.5411 H   0  0  0  0  0  0  0  0  0  0  0  0
    2.4818    0.1103    1.2582 H   0  0  0  0  0  0  0  0  0  0  0  0
    1.4722    0.4173   -1.5349 H   0  0  0  0  0  0  0  0  0  0  0  0
   -0.3355   -0.9526   -1.5653 H   0  0  0  0  0  0  0  0  0  0  0  0
    0.3322   -1.7832   -0.1086 H   0  0  0  0  0  0  0  0  0  0  0  0
   -1.0728   -0.6872    1.3719 H   0  0  0  0  0  0  0  0  0  0  0  0
   -2.4086    0.2174   -1.2459 H   0  0  0  0  0  0  0  0  0  0  0  0
   -2.8306   -1.3042   -0.2994 H   0  0  0  0  0  0  0  0  0  0  0  0
   -3.1108    0.2886    0.4268 H   0  0  0  0  0  0  0  0  0  0  0  0
  1  2  1  0
  2  3  1  0
  3  4  1  0
  4  5  1  0
  4  6  1  0
  6  7  2  0
  6  8  1  0
  8  9  2  0
  8  2  1  0
  1 10  1  0
  1 11  1  0
  1 12  1  0
  2 13  1  0
  3 14  1  0
  3 15  1  0
  4 16  1  0
  5 17  1  0
  5 18  1  0
  5 19  1  0
M  END
