
     RDKit          3D

 27 27  0  0  0  0  0  0  0  0999 V2000
    2.1179   -0.4967    1.3785 C   0  0  0  0  0  0  0  0  0  0  0  0
    1.1137   -0.7339    0.3102 C   0  0  0  0  0  0  0  0  0  0  0  0
   -0.2109   -1.3337    0.7692 C   0  0  0  0  0  0  0  0  0  0  0  0
   -0.9082   -0.3168   -0.0789 C   0  0  0  0  0  0  0  0  0  0  0  0
   -1.4670   -0.8491   -1.3967 C   0  0  0  0  0  0  0  0  0  0  0  0
   -1.9932    0.4130    0.6552 C   0  0  0  0  0  0  0  0  0  0  0  0
    0.3844    0.4052   -0.2678 C   0  0  0  0  0  0  0  0  0  0  0  0
    0.7484    0.5965   -1.7465 C   0  0  0  0  0  0  0  0  0  0  0  0
    0.4004    1.7163    0.4267 C   0  0  0  0  0  0  0  0  0  0  0  0
    3.0370   -1.1439    1.2604 H   0  0  0  0  0  0  0  0  0  0  0  0
    1.6997   -0.8201    2.3769 H   0  0  0  0  0  0  0  0  0  0  0  0
    2.4755    0.5209    1.4893 H   0  0  0  0  0  0  0  0  0  0  0  0
    1.5472   -1.4284   -0.4685 H   0  0  0  0  0  0  0  0  0  0  0  0
   -0.3130   -1.1965    1.8739 H   0  0  0  0  0  0  0  0  0  0  0  0
   -0.3995   -2.3626    0.4450 H   0  0  0  0  0  0  0  0  0  0  0  0
   -2.4359   -1.3479   -1.1185 H   0  0  0  0  0  0  0  0  0  0  0  0
   -0.7581   -1.5119   -1.8855 H   0  0  0  0  0  0  0  0  0  0  0  0
   -1.7708    0.0340   -2.0067 H   0  0  0  0  0  0  0  0  0  0  0  0
   -2.9217   -0.2246    0.5605 H   0  0  0  0  0  0  0  0  0  0  0  0
   -2.2376    1.3868    0.1870 H   0  0  0  0  0  0  0  0  0  0  0  0
   -1.8200    0.5043    1.7414 H   0  0  0  0  0  0  0  0  0  0  0  0
   -0.0464    1.0812   -2.3107 H   0  0  0  0  0  0  0  0  0  0  0  0
    1.6987    1.1750   -1.7612 H   0  0  0  0  0  0  0  0  0  0  0  0
    0.9592   -0.4227   -2.1621 H   0  0  0  0  0  0  0  0  0  0  0  0
    0.0218    2.4881   -0.3080 H   0  0  0  0  0  0  0  0  0  0  0  0
   -0.3042    1.7920    1.2883 H   0  0  0  0  0  0  0  0  0  0  0  0
    1.3825    2.0755    0.7487 H   0  0  0  0  0  0  0  0  0  0  0  0
  1  2  1  0
  2  3  1  0
  3  4  1  0
  4  5  1  0
  4  6  1  0
  4  7  1  0
  7  8  1  0
  7  9  1  0
  7  2  1  0
  1 10  1  0
  1 11  1  0
  1 12  1  0
  2 13  1  0
  3 14  1  0
  3 15  1  0
  5 16  1  0
  5 17  1  0
  5 18  1  0
  6 19  1  0
  6 20  1  0
  6 21  1  0
  8 22  1  0
  8 23  1  0
  8 24  1  0
  9 25  1  0
  9 26  1  0
  9 27  1  0
M  END
