
     RDKit          3D

 25 25  0  0  0  0  0  0  0  0999 V2000
    2.8145    0.7352    0.1548 C   0  0  0  0  0  0  0  0  0  0  0  0
    2.1545   -0.0290   -0.9522 C   0  0  0  0  0  0  0  0  0  0  0  0
    1.8818   -1.4807   -0.6303 C   0  0  0  0  0  0  0  0  0  0  0  0
    0.7085   -0.5052   -0.7556 C   0  0  0  0  0  0  0  0  0  0  0  0
    0.1462   -0.0440    0.4002 O   0  0  0  0  0  0  0  0  0  0  0  0
   -1.2100    0.1728    0.3577 C   0  0  0  0  0  0  0  0  0  0  0  0
   -1.9538   -1.1239    0.0271 C   0  0  0  0  0  0  0  0  0  0  0  0
   -1.6503    1.2420   -0.5726 C   0  0  0  0  0  0  0  0  0  0  0  0
   -1.6396    0.5495    1.7651 C   0  0  0  0  0  0  0  0  0  0  0  0
    3.0256    1.7740   -0.1827 H   0  0  0  0  0  0  0  0  0  0  0  0
    3.8272    0.2797    0.3355 H   0  0  0  0  0  0  0  0  0  0  0  0
    2.2784    0.6959    1.1090 H   0  0  0  0  0  0  0  0  0  0  0  0
    2.4752    0.2395   -1.9616 H   0  0  0  0  0  0  0  0  0  0  0  0
    2.0945   -2.1728   -1.4448 H   0  0  0  0  0  0  0  0  0  0  0  0
    2.1114   -1.8673    0.3761 H   0  0  0  0  0  0  0  0  0  0  0  0
    0.1104   -0.6898   -1.6600 H   0  0  0  0  0  0  0  0  0  0  0  0
   -2.1222   -1.6898    0.9662 H   0  0  0  0  0  0  0  0  0  0  0  0
   -2.9225   -0.8936   -0.4117 H   0  0  0  0  0  0  0  0  0  0  0  0
   -1.3505   -1.7701   -0.6403 H   0  0  0  0  0  0  0  0  0  0  0  0
   -2.2559    2.0458   -0.0618 H   0  0  0  0  0  0  0  0  0  0  0  0
   -0.8343    1.7779   -1.0913 H   0  0  0  0  0  0  0  0  0  0  0  0
   -2.3445    0.8272   -1.3582 H   0  0  0  0  0  0  0  0  0  0  0  0
   -1.1636   -0.1035    2.5149 H   0  0  0  0  0  0  0  0  0  0  0  0
   -1.4378    1.6259    1.9199 H   0  0  0  0  0  0  0  0  0  0  0  0
   -2.7433    0.4042    1.7965 H   0  0  0  0  0  0  0  0  0  0  0  0
  1  2  1  0
  2  3  1  0
  3  4  1  0
  4  5  1  0
  5  6  1  0
  6  7  1  0
  6  8  1  0
  6  9  1  0
  4  2  1  0
  1 10  1  0
  1 11  1  0
  1 12  1  0
  2 13  1  0
  3 14  1  0
  3 15  1  0
  4 16  1  0
  7 17  1  0
  7 18  1  0
  7 19  1  0
  8 20  1  0
  8 21  1  0
  8 22  1  0
  9 23  1  0
  9 24  1  0
  9 25  1  0
M  END
