
     RDKit          3D

 19 20  0  0  0  0  0  0  0  0999 V2000
   -1.8229   -0.2497   -1.0322 C   0  0  0  0  0  0  0  0  0  0  0  0
   -0.9976   -0.2701    0.1842 C   0  0  0  0  0  0  0  0  0  0  0  0
    0.2136   -1.1635    0.2112 C   0  0  0  0  0  0  0  0  0  0  0  0
    0.7696   -0.8371    1.5615 C   0  0  0  0  0  0  0  0  0  0  0  0
    0.6544    0.4909    1.6071 C   0  0  0  0  0  0  0  0  0  0  0  0
    0.0692    0.8265    0.2811 C   0  0  0  0  0  0  0  0  0  0  0  0
   -0.2240    2.0551   -0.0524 O   0  0  0  0  0  0  0  0  0  0  0  0
    0.8942   -0.0663   -0.6199 C   0  0  0  0  0  0  0  0  0  0  0  0
    2.2406   -0.0079   -0.3033 O   0  0  0  0  0  0  0  0  0  0  0  0
   -1.3338   -0.5360   -1.9686 H   0  0  0  0  0  0  0  0  0  0  0  0
   -2.1948    0.8052   -1.1919 H   0  0  0  0  0  0  0  0  0  0  0  0
   -2.7293   -0.8578   -0.8779 H   0  0  0  0  0  0  0  0  0  0  0  0
   -1.5845   -0.3605    1.0981 H   0  0  0  0  0  0  0  0  0  0  0  0
    0.1941   -2.1426   -0.1454 H   0  0  0  0  0  0  0  0  0  0  0  0
    1.1685   -1.4884    2.3238 H   0  0  0  0  0  0  0  0  0  0  0  0
    0.8957    1.2180    2.3638 H   0  0  0  0  0  0  0  0  0  0  0  0
    0.3785    2.5611   -0.6483 H   0  0  0  0  0  0  0  0  0  0  0  0
    0.6338   -0.0851   -1.6700 H   0  0  0  0  0  0  0  0  0  0  0  0
    2.7748    0.1081   -1.1209 H   0  0  0  0  0  0  0  0  0  0  0  0
  1  2  1  0
  2  3  1  0
  3  4  1  0
  4  5  2  0
  5  6  1  0
  6  7  1  0
  6  8  1  0
  8  9  1  0
  6  2  1  0
  8  3  1  0
  1 10  1  0
  1 11  1  0
  1 12  1  0
  2 13  1  0
  3 14  1  0
  4 15  1  0
  5 16  1  0
  7 17  1  0
  8 18  1  0
  9 19  1  0
M  END
