
     RDKit          3D

 23 24  0  0  0  0  0  0  0  0999 V2000
    1.5490   -1.2901    0.6135 C   0  0  0  0  0  0  0  0  0  0  0  0
    0.9174   -0.2945   -0.2965 C   0  0  0  0  0  0  0  0  0  0  0  0
   -0.2642   -0.8144   -1.0600 C   0  0  0  0  0  0  0  0  0  0  0  0
   -1.3069   -1.4505   -0.1678 C   0  0  0  0  0  0  0  0  0  0  0  0
   -1.8404   -0.2228    0.5783 C   0  0  0  0  0  0  0  0  0  0  0  0
   -1.0862    0.8946   -0.0664 C   0  0  0  0  0  0  0  0  0  0  0  0
   -0.9230    0.3993   -1.3821 O   0  0  0  0  0  0  0  0  0  0  0  0
    0.3724    0.9139    0.3923 C   0  0  0  0  0  0  0  0  0  0  0  0
    0.9920    2.1753   -0.1741 C   0  0  0  0  0  0  0  0  0  0  0  0
    2.3407   -0.7737    1.1894 H   0  0  0  0  0  0  0  0  0  0  0  0
    0.8847   -1.7732    1.3262 H   0  0  0  0  0  0  0  0  0  0  0  0
    2.0040   -2.0868   -0.0172 H   0  0  0  0  0  0  0  0  0  0  0  0
    1.6772    0.0219   -1.0401 H   0  0  0  0  0  0  0  0  0  0  0  0
   -0.0243   -1.3919   -1.9480 H   0  0  0  0  0  0  0  0  0  0  0  0
   -0.9245   -2.2166    0.4958 H   0  0  0  0  0  0  0  0  0  0  0  0
   -2.0771   -1.9037   -0.8131 H   0  0  0  0  0  0  0  0  0  0  0  0
   -2.9054   -0.1203    0.3137 H   0  0  0  0  0  0  0  0  0  0  0  0
   -1.6811   -0.3013    1.6642 H   0  0  0  0  0  0  0  0  0  0  0  0
   -1.5593    1.8671   -0.0345 H   0  0  0  0  0  0  0  0  0  0  0  0
    0.3986    0.8843    1.4805 H   0  0  0  0  0  0  0  0  0  0  0  0
    1.4753    1.9262   -1.1340 H   0  0  0  0  0  0  0  0  0  0  0  0
    0.2166    2.9483   -0.3959 H   0  0  0  0  0  0  0  0  0  0  0  0
    1.7646    2.6089    0.4757 H   0  0  0  0  0  0  0  0  0  0  0  0
  1  2  1  0
  2  3  1  0
  3  4  1  0
  4  5  1  0
  5  6  1  0
  6  7  1  0
  6  8  1  0
  8  9  1  0
  8  2  1  0
  7  3  1  0
  1 10  1  0
  1 11  1  0
  1 12  1  0
  2 13  1  0
  3 14  1  0
  4 15  1  0
  4 16  1  0
  5 17  1  0
  5 18  1  0
  6 19  1  0
  8 20  1  0
  9 21  1  0
  9 22  1  0
  9 23  1  0
M  END
