
     RDKit          3D

 21 21  0  0  0  0  0  0  0  0999 V2000
    1.4085   -1.2974   -0.2092 C   0  0  0  0  0  0  0  0  0  0  0  0
    0.7361   -0.1658    0.5029 C   0  0  0  0  0  0  0  0  0  0  0  0
    1.3463    1.1608    0.1143 C   0  0  0  0  0  0  0  0  0  0  0  0
    0.3878    1.7609   -0.8408 C   0  0  0  0  0  0  0  0  0  0  0  0
   -0.7665    1.1041   -0.8071 C   0  0  0  0  0  0  0  0  0  0  0  0
   -0.7116   -0.0092    0.1737 C   0  0  0  0  0  0  0  0  0  0  0  0
   -1.3291   -1.2177   -0.4652 C   0  0  0  0  0  0  0  0  0  0  0  0
   -1.4663    0.3847    1.3798 C   0  0  0  0  0  0  0  0  0  0  0  0
   -1.8915   -0.4523    2.1350 O   0  0  0  0  0  0  0  0  0  0  0  0
    1.2670   -1.2227   -1.3051 H   0  0  0  0  0  0  0  0  0  0  0  0
    1.1483   -2.2704    0.2150 H   0  0  0  0  0  0  0  0  0  0  0  0
    2.5172   -1.1699   -0.0378 H   0  0  0  0  0  0  0  0  0  0  0  0
    0.8502   -0.3123    1.6013 H   0  0  0  0  0  0  0  0  0  0  0  0
    2.3657    1.0672   -0.2747 H   0  0  0  0  0  0  0  0  0  0  0  0
    1.3983    1.8418    1.0137 H   0  0  0  0  0  0  0  0  0  0  0  0
    0.5904    2.6054   -1.4727 H   0  0  0  0  0  0  0  0  0  0  0  0
   -1.6504    1.3224   -1.4004 H   0  0  0  0  0  0  0  0  0  0  0  0
   -2.4434   -1.0595   -0.4377 H   0  0  0  0  0  0  0  0  0  0  0  0
   -1.0023   -1.3318   -1.5200 H   0  0  0  0  0  0  0  0  0  0  0  0
   -1.1149   -2.1629    0.0457 H   0  0  0  0  0  0  0  0  0  0  0  0
   -1.6399    1.4246    1.5894 H   0  0  0  0  0  0  0  0  0  0  0  0
  1  2  1  0
  2  3  1  0
  3  4  1  0
  4  5  2  0
  5  6  1  0
  6  7  1  0
  6  8  1  0
  8  9  2  0
  6  2  1  0
  1 10  1  0
  1 11  1  0
  1 12  1  0
  2 13  1  0
  3 14  1  0
  3 15  1  0
  4 16  1  0
  5 17  1  0
  7 18  1  0
  7 19  1  0
  7 20  1  0
  8 21  1  0
M  END
