
     RDKit          3D

 19 20  0  0  0  0  0  0  0  0999 V2000
    2.4257   -0.2027    0.0673 C   0  0  0  0  0  0  0  0  0  0  0  0
    1.0630   -0.0411   -0.5056 C   0  0  0  0  0  0  0  0  0  0  0  0
   -0.0185   -0.9214    0.0319 C   0  0  0  0  0  0  0  0  0  0  0  0
    0.1105   -0.1576    1.2943 C   0  0  0  0  0  0  0  0  0  0  0  0
    0.1441   -0.3176    2.5000 O   0  0  0  0  0  0  0  0  0  0  0  0
    0.1736    0.8939    0.2598 C   0  0  0  0  0  0  0  0  0  0  0  0
   -0.9596    0.1701   -0.4078 C   0  0  0  0  0  0  0  0  0  0  0  0
   -2.2821    0.2161    0.2742 C   0  0  0  0  0  0  0  0  0  0  0  0
   -0.9759    0.4347   -1.7629 O   0  0  0  0  0  0  0  0  0  0  0  0
    2.9558    0.7867   -0.0533 H   0  0  0  0  0  0  0  0  0  0  0  0
    3.0141   -0.9095   -0.5715 H   0  0  0  0  0  0  0  0  0  0  0  0
    2.4686   -0.4612    1.1229 H   0  0  0  0  0  0  0  0  0  0  0  0
    1.0829    0.1530   -1.5776 H   0  0  0  0  0  0  0  0  0  0  0  0
   -0.1383   -1.9050   -0.0777 H   0  0  0  0  0  0  0  0  0  0  0  0
    0.2820    1.8789    0.3877 H   0  0  0  0  0  0  0  0  0  0  0  0
   -3.0277   -0.2662   -0.3917 H   0  0  0  0  0  0  0  0  0  0  0  0
   -2.6174    1.2662    0.4124 H   0  0  0  0  0  0  0  0  0  0  0  0
   -2.2915   -0.3227    1.2279 H   0  0  0  0  0  0  0  0  0  0  0  0
   -1.4091   -0.2944   -2.2304 H   0  0  0  0  0  0  0  0  0  0  0  0
  1  2  1  0
  2  3  1  0
  3  4  1  0
  4  5  2  0
  4  6  1  0
  6  7  1  0
  7  8  1  0
  7  9  1  0
  6  2  1  0
  7  3  1  0
  1 10  1  0
  1 11  1  0
  1 12  1  0
  2 13  1  0
  3 14  1  0
  6 15  1  0
  8 16  1  0
  8 17  1  0
  8 18  1  0
  9 19  1  0
M  END
