
     RDKit          3D

 21 22  0  0  0  0  0  0  0  0999 V2000
    2.2881   -0.8591   -0.2645 C   0  0  0  0  0  0  0  0  0  0  0  0
    0.8863   -0.5454    0.1749 C   0  0  0  0  0  0  0  0  0  0  0  0
    0.9048    0.7420    1.0113 C   0  0  0  0  0  0  0  0  0  0  0  0
   -0.3902    1.1162    0.3248 C   0  0  0  0  0  0  0  0  0  0  0  0
   -1.6117    0.4491    0.9245 C   0  0  0  0  0  0  0  0  0  0  0  0
   -2.3054   -0.0469   -0.2958 C   0  0  0  0  0  0  0  0  0  0  0  0
   -3.5135   -0.0409   -0.4565 O   0  0  0  0  0  0  0  0  0  0  0  0
   -1.2472   -0.5176   -1.2063 C   0  0  0  0  0  0  0  0  0  0  0  0
    0.0245    0.1772   -0.8103 C   0  0  0  0  0  0  0  0  0  0  0  0
    2.7991   -1.3297    0.6194 H   0  0  0  0  0  0  0  0  0  0  0  0
    2.8912    0.0577   -0.4787 H   0  0  0  0  0  0  0  0  0  0  0  0
    2.3385   -1.6083   -1.0690 H   0  0  0  0  0  0  0  0  0  0  0  0
    0.4328   -1.4079    0.6918 H   0  0  0  0  0  0  0  0  0  0  0  0
    1.7105    1.4300    0.6802 H   0  0  0  0  0  0  0  0  0  0  0  0
    0.8074    0.5834    2.0859 H   0  0  0  0  0  0  0  0  0  0  0  0
   -0.5068    2.1631    0.0412 H   0  0  0  0  0  0  0  0  0  0  0  0
   -1.2263   -0.4079    1.5462 H   0  0  0  0  0  0  0  0  0  0  0  0
   -2.2100    1.1507    1.5120 H   0  0  0  0  0  0  0  0  0  0  0  0
   -1.1264   -1.6111   -1.1699 H   0  0  0  0  0  0  0  0  0  0  0  0
   -1.5167   -0.1736   -2.2464 H   0  0  0  0  0  0  0  0  0  0  0  0
    0.5710    0.6793   -1.6148 H   0  0  0  0  0  0  0  0  0  0  0  0
  1  2  1  0
  2  3  1  0
  3  4  1  0
  4  5  1  0
  5  6  1  0
  6  7  2  0
  6  8  1  0
  8  9  1  0
  9  2  1  0
  9  4  1  0
  1 10  1  0
  1 11  1  0
  1 12  1  0
  2 13  1  0
  3 14  1  0
  3 15  1  0
  4 16  1  0
  5 17  1  0
  5 18  1  0
  8 19  1  0
  8 20  1  0
  9 21  1  0
M  END
