
     RDKit          3D

 23 25  0  0  0  0  0  0  0  0999 V2000
   -0.8015    2.1084   -0.2289 C   0  0  0  0  0  0  0  0  0  0  0  0
   -0.8942    0.6736   -0.0210 C   0  0  0  0  0  0  0  0  0  0  0  0
   -0.0094   -0.0020    1.0139 C   0  0  0  0  0  0  0  0  0  0  0  0
    1.0344   -0.1265   -0.0713 C   0  0  0  0  0  0  0  0  0  0  0  0
    1.9097    1.0618   -0.3051 C   0  0  0  0  0  0  0  0  0  0  0  0
   -0.1760   -0.2778   -0.9577 C   0  0  0  0  0  0  0  0  0  0  0  0
   -0.7812   -1.5720   -0.5097 C   0  0  0  0  0  0  0  0  0  0  0  0
   -0.1648   -2.5435    0.3641 C   0  0  0  0  0  0  0  0  0  0  0  0
   -0.6285   -1.3572    1.0464 C   0  0  0  0  0  0  0  0  0  0  0  0
   -1.8225    2.5386   -0.4696 H   0  0  0  0  0  0  0  0  0  0  0  0
   -0.1617    2.4735   -1.0514 H   0  0  0  0  0  0  0  0  0  0  0  0
   -0.5469    2.6207    0.7466 H   0  0  0  0  0  0  0  0  0  0  0  0
   -1.9571    0.3388    0.1636 H   0  0  0  0  0  0  0  0  0  0  0  0
    0.2233    0.5218    1.9064 H   0  0  0  0  0  0  0  0  0  0  0  0
    1.6321   -1.0360   -0.0867 H   0  0  0  0  0  0  0  0  0  0  0  0
    1.7064    1.9189    0.3428 H   0  0  0  0  0  0  0  0  0  0  0  0
    1.8984    1.3041   -1.3981 H   0  0  0  0  0  0  0  0  0  0  0  0
    2.9967    0.8078   -0.1094 H   0  0  0  0  0  0  0  0  0  0  0  0
   -0.1096   -0.0353   -1.9884 H   0  0  0  0  0  0  0  0  0  0  0  0
   -1.8357   -1.7038   -0.8525 H   0  0  0  0  0  0  0  0  0  0  0  0
   -0.8001   -3.4656    0.5520 H   0  0  0  0  0  0  0  0  0  0  0  0
    0.8982   -2.8749    0.3118 H   0  0  0  0  0  0  0  0  0  0  0  0
   -1.6100   -1.3735    1.6021 H   0  0  0  0  0  0  0  0  0  0  0  0
  1  2  1  0
  2  3  1  0
  3  4  1  0
  4  5  1  0
  4  6  1  0
  6  7  1  0
  7  8  1  0
  8  9  1  0
  6  2  1  0
  9  7  1  0
  9  3  1  0
  1 10  1  0
  1 11  1  0
  1 12  1  0
  2 13  1  0
  3 14  1  0
  4 15  1  0
  5 16  1  0
  5 17  1  0
  5 18  1  0
  6 19  1  0
  7 20  1  0
  8 21  1  0
  8 22  1  0
  9 23  1  0
M  END
