
     RDKit          3D

 21 22  0  0  0  0  0  0  0  0999 V2000
   -1.1169    1.5848   -0.0298 C   0  0  0  0  0  0  0  0  0  0  0  0
   -0.8681    0.2226   -0.5644 C   0  0  0  0  0  0  0  0  0  0  0  0
   -1.8187   -0.8068    0.0639 C   0  0  0  0  0  0  0  0  0  0  0  0
   -1.2288   -1.9876   -0.4355 O   0  0  0  0  0  0  0  0  0  0  0  0
    0.1214   -1.8515   -0.1318 C   0  0  0  0  0  0  0  0  0  0  0  0
    0.4363   -0.3884   -0.1212 C   0  0  0  0  0  0  0  0  0  0  0  0
    1.2084    0.1265    1.0087 C   0  0  0  0  0  0  0  0  0  0  0  0
    1.7366    0.1560   -0.4520 C   0  0  0  0  0  0  0  0  0  0  0  0
    1.9227    1.4173   -0.9551 O   0  0  0  0  0  0  0  0  0  0  0  0
   -0.2677    2.2606   -0.0514 H   0  0  0  0  0  0  0  0  0  0  0  0
   -1.5865    1.5040    0.9881 H   0  0  0  0  0  0  0  0  0  0  0  0
   -1.9199    2.0559   -0.6687 H   0  0  0  0  0  0  0  0  0  0  0  0
   -1.0249    0.1257   -1.6613 H   0  0  0  0  0  0  0  0  0  0  0  0
   -1.6318   -0.7861    1.1408 H   0  0  0  0  0  0  0  0  0  0  0  0
   -2.8417   -0.6823   -0.2554 H   0  0  0  0  0  0  0  0  0  0  0  0
    0.2586   -2.2774    0.8988 H   0  0  0  0  0  0  0  0  0  0  0  0
    0.7379   -2.4354   -0.8439 H   0  0  0  0  0  0  0  0  0  0  0  0
    0.9542    1.0910    1.4689 H   0  0  0  0  0  0  0  0  0  0  0  0
    1.6924   -0.6219    1.6724 H   0  0  0  0  0  0  0  0  0  0  0  0
    2.5769   -0.5445   -0.6652 H   0  0  0  0  0  0  0  0  0  0  0  0
    2.6599    1.8378   -0.4060 H   0  0  0  0  0  0  0  0  0  0  0  0
  1  2  1  0
  2  3  1  0
  3  4  1  0
  4  5  1  0
  5  6  1  0
  6  7  1  0
  7  8  1  0
  8  9  1  0
  6  2  1  0
  8  6  1  0
  1 10  1  0
  1 11  1  0
  1 12  1  0
  2 13  1  0
  3 14  1  0
  3 15  1  0
  5 16  1  0
  5 17  1  0
  7 18  1  0
  7 19  1  0
  8 20  1  0
  9 21  1  0
M  END
