
     RDKit          3D

 21 22  0  0  0  0  0  0  0  0999 V2000
    2.4543   -0.0108    0.0853 C   0  0  0  0  0  0  0  0  0  0  0  0
    1.0640   -0.4852    0.3788 C   0  0  0  0  0  0  0  0  0  0  0  0
    0.1489   -0.5852   -0.8430 C   0  0  0  0  0  0  0  0  0  0  0  0
   -0.9618   -1.5526   -0.7866 C   0  0  0  0  0  0  0  0  0  0  0  0
   -0.9630   -2.6518   -1.2676 O   0  0  0  0  0  0  0  0  0  0  0  0
   -2.0635   -0.9255   -0.0356 C   0  0  0  0  0  0  0  0  0  0  0  0
   -1.3649    0.0016    0.9033 C   0  0  0  0  0  0  0  0  0  0  0  0
   -0.0966    0.4244    0.2250 C   0  0  0  0  0  0  0  0  0  0  0  0
    0.0655    1.8767   -0.0825 C   0  0  0  0  0  0  0  0  0  0  0  0
    2.5957    1.0757    0.3555 H   0  0  0  0  0  0  0  0  0  0  0  0
    2.6832   -0.0585   -1.0046 H   0  0  0  0  0  0  0  0  0  0  0  0
    3.2117   -0.6331    0.6131 H   0  0  0  0  0  0  0  0  0  0  0  0
    0.9740   -1.3379    1.0972 H   0  0  0  0  0  0  0  0  0  0  0  0
    0.5769   -0.2872   -1.8193 H   0  0  0  0  0  0  0  0  0  0  0  0
   -2.6717   -1.6629    0.5345 H   0  0  0  0  0  0  0  0  0  0  0  0
   -2.6995   -0.3864   -0.7699 H   0  0  0  0  0  0  0  0  0  0  0  0
   -1.1341   -0.5480    1.8386 H   0  0  0  0  0  0  0  0  0  0  0  0
   -2.0003    0.9013    1.1501 H   0  0  0  0  0  0  0  0  0  0  0  0
    0.9309    2.3581    0.3768 H   0  0  0  0  0  0  0  0  0  0  0  0
    0.1033    2.0411   -1.1925 H   0  0  0  0  0  0  0  0  0  0  0  0
   -0.8531    2.4459    0.2436 H   0  0  0  0  0  0  0  0  0  0  0  0
  1  2  1  0
  2  3  1  0
  3  4  1  0
  4  5  2  0
  4  6  1  0
  6  7  1  0
  7  8  1  0
  8  9  1  0
  8  2  1  0
  8  3  1  0
  1 10  1  0
  1 11  1  0
  1 12  1  0
  2 13  1  0
  3 14  1  0
  6 15  1  0
  6 16  1  0
  7 17  1  0
  7 18  1  0
  9 19  1  0
  9 20  1  0
  9 21  1  0
M  END
