
     RDKit          3D

 23 24  0  0  0  0  0  0  0  0999 V2000
    2.2459    0.6845   -0.5400 C   0  0  0  0  0  0  0  0  0  0  0  0
    0.9219    0.0452   -0.8103 C   0  0  0  0  0  0  0  0  0  0  0  0
    0.7261   -1.2094    0.0651 C   0  0  0  0  0  0  0  0  0  0  0  0
    1.7634   -1.3742    0.9496 O   0  0  0  0  0  0  0  0  0  0  0  0
   -0.5547   -0.8205    0.7488 C   0  0  0  0  0  0  0  0  0  0  0  0
   -0.2246    0.6255    1.1522 C   0  0  0  0  0  0  0  0  0  0  0  0
   -0.2551    0.8505   -0.3388 C   0  0  0  0  0  0  0  0  0  0  0  0
   -1.3501   -0.2128   -0.3762 C   0  0  0  0  0  0  0  0  0  0  0  0
   -2.6970    0.2990   -0.0702 C   0  0  0  0  0  0  0  0  0  0  0  0
    2.3765    1.0678    0.4789 H   0  0  0  0  0  0  0  0  0  0  0  0
    3.0290   -0.0948   -0.7396 H   0  0  0  0  0  0  0  0  0  0  0  0
    2.3820    1.4978   -1.2734 H   0  0  0  0  0  0  0  0  0  0  0  0
    0.8673   -0.2090   -1.8770 H   0  0  0  0  0  0  0  0  0  0  0  0
    0.5482   -2.0744   -0.5921 H   0  0  0  0  0  0  0  0  0  0  0  0
    2.5474   -1.7356    0.4957 H   0  0  0  0  0  0  0  0  0  0  0  0
   -1.0106   -1.4455    1.4605 H   0  0  0  0  0  0  0  0  0  0  0  0
    0.7429    0.7248    1.6493 H   0  0  0  0  0  0  0  0  0  0  0  0
   -1.0177    1.0836    1.7396 H   0  0  0  0  0  0  0  0  0  0  0  0
   -0.4585    1.8066   -0.7335 H   0  0  0  0  0  0  0  0  0  0  0  0
   -1.3336   -0.8690   -1.2536 H   0  0  0  0  0  0  0  0  0  0  0  0
   -3.4514   -0.4870   -0.2136 H   0  0  0  0  0  0  0  0  0  0  0  0
   -2.9482    1.0969   -0.8281 H   0  0  0  0  0  0  0  0  0  0  0  0
   -2.8493    0.7499    0.9066 H   0  0  0  0  0  0  0  0  0  0  0  0
  1  2  1  0
  2  3  1  0
  3  4  1  0
  3  5  1  0
  5  6  1  0
  6  7  1  0
  7  8  1  0
  8  9  1  0
  7  2  1  0
  8  5  1  0
  1 10  1  0
  1 11  1  0
  1 12  1  0
  2 13  1  0
  3 14  1  0
  4 15  1  0
  5 16  1  0
  6 17  1  0
  6 18  1  0
  7 19  1  0
  8 20  1  0
  9 21  1  0
  9 22  1  0
  9 23  1  0
M  END
