
     RDKit          3D

 21 23  0  0  0  0  0  0  0  0999 V2000
    2.6767   -0.2058   -0.6946 C   0  0  0  0  0  0  0  0  0  0  0  0
    1.6222    0.0719    0.3155 C   0  0  0  0  0  0  0  0  0  0  0  0
    0.6853   -1.1571    0.5758 C   0  0  0  0  0  0  0  0  0  0  0  0
   -0.2736   -0.0886    0.9397 C   0  0  0  0  0  0  0  0  0  0  0  0
    0.3702    0.6920   -0.2117 C   0  0  0  0  0  0  0  0  0  0  0  0
   -0.5734    1.3561   -0.8185 C   0  0  0  0  0  0  0  0  0  0  0  0
   -1.9207    0.9802   -0.2897 C   0  0  0  0  0  0  0  0  0  0  0  0
   -2.3941   -0.4097   -0.5545 C   0  0  0  0  0  0  0  0  0  0  0  0
   -1.7019   -0.1265    0.6932 C   0  0  0  0  0  0  0  0  0  0  0  0
    3.4849   -0.7768   -0.2134 H   0  0  0  0  0  0  0  0  0  0  0  0
    2.2560   -0.8170   -1.5199 H   0  0  0  0  0  0  0  0  0  0  0  0
    3.0302    0.7675   -1.1009 H   0  0  0  0  0  0  0  0  0  0  0  0
    1.9282    0.4522    1.2853 H   0  0  0  0  0  0  0  0  0  0  0  0
    0.5536   -1.6534   -0.3838 H   0  0  0  0  0  0  0  0  0  0  0  0
    1.0051   -1.7495    1.4307 H   0  0  0  0  0  0  0  0  0  0  0  0
    0.0279    0.4149    1.8938 H   0  0  0  0  0  0  0  0  0  0  0  0
   -0.4560    2.0917   -1.6051 H   0  0  0  0  0  0  0  0  0  0  0  0
   -2.6431    1.7751   -0.0754 H   0  0  0  0  0  0  0  0  0  0  0  0
   -1.8539   -1.0466   -1.2940 H   0  0  0  0  0  0  0  0  0  0  0  0
   -3.4749   -0.5492   -0.5733 H   0  0  0  0  0  0  0  0  0  0  0  0
   -2.3487   -0.0213    1.6376 H   0  0  0  0  0  0  0  0  0  0  0  0
  1  2  1  0
  2  3  1  0
  3  4  1  0
  4  5  1  0
  5  6  2  0
  6  7  1  0
  7  8  1  0
  8  9  1  0
  5  2  1  0
  9  7  1  0
  9  4  1  0
  1 10  1  0
  1 11  1  0
  1 12  1  0
  2 13  1  0
  3 14  1  0
  3 15  1  0
  4 16  1  0
  6 17  1  0
  7 18  1  0
  8 19  1  0
  8 20  1  0
  9 21  1  0
M  END
