
     RDKit          3D

 20 20  0  0  0  0  0  0  0  0999 V2000
   -1.8948    0.7434   -0.5657 C   0  0  0  0  0  0  0  0  0  0  0  0
   -0.8045    0.1047    0.3013 C   0  0  0  0  0  0  0  0  0  0  0  0
    0.1040    1.1284    0.8917 C   0  0  0  0  0  0  0  0  0  0  0  0
    1.4654    1.1354    0.3094 C   0  0  0  0  0  0  0  0  0  0  0  0
    2.0639    0.0384   -0.1417 C   0  0  0  0  0  0  0  0  0  0  0  0
    1.2824   -1.2344   -0.0326 C   0  0  0  0  0  0  0  0  0  0  0  0
   -0.1124   -0.9163   -0.5539 C   0  0  0  0  0  0  0  0  0  0  0  0
   -0.9057   -2.0681   -0.5596 O   0  0  0  0  0  0  0  0  0  0  0  0
   -2.7442    0.0393   -0.5395 H   0  0  0  0  0  0  0  0  0  0  0  0
   -1.5102    0.8195   -1.6234 H   0  0  0  0  0  0  0  0  0  0  0  0
   -2.1429    1.7453   -0.1893 H   0  0  0  0  0  0  0  0  0  0  0  0
   -1.3024   -0.4445    1.1475 H   0  0  0  0  0  0  0  0  0  0  0  0
    0.1563    1.0669    2.0161 H   0  0  0  0  0  0  0  0  0  0  0  0
   -0.3553    2.1381    0.6912 H   0  0  0  0  0  0  0  0  0  0  0  0
    2.0485    2.0619    0.2238 H   0  0  0  0  0  0  0  0  0  0  0  0
    3.0499    0.0079   -0.5698 H   0  0  0  0  0  0  0  0  0  0  0  0
    1.7113   -2.0550   -0.6070 H   0  0  0  0  0  0  0  0  0  0  0  0
    1.1403   -1.5042    1.0459 H   0  0  0  0  0  0  0  0  0  0  0  0
   -0.0477   -0.5843   -1.6160 H   0  0  0  0  0  0  0  0  0  0  0  0
   -1.2021   -2.2223    0.3717 H   0  0  0  0  0  0  0  0  0  0  0  0
  1  2  1  0
  2  3  1  0
  3  4  1  0
  4  5  2  0
  5  6  1  0
  6  7  1  0
  7  8  1  0
  7  2  1  0
  1  9  1  0
  1 10  1  0
  1 11  1  0
  2 12  1  0
  3 13  1  0
  3 14  1  0
  4 15  1  0
  5 16  1  0
  6 17  1  0
  6 18  1  0
  7 19  1  0
  8 20  1  0
M  END
