
     RDKit          3D

 21 21  0  0  0  0  0  0  0  0999 V2000
    1.7806   -0.4538    0.9799 C   0  0  0  0  0  0  0  0  0  0  0  0
    0.7395   -0.6528   -0.0659 C   0  0  0  0  0  0  0  0  0  0  0  0
    1.1578    0.0055   -1.3512 C   0  0  0  0  0  0  0  0  0  0  0  0
    2.1864   -0.1432   -2.0060 O   0  0  0  0  0  0  0  0  0  0  0  0
   -0.1023    0.7865   -1.3982 C   0  0  0  0  0  0  0  0  0  0  0  0
   -0.4501    0.2591   -0.0304 C   0  0  0  0  0  0  0  0  0  0  0  0
   -0.4264    1.3143    1.0529 C   0  0  0  0  0  0  0  0  0  0  0  0
   -1.7262   -0.5297    0.0179 C   0  0  0  0  0  0  0  0  0  0  0  0
   -1.7659   -1.3227   -1.1351 O   0  0  0  0  0  0  0  0  0  0  0  0
    1.7105    0.5421    1.4882 H   0  0  0  0  0  0  0  0  0  0  0  0
    1.6042   -1.2209    1.7805 H   0  0  0  0  0  0  0  0  0  0  0  0
    2.8104   -0.6493    0.5934 H   0  0  0  0  0  0  0  0  0  0  0  0
    0.5123   -1.7305   -0.2415 H   0  0  0  0  0  0  0  0  0  0  0  0
    0.1479    1.8843   -1.4067 H   0  0  0  0  0  0  0  0  0  0  0  0
   -0.7859    0.4748   -2.2146 H   0  0  0  0  0  0  0  0  0  0  0  0
    0.3625    2.0718    0.9034 H   0  0  0  0  0  0  0  0  0  0  0  0
   -1.4057    1.8351    1.0209 H   0  0  0  0  0  0  0  0  0  0  0  0
   -0.2817    0.8566    2.0618 H   0  0  0  0  0  0  0  0  0  0  0  0
   -1.7199   -1.1752    0.9044 H   0  0  0  0  0  0  0  0  0  0  0  0
   -2.6144    0.1362   -0.0380 H   0  0  0  0  0  0  0  0  0  0  0  0
   -1.7335   -2.2883   -0.9157 H   0  0  0  0  0  0  0  0  0  0  0  0
  1  2  1  0
  2  3  1  0
  3  4  2  0
  3  5  1  0
  5  6  1  0
  6  7  1  0
  6  8  1  0
  8  9  1  0
  6  2  1  0
  1 10  1  0
  1 11  1  0
  1 12  1  0
  2 13  1  0
  5 14  1  0
  5 15  1  0
  7 16  1  0
  7 17  1  0
  7 18  1  0
  8 19  1  0
  8 20  1  0
  9 21  1  0
M  END
