
     RDKit          3D

 21 22  0  0  0  0  0  0  0  0999 V2000
   -2.1063   -0.7801    0.5025 C   0  0  0  0  0  0  0  0  0  0  0  0
   -1.3579    0.2863   -0.2847 C   0  0  0  0  0  0  0  0  0  0  0  0
   -0.7599   -0.2421   -1.5412 C   0  0  0  0  0  0  0  0  0  0  0  0
    0.5915   -0.3587   -1.3914 O   0  0  0  0  0  0  0  0  0  0  0  0
    0.9422   -0.0972   -0.1002 C   0  0  0  0  0  0  0  0  0  0  0  0
    1.8427   -0.9124    0.7075 C   0  0  0  0  0  0  0  0  0  0  0  0
    2.3271    0.4427    0.2189 C   0  0  0  0  0  0  0  0  0  0  0  0
   -0.1658    0.6864    0.5486 C   0  0  0  0  0  0  0  0  0  0  0  0
    0.1490    2.0366    0.4232 O   0  0  0  0  0  0  0  0  0  0  0  0
   -1.4104   -1.4072    1.1095 H   0  0  0  0  0  0  0  0  0  0  0  0
   -2.8148   -0.2254    1.1606 H   0  0  0  0  0  0  0  0  0  0  0  0
   -2.6528   -1.4487   -0.1706 H   0  0  0  0  0  0  0  0  0  0  0  0
   -2.0251    1.1597   -0.4452 H   0  0  0  0  0  0  0  0  0  0  0  0
   -0.9395    0.4706   -2.3972 H   0  0  0  0  0  0  0  0  0  0  0  0
   -1.2231   -1.2316   -1.8105 H   0  0  0  0  0  0  0  0  0  0  0  0
    2.4169   -1.7487    0.3111 H   0  0  0  0  0  0  0  0  0  0  0  0
    1.6105   -0.9826    1.8025 H   0  0  0  0  0  0  0  0  0  0  0  0
    2.9762    0.5147   -0.6541 H   0  0  0  0  0  0  0  0  0  0  0  0
    2.4283    1.2730    0.9432 H   0  0  0  0  0  0  0  0  0  0  0  0
   -0.2554    0.3560    1.5835 H   0  0  0  0  0  0  0  0  0  0  0  0
    0.4264    2.2087   -0.5160 H   0  0  0  0  0  0  0  0  0  0  0  0
  1  2  1  0
  2  3  1  0
  3  4  1  0
  4  5  1  0
  5  6  1  0
  6  7  1  0
  5  8  1  0
  8  9  1  0
  8  2  1  0
  7  5  1  0
  1 10  1  0
  1 11  1  0
  1 12  1  0
  2 13  1  0
  3 14  1  0
  3 15  1  0
  6 16  1  0
  6 17  1  0
  7 18  1  0
  7 19  1  0
  8 20  1  0
  9 21  1  0
M  END
