
     RDKit          3D

 21 23  0  0  0  0  0  0  0  0999 V2000
    2.0862    0.5425   -0.7841 C   0  0  0  0  0  0  0  0  0  0  0  0
    1.1403   -0.2851    0.0080 C   0  0  0  0  0  0  0  0  0  0  0  0
   -0.0868   -0.7170   -0.7549 C   0  0  0  0  0  0  0  0  0  0  0  0
   -0.8451   -1.4262    0.3740 C   0  0  0  0  0  0  0  0  0  0  0  0
   -0.8585   -0.2843    1.3718 C   0  0  0  0  0  0  0  0  0  0  0  0
    0.4612    0.4841    1.1283 C   0  0  0  0  0  0  0  0  0  0  0  0
   -0.8166    0.9853    0.6448 C   0  0  0  0  0  0  0  0  0  0  0  0
   -0.8554    0.5695   -0.8355 C   0  0  0  0  0  0  0  0  0  0  0  0
   -2.1685    0.2437   -1.2140 O   0  0  0  0  0  0  0  0  0  0  0  0
    2.3377    1.5193   -0.2942 H   0  0  0  0  0  0  0  0  0  0  0  0
    1.7150    0.7502   -1.8056 H   0  0  0  0  0  0  0  0  0  0  0  0
    3.0653   -0.0208   -0.8177 H   0  0  0  0  0  0  0  0  0  0  0  0
    1.5848   -1.1954    0.4596 H   0  0  0  0  0  0  0  0  0  0  0  0
    0.0520   -1.2769   -1.6364 H   0  0  0  0  0  0  0  0  0  0  0  0
   -0.2811   -2.2927    0.7509 H   0  0  0  0  0  0  0  0  0  0  0  0
   -1.8515   -1.6963    0.0476 H   0  0  0  0  0  0  0  0  0  0  0  0
   -1.1463   -0.4289    2.3982 H   0  0  0  0  0  0  0  0  0  0  0  0
    1.0101    0.8224    1.9916 H   0  0  0  0  0  0  0  0  0  0  0  0
   -1.3167    1.8929    0.9562 H   0  0  0  0  0  0  0  0  0  0  0  0
   -0.4151    1.3254   -1.4857 H   0  0  0  0  0  0  0  0  0  0  0  0
   -2.8110    0.4882   -0.5029 H   0  0  0  0  0  0  0  0  0  0  0  0
  1  2  1  0
  2  3  1  0
  3  4  1  0
  4  5  1  0
  5  6  1  0
  6  7  1  0
  7  8  1  0
  8  9  1  0
  6  2  1  0
  8  3  1  0
  7  5  1  0
  1 10  1  0
  1 11  1  0
  1 12  1  0
  2 13  1  0
  3 14  1  0
  4 15  1  0
  4 16  1  0
  5 17  1  0
  6 18  1  0
  7 19  1  0
  8 20  1  0
  9 21  1  0
M  END
