
     RDKit          3D

 20 21  0  0  0  0  0  0  0  0999 V2000
    2.1540    1.1033   -0.3355 C   0  0  0  0  0  0  0  0  0  0  0  0
    1.1908    0.2813    0.4557 C   0  0  0  0  0  0  0  0  0  0  0  0
    1.0037   -1.1136   -0.0755 C   0  0  0  0  0  0  0  0  0  0  0  0
   -0.4700   -1.3122   -0.2066 C   0  0  0  0  0  0  0  0  0  0  0  0
   -1.1621   -0.1034    0.3439 C   0  0  0  0  0  0  0  0  0  0  0  0
   -2.5660    0.0949   -0.1238 C   0  0  0  0  0  0  0  0  0  0  0  0
   -0.9136    0.3273    1.6377 O   0  0  0  0  0  0  0  0  0  0  0  0
   -0.1824    0.8863    0.5641 C   0  0  0  0  0  0  0  0  0  0  0  0
    3.1856    0.7559   -0.0716 H   0  0  0  0  0  0  0  0  0  0  0  0
    1.9676    1.0557   -1.4339 H   0  0  0  0  0  0  0  0  0  0  0  0
    2.0676    2.1541   -0.0368 H   0  0  0  0  0  0  0  0  0  0  0  0
    1.6109    0.2011    1.4986 H   0  0  0  0  0  0  0  0  0  0  0  0
    1.5542   -1.1513   -1.0401 H   0  0  0  0  0  0  0  0  0  0  0  0
    1.4132   -1.8994    0.5704 H   0  0  0  0  0  0  0  0  0  0  0  0
   -0.7078   -1.3460   -1.3064 H   0  0  0  0  0  0  0  0  0  0  0  0
   -0.8436   -2.2567    0.2348 H   0  0  0  0  0  0  0  0  0  0  0  0
   -2.7056    0.9382   -0.8189 H   0  0  0  0  0  0  0  0  0  0  0  0
   -2.9893   -0.8470   -0.5778 H   0  0  0  0  0  0  0  0  0  0  0  0
   -3.2578    0.3011    0.7449 H   0  0  0  0  0  0  0  0  0  0  0  0
   -0.3494    1.9304    0.2913 H   0  0  0  0  0  0  0  0  0  0  0  0
  1  2  1  0
  2  3  1  0
  3  4  1  0
  4  5  1  0
  5  6  1  0
  5  7  1  0
  7  8  1  0
  8  2  1  0
  8  5  1  0
  1  9  1  0
  1 10  1  0
  1 11  1  0
  2 12  1  0
  3 13  1  0
  3 14  1  0
  4 15  1  0
  4 16  1  0
  6 17  1  0
  6 18  1  0
  6 19  1  0
  8 20  1  0
M  END
