
     RDKit          3D

 21 22  0  0  0  0  0  0  0  0999 V2000
    2.5227    0.6031    0.5977 C   0  0  0  0  0  0  0  0  0  0  0  0
    1.6128    0.3934   -0.5976 C   0  0  0  0  0  0  0  0  0  0  0  0
    0.7046   -0.7729   -0.6482 C   0  0  0  0  0  0  0  0  0  0  0  0
   -0.0343   -1.1832    0.5948 C   0  0  0  0  0  0  0  0  0  0  0  0
   -0.9312   -2.2235    0.3775 O   0  0  0  0  0  0  0  0  0  0  0  0
   -0.6715    0.1863    0.6178 C   0  0  0  0  0  0  0  0  0  0  0  0
   -2.1404    0.1971    0.2335 C   0  0  0  0  0  0  0  0  0  0  0  0
   -2.5386    1.5493    0.3169 O   0  0  0  0  0  0  0  0  0  0  0  0
    0.1720    0.6706   -0.5207 C   0  0  0  0  0  0  0  0  0  0  0  0
    1.9148    0.5069    1.4965 H   0  0  0  0  0  0  0  0  0  0  0  0
    3.3427   -0.1732    0.5757 H   0  0  0  0  0  0  0  0  0  0  0  0
    2.9719    1.6104    0.5050 H   0  0  0  0  0  0  0  0  0  0  0  0
    2.1060    0.6506   -1.5582 H   0  0  0  0  0  0  0  0  0  0  0  0
    0.4777   -1.3319   -1.5531 H   0  0  0  0  0  0  0  0  0  0  0  0
    0.6290   -1.4099    1.4568 H   0  0  0  0  0  0  0  0  0  0  0  0
   -1.1341   -2.3427   -0.5774 H   0  0  0  0  0  0  0  0  0  0  0  0
   -0.5204    0.7003    1.5935 H   0  0  0  0  0  0  0  0  0  0  0  0
   -2.7542   -0.4134    0.9242 H   0  0  0  0  0  0  0  0  0  0  0  0
   -2.2665   -0.1005   -0.8306 H   0  0  0  0  0  0  0  0  0  0  0  0
   -3.1248    1.7939   -0.4398 H   0  0  0  0  0  0  0  0  0  0  0  0
   -0.3383    1.0894   -1.4318 H   0  0  0  0  0  0  0  0  0  0  0  0
  1  2  1  0
  2  3  1  0
  3  4  1  0
  4  5  1  0
  4  6  1  0
  6  7  1  0
  7  8  1  0
  6  9  1  0
  9  2  1  0
  9  3  1  0
  1 10  1  0
  1 11  1  0
  1 12  1  0
  2 13  1  0
  3 14  1  0
  4 15  1  0
  5 16  1  0
  6 17  1  0
  7 18  1  0
  7 19  1  0
  8 20  1  0
  9 21  1  0
M  END
