
     RDKit          3D

 17 18  0  0  0  0  0  0  0  0999 V2000
    1.8681   -0.2802   -0.6646 C   0  0  0  0  0  0  0  0  0  0  0  0
    0.7222    0.3708    0.0175 C   0  0  0  0  0  0  0  0  0  0  0  0
   -0.0934   -0.5036    0.9366 C   0  0  0  0  0  0  0  0  0  0  0  0
   -0.7779   -1.0038   -0.3264 C   0  0  0  0  0  0  0  0  0  0  0  0
   -0.5821    0.4178   -0.7921 C   0  0  0  0  0  0  0  0  0  0  0  0
   -1.4342    1.1720    0.1630 C   0  0  0  0  0  0  0  0  0  0  0  0
   -2.1993    2.1220   -0.1044 O   0  0  0  0  0  0  0  0  0  0  0  0
   -1.1129    0.4948    1.4223 C   0  0  0  0  0  0  0  0  0  0  0  0
   -1.5511    0.6789    2.5855 O   0  0  0  0  0  0  0  0  0  0  0  0
    2.4760    0.5152   -1.1549 H   0  0  0  0  0  0  0  0  0  0  0  0
    1.5682   -1.0389   -1.4141 H   0  0  0  0  0  0  0  0  0  0  0  0
    2.4896   -0.7853    0.1255 H   0  0  0  0  0  0  0  0  0  0  0  0
    0.9189    1.3512    0.4338 H   0  0  0  0  0  0  0  0  0  0  0  0
    0.3486   -1.1691    1.6068 H   0  0  0  0  0  0  0  0  0  0  0  0
   -1.8406   -1.2232   -0.1541 H   0  0  0  0  0  0  0  0  0  0  0  0
   -0.2548   -1.7820   -0.8761 H   0  0  0  0  0  0  0  0  0  0  0  0
   -0.5454    0.6634   -1.8042 H   0  0  0  0  0  0  0  0  0  0  0  0
  1  2  1  0
  2  3  1  0
  3  4  1  0
  4  5  1  0
  5  6  1  0
  6  7  2  0
  6  8  1  0
  8  9  2  0
  5  2  1  0
  8  3  1  0
  1 10  1  0
  1 11  1  0
  1 12  1  0
  2 13  1  0
  3 14  1  0
  4 15  1  0
  4 16  1  0
  5 17  1  0
M  END
