
     RDKit          3D

 19 20  0  0  0  0  0  0  0  0999 V2000
    2.4791    0.3614   -0.2260 C   0  0  0  0  0  0  0  0  0  0  0  0
    1.0040    0.2472   -0.5745 C   0  0  0  0  0  0  0  0  0  0  0  0
    0.0901    1.0852    0.2141 C   0  0  0  0  0  0  0  0  0  0  0  0
   -1.2752    1.4246   -0.1663 C   0  0  0  0  0  0  0  0  0  0  0  0
   -1.9993    0.3683   -0.4273 C   0  0  0  0  0  0  0  0  0  0  0  0
   -1.2313   -0.8513   -0.2632 C   0  0  0  0  0  0  0  0  0  0  0  0
   -1.8937   -1.8351    0.4693 O   0  0  0  0  0  0  0  0  0  0  0  0
    0.0699   -0.4511    0.3356 C   0  0  0  0  0  0  0  0  0  0  0  0
    0.4881   -0.9638    1.5579 O   0  0  0  0  0  0  0  0  0  0  0  0
    2.8423    1.2816   -0.7308 H   0  0  0  0  0  0  0  0  0  0  0  0
    2.5682    0.5368    0.8711 H   0  0  0  0  0  0  0  0  0  0  0  0
    3.0542   -0.5265   -0.5548 H   0  0  0  0  0  0  0  0  0  0  0  0
    0.8522    0.0885   -1.6696 H   0  0  0  0  0  0  0  0  0  0  0  0
    0.5181    1.6384    1.0860 H   0  0  0  0  0  0  0  0  0  0  0  0
   -1.6603    2.4446   -0.2292 H   0  0  0  0  0  0  0  0  0  0  0  0
   -3.0648    0.3830   -0.7357 H   0  0  0  0  0  0  0  0  0  0  0  0
   -1.0561   -1.3126   -1.2794 H   0  0  0  0  0  0  0  0  0  0  0  0
   -1.4679   -2.7022    0.2380 H   0  0  0  0  0  0  0  0  0  0  0  0
   -0.3176   -1.2172    2.0848 H   0  0  0  0  0  0  0  0  0  0  0  0
  1  2  1  0
  2  3  1  0
  3  4  1  0
  4  5  2  0
  5  6  1  0
  6  7  1  0
  6  8  1  0
  8  9  1  0
  8  2  1  0
  8  3  1  0
  1 10  1  0
  1 11  1  0
  1 12  1  0
  2 13  1  0
  3 14  1  0
  4 15  1  0
  5 16  1  0
  6 17  1  0
  7 18  1  0
  9 19  1  0
M  END
