
     RDKit          3D

 19 19  0  0  0  0  0  0  0  0999 V2000
    2.0757    0.5123    0.3085 C   0  0  0  0  0  0  0  0  0  0  0  0
    1.0777   -0.5929    0.1465 C   0  0  0  0  0  0  0  0  0  0  0  0
    0.4481   -0.6275   -1.2458 C   0  0  0  0  0  0  0  0  0  0  0  0
   -0.3564   -0.2981    0.0201 C   0  0  0  0  0  0  0  0  0  0  0  0
   -1.4078   -1.3155    0.3158 C   0  0  0  0  0  0  0  0  0  0  0  0
   -0.7894    1.1324    0.2253 C   0  0  0  0  0  0  0  0  0  0  0  0
   -2.1769    1.2639    0.0751 O   0  0  0  0  0  0  0  0  0  0  0  0
    1.6991    1.5054    0.0222 H   0  0  0  0  0  0  0  0  0  0  0  0
    2.5658    0.5146    1.3030 H   0  0  0  0  0  0  0  0  0  0  0  0
    2.9117    0.2917   -0.4203 H   0  0  0  0  0  0  0  0  0  0  0  0
    1.3893   -1.5513    0.6058 H   0  0  0  0  0  0  0  0  0  0  0  0
    0.3810   -1.6358   -1.6660 H   0  0  0  0  0  0  0  0  0  0  0  0
    0.5800    0.2317   -1.9097 H   0  0  0  0  0  0  0  0  0  0  0  0
   -2.0256   -1.0865    1.1835 H   0  0  0  0  0  0  0  0  0  0  0  0
   -0.9660   -2.3508    0.3492 H   0  0  0  0  0  0  0  0  0  0  0  0
   -2.0986   -1.3469   -0.5719 H   0  0  0  0  0  0  0  0  0  0  0  0
   -0.2884    1.7685   -0.5614 H   0  0  0  0  0  0  0  0  0  0  0  0
   -0.5529    1.5150    1.2408 H   0  0  0  0  0  0  0  0  0  0  0  0
   -2.4663    2.0700    0.5795 H   0  0  0  0  0  0  0  0  0  0  0  0
  1  2  1  0
  2  3  1  0
  3  4  1  0
  4  5  1  0
  4  6  1  0
  6  7  1  0
  4  2  1  0
  1  8  1  0
  1  9  1  0
  1 10  1  0
  2 11  1  0
  3 12  1  0
  3 13  1  0
  5 14  1  0
  5 15  1  0
  5 16  1  0
  6 17  1  0
  6 18  1  0
  7 19  1  0
M  END
