
     RDKit          3D

 22 22  0  0  0  0  0  0  0  0999 V2000
    2.4950   -0.1243    0.1974 C   0  0  0  0  0  0  0  0  0  0  0  0
    1.0950   -0.4079   -0.3974 C   0  0  0  0  0  0  0  0  0  0  0  0
    0.6308    0.8453   -0.9334 C   0  0  0  0  0  0  0  0  0  0  0  0
   -0.4890    1.4954   -0.9355 C   0  0  0  0  0  0  0  0  0  0  0  0
   -1.7570    1.0909   -0.3174 C   0  0  0  0  0  0  0  0  0  0  0  0
   -1.8936   -0.3746   -0.0428 C   0  0  0  0  0  0  0  0  0  0  0  0
   -0.9378   -0.6557    1.1015 C   0  0  0  0  0  0  0  0  0  0  0  0
    0.3451   -1.1938    0.5508 C   0  0  0  0  0  0  0  0  0  0  0  0
    2.8892   -1.0598    0.6127 H   0  0  0  0  0  0  0  0  0  0  0  0
    3.1300    0.3276   -0.5711 H   0  0  0  0  0  0  0  0  0  0  0  0
    2.2992    0.6531    0.9800 H   0  0  0  0  0  0  0  0  0  0  0  0
    1.3573   -1.0669   -1.2872 H   0  0  0  0  0  0  0  0  0  0  0  0
    1.4338    1.3839   -1.4799 H   0  0  0  0  0  0  0  0  0  0  0  0
   -0.5628    2.4648   -1.4397 H   0  0  0  0  0  0  0  0  0  0  0  0
   -2.5902    1.3802   -0.9976 H   0  0  0  0  0  0  0  0  0  0  0  0
   -1.8473    1.6310    0.6664 H   0  0  0  0  0  0  0  0  0  0  0  0
   -1.5754   -0.9166   -0.9716 H   0  0  0  0  0  0  0  0  0  0  0  0
   -2.9417   -0.5824    0.2197 H   0  0  0  0  0  0  0  0  0  0  0  0
   -0.7407    0.2361    1.7060 H   0  0  0  0  0  0  0  0  0  0  0  0
   -1.3859   -1.4429    1.7431 H   0  0  0  0  0  0  0  0  0  0  0  0
    0.9670   -1.4673    1.4570 H   0  0  0  0  0  0  0  0  0  0  0  0
    0.0790   -2.2159    0.1391 H   0  0  0  0  0  0  0  0  0  0  0  0
  1  2  1  0
  2  3  1  0
  3  4  2  0
  4  5  1  0
  5  6  1  0
  6  7  1  0
  7  8  1  0
  8  2  1  0
  1  9  1  0
  1 10  1  0
  1 11  1  0
  2 12  1  0
  3 13  1  0
  4 14  1  0
  5 15  1  0
  5 16  1  0
  6 17  1  0
  6 18  1  0
  7 19  1  0
  7 20  1  0
  8 21  1  0
  8 22  1  0
M  END
