
     RDKit          3D

 19 21  0  0  0  0  0  0  0  0999 V2000
    2.1432    0.9770   -0.4654 C   0  0  0  0  0  0  0  0  0  0  0  0
    1.7230   -0.2814    0.2289 C   0  0  0  0  0  0  0  0  0  0  0  0
    0.7908   -1.2465   -0.3957 C   0  0  0  0  0  0  0  0  0  0  0  0
   -0.2873   -0.8669   -1.1450 O   0  0  0  0  0  0  0  0  0  0  0  0
   -0.8305   -0.2349   -0.0955 C   0  0  0  0  0  0  0  0  0  0  0  0
   -1.5848    1.0193   -0.2699 C   0  0  0  0  0  0  0  0  0  0  0  0
   -2.7454    0.2267   -0.4602 O   0  0  0  0  0  0  0  0  0  0  0  0
   -2.1411   -0.6657    0.4564 C   0  0  0  0  0  0  0  0  0  0  0  0
    0.3484   -0.3098    0.7663 C   0  0  0  0  0  0  0  0  0  0  0  0
    3.0700    1.3873   -0.0132 H   0  0  0  0  0  0  0  0  0  0  0  0
    1.3462    1.7731   -0.4459 H   0  0  0  0  0  0  0  0  0  0  0  0
    2.3861    0.8204   -1.5475 H   0  0  0  0  0  0  0  0  0  0  0  0
    2.5278   -0.7563    0.8431 H   0  0  0  0  0  0  0  0  0  0  0  0
    0.8662   -2.3210   -0.1602 H   0  0  0  0  0  0  0  0  0  0  0  0
   -1.6674    1.6369    0.6394 H   0  0  0  0  0  0  0  0  0  0  0  0
   -1.4274    1.6039   -1.1969 H   0  0  0  0  0  0  0  0  0  0  0  0
   -2.2874   -0.2051    1.4794 H   0  0  0  0  0  0  0  0  0  0  0  0
   -2.4394   -1.7041    0.3604 H   0  0  0  0  0  0  0  0  0  0  0  0
    0.2091   -0.8530    1.7366 H   0  0  0  0  0  0  0  0  0  0  0  0
  1  2  1  0
  2  3  1  0
  3  4  1  0
  4  5  1  0
  5  6  1  0
  6  7  1  0
  7  8  1  0
  5  9  1  0
  9  2  1  0
  9  3  1  0
  8  5  1  0
  1 10  1  0
  1 11  1  0
  1 12  1  0
  2 13  1  0
  3 14  1  0
  6 15  1  0
  6 16  1  0
  8 17  1  0
  8 18  1  0
  9 19  1  0
M  END
