
     RDKit          3D

 17 17  0  0  0  0  0  0  0  0999 V2000
   -2.1267    0.2692    0.0299 C   0  0  0  0  0  0  0  0  0  0  0  0
   -0.7006    0.1658    0.5679 C   0  0  0  0  0  0  0  0  0  0  0  0
   -0.1059   -1.1736    0.3111 C   0  0  0  0  0  0  0  0  0  0  0  0
    1.3553   -1.2221    0.2357 C   0  0  0  0  0  0  0  0  0  0  0  0
    2.1421   -0.1938    0.0500 C   0  0  0  0  0  0  0  0  0  0  0  0
    1.5571    1.1296   -0.0990 C   0  0  0  0  0  0  0  0  0  0  0  0
    2.2610    2.1673   -0.2816 O   0  0  0  0  0  0  0  0  0  0  0  0
    0.1112    1.2697   -0.0367 C   0  0  0  0  0  0  0  0  0  0  0  0
   -0.4947    2.2866   -0.4720 O   0  0  0  0  0  0  0  0  0  0  0  0
   -2.5966   -0.7427    0.0317 H   0  0  0  0  0  0  0  0  0  0  0  0
   -2.0420    0.6853   -0.9851 H   0  0  0  0  0  0  0  0  0  0  0  0
   -2.7264    0.9887    0.6383 H   0  0  0  0  0  0  0  0  0  0  0  0
   -0.7554    0.3235    1.6675 H   0  0  0  0  0  0  0  0  0  0  0  0
   -0.4120   -1.9222    1.1012 H   0  0  0  0  0  0  0  0  0  0  0  0
   -0.5334   -1.5459   -0.6551 H   0  0  0  0  0  0  0  0  0  0  0  0
    1.8394   -2.2081    0.3444 H   0  0  0  0  0  0  0  0  0  0  0  0
    3.2278   -0.2772    0.0004 H   0  0  0  0  0  0  0  0  0  0  0  0
  1  2  1  0
  2  3  1  0
  3  4  1  0
  4  5  2  0
  5  6  1  0
  6  7  2  0
  6  8  1  0
  8  9  2  0
  8  2  1  0
  1 10  1  0
  1 11  1  0
  1 12  1  0
  2 13  1  0
  3 14  1  0
  3 15  1  0
  4 16  1  0
  5 17  1  0
M  END
