
     RDKit          3D

 23 23  0  0  0  0  0  0  0  0999 V2000
    1.5615    1.3810    0.0785 C   0  0  0  0  0  0  0  0  0  0  0  0
    0.7700    0.2618   -0.5460 C   0  0  0  0  0  0  0  0  0  0  0  0
    1.4534   -1.0698   -0.3604 C   0  0  0  0  0  0  0  0  0  0  0  0
    0.4225   -1.9565    0.2521 C   0  0  0  0  0  0  0  0  0  0  0  0
    0.3388   -3.1554    0.1976 O   0  0  0  0  0  0  0  0  0  0  0  0
   -0.5069   -1.0362    0.9632 C   0  0  0  0  0  0  0  0  0  0  0  0
   -0.6069    0.1137   -0.0037 C   0  0  0  0  0  0  0  0  0  0  0  0
   -1.1383    1.2999    0.7179 C   0  0  0  0  0  0  0  0  0  0  0  0
   -1.5667   -0.3120   -1.1103 C   0  0  0  0  0  0  0  0  0  0  0  0
    1.2240    2.3501   -0.3402 H   0  0  0  0  0  0  0  0  0  0  0  0
    2.6168    1.2566   -0.2661 H   0  0  0  0  0  0  0  0  0  0  0  0
    1.5319    1.3902    1.1667 H   0  0  0  0  0  0  0  0  0  0  0  0
    0.7074    0.4538   -1.6412 H   0  0  0  0  0  0  0  0  0  0  0  0
    1.7808   -1.5172   -1.3014 H   0  0  0  0  0  0  0  0  0  0  0  0
    2.2833   -0.9485    0.3739 H   0  0  0  0  0  0  0  0  0  0  0  0
    0.0013   -0.6763    1.8639 H   0  0  0  0  0  0  0  0  0  0  0  0
   -1.5064   -1.4481    1.1148 H   0  0  0  0  0  0  0  0  0  0  0  0
   -0.5850    2.2260    0.5942 H   0  0  0  0  0  0  0  0  0  0  0  0
   -1.2059    1.1151    1.8304 H   0  0  0  0  0  0  0  0  0  0  0  0
   -2.2106    1.4976    0.4219 H   0  0  0  0  0  0  0  0  0  0  0  0
   -2.5954   -0.1891   -0.6782 H   0  0  0  0  0  0  0  0  0  0  0  0
   -1.3474   -1.3748   -1.3236 H   0  0  0  0  0  0  0  0  0  0  0  0
   -1.4224    0.3382   -2.0039 H   0  0  0  0  0  0  0  0  0  0  0  0
  1  2  1  0
  2  3  1  0
  3  4  1  0
  4  5  2  0
  4  6  1  0
  6  7  1  0
  7  8  1  0
  7  9  1  0
  7  2  1  0
  1 10  1  0
  1 11  1  0
  1 12  1  0
  2 13  1  0
  3 14  1  0
  3 15  1  0
  6 16  1  0
  6 17  1  0
  8 18  1  0
  8 19  1  0
  8 20  1  0
  9 21  1  0
  9 22  1  0
  9 23  1  0
M  END
