
     RDKit          3D

 22 22  0  0  0  0  0  0  0  0999 V2000
    2.0033    0.0249   -0.4809 C   0  0  0  0  0  0  0  0  0  0  0  0
    1.0376   -0.2482    0.6436 C   0  0  0  0  0  0  0  0  0  0  0  0
    0.1731    0.9408    0.9602 C   0  0  0  0  0  0  0  0  0  0  0  0
   -0.7422    1.3435   -0.1372 C   0  0  0  0  0  0  0  0  0  0  0  0
   -2.0148    0.5812   -0.2223 C   0  0  0  0  0  0  0  0  0  0  0  0
   -1.9034   -0.7738   -0.0961 O   0  0  0  0  0  0  0  0  0  0  0  0
   -0.7608   -1.3154   -0.6442 C   0  0  0  0  0  0  0  0  0  0  0  0
    0.2621   -1.5135    0.4451 C   0  0  0  0  0  0  0  0  0  0  0  0
    1.6087   -0.1878   -1.4749 H   0  0  0  0  0  0  0  0  0  0  0  0
    2.3074    1.0949   -0.4536 H   0  0  0  0  0  0  0  0  0  0  0  0
    2.9592   -0.5490   -0.3378 H   0  0  0  0  0  0  0  0  0  0  0  0
    1.6836   -0.4106    1.5570 H   0  0  0  0  0  0  0  0  0  0  0  0
   -0.3238    0.8018    1.9291 H   0  0  0  0  0  0  0  0  0  0  0  0
    0.8920    1.8004    1.1136 H   0  0  0  0  0  0  0  0  0  0  0  0
   -1.0133    2.4264    0.0340 H   0  0  0  0  0  0  0  0  0  0  0  0
   -0.2186    1.3118   -1.1019 H   0  0  0  0  0  0  0  0  0  0  0  0
   -2.7804    0.9470    0.5122 H   0  0  0  0  0  0  0  0  0  0  0  0
   -2.4749    0.8119   -1.2280 H   0  0  0  0  0  0  0  0  0  0  0  0
   -0.9958   -2.3402   -1.0415 H   0  0  0  0  0  0  0  0  0  0  0  0
   -0.3913   -0.6945   -1.4777 H   0  0  0  0  0  0  0  0  0  0  0  0
    0.9744   -2.2991    0.1304 H   0  0  0  0  0  0  0  0  0  0  0  0
   -0.2820   -1.7527    1.3710 H   0  0  0  0  0  0  0  0  0  0  0  0
  1  2  1  0
  2  3  1  0
  3  4  1  0
  4  5  1  0
  5  6  1  0
  6  7  1  0
  7  8  1  0
  8  2  1  0
  1  9  1  0
  1 10  1  0
  1 11  1  0
  2 12  1  0
  3 13  1  0
  3 14  1  0
  4 15  1  0
  4 16  1  0
  5 17  1  0
  5 18  1  0
  7 19  1  0
  7 20  1  0
  8 21  1  0
  8 22  1  0
M  END
