
     RDKit          3D

 21 22  0  0  0  0  0  0  0  0999 V2000
   -2.5192    0.0565    0.3419 C   0  0  0  0  0  0  0  0  0  0  0  0
   -1.3736    0.7127   -0.3453 C   0  0  0  0  0  0  0  0  0  0  0  0
   -0.2595    1.2135    0.5838 C   0  0  0  0  0  0  0  0  0  0  0  0
    0.7156    0.7204   -0.4494 C   0  0  0  0  0  0  0  0  0  0  0  0
    1.8103   -0.1637    0.0165 C   0  0  0  0  0  0  0  0  0  0  0  0
    2.3350    0.1400    1.2463 O   0  0  0  0  0  0  0  0  0  0  0  0
    1.2247   -1.5409   -0.0854 C   0  0  0  0  0  0  0  0  0  0  0  0
   -0.1628   -1.3301    0.0259 O   0  0  0  0  0  0  0  0  0  0  0  0
   -0.3614   -0.2894   -0.8624 C   0  0  0  0  0  0  0  0  0  0  0  0
   -2.6398   -0.9897   -0.0358 H   0  0  0  0  0  0  0  0  0  0  0  0
   -3.4824    0.5644    0.0855 H   0  0  0  0  0  0  0  0  0  0  0  0
   -2.3744   -0.0233    1.4412 H   0  0  0  0  0  0  0  0  0  0  0  0
   -1.7037    1.4479   -1.0946 H   0  0  0  0  0  0  0  0  0  0  0  0
   -0.2991    0.6685    1.5311 H   0  0  0  0  0  0  0  0  0  0  0  0
   -0.3659    2.3227    0.6551 H   0  0  0  0  0  0  0  0  0  0  0  0
    0.9586    1.4698   -1.2072 H   0  0  0  0  0  0  0  0  0  0  0  0
    2.6525   -0.0876   -0.7264 H   0  0  0  0  0  0  0  0  0  0  0  0
    3.2699   -0.2157    1.2896 H   0  0  0  0  0  0  0  0  0  0  0  0
    1.3711   -1.8989   -1.1432 H   0  0  0  0  0  0  0  0  0  0  0  0
    1.6044   -2.2538    0.6537 H   0  0  0  0  0  0  0  0  0  0  0  0
   -0.4002   -0.5235   -1.9209 H   0  0  0  0  0  0  0  0  0  0  0  0
  1  2  1  0
  2  3  1  0
  3  4  1  0
  4  5  1  0
  5  6  1  0
  5  7  1  0
  7  8  1  0
  8  9  1  0
  9  2  1  0
  9  4  1  0
  1 10  1  0
  1 11  1  0
  1 12  1  0
  2 13  1  0
  3 14  1  0
  3 15  1  0
  4 16  1  0
  5 17  1  0
  6 18  1  0
  7 19  1  0
  7 20  1  0
  9 21  1  0
M  END
