
     RDKit          3D

 23 24  0  0  0  0  0  0  0  0999 V2000
    0.9301   -1.3434   -1.2808 C   0  0  0  0  0  0  0  0  0  0  0  0
    0.6650   -0.5934   -0.0114 C   0  0  0  0  0  0  0  0  0  0  0  0
   -0.7154   -0.0541    0.1560 C   0  0  0  0  0  0  0  0  0  0  0  0
   -1.3845   -0.5785    1.4097 C   0  0  0  0  0  0  0  0  0  0  0  0
   -1.6380   -0.2034   -1.0198 C   0  0  0  0  0  0  0  0  0  0  0  0
   -0.1578    1.3310    0.2839 C   0  0  0  0  0  0  0  0  0  0  0  0
    0.9214    1.5427    1.3171 C   0  0  0  0  0  0  0  0  0  0  0  0
    1.1967    0.8138    0.0529 C   0  0  0  0  0  0  0  0  0  0  0  0
    2.0471    1.2989   -0.9023 O   0  0  0  0  0  0  0  0  0  0  0  0
    0.0804   -1.2223   -1.9795 H   0  0  0  0  0  0  0  0  0  0  0  0
    1.8925   -0.9865   -1.7021 H   0  0  0  0  0  0  0  0  0  0  0  0
    1.0648   -2.4392   -1.0795 H   0  0  0  0  0  0  0  0  0  0  0  0
    1.0296   -1.1963    0.8688 H   0  0  0  0  0  0  0  0  0  0  0  0
   -0.6392   -0.9588    2.1333 H   0  0  0  0  0  0  0  0  0  0  0  0
   -1.9941    0.1995    1.9085 H   0  0  0  0  0  0  0  0  0  0  0  0
   -2.0654   -1.4081    1.1367 H   0  0  0  0  0  0  0  0  0  0  0  0
   -2.6087    0.2903   -0.7254 H   0  0  0  0  0  0  0  0  0  0  0  0
   -1.3042    0.3104   -1.9268 H   0  0  0  0  0  0  0  0  0  0  0  0
   -1.8759   -1.2590   -1.2423 H   0  0  0  0  0  0  0  0  0  0  0  0
   -0.5941    2.1800   -0.2341 H   0  0  0  0  0  0  0  0  0  0  0  0
    1.3170    2.5557    1.4541 H   0  0  0  0  0  0  0  0  0  0  0  0
    0.9267    0.9094    2.2333 H   0  0  0  0  0  0  0  0  0  0  0  0
    2.9058    0.8113   -0.8505 H   0  0  0  0  0  0  0  0  0  0  0  0
  1  2  1  0
  2  3  1  0
  3  4  1  0
  3  5  1  0
  3  6  1  0
  6  7  1  0
  7  8  1  0
  8  9  1  0
  8  2  1  0
  8  6  1  0
  1 10  1  0
  1 11  1  0
  1 12  1  0
  2 13  1  0
  4 14  1  0
  4 15  1  0
  4 16  1  0
  5 17  1  0
  5 18  1  0
  5 19  1  0
  6 20  1  0
  7 21  1  0
  7 22  1  0
  9 23  1  0
M  END
