
     RDKit          3D

 25 26  0  0  0  0  0  0  0  0999 V2000
   -2.4400    0.4064   -0.2098 C   0  0  0  0  0  0  0  0  0  0  0  0
   -1.2810   -0.2843    0.4077 C   0  0  0  0  0  0  0  0  0  0  0  0
   -0.9593   -1.5514   -0.3060 C   0  0  0  0  0  0  0  0  0  0  0  0
    0.5186   -1.5309   -0.5975 C   0  0  0  0  0  0  0  0  0  0  0  0
    1.1234   -0.3776    0.0993 C   0  0  0  0  0  0  0  0  0  0  0  0
    2.3457    0.2163   -0.5773 C   0  0  0  0  0  0  0  0  0  0  0  0
    0.9502   -0.0619    1.5116 C   0  0  0  0  0  0  0  0  0  0  0  0
   -0.0210    0.4814    0.4835 C   0  0  0  0  0  0  0  0  0  0  0  0
    0.0856    1.9090    0.0591 C   0  0  0  0  0  0  0  0  0  0  0  0
   -2.3561    0.3052   -1.3197 H   0  0  0  0  0  0  0  0  0  0  0  0
   -3.3653   -0.1740    0.0845 H   0  0  0  0  0  0  0  0  0  0  0  0
   -2.6140    1.4311    0.1277 H   0  0  0  0  0  0  0  0  0  0  0  0
   -1.5781   -0.5644    1.4602 H   0  0  0  0  0  0  0  0  0  0  0  0
   -1.2014   -2.4530    0.2877 H   0  0  0  0  0  0  0  0  0  0  0  0
   -1.5743   -1.6120   -1.2269 H   0  0  0  0  0  0  0  0  0  0  0  0
    0.6127   -1.3502   -1.7091 H   0  0  0  0  0  0  0  0  0  0  0  0
    1.0151   -2.4948   -0.4175 H   0  0  0  0  0  0  0  0  0  0  0  0
    2.7201    1.1161   -0.0348 H   0  0  0  0  0  0  0  0  0  0  0  0
    2.1882    0.4253   -1.6353 H   0  0  0  0  0  0  0  0  0  0  0  0
    3.1553   -0.5522   -0.4720 H   0  0  0  0  0  0  0  0  0  0  0  0
    1.5909    0.7028    1.9565 H   0  0  0  0  0  0  0  0  0  0  0  0
    0.6487   -0.8749    2.1836 H   0  0  0  0  0  0  0  0  0  0  0  0
    0.8010    2.0048   -0.8100 H   0  0  0  0  0  0  0  0  0  0  0  0
   -0.8447    2.3698   -0.2585 H   0  0  0  0  0  0  0  0  0  0  0  0
    0.4796    2.5132    0.9129 H   0  0  0  0  0  0  0  0  0  0  0  0
  1  2  1  0
  2  3  1  0
  3  4  1  0
  4  5  1  0
  5  6  1  0
  5  7  1  0
  7  8  1  0
  8  9  1  0
  8  2  1  0
  8  5  1  0
  1 10  1  0
  1 11  1  0
  1 12  1  0
  2 13  1  0
  3 14  1  0
  3 15  1  0
  4 16  1  0
  4 17  1  0
  6 18  1  0
  6 19  1  0
  6 20  1  0
  7 21  1  0
  7 22  1  0
  9 23  1  0
  9 24  1  0
  9 25  1  0
M  END
