
     RDKit          3D

 19 20  0  0  0  0  0  0  0  0999 V2000
   -0.6287    1.8417    0.1171 C   0  0  0  0  0  0  0  0  0  0  0  0
   -0.2888    0.5132   -0.5205 C   0  0  0  0  0  0  0  0  0  0  0  0
    0.8436   -0.2045    0.1380 C   0  0  0  0  0  0  0  0  0  0  0  0
    2.1706    0.1840    0.1764 C   0  0  0  0  0  0  0  0  0  0  0  0
    0.2943   -1.4798   -0.4191 C   0  0  0  0  0  0  0  0  0  0  0  0
   -0.8426   -0.6955    0.1670 C   0  0  0  0  0  0  0  0  0  0  0  0
   -2.1401   -1.0821    0.2558 C   0  0  0  0  0  0  0  0  0  0  0  0
   -2.8359   -1.3340   -0.7179 O   0  0  0  0  0  0  0  0  0  0  0  0
    0.0003   -0.3958    1.2244 O   0  0  0  0  0  0  0  0  0  0  0  0
   -0.0380    2.6315   -0.3609 H   0  0  0  0  0  0  0  0  0  0  0  0
   -0.4394    1.7280    1.2053 H   0  0  0  0  0  0  0  0  0  0  0  0
   -1.6931    2.0602   -0.0885 H   0  0  0  0  0  0  0  0  0  0  0  0
   -0.3606    0.4682   -1.6054 H   0  0  0  0  0  0  0  0  0  0  0  0
    2.4420    0.7472    1.1156 H   0  0  0  0  0  0  0  0  0  0  0  0
    2.8861   -0.6838    0.1698 H   0  0  0  0  0  0  0  0  0  0  0  0
    2.4774    0.8187   -0.6854 H   0  0  0  0  0  0  0  0  0  0  0  0
    0.3582   -1.5132   -1.5200 H   0  0  0  0  0  0  0  0  0  0  0  0
    0.4760   -2.4008    0.1326 H   0  0  0  0  0  0  0  0  0  0  0  0
   -2.6811   -1.2030    1.2159 H   0  0  0  0  0  0  0  0  0  0  0  0
  1  2  1  0
  2  3  1  0
  3  4  1  0
  3  5  1  0
  5  6  1  0
  6  7  1  0
  7  8  2  0
  6  9  1  0
  6  2  1  0
  9  3  1  0
  1 10  1  0
  1 11  1  0
  1 12  1  0
  2 13  1  0
  4 14  1  0
  4 15  1  0
  4 16  1  0
  5 17  1  0
  5 18  1  0
  7 19  1  0
M  END
