
     RDKit          3D

 25 26  0  0  0  0  0  0  0  0999 V2000
    2.4969    0.0683    0.3259 C   0  0  0  0  0  0  0  0  0  0  0  0
    1.1559   -0.1656   -0.3821 C   0  0  0  0  0  0  0  0  0  0  0  0
    0.5197   -1.4242    0.0692 C   0  0  0  0  0  0  0  0  0  0  0  0
   -0.6731   -1.2776    0.9378 C   0  0  0  0  0  0  0  0  0  0  0  0
   -1.5049   -0.0575    0.6612 C   0  0  0  0  0  0  0  0  0  0  0  0
   -1.8507    0.1168   -0.7871 C   0  0  0  0  0  0  0  0  0  0  0  0
   -0.7533    0.9184   -1.4291 C   0  0  0  0  0  0  0  0  0  0  0  0
    0.3003    1.0500   -0.3221 C   0  0  0  0  0  0  0  0  0  0  0  0
   -0.5699    1.1368    0.8996 C   0  0  0  0  0  0  0  0  0  0  0  0
    3.1018   -0.8529    0.1140 H   0  0  0  0  0  0  0  0  0  0  0  0
    2.3775    0.2431    1.3948 H   0  0  0  0  0  0  0  0  0  0  0  0
    2.9466    0.9727   -0.1331 H   0  0  0  0  0  0  0  0  0  0  0  0
    1.4415   -0.3063   -1.4676 H   0  0  0  0  0  0  0  0  0  0  0  0
    0.2297   -2.0868   -0.7976 H   0  0  0  0  0  0  0  0  0  0  0  0
    1.2739   -2.0467    0.6352 H   0  0  0  0  0  0  0  0  0  0  0  0
   -0.3143   -1.1765    2.0042 H   0  0  0  0  0  0  0  0  0  0  0  0
   -1.3098   -2.1776    0.8856 H   0  0  0  0  0  0  0  0  0  0  0  0
   -2.3653   -0.0484    1.3243 H   0  0  0  0  0  0  0  0  0  0  0  0
   -2.0376   -0.8489   -1.2804 H   0  0  0  0  0  0  0  0  0  0  0  0
   -2.7798    0.7466   -0.8474 H   0  0  0  0  0  0  0  0  0  0  0  0
   -0.3284    0.2944   -2.2678 H   0  0  0  0  0  0  0  0  0  0  0  0
   -1.0599    1.9165   -1.7624 H   0  0  0  0  0  0  0  0  0  0  0  0
    0.9249    1.9374   -0.4476 H   0  0  0  0  0  0  0  0  0  0  0  0
   -0.0382    1.0286    1.8453 H   0  0  0  0  0  0  0  0  0  0  0  0
   -1.1836    2.0394    0.8272 H   0  0  0  0  0  0  0  0  0  0  0  0
  1  2  1  0
  2  3  1  0
  3  4  1  0
  4  5  1  0
  5  6  1  0
  6  7  1  0
  7  8  1  0
  8  9  1  0
  8  2  1  0
  9  5  1  0
  1 10  1  0
  1 11  1  0
  1 12  1  0
  2 13  1  0
  3 14  1  0
  3 15  1  0
  4 16  1  0
  4 17  1  0
  5 18  1  0
  6 19  1  0
  6 20  1  0
  7 21  1  0
  7 22  1  0
  8 23  1  0
  9 24  1  0
  9 25  1  0
M  END
