
     RDKit          3D

 21 23  0  0  0  0  0  0  0  0999 V2000
    2.6021   -0.0344   -0.0611 C   0  0  0  0  0  0  0  0  0  0  0  0
    1.4027   -0.1476   -0.9860 C   0  0  0  0  0  0  0  0  0  0  0  0
    0.4521    1.0240   -0.7074 C   0  0  0  0  0  0  0  0  0  0  0  0
   -0.2666    0.5074    0.5070 C   0  0  0  0  0  0  0  0  0  0  0  0
   -1.7451    0.4612    0.4595 C   0  0  0  0  0  0  0  0  0  0  0  0
   -2.4203   -0.0057   -0.7613 C   0  0  0  0  0  0  0  0  0  0  0  0
   -1.6932   -1.0260    0.0018 C   0  0  0  0  0  0  0  0  0  0  0  0
   -0.2393   -0.9874    0.2821 C   0  0  0  0  0  0  0  0  0  0  0  0
    0.6345   -1.2523   -0.7329 O   0  0  0  0  0  0  0  0  0  0  0  0
    3.2858   -0.8716   -0.3036 H   0  0  0  0  0  0  0  0  0  0  0  0
    3.0817    0.9450   -0.2239 H   0  0  0  0  0  0  0  0  0  0  0  0
    2.2337   -0.1217    0.9869 H   0  0  0  0  0  0  0  0  0  0  0  0
    1.7346   -0.1644   -2.0348 H   0  0  0  0  0  0  0  0  0  0  0  0
   -0.1683    1.1387   -1.5930 H   0  0  0  0  0  0  0  0  0  0  0  0
    0.9950    1.9601   -0.5376 H   0  0  0  0  0  0  0  0  0  0  0  0
    0.2102    0.8564    1.4213 H   0  0  0  0  0  0  0  0  0  0  0  0
   -2.2816    0.6046    1.4214 H   0  0  0  0  0  0  0  0  0  0  0  0
   -2.0660    0.4026   -1.7295 H   0  0  0  0  0  0  0  0  0  0  0  0
   -3.5276   -0.0516   -0.7054 H   0  0  0  0  0  0  0  0  0  0  0  0
   -2.2722   -1.7467    0.6123 H   0  0  0  0  0  0  0  0  0  0  0  0
    0.0478   -1.4905    1.2473 H   0  0  0  0  0  0  0  0  0  0  0  0
  1  2  1  0
  2  3  1  0
  3  4  1  0
  4  5  1  0
  5  6  1  0
  6  7  1  0
  7  8  1  0
  8  9  1  0
  9  2  1  0
  8  4  1  0
  7  5  1  0
  1 10  1  0
  1 11  1  0
  1 12  1  0
  2 13  1  0
  3 14  1  0
  3 15  1  0
  4 16  1  0
  5 17  1  0
  6 18  1  0
  6 19  1  0
  7 20  1  0
  8 21  1  0
M  END
