
     RDKit          3D

 14 14  0  0  0  0  0  0  0  0999 V2000
   -1.6431   -0.2297   -0.2114 C   0  0  0  0  0  0  0  0  0  0  0  0
   -0.4214    0.4486    0.2748 C   0  0  0  0  0  0  0  0  0  0  0  0
    0.6306   -0.4035    0.9385 C   0  0  0  0  0  0  0  0  0  0  0  0
    1.4932   -0.1654   -0.3048 C   0  0  0  0  0  0  0  0  0  0  0  0
    0.5324    0.8335   -0.8009 C   0  0  0  0  0  0  0  0  0  0  0  0
    0.5460    1.6318   -1.7194 O   0  0  0  0  0  0  0  0  0  0  0  0
   -2.5578    0.4059   -0.0289 H   0  0  0  0  0  0  0  0  0  0  0  0
   -1.8549   -1.1949    0.2660 H   0  0  0  0  0  0  0  0  0  0  0  0
   -1.6371   -0.3989   -1.3263 H   0  0  0  0  0  0  0  0  0  0  0  0
   -0.6706    1.3231    0.9179 H   0  0  0  0  0  0  0  0  0  0  0  0
    0.3815   -1.4393    1.1401 H   0  0  0  0  0  0  0  0  0  0  0  0
    1.1226    0.0990    1.8063 H   0  0  0  0  0  0  0  0  0  0  0  0
    1.5647   -1.1100   -0.8730 H   0  0  0  0  0  0  0  0  0  0  0  0
    2.5139    0.1999   -0.0789 H   0  0  0  0  0  0  0  0  0  0  0  0
  1  2  1  0
  2  3  1  0
  3  4  1  0
  4  5  1  0
  5  6  2  0
  5  2  1  0
  1  7  1  0
  1  8  1  0
  1  9  1  0
  2 10  1  0
  3 11  1  0
  3 12  1  0
  4 13  1  0
  4 14  1  0
M  END
