
     RDKit          3D

 25 25  0  0  0  0  0  0  0  0999 V2000
   -0.0043    1.7721    0.8097 C   0  0  0  0  0  0  0  0  0  0  0  0
   -0.1119    0.7397   -0.2285 C   0  0  0  0  0  0  0  0  0  0  0  0
   -1.0381   -0.3892   -0.0934 C   0  0  0  0  0  0  0  0  0  0  0  0
   -2.1337   -0.4114   -1.1674 C   0  0  0  0  0  0  0  0  0  0  0  0
   -1.5569   -0.7971    1.2235 C   0  0  0  0  0  0  0  0  0  0  0  0
    0.0095   -1.2569   -0.4871 O   0  0  0  0  0  0  0  0  0  0  0  0
    0.9827   -0.2980   -0.2936 C   0  0  0  0  0  0  0  0  0  0  0  0
    1.8265   -0.4302    0.9359 C   0  0  0  0  0  0  0  0  0  0  0  0
    1.8672   -0.2135   -1.5244 C   0  0  0  0  0  0  0  0  0  0  0  0
   -0.2352    2.8025    0.4059 H   0  0  0  0  0  0  0  0  0  0  0  0
    1.0602    1.8711    1.1766 H   0  0  0  0  0  0  0  0  0  0  0  0
   -0.6187    1.6564    1.7008 H   0  0  0  0  0  0  0  0  0  0  0  0
   -0.1997    1.2104   -1.2532 H   0  0  0  0  0  0  0  0  0  0  0  0
   -1.7416   -0.7065   -2.1428 H   0  0  0  0  0  0  0  0  0  0  0  0
   -2.5245    0.6346   -1.2278 H   0  0  0  0  0  0  0  0  0  0  0  0
   -2.9717   -1.0561   -0.8138 H   0  0  0  0  0  0  0  0  0  0  0  0
   -1.7678   -0.0115    1.9423 H   0  0  0  0  0  0  0  0  0  0  0  0
   -0.8911   -1.5403    1.7500 H   0  0  0  0  0  0  0  0  0  0  0  0
   -2.5242   -1.3654    1.0854 H   0  0  0  0  0  0  0  0  0  0  0  0
    2.4465   -1.3562    0.8068 H   0  0  0  0  0  0  0  0  0  0  0  0
    1.2725   -0.5088    1.8721 H   0  0  0  0  0  0  0  0  0  0  0  0
    2.5497    0.4082    0.9389 H   0  0  0  0  0  0  0  0  0  0  0  0
    2.4759    0.7072   -1.5317 H   0  0  0  0  0  0  0  0  0  0  0  0
    2.5603   -1.0959   -1.4541 H   0  0  0  0  0  0  0  0  0  0  0  0
    1.2681   -0.3652   -2.4300 H   0  0  0  0  0  0  0  0  0  0  0  0
  1  2  1  0
  2  3  1  0
  3  4  1  0
  3  5  1  0
  3  6  1  0
  6  7  1  0
  7  8  1  0
  7  9  1  0
  7  2  1  0
  1 10  1  0
  1 11  1  0
  1 12  1  0
  2 13  1  0
  4 14  1  0
  4 15  1  0
  4 16  1  0
  5 17  1  0
  5 18  1  0
  5 19  1  0
  8 20  1  0
  8 21  1  0
  8 22  1  0
  9 23  1  0
  9 24  1  0
  9 25  1  0
M  END
