
     RDKit          3D

 17 17  0  0  0  0  0  0  0  0999 V2000
   -2.7590   -0.3095    0.1626 C   0  0  0  0  0  0  0  0  0  0  0  0
   -1.2855   -0.3625   -0.0622 C   0  0  0  0  0  0  0  0  0  0  0  0
   -0.7299    1.0251   -0.2827 C   0  0  0  0  0  0  0  0  0  0  0  0
    0.2833    0.5579    0.7637 C   0  0  0  0  0  0  0  0  0  0  0  0
    1.5520    0.1148    0.1773 C   0  0  0  0  0  0  0  0  0  0  0  0
    2.5873   -0.2576   -0.3229 C   0  0  0  0  0  0  0  0  0  0  0  0
    3.8152   -0.7150   -0.9409 C   0  0  0  0  0  0  0  0  0  0  0  0
    4.6716   -1.2936   -0.2159 O   0  0  0  0  0  0  0  0  0  0  0  0
   -0.4970   -0.5540    1.0664 O   0  0  0  0  0  0  0  0  0  0  0  0
   -3.2653   -1.2665   -0.1053 H   0  0  0  0  0  0  0  0  0  0  0  0
   -3.2703    0.4722   -0.4584 H   0  0  0  0  0  0  0  0  0  0  0  0
   -2.9772   -0.0356    1.2140 H   0  0  0  0  0  0  0  0  0  0  0  0
   -1.0044   -1.1047   -0.8365 H   0  0  0  0  0  0  0  0  0  0  0  0
   -1.3479    1.8594    0.0677 H   0  0  0  0  0  0  0  0  0  0  0  0
   -0.2106    1.1624   -1.2529 H   0  0  0  0  0  0  0  0  0  0  0  0
    0.4096    1.2905    1.5920 H   0  0  0  0  0  0  0  0  0  0  0  0
    4.0282   -0.5832   -1.9888 H   0  0  0  0  0  0  0  0  0  0  0  0
  1  2  1  0
  2  3  1  0
  3  4  1  0
  4  5  1  0
  5  6  3  0
  6  7  1  0
  7  8  2  0
  4  9  1  0
  9  2  1  0
  1 10  1  0
  1 11  1  0
  1 12  1  0
  2 13  1  0
  3 14  1  0
  3 15  1  0
  4 16  1  0
  7 17  1  0
M  END
