
     RDKit          3D

 19 21  0  0  0  0  0  0  0  0999 V2000
   -1.8183    1.0153    0.5164 C   0  0  0  0  0  0  0  0  0  0  0  0
   -0.9996    0.1034   -0.3340 C   0  0  0  0  0  0  0  0  0  0  0  0
   -0.9098   -1.3001    0.1579 C   0  0  0  0  0  0  0  0  0  0  0  0
    0.2522   -1.3869    0.8782 O   0  0  0  0  0  0  0  0  0  0  0  0
    1.2208   -0.6346    0.3108 C   0  0  0  0  0  0  0  0  0  0  0  0
    1.8601    0.4254    1.2202 C   0  0  0  0  0  0  0  0  0  0  0  0
    0.9057    1.3065    0.7027 O   0  0  0  0  0  0  0  0  0  0  0  0
    0.4446    0.5461   -0.3514 C   0  0  0  0  0  0  0  0  0  0  0  0
    1.3552   -0.3435   -1.1183 C   0  0  0  0  0  0  0  0  0  0  0  0
   -2.7957    1.2526    0.0471 H   0  0  0  0  0  0  0  0  0  0  0  0
   -1.2948    1.9991    0.6699 H   0  0  0  0  0  0  0  0  0  0  0  0
   -2.0103    0.5072    1.4829 H   0  0  0  0  0  0  0  0  0  0  0  0
   -1.4040    0.0580   -1.3878 H   0  0  0  0  0  0  0  0  0  0  0  0
   -1.8110   -1.5164    0.7570 H   0  0  0  0  0  0  0  0  0  0  0  0
   -0.8715   -2.0639   -0.6454 H   0  0  0  0  0  0  0  0  0  0  0  0
    2.8684    0.7073    0.8479 H   0  0  0  0  0  0  0  0  0  0  0  0
    1.7679    0.1715    2.2743 H   0  0  0  0  0  0  0  0  0  0  0  0
    2.3242    0.1301   -1.4238 H   0  0  0  0  0  0  0  0  0  0  0  0
    0.9158   -0.9773   -1.8801 H   0  0  0  0  0  0  0  0  0  0  0  0
  1  2  1  0
  2  3  1  0
  3  4  1  0
  4  5  1  0
  5  6  1  0
  6  7  1  0
  7  8  1  0
  8  9  1  0
  8  2  1  0
  8  5  1  0
  9  5  1  0
  1 10  1  0
  1 11  1  0
  1 12  1  0
  2 13  1  0
  3 14  1  0
  3 15  1  0
  6 16  1  0
  6 17  1  0
  9 18  1  0
  9 19  1  0
M  END
