
     RDKit          3D

 23 23  0  0  0  0  0  0  0  0999 V2000
   -2.6447   -0.5626    0.5292 C   0  0  0  0  0  0  0  0  0  0  0  0
   -1.2527   -0.4176   -0.0913 C   0  0  0  0  0  0  0  0  0  0  0  0
   -1.0501    1.0335   -0.4259 C   0  0  0  0  0  0  0  0  0  0  0  0
    0.1796    1.2931   -1.2296 C   0  0  0  0  0  0  0  0  0  0  0  0
    1.3425    1.3527   -0.4685 O   0  0  0  0  0  0  0  0  0  0  0  0
    1.5961    0.0440   -0.0288 C   0  0  0  0  0  0  0  0  0  0  0  0
    3.0735   -0.1688    0.2520 C   0  0  0  0  0  0  0  0  0  0  0  0
    0.8310   -0.1565    1.0998 O   0  0  0  0  0  0  0  0  0  0  0  0
   -0.2702   -0.9577    0.8904 C   0  0  0  0  0  0  0  0  0  0  0  0
   -2.7338   -1.6454    0.7985 H   0  0  0  0  0  0  0  0  0  0  0  0
   -3.4372   -0.2210   -0.1467 H   0  0  0  0  0  0  0  0  0  0  0  0
   -2.6268   -0.0112    1.4936 H   0  0  0  0  0  0  0  0  0  0  0  0
   -1.2794   -0.9954   -1.0314 H   0  0  0  0  0  0  0  0  0  0  0  0
   -1.0318    1.6649    0.4712 H   0  0  0  0  0  0  0  0  0  0  0  0
   -1.9292    1.3366   -1.0598 H   0  0  0  0  0  0  0  0  0  0  0  0
    0.3627    0.5158   -2.0138 H   0  0  0  0  0  0  0  0  0  0  0  0
    0.0657    2.2847   -1.7370 H   0  0  0  0  0  0  0  0  0  0  0  0
    1.2714   -0.6967   -0.7875 H   0  0  0  0  0  0  0  0  0  0  0  0
    3.1660   -1.1428    0.7590 H   0  0  0  0  0  0  0  0  0  0  0  0
    3.6425   -0.0795   -0.6763 H   0  0  0  0  0  0  0  0  0  0  0  0
    3.3759    0.6432    0.9604 H   0  0  0  0  0  0  0  0  0  0  0  0
    0.0779   -1.9684    0.5457 H   0  0  0  0  0  0  0  0  0  0  0  0
   -0.7291   -1.1452    1.8969 H   0  0  0  0  0  0  0  0  0  0  0  0
  1  2  1  0
  2  3  1  0
  3  4  1  0
  4  5  1  0
  5  6  1  0
  6  7  1  0
  6  8  1  0
  8  9  1  0
  9  2  1  0
  1 10  1  0
  1 11  1  0
  1 12  1  0
  2 13  1  0
  3 14  1  0
  3 15  1  0
  4 16  1  0
  4 17  1  0
  6 18  1  0
  7 19  1  0
  7 20  1  0
  7 21  1  0
  9 22  1  0
  9 23  1  0
M  END
