
     RDKit          3D

 23 24  0  0  0  0  0  0  0  0999 V2000
    2.2817   -0.3997    0.2167 C   0  0  0  0  0  0  0  0  0  0  0  0
    0.8964   -0.7222   -0.2032 C   0  0  0  0  0  0  0  0  0  0  0  0
    0.1286   -1.4079    0.8770 C   0  0  0  0  0  0  0  0  0  0  0  0
   -1.2435   -1.5110    0.6299 O   0  0  0  0  0  0  0  0  0  0  0  0
   -1.7004   -0.2596    0.4110 C   0  0  0  0  0  0  0  0  0  0  0  0
   -2.4698    0.3582   -0.5984 C   0  0  0  0  0  0  0  0  0  0  0  0
   -1.1837    0.0117   -1.0507 C   0  0  0  0  0  0  0  0  0  0  0  0
    0.1714    0.5059   -0.7816 C   0  0  0  0  0  0  0  0  0  0  0  0
    0.2741    1.6077    0.2222 C   0  0  0  0  0  0  0  0  0  0  0  0
    2.3442    0.3553    1.0152 H   0  0  0  0  0  0  0  0  0  0  0  0
    2.8198   -1.3243    0.4335 H   0  0  0  0  0  0  0  0  0  0  0  0
    2.8044    0.0614   -0.6704 H   0  0  0  0  0  0  0  0  0  0  0  0
    0.9598   -1.4357   -1.0677 H   0  0  0  0  0  0  0  0  0  0  0  0
    0.2049   -0.8400    1.8515 H   0  0  0  0  0  0  0  0  0  0  0  0
    0.6026   -2.3854    1.0527 H   0  0  0  0  0  0  0  0  0  0  0  0
   -1.3118    0.4320    1.2169 H   0  0  0  0  0  0  0  0  0  0  0  0
   -3.3632   -0.1967   -1.0026 H   0  0  0  0  0  0  0  0  0  0  0  0
   -2.7428    1.4381   -0.5025 H   0  0  0  0  0  0  0  0  0  0  0  0
   -1.1271   -0.8988   -1.7256 H   0  0  0  0  0  0  0  0  0  0  0  0
    0.7409    0.7559   -1.7091 H   0  0  0  0  0  0  0  0  0  0  0  0
    1.0469    2.3502   -0.1317 H   0  0  0  0  0  0  0  0  0  0  0  0
    0.5409    1.2874    1.2334 H   0  0  0  0  0  0  0  0  0  0  0  0
   -0.6743    2.2174    0.2834 H   0  0  0  0  0  0  0  0  0  0  0  0
  1  2  1  0
  2  3  1  0
  3  4  1  0
  4  5  1  0
  5  6  1  0
  6  7  1  0
  7  8  1  0
  8  9  1  0
  8  2  1  0
  7  5  1  0
  1 10  1  0
  1 11  1  0
  1 12  1  0
  2 13  1  0
  3 14  1  0
  3 15  1  0
  5 16  1  0
  6 17  1  0
  6 18  1  0
  7 19  1  0
  8 20  1  0
  9 21  1  0
  9 22  1  0
  9 23  1  0
M  END
