
     RDKit          3D

 21 22  0  0  0  0  0  0  0  0999 V2000
   -2.0803    0.3856    0.0986 C   0  0  0  0  0  0  0  0  0  0  0  0
   -0.7720   -0.2367   -0.3051 C   0  0  0  0  0  0  0  0  0  0  0  0
   -0.5614   -1.4900    0.4683 C   0  0  0  0  0  0  0  0  0  0  0  0
    0.6617   -1.5641    1.1173 O   0  0  0  0  0  0  0  0  0  0  0  0
    1.6533   -1.3810    0.1266 C   0  0  0  0  0  0  0  0  0  0  0  0
    1.7112    0.1105   -0.1261 C   0  0  0  0  0  0  0  0  0  0  0  0
    0.3595    0.7348   -0.2248 C   0  0  0  0  0  0  0  0  0  0  0  0
    0.1873    2.1329    0.0882 C   0  0  0  0  0  0  0  0  0  0  0  0
    0.2206    1.7360   -1.2940 O   0  0  0  0  0  0  0  0  0  0  0  0
   -2.1855    0.4774    1.2005 H   0  0  0  0  0  0  0  0  0  0  0  0
   -2.8846   -0.3281   -0.2431 H   0  0  0  0  0  0  0  0  0  0  0  0
   -2.2969    1.3351   -0.4293 H   0  0  0  0  0  0  0  0  0  0  0  0
   -0.8892   -0.5326   -1.3887 H   0  0  0  0  0  0  0  0  0  0  0  0
   -1.3529   -1.6117    1.2554 H   0  0  0  0  0  0  0  0  0  0  0  0
   -0.6546   -2.4229   -0.1583 H   0  0  0  0  0  0  0  0  0  0  0  0
    2.6269   -1.7291    0.4927 H   0  0  0  0  0  0  0  0  0  0  0  0
    1.3287   -1.8616   -0.8208 H   0  0  0  0  0  0  0  0  0  0  0  0
    2.3717    0.3625   -0.9831 H   0  0  0  0  0  0  0  0  0  0  0  0
    2.2103    0.5524    0.7835 H   0  0  0  0  0  0  0  0  0  0  0  0
    1.0907    2.7258    0.3387 H   0  0  0  0  0  0  0  0  0  0  0  0
   -0.7446    2.6050    0.4406 H   0  0  0  0  0  0  0  0  0  0  0  0
  1  2  1  0
  2  3  1  0
  3  4  1  0
  4  5  1  0
  5  6  1  0
  6  7  1  0
  7  8  1  0
  8  9  1  0
  7  2  1  0
  9  7  1  0
  1 10  1  0
  1 11  1  0
  1 12  1  0
  2 13  1  0
  3 14  1  0
  3 15  1  0
  5 16  1  0
  5 17  1  0
  6 18  1  0
  6 19  1  0
  8 20  1  0
  8 21  1  0
M  END
