
     RDKit          3D

 21 23  0  0  0  0  0  0  0  0999 V2000
   -2.4101    1.4236   -0.2112 C   0  0  0  0  0  0  0  0  0  0  0  0
   -1.8832    0.1733    0.5051 C   0  0  0  0  0  0  0  0  0  0  0  0
   -1.6160   -1.0536   -0.3984 C   0  0  0  0  0  0  0  0  0  0  0  0
   -0.5441   -0.2327    0.1134 C   0  0  0  0  0  0  0  0  0  0  0  0
    0.5316   -0.6596    1.0285 C   0  0  0  0  0  0  0  0  0  0  0  0
    1.3635   -0.0270   -0.0233 C   0  0  0  0  0  0  0  0  0  0  0  0
    2.4828   -0.6674   -0.6976 C   0  0  0  0  0  0  0  0  0  0  0  0
    2.6664    0.5581    0.1547 C   0  0  0  0  0  0  0  0  0  0  0  0
    0.2973    0.5439   -0.6663 O   0  0  0  0  0  0  0  0  0  0  0  0
   -2.2118    1.2869   -1.2912 H   0  0  0  0  0  0  0  0  0  0  0  0
   -1.7428    2.2553    0.1448 H   0  0  0  0  0  0  0  0  0  0  0  0
   -3.4604    1.5902    0.0205 H   0  0  0  0  0  0  0  0  0  0  0  0
   -2.2888   -0.0699    1.5004 H   0  0  0  0  0  0  0  0  0  0  0  0
   -1.8571   -2.0480    0.0553 H   0  0  0  0  0  0  0  0  0  0  0  0
   -1.9807   -0.9874   -1.4455 H   0  0  0  0  0  0  0  0  0  0  0  0
    0.6702   -1.7363    1.2173 H   0  0  0  0  0  0  0  0  0  0  0  0
    0.5336   -0.0215    1.9578 H   0  0  0  0  0  0  0  0  0  0  0  0
    2.7970   -1.6571   -0.3479 H   0  0  0  0  0  0  0  0  0  0  0  0
    2.5099   -0.5714   -1.8141 H   0  0  0  0  0  0  0  0  0  0  0  0
    3.2492    0.3724    1.0772 H   0  0  0  0  0  0  0  0  0  0  0  0
    2.8936    1.5282   -0.3206 H   0  0  0  0  0  0  0  0  0  0  0  0
  1  2  1  0
  2  3  1  0
  3  4  1  0
  4  5  1  0
  5  6  1  0
  6  7  1  0
  7  8  1  0
  6  9  1  0
  4  2  1  0
  8  6  1  0
  9  4  1  0
  1 10  1  0
  1 11  1  0
  1 12  1  0
  2 13  1  0
  3 14  1  0
  3 15  1  0
  5 16  1  0
  5 17  1  0
  7 18  1  0
  7 19  1  0
  8 20  1  0
  8 21  1  0
M  END
