
     RDKit          3D

 21 21  0  0  0  0  0  0  0  0999 V2000
    2.0268   -0.4500    0.1609 C   0  0  0  0  0  0  0  0  0  0  0  0
    0.7996    0.0071   -0.5562 C   0  0  0  0  0  0  0  0  0  0  0  0
   -0.0212   -1.1039   -1.1702 C   0  0  0  0  0  0  0  0  0  0  0  0
   -1.2580   -0.3588   -0.6503 C   0  0  0  0  0  0  0  0  0  0  0  0
   -2.0672   -1.2421    0.0235 O   0  0  0  0  0  0  0  0  0  0  0  0
   -0.3490    0.4823    0.2573 C   0  0  0  0  0  0  0  0  0  0  0  0
   -0.6310    1.9627    0.1089 C   0  0  0  0  0  0  0  0  0  0  0  0
   -0.4753    0.0358    1.6371 C   0  0  0  0  0  0  0  0  0  0  0  0
    0.1300   -0.8814    2.1652 O   0  0  0  0  0  0  0  0  0  0  0  0
    2.9284   -0.2626   -0.4710 H   0  0  0  0  0  0  0  0  0  0  0  0
    1.9918   -1.5663    0.2946 H   0  0  0  0  0  0  0  0  0  0  0  0
    2.2034    0.0538    1.1192 H   0  0  0  0  0  0  0  0  0  0  0  0
    1.0553    0.7500   -1.3431 H   0  0  0  0  0  0  0  0  0  0  0  0
    0.0332   -1.1659   -2.2749 H   0  0  0  0  0  0  0  0  0  0  0  0
    0.1667   -2.0662   -0.6776 H   0  0  0  0  0  0  0  0  0  0  0  0
   -1.7801    0.2353   -1.4303 H   0  0  0  0  0  0  0  0  0  0  0  0
   -1.5404   -2.0304    0.3620 H   0  0  0  0  0  0  0  0  0  0  0  0
    0.2386    2.4329   -0.4108 H   0  0  0  0  0  0  0  0  0  0  0  0
   -1.5489    2.1271   -0.4991 H   0  0  0  0  0  0  0  0  0  0  0  0
   -0.7266    2.4792    1.0766 H   0  0  0  0  0  0  0  0  0  0  0  0
   -1.1763    0.5615    2.2782 H   0  0  0  0  0  0  0  0  0  0  0  0
  1  2  1  0
  2  3  1  0
  3  4  1  0
  4  5  1  0
  4  6  1  0
  6  7  1  0
  6  8  1  0
  8  9  2  0
  6  2  1  0
  1 10  1  0
  1 11  1  0
  1 12  1  0
  2 13  1  0
  3 14  1  0
  3 15  1  0
  4 16  1  0
  5 17  1  0
  7 18  1  0
  7 19  1  0
  7 20  1  0
  8 21  1  0
M  END
