
     RDKit          3D

 23 24  0  0  0  0  0  0  0  0999 V2000
    2.7373    0.0794    0.2295 C   0  0  0  0  0  0  0  0  0  0  0  0
    1.3339    0.2765   -0.2476 C   0  0  0  0  0  0  0  0  0  0  0  0
    0.7344   -0.8513   -1.0457 C   0  0  0  0  0  0  0  0  0  0  0  0
   -0.3150   -1.0637   -0.0054 C   0  0  0  0  0  0  0  0  0  0  0  0
   -1.7103   -0.6804   -0.3540 C   0  0  0  0  0  0  0  0  0  0  0  0
   -2.0528   -0.8809   -1.6693 O   0  0  0  0  0  0  0  0  0  0  0  0
   -1.9244    0.7440    0.0643 C   0  0  0  0  0  0  0  0  0  0  0  0
   -0.7052    1.1821    0.8127 C   0  0  0  0  0  0  0  0  0  0  0  0
    0.2801    0.0535    0.7986 C   0  0  0  0  0  0  0  0  0  0  0  0
    3.3088   -0.6711   -0.3328 H   0  0  0  0  0  0  0  0  0  0  0  0
    3.3033    1.0525    0.1856 H   0  0  0  0  0  0  0  0  0  0  0  0
    2.7522   -0.1989    1.3186 H   0  0  0  0  0  0  0  0  0  0  0  0
    1.2424    1.2251   -0.8320 H   0  0  0  0  0  0  0  0  0  0  0  0
    0.3704   -0.5886   -2.0589 H   0  0  0  0  0  0  0  0  0  0  0  0
    1.4859   -1.6786   -1.1534 H   0  0  0  0  0  0  0  0  0  0  0  0
   -0.2004   -2.0729    0.4517 H   0  0  0  0  0  0  0  0  0  0  0  0
   -2.3977   -1.3159    0.2765 H   0  0  0  0  0  0  0  0  0  0  0  0
   -2.6850   -0.1476   -1.9325 H   0  0  0  0  0  0  0  0  0  0  0  0
   -2.1507    1.3681   -0.8262 H   0  0  0  0  0  0  0  0  0  0  0  0
   -2.7938    0.8540    0.7439 H   0  0  0  0  0  0  0  0  0  0  0  0
   -0.9458    1.5315    1.8489 H   0  0  0  0  0  0  0  0  0  0  0  0
   -0.3002    2.0818    0.2788 H   0  0  0  0  0  0  0  0  0  0  0  0
    0.6327   -0.2987    1.7798 H   0  0  0  0  0  0  0  0  0  0  0  0
  1  2  1  0
  2  3  1  0
  3  4  1  0
  4  5  1  0
  5  6  1  0
  5  7  1  0
  7  8  1  0
  8  9  1  0
  9  2  1  0
  9  4  1  0
  1 10  1  0
  1 11  1  0
  1 12  1  0
  2 13  1  0
  3 14  1  0
  3 15  1  0
  4 16  1  0
  5 17  1  0
  6 18  1  0
  7 19  1  0
  7 20  1  0
  8 21  1  0
  8 22  1  0
  9 23  1  0
M  END
