
     RDKit          3D

 23 23  0  0  0  0  0  0  0  0999 V2000
   -2.2974   -1.5612   -0.6879 C   0  0  0  0  0  0  0  0  0  0  0  0
   -1.6518   -0.1773   -0.6660 C   0  0  0  0  0  0  0  0  0  0  0  0
   -1.1097    0.2339    0.6546 C   0  0  0  0  0  0  0  0  0  0  0  0
   -1.2442    1.6527    1.1456 C   0  0  0  0  0  0  0  0  0  0  0  0
   -0.2169   -0.0003   -0.5834 C   0  0  0  0  0  0  0  0  0  0  0  0
    0.7172   -0.9682   -0.4056 O   0  0  0  0  0  0  0  0  0  0  0  0
    1.9937   -0.6756   -0.7613 C   0  0  0  0  0  0  0  0  0  0  0  0
    2.5360    0.5067    0.0186 C   0  0  0  0  0  0  0  0  0  0  0  0
    2.5203    0.2230    1.3781 O   0  0  0  0  0  0  0  0  0  0  0  0
   -3.3064   -1.4038   -0.2497 H   0  0  0  0  0  0  0  0  0  0  0  0
   -1.7716   -2.2540    0.0122 H   0  0  0  0  0  0  0  0  0  0  0  0
   -2.3816   -1.9612   -1.7032 H   0  0  0  0  0  0  0  0  0  0  0  0
   -2.2466    0.5540   -1.2717 H   0  0  0  0  0  0  0  0  0  0  0  0
   -1.0667   -0.5215    1.4639 H   0  0  0  0  0  0  0  0  0  0  0  0
   -2.0893    2.1866    0.6770 H   0  0  0  0  0  0  0  0  0  0  0  0
   -1.4198    1.6901    2.2417 H   0  0  0  0  0  0  0  0  0  0  0  0
   -0.2683    2.2009    0.9937 H   0  0  0  0  0  0  0  0  0  0  0  0
    0.1932    0.9573   -1.0176 H   0  0  0  0  0  0  0  0  0  0  0  0
    2.1596   -0.5224   -1.8446 H   0  0  0  0  0  0  0  0  0  0  0  0
    2.6387   -1.5472   -0.4734 H   0  0  0  0  0  0  0  0  0  0  0  0
    3.5826    0.6759   -0.3509 H   0  0  0  0  0  0  0  0  0  0  0  0
    1.9821    1.4260   -0.1579 H   0  0  0  0  0  0  0  0  0  0  0  0
    2.7469   -0.7144    1.5881 H   0  0  0  0  0  0  0  0  0  0  0  0
  1  2  1  0
  2  3  1  0
  3  4  1  0
  3  5  1  0
  5  6  1  0
  6  7  1  0
  7  8  1  0
  8  9  1  0
  5  2  1  0
  1 10  1  0
  1 11  1  0
  1 12  1  0
  2 13  1  0
  3 14  1  0
  4 15  1  0
  4 16  1  0
  4 17  1  0
  5 18  1  0
  7 19  1  0
  7 20  1  0
  8 21  1  0
  8 22  1  0
  9 23  1  0
M  END
