
     RDKit          3D

 25 26  0  0  0  0  0  0  0  0999 V2000
    2.5007    0.5631    0.5249 C   0  0  0  0  0  0  0  0  0  0  0  0
    1.1470   -0.0671    0.6146 C   0  0  0  0  0  0  0  0  0  0  0  0
    1.0212   -1.3391   -0.1705 C   0  0  0  0  0  0  0  0  0  0  0  0
   -0.4828   -1.5974   -0.0730 C   0  0  0  0  0  0  0  0  0  0  0  0
   -1.1044   -0.2515    0.0933 C   0  0  0  0  0  0  0  0  0  0  0  0
   -2.4457    0.0991   -0.3384 C   0  0  0  0  0  0  0  0  0  0  0  0
   -2.1314    0.0291    1.1255 C   0  0  0  0  0  0  0  0  0  0  0  0
    0.0439    0.7658    0.0459 C   0  0  0  0  0  0  0  0  0  0  0  0
    0.2863    1.2326   -1.3569 C   0  0  0  0  0  0  0  0  0  0  0  0
    2.4968    1.4609    1.1764 H   0  0  0  0  0  0  0  0  0  0  0  0
    3.2202   -0.1472    1.0012 H   0  0  0  0  0  0  0  0  0  0  0  0
    2.8626    0.7546   -0.4812 H   0  0  0  0  0  0  0  0  0  0  0  0
    0.9244   -0.2423    1.6835 H   0  0  0  0  0  0  0  0  0  0  0  0
    1.2134   -1.0989   -1.2355 H   0  0  0  0  0  0  0  0  0  0  0  0
    1.6119   -2.1705    0.2113 H   0  0  0  0  0  0  0  0  0  0  0  0
   -0.8644   -2.1232   -0.9519 H   0  0  0  0  0  0  0  0  0  0  0  0
   -0.6201   -2.2066    0.8497 H   0  0  0  0  0  0  0  0  0  0  0  0
   -2.7155    1.0747   -0.7930 H   0  0  0  0  0  0  0  0  0  0  0  0
   -3.0871   -0.7332   -0.7256 H   0  0  0  0  0  0  0  0  0  0  0  0
   -2.1035    1.0173    1.6591 H   0  0  0  0  0  0  0  0  0  0  0  0
   -2.5095   -0.7939    1.7487 H   0  0  0  0  0  0  0  0  0  0  0  0
   -0.1971    1.6603    0.6591 H   0  0  0  0  0  0  0  0  0  0  0  0
    1.3158    1.4837   -1.5932 H   0  0  0  0  0  0  0  0  0  0  0  0
   -0.0516    0.4775   -2.1177 H   0  0  0  0  0  0  0  0  0  0  0  0
   -0.3309    2.1522   -1.5562 H   0  0  0  0  0  0  0  0  0  0  0  0
  1  2  1  0
  2  3  1  0
  3  4  1  0
  4  5  1  0
  5  6  1  0
  6  7  1  0
  5  8  1  0
  8  9  1  0
  8  2  1  0
  7  5  1  0
  1 10  1  0
  1 11  1  0
  1 12  1  0
  2 13  1  0
  3 14  1  0
  3 15  1  0
  4 16  1  0
  4 17  1  0
  6 18  1  0
  6 19  1  0
  7 20  1  0
  7 21  1  0
  8 22  1  0
  9 23  1  0
  9 24  1  0
  9 25  1  0
M  END
