
     RDKit          3D

 21 22  0  0  0  0  0  0  0  0999 V2000
    2.7627   -0.1254    0.0905 C   0  0  0  0  0  0  0  0  0  0  0  0
    1.4785    0.1311   -0.6526 C   0  0  0  0  0  0  0  0  0  0  0  0
    0.7359    1.2028    0.0802 C   0  0  0  0  0  0  0  0  0  0  0  0
   -0.5362    0.9454    0.1379 C   0  0  0  0  0  0  0  0  0  0  0  0
   -1.8640    1.3878    0.6054 C   0  0  0  0  0  0  0  0  0  0  0  0
   -2.6534    0.3286    0.6879 C   0  0  0  0  0  0  0  0  0  0  0  0
   -1.9009   -0.9024    0.2781 C   0  0  0  0  0  0  0  0  0  0  0  0
   -0.7947   -0.3255   -0.5550 C   0  0  0  0  0  0  0  0  0  0  0  0
    0.5037   -1.0481   -0.4893 C   0  0  0  0  0  0  0  0  0  0  0  0
    3.2120   -1.1071   -0.1576 H   0  0  0  0  0  0  0  0  0  0  0  0
    2.5199   -0.0765    1.1771 H   0  0  0  0  0  0  0  0  0  0  0  0
    3.4532    0.6866   -0.1394 H   0  0  0  0  0  0  0  0  0  0  0  0
    1.6050    0.4208   -1.6936 H   0  0  0  0  0  0  0  0  0  0  0  0
    1.2339    2.0762    0.4997 H   0  0  0  0  0  0  0  0  0  0  0  0
   -2.1229    2.4232    0.8372 H   0  0  0  0  0  0  0  0  0  0  0  0
   -3.7000    0.3633    1.0099 H   0  0  0  0  0  0  0  0  0  0  0  0
   -1.5608   -1.3880    1.1980 H   0  0  0  0  0  0  0  0  0  0  0  0
   -2.5876   -1.5152   -0.3270 H   0  0  0  0  0  0  0  0  0  0  0  0
   -1.1492   -0.1928   -1.5949 H   0  0  0  0  0  0  0  0  0  0  0  0
    0.6760   -1.6721   -1.4154 H   0  0  0  0  0  0  0  0  0  0  0  0
    0.6887   -1.6127    0.4226 H   0  0  0  0  0  0  0  0  0  0  0  0
  1  2  1  0
  2  3  1  0
  3  4  2  0
  4  5  1  0
  5  6  2  0
  6  7  1  0
  7  8  1  0
  8  9  1  0
  9  2  1  0
  8  4  1  0
  1 10  1  0
  1 11  1  0
  1 12  1  0
  2 13  1  0
  3 14  1  0
  5 15  1  0
  6 16  1  0
  7 17  1  0
  7 18  1  0
  8 19  1  0
  9 20  1  0
  9 21  1  0
M  END
