
     RDKit          3D

 25 26  0  0  0  0  0  0  0  0999 V2000
   -2.1966   -0.9657    0.2854 C   0  0  0  0  0  0  0  0  0  0  0  0
   -0.8077   -0.3725    0.5154 C   0  0  0  0  0  0  0  0  0  0  0  0
    0.1982   -1.4513    0.4955 C   0  0  0  0  0  0  0  0  0  0  0  0
    1.3714   -1.2595   -0.3770 C   0  0  0  0  0  0  0  0  0  0  0  0
    2.5846   -0.5968    0.3234 C   0  0  0  0  0  0  0  0  0  0  0  0
    1.7557    0.0739   -0.7667 C   0  0  0  0  0  0  0  0  0  0  0  0
    0.8684    1.1999   -0.3758 C   0  0  0  0  0  0  0  0  0  0  0  0
   -0.5875    0.7307   -0.4657 C   0  0  0  0  0  0  0  0  0  0  0  0
   -1.4183    1.9466   -0.1090 C   0  0  0  0  0  0  0  0  0  0  0  0
   -2.2732   -1.2944   -0.7623 H   0  0  0  0  0  0  0  0  0  0  0  0
   -2.2653   -1.8640    0.9635 H   0  0  0  0  0  0  0  0  0  0  0  0
   -2.9793   -0.2291    0.5493 H   0  0  0  0  0  0  0  0  0  0  0  0
   -0.8702    0.1074    1.5355 H   0  0  0  0  0  0  0  0  0  0  0  0
   -0.2786   -2.4401    0.2272 H   0  0  0  0  0  0  0  0  0  0  0  0
    0.5747   -1.6233    1.5479 H   0  0  0  0  0  0  0  0  0  0  0  0
    1.6819   -2.1011   -1.0623 H   0  0  0  0  0  0  0  0  0  0  0  0
    2.4157   -0.1848    1.3353 H   0  0  0  0  0  0  0  0  0  0  0  0
    3.5847   -0.8941    0.0026 H   0  0  0  0  0  0  0  0  0  0  0  0
    2.2435    0.2143   -1.7741 H   0  0  0  0  0  0  0  0  0  0  0  0
    0.9279    2.0777   -1.0724 H   0  0  0  0  0  0  0  0  0  0  0  0
    1.0451    1.5991    0.6323 H   0  0  0  0  0  0  0  0  0  0  0  0
   -0.8489    0.4146   -1.4792 H   0  0  0  0  0  0  0  0  0  0  0  0
   -1.0016    2.7867   -0.7384 H   0  0  0  0  0  0  0  0  0  0  0  0
   -1.2535    2.2721    0.9383 H   0  0  0  0  0  0  0  0  0  0  0  0
   -2.4710    1.8538   -0.3689 H   0  0  0  0  0  0  0  0  0  0  0  0
  1  2  1  0
  2  3  1  0
  3  4  1  0
  4  5  1  0
  5  6  1  0
  6  7  1  0
  7  8  1  0
  8  9  1  0
  8  2  1  0
  6  4  1  0
  1 10  1  0
  1 11  1  0
  1 12  1  0
  2 13  1  0
  3 14  1  0
  3 15  1  0
  4 16  1  0
  5 17  1  0
  5 18  1  0
  6 19  1  0
  7 20  1  0
  7 21  1  0
  8 22  1  0
  9 23  1  0
  9 24  1  0
  9 25  1  0
M  END
