
     RDKit          3D

 20 20  0  0  0  0  0  0  0  0999 V2000
    2.4996   -0.4094   -0.1627 C   0  0  0  0  0  0  0  0  0  0  0  0
    1.0501   -0.2642   -0.5431 C   0  0  0  0  0  0  0  0  0  0  0  0
    0.5752    1.0776   -0.0364 C   0  0  0  0  0  0  0  0  0  0  0  0
   -0.6464    1.4544   -0.5533 O   0  0  0  0  0  0  0  0  0  0  0  0
   -1.7275    1.0703    0.2123 C   0  0  0  0  0  0  0  0  0  0  0  0
   -1.6116   -0.3297    0.7583 C   0  0  0  0  0  0  0  0  0  0  0  0
   -1.0161   -1.2623   -0.2872 C   0  0  0  0  0  0  0  0  0  0  0  0
    0.3505   -1.3272   -0.0234 O   0  0  0  0  0  0  0  0  0  0  0  0
    2.8119    0.3227    0.6209 H   0  0  0  0  0  0  0  0  0  0  0  0
    3.1333   -0.3172   -1.0822 H   0  0  0  0  0  0  0  0  0  0  0  0
    2.6943   -1.4147    0.2927 H   0  0  0  0  0  0  0  0  0  0  0  0
    0.9483   -0.2413   -1.6480 H   0  0  0  0  0  0  0  0  0  0  0  0
    0.6381    1.1677    1.0680 H   0  0  0  0  0  0  0  0  0  0  0  0
    1.3263    1.8260   -0.4268 H   0  0  0  0  0  0  0  0  0  0  0  0
   -1.9647    1.7637    1.0396 H   0  0  0  0  0  0  0  0  0  0  0  0
   -2.6176    1.0647   -0.4737 H   0  0  0  0  0  0  0  0  0  0  0  0
   -1.0829   -0.3847    1.7214 H   0  0  0  0  0  0  0  0  0  0  0  0
   -2.6514   -0.6889    0.9548 H   0  0  0  0  0  0  0  0  0  0  0  0
   -1.2429   -0.8446   -1.2853 H   0  0  0  0  0  0  0  0  0  0  0  0
   -1.4663   -2.2628   -0.1457 H   0  0  0  0  0  0  0  0  0  0  0  0
  1  2  1  0
  2  3  1  0
  3  4  1  0
  4  5  1  0
  5  6  1  0
  6  7  1  0
  7  8  1  0
  8  2  1  0
  1  9  1  0
  1 10  1  0
  1 11  1  0
  2 12  1  0
  3 13  1  0
  3 14  1  0
  5 15  1  0
  5 16  1  0
  6 17  1  0
  6 18  1  0
  7 19  1  0
  7 20  1  0
M  END
