
     RDKit          3D

 23 24  0  0  0  0  0  0  0  0999 V2000
    3.4995   -0.5480    0.1408 C   0  0  0  0  0  0  0  0  0  0  0  0
    2.2257   -0.0895    0.8405 C   0  0  0  0  0  0  0  0  0  0  0  0
    1.8390    1.3191    0.4801 C   0  0  0  0  0  0  0  0  0  0  0  0
    1.0460    0.0717    0.0263 C   0  0  0  0  0  0  0  0  0  0  0  0
   -0.2524    0.1318    0.4383 O   0  0  0  0  0  0  0  0  0  0  0  0
   -1.2082   -0.1153   -0.4942 C   0  0  0  0  0  0  0  0  0  0  0  0
   -2.3269    0.9196   -0.3991 C   0  0  0  0  0  0  0  0  0  0  0  0
   -3.3523   -0.1916   -0.3369 C   0  0  0  0  0  0  0  0  0  0  0  0
   -2.2122   -1.1376    0.0455 C   0  0  0  0  0  0  0  0  0  0  0  0
    4.3910   -0.3273    0.7728 H   0  0  0  0  0  0  0  0  0  0  0  0
    3.6440    0.0203   -0.8020 H   0  0  0  0  0  0  0  0  0  0  0  0
    3.4422   -1.6242   -0.1416 H   0  0  0  0  0  0  0  0  0  0  0  0
    2.2250   -0.3588    1.9159 H   0  0  0  0  0  0  0  0  0  0  0  0
    2.3855    1.8688   -0.3046 H   0  0  0  0  0  0  0  0  0  0  0  0
    1.4548    1.9218    1.2988 H   0  0  0  0  0  0  0  0  0  0  0  0
    1.1304   -0.1844   -1.0726 H   0  0  0  0  0  0  0  0  0  0  0  0
   -0.9008   -0.3483   -1.5204 H   0  0  0  0  0  0  0  0  0  0  0  0
   -2.3298    1.4634    0.5654 H   0  0  0  0  0  0  0  0  0  0  0  0
   -2.4092    1.5872   -1.2782 H   0  0  0  0  0  0  0  0  0  0  0  0
   -3.7880   -0.4904   -1.3106 H   0  0  0  0  0  0  0  0  0  0  0  0
   -4.1096   -0.0723    0.4704 H   0  0  0  0  0  0  0  0  0  0  0  0
   -2.1774   -1.2623    1.1499 H   0  0  0  0  0  0  0  0  0  0  0  0
   -2.2162   -2.0995   -0.4846 H   0  0  0  0  0  0  0  0  0  0  0  0
  1  2  1  0
  2  3  1  0
  3  4  1  0
  4  5  1  0
  5  6  1  0
  6  7  1  0
  7  8  1  0
  8  9  1  0
  4  2  1  0
  9  6  1  0
  1 10  1  0
  1 11  1  0
  1 12  1  0
  2 13  1  0
  3 14  1  0
  3 15  1  0
  4 16  1  0
  6 17  1  0
  7 18  1  0
  7 19  1  0
  8 20  1  0
  8 21  1  0
  9 22  1  0
  9 23  1  0
M  END
