
     RDKit          3D

 23 23  0  0  0  0  0  0  0  0999 V2000
    1.9890    0.3288   -0.9170 C   0  0  0  0  0  0  0  0  0  0  0  0
    1.1421   -0.6715   -0.1610 C   0  0  0  0  0  0  0  0  0  0  0  0
   -0.1580   -0.9058   -0.8816 C   0  0  0  0  0  0  0  0  0  0  0  0
   -1.2466   -0.2661   -0.0739 C   0  0  0  0  0  0  0  0  0  0  0  0
   -2.0729    0.7189   -0.8994 C   0  0  0  0  0  0  0  0  0  0  0  0
   -2.1073   -1.2159    0.4197 O   0  0  0  0  0  0  0  0  0  0  0  0
   -0.5280    0.5260    0.9716 C   0  0  0  0  0  0  0  0  0  0  0  0
    0.7844   -0.1852    1.2267 C   0  0  0  0  0  0  0  0  0  0  0  0
    1.6799    0.7830    1.6903 O   0  0  0  0  0  0  0  0  0  0  0  0
    1.4460    0.7518   -1.7996 H   0  0  0  0  0  0  0  0  0  0  0  0
    2.9234   -0.1378   -1.3212 H   0  0  0  0  0  0  0  0  0  0  0  0
    2.2214    1.1664   -0.2158 H   0  0  0  0  0  0  0  0  0  0  0  0
    1.7124   -1.6250   -0.0298 H   0  0  0  0  0  0  0  0  0  0  0  0
   -0.1670   -0.4755   -1.9049 H   0  0  0  0  0  0  0  0  0  0  0  0
   -0.3291   -1.9933   -0.9654 H   0  0  0  0  0  0  0  0  0  0  0  0
   -1.4111    1.4468   -1.4224 H   0  0  0  0  0  0  0  0  0  0  0  0
   -2.6695    1.3051   -0.1534 H   0  0  0  0  0  0  0  0  0  0  0  0
   -2.7821    0.2105   -1.5659 H   0  0  0  0  0  0  0  0  0  0  0  0
   -2.0689   -1.3560    1.3874 H   0  0  0  0  0  0  0  0  0  0  0  0
   -0.2589    1.5125    0.5096 H   0  0  0  0  0  0  0  0  0  0  0  0
   -1.0988    0.7232    1.8789 H   0  0  0  0  0  0  0  0  0  0  0  0
    0.6381   -1.0120    1.9380 H   0  0  0  0  0  0  0  0  0  0  0  0
    2.3615    0.3713    2.2891 H   0  0  0  0  0  0  0  0  0  0  0  0
  1  2  1  0
  2  3  1  0
  3  4  1  0
  4  5  1  0
  4  6  1  0
  4  7  1  0
  7  8  1  0
  8  9  1  0
  8  2  1  0
  1 10  1  0
  1 11  1  0
  1 12  1  0
  2 13  1  0
  3 14  1  0
  3 15  1  0
  5 16  1  0
  5 17  1  0
  5 18  1  0
  6 19  1  0
  7 20  1  0
  7 21  1  0
  8 22  1  0
  9 23  1  0
M  END
