
     RDKit          3D

 23 25  0  0  0  0  0  0  0  0999 V2000
    0.2461    1.8865   -0.1201 C   0  0  0  0  0  0  0  0  0  0  0  0
    0.0134    0.4885   -0.6586 C   0  0  0  0  0  0  0  0  0  0  0  0
   -1.0922   -0.2722   -0.0549 C   0  0  0  0  0  0  0  0  0  0  0  0
   -2.1374    0.2330    0.8034 C   0  0  0  0  0  0  0  0  0  0  0  0
   -2.4253   -0.4358   -0.5348 C   0  0  0  0  0  0  0  0  0  0  0  0
   -0.1764   -1.3446    0.4447 C   0  0  0  0  0  0  0  0  0  0  0  0
    0.9488   -0.4889   -0.0156 C   0  0  0  0  0  0  0  0  0  0  0  0
    2.1236   -0.1403    0.7386 C   0  0  0  0  0  0  0  0  0  0  0  0
    2.1966   -0.9469   -0.5611 C   0  0  0  0  0  0  0  0  0  0  0  0
   -0.6914    2.4238    0.0948 H   0  0  0  0  0  0  0  0  0  0  0  0
    0.8379    1.8726    0.8207 H   0  0  0  0  0  0  0  0  0  0  0  0
    0.8663    2.4713   -0.8480 H   0  0  0  0  0  0  0  0  0  0  0  0
    0.0566    0.5243   -1.7739 H   0  0  0  0  0  0  0  0  0  0  0  0
   -2.2734    1.2997    0.9285 H   0  0  0  0  0  0  0  0  0  0  0  0
   -2.3533   -0.3630    1.7375 H   0  0  0  0  0  0  0  0  0  0  0  0
   -2.8210    0.2294   -1.3266 H   0  0  0  0  0  0  0  0  0  0  0  0
   -2.9535   -1.4090   -0.4931 H   0  0  0  0  0  0  0  0  0  0  0  0
   -0.2873   -1.4860    1.5399 H   0  0  0  0  0  0  0  0  0  0  0  0
   -0.2323   -2.2756   -0.1625 H   0  0  0  0  0  0  0  0  0  0  0  0
    2.6020    0.8663    0.6273 H   0  0  0  0  0  0  0  0  0  0  0  0
    2.4308   -0.6369    1.6777 H   0  0  0  0  0  0  0  0  0  0  0  0
    2.5109   -2.0050   -0.3974 H   0  0  0  0  0  0  0  0  0  0  0  0
    2.6105   -0.4910   -1.4560 H   0  0  0  0  0  0  0  0  0  0  0  0
  1  2  1  0
  2  3  1  0
  3  4  1  0
  4  5  1  0
  3  6  1  0
  6  7  1  0
  7  8  1  0
  8  9  1  0
  7  2  1  0
  5  3  1  0
  9  7  1  0
  1 10  1  0
  1 11  1  0
  1 12  1  0
  2 13  1  0
  4 14  1  0
  4 15  1  0
  5 16  1  0
  5 17  1  0
  6 18  1  0
  6 19  1  0
  8 20  1  0
  8 21  1  0
  9 22  1  0
  9 23  1  0
M  END
