
     RDKit          3D

 18 18  0  0  0  0  0  0  0  0999 V2000
   -2.4474    0.2757    0.3223 C   0  0  0  0  0  0  0  0  0  0  0  0
   -0.9981    0.1591    0.6810 C   0  0  0  0  0  0  0  0  0  0  0  0
   -0.3109   -1.1056    0.2547 C   0  0  0  0  0  0  0  0  0  0  0  0
    0.8094   -0.2569   -0.3174 C   0  0  0  0  0  0  0  0  0  0  0  0
    1.8517    0.0290    0.5661 O   0  0  0  0  0  0  0  0  0  0  0  0
    3.2084   -0.0999    0.2202 C   0  0  0  0  0  0  0  0  0  0  0  0
    3.4549   -0.4903   -0.9380 O   0  0  0  0  0  0  0  0  0  0  0  0
   -0.1699    0.8918   -0.3813 C   0  0  0  0  0  0  0  0  0  0  0  0
   -2.6549    1.3788    0.1880 H   0  0  0  0  0  0  0  0  0  0  0  0
   -3.1244   -0.0529    1.1281 H   0  0  0  0  0  0  0  0  0  0  0  0
   -2.6558   -0.1823   -0.6502 H   0  0  0  0  0  0  0  0  0  0  0  0
   -0.7494    0.4524    1.7042 H   0  0  0  0  0  0  0  0  0  0  0  0
   -0.8721   -1.6905   -0.4906 H   0  0  0  0  0  0  0  0  0  0  0  0
    0.0926   -1.7395    1.0692 H   0  0  0  0  0  0  0  0  0  0  0  0
    1.0899   -0.5967   -1.3236 H   0  0  0  0  0  0  0  0  0  0  0  0
    3.9523    0.1431    0.9668 H   0  0  0  0  0  0  0  0  0  0  0  0
    0.1950    1.8520    0.0379 H   0  0  0  0  0  0  0  0  0  0  0  0
   -0.6714    1.0327   -1.3405 H   0  0  0  0  0  0  0  0  0  0  0  0
  1  2  1  0
  2  3  1  0
  3  4  1  0
  4  5  1  0
  5  6  1  0
  6  7  2  0
  4  8  1  0
  8  2  1  0
  1  9  1  0
  1 10  1  0
  1 11  1  0
  2 12  1  0
  3 13  1  0
  3 14  1  0
  4 15  1  0
  6 16  1  0
  8 17  1  0
  8 18  1  0
M  END
