
     RDKit          3D

 23 24  0  0  0  0  0  0  0  0999 V2000
   -0.1134    1.7771    0.6281 C   0  0  0  0  0  0  0  0  0  0  0  0
    0.0408    0.2901    0.7469 C   0  0  0  0  0  0  0  0  0  0  0  0
   -0.8987   -0.5479   -0.0636 C   0  0  0  0  0  0  0  0  0  0  0  0
   -1.5337    0.1718   -1.2509 C   0  0  0  0  0  0  0  0  0  0  0  0
   -1.8697   -1.3682    0.7541 C   0  0  0  0  0  0  0  0  0  0  0  0
    0.1653   -1.3233   -0.5834 O   0  0  0  0  0  0  0  0  0  0  0  0
    1.0221   -0.3710   -0.1293 C   0  0  0  0  0  0  0  0  0  0  0  0
    2.3768   -0.7506    0.2356 C   0  0  0  0  0  0  0  0  0  0  0  0
    2.1161    0.2409   -0.8303 C   0  0  0  0  0  0  0  0  0  0  0  0
    0.1120    2.1693   -0.3852 H   0  0  0  0  0  0  0  0  0  0  0  0
    0.5992    2.2386    1.3510 H   0  0  0  0  0  0  0  0  0  0  0  0
   -1.1125    2.1520    0.8956 H   0  0  0  0  0  0  0  0  0  0  0  0
    0.1459   -0.0150    1.7978 H   0  0  0  0  0  0  0  0  0  0  0  0
   -1.7761   -0.6373   -1.9862 H   0  0  0  0  0  0  0  0  0  0  0  0
   -2.3901    0.7778   -0.9660 H   0  0  0  0  0  0  0  0  0  0  0  0
   -0.7033    0.7844   -1.6946 H   0  0  0  0  0  0  0  0  0  0  0  0
   -1.4700   -1.4983    1.7830 H   0  0  0  0  0  0  0  0  0  0  0  0
   -2.8057   -0.7801    0.8469 H   0  0  0  0  0  0  0  0  0  0  0  0
   -2.0096   -2.3412    0.2650 H   0  0  0  0  0  0  0  0  0  0  0  0
    2.7079   -1.7761   -0.0971 H   0  0  0  0  0  0  0  0  0  0  0  0
    2.7413   -0.4937    1.2301 H   0  0  0  0  0  0  0  0  0  0  0  0
    2.3327   -0.0311   -1.8930 H   0  0  0  0  0  0  0  0  0  0  0  0
    2.3223    1.3320   -0.6546 H   0  0  0  0  0  0  0  0  0  0  0  0
  1  2  1  0
  2  3  1  0
  3  4  1  0
  3  5  1  0
  3  6  1  0
  6  7  1  0
  7  8  1  0
  8  9  1  0
  7  2  1  0
  9  7  1  0
  1 10  1  0
  1 11  1  0
  1 12  1  0
  2 13  1  0
  4 14  1  0
  4 15  1  0
  4 16  1  0
  5 17  1  0
  5 18  1  0
  5 19  1  0
  8 20  1  0
  8 21  1  0
  9 22  1  0
  9 23  1  0
M  END
