
     RDKit          3D

 17 18  0  0  0  0  0  0  0  0999 V2000
    1.7996   -0.9021   -0.0127 C   0  0  0  0  0  0  0  0  0  0  0  0
    0.6697   -0.0567   -0.4965 C   0  0  0  0  0  0  0  0  0  0  0  0
    0.8096    1.3743   -0.1701 C   0  0  0  0  0  0  0  0  0  0  0  0
    1.8406    1.9236    0.2200 O   0  0  0  0  0  0  0  0  0  0  0  0
   -0.4718    1.9016   -0.4108 O   0  0  0  0  0  0  0  0  0  0  0  0
   -1.4300    0.9113   -0.1267 C   0  0  0  0  0  0  0  0  0  0  0  0
   -1.2794    0.2697    1.2025 C   0  0  0  0  0  0  0  0  0  0  0  0
   -0.6614   -0.3948    0.0464 C   0  0  0  0  0  0  0  0  0  0  0  0
   -1.2300   -1.5652   -0.4270 O   0  0  0  0  0  0  0  0  0  0  0  0
    2.0361   -0.7513    1.0428 H   0  0  0  0  0  0  0  0  0  0  0  0
    2.7125   -0.5957   -0.5880 H   0  0  0  0  0  0  0  0  0  0  0  0
    1.6027   -1.9434   -0.2848 H   0  0  0  0  0  0  0  0  0  0  0  0
    0.6272   -0.1269   -1.6167 H   0  0  0  0  0  0  0  0  0  0  0  0
   -2.3315    0.8103   -0.7394 H   0  0  0  0  0  0  0  0  0  0  0  0
   -0.7065    0.8096    1.9760 H   0  0  0  0  0  0  0  0  0  0  0  0
   -2.1977   -0.2094    1.6003 H   0  0  0  0  0  0  0  0  0  0  0  0
   -1.7897   -1.4549   -1.2153 H   0  0  0  0  0  0  0  0  0  0  0  0
  1  2  1  0
  2  3  1  0
  3  4  2  0
  3  5  1  0
  5  6  1  0
  6  7  1  0
  7  8  1  0
  8  9  1  0
  8  2  1  0
  8  6  1  0
  1 10  1  0
  1 11  1  0
  1 12  1  0
  2 13  1  0
  6 14  1  0
  7 15  1  0
  7 16  1  0
  9 17  1  0
M  END
