
     RDKit          3D

 16 17  0  0  0  0  0  0  0  0999 V2000
    2.0659    0.2590   -0.6537 C   0  0  0  0  0  0  0  0  0  0  0  0
    0.8714    0.4245    0.2209 C   0  0  0  0  0  0  0  0  0  0  0  0
    0.0324   -0.8224    0.3877 C   0  0  0  0  0  0  0  0  0  0  0  0
   -1.0844   -0.8172    1.3330 C   0  0  0  0  0  0  0  0  0  0  0  0
   -1.4403   -1.5138    2.2559 O   0  0  0  0  0  0  0  0  0  0  0  0
   -1.6259    0.4050    0.7053 C   0  0  0  0  0  0  0  0  0  0  0  0
   -0.5018    0.3905   -0.3073 C   0  0  0  0  0  0  0  0  0  0  0  0
   -0.8029    0.3304   -1.6427 O   0  0  0  0  0  0  0  0  0  0  0  0
    1.7773   -0.3101   -1.5661 H   0  0  0  0  0  0  0  0  0  0  0  0
    2.7971   -0.3984   -0.1163 H   0  0  0  0  0  0  0  0  0  0  0  0
    2.5748    1.2079   -0.9075 H   0  0  0  0  0  0  0  0  0  0  0  0
    1.0672    0.9418    1.1851 H   0  0  0  0  0  0  0  0  0  0  0  0
    0.2744   -1.7193   -0.2179 H   0  0  0  0  0  0  0  0  0  0  0  0
   -2.6211    0.1629    0.2295 H   0  0  0  0  0  0  0  0  0  0  0  0
   -1.6121    1.3162    1.3179 H   0  0  0  0  0  0  0  0  0  0  0  0
   -1.7721    0.1430   -1.7454 H   0  0  0  0  0  0  0  0  0  0  0  0
  1  2  1  0
  2  3  1  0
  3  4  1  0
  4  5  2  0
  4  6  1  0
  6  7  1  0
  7  8  1  0
  7  2  1  0
  7  3  1  0
  1  9  1  0
  1 10  1  0
  1 11  1  0
  2 12  1  0
  3 13  1  0
  6 14  1  0
  6 15  1  0
  8 16  1  0
M  END
