
     RDKit          3D

 23 23  0  0  0  0  0  0  0  0999 V2000
   -2.5281    0.3171   -0.7189 C   0  0  0  0  0  0  0  0  0  0  0  0
   -1.1657   -0.2549   -0.3949 C   0  0  0  0  0  0  0  0  0  0  0  0
   -1.0045   -0.3923    1.1133 C   0  0  0  0  0  0  0  0  0  0  0  0
    0.4821   -0.1690    1.3828 C   0  0  0  0  0  0  0  0  0  0  0  0
    1.0952    0.1186    0.0414 C   0  0  0  0  0  0  0  0  0  0  0  0
    1.6399   -1.1490   -0.5494 C   0  0  0  0  0  0  0  0  0  0  0  0
    2.1698    1.1171    0.0916 C   0  0  0  0  0  0  0  0  0  0  0  0
    2.9106    1.2732   -0.8447 O   0  0  0  0  0  0  0  0  0  0  0  0
   -0.0585    0.6906   -0.7331 C   0  0  0  0  0  0  0  0  0  0  0  0
   -2.9486   -0.1188   -1.6618 H   0  0  0  0  0  0  0  0  0  0  0  0
   -2.5019    1.4323   -0.7600 H   0  0  0  0  0  0  0  0  0  0  0  0
   -3.2067   -0.0033    0.0990 H   0  0  0  0  0  0  0  0  0  0  0  0
   -1.0855   -1.2325   -0.8777 H   0  0  0  0  0  0  0  0  0  0  0  0
   -1.3279   -1.4061    1.3724 H   0  0  0  0  0  0  0  0  0  0  0  0
   -1.6126    0.4022    1.5703 H   0  0  0  0  0  0  0  0  0  0  0  0
    0.8841   -1.1094    1.8091 H   0  0  0  0  0  0  0  0  0  0  0  0
    0.6227    0.6745    2.1068 H   0  0  0  0  0  0  0  0  0  0  0  0
    2.3287   -1.5896    0.2296 H   0  0  0  0  0  0  0  0  0  0  0  0
    0.8838   -1.9041   -0.7781 H   0  0  0  0  0  0  0  0  0  0  0  0
    2.3067   -0.9152   -1.4126 H   0  0  0  0  0  0  0  0  0  0  0  0
    2.2917    1.7102    0.9730 H   0  0  0  0  0  0  0  0  0  0  0  0
    0.1298    0.8352   -1.7920 H   0  0  0  0  0  0  0  0  0  0  0  0
   -0.3051    1.6732   -0.2663 H   0  0  0  0  0  0  0  0  0  0  0  0
  1  2  1  0
  2  3  1  0
  3  4  1  0
  4  5  1  0
  5  6  1  0
  5  7  1  0
  7  8  2  0
  5  9  1  0
  9  2  1  0
  1 10  1  0
  1 11  1  0
  1 12  1  0
  2 13  1  0
  3 14  1  0
  3 15  1  0
  4 16  1  0
  4 17  1  0
  6 18  1  0
  6 19  1  0
  6 20  1  0
  7 21  1  0
  9 22  1  0
  9 23  1  0
M  END
