
     RDKit          3D

 17 17  0  0  0  0  0  0  0  0999 V2000
   -2.3654    0.5558    0.3723 C   0  0  0  0  0  0  0  0  0  0  0  0
   -0.9646    0.1161    0.6799 C   0  0  0  0  0  0  0  0  0  0  0  0
   -0.3180   -0.7867   -0.3334 C   0  0  0  0  0  0  0  0  0  0  0  0
    0.5609    0.4002   -0.5692 C   0  0  0  0  0  0  0  0  0  0  0  0
    2.0369    0.1915   -0.4424 C   0  0  0  0  0  0  0  0  0  0  0  0
    2.4010   -0.5266    0.6828 O   0  0  0  0  0  0  0  0  0  0  0  0
   -0.0143    1.0867    0.4762 O   0  0  0  0  0  0  0  0  0  0  0  0
   -2.6558    1.2949    1.1534 H   0  0  0  0  0  0  0  0  0  0  0  0
   -2.4793    1.0640   -0.5947 H   0  0  0  0  0  0  0  0  0  0  0  0
   -3.0703   -0.2943    0.4045 H   0  0  0  0  0  0  0  0  0  0  0  0
   -0.9092   -0.2881    1.7053 H   0  0  0  0  0  0  0  0  0  0  0  0
    0.1442   -1.6733    0.1253 H   0  0  0  0  0  0  0  0  0  0  0  0
   -1.0207   -1.0046   -1.1596 H   0  0  0  0  0  0  0  0  0  0  0  0
    0.3242    0.8951   -1.5282 H   0  0  0  0  0  0  0  0  0  0  0  0
    2.4441   -0.2551   -1.3506 H   0  0  0  0  0  0  0  0  0  0  0  0
    2.4872    1.2194   -0.3109 H   0  0  0  0  0  0  0  0  0  0  0  0
    3.3991   -0.5518    0.6893 H   0  0  0  0  0  0  0  0  0  0  0  0
  1  2  1  0
  2  3  1  0
  3  4  1  0
  4  5  1  0
  5  6  1  0
  4  7  1  0
  7  2  1  0
  1  8  1  0
  1  9  1  0
  1 10  1  0
  2 11  1  0
  3 12  1  0
  3 13  1  0
  4 14  1  0
  5 15  1  0
  5 16  1  0
  6 17  1  0
M  END
