
     RDKit          3D

 19 21  0  0  0  0  0  0  0  0999 V2000
    2.3320   -0.5870    0.3307 C   0  0  0  0  0  0  0  0  0  0  0  0
    1.0420    0.1030    0.6720 C   0  0  0  0  0  0  0  0  0  0  0  0
    0.6684    1.1983   -0.3343 C   0  0  0  0  0  0  0  0  0  0  0  0
   -0.2177    0.2674   -1.0786 C   0  0  0  0  0  0  0  0  0  0  0  0
   -1.6719    0.5072   -1.2036 C   0  0  0  0  0  0  0  0  0  0  0  0
   -2.3536   -0.0155   -0.2084 C   0  0  0  0  0  0  0  0  0  0  0  0
   -1.4359   -0.6804    0.7244 C   0  0  0  0  0  0  0  0  0  0  0  0
   -0.1134   -0.7014    0.0746 C   0  0  0  0  0  0  0  0  0  0  0  0
    0.0988   -1.0765   -1.2276 O   0  0  0  0  0  0  0  0  0  0  0  0
    2.3114   -0.7529   -0.7877 H   0  0  0  0  0  0  0  0  0  0  0  0
    2.3728   -1.5969    0.7693 H   0  0  0  0  0  0  0  0  0  0  0  0
    3.1881    0.0397    0.6153 H   0  0  0  0  0  0  0  0  0  0  0  0
    0.8718    0.3715    1.7106 H   0  0  0  0  0  0  0  0  0  0  0  0
    0.1518    2.0206    0.1991 H   0  0  0  0  0  0  0  0  0  0  0  0
    1.5937    1.5397   -0.8422 H   0  0  0  0  0  0  0  0  0  0  0  0
   -2.1680    1.0530   -2.0161 H   0  0  0  0  0  0  0  0  0  0  0  0
   -3.4700    0.0337   -0.0822 H   0  0  0  0  0  0  0  0  0  0  0  0
   -1.3923   -0.0366    1.6571 H   0  0  0  0  0  0  0  0  0  0  0  0
   -1.8078   -1.6869    1.0274 H   0  0  0  0  0  0  0  0  0  0  0  0
  1  2  1  0
  2  3  1  0
  3  4  1  0
  4  5  1  0
  5  6  2  0
  6  7  1  0
  7  8  1  0
  8  9  1  0
  8  2  1  0
  8  4  1  0
  9  4  1  0
  1 10  1  0
  1 11  1  0
  1 12  1  0
  2 13  1  0
  3 14  1  0
  3 15  1  0
  5 16  1  0
  6 17  1  0
  7 18  1  0
  7 19  1  0
M  END
