
     RDKit          3D

 19 20  0  0  0  0  0  0  0  0999 V2000
    2.5633    0.6132    0.5494 C   0  0  0  0  0  0  0  0  0  0  0  0
    1.4365    0.5338   -0.4961 C   0  0  0  0  0  0  0  0  0  0  0  0
    0.6697   -0.6338   -0.6041 C   0  0  0  0  0  0  0  0  0  0  0  0
   -0.6768   -0.9749   -1.1524 C   0  0  0  0  0  0  0  0  0  0  0  0
   -1.4957   -0.6374    0.1160 C   0  0  0  0  0  0  0  0  0  0  0  0
   -2.6467    0.2070   -0.2438 C   0  0  0  0  0  0  0  0  0  0  0  0
   -2.6985    1.3438    0.1887 O   0  0  0  0  0  0  0  0  0  0  0  0
   -0.6362    0.1042    0.9314 O   0  0  0  0  0  0  0  0  0  0  0  0
    0.1360    0.7270    0.0133 C   0  0  0  0  0  0  0  0  0  0  0  0
    2.4747    1.6358    0.9787 H   0  0  0  0  0  0  0  0  0  0  0  0
    2.2617   -0.1276    1.3456 H   0  0  0  0  0  0  0  0  0  0  0  0
    3.5381    0.3877    0.1190 H   0  0  0  0  0  0  0  0  0  0  0  0
    1.7688    1.0533   -1.4218 H   0  0  0  0  0  0  0  0  0  0  0  0
    0.9213   -1.4329    0.1637 H   0  0  0  0  0  0  0  0  0  0  0  0
   -0.7874   -2.0334   -1.3655 H   0  0  0  0  0  0  0  0  0  0  0  0
   -1.0070   -0.3583   -1.9938 H   0  0  0  0  0  0  0  0  0  0  0  0
   -1.8237   -1.5744    0.6089 H   0  0  0  0  0  0  0  0  0  0  0  0
   -3.4600   -0.1662   -0.8941 H   0  0  0  0  0  0  0  0  0  0  0  0
   -0.5380    1.3329   -0.6716 H   0  0  0  0  0  0  0  0  0  0  0  0
  1  2  1  0
  2  3  1  0
  3  4  1  0
  4  5  1  0
  5  6  1  0
  6  7  2  0
  5  8  1  0
  8  9  1  0
  9  2  1  0
  9  3  1  0
  1 10  1  0
  1 11  1  0
  1 12  1  0
  2 13  1  0
  3 14  1  0
  4 15  1  0
  4 16  1  0
  5 17  1  0
  6 18  1  0
  9 19  1  0
M  END
