
     RDKit          3D

 19 21  0  0  0  0  0  0  0  0999 V2000
    2.4021   -0.2945   -0.1621 C   0  0  0  0  0  0  0  0  0  0  0  0
    1.0428    0.3438   -0.3814 C   0  0  0  0  0  0  0  0  0  0  0  0
   -0.1542   -0.5008   -0.6115 C   0  0  0  0  0  0  0  0  0  0  0  0
   -1.3283    0.2053   -1.1913 C   0  0  0  0  0  0  0  0  0  0  0  0
   -1.7935    1.1275   -0.3595 C   0  0  0  0  0  0  0  0  0  0  0  0
   -1.0024    1.1751    0.8960 C   0  0  0  0  0  0  0  0  0  0  0  0
    0.0627    0.1564    0.6834 C   0  0  0  0  0  0  0  0  0  0  0  0
    0.0746   -1.0320    1.3968 O   0  0  0  0  0  0  0  0  0  0  0  0
   -0.4829   -1.6592    0.2853 C   0  0  0  0  0  0  0  0  0  0  0  0
    2.3090   -1.2399    0.4093 H   0  0  0  0  0  0  0  0  0  0  0  0
    2.9608    0.4072    0.5175 H   0  0  0  0  0  0  0  0  0  0  0  0
    2.9481   -0.4701   -1.1051 H   0  0  0  0  0  0  0  0  0  0  0  0
    1.0885    1.3109   -0.8838 H   0  0  0  0  0  0  0  0  0  0  0  0
   -1.7184   -0.0397   -2.1763 H   0  0  0  0  0  0  0  0  0  0  0  0
   -2.6568    1.7645   -0.5912 H   0  0  0  0  0  0  0  0  0  0  0  0
   -0.5007    2.1775    0.9843 H   0  0  0  0  0  0  0  0  0  0  0  0
   -1.6198    1.0031    1.7968 H   0  0  0  0  0  0  0  0  0  0  0  0
   -1.5835   -1.8021    0.4747 H   0  0  0  0  0  0  0  0  0  0  0  0
   -0.0482   -2.6329    0.0181 H   0  0  0  0  0  0  0  0  0  0  0  0
  1  2  1  0
  2  3  1  0
  3  4  1  0
  4  5  2  0
  5  6  1  0
  6  7  1  0
  7  8  1  0
  8  9  1  0
  7  2  1  0
  7  3  1  0
  9  3  1  0
  1 10  1  0
  1 11  1  0
  1 12  1  0
  2 13  1  0
  4 14  1  0
  5 15  1  0
  6 16  1  0
  6 17  1  0
  9 18  1  0
  9 19  1  0
M  END
