
     RDKit          3D

 19 21  0  0  0  0  0  0  0  0999 V2000
   -1.8194   -0.9233   -0.6489 C   0  0  0  0  0  0  0  0  0  0  0  0
   -0.4283   -0.3291   -0.6959 C   0  0  0  0  0  0  0  0  0  0  0  0
   -0.3308    1.0971   -0.2243 C   0  0  0  0  0  0  0  0  0  0  0  0
   -1.4432    1.8572   -0.0068 O   0  0  0  0  0  0  0  0  0  0  0  0
    1.0422    1.6230    0.0593 C   0  0  0  0  0  0  0  0  0  0  0  0
    0.4320    0.5699    1.0071 C   0  0  0  0  0  0  0  0  0  0  0  0
    0.4021   -0.7551    0.4210 C   0  0  0  0  0  0  0  0  0  0  0  0
    1.7952   -1.3404    0.1436 C   0  0  0  0  0  0  0  0  0  0  0  0
    0.7622   -1.9320    0.8505 O   0  0  0  0  0  0  0  0  0  0  0  0
   -2.5745   -0.2941   -1.1295 H   0  0  0  0  0  0  0  0  0  0  0  0
   -2.1066   -1.1394    0.4121 H   0  0  0  0  0  0  0  0  0  0  0  0
   -1.7984   -1.8925   -1.1805 H   0  0  0  0  0  0  0  0  0  0  0  0
    0.0134   -0.5249   -1.6989 H   0  0  0  0  0  0  0  0  0  0  0  0
   -1.6905    1.7784    0.9590 H   0  0  0  0  0  0  0  0  0  0  0  0
    1.1885    2.6186    0.4660 H   0  0  0  0  0  0  0  0  0  0  0  0
    1.8530    1.2586   -0.6191 H   0  0  0  0  0  0  0  0  0  0  0  0
    0.1090    0.8652    1.9908 H   0  0  0  0  0  0  0  0  0  0  0  0
    1.9638   -1.5382   -0.9107 H   0  0  0  0  0  0  0  0  0  0  0  0
    2.6305   -0.9991    0.8052 H   0  0  0  0  0  0  0  0  0  0  0  0
  1  2  1  0
  2  3  1  0
  3  4  1  0
  3  5  1  0
  5  6  1  0
  6  7  1  0
  7  8  1  0
  8  9  1  0
  7  2  1  0
  6  3  1  0
  9  7  1  0
  1 10  1  0
  1 11  1  0
  1 12  1  0
  2 13  1  0
  4 14  1  0
  5 15  1  0
  5 16  1  0
  6 17  1  0
  8 18  1  0
  8 19  1  0
M  END
