
     RDKit          3D

 19 20  0  0  0  0  0  0  0  0999 V2000
    3.3089    0.0109   -0.0104 C   0  0  0  0  0  0  0  0  0  0  0  0
    1.8234   -0.0011    0.0347 C   0  0  0  0  0  0  0  0  0  0  0  0
    0.9917   -0.9490   -0.5125 C   0  0  0  0  0  0  0  0  0  0  0  0
   -0.2963   -0.5421   -0.2197 C   0  0  0  0  0  0  0  0  0  0  0  0
   -0.1986    0.6274    0.4883 C   0  0  0  0  0  0  0  0  0  0  0  0
    1.0868    0.9089    0.6141 O   0  0  0  0  0  0  0  0  0  0  0  0
   -1.5837    1.0977    0.8237 C   0  0  0  0  0  0  0  0  0  0  0  0
   -2.4224    0.4233   -0.2041 C   0  0  0  0  0  0  0  0  0  0  0  0
   -1.7274   -0.9321   -0.4102 C   0  0  0  0  0  0  0  0  0  0  0  0
    3.6659    1.0298   -0.1804 H   0  0  0  0  0  0  0  0  0  0  0  0
    3.6791   -0.3968    0.9756 H   0  0  0  0  0  0  0  0  0  0  0  0
    3.7200   -0.6359   -0.7845 H   0  0  0  0  0  0  0  0  0  0  0  0
    1.2663   -1.8561   -1.0737 H   0  0  0  0  0  0  0  0  0  0  0  0
   -1.8645    0.7364    1.8451 H   0  0  0  0  0  0  0  0  0  0  0  0
   -1.6119    2.2015    0.7760 H   0  0  0  0  0  0  0  0  0  0  0  0
   -2.3724    0.9972   -1.1542 H   0  0  0  0  0  0  0  0  0  0  0  0
   -3.4771    0.2635    0.0898 H   0  0  0  0  0  0  0  0  0  0  0  0
   -2.0516   -1.6761    0.3228 H   0  0  0  0  0  0  0  0  0  0  0  0
   -1.9362   -1.3074   -1.4204 H   0  0  0  0  0  0  0  0  0  0  0  0
  1  2  1  0
  2  3  2  0
  3  4  1  0
  4  5  2  0
  5  6  1  0
  5  7  1  0
  7  8  1  0
  8  9  1  0
  6  2  1  0
  9  4  1  0
  1 10  1  0
  1 11  1  0
  1 12  1  0
  3 13  1  0
  7 14  1  0
  7 15  1  0
  8 16  1  0
  8 17  1  0
  9 18  1  0
  9 19  1  0
M  END
