
     RDKit          3D

 25 25  0  0  0  0  0  0  0  0999 V2000
    2.5517    0.6342    0.2854 C   0  0  0  0  0  0  0  0  0  0  0  0
    1.1366    0.1658    0.3754 C   0  0  0  0  0  0  0  0  0  0  0  0
    1.0474   -1.1760   -0.3303 C   0  0  0  0  0  0  0  0  0  0  0  0
   -0.2648   -1.8085    0.1455 C   0  0  0  0  0  0  0  0  0  0  0  0
   -1.3613   -1.1656   -0.6772 C   0  0  0  0  0  0  0  0  0  0  0  0
   -2.0388   -0.0835    0.1061 C   0  0  0  0  0  0  0  0  0  0  0  0
   -1.1739    1.0679    0.4568 C   0  0  0  0  0  0  0  0  0  0  0  0
   -1.9145    2.2469    0.2052 O   0  0  0  0  0  0  0  0  0  0  0  0
    0.1434    1.1101   -0.2505 C   0  0  0  0  0  0  0  0  0  0  0  0
    2.9225    0.8527    1.3243 H   0  0  0  0  0  0  0  0  0  0  0  0
    2.7017    1.4847   -0.3927 H   0  0  0  0  0  0  0  0  0  0  0  0
    3.2389   -0.1804   -0.0803 H   0  0  0  0  0  0  0  0  0  0  0  0
    0.8071   -0.0090    1.4177 H   0  0  0  0  0  0  0  0  0  0  0  0
    1.0622   -1.0782   -1.4315 H   0  0  0  0  0  0  0  0  0  0  0  0
    1.8817   -1.8138    0.0333 H   0  0  0  0  0  0  0  0  0  0  0  0
   -0.2375   -2.8962    0.0709 H   0  0  0  0  0  0  0  0  0  0  0  0
   -0.3691   -1.5303    1.2236 H   0  0  0  0  0  0  0  0  0  0  0  0
   -2.1232   -1.9672   -0.8520 H   0  0  0  0  0  0  0  0  0  0  0  0
   -0.9966   -0.7310   -1.6188 H   0  0  0  0  0  0  0  0  0  0  0  0
   -2.9613    0.2043   -0.4791 H   0  0  0  0  0  0  0  0  0  0  0  0
   -2.4375   -0.5547    1.0384 H   0  0  0  0  0  0  0  0  0  0  0  0
   -0.9616    1.0886    1.5534 H   0  0  0  0  0  0  0  0  0  0  0  0
   -1.2802    2.9983    0.2404 H   0  0  0  0  0  0  0  0  0  0  0  0
    0.5637    2.1469   -0.0947 H   0  0  0  0  0  0  0  0  0  0  0  0
    0.0634    0.9939   -1.3444 H   0  0  0  0  0  0  0  0  0  0  0  0
  1  2  1  0
  2  3  1  0
  3  4  1  0
  4  5  1  0
  5  6  1  0
  6  7  1  0
  7  8  1  0
  7  9  1  0
  9  2  1  0
  1 10  1  0
  1 11  1  0
  1 12  1  0
  2 13  1  0
  3 14  1  0
  3 15  1  0
  4 16  1  0
  4 17  1  0
  5 18  1  0
  5 19  1  0
  6 20  1  0
  6 21  1  0
  7 22  1  0
  8 23  1  0
  9 24  1  0
  9 25  1  0
M  END
