
     RDKit          3D

 23 23  0  0  0  0  0  0  0  0999 V2000
   -0.1100   -2.3887   -0.4285 C   0  0  0  0  0  0  0  0  0  0  0  0
   -0.0684   -1.0146    0.1704 C   0  0  0  0  0  0  0  0  0  0  0  0
    0.7894   -0.0081   -0.5509 C   0  0  0  0  0  0  0  0  0  0  0  0
    2.0553    0.2833    0.1641 C   0  0  0  0  0  0  0  0  0  0  0  0
   -0.3276    0.9803   -0.4164 C   0  0  0  0  0  0  0  0  0  0  0  0
   -0.3643    1.8107    0.8146 C   0  0  0  0  0  0  0  0  0  0  0  0
   -0.5251    1.6808   -1.5822 O   0  0  0  0  0  0  0  0  0  0  0  0
   -1.2833   -0.2102   -0.2714 C   0  0  0  0  0  0  0  0  0  0  0  0
   -2.1698   -0.1015    0.7858 O   0  0  0  0  0  0  0  0  0  0  0  0
    0.8528   -2.8808   -0.2012 H   0  0  0  0  0  0  0  0  0  0  0  0
   -0.8998   -2.9588    0.1186 H   0  0  0  0  0  0  0  0  0  0  0  0
   -0.3309   -2.2909   -1.4964 H   0  0  0  0  0  0  0  0  0  0  0  0
    0.1055   -0.9471    1.2542 H   0  0  0  0  0  0  0  0  0  0  0  0
    0.9022   -0.3349   -1.6199 H   0  0  0  0  0  0  0  0  0  0  0  0
    2.2266    1.3259    0.4353 H   0  0  0  0  0  0  0  0  0  0  0  0
    2.1144   -0.3117    1.1082 H   0  0  0  0  0  0  0  0  0  0  0  0
    2.9106   -0.0262   -0.4972 H   0  0  0  0  0  0  0  0  0  0  0  0
   -1.4000    2.2351    0.9067 H   0  0  0  0  0  0  0  0  0  0  0  0
   -0.2060    1.1809    1.7160 H   0  0  0  0  0  0  0  0  0  0  0  0
    0.3395    2.6511    0.8184 H   0  0  0  0  0  0  0  0  0  0  0  0
    0.1290    2.4086   -1.6352 H   0  0  0  0  0  0  0  0  0  0  0  0
   -1.7211   -0.5388   -1.2267 H   0  0  0  0  0  0  0  0  0  0  0  0
   -3.0193   -0.5443    0.5187 H   0  0  0  0  0  0  0  0  0  0  0  0
  1  2  1  0
  2  3  1  0
  3  4  1  0
  3  5  1  0
  5  6  1  0
  5  7  1  0
  5  8  1  0
  8  9  1  0
  8  2  1  0
  1 10  1  0
  1 11  1  0
  1 12  1  0
  2 13  1  0
  3 14  1  0
  4 15  1  0
  4 16  1  0
  4 17  1  0
  6 18  1  0
  6 19  1  0
  6 20  1  0
  7 21  1  0
  8 22  1  0
  9 23  1  0
M  END
