
     RDKit          3D

 19 20  0  0  0  0  0  0  0  0999 V2000
   -2.7072    0.6533   -0.4479 C   0  0  0  0  0  0  0  0  0  0  0  0
   -1.1853    0.8657   -0.3322 C   0  0  0  0  0  0  0  0  0  0  0  0
   -0.5444    0.1693    0.7261 C   0  0  0  0  0  0  0  0  0  0  0  0
    0.0359   -1.2419    0.7276 C   0  0  0  0  0  0  0  0  0  0  0  0
    1.0515   -0.5513   -0.2082 C   0  0  0  0  0  0  0  0  0  0  0  0
    1.8730    0.3956    0.3749 O   0  0  0  0  0  0  0  0  0  0  0  0
    3.2388    0.4073    0.2328 C   0  0  0  0  0  0  0  0  0  0  0  0
    3.7745   -0.4862   -0.4617 O   0  0  0  0  0  0  0  0  0  0  0  0
   -0.2533   -0.0829   -0.8155 C   0  0  0  0  0  0  0  0  0  0  0  0
   -3.1249    1.0817    0.4997 H   0  0  0  0  0  0  0  0  0  0  0  0
   -3.1205    1.1443   -1.3301 H   0  0  0  0  0  0  0  0  0  0  0  0
   -2.8840   -0.4379   -0.4642 H   0  0  0  0  0  0  0  0  0  0  0  0
   -0.9657    1.9500   -0.5787 H   0  0  0  0  0  0  0  0  0  0  0  0
    0.2307    0.8147    1.2485 H   0  0  0  0  0  0  0  0  0  0  0  0
    0.4309   -1.5456    1.6893 H   0  0  0  0  0  0  0  0  0  0  0  0
   -0.5409   -1.9743    0.1500 H   0  0  0  0  0  0  0  0  0  0  0  0
    1.5756   -1.3080   -0.8043 H   0  0  0  0  0  0  0  0  0  0  0  0
    3.8852    1.1646    0.7002 H   0  0  0  0  0  0  0  0  0  0  0  0
   -0.7697   -1.0185   -1.2160 H   0  0  0  0  0  0  0  0  0  0  0  0
  1  2  1  0
  2  3  1  0
  3  4  1  0
  4  5  1  0
  5  6  1  0
  6  7  1  0
  7  8  2  0
  5  9  1  0
  9  2  1  0
  9  3  1  0
  1 10  1  0
  1 11  1  0
  1 12  1  0
  2 13  1  0
  3 14  1  0
  4 15  1  0
  4 16  1  0
  5 17  1  0
  7 18  1  0
  9 19  1  0
M  END
