
     RDKit          3D

 19 20  0  0  0  0  0  0  0  0999 V2000
   -2.1819    0.3996    0.1826 C   0  0  0  0  0  0  0  0  0  0  0  0
   -0.7034    0.5245    0.0799 C   0  0  0  0  0  0  0  0  0  0  0  0
    0.0991   -0.3589    0.9995 C   0  0  0  0  0  0  0  0  0  0  0  0
    1.4608    0.2042    1.1044 C   0  0  0  0  0  0  0  0  0  0  0  0
    2.0426    0.6455   -0.0048 C   0  0  0  0  0  0  0  0  0  0  0  0
    1.2991    0.3796   -1.2529 C   0  0  0  0  0  0  0  0  0  0  0  0
    1.7790    0.6403   -2.3709 O   0  0  0  0  0  0  0  0  0  0  0  0
   -0.0515   -0.2168   -1.0729 C   0  0  0  0  0  0  0  0  0  0  0  0
    0.1030   -1.3901   -0.1376 C   0  0  0  0  0  0  0  0  0  0  0  0
   -2.6421    1.1251   -0.5149 H   0  0  0  0  0  0  0  0  0  0  0  0
   -2.4811    0.7121    1.2103 H   0  0  0  0  0  0  0  0  0  0  0  0
   -2.5627   -0.6093   -0.0475 H   0  0  0  0  0  0  0  0  0  0  0  0
   -0.3783    1.5757    0.1253 H   0  0  0  0  0  0  0  0  0  0  0  0
   -0.3712   -0.6841    1.9203 H   0  0  0  0  0  0  0  0  0  0  0  0
    1.9630    0.2526    2.0582 H   0  0  0  0  0  0  0  0  0  0  0  0
    2.9926    1.1631    0.0003 H   0  0  0  0  0  0  0  0  0  0  0  0
   -0.6499   -0.3602   -1.9631 H   0  0  0  0  0  0  0  0  0  0  0  0
   -0.7766   -2.0725   -0.1198 H   0  0  0  0  0  0  0  0  0  0  0  0
    1.0596   -1.9303   -0.1964 H   0  0  0  0  0  0  0  0  0  0  0  0
  1  2  1  0
  2  3  1  0
  3  4  1  0
  4  5  2  0
  5  6  1  0
  6  7  2  0
  6  8  1  0
  8  9  1  0
  8  2  1  0
  9  3  1  0
  1 10  1  0
  1 11  1  0
  1 12  1  0
  2 13  1  0
  3 14  1  0
  4 15  1  0
  5 16  1  0
  8 17  1  0
  9 18  1  0
  9 19  1  0
M  END
