
     RDKit          3D

 18 19  0  0  0  0  0  0  0  0999 V2000
   -2.0148   -0.8729   -0.3382 C   0  0  0  0  0  0  0  0  0  0  0  0
   -0.7173   -0.7947    0.3335 C   0  0  0  0  0  0  0  0  0  0  0  0
   -0.5389    0.1176    1.3968 O   0  0  0  0  0  0  0  0  0  0  0  0
   -0.5772    1.0693    0.4002 C   0  0  0  0  0  0  0  0  0  0  0  0
    0.3577    1.4129   -0.6214 C   0  0  0  0  0  0  0  0  0  0  0  0
    0.3947    0.0249   -0.2767 C   0  0  0  0  0  0  0  0  0  0  0  0
    1.6628   -0.2706    0.5569 C   0  0  0  0  0  0  0  0  0  0  0  0
    2.7044    0.4622    0.0242 O   0  0  0  0  0  0  0  0  0  0  0  0
   -1.9742   -0.3927   -1.3602 H   0  0  0  0  0  0  0  0  0  0  0  0
   -2.2971   -1.9426   -0.5841 H   0  0  0  0  0  0  0  0  0  0  0  0
   -2.8966   -0.5073    0.2481 H   0  0  0  0  0  0  0  0  0  0  0  0
   -0.4044   -1.7938    0.6994 H   0  0  0  0  0  0  0  0  0  0  0  0
   -1.6394    1.0711    0.0083 H   0  0  0  0  0  0  0  0  0  0  0  0
    1.1362    2.1867   -0.3381 H   0  0  0  0  0  0  0  0  0  0  0  0
    0.0491    1.6307   -1.6902 H   0  0  0  0  0  0  0  0  0  0  0  0
    1.8871   -1.3476    0.4341 H   0  0  0  0  0  0  0  0  0  0  0  0
    1.5263    0.0441    1.6007 H   0  0  0  0  0  0  0  0  0  0  0  0
    3.3417   -0.0974   -0.4934 H   0  0  0  0  0  0  0  0  0  0  0  0
  1  2  1  0
  2  3  1  0
  3  4  1  0
  4  5  1  0
  5  6  1  0
  6  7  1  0
  7  8  1  0
  6  2  1  0
  6  4  1  0
  1  9  1  0
  1 10  1  0
  1 11  1  0
  2 12  1  0
  4 13  1  0
  5 14  1  0
  5 15  1  0
  7 16  1  0
  7 17  1  0
  8 18  1  0
M  END
