
     RDKit          3D

 21 22  0  0  0  0  0  0  0  0999 V2000
    2.7871    0.6802    0.0389 C   0  0  0  0  0  0  0  0  0  0  0  0
    1.7776   -0.2745    0.5964 C   0  0  0  0  0  0  0  0  0  0  0  0
    1.2866   -1.1892   -0.3911 O   0  0  0  0  0  0  0  0  0  0  0  0
    0.3766   -0.2717    0.2343 C   0  0  0  0  0  0  0  0  0  0  0  0
   -0.1601    0.8343   -0.5874 C   0  0  0  0  0  0  0  0  0  0  0  0
   -1.6226    1.0072   -0.5370 C   0  0  0  0  0  0  0  0  0  0  0  0
   -2.4736    0.1423   -0.0508 C   0  0  0  0  0  0  0  0  0  0  0  0
   -1.9730   -1.1282    0.5053 C   0  0  0  0  0  0  0  0  0  0  0  0
   -0.5980   -0.9531    1.1268 C   0  0  0  0  0  0  0  0  0  0  0  0
    2.3594    1.6615   -0.2353 H   0  0  0  0  0  0  0  0  0  0  0  0
    3.6141    0.9064    0.7673 H   0  0  0  0  0  0  0  0  0  0  0  0
    3.3229    0.2700   -0.8589 H   0  0  0  0  0  0  0  0  0  0  0  0
    2.0845   -0.7388    1.5657 H   0  0  0  0  0  0  0  0  0  0  0  0
    0.2928    1.7958   -0.2450 H   0  0  0  0  0  0  0  0  0  0  0  0
    0.1123    0.7077   -1.6764 H   0  0  0  0  0  0  0  0  0  0  0  0
   -2.0353    1.9384   -0.9401 H   0  0  0  0  0  0  0  0  0  0  0  0
   -3.5375    0.3224   -0.0400 H   0  0  0  0  0  0  0  0  0  0  0  0
   -1.9823   -1.9054   -0.2839 H   0  0  0  0  0  0  0  0  0  0  0  0
   -2.6447   -1.4499    1.3106 H   0  0  0  0  0  0  0  0  0  0  0  0
   -0.2612   -1.9694    1.4151 H   0  0  0  0  0  0  0  0  0  0  0  0
   -0.7255   -0.3859    2.0712 H   0  0  0  0  0  0  0  0  0  0  0  0
  1  2  1  0
  2  3  1  0
  3  4  1  0
  4  5  1  0
  5  6  1  0
  6  7  2  0
  7  8  1  0
  8  9  1  0
  4  2  1  0
  9  4  1  0
  1 10  1  0
  1 11  1  0
  1 12  1  0
  2 13  1  0
  5 14  1  0
  5 15  1  0
  6 16  1  0
  7 17  1  0
  8 18  1  0
  8 19  1  0
  9 20  1  0
  9 21  1  0
M  END
