
     RDKit          3D

 19 21  0  0  0  0  0  0  0  0999 V2000
    2.1115    0.3267    0.4831 C   0  0  0  0  0  0  0  0  0  0  0  0
    0.9164   -0.5942    0.4872 C   0  0  0  0  0  0  0  0  0  0  0  0
   -0.0018   -0.3171    1.4588 O   0  0  0  0  0  0  0  0  0  0  0  0
   -1.2581   -0.2182    0.9176 C   0  0  0  0  0  0  0  0  0  0  0  0
   -1.4508    1.1958    0.3514 C   0  0  0  0  0  0  0  0  0  0  0  0
   -0.8114    0.6761   -0.9293 C   0  0  0  0  0  0  0  0  0  0  0  0
   -1.1753   -0.6767   -0.5069 C   0  0  0  0  0  0  0  0  0  0  0  0
    0.2120   -0.4063   -0.8565 C   0  0  0  0  0  0  0  0  0  0  0  0
    0.8346   -0.7657   -2.0040 O   0  0  0  0  0  0  0  0  0  0  0  0
    1.7463    1.3655    0.3129 H   0  0  0  0  0  0  0  0  0  0  0  0
    2.6970    0.2584    1.4247 H   0  0  0  0  0  0  0  0  0  0  0  0
    2.7615   -0.0128   -0.3714 H   0  0  0  0  0  0  0  0  0  0  0  0
    1.2756   -1.6538    0.5896 H   0  0  0  0  0  0  0  0  0  0  0  0
   -2.0969   -0.5906    1.5127 H   0  0  0  0  0  0  0  0  0  0  0  0
   -2.5372    1.3447    0.1788 H   0  0  0  0  0  0  0  0  0  0  0  0
   -0.9088    1.9791    0.8695 H   0  0  0  0  0  0  0  0  0  0  0  0
   -1.1163    1.0852   -1.8936 H   0  0  0  0  0  0  0  0  0  0  0  0
   -1.8627   -1.3433   -0.9703 H   0  0  0  0  0  0  0  0  0  0  0  0
    0.6644   -1.6529   -2.3548 H   0  0  0  0  0  0  0  0  0  0  0  0
  1  2  1  0
  2  3  1  0
  3  4  1  0
  4  5  1  0
  5  6  1  0
  6  7  1  0
  7  8  1  0
  8  9  1  0
  8  2  1  0
  7  4  1  0
  8  6  1  0
  1 10  1  0
  1 11  1  0
  1 12  1  0
  2 13  1  0
  4 14  1  0
  5 15  1  0
  5 16  1  0
  6 17  1  0
  7 18  1  0
  9 19  1  0
M  END
