
     RDKit          3D

 21 21  0  0  0  0  0  0  0  0999 V2000
   -2.6014    0.2744    0.1920 C   0  0  0  0  0  0  0  0  0  0  0  0
   -1.4487   -0.5246   -0.3405 C   0  0  0  0  0  0  0  0  0  0  0  0
   -0.9651   -1.4097    0.5781 O   0  0  0  0  0  0  0  0  0  0  0  0
    0.3122   -1.0695    0.9308 C   0  0  0  0  0  0  0  0  0  0  0  0
    0.8810   -0.4760   -0.3389 C   0  0  0  0  0  0  0  0  0  0  0  0
    2.1136    0.3404   -0.0857 C   0  0  0  0  0  0  0  0  0  0  0  0
    3.0613   -0.5215    0.4920 O   0  0  0  0  0  0  0  0  0  0  0  0
   -0.2963    0.3517   -0.7998 C   0  0  0  0  0  0  0  0  0  0  0  0
   -0.3428    1.5848   -0.1412 O   0  0  0  0  0  0  0  0  0  0  0  0
   -3.5530   -0.0461   -0.3109 H   0  0  0  0  0  0  0  0  0  0  0  0
   -2.7286    0.0530    1.2835 H   0  0  0  0  0  0  0  0  0  0  0  0
   -2.5150    1.3503    0.0260 H   0  0  0  0  0  0  0  0  0  0  0  0
   -1.7860   -1.0982   -1.2341 H   0  0  0  0  0  0  0  0  0  0  0  0
    0.2782   -0.2728    1.6967 H   0  0  0  0  0  0  0  0  0  0  0  0
    0.9581   -1.9155    1.2133 H   0  0  0  0  0  0  0  0  0  0  0  0
    1.0787   -1.2266   -1.1154 H   0  0  0  0  0  0  0  0  0  0  0  0
    1.9454    1.2430    0.4994 H   0  0  0  0  0  0  0  0  0  0  0  0
    2.5404    0.6370   -1.0662 H   0  0  0  0  0  0  0  0  0  0  0  0
    3.5980   -0.0829    1.1840 H   0  0  0  0  0  0  0  0  0  0  0  0
   -0.3108    0.4685   -1.9068 H   0  0  0  0  0  0  0  0  0  0  0  0
   -0.2191    2.3404   -0.7566 H   0  0  0  0  0  0  0  0  0  0  0  0
  1  2  1  0
  2  3  1  0
  3  4  1  0
  4  5  1  0
  5  6  1  0
  6  7  1  0
  5  8  1  0
  8  9  1  0
  8  2  1  0
  1 10  1  0
  1 11  1  0
  1 12  1  0
  2 13  1  0
  4 14  1  0
  4 15  1  0
  5 16  1  0
  6 17  1  0
  6 18  1  0
  7 19  1  0
  8 20  1  0
  9 21  1  0
M  END
