
     RDKit          3D

 21 22  0  0  0  0  0  0  0  0999 V2000
    2.2773   -0.2880   -0.8398 C   0  0  0  0  0  0  0  0  0  0  0  0
    1.2142    0.2332    0.1312 C   0  0  0  0  0  0  0  0  0  0  0  0
    0.7636    1.4597   -0.2254 O   0  0  0  0  0  0  0  0  0  0  0  0
   -0.5734    1.6601   -0.2948 C   0  0  0  0  0  0  0  0  0  0  0  0
   -1.4164    0.5413    0.2094 C   0  0  0  0  0  0  0  0  0  0  0  0
   -0.7943   -0.1553    1.4138 C   0  0  0  0  0  0  0  0  0  0  0  0
    0.1527   -0.7896    0.3852 C   0  0  0  0  0  0  0  0  0  0  0  0
   -0.9939   -0.6970   -0.5948 C   0  0  0  0  0  0  0  0  0  0  0  0
   -1.8686   -1.7414   -0.5317 O   0  0  0  0  0  0  0  0  0  0  0  0
    2.3180   -1.3764   -0.7508 H   0  0  0  0  0  0  0  0  0  0  0  0
    3.2915    0.0950   -0.5365 H   0  0  0  0  0  0  0  0  0  0  0  0
    2.1141    0.0910   -1.8612 H   0  0  0  0  0  0  0  0  0  0  0  0
    1.7704    0.3523    1.1098 H   0  0  0  0  0  0  0  0  0  0  0  0
   -0.8401    1.8059   -1.3847 H   0  0  0  0  0  0  0  0  0  0  0  0
   -0.8700    2.6431    0.1766 H   0  0  0  0  0  0  0  0  0  0  0  0
   -2.4736    0.7358    0.2531 H   0  0  0  0  0  0  0  0  0  0  0  0
   -1.4830   -0.8497    1.8858 H   0  0  0  0  0  0  0  0  0  0  0  0
   -0.2746    0.5382    2.0858 H   0  0  0  0  0  0  0  0  0  0  0  0
    0.5236   -1.7717    0.6317 H   0  0  0  0  0  0  0  0  0  0  0  0
   -0.6925   -0.4643   -1.6158 H   0  0  0  0  0  0  0  0  0  0  0  0
   -2.1449   -2.0221    0.3529 H   0  0  0  0  0  0  0  0  0  0  0  0
  1  2  1  0
  2  3  1  0
  3  4  1  0
  4  5  1  0
  5  6  1  0
  6  7  1  0
  7  8  1  0
  8  9  1  0
  7  2  1  0
  8  5  1  0
  1 10  1  0
  1 11  1  0
  1 12  1  0
  2 13  1  0
  4 14  1  0
  4 15  1  0
  5 16  1  0
  6 17  1  0
  6 18  1  0
  7 19  1  0
  8 20  1  0
  9 21  1  0
M  END
