
     RDKit          3D

 21 23  0  0  0  0  0  0  0  0999 V2000
    2.0878   -1.5150   -0.4294 C   0  0  0  0  0  0  0  0  0  0  0  0
    1.4387   -0.2209   -0.9369 C   0  0  0  0  0  0  0  0  0  0  0  0
    1.6738    0.8879    0.0237 O   0  0  0  0  0  0  0  0  0  0  0  0
    0.3824    0.3193   -0.2804 C   0  0  0  0  0  0  0  0  0  0  0  0
   -0.4638   -0.1436    0.8365 C   0  0  0  0  0  0  0  0  0  0  0  0
   -1.2130   -1.4192    0.4679 C   0  0  0  0  0  0  0  0  0  0  0  0
   -1.3870    1.0322    0.6927 C   0  0  0  0  0  0  0  0  0  0  0  0
   -0.8912    2.3919    0.4087 C   0  0  0  0  0  0  0  0  0  0  0  0
   -0.6267    1.3356   -0.6402 C   0  0  0  0  0  0  0  0  0  0  0  0
    2.1841   -1.5067    0.6639 H   0  0  0  0  0  0  0  0  0  0  0  0
    1.5045   -2.3852   -0.7941 H   0  0  0  0  0  0  0  0  0  0  0  0
    3.1031   -1.5856   -0.9093 H   0  0  0  0  0  0  0  0  0  0  0  0
    1.7387    0.0484   -1.9643 H   0  0  0  0  0  0  0  0  0  0  0  0
    0.0856   -0.2035    1.7956 H   0  0  0  0  0  0  0  0  0  0  0  0
   -2.0908   -1.5709    1.1430 H   0  0  0  0  0  0  0  0  0  0  0  0
   -1.6501   -1.2254   -0.5539 H   0  0  0  0  0  0  0  0  0  0  0  0
   -0.5681   -2.2941    0.4158 H   0  0  0  0  0  0  0  0  0  0  0  0
   -2.4599    0.8562    0.6197 H   0  0  0  0  0  0  0  0  0  0  0  0
    0.0391    2.7913    0.8672 H   0  0  0  0  0  0  0  0  0  0  0  0
   -1.6270    3.1399    0.1012 H   0  0  0  0  0  0  0  0  0  0  0  0
   -1.2600    1.2671   -1.5272 H   0  0  0  0  0  0  0  0  0  0  0  0
  1  2  1  0
  2  3  1  0
  3  4  1  0
  4  5  1  0
  5  6  1  0
  5  7  1  0
  7  8  1  0
  8  9  1  0
  4  2  1  0
  9  7  1  0
  9  4  1  0
  1 10  1  0
  1 11  1  0
  1 12  1  0
  2 13  1  0
  5 14  1  0
  6 15  1  0
  6 16  1  0
  6 17  1  0
  7 18  1  0
  8 19  1  0
  8 20  1  0
  9 21  1  0
M  END
