
     RDKit          3D

 21 21  0  0  0  0  0  0  0  0999 V2000
   -0.8489    1.7063   -0.3097 C   0  0  0  0  0  0  0  0  0  0  0  0
   -0.4826    0.5707    0.6020 C   0  0  0  0  0  0  0  0  0  0  0  0
    0.6614    0.8322    1.3494 O   0  0  0  0  0  0  0  0  0  0  0  0
    1.8141    0.8568    0.6007 C   0  0  0  0  0  0  0  0  0  0  0  0
    2.0037   -0.2517   -0.3599 C   0  0  0  0  0  0  0  0  0  0  0  0
    0.8064   -1.0906   -0.5616 C   0  0  0  0  0  0  0  0  0  0  0  0
   -0.3821   -0.7299   -0.1193 C   0  0  0  0  0  0  0  0  0  0  0  0
   -1.6038   -1.5912   -0.3277 C   0  0  0  0  0  0  0  0  0  0  0  0
   -2.0832   -1.9006    0.9669 O   0  0  0  0  0  0  0  0  0  0  0  0
   -1.7509    2.2534    0.0352 H   0  0  0  0  0  0  0  0  0  0  0  0
   -0.0146    2.4675   -0.3134 H   0  0  0  0  0  0  0  0  0  0  0  0
   -0.9979    1.4145   -1.3531 H   0  0  0  0  0  0  0  0  0  0  0  0
   -1.3148    0.4405    1.3484 H   0  0  0  0  0  0  0  0  0  0  0  0
    1.9618    1.8498    0.0825 H   0  0  0  0  0  0  0  0  0  0  0  0
    2.6674    0.8331    1.3427 H   0  0  0  0  0  0  0  0  0  0  0  0
    2.8392   -0.9332   -0.0300 H   0  0  0  0  0  0  0  0  0  0  0  0
    2.3089    0.1526   -1.3526 H   0  0  0  0  0  0  0  0  0  0  0  0
    0.8971   -2.0361   -1.0893 H   0  0  0  0  0  0  0  0  0  0  0  0
   -1.3421   -2.5531   -0.7817 H   0  0  0  0  0  0  0  0  0  0  0  0
   -2.3658   -1.0839   -0.9281 H   0  0  0  0  0  0  0  0  0  0  0  0
   -2.7732   -1.2071    1.1985 H   0  0  0  0  0  0  0  0  0  0  0  0
  1  2  1  0
  2  3  1  0
  3  4  1  0
  4  5  1  0
  5  6  1  0
  6  7  2  0
  7  8  1  0
  8  9  1  0
  7  2  1  0
  1 10  1  0
  1 11  1  0
  1 12  1  0
  2 13  1  0
  4 14  1  0
  4 15  1  0
  5 16  1  0
  5 17  1  0
  6 18  1  0
  8 19  1  0
  8 20  1  0
  9 21  1  0
M  END
