
     RDKit          3D

 19 19  0  0  0  0  0  0  0  0999 V2000
   -2.1135    0.9964   -0.1798 C   0  0  0  0  0  0  0  0  0  0  0  0
   -0.7329    0.7427   -0.7097 C   0  0  0  0  0  0  0  0  0  0  0  0
    0.2983    1.4021   -0.0236 O   0  0  0  0  0  0  0  0  0  0  0  0
    1.1276    0.3508   -0.4608 C   0  0  0  0  0  0  0  0  0  0  0  0
    2.2276   -0.0350    0.4536 C   0  0  0  0  0  0  0  0  0  0  0  0
   -0.0826   -0.5445   -0.2661 C   0  0  0  0  0  0  0  0  0  0  0  0
   -0.1120   -1.5870   -1.1567 O   0  0  0  0  0  0  0  0  0  0  0  0
   -0.3750   -0.8730    1.1341 C   0  0  0  0  0  0  0  0  0  0  0  0
   -0.3734   -0.0281    1.9843 O   0  0  0  0  0  0  0  0  0  0  0  0
   -2.8238    0.5232   -0.8904 H   0  0  0  0  0  0  0  0  0  0  0  0
   -2.3100    0.5398    0.8038 H   0  0  0  0  0  0  0  0  0  0  0  0
   -2.3406    2.0758   -0.1558 H   0  0  0  0  0  0  0  0  0  0  0  0
   -0.6743    0.9583   -1.7739 H   0  0  0  0  0  0  0  0  0  0  0  0
    1.3950    0.4174   -1.5295 H   0  0  0  0  0  0  0  0  0  0  0  0
    1.9118   -0.0059    1.4949 H   0  0  0  0  0  0  0  0  0  0  0  0
    2.4907   -1.1103    0.2318 H   0  0  0  0  0  0  0  0  0  0  0  0
    3.1641    0.5269    0.3063 H   0  0  0  0  0  0  0  0  0  0  0  0
   -0.0823   -2.4541   -0.6601 H   0  0  0  0  0  0  0  0  0  0  0  0
   -0.5948   -1.8954    1.3977 H   0  0  0  0  0  0  0  0  0  0  0  0
  1  2  1  0
  2  3  1  0
  3  4  1  0
  4  5  1  0
  4  6  1  0
  6  7  1  0
  6  8  1  0
  8  9  2  0
  6  2  1  0
  1 10  1  0
  1 11  1  0
  1 12  1  0
  2 13  1  0
  4 14  1  0
  5 15  1  0
  5 16  1  0
  5 17  1  0
  7 18  1  0
  8 19  1  0
M  END
