
     RDKit          3D

 16 18  0  0  0  0  0  0  0  0999 V2000
   -2.3008    0.0494   -0.1526 C   0  0  0  0  0  0  0  0  0  0  0  0
   -1.0858   -0.6783    0.3494 C   0  0  0  0  0  0  0  0  0  0  0  0
   -0.3915    0.2404    1.3127 O   0  0  0  0  0  0  0  0  0  0  0  0
    0.1801   -0.3072    0.0502 C   0  0  0  0  0  0  0  0  0  0  0  0
    0.7784    0.7758   -0.7462 C   0  0  0  0  0  0  0  0  0  0  0  0
    2.1370    0.3445   -0.2002 C   0  0  0  0  0  0  0  0  0  0  0  0
    2.5366   -0.8953   -0.5819 O   0  0  0  0  0  0  0  0  0  0  0  0
    1.5014   -0.8924    0.3423 C   0  0  0  0  0  0  0  0  0  0  0  0
   -2.7046   -0.4099   -1.0701 H   0  0  0  0  0  0  0  0  0  0  0  0
   -3.0518    0.0372    0.6852 H   0  0  0  0  0  0  0  0  0  0  0  0
   -2.1020    1.1446   -0.3238 H   0  0  0  0  0  0  0  0  0  0  0  0
   -1.3229   -1.5940    0.9211 H   0  0  0  0  0  0  0  0  0  0  0  0
    0.8019    0.6491   -1.8532 H   0  0  0  0  0  0  0  0  0  0  0  0
    0.5443    1.8152   -0.4678 H   0  0  0  0  0  0  0  0  0  0  0  0
    2.7161    1.0200    0.4129 H   0  0  0  0  0  0  0  0  0  0  0  0
    1.7637   -1.2990    1.3219 H   0  0  0  0  0  0  0  0  0  0  0  0
  1  2  1  0
  2  3  1  0
  3  4  1  0
  4  5  1  0
  5  6  1  0
  6  7  1  0
  7  8  1  0
  4  2  1  0
  8  6  1  0
  8  4  1  0
  1  9  1  0
  1 10  1  0
  1 11  1  0
  2 12  1  0
  5 13  1  0
  5 14  1  0
  6 15  1  0
  8 16  1  0
M  END
