
     RDKit          3D

 21 21  0  0  0  0  0  0  0  0999 V2000
   -0.8066    2.0176   -0.2691 C   0  0  0  0  0  0  0  0  0  0  0  0
   -0.9506    0.5768   -0.7145 C   0  0  0  0  0  0  0  0  0  0  0  0
    0.2481    0.2370   -1.3840 O   0  0  0  0  0  0  0  0  0  0  0  0
    1.0565   -0.1187   -0.3109 C   0  0  0  0  0  0  0  0  0  0  0  0
    2.3684   -0.7095   -0.7559 C   0  0  0  0  0  0  0  0  0  0  0  0
    3.1102   -1.0349    0.3764 O   0  0  0  0  0  0  0  0  0  0  0  0
    0.2506   -1.0543    0.3398 O   0  0  0  0  0  0  0  0  0  0  0  0
   -0.9223   -0.3571    0.4853 C   0  0  0  0  0  0  0  0  0  0  0  0
   -2.1578   -1.2098    0.4245 C   0  0  0  0  0  0  0  0  0  0  0  0
   -1.5427    2.6399   -0.8250 H   0  0  0  0  0  0  0  0  0  0  0  0
    0.2038    2.4318   -0.5019 H   0  0  0  0  0  0  0  0  0  0  0  0
   -0.9241    2.1146    0.8320 H   0  0  0  0  0  0  0  0  0  0  0  0
   -1.8328    0.4152   -1.3451 H   0  0  0  0  0  0  0  0  0  0  0  0
    1.1845    0.7261    0.3621 H   0  0  0  0  0  0  0  0  0  0  0  0
    2.9289    0.0839   -1.2859 H   0  0  0  0  0  0  0  0  0  0  0  0
    2.2129   -1.5842   -1.3904 H   0  0  0  0  0  0  0  0  0  0  0  0
    4.0382   -1.2345    0.0510 H   0  0  0  0  0  0  0  0  0  0  0  0
   -0.9144    0.1933    1.4250 H   0  0  0  0  0  0  0  0  0  0  0  0
   -3.0315   -0.5074    0.4036 H   0  0  0  0  0  0  0  0  0  0  0  0
   -2.2926   -1.8178    1.3428 H   0  0  0  0  0  0  0  0  0  0  0  0
   -2.2268   -1.8079   -0.4913 H   0  0  0  0  0  0  0  0  0  0  0  0
  1  2  1  0
  2  3  1  0
  3  4  1  0
  4  5  1  0
  5  6  1  0
  4  7  1  0
  7  8  1  0
  8  9  1  0
  8  2  1  0
  1 10  1  0
  1 11  1  0
  1 12  1  0
  2 13  1  0
  4 14  1  0
  5 15  1  0
  5 16  1  0
  6 17  1  0
  8 18  1  0
  9 19  1  0
  9 20  1  0
  9 21  1  0
M  END
