
     RDKit          3D

 21 22  0  0  0  0  0  0  0  0999 V2000
    2.2484   -0.0413   -0.2107 C   0  0  0  0  0  0  0  0  0  0  0  0
    1.0407   -0.1823    0.6577 C   0  0  0  0  0  0  0  0  0  0  0  0
    0.6547   -1.5461    0.7437 O   0  0  0  0  0  0  0  0  0  0  0  0
   -0.6553   -1.5170    0.3469 C   0  0  0  0  0  0  0  0  0  0  0  0
   -1.2446   -0.2611    1.0091 C   0  0  0  0  0  0  0  0  0  0  0  0
   -0.1999    0.4175    0.1077 C   0  0  0  0  0  0  0  0  0  0  0  0
   -0.3364    1.8015   -0.2074 C   0  0  0  0  0  0  0  0  0  0  0  0
   -0.6265   -0.6423   -0.9162 C   0  0  0  0  0  0  0  0  0  0  0  0
   -1.8757   -0.3434   -1.4188 O   0  0  0  0  0  0  0  0  0  0  0  0
    3.0731   -0.6253    0.2763 H   0  0  0  0  0  0  0  0  0  0  0  0
    2.1135   -0.4400   -1.2363 H   0  0  0  0  0  0  0  0  0  0  0  0
    2.5729    1.0030   -0.2117 H   0  0  0  0  0  0  0  0  0  0  0  0
    1.2985    0.1256    1.6734 H   0  0  0  0  0  0  0  0  0  0  0  0
   -1.2576   -2.3868    0.3260 H   0  0  0  0  0  0  0  0  0  0  0  0
   -0.9613   -0.1344    2.0565 H   0  0  0  0  0  0  0  0  0  0  0  0
   -2.2592   -0.0278    0.7017 H   0  0  0  0  0  0  0  0  0  0  0  0
   -0.2495    1.9826   -1.3189 H   0  0  0  0  0  0  0  0  0  0  0  0
    0.4438    2.4227    0.2981 H   0  0  0  0  0  0  0  0  0  0  0  0
   -1.3291    2.2254    0.0678 H   0  0  0  0  0  0  0  0  0  0  0  0
    0.1486   -0.9202   -1.6379 H   0  0  0  0  0  0  0  0  0  0  0  0
   -2.5991   -0.9103   -1.1071 H   0  0  0  0  0  0  0  0  0  0  0  0
  1  2  1  0
  2  3  1  0
  3  4  1  0
  4  5  1  0
  5  6  1  0
  6  7  1  0
  6  8  1  0
  8  9  1  0
  6  2  1  0
  8  4  1  0
  1 10  1  0
  1 11  1  0
  1 12  1  0
  2 13  1  0
  4 14  1  0
  5 15  1  0
  5 16  1  0
  7 17  1  0
  7 18  1  0
  7 19  1  0
  8 20  1  0
  9 21  1  0
M  END
