
     RDKit          3D

 17 17  0  0  0  0  0  0  0  0999 V2000
   -2.7893    0.1084    0.1820 C   0  0  0  0  0  0  0  0  0  0  0  0
   -1.5152   -0.7063    0.1397 C   0  0  0  0  0  0  0  0  0  0  0  0
   -0.9427   -0.7523   -1.1963 O   0  0  0  0  0  0  0  0  0  0  0  0
   -0.2846   -0.0441   -0.1942 C   0  0  0  0  0  0  0  0  0  0  0  0
    1.0716   -0.5184    0.2819 C   0  0  0  0  0  0  0  0  0  0  0  0
    2.0957    0.4340   -0.2792 C   0  0  0  0  0  0  0  0  0  0  0  0
    3.3907    0.1181    0.0791 O   0  0  0  0  0  0  0  0  0  0  0  0
   -3.0939    0.3128    1.2092 H   0  0  0  0  0  0  0  0  0  0  0  0
   -2.5840    1.0918   -0.2978 H   0  0  0  0  0  0  0  0  0  0  0  0
   -3.6068   -0.3510   -0.4064 H   0  0  0  0  0  0  0  0  0  0  0  0
   -1.4997   -1.7125    0.5727 H   0  0  0  0  0  0  0  0  0  0  0  0
   -0.3423    1.0693   -0.3677 H   0  0  0  0  0  0  0  0  0  0  0  0
    1.2754   -1.5726    0.0209 H   0  0  0  0  0  0  0  0  0  0  0  0
    1.0911   -0.3884    1.3979 H   0  0  0  0  0  0  0  0  0  0  0  0
    1.9679    0.5113   -1.3895 H   0  0  0  0  0  0  0  0  0  0  0  0
    1.8311    1.4486    0.1111 H   0  0  0  0  0  0  0  0  0  0  0  0
    3.9350    0.9514    0.1367 H   0  0  0  0  0  0  0  0  0  0  0  0
  1  2  1  0
  2  3  1  0
  3  4  1  0
  4  5  1  0
  5  6  1  0
  6  7  1  0
  4  2  1  0
  1  8  1  0
  1  9  1  0
  1 10  1  0
  2 11  1  0
  4 12  1  0
  5 13  1  0
  5 14  1  0
  6 15  1  0
  6 16  1  0
  7 17  1  0
M  END
