
     RDKit          3D

 19 19  0  0  0  0  0  0  0  0999 V2000
    2.5005    0.0677    0.1340 C   0  0  0  0  0  0  0  0  0  0  0  0
    1.3093   -0.8964    0.1929 C   0  0  0  0  0  0  0  0  0  0  0  0
    0.8493   -1.0042   -1.1420 O   0  0  0  0  0  0  0  0  0  0  0  0
   -0.1389   -0.0344   -1.2626 C   0  0  0  0  0  0  0  0  0  0  0  0
   -0.4779    0.5906   -2.3172 O   0  0  0  0  0  0  0  0  0  0  0  0
   -0.6906    0.0925    0.1066 C   0  0  0  0  0  0  0  0  0  0  0  0
   -1.8688   -0.8887    0.1778 C   0  0  0  0  0  0  0  0  0  0  0  0
   -1.2029    1.4625    0.4127 C   0  0  0  0  0  0  0  0  0  0  0  0
    0.3055   -0.3394    0.9420 O   0  0  0  0  0  0  0  0  0  0  0  0
    3.2027   -0.3946   -0.6050 H   0  0  0  0  0  0  0  0  0  0  0  0
    2.0958    0.9887   -0.3563 H   0  0  0  0  0  0  0  0  0  0  0  0
    2.9426    0.2456    1.1130 H   0  0  0  0  0  0  0  0  0  0  0  0
    1.6316   -1.8941    0.5978 H   0  0  0  0  0  0  0  0  0  0  0  0
   -1.5555   -1.8086   -0.3982 H   0  0  0  0  0  0  0  0  0  0  0  0
   -2.0872   -1.1275    1.2179 H   0  0  0  0  0  0  0  0  0  0  0  0
   -2.7100   -0.4622   -0.3810 H   0  0  0  0  0  0  0  0  0  0  0  0
   -2.1962    1.6007   -0.0614 H   0  0  0  0  0  0  0  0  0  0  0  0
   -0.5408    2.2815    0.1158 H   0  0  0  0  0  0  0  0  0  0  0  0
   -1.3685    1.5201    1.5132 H   0  0  0  0  0  0  0  0  0  0  0  0
  1  2  1  0
  2  3  1  0
  3  4  1  0
  4  5  2  0
  4  6  1  0
  6  7  1  0
  6  8  1  0
  6  9  1  0
  9  2  1  0
  1 10  1  0
  1 11  1  0
  1 12  1  0
  2 13  1  0
  7 14  1  0
  7 15  1  0
  7 16  1  0
  8 17  1  0
  8 18  1  0
  8 19  1  0
M  END
