
     RDKit          3D

 19 19  0  0  0  0  0  0  0  0999 V2000
    2.6026    0.3037    0.2115 C   0  0  0  0  0  0  0  0  0  0  0  0
    1.4933   -0.3361   -0.5830 C   0  0  0  0  0  0  0  0  0  0  0  0
    1.1135   -1.5206    0.0065 O   0  0  0  0  0  0  0  0  0  0  0  0
   -0.0703   -1.3146    0.6746 C   0  0  0  0  0  0  0  0  0  0  0  0
   -0.5073    0.0927    0.3210 C   0  0  0  0  0  0  0  0  0  0  0  0
   -1.9348    0.0392   -0.1054 C   0  0  0  0  0  0  0  0  0  0  0  0
   -2.4959    1.3426   -0.4804 C   0  0  0  0  0  0  0  0  0  0  0  0
   -1.8309    2.3520   -0.4360 O   0  0  0  0  0  0  0  0  0  0  0  0
    0.3660    0.4764   -0.6663 O   0  0  0  0  0  0  0  0  0  0  0  0
    2.2182    1.0128    0.9769 H   0  0  0  0  0  0  0  0  0  0  0  0
    3.1701   -0.4780    0.7558 H   0  0  0  0  0  0  0  0  0  0  0  0
    3.3372    0.8370   -0.4423 H   0  0  0  0  0  0  0  0  0  0  0  0
    1.8966   -0.4954   -1.6169 H   0  0  0  0  0  0  0  0  0  0  0  0
    0.0170   -1.3577    1.7762 H   0  0  0  0  0  0  0  0  0  0  0  0
   -0.8128   -2.0602    0.3723 H   0  0  0  0  0  0  0  0  0  0  0  0
   -0.4286    0.7723    1.1875 H   0  0  0  0  0  0  0  0  0  0  0  0
   -2.5249   -0.3672    0.7564 H   0  0  0  0  0  0  0  0  0  0  0  0
   -2.0902   -0.7072   -0.9282 H   0  0  0  0  0  0  0  0  0  0  0  0
   -3.5188    1.4082   -0.8023 H   0  0  0  0  0  0  0  0  0  0  0  0
  1  2  1  0
  2  3  1  0
  3  4  1  0
  4  5  1  0
  5  6  1  0
  6  7  1  0
  7  8  2  0
  5  9  1  0
  9  2  1  0
  1 10  1  0
  1 11  1  0
  1 12  1  0
  2 13  1  0
  4 14  1  0
  4 15  1  0
  5 16  1  0
  6 17  1  0
  6 18  1  0
  7 19  1  0
M  END
