
     RDKit          3D

 20 21  0  0  0  0  0  0  0  0999 V2000
   -1.6624    1.9003   -0.0637 C   0  0  0  0  0  0  0  0  0  0  0  0
   -0.4544    1.0871   -0.3994 C   0  0  0  0  0  0  0  0  0  0  0  0
    0.6874    1.3587    0.3780 O   0  0  0  0  0  0  0  0  0  0  0  0
    0.9269    0.0087    0.3900 C   0  0  0  0  0  0  0  0  0  0  0  0
    1.9686   -0.6661   -0.3580 C   0  0  0  0  0  0  0  0  0  0  0  0
    1.9081   -0.6734    1.1928 C   0  0  0  0  0  0  0  0  0  0  0  0
   -0.5174   -0.2618    0.3195 C   0  0  0  0  0  0  0  0  0  0  0  0
   -0.9947   -1.3556   -0.5843 C   0  0  0  0  0  0  0  0  0  0  0  0
   -1.7663    1.9233    1.0411 H   0  0  0  0  0  0  0  0  0  0  0  0
   -1.6577    2.8986   -0.5291 H   0  0  0  0  0  0  0  0  0  0  0  0
   -2.5626    1.3771   -0.4471 H   0  0  0  0  0  0  0  0  0  0  0  0
   -0.2447    0.9540   -1.4673 H   0  0  0  0  0  0  0  0  0  0  0  0
    1.8598   -1.6328   -0.8694 H   0  0  0  0  0  0  0  0  0  0  0  0
    2.7925   -0.0260   -0.7708 H   0  0  0  0  0  0  0  0  0  0  0  0
    2.7362   -0.1661    1.7219 H   0  0  0  0  0  0  0  0  0  0  0  0
    1.6512   -1.6679    1.6401 H   0  0  0  0  0  0  0  0  0  0  0  0
   -1.1138   -0.2000    1.2556 H   0  0  0  0  0  0  0  0  0  0  0  0
   -2.1082   -1.4209   -0.4548 H   0  0  0  0  0  0  0  0  0  0  0  0
   -0.6064   -2.3543   -0.3358 H   0  0  0  0  0  0  0  0  0  0  0  0
   -0.8421   -1.0827   -1.6594 H   0  0  0  0  0  0  0  0  0  0  0  0
  1  2  1  0
  2  3  1  0
  3  4  1  0
  4  5  1  0
  5  6  1  0
  4  7  1  0
  7  8  1  0
  7  2  1  0
  6  4  1  0
  1  9  1  0
  1 10  1  0
  1 11  1  0
  2 12  1  0
  5 13  1  0
  5 14  1  0
  6 15  1  0
  6 16  1  0
  7 17  1  0
  8 18  1  0
  8 19  1  0
  8 20  1  0
M  END
