
     RDKit          3D

 21 22  0  0  0  0  0  0  0  0999 V2000
    2.2490   -1.0194    0.6533 C   0  0  0  0  0  0  0  0  0  0  0  0
    1.2019   -0.5175   -0.2868 C   0  0  0  0  0  0  0  0  0  0  0  0
    0.0298   -1.2423   -0.2127 O   0  0  0  0  0  0  0  0  0  0  0  0
   -0.8159   -0.5151    0.6235 C   0  0  0  0  0  0  0  0  0  0  0  0
   -2.1938   -1.0549    0.5428 C   0  0  0  0  0  0  0  0  0  0  0  0
   -0.6595    0.9214    0.3056 C   0  0  0  0  0  0  0  0  0  0  0  0
   -1.0324    1.8357    1.2864 O   0  0  0  0  0  0  0  0  0  0  0  0
   -0.2258    1.4256   -1.0093 C   0  0  0  0  0  0  0  0  0  0  0  0
    0.8548    0.9324   -0.0950 C   0  0  0  0  0  0  0  0  0  0  0  0
    3.1827   -0.4638    0.5147 H   0  0  0  0  0  0  0  0  0  0  0  0
    2.4285   -2.0781    0.4427 H   0  0  0  0  0  0  0  0  0  0  0  0
    1.9016   -0.8725    1.6932 H   0  0  0  0  0  0  0  0  0  0  0  0
    1.5635   -0.6153   -1.3516 H   0  0  0  0  0  0  0  0  0  0  0  0
   -0.4250   -0.6785    1.6681 H   0  0  0  0  0  0  0  0  0  0  0  0
   -2.8001   -0.8425    1.4689 H   0  0  0  0  0  0  0  0  0  0  0  0
   -2.6965   -0.7203   -0.3764 H   0  0  0  0  0  0  0  0  0  0  0  0
   -2.1138   -2.1824    0.5342 H   0  0  0  0  0  0  0  0  0  0  0  0
   -1.2513    2.6841    0.7934 H   0  0  0  0  0  0  0  0  0  0  0  0
   -0.2296    2.5283   -1.1256 H   0  0  0  0  0  0  0  0  0  0  0  0
   -0.4297    0.8763   -1.9495 H   0  0  0  0  0  0  0  0  0  0  0  0
    1.4615    1.5989    0.5067 H   0  0  0  0  0  0  0  0  0  0  0  0
  1  2  1  0
  2  3  1  0
  3  4  1  0
  4  5  1  0
  4  6  1  0
  6  7  1  0
  6  8  1  0
  8  9  1  0
  9  2  1  0
  9  6  1  0
  1 10  1  0
  1 11  1  0
  1 12  1  0
  2 13  1  0
  4 14  1  0
  5 15  1  0
  5 16  1  0
  5 17  1  0
  7 18  1  0
  8 19  1  0
  8 20  1  0
  9 21  1  0
M  END
