
     RDKit          3D

 19 21  0  0  0  0  0  0  0  0999 V2000
    2.8232    0.0274   -0.2750 C   0  0  0  0  0  0  0  0  0  0  0  0
    1.3859    0.3033   -0.6198 C   0  0  0  0  0  0  0  0  0  0  0  0
    0.7430   -0.7845   -1.1832 O   0  0  0  0  0  0  0  0  0  0  0  0
    0.0733   -0.9674    0.0059 C   0  0  0  0  0  0  0  0  0  0  0  0
    0.5150    0.2999    0.5973 C   0  0  0  0  0  0  0  0  0  0  0  0
   -0.8810    0.0095    0.4593 C   0  0  0  0  0  0  0  0  0  0  0  0
   -1.8803    0.7389   -0.3359 C   0  0  0  0  0  0  0  0  0  0  0  0
   -2.7785   -0.2667    0.4006 C   0  0  0  0  0  0  0  0  0  0  0  0
   -1.7982   -0.2503    1.4209 O   0  0  0  0  0  0  0  0  0  0  0  0
    3.2831   -0.7483   -0.9021 H   0  0  0  0  0  0  0  0  0  0  0  0
    2.9182   -0.2727    0.7877 H   0  0  0  0  0  0  0  0  0  0  0  0
    3.4350    0.9429   -0.3953 H   0  0  0  0  0  0  0  0  0  0  0  0
    1.2956    1.1781   -1.2923 H   0  0  0  0  0  0  0  0  0  0  0  0
    0.2912   -1.9193    0.5702 H   0  0  0  0  0  0  0  0  0  0  0  0
    0.9852    0.3905    1.5872 H   0  0  0  0  0  0  0  0  0  0  0  0
   -1.8987    0.6419   -1.4175 H   0  0  0  0  0  0  0  0  0  0  0  0
   -2.0156    1.7840    0.0654 H   0  0  0  0  0  0  0  0  0  0  0  0
   -2.7405   -1.2205   -0.1617 H   0  0  0  0  0  0  0  0  0  0  0  0
   -3.7558    0.1132    0.6886 H   0  0  0  0  0  0  0  0  0  0  0  0
  1  2  1  0
  2  3  1  0
  3  4  1  0
  4  5  1  0
  5  6  1  0
  6  7  1  0
  7  8  1  0
  8  9  1  0
  5  2  1  0
  9  6  1  0
  6  4  1  0
  1 10  1  0
  1 11  1  0
  1 12  1  0
  2 13  1  0
  4 14  1  0
  5 15  1  0
  7 16  1  0
  7 17  1  0
  8 18  1  0
  8 19  1  0
M  END
