
     RDKit          3D

 21 22  0  0  0  0  0  0  0  0999 V2000
   -2.5247    0.0272   -0.0446 C   0  0  0  0  0  0  0  0  0  0  0  0
   -1.1987   -0.0043   -0.7630 C   0  0  0  0  0  0  0  0  0  0  0  0
   -0.6195    1.2659   -0.7259 O   0  0  0  0  0  0  0  0  0  0  0  0
   -0.0035    0.8773    0.4773 C   0  0  0  0  0  0  0  0  0  0  0  0
    1.4575    1.2355    0.4251 C   0  0  0  0  0  0  0  0  0  0  0  0
    2.1742    0.0859   -0.2278 C   0  0  0  0  0  0  0  0  0  0  0  0
    1.1517   -0.9673   -0.5345 C   0  0  0  0  0  0  0  0  0  0  0  0
   -0.1300   -0.5684    0.1104 C   0  0  0  0  0  0  0  0  0  0  0  0
   -0.6229   -1.4152    1.0841 O   0  0  0  0  0  0  0  0  0  0  0  0
   -2.7213   -0.9736    0.3773 H   0  0  0  0  0  0  0  0  0  0  0  0
   -2.4850    0.8072    0.7451 H   0  0  0  0  0  0  0  0  0  0  0  0
   -3.3748    0.2679   -0.7059 H   0  0  0  0  0  0  0  0  0  0  0  0
   -1.2477   -0.3513   -1.8020 H   0  0  0  0  0  0  0  0  0  0  0  0
   -0.5249    1.1795    1.3913 H   0  0  0  0  0  0  0  0  0  0  0  0
    1.8621    1.4681    1.4409 H   0  0  0  0  0  0  0  0  0  0  0  0
    1.5843    2.1956   -0.1510 H   0  0  0  0  0  0  0  0  0  0  0  0
    2.9626   -0.2543    0.4783 H   0  0  0  0  0  0  0  0  0  0  0  0
    2.6423    0.4703   -1.1525 H   0  0  0  0  0  0  0  0  0  0  0  0
    1.0737   -1.1867   -1.6158 H   0  0  0  0  0  0  0  0  0  0  0  0
    1.5045   -1.9138   -0.0410 H   0  0  0  0  0  0  0  0  0  0  0  0
   -0.9599   -2.2454    0.6521 H   0  0  0  0  0  0  0  0  0  0  0  0
  1  2  1  0
  2  3  1  0
  3  4  1  0
  4  5  1  0
  5  6  1  0
  6  7  1  0
  7  8  1  0
  8  9  1  0
  8  2  1  0
  8  4  1  0
  1 10  1  0
  1 11  1  0
  1 12  1  0
  2 13  1  0
  4 14  1  0
  5 15  1  0
  5 16  1  0
  6 17  1  0
  6 18  1  0
  7 19  1  0
  7 20  1  0
  9 21  1  0
M  END
