
     RDKit          3D

 19 21  0  0  0  0  0  0  0  0999 V2000
   -2.2467   -1.0254    0.5760 C   0  0  0  0  0  0  0  0  0  0  0  0
   -1.6459    0.2565    0.0258 C   0  0  0  0  0  0  0  0  0  0  0  0
   -0.7534    0.8851    1.0581 O   0  0  0  0  0  0  0  0  0  0  0  0
   -0.3392    0.4712   -0.1665 C   0  0  0  0  0  0  0  0  0  0  0  0
    0.2126    1.4883   -1.1756 C   0  0  0  0  0  0  0  0  0  0  0  0
    0.8931    0.3942   -1.7619 O   0  0  0  0  0  0  0  0  0  0  0  0
    0.8758   -0.1729   -0.5297 C   0  0  0  0  0  0  0  0  0  0  0  0
    1.6742   -1.2113    0.0073 C   0  0  0  0  0  0  0  0  0  0  0  0
    2.1192    0.1911    0.3364 C   0  0  0  0  0  0  0  0  0  0  0  0
   -2.6216   -1.5969   -0.3060 H   0  0  0  0  0  0  0  0  0  0  0  0
   -1.5603   -1.5865    1.2083 H   0  0  0  0  0  0  0  0  0  0  0  0
   -3.1742   -0.7986    1.1767 H   0  0  0  0  0  0  0  0  0  0  0  0
   -2.4519    1.0290   -0.1539 H   0  0  0  0  0  0  0  0  0  0  0  0
    0.9610    2.1119   -0.6610 H   0  0  0  0  0  0  0  0  0  0  0  0
   -0.5294    1.9674   -1.7969 H   0  0  0  0  0  0  0  0  0  0  0  0
    2.3634   -1.7798   -0.6840 H   0  0  0  0  0  0  0  0  0  0  0  0
    1.3301   -1.8251    0.8399 H   0  0  0  0  0  0  0  0  0  0  0  0
    1.8935    0.6246    1.3328 H   0  0  0  0  0  0  0  0  0  0  0  0
    2.9996    0.5772   -0.2082 H   0  0  0  0  0  0  0  0  0  0  0  0
  1  2  1  0
  2  3  1  0
  3  4  1  0
  4  5  1  0
  5  6  1  0
  6  7  1  0
  7  8  1  0
  8  9  1  0
  4  2  1  0
  9  7  1  0
  7  4  1  0
  1 10  1  0
  1 11  1  0
  1 12  1  0
  2 13  1  0
  5 14  1  0
  5 15  1  0
  8 16  1  0
  8 17  1  0
  9 18  1  0
  9 19  1  0
M  END
