
     RDKit          3D

 19 20  0  0  0  0  0  0  0  0999 V2000
    2.4242   -1.0473   -0.2669 C   0  0  0  0  0  0  0  0  0  0  0  0
    1.0804   -0.5953    0.2160 C   0  0  0  0  0  0  0  0  0  0  0  0
    0.0804   -0.7311   -0.7266 O   0  0  0  0  0  0  0  0  0  0  0  0
   -0.9737    0.0383   -0.2883 C   0  0  0  0  0  0  0  0  0  0  0  0
   -2.2281   -0.6287    0.1696 C   0  0  0  0  0  0  0  0  0  0  0  0
   -1.0448    1.4475   -0.8003 C   0  0  0  0  0  0  0  0  0  0  0  0
   -0.4111    1.1983    0.4932 C   0  0  0  0  0  0  0  0  0  0  0  0
    1.0282    0.8466    0.5417 C   0  0  0  0  0  0  0  0  0  0  0  0
    1.9170    1.6206    0.7989 O   0  0  0  0  0  0  0  0  0  0  0  0
    3.2473   -0.4500    0.1721 H   0  0  0  0  0  0  0  0  0  0  0  0
    2.5348   -1.0950   -1.3490 H   0  0  0  0  0  0  0  0  0  0  0  0
    2.5764   -2.0950    0.1259 H   0  0  0  0  0  0  0  0  0  0  0  0
    0.7386   -1.1584    1.1224 H   0  0  0  0  0  0  0  0  0  0  0  0
   -2.7666   -1.0255   -0.7314 H   0  0  0  0  0  0  0  0  0  0  0  0
   -1.9949   -1.5299    0.7870 H   0  0  0  0  0  0  0  0  0  0  0  0
   -2.8433    0.0891    0.7449 H   0  0  0  0  0  0  0  0  0  0  0  0
   -2.0471    1.9298   -0.7766 H   0  0  0  0  0  0  0  0  0  0  0  0
   -0.4421    1.6998   -1.6903 H   0  0  0  0  0  0  0  0  0  0  0  0
   -0.8756    1.4861    1.4576 H   0  0  0  0  0  0  0  0  0  0  0  0
  1  2  1  0
  2  3  1  0
  3  4  1  0
  4  5  1  0
  4  6  1  0
  6  7  1  0
  7  8  1  0
  8  9  2  0
  8  2  1  0
  7  4  1  0
  1 10  1  0
  1 11  1  0
  1 12  1  0
  2 13  1  0
  5 14  1  0
  5 15  1  0
  5 16  1  0
  6 17  1  0
  6 18  1  0
  7 19  1  0
M  END
