
     RDKit          3D

 17 18  0  0  0  0  0  0  0  0999 V2000
    2.2402    0.3433   -0.7072 C   0  0  0  0  0  0  0  0  0  0  0  0
    1.1015    0.7797    0.1964 C   0  0  0  0  0  0  0  0  0  0  0  0
    1.0564   -0.0059    1.4511 O   0  0  0  0  0  0  0  0  0  0  0  0
    0.0524   -0.0647    0.4919 C   0  0  0  0  0  0  0  0  0  0  0  0
   -1.3106    0.3348    0.9879 C   0  0  0  0  0  0  0  0  0  0  0  0
   -2.2103   -0.1692   -0.1121 C   0  0  0  0  0  0  0  0  0  0  0  0
   -1.5050   -1.2530   -0.7156 O   0  0  0  0  0  0  0  0  0  0  0  0
   -0.2246   -1.3359   -0.2070 C   0  0  0  0  0  0  0  0  0  0  0  0
    0.5868   -2.2835   -0.2936 O   0  0  0  0  0  0  0  0  0  0  0  0
    1.8690   -0.0057   -1.7008 H   0  0  0  0  0  0  0  0  0  0  0  0
    2.9617    1.1651   -0.8912 H   0  0  0  0  0  0  0  0  0  0  0  0
    2.7897   -0.5361   -0.2827 H   0  0  0  0  0  0  0  0  0  0  0  0
    1.0793    1.8740    0.3882 H   0  0  0  0  0  0  0  0  0  0  0  0
   -1.4234    1.3899    1.2179 H   0  0  0  0  0  0  0  0  0  0  0  0
   -1.4857   -0.2652    1.9276 H   0  0  0  0  0  0  0  0  0  0  0  0
   -3.1536   -0.6083    0.2851 H   0  0  0  0  0  0  0  0  0  0  0  0
   -2.4237    0.6407   -0.8437 H   0  0  0  0  0  0  0  0  0  0  0  0
  1  2  1  0
  2  3  1  0
  3  4  1  0
  4  5  1  0
  5  6  1  0
  6  7  1  0
  7  8  1  0
  8  9  2  0
  4  2  1  0
  8  4  1  0
  1 10  1  0
  1 11  1  0
  1 12  1  0
  2 13  1  0
  5 14  1  0
  5 15  1  0
  6 16  1  0
  6 17  1  0
M  END
