
     RDKit          3D

 21 22  0  0  0  0  0  0  0  0999 V2000
    2.3155   -1.0158   -0.2967 C   0  0  0  0  0  0  0  0  0  0  0  0
    1.1216   -0.1683   -0.6307 C   0  0  0  0  0  0  0  0  0  0  0  0
    0.1062   -0.9170   -1.2291 O   0  0  0  0  0  0  0  0  0  0  0  0
   -0.7371   -0.5594   -0.2241 C   0  0  0  0  0  0  0  0  0  0  0  0
   -2.0970   -0.0673   -0.3838 C   0  0  0  0  0  0  0  0  0  0  0  0
   -1.8242   -1.3875    0.2945 C   0  0  0  0  0  0  0  0  0  0  0  0
    0.2969    0.0999    0.5906 C   0  0  0  0  0  0  0  0  0  0  0  0
    0.0891    1.5935    0.7577 C   0  0  0  0  0  0  0  0  0  0  0  0
   -0.5666    2.0638   -0.3675 O   0  0  0  0  0  0  0  0  0  0  0  0
    2.0572   -2.0756   -0.1193 H   0  0  0  0  0  0  0  0  0  0  0  0
    3.0486   -0.9569   -1.1368 H   0  0  0  0  0  0  0  0  0  0  0  0
    2.8160   -0.5548    0.5794 H   0  0  0  0  0  0  0  0  0  0  0  0
    1.3424    0.7063   -1.2764 H   0  0  0  0  0  0  0  0  0  0  0  0
   -2.4732    0.7125    0.3235 H   0  0  0  0  0  0  0  0  0  0  0  0
   -2.5156   -0.0724   -1.4141 H   0  0  0  0  0  0  0  0  0  0  0  0
   -2.0645   -2.3297   -0.2572 H   0  0  0  0  0  0  0  0  0  0  0  0
   -1.9958   -1.4788    1.3979 H   0  0  0  0  0  0  0  0  0  0  0  0
    0.6270   -0.4022    1.5198 H   0  0  0  0  0  0  0  0  0  0  0  0
   -0.4603    1.8274    1.6980 H   0  0  0  0  0  0  0  0  0  0  0  0
    1.1107    2.0420    0.8178 H   0  0  0  0  0  0  0  0  0  0  0  0
   -0.1971    2.9401   -0.6435 H   0  0  0  0  0  0  0  0  0  0  0  0
  1  2  1  0
  2  3  1  0
  3  4  1  0
  4  5  1  0
  5  6  1  0
  4  7  1  0
  7  8  1  0
  8  9  1  0
  7  2  1  0
  6  4  1  0
  1 10  1  0
  1 11  1  0
  1 12  1  0
  2 13  1  0
  5 14  1  0
  5 15  1  0
  6 16  1  0
  6 17  1  0
  7 18  1  0
  8 19  1  0
  8 20  1  0
  9 21  1  0
M  END
