
     RDKit          3D

 17 17  0  0  0  0  0  0  0  0999 V2000
    1.6848    0.6228    0.0129 C   0  0  0  0  0  0  0  0  0  0  0  0
    0.7908   -0.5305   -0.3575 C   0  0  0  0  0  0  0  0  0  0  0  0
    0.9268   -1.5570    0.5480 O   0  0  0  0  0  0  0  0  0  0  0  0
   -0.4457   -1.6514    0.6302 C   0  0  0  0  0  0  0  0  0  0  0  0
   -0.6576   -0.3751   -0.1572 C   0  0  0  0  0  0  0  0  0  0  0  0
   -1.1441    0.7287    0.7330 C   0  0  0  0  0  0  0  0  0  0  0  0
   -0.7369    1.9953    0.2512 O   0  0  0  0  0  0  0  0  0  0  0  0
    1.6219    1.4622   -0.7121 H   0  0  0  0  0  0  0  0  0  0  0  0
    2.7295    0.2395   -0.0535 H   0  0  0  0  0  0  0  0  0  0  0  0
    1.5398    0.9426    1.0563 H   0  0  0  0  0  0  0  0  0  0  0  0
    1.0335   -0.8647   -1.3955 H   0  0  0  0  0  0  0  0  0  0  0  0
   -0.7565   -1.5792    1.7028 H   0  0  0  0  0  0  0  0  0  0  0  0
   -0.9001   -2.5409    0.1629 H   0  0  0  0  0  0  0  0  0  0  0  0
   -1.3138   -0.4758   -1.0463 H   0  0  0  0  0  0  0  0  0  0  0  0
   -0.9107    0.6070    1.7898 H   0  0  0  0  0  0  0  0  0  0  0  0
   -2.2607    0.7470    0.6565 H   0  0  0  0  0  0  0  0  0  0  0  0
   -1.2010    2.2296   -0.5743 H   0  0  0  0  0  0  0  0  0  0  0  0
  1  2  1  0
  2  3  1  0
  3  4  1  0
  4  5  1  0
  5  6  1  0
  6  7  1  0
  5  2  1  0
  1  8  1  0
  1  9  1  0
  1 10  1  0
  2 11  1  0
  4 12  1  0
  4 13  1  0
  5 14  1  0
  6 15  1  0
  6 16  1  0
  7 17  1  0
M  END
