
     RDKit          3D

 21 23  0  0  0  0  0  0  0  0999 V2000
    2.5947    0.4627    0.3819 C   0  0  0  0  0  0  0  0  0  0  0  0
    1.7277   -0.5407   -0.3589 C   0  0  0  0  0  0  0  0  0  0  0  0
    1.1845   -0.0360   -1.6303 O   0  0  0  0  0  0  0  0  0  0  0  0
    0.3636   -0.2257   -0.5622 C   0  0  0  0  0  0  0  0  0  0  0  0
   -0.7562   -1.2817   -0.6462 C   0  0  0  0  0  0  0  0  0  0  0  0
   -1.8514   -0.5167    0.0472 C   0  0  0  0  0  0  0  0  0  0  0  0
   -1.0795    0.0893    1.2277 C   0  0  0  0  0  0  0  0  0  0  0  0
   -0.3834    0.8720    0.1023 C   0  0  0  0  0  0  0  0  0  0  0  0
   -1.7662    0.8655   -0.5590 C   0  0  0  0  0  0  0  0  0  0  0  0
    2.9686    1.2337   -0.3224 H   0  0  0  0  0  0  0  0  0  0  0  0
    1.9049    0.9449    1.1360 H   0  0  0  0  0  0  0  0  0  0  0  0
    3.3677   -0.0397    0.9617 H   0  0  0  0  0  0  0  0  0  0  0  0
    2.1136   -1.5525   -0.5165 H   0  0  0  0  0  0  0  0  0  0  0  0
   -0.9866   -1.5425   -1.6856 H   0  0  0  0  0  0  0  0  0  0  0  0
   -0.4074   -2.1278   -0.0366 H   0  0  0  0  0  0  0  0  0  0  0  0
   -2.7881   -0.9581    0.2370 H   0  0  0  0  0  0  0  0  0  0  0  0
   -1.6622    0.7184    1.8904 H   0  0  0  0  0  0  0  0  0  0  0  0
   -0.4343   -0.6852    1.6578 H   0  0  0  0  0  0  0  0  0  0  0  0
    0.0550    1.7998    0.3425 H   0  0  0  0  0  0  0  0  0  0  0  0
   -1.7532    0.9249   -1.6471 H   0  0  0  0  0  0  0  0  0  0  0  0
   -2.4120    1.5954   -0.0199 H   0  0  0  0  0  0  0  0  0  0  0  0
  1  2  1  0
  2  3  1  0
  3  4  1  0
  4  5  1  0
  5  6  1  0
  6  7  1  0
  7  8  1  0
  8  9  1  0
  4  2  1  0
  9  6  1  0
  8  4  1  0
  1 10  1  0
  1 11  1  0
  1 12  1  0
  2 13  1  0
  5 14  1  0
  5 15  1  0
  6 16  1  0
  7 17  1  0
  7 18  1  0
  8 19  1  0
  9 20  1  0
  9 21  1  0
M  END
