
     RDKit          3D

 19 19  0  0  0  0  0  0  0  0999 V2000
    1.9266    0.1574   -0.5153 C   0  0  0  0  0  0  0  0  0  0  0  0
    0.4684    0.0614   -0.9501 C   0  0  0  0  0  0  0  0  0  0  0  0
   -0.0288    1.3702   -1.0718 O   0  0  0  0  0  0  0  0  0  0  0  0
   -0.2603    1.8256    0.2280 C   0  0  0  0  0  0  0  0  0  0  0  0
   -0.3109    3.0062    0.6525 O   0  0  0  0  0  0  0  0  0  0  0  0
   -0.4578    0.6524    1.1345 C   0  0  0  0  0  0  0  0  0  0  0  0
   -0.3275   -0.5186    0.1734 C   0  0  0  0  0  0  0  0  0  0  0  0
   -1.7126   -0.9319   -0.2197 C   0  0  0  0  0  0  0  0  0  0  0  0
    0.3141   -1.5668    0.8228 O   0  0  0  0  0  0  0  0  0  0  0  0
    1.9316    0.4440    0.5688 H   0  0  0  0  0  0  0  0  0  0  0  0
    2.4503    0.9496   -1.0640 H   0  0  0  0  0  0  0  0  0  0  0  0
    2.3898   -0.8321   -0.6384 H   0  0  0  0  0  0  0  0  0  0  0  0
    0.3781   -0.5366   -1.8771 H   0  0  0  0  0  0  0  0  0  0  0  0
   -1.4338    0.6602    1.6342 H   0  0  0  0  0  0  0  0  0  0  0  0
    0.3534    0.5587    1.8802 H   0  0  0  0  0  0  0  0  0  0  0  0
   -1.7621   -1.5377   -1.1240 H   0  0  0  0  0  0  0  0  0  0  0  0
   -2.1295   -1.5180    0.6504 H   0  0  0  0  0  0  0  0  0  0  0  0
   -2.3604   -0.0281   -0.4009 H   0  0  0  0  0  0  0  0  0  0  0  0
    0.5713   -2.2161    0.1165 H   0  0  0  0  0  0  0  0  0  0  0  0
  1  2  1  0
  2  3  1  0
  3  4  1  0
  4  5  2  0
  4  6  1  0
  6  7  1  0
  7  8  1  0
  7  9  1  0
  7  2  1  0
  1 10  1  0
  1 11  1  0
  1 12  1  0
  2 13  1  0
  6 14  1  0
  6 15  1  0
  8 16  1  0
  8 17  1  0
  8 18  1  0
  9 19  1  0
M  END
