
     RDKit          3D

 21 22  0  0  0  0  0  0  0  0999 V2000
   -2.0697    1.1772   -0.0501 C   0  0  0  0  0  0  0  0  0  0  0  0
   -1.1303    0.3454   -0.8840 C   0  0  0  0  0  0  0  0  0  0  0  0
   -0.0063    1.1351   -1.2265 O   0  0  0  0  0  0  0  0  0  0  0  0
    0.8711    0.0961   -0.9119 C   0  0  0  0  0  0  0  0  0  0  0  0
    2.0895    0.5018   -0.1376 C   0  0  0  0  0  0  0  0  0  0  0  0
    1.8202    1.0777    1.0742 O   0  0  0  0  0  0  0  0  0  0  0  0
   -0.2218   -0.5652   -0.1723 C   0  0  0  0  0  0  0  0  0  0  0  0
   -0.3871   -1.9751    0.0525 C   0  0  0  0  0  0  0  0  0  0  0  0
   -0.2431   -0.9331    1.2095 C   0  0  0  0  0  0  0  0  0  0  0  0
   -2.6447    1.8361   -0.7320 H   0  0  0  0  0  0  0  0  0  0  0  0
   -2.8080    0.5637    0.5004 H   0  0  0  0  0  0  0  0  0  0  0  0
   -1.4421    1.7815    0.6583 H   0  0  0  0  0  0  0  0  0  0  0  0
   -1.6142   -0.1256   -1.7634 H   0  0  0  0  0  0  0  0  0  0  0  0
    1.1667   -0.4413   -1.8372 H   0  0  0  0  0  0  0  0  0  0  0  0
    2.7013   -0.4102    0.0174 H   0  0  0  0  0  0  0  0  0  0  0  0
    2.6971    1.2081   -0.7462 H   0  0  0  0  0  0  0  0  0  0  0  0
    2.5981    1.6000    1.3903 H   0  0  0  0  0  0  0  0  0  0  0  0
   -1.3786   -2.4407   -0.0444 H   0  0  0  0  0  0  0  0  0  0  0  0
    0.5119   -2.6479   -0.0382 H   0  0  0  0  0  0  0  0  0  0  0  0
    0.6643   -0.9992    1.8172 H   0  0  0  0  0  0  0  0  0  0  0  0
   -1.1742   -0.7844    1.8240 H   0  0  0  0  0  0  0  0  0  0  0  0
  1  2  1  0
  2  3  1  0
  3  4  1  0
  4  5  1  0
  5  6  1  0
  4  7  1  0
  7  8  1  0
  8  9  1  0
  7  2  1  0
  9  7  1  0
  1 10  1  0
  1 11  1  0
  1 12  1  0
  2 13  1  0
  4 14  1  0
  5 15  1  0
  5 16  1  0
  6 17  1  0
  8 18  1  0
  8 19  1  0
  9 20  1  0
  9 21  1  0
M  END
