
     RDKit          3D

 21 22  0  0  0  0  0  0  0  0999 V2000
    2.0664   -0.0397    0.4804 C   0  0  0  0  0  0  0  0  0  0  0  0
    0.9745    0.1736   -0.5061 C   0  0  0  0  0  0  0  0  0  0  0  0
    0.7990   -0.9943   -1.2503 O   0  0  0  0  0  0  0  0  0  0  0  0
   -0.5186   -1.4094   -1.0521 C   0  0  0  0  0  0  0  0  0  0  0  0
   -0.7737   -1.7535    0.3706 C   0  0  0  0  0  0  0  0  0  0  0  0
   -0.6467   -0.6353    1.0769 C   0  0  0  0  0  0  0  0  0  0  0  0
   -0.3621    0.4793    0.0964 C   0  0  0  0  0  0  0  0  0  0  0  0
   -0.6375    1.8160    0.5437 C   0  0  0  0  0  0  0  0  0  0  0  0
   -1.2232   -0.0332   -1.0753 C   0  0  0  0  0  0  0  0  0  0  0  0
    1.7515   -0.4488    1.4400 H   0  0  0  0  0  0  0  0  0  0  0  0
    2.6647    0.8940    0.6270 H   0  0  0  0  0  0  0  0  0  0  0  0
    2.8008   -0.7723    0.0368 H   0  0  0  0  0  0  0  0  0  0  0  0
    1.2548    1.0324   -1.1701 H   0  0  0  0  0  0  0  0  0  0  0  0
   -0.8974   -2.0894   -1.7814 H   0  0  0  0  0  0  0  0  0  0  0  0
   -1.0155   -2.7321    0.7452 H   0  0  0  0  0  0  0  0  0  0  0  0
   -0.7205   -0.4851    2.1408 H   0  0  0  0  0  0  0  0  0  0  0  0
   -1.4922    2.2673    0.0017 H   0  0  0  0  0  0  0  0  0  0  0  0
    0.2023    2.5392    0.4585 H   0  0  0  0  0  0  0  0  0  0  0  0
   -0.9607    1.8105    1.6269 H   0  0  0  0  0  0  0  0  0  0  0  0
   -2.2707   -0.1105   -0.8043 H   0  0  0  0  0  0  0  0  0  0  0  0
   -0.9953    0.4909   -2.0053 H   0  0  0  0  0  0  0  0  0  0  0  0
  1  2  1  0
  2  3  1  0
  3  4  1  0
  4  5  1  0
  5  6  2  0
  6  7  1  0
  7  8  1  0
  7  9  1  0
  7  2  1  0
  9  4  1  0
  1 10  1  0
  1 11  1  0
  1 12  1  0
  2 13  1  0
  4 14  1  0
  5 15  1  0
  6 16  1  0
  8 17  1  0
  8 18  1  0
  8 19  1  0
  9 20  1  0
  9 21  1  0
M  END
