
     RDKit          3D

 21 22  0  0  0  0  0  0  0  0999 V2000
    2.2216    1.1249    0.5804 C   0  0  0  0  0  0  0  0  0  0  0  0
    1.7168   -0.3046    0.7346 C   0  0  0  0  0  0  0  0  0  0  0  0
    0.4615   -0.2989    1.2912 O   0  0  0  0  0  0  0  0  0  0  0  0
   -0.1046   -0.5928    0.0765 C   0  0  0  0  0  0  0  0  0  0  0  0
   -1.0873    0.3172   -0.5799 C   0  0  0  0  0  0  0  0  0  0  0  0
   -2.2833    0.4660    0.3585 C   0  0  0  0  0  0  0  0  0  0  0  0
   -3.2510    1.2929   -0.1623 O   0  0  0  0  0  0  0  0  0  0  0  0
    0.1355   -1.9684   -0.4942 C   0  0  0  0  0  0  0  0  0  0  0  0
    1.1994   -0.9380   -0.5146 C   0  0  0  0  0  0  0  0  0  0  0  0
    3.0230    1.1805   -0.1795 H   0  0  0  0  0  0  0  0  0  0  0  0
    1.3445    1.7302    0.2867 H   0  0  0  0  0  0  0  0  0  0  0  0
    2.6143    1.4121    1.5851 H   0  0  0  0  0  0  0  0  0  0  0  0
    2.4650   -0.9714    1.2422 H   0  0  0  0  0  0  0  0  0  0  0  0
   -1.4886   -0.2131   -1.4822 H   0  0  0  0  0  0  0  0  0  0  0  0
   -0.6962    1.2826   -0.8953 H   0  0  0  0  0  0  0  0  0  0  0  0
   -1.8523    0.8702    1.3168 H   0  0  0  0  0  0  0  0  0  0  0  0
   -2.6900   -0.5185    0.6011 H   0  0  0  0  0  0  0  0  0  0  0  0
   -3.0367    1.6432   -1.0624 H   0  0  0  0  0  0  0  0  0  0  0  0
    0.1052   -2.7689    0.2657 H   0  0  0  0  0  0  0  0  0  0  0  0
   -0.3320   -2.1943   -1.4730 H   0  0  0  0  0  0  0  0  0  0  0  0
    1.5353   -0.5509   -1.4955 H   0  0  0  0  0  0  0  0  0  0  0  0
  1  2  1  0
  2  3  1  0
  3  4  1  0
  4  5  1  0
  5  6  1  0
  6  7  1  0
  4  8  1  0
  8  9  1  0
  9  2  1  0
  9  4  1  0
  1 10  1  0
  1 11  1  0
  1 12  1  0
  2 13  1  0
  5 14  1  0
  5 15  1  0
  6 16  1  0
  6 17  1  0
  7 18  1  0
  8 19  1  0
  8 20  1  0
  9 21  1  0
M  END
