
     RDKit          3D

 19 19  0  0  0  0  0  0  0  0999 V2000
    2.7443    0.1362    0.5895 C   0  0  0  0  0  0  0  0  0  0  0  0
    1.5664   -0.5581   -0.0667 C   0  0  0  0  0  0  0  0  0  0  0  0
    1.2919    0.0775   -1.3572 O   0  0  0  0  0  0  0  0  0  0  0  0
    0.3309    0.2026   -0.2264 C   0  0  0  0  0  0  0  0  0  0  0  0
   -0.9942   -0.4509   -0.4747 C   0  0  0  0  0  0  0  0  0  0  0  0
   -1.4138   -1.3730    0.5855 C   0  0  0  0  0  0  0  0  0  0  0  0
   -1.0417   -1.3376    1.7447 O   0  0  0  0  0  0  0  0  0  0  0  0
   -2.0333    0.6659   -0.5994 C   0  0  0  0  0  0  0  0  0  0  0  0
   -2.0187    1.3643    0.6022 O   0  0  0  0  0  0  0  0  0  0  0  0
    2.8986   -0.1890    1.6188 H   0  0  0  0  0  0  0  0  0  0  0  0
    2.5640    1.2348    0.5649 H   0  0  0  0  0  0  0  0  0  0  0  0
    3.6216   -0.0483   -0.0562 H   0  0  0  0  0  0  0  0  0  0  0  0
    1.5202   -1.6464   -0.0692 H   0  0  0  0  0  0  0  0  0  0  0  0
    0.3544    1.2659    0.0897 H   0  0  0  0  0  0  0  0  0  0  0  0
   -0.9932   -0.9856   -1.4449 H   0  0  0  0  0  0  0  0  0  0  0  0
   -2.1154   -2.1585    0.3281 H   0  0  0  0  0  0  0  0  0  0  0  0
   -1.6650    1.3166   -1.4361 H   0  0  0  0  0  0  0  0  0  0  0  0
   -3.0077    0.2132   -0.8244 H   0  0  0  0  0  0  0  0  0  0  0  0
   -1.6092    2.2701    0.4318 H   0  0  0  0  0  0  0  0  0  0  0  0
  1  2  1  0
  2  3  1  0
  3  4  1  0
  4  5  1  0
  5  6  1  0
  6  7  2  0
  5  8  1  0
  8  9  1  0
  4  2  1  0
  1 10  1  0
  1 11  1  0
  1 12  1  0
  2 13  1  0
  4 14  1  0
  5 15  1  0
  6 16  1  0
  8 17  1  0
  8 18  1  0
  9 19  1  0
M  END
