
     RDKit          3D

 16 17  0  0  0  0  0  0  0  0999 V2000
    2.3953    0.5660    0.1805 C   0  0  0  0  0  0  0  0  0  0  0  0
    1.0194    0.0597    0.4338 C   0  0  0  0  0  0  0  0  0  0  0  0
    0.0000    1.0044    0.1601 O   0  0  0  0  0  0  0  0  0  0  0  0
   -0.7578   -0.0591   -0.2475 C   0  0  0  0  0  0  0  0  0  0  0  0
   -2.0554   -0.0445   -0.8336 C   0  0  0  0  0  0  0  0  0  0  0  0
   -1.8351   -0.5292    0.6192 C   0  0  0  0  0  0  0  0  0  0  0  0
    0.4204   -0.7814   -0.6295 C   0  0  0  0  0  0  0  0  0  0  0  0
    0.7676   -1.6333   -1.4070 O   0  0  0  0  0  0  0  0  0  0  0  0
    2.8276    0.8804    1.1750 H   0  0  0  0  0  0  0  0  0  0  0  0
    2.4251    1.4541   -0.4650 H   0  0  0  0  0  0  0  0  0  0  0  0
    3.1018   -0.2258   -0.1915 H   0  0  0  0  0  0  0  0  0  0  0  0
    0.8695   -0.4478    1.4202 H   0  0  0  0  0  0  0  0  0  0  0  0
   -2.3587   -0.8465   -1.5413 H   0  0  0  0  0  0  0  0  0  0  0  0
   -2.6915    0.8576   -0.9160 H   0  0  0  0  0  0  0  0  0  0  0  0
   -2.1685    0.1759    1.4238 H   0  0  0  0  0  0  0  0  0  0  0  0
   -1.9597   -1.6057    0.8187 H   0  0  0  0  0  0  0  0  0  0  0  0
  1  2  1  0
  2  3  1  0
  3  4  1  0
  4  5  1  0
  5  6  1  0
  4  7  1  0
  7  8  2  0
  7  2  1  0
  6  4  1  0
  1  9  1  0
  1 10  1  0
  1 11  1  0
  2 12  1  0
  5 13  1  0
  5 14  1  0
  6 15  1  0
  6 16  1  0
M  END
