
     RDKit          3D

 14 14  0  0  0  0  0  0  0  0999 V2000
   -2.0915   -0.3047    0.0814 C   0  0  0  0  0  0  0  0  0  0  0  0
   -0.7695    0.3954   -0.0000 C   0  0  0  0  0  0  0  0  0  0  0  0
   -0.0644    0.1697   -1.2044 O   0  0  0  0  0  0  0  0  0  0  0  0
    1.0894    0.4126   -0.4180 C   0  0  0  0  0  0  0  0  0  0  0  0
    2.3051   -0.2400   -0.8836 C   0  0  0  0  0  0  0  0  0  0  0  0
    3.3431   -0.0981   -0.2852 O   0  0  0  0  0  0  0  0  0  0  0  0
    0.3616   -0.2270    0.6907 C   0  0  0  0  0  0  0  0  0  0  0  0
    0.5847   -0.8959    1.6426 O   0  0  0  0  0  0  0  0  0  0  0  0
   -2.3452   -0.4930    1.1467 H   0  0  0  0  0  0  0  0  0  0  0  0
   -2.8579    0.3952   -0.3181 H   0  0  0  0  0  0  0  0  0  0  0  0
   -2.1053   -1.2832   -0.4395 H   0  0  0  0  0  0  0  0  0  0  0  0
   -0.8940    1.4920    0.1611 H   0  0  0  0  0  0  0  0  0  0  0  0
    1.1560    1.5295   -0.3100 H   0  0  0  0  0  0  0  0  0  0  0  0
    2.2879   -0.8524   -1.7625 H   0  0  0  0  0  0  0  0  0  0  0  0
  1  2  1  0
  2  3  1  0
  3  4  1  0
  4  5  1  0
  5  6  2  0
  4  7  1  0
  7  8  2  0
  7  2  1  0
  1  9  1  0
  1 10  1  0
  1 11  1  0
  2 12  1  0
  4 13  1  0
  5 14  1  0
M  END
