
     RDKit          3D

 17 18  0  0  0  0  0  0  0  0999 V2000
    2.4226   -0.1095    0.5432 C   0  0  0  0  0  0  0  0  0  0  0  0
    1.1764   -0.8154    0.0940 C   0  0  0  0  0  0  0  0  0  0  0  0
    0.8502   -0.6935   -1.2745 O   0  0  0  0  0  0  0  0  0  0  0  0
   -0.0074   -0.1879   -0.3475 C   0  0  0  0  0  0  0  0  0  0  0  0
   -1.3370   -0.8342   -0.0623 C   0  0  0  0  0  0  0  0  0  0  0  0
   -2.3433    0.1643   -0.4393 C   0  0  0  0  0  0  0  0  0  0  0  0
   -1.7657    1.3354   -0.5648 C   0  0  0  0  0  0  0  0  0  0  0  0
   -0.3415    1.2445   -0.2906 C   0  0  0  0  0  0  0  0  0  0  0  0
    0.4410    2.1813   -0.0552 O   0  0  0  0  0  0  0  0  0  0  0  0
    3.2053   -0.3006   -0.2409 H   0  0  0  0  0  0  0  0  0  0  0  0
    2.3093    0.9763    0.6657 H   0  0  0  0  0  0  0  0  0  0  0  0
    2.7696   -0.5123    1.5094 H   0  0  0  0  0  0  0  0  0  0  0  0
    1.1230   -1.8770    0.4782 H   0  0  0  0  0  0  0  0  0  0  0  0
   -1.3674   -0.9975    1.0550 H   0  0  0  0  0  0  0  0  0  0  0  0
   -1.4616   -1.8009   -0.5974 H   0  0  0  0  0  0  0  0  0  0  0  0
   -3.4083   -0.0383   -0.5915 H   0  0  0  0  0  0  0  0  0  0  0  0
   -2.2652    2.2653   -0.8368 H   0  0  0  0  0  0  0  0  0  0  0  0
  1  2  1  0
  2  3  1  0
  3  4  1  0
  4  5  1  0
  5  6  1  0
  6  7  2  0
  7  8  1  0
  8  9  2  0
  4  2  1  0
  8  4  1  0
  1 10  1  0
  1 11  1  0
  1 12  1  0
  2 13  1  0
  5 14  1  0
  5 15  1  0
  6 16  1  0
  7 17  1  0
M  END
