
     RDKit          2D

 17 19  0  0  0  0  0  0  0  0999 V2000
    2.1213    1.0607    0.0000 C   0  0  0  0  0  0  0  0  0  0  0  0
    1.0607    0.0000    0.0000 C   0  0  0  0  0  0  0  0  0  0  0  0
   -0.0000   -1.0607    0.0000 O   0  0  0  0  0  0  0  0  0  0  0  0
   -1.0607    0.0000    0.0000 C   0  0  0  0  0  0  0  0  0  0  0  0
   -2.1213    1.0607    0.0000 C   0  0  0  0  0  0  0  0  0  0  0  0
   -0.9480    1.0788    0.0000 C   0  0  0  0  0  0  0  0  0  0  0  0
   -1.1177    1.0447    0.0000 C   0  0  0  0  0  0  0  0  0  0  0  0
    0.0000    1.0607    0.0000 C   0  0  0  0  0  0  0  0  0  0  0  0
   -1.0607    2.1213    0.0000 O   0  0  0  0  0  0  0  0  0  0  0  0
    3.1820    2.1213    0.0000 H   0  0  0  0  0  0  0  0  0  0  0  0
    3.1820    0.0000    0.0000 H   0  0  0  0  0  0  0  0  0  0  0  0
    1.0607    2.1213    0.0000 H   0  0  0  0  0  0  0  0  0  0  0  0
    2.1213   -1.0607    0.0000 H   0  0  0  0  0  0  0  0  0  0  0  0
   -2.1213   -1.0607    0.0000 H   0  0  0  0  0  0  0  0  0  0  0  0
   -3.6213    1.0607    0.0000 H   0  0  0  0  0  0  0  0  0  0  0  0
   -2.5395    3.7008    0.0000 H   0  0  0  0  0  0  0  0  0  0  0  0
    0.7239    3.7008    0.0000 H   0  0  0  0  0  0  0  0  0  0  0  0
  1  2  1  0
  2  3  1  0
  3  4  1  0
  4  5  1  0
  5  6  1  0
  6  7  2  0
  7  8  1  0
  8  9  1  0
  8  2  1  0
  8  4  1  0
  9  5  1  0
  1 10  1  0
  1 11  1  0
  1 12  1  0
  2 13  1  0
  4 14  1  0
  5 15  1  0
  6 16  1  0
  7 17  1  0
M  END
