
     RDKit          3D

 21 21  0  0  0  0  0  0  0  0999 V2000
    3.0919    0.3935   -0.4695 C   0  0  0  0  0  0  0  0  0  0  0  0
    1.6524    0.8132   -0.2885 C   0  0  0  0  0  0  0  0  0  0  0  0
    0.8526    0.1319   -1.3575 O   0  0  0  0  0  0  0  0  0  0  0  0
    0.6948   -0.1573    0.0919 C   0  0  0  0  0  0  0  0  0  0  0  0
   -0.7103    0.0909    0.5005 C   0  0  0  0  0  0  0  0  0  0  0  0
   -1.3619   -1.2364    0.8165 C   0  0  0  0  0  0  0  0  0  0  0  0
   -1.3054   -2.0059   -0.3461 O   0  0  0  0  0  0  0  0  0  0  0  0
   -1.5570    0.7656   -0.5524 C   0  0  0  0  0  0  0  0  0  0  0  0
   -2.8610    0.9713   -0.1122 O   0  0  0  0  0  0  0  0  0  0  0  0
    3.7928    1.0108    0.1066 H   0  0  0  0  0  0  0  0  0  0  0  0
    3.2420   -0.6923   -0.2740 H   0  0  0  0  0  0  0  0  0  0  0  0
    3.3156    0.5206   -1.5669 H   0  0  0  0  0  0  0  0  0  0  0  0
    1.4919    1.8940   -0.2760 H   0  0  0  0  0  0  0  0  0  0  0  0
    1.0714   -1.1910    0.3189 H   0  0  0  0  0  0  0  0  0  0  0  0
   -0.7457    0.7065    1.4263 H   0  0  0  0  0  0  0  0  0  0  0  0
   -0.7679   -1.7782    1.6028 H   0  0  0  0  0  0  0  0  0  0  0  0
   -2.3879   -1.1239    1.2093 H   0  0  0  0  0  0  0  0  0  0  0  0
   -1.6996   -2.9093   -0.2134 H   0  0  0  0  0  0  0  0  0  0  0  0
   -1.1450    1.7262   -0.8975 H   0  0  0  0  0  0  0  0  0  0  0  0
   -1.6326    0.1177   -1.4589 H   0  0  0  0  0  0  0  0  0  0  0  0
   -3.0312    1.9519   -0.0031 H   0  0  0  0  0  0  0  0  0  0  0  0
  1  2  1  0
  2  3  1  0
  3  4  1  0
  4  5  1  0
  5  6  1  0
  6  7  1  0
  5  8  1  0
  8  9  1  0
  4  2  1  0
  1 10  1  0
  1 11  1  0
  1 12  1  0
  2 13  1  0
  4 14  1  0
  5 15  1  0
  6 16  1  0
  6 17  1  0
  7 18  1  0
  8 19  1  0
  8 20  1  0
  9 21  1  0
M  END
