
     RDKit          3D

 21 22  0  0  0  0  0  0  0  0999 V2000
    1.8088    0.6805    0.6675 C   0  0  0  0  0  0  0  0  0  0  0  0
    0.8810    0.4861   -0.5356 C   0  0  0  0  0  0  0  0  0  0  0  0
    0.1362    1.6094   -0.7819 O   0  0  0  0  0  0  0  0  0  0  0  0
   -1.1768    1.2701   -0.9319 C   0  0  0  0  0  0  0  0  0  0  0  0
   -1.8854    0.9702    0.3890 C   0  0  0  0  0  0  0  0  0  0  0  0
   -1.4013   -0.1145   -0.4687 C   0  0  0  0  0  0  0  0  0  0  0  0
   -0.0142   -0.6816   -0.3672 C   0  0  0  0  0  0  0  0  0  0  0  0
    0.1848   -1.4741    0.8747 C   0  0  0  0  0  0  0  0  0  0  0  0
    0.2030   -1.5516   -1.4596 O   0  0  0  0  0  0  0  0  0  0  0  0
    1.2637    0.9345    1.5777 H   0  0  0  0  0  0  0  0  0  0  0  0
    2.5418    1.4762    0.3544 H   0  0  0  0  0  0  0  0  0  0  0  0
    2.4298   -0.2445    0.7636 H   0  0  0  0  0  0  0  0  0  0  0  0
    1.5849    0.3666   -1.4116 H   0  0  0  0  0  0  0  0  0  0  0  0
   -1.7996    1.7312   -1.7174 H   0  0  0  0  0  0  0  0  0  0  0  0
   -2.9638    1.1495    0.4139 H   0  0  0  0  0  0  0  0  0  0  0  0
   -1.3730    1.2554    1.3347 H   0  0  0  0  0  0  0  0  0  0  0  0
   -2.1396   -0.7923   -0.9023 H   0  0  0  0  0  0  0  0  0  0  0  0
    0.9756   -2.2574    0.7084 H   0  0  0  0  0  0  0  0  0  0  0  0
   -0.7606   -2.0696    1.0436 H   0  0  0  0  0  0  0  0  0  0  0  0
    0.3498   -0.8791    1.7753 H   0  0  0  0  0  0  0  0  0  0  0  0
    1.1549   -1.8650   -1.3265 H   0  0  0  0  0  0  0  0  0  0  0  0
  1  2  1  0
  2  3  1  0
  3  4  1  0
  4  5  1  0
  5  6  1  0
  6  7  1  0
  7  8  1  0
  7  9  1  0
  7  2  1  0
  6  4  1  0
  1 10  1  0
  1 11  1  0
  1 12  1  0
  2 13  1  0
  4 14  1  0
  5 15  1  0
  5 16  1  0
  6 17  1  0
  8 18  1  0
  8 19  1  0
  8 20  1  0
  9 21  1  0
M  END
