
     RDKit          3D

 19 21  0  0  0  0  0  0  0  0999 V2000
    2.3977    0.1328   -0.7475 C   0  0  0  0  0  0  0  0  0  0  0  0
    1.4851   -0.0753    0.4382 C   0  0  0  0  0  0  0  0  0  0  0  0
    1.1827   -1.5194    0.6303 O   0  0  0  0  0  0  0  0  0  0  0  0
    0.2388   -0.5724    0.3559 C   0  0  0  0  0  0  0  0  0  0  0  0
   -0.7729   -0.7419   -0.6898 C   0  0  0  0  0  0  0  0  0  0  0  0
   -1.4763    0.6000   -0.7879 C   0  0  0  0  0  0  0  0  0  0  0  0
   -1.6679    0.8256    0.7259 C   0  0  0  0  0  0  0  0  0  0  0  0
   -0.9829   -0.4434    1.1851 C   0  0  0  0  0  0  0  0  0  0  0  0
   -1.5744   -1.3730    0.2933 O   0  0  0  0  0  0  0  0  0  0  0  0
    2.7500    1.1771   -0.6944 H   0  0  0  0  0  0  0  0  0  0  0  0
    1.9564   -0.1609   -1.6986 H   0  0  0  0  0  0  0  0  0  0  0  0
    3.3091   -0.5060   -0.5731 H   0  0  0  0  0  0  0  0  0  0  0  0
    1.9326    0.2841    1.3915 H   0  0  0  0  0  0  0  0  0  0  0  0
   -0.5914   -1.2856   -1.5887 H   0  0  0  0  0  0  0  0  0  0  0  0
   -0.8317    1.3866   -1.2227 H   0  0  0  0  0  0  0  0  0  0  0  0
   -2.4511    0.4962   -1.2874 H   0  0  0  0  0  0  0  0  0  0  0  0
   -2.7333    0.7279    0.9960 H   0  0  0  0  0  0  0  0  0  0  0  0
   -1.1836    1.7382    1.0524 H   0  0  0  0  0  0  0  0  0  0  0  0
   -0.9868   -0.6908    2.2217 H   0  0  0  0  0  0  0  0  0  0  0  0
  1  2  1  0
  2  3  1  0
  3  4  1  0
  4  5  1  0
  5  6  1  0
  6  7  1  0
  7  8  1  0
  8  9  1  0
  4  2  1  0
  9  5  1  0
  8  4  1  0
  1 10  1  0
  1 11  1  0
  1 12  1  0
  2 13  1  0
  5 14  1  0
  6 15  1  0
  6 16  1  0
  7 17  1  0
  7 18  1  0
  8 19  1  0
M  END
