
     RDKit          3D

 19 20  0  0  0  0  0  0  0  0999 V2000
    2.1270   -0.5463   -0.7265 C   0  0  0  0  0  0  0  0  0  0  0  0
    0.6854   -0.5272   -0.3489 C   0  0  0  0  0  0  0  0  0  0  0  0
   -0.1399   -0.0495   -1.3970 O   0  0  0  0  0  0  0  0  0  0  0  0
   -0.8535    0.9526   -0.7689 C   0  0  0  0  0  0  0  0  0  0  0  0
    0.2251    1.7014   -0.0751 C   0  0  0  0  0  0  0  0  0  0  0  0
    0.7091    2.7893   -0.1770 O   0  0  0  0  0  0  0  0  0  0  0  0
    0.3414    0.4657    0.7232 C   0  0  0  0  0  0  0  0  0  0  0  0
   -1.1860    0.4267    0.6197 C   0  0  0  0  0  0  0  0  0  0  0  0
   -1.6839   -0.9675    0.6904 C   0  0  0  0  0  0  0  0  0  0  0  0
    2.7309    0.0060    0.0244 H   0  0  0  0  0  0  0  0  0  0  0  0
    2.4736   -1.6172   -0.6506 H   0  0  0  0  0  0  0  0  0  0  0  0
    2.3405   -0.2434   -1.7627 H   0  0  0  0  0  0  0  0  0  0  0  0
    0.2740   -1.5127   -0.0805 H   0  0  0  0  0  0  0  0  0  0  0  0
   -1.6042    1.4923   -1.2967 H   0  0  0  0  0  0  0  0  0  0  0  0
    0.7919    0.4504    1.6656 H   0  0  0  0  0  0  0  0  0  0  0  0
   -1.6431    1.1833    1.2496 H   0  0  0  0  0  0  0  0  0  0  0  0
   -2.7215   -0.9546    1.1363 H   0  0  0  0  0  0  0  0  0  0  0  0
   -1.7830   -1.4902   -0.2679 H   0  0  0  0  0  0  0  0  0  0  0  0
   -1.0839   -1.5591    1.4425 H   0  0  0  0  0  0  0  0  0  0  0  0
  1  2  1  0
  2  3  1  0
  3  4  1  0
  4  5  1  0
  5  6  2  0
  5  7  1  0
  7  8  1  0
  8  9  1  0
  7  2  1  0
  8  4  1  0
  1 10  1  0
  1 11  1  0
  1 12  1  0
  2 13  1  0
  4 14  1  0
  7 15  1  0
  8 16  1  0
  9 17  1  0
  9 18  1  0
  9 19  1  0
M  END
