
     RDKit          3D

 21 21  0  0  0  0  0  0  0  0999 V2000
   -2.2117    1.0263   -0.3392 C   0  0  0  0  0  0  0  0  0  0  0  0
   -1.4295   -0.1404   -0.8429 C   0  0  0  0  0  0  0  0  0  0  0  0
   -2.0885   -1.3336   -0.5481 O   0  0  0  0  0  0  0  0  0  0  0  0
   -1.5050   -1.2641    0.7174 C   0  0  0  0  0  0  0  0  0  0  0  0
   -0.3189   -0.6261    0.0981 C   0  0  0  0  0  0  0  0  0  0  0  0
    0.3983    0.2997    0.7141 O   0  0  0  0  0  0  0  0  0  0  0  0
    1.7331    0.3646    0.6856 C   0  0  0  0  0  0  0  0  0  0  0  0
    2.3439    0.5464   -0.6839 C   0  0  0  0  0  0  0  0  0  0  0  0
    2.0574   -0.4541   -1.5760 O   0  0  0  0  0  0  0  0  0  0  0  0
   -1.5718    1.7358    0.2343 H   0  0  0  0  0  0  0  0  0  0  0  0
   -2.6033    1.6279   -1.2035 H   0  0  0  0  0  0  0  0  0  0  0  0
   -3.0783    0.7419    0.3029 H   0  0  0  0  0  0  0  0  0  0  0  0
   -1.0771   -0.0682   -1.9024 H   0  0  0  0  0  0  0  0  0  0  0  0
   -1.3532   -2.3162    1.0930 H   0  0  0  0  0  0  0  0  0  0  0  0
   -2.1288   -0.6974    1.3923 H   0  0  0  0  0  0  0  0  0  0  0  0
    0.2679   -1.3812   -0.4579 H   0  0  0  0  0  0  0  0  0  0  0  0
    2.2876   -0.4561    1.1744 H   0  0  0  0  0  0  0  0  0  0  0  0
    2.0460    1.2866    1.2640 H   0  0  0  0  0  0  0  0  0  0  0  0
    3.4488    0.6852   -0.5741 H   0  0  0  0  0  0  0  0  0  0  0  0
    1.9786    1.5076   -1.1399 H   0  0  0  0  0  0  0  0  0  0  0  0
    2.8044   -1.0845   -1.6390 H   0  0  0  0  0  0  0  0  0  0  0  0
  1  2  1  0
  2  3  1  0
  3  4  1  0
  4  5  1  0
  5  6  1  0
  6  7  1  0
  7  8  1  0
  8  9  1  0
  5  2  1  0
  1 10  1  0
  1 11  1  0
  1 12  1  0
  2 13  1  0
  4 14  1  0
  4 15  1  0
  5 16  1  0
  7 17  1  0
  7 18  1  0
  8 19  1  0
  8 20  1  0
  9 21  1  0
M  END
