
     RDKit          3D

 21 22  0  0  0  0  0  0  0  0999 V2000
   -2.1968   -1.2069    0.2866 C   0  0  0  0  0  0  0  0  0  0  0  0
   -1.2473   -0.0615    0.3710 C   0  0  0  0  0  0  0  0  0  0  0  0
   -1.7541    1.1195   -0.1559 O   0  0  0  0  0  0  0  0  0  0  0  0
   -0.6880    1.9109   -0.5786 C   0  0  0  0  0  0  0  0  0  0  0  0
    0.5388    1.1363   -0.3261 C   0  0  0  0  0  0  0  0  0  0  0  0
    1.8214    1.1341   -0.0654 C   0  0  0  0  0  0  0  0  0  0  0  0
    2.2903   -0.2946    0.0374 C   0  0  0  0  0  0  0  0  0  0  0  0
    1.0357   -1.1071    0.3173 C   0  0  0  0  0  0  0  0  0  0  0  0
    0.0162   -0.2874   -0.4290 C   0  0  0  0  0  0  0  0  0  0  0  0
   -1.9424   -1.9514    1.0803 H   0  0  0  0  0  0  0  0  0  0  0  0
   -3.2173   -0.8457    0.5125 H   0  0  0  0  0  0  0  0  0  0  0  0
   -2.2188   -1.7287   -0.6728 H   0  0  0  0  0  0  0  0  0  0  0  0
   -0.9311    0.1042    1.4302 H   0  0  0  0  0  0  0  0  0  0  0  0
   -0.7250    2.8738   -0.0347 H   0  0  0  0  0  0  0  0  0  0  0  0
   -0.7697    2.1753   -1.6642 H   0  0  0  0  0  0  0  0  0  0  0  0
    2.5090    1.9703    0.0699 H   0  0  0  0  0  0  0  0  0  0  0  0
    2.7963   -0.6287   -0.8823 H   0  0  0  0  0  0  0  0  0  0  0  0
    2.9606   -0.4419    0.9057 H   0  0  0  0  0  0  0  0  0  0  0  0
    1.0727   -2.1152   -0.1355 H   0  0  0  0  0  0  0  0  0  0  0  0
    0.7999   -1.1674    1.3947 H   0  0  0  0  0  0  0  0  0  0  0  0
   -0.1504   -0.5880   -1.4610 H   0  0  0  0  0  0  0  0  0  0  0  0
  1  2  1  0
  2  3  1  0
  3  4  1  0
  4  5  1  0
  5  6  2  0
  6  7  1  0
  7  8  1  0
  8  9  1  0
  9  2  1  0
  9  5  1  0
  1 10  1  0
  1 11  1  0
  1 12  1  0
  2 13  1  0
  4 14  1  0
  4 15  1  0
  6 16  1  0
  7 17  1  0
  7 18  1  0
  8 19  1  0
  8 20  1  0
  9 21  1  0
M  END
