
     RDKit          3D

 21 22  0  0  0  0  0  0  0  0999 V2000
    3.5349    0.4408    0.4075 C   0  0  0  0  0  0  0  0  0  0  0  0
    2.2476    0.2355   -0.3598 C   0  0  0  0  0  0  0  0  0  0  0  0
    1.3561    1.3749   -0.1111 O   0  0  0  0  0  0  0  0  0  0  0  0
    1.0182    0.0789    0.3883 C   0  0  0  0  0  0  0  0  0  0  0  0
   -0.2150   -0.5103   -0.2438 C   0  0  0  0  0  0  0  0  0  0  0  0
   -1.3322   -0.5488    0.7683 C   0  0  0  0  0  0  0  0  0  0  0  0
   -2.6537   -1.1328    0.2423 C   0  0  0  0  0  0  0  0  0  0  0  0
   -2.5253    0.2924    0.6582 C   0  0  0  0  0  0  0  0  0  0  0  0
   -2.6885    1.2396   -0.3332 O   0  0  0  0  0  0  0  0  0  0  0  0
    4.0764   -0.4899    0.5683 H   0  0  0  0  0  0  0  0  0  0  0  0
    3.2976    0.8658    1.4064 H   0  0  0  0  0  0  0  0  0  0  0  0
    4.1355    1.1797   -0.1874 H   0  0  0  0  0  0  0  0  0  0  0  0
    2.3162    0.0699   -1.4373 H   0  0  0  0  0  0  0  0  0  0  0  0
    1.0969   -0.0123    1.4945 H   0  0  0  0  0  0  0  0  0  0  0  0
   -0.0443   -1.5757   -0.5666 H   0  0  0  0  0  0  0  0  0  0  0  0
   -0.5002    0.0480   -1.1610 H   0  0  0  0  0  0  0  0  0  0  0  0
   -0.9983   -0.9027    1.7716 H   0  0  0  0  0  0  0  0  0  0  0  0
   -3.1177   -1.8911    0.8966 H   0  0  0  0  0  0  0  0  0  0  0  0
   -2.7242   -1.3604   -0.8349 H   0  0  0  0  0  0  0  0  0  0  0  0
   -2.9958    0.6065    1.6360 H   0  0  0  0  0  0  0  0  0  0  0  0
   -3.2841    1.9919   -0.0680 H   0  0  0  0  0  0  0  0  0  0  0  0
  1  2  1  0
  2  3  1  0
  3  4  1  0
  4  5  1  0
  5  6  1  0
  6  7  1  0
  7  8  1  0
  8  9  1  0
  4  2  1  0
  8  6  1  0
  1 10  1  0
  1 11  1  0
  1 12  1  0
  2 13  1  0
  4 14  1  0
  5 15  1  0
  5 16  1  0
  6 17  1  0
  7 18  1  0
  7 19  1  0
  8 20  1  0
  9 21  1  0
M  END
