
     RDKit          3D

 20 21  0  0  0  0  0  0  0  0999 V2000
    2.3541   -0.7154   -0.3295 C   0  0  0  0  0  0  0  0  0  0  0  0
    1.5807    0.0637    0.6924 C   0  0  0  0  0  0  0  0  0  0  0  0
    0.8425   -0.7794    1.5157 O   0  0  0  0  0  0  0  0  0  0  0  0
   -0.2178    0.1015    1.4470 C   0  0  0  0  0  0  0  0  0  0  0  0
    0.3657    0.7864    0.2120 C   0  0  0  0  0  0  0  0  0  0  0  0
   -0.9747    0.1392    0.1823 C   0  0  0  0  0  0  0  0  0  0  0  0
   -2.1669    1.0895    0.1219 C   0  0  0  0  0  0  0  0  0  0  0  0
   -1.0376   -1.1124   -0.6915 C   0  0  0  0  0  0  0  0  0  0  0  0
    3.3371   -0.9764    0.1346 H   0  0  0  0  0  0  0  0  0  0  0  0
    1.8569   -1.6604   -0.6239 H   0  0  0  0  0  0  0  0  0  0  0  0
    2.5714   -0.1619   -1.2539 H   0  0  0  0  0  0  0  0  0  0  0  0
    2.2376    0.7369    1.2992 H   0  0  0  0  0  0  0  0  0  0  0  0
   -0.5130    0.7154    2.3089 H   0  0  0  0  0  0  0  0  0  0  0  0
    0.3978    1.8940    0.1893 H   0  0  0  0  0  0  0  0  0  0  0  0
   -2.9584    0.8150    0.8352 H   0  0  0  0  0  0  0  0  0  0  0  0
   -1.8379    2.1558    0.2247 H   0  0  0  0  0  0  0  0  0  0  0  0
   -2.6159    1.0327   -0.9043 H   0  0  0  0  0  0  0  0  0  0  0  0
   -0.5645   -1.9763   -0.2001 H   0  0  0  0  0  0  0  0  0  0  0  0
   -2.1160   -1.2989   -0.8959 H   0  0  0  0  0  0  0  0  0  0  0  0
   -0.5411   -0.8491   -1.6591 H   0  0  0  0  0  0  0  0  0  0  0  0
  1  2  1  0
  2  3  1  0
  3  4  1  0
  4  5  1  0
  5  6  1  0
  6  7  1  0
  6  8  1  0
  5  2  1  0
  6  4  1  0
  1  9  1  0
  1 10  1  0
  1 11  1  0
  2 12  1  0
  4 13  1  0
  5 14  1  0
  7 15  1  0
  7 16  1  0
  7 17  1  0
  8 18  1  0
  8 19  1  0
  8 20  1  0
M  END
