
     RDKit          3D

 23 23  0  0  0  0  0  0  0  0999 V2000
    2.1060    0.9191    0.2775 C   0  0  0  0  0  0  0  0  0  0  0  0
    0.6604    0.6788    0.1554 C   0  0  0  0  0  0  0  0  0  0  0  0
    0.0646    1.5605   -0.7523 O   0  0  0  0  0  0  0  0  0  0  0  0
   -1.2455    1.7043   -0.3355 C   0  0  0  0  0  0  0  0  0  0  0  0
   -1.9610    0.4700    0.0006 C   0  0  0  0  0  0  0  0  0  0  0  0
   -1.2239   -0.8024   -0.0074 C   0  0  0  0  0  0  0  0  0  0  0  0
    0.2528   -0.6812   -0.3307 C   0  0  0  0  0  0  0  0  0  0  0  0
    1.0637   -1.8006    0.2311 C   0  0  0  0  0  0  0  0  0  0  0  0
    0.3402   -0.7579   -1.7413 O   0  0  0  0  0  0  0  0  0  0  0  0
    2.6763    0.0941    0.6984 H   0  0  0  0  0  0  0  0  0  0  0  0
    2.2502    1.7900    0.9847 H   0  0  0  0  0  0  0  0  0  0  0  0
    2.6148    1.2338   -0.6577 H   0  0  0  0  0  0  0  0  0  0  0  0
    0.1883    0.8061    1.1738 H   0  0  0  0  0  0  0  0  0  0  0  0
   -1.2143    2.4176    0.5408 H   0  0  0  0  0  0  0  0  0  0  0  0
   -1.7733    2.3022   -1.1364 H   0  0  0  0  0  0  0  0  0  0  0  0
   -2.8448    0.3680   -0.6962 H   0  0  0  0  0  0  0  0  0  0  0  0
   -2.4445    0.5889    1.0154 H   0  0  0  0  0  0  0  0  0  0  0  0
   -1.2514   -1.3252    0.9948 H   0  0  0  0  0  0  0  0  0  0  0  0
   -1.6786   -1.5621   -0.7089 H   0  0  0  0  0  0  0  0  0  0  0  0
    1.5897   -1.5770    1.1540 H   0  0  0  0  0  0  0  0  0  0  0  0
    0.3428   -2.6376    0.4698 H   0  0  0  0  0  0  0  0  0  0  0  0
    1.7368   -2.2532   -0.5543 H   0  0  0  0  0  0  0  0  0  0  0  0
   -0.2492   -1.5362   -1.9998 H   0  0  0  0  0  0  0  0  0  0  0  0
  1  2  1  0
  2  3  1  0
  3  4  1  0
  4  5  1  0
  5  6  1  0
  6  7  1  0
  7  8  1  0
  7  9  1  0
  7  2  1  0
  1 10  1  0
  1 11  1  0
  1 12  1  0
  2 13  1  0
  4 14  1  0
  4 15  1  0
  5 16  1  0
  5 17  1  0
  6 18  1  0
  6 19  1  0
  8 20  1  0
  8 21  1  0
  8 22  1  0
  9 23  1  0
M  END
