
     RDKit          3D

 17 18  0  0  0  0  0  0  0  0999 V2000
   -2.3182    0.6046   -0.1773 C   0  0  0  0  0  0  0  0  0  0  0  0
   -1.1531   -0.3035    0.0890 C   0  0  0  0  0  0  0  0  0  0  0  0
   -0.3524   -0.5070   -1.0178 O   0  0  0  0  0  0  0  0  0  0  0  0
    0.8237   -1.0422   -0.5601 C   0  0  0  0  0  0  0  0  0  0  0  0
    1.9865   -0.1519   -0.2779 C   0  0  0  0  0  0  0  0  0  0  0  0
    2.0059    1.1564   -0.7594 O   0  0  0  0  0  0  0  0  0  0  0  0
    1.0699   -0.4268    0.8366 C   0  0  0  0  0  0  0  0  0  0  0  0
   -0.1923    0.3221    1.0285 C   0  0  0  0  0  0  0  0  0  0  0  0
   -0.3384    1.2373    1.8029 O   0  0  0  0  0  0  0  0  0  0  0  0
   -1.9606    1.5510   -0.6432 H   0  0  0  0  0  0  0  0  0  0  0  0
   -2.7604    0.8871    0.8072 H   0  0  0  0  0  0  0  0  0  0  0  0
   -3.0497    0.0828   -0.8094 H   0  0  0  0  0  0  0  0  0  0  0  0
   -1.5304   -1.2788    0.4574 H   0  0  0  0  0  0  0  0  0  0  0  0
    0.9831   -2.1226   -0.6177 H   0  0  0  0  0  0  0  0  0  0  0  0
    2.9790   -0.6301   -0.2204 H   0  0  0  0  0  0  0  0  0  0  0  0
    2.4827    1.7580   -0.1066 H   0  0  0  0  0  0  0  0  0  0  0  0
    1.3246   -1.1364    1.6527 H   0  0  0  0  0  0  0  0  0  0  0  0
  1  2  1  0
  2  3  1  0
  3  4  1  0
  4  5  1  0
  5  6  1  0
  5  7  1  0
  7  8  1  0
  8  9  2  0
  8  2  1  0
  7  4  1  0
  1 10  1  0
  1 11  1  0
  1 12  1  0
  2 13  1  0
  4 14  1  0
  5 15  1  0
  6 16  1  0
  7 17  1  0
M  END
