
     RDKit          3D

 16 16  0  0  0  0  0  0  0  0999 V2000
    1.8282   -0.4454   -0.1943 C   0  0  0  0  0  0  0  0  0  0  0  0
    0.4090   -0.4172    0.2373 C   0  0  0  0  0  0  0  0  0  0  0  0
   -0.2949   -1.5864   -0.1225 O   0  0  0  0  0  0  0  0  0  0  0  0
   -1.5873   -1.1510    0.2269 C   0  0  0  0  0  0  0  0  0  0  0  0
   -1.6962    0.0447   -0.4681 O   0  0  0  0  0  0  0  0  0  0  0  0
   -0.4298    0.6253   -0.4607 C   0  0  0  0  0  0  0  0  0  0  0  0
   -0.4375    1.8785    0.3042 C   0  0  0  0  0  0  0  0  0  0  0  0
    0.5549    2.5641    0.4504 O   0  0  0  0  0  0  0  0  0  0  0  0
    1.9776   -0.2265   -1.2655 H   0  0  0  0  0  0  0  0  0  0  0  0
    2.2610   -1.4299    0.1038 H   0  0  0  0  0  0  0  0  0  0  0  0
    2.3897    0.3181    0.3766 H   0  0  0  0  0  0  0  0  0  0  0  0
    0.3363   -0.3411    1.3247 H   0  0  0  0  0  0  0  0  0  0  0  0
   -1.5447   -0.9685    1.3243 H   0  0  0  0  0  0  0  0  0  0  0  0
   -2.3529   -1.8816   -0.0305 H   0  0  0  0  0  0  0  0  0  0  0  0
   -0.0592    0.7997   -1.4927 H   0  0  0  0  0  0  0  0  0  0  0  0
   -1.3542    2.2173    0.7609 H   0  0  0  0  0  0  0  0  0  0  0  0
  1  2  1  0
  2  3  1  0
  3  4  1  0
  4  5  1  0
  5  6  1  0
  6  7  1  0
  7  8  2  0
  6  2  1  0
  1  9  1  0
  1 10  1  0
  1 11  1  0
  2 12  1  0
  4 13  1  0
  4 14  1  0
  6 15  1  0
  7 16  1  0
M  END
