
     RDKit          3D

 21 21  0  0  0  0  0  0  0  0999 V2000
    2.4292   -0.9034   -0.3710 C   0  0  0  0  0  0  0  0  0  0  0  0
    1.4659    0.2470   -0.2144 C   0  0  0  0  0  0  0  0  0  0  0  0
    0.3542    0.1583   -0.9970 O   0  0  0  0  0  0  0  0  0  0  0  0
   -0.7752    0.2022   -0.2376 C   0  0  0  0  0  0  0  0  0  0  0  0
   -1.7843    1.2303   -0.7147 C   0  0  0  0  0  0  0  0  0  0  0  0
   -1.4773   -1.1422   -0.2761 C   0  0  0  0  0  0  0  0  0  0  0  0
   -0.3990    0.5839    1.1734 C   0  0  0  0  0  0  0  0  0  0  0  0
    1.0322    0.2841    1.1983 C   0  0  0  0  0  0  0  0  0  0  0  0
    1.7442    0.0993    2.1517 O   0  0  0  0  0  0  0  0  0  0  0  0
    2.5482   -1.4945    0.5628 H   0  0  0  0  0  0  0  0  0  0  0  0
    3.4318   -0.4689   -0.6171 H   0  0  0  0  0  0  0  0  0  0  0  0
    2.1257   -1.6215   -1.1586 H   0  0  0  0  0  0  0  0  0  0  0  0
    1.9532    1.2336   -0.4237 H   0  0  0  0  0  0  0  0  0  0  0  0
   -2.0018    1.1094   -1.8093 H   0  0  0  0  0  0  0  0  0  0  0  0
   -1.4461    2.2499   -0.4824 H   0  0  0  0  0  0  0  0  0  0  0  0
   -2.7084    1.0545   -0.1250 H   0  0  0  0  0  0  0  0  0  0  0  0
   -1.0240   -1.7756   -1.0645 H   0  0  0  0  0  0  0  0  0  0  0  0
   -1.4030   -1.6729    0.6973 H   0  0  0  0  0  0  0  0  0  0  0  0
   -2.5491   -1.0580   -0.5067 H   0  0  0  0  0  0  0  0  0  0  0  0
   -0.9918    0.0077    1.9132 H   0  0  0  0  0  0  0  0  0  0  0  0
   -0.5247    1.6770    1.3013 H   0  0  0  0  0  0  0  0  0  0  0  0
  1  2  1  0
  2  3  1  0
  3  4  1  0
  4  5  1  0
  4  6  1  0
  4  7  1  0
  7  8  1  0
  8  9  2  0
  8  2  1  0
  1 10  1  0
  1 11  1  0
  1 12  1  0
  2 13  1  0
  5 14  1  0
  5 15  1  0
  5 16  1  0
  6 17  1  0
  6 18  1  0
  6 19  1  0
  7 20  1  0
  7 21  1  0
M  END
