
     RDKit          3D

 21 21  0  0  0  0  0  0  0  0999 V2000
    2.1126   -1.4623    0.2792 C   0  0  0  0  0  0  0  0  0  0  0  0
    1.6266   -0.0484    0.1244 C   0  0  0  0  0  0  0  0  0  0  0  0
    2.3663    1.0207   -0.0275 O   0  0  0  0  0  0  0  0  0  0  0  0
    1.6448    2.1052   -0.1423 C   0  0  0  0  0  0  0  0  0  0  0  0
    0.2885    1.7493   -0.0613 C   0  0  0  0  0  0  0  0  0  0  0  0
    0.3051    0.3758    0.1098 C   0  0  0  0  0  0  0  0  0  0  0  0
   -0.8826   -0.4970    0.2429 C   0  0  0  0  0  0  0  0  0  0  0  0
   -2.0763    0.2516    0.8237 C   0  0  0  0  0  0  0  0  0  0  0  0
   -1.3180   -0.8192   -1.1998 C   0  0  0  0  0  0  0  0  0  0  0  0
    3.1291   -1.5793   -0.0839 H   0  0  0  0  0  0  0  0  0  0  0  0
    1.4121   -2.1577   -0.2150 H   0  0  0  0  0  0  0  0  0  0  0  0
    2.0404   -1.6363    1.4001 H   0  0  0  0  0  0  0  0  0  0  0  0
    1.9806    3.1278   -0.2724 H   0  0  0  0  0  0  0  0  0  0  0  0
   -0.5390    2.4509   -0.1514 H   0  0  0  0  0  0  0  0  0  0  0  0
   -0.6635   -1.3975    0.8004 H   0  0  0  0  0  0  0  0  0  0  0  0
   -2.1497   -0.0130    1.9092 H   0  0  0  0  0  0  0  0  0  0  0  0
   -3.0226   -0.1625    0.3935 H   0  0  0  0  0  0  0  0  0  0  0  0
   -1.9791    1.3119    0.6425 H   0  0  0  0  0  0  0  0  0  0  0  0
   -0.9854    0.0242   -1.8469 H   0  0  0  0  0  0  0  0  0  0  0  0
   -2.4206   -0.8632   -1.2238 H   0  0  0  0  0  0  0  0  0  0  0  0
   -0.8692   -1.7814   -1.5013 H   0  0  0  0  0  0  0  0  0  0  0  0
  1  2  1  0
  2  3  1  0
  3  4  1  0
  4  5  2  0
  5  6  1  0
  6  7  1  0
  7  8  1  0
  7  9  1  0
  6  2  2  0
  1 10  1  0
  1 11  1  0
  1 12  1  0
  4 13  1  0
  5 14  1  0
  7 15  1  0
  8 16  1  0
  8 17  1  0
  8 18  1  0
  9 19  1  0
  9 20  1  0
  9 21  1  0
M  END
