
     RDKit          3D

 17 17  0  0  0  0  0  0  0  0999 V2000
   -2.0434   -0.4419    0.1122 C   0  0  0  0  0  0  0  0  0  0  0  0
   -0.7705   -0.4128   -0.7461 C   0  0  0  0  0  0  0  0  0  0  0  0
    0.0737   -1.3335   -0.2907 O   0  0  0  0  0  0  0  0  0  0  0  0
    1.1547   -1.0320    0.4403 C   0  0  0  0  0  0  0  0  0  0  0  0
    1.7139    0.3288    0.3835 C   0  0  0  0  0  0  0  0  0  0  0  0
    0.7571    1.4042    0.0299 C   0  0  0  0  0  0  0  0  0  0  0  0
    0.8932    2.5948    0.4356 O   0  0  0  0  0  0  0  0  0  0  0  0
   -0.3436    0.9859   -0.8152 C   0  0  0  0  0  0  0  0  0  0  0  0
   -0.9181    1.7885   -1.5834 O   0  0  0  0  0  0  0  0  0  0  0  0
   -2.0303    0.4347    0.8227 H   0  0  0  0  0  0  0  0  0  0  0  0
   -2.9490   -0.3106   -0.4967 H   0  0  0  0  0  0  0  0  0  0  0  0
   -2.0679   -1.3353    0.7653 H   0  0  0  0  0  0  0  0  0  0  0  0
   -1.1359   -0.7353   -1.7675 H   0  0  0  0  0  0  0  0  0  0  0  0
    0.9348   -1.2717    1.5239 H   0  0  0  0  0  0  0  0  0  0  0  0
    1.9851   -1.7433    0.1791 H   0  0  0  0  0  0  0  0  0  0  0  0
    2.1810    0.6496    1.3609 H   0  0  0  0  0  0  0  0  0  0  0  0
    2.5654    0.4296   -0.3538 H   0  0  0  0  0  0  0  0  0  0  0  0
  1  2  1  0
  2  3  1  0
  3  4  1  0
  4  5  1  0
  5  6  1  0
  6  7  2  0
  6  8  1  0
  8  9  2  0
  8  2  1  0
  1 10  1  0
  1 11  1  0
  1 12  1  0
  2 13  1  0
  4 14  1  0
  4 15  1  0
  5 16  1  0
  5 17  1  0
M  END
