
     RDKit          3D

 23 24  0  0  0  0  0  0  0  0999 V2000
    2.6523   -0.9359   -0.1511 C   0  0  0  0  0  0  0  0  0  0  0  0
    1.1721   -1.0287    0.0511 C   0  0  0  0  0  0  0  0  0  0  0  0
    0.7619   -0.8245    1.3745 O   0  0  0  0  0  0  0  0  0  0  0  0
    0.3547    0.1708    0.3640 C   0  0  0  0  0  0  0  0  0  0  0  0
    1.0529    1.4904    0.5347 C   0  0  0  0  0  0  0  0  0  0  0  0
   -1.0949    0.0834    0.0695 C   0  0  0  0  0  0  0  0  0  0  0  0
   -1.9009   -0.9976    0.7732 C   0  0  0  0  0  0  0  0  0  0  0  0
   -1.3998    0.2332   -1.4558 C   0  0  0  0  0  0  0  0  0  0  0  0
   -1.8819    1.2267   -0.4483 C   0  0  0  0  0  0  0  0  0  0  0  0
    3.0537   -1.9695   -0.1848 H   0  0  0  0  0  0  0  0  0  0  0  0
    3.1559   -0.3594    0.6291 H   0  0  0  0  0  0  0  0  0  0  0  0
    2.8251   -0.3928   -1.1180 H   0  0  0  0  0  0  0  0  0  0  0  0
    0.6660   -1.8965   -0.4273 H   0  0  0  0  0  0  0  0  0  0  0  0
    1.3873    1.8669   -0.4555 H   0  0  0  0  0  0  0  0  0  0  0  0
    0.4395    2.2255    1.0898 H   0  0  0  0  0  0  0  0  0  0  0  0
    1.9889    1.3567    1.1347 H   0  0  0  0  0  0  0  0  0  0  0  0
   -2.3702   -1.6858    0.0435 H   0  0  0  0  0  0  0  0  0  0  0  0
   -1.1933   -1.6025    1.4111 H   0  0  0  0  0  0  0  0  0  0  0  0
   -2.5924   -0.5031    1.4496 H   0  0  0  0  0  0  0  0  0  0  0  0
   -0.5924    0.5997   -2.1029 H   0  0  0  0  0  0  0  0  0  0  0  0
   -2.0694   -0.5371   -1.8603 H   0  0  0  0  0  0  0  0  0  0  0  0
   -1.4490    2.2533   -0.4548 H   0  0  0  0  0  0  0  0  0  0  0  0
   -2.9660    1.2267   -0.2661 H   0  0  0  0  0  0  0  0  0  0  0  0
  1  2  1  0
  2  3  1  0
  3  4  1  0
  4  5  1  0
  4  6  1  0
  6  7  1  0
  6  8  1  0
  8  9  1  0
  4  2  1  0
  9  6  1  0
  1 10  1  0
  1 11  1  0
  1 12  1  0
  2 13  1  0
  5 14  1  0
  5 15  1  0
  5 16  1  0
  7 17  1  0
  7 18  1  0
  7 19  1  0
  8 20  1  0
  8 21  1  0
  9 22  1  0
  9 23  1  0
M  END
