
     RDKit          3D

 18 19  0  0  0  0  0  0  0  0999 V2000
    1.4064   -0.7647    0.6658 C   0  0  0  0  0  0  0  0  0  0  0  0
    0.9688   -0.2533   -0.6682 C   0  0  0  0  0  0  0  0  0  0  0  0
    1.7044    0.8908   -1.0585 O   0  0  0  0  0  0  0  0  0  0  0  0
    0.7281    1.6389   -0.3602 C   0  0  0  0  0  0  0  0  0  0  0  0
   -0.2622    0.5732   -0.7250 C   0  0  0  0  0  0  0  0  0  0  0  0
   -1.3467    0.2970    0.2489 C   0  0  0  0  0  0  0  0  0  0  0  0
   -1.9836   -1.0705    0.2588 C   0  0  0  0  0  0  0  0  0  0  0  0
   -1.1579   -0.5146    1.3476 O   0  0  0  0  0  0  0  0  0  0  0  0
    1.1433   -0.1410    1.5149 H   0  0  0  0  0  0  0  0  0  0  0  0
    0.9765   -1.7857    0.8309 H   0  0  0  0  0  0  0  0  0  0  0  0
    2.5179   -0.9444    0.5946 H   0  0  0  0  0  0  0  0  0  0  0  0
    1.0540   -1.0023   -1.4588 H   0  0  0  0  0  0  0  0  0  0  0  0
    0.9957    1.7248    0.7032 H   0  0  0  0  0  0  0  0  0  0  0  0
    0.4979    2.6150   -0.8640 H   0  0  0  0  0  0  0  0  0  0  0  0
   -0.5986    0.7103   -1.7741 H   0  0  0  0  0  0  0  0  0  0  0  0
   -2.1095    1.1269    0.3218 H   0  0  0  0  0  0  0  0  0  0  0  0
   -1.4840   -1.9327   -0.1776 H   0  0  0  0  0  0  0  0  0  0  0  0
   -3.0505   -1.1676    0.5999 H   0  0  0  0  0  0  0  0  0  0  0  0
  1  2  1  0
  2  3  1  0
  3  4  1  0
  4  5  1  0
  5  6  1  0
  6  7  1  0
  7  8  1  0
  5  2  1  0
  8  6  1  0
  1  9  1  0
  1 10  1  0
  1 11  1  0
  2 12  1  0
  4 13  1  0
  4 14  1  0
  5 15  1  0
  6 16  1  0
  7 17  1  0
  7 18  1  0
M  END
