
     RDKit          3D

 21 21  0  0  0  0  0  0  0  0999 V2000
    2.6604    0.5061    0.2513 C   0  0  0  0  0  0  0  0  0  0  0  0
    1.3145    0.3792    0.9169 C   0  0  0  0  0  0  0  0  0  0  0  0
    0.9231   -0.8399    1.4524 O   0  0  0  0  0  0  0  0  0  0  0  0
    0.2209   -0.3898    0.3142 C   0  0  0  0  0  0  0  0  0  0  0  0
    0.4326   -1.2915   -0.8692 C   0  0  0  0  0  0  0  0  0  0  0  0
   -1.1648    0.1456    0.4843 C   0  0  0  0  0  0  0  0  0  0  0  0
   -2.0491   -0.7764    1.0258 O   0  0  0  0  0  0  0  0  0  0  0  0
   -1.6299    0.6708   -0.8530 C   0  0  0  0  0  0  0  0  0  0  0  0
   -2.8747    1.3029   -0.7088 O   0  0  0  0  0  0  0  0  0  0  0  0
    3.4644    0.5028    1.0254 H   0  0  0  0  0  0  0  0  0  0  0  0
    2.6923    1.5108   -0.2207 H   0  0  0  0  0  0  0  0  0  0  0  0
    2.8420   -0.2325   -0.5293 H   0  0  0  0  0  0  0  0  0  0  0  0
    1.0570    1.2387    1.5522 H   0  0  0  0  0  0  0  0  0  0  0  0
   -0.2205   -2.1983   -0.7214 H   0  0  0  0  0  0  0  0  0  0  0  0
    0.1559   -0.8598   -1.8285 H   0  0  0  0  0  0  0  0  0  0  0  0
    1.4630   -1.6858   -0.9393 H   0  0  0  0  0  0  0  0  0  0  0  0
   -1.1565    1.0177    1.1783 H   0  0  0  0  0  0  0  0  0  0  0  0
   -1.9829   -0.7776    2.0323 H   0  0  0  0  0  0  0  0  0  0  0  0
   -1.7389   -0.1397   -1.6006 H   0  0  0  0  0  0  0  0  0  0  0  0
   -0.8563    1.3596   -1.2300 H   0  0  0  0  0  0  0  0  0  0  0  0
   -3.5525    0.5571   -0.7322 H   0  0  0  0  0  0  0  0  0  0  0  0
  1  2  1  0
  2  3  1  0
  3  4  1  0
  4  5  1  0
  4  6  1  0
  6  7  1  0
  6  8  1  0
  8  9  1  0
  4  2  1  0
  1 10  1  0
  1 11  1  0
  1 12  1  0
  2 13  1  0
  5 14  1  0
  5 15  1  0
  5 16  1  0
  6 17  1  0
  7 18  1  0
  8 19  1  0
  8 20  1  0
  9 21  1  0
M  END
