
     RDKit          3D

 19 21  0  0  0  0  0  0  0  0999 V2000
   -2.3491   -0.1262    0.3406 C   0  0  0  0  0  0  0  0  0  0  0  0
   -1.1612    0.4643   -0.3789 C   0  0  0  0  0  0  0  0  0  0  0  0
   -0.4800    1.3924    0.3542 O   0  0  0  0  0  0  0  0  0  0  0  0
    0.8804    1.2942    0.0647 C   0  0  0  0  0  0  0  0  0  0  0  0
    1.0625    0.2661   -0.9580 C   0  0  0  0  0  0  0  0  0  0  0  0
   -0.1544   -0.6000   -0.7794 C   0  0  0  0  0  0  0  0  0  0  0  0
    0.5137   -1.1970    0.4370 C   0  0  0  0  0  0  0  0  0  0  0  0
    1.4827   -0.0198    0.3983 C   0  0  0  0  0  0  0  0  0  0  0  0
    2.8031   -0.1999    0.6697 O   0  0  0  0  0  0  0  0  0  0  0  0
   -2.0827   -0.6203    1.2829 H   0  0  0  0  0  0  0  0  0  0  0  0
   -3.0668    0.6841    0.5116 H   0  0  0  0  0  0  0  0  0  0  0  0
   -2.8245   -0.8446   -0.3733 H   0  0  0  0  0  0  0  0  0  0  0  0
   -1.5335    0.9203   -1.3164 H   0  0  0  0  0  0  0  0  0  0  0  0
    1.4777    2.2118    0.1010 H   0  0  0  0  0  0  0  0  0  0  0  0
    1.6391    0.3155   -1.8493 H   0  0  0  0  0  0  0  0  0  0  0  0
   -0.4323   -1.2661   -1.5826 H   0  0  0  0  0  0  0  0  0  0  0  0
   -0.0987   -1.1110    1.3574 H   0  0  0  0  0  0  0  0  0  0  0  0
    1.0219   -2.1561    0.2689 H   0  0  0  0  0  0  0  0  0  0  0  0
    3.3021    0.5921    0.4212 H   0  0  0  0  0  0  0  0  0  0  0  0
  1  2  1  0
  2  3  1  0
  3  4  1  0
  4  5  1  0
  5  6  1  0
  6  7  1  0
  7  8  1  0
  8  9  1  0
  6  2  1  0
  8  4  1  0
  8  5  1  0
  1 10  1  0
  1 11  1  0
  1 12  1  0
  2 13  1  0
  4 14  1  0
  5 15  1  0
  6 16  1  0
  7 17  1  0
  7 18  1  0
  9 19  1  0
M  END
