
     RDKit          3D

 21 22  0  0  0  0  0  0  0  0999 V2000
    2.5379   -0.1077   -0.2577 C   0  0  0  0  0  0  0  0  0  0  0  0
    1.3143   -0.3375    0.6079 C   0  0  0  0  0  0  0  0  0  0  0  0
    0.3531   -0.9205   -0.2317 O   0  0  0  0  0  0  0  0  0  0  0  0
   -0.8376   -0.1771   -0.0830 C   0  0  0  0  0  0  0  0  0  0  0  0
   -2.0485   -1.1152   -0.0716 C   0  0  0  0  0  0  0  0  0  0  0  0
   -0.9864    0.8183   -1.1639 C   0  0  0  0  0  0  0  0  0  0  0  0
   -0.6713    0.3443    1.2925 C   0  0  0  0  0  0  0  0  0  0  0  0
   -0.1402    1.4042    1.8292 O   0  0  0  0  0  0  0  0  0  0  0  0
    0.7160    0.9799    0.9393 C   0  0  0  0  0  0  0  0  0  0  0  0
    2.3466    0.8126   -0.8838 H   0  0  0  0  0  0  0  0  0  0  0  0
    2.6133   -0.9925   -0.9509 H   0  0  0  0  0  0  0  0  0  0  0  0
    3.4636   -0.0110    0.3031 H   0  0  0  0  0  0  0  0  0  0  0  0
    1.5624   -0.9751    1.4661 H   0  0  0  0  0  0  0  0  0  0  0  0
   -2.6275   -1.0180    0.8680 H   0  0  0  0  0  0  0  0  0  0  0  0
   -1.7393   -2.1492   -0.2430 H   0  0  0  0  0  0  0  0  0  0  0  0
   -2.7578   -0.8146   -0.8880 H   0  0  0  0  0  0  0  0  0  0  0  0
   -1.4472    1.7802   -0.8537 H   0  0  0  0  0  0  0  0  0  0  0  0
   -0.0457    0.9864   -1.7667 H   0  0  0  0  0  0  0  0  0  0  0  0
   -1.7000    0.3939   -1.9322 H   0  0  0  0  0  0  0  0  0  0  0  0
   -0.6167   -0.5406    2.0069 H   0  0  0  0  0  0  0  0  0  0  0  0
    0.7110    1.6393    0.0133 H   0  0  0  0  0  0  0  0  0  0  0  0
  1  2  1  0
  2  3  1  0
  3  4  1  0
  4  5  1  0
  4  6  1  0
  4  7  1  0
  7  8  1  0
  8  9  1  0
  9  2  1  0
  9  7  1  0
  1 10  1  0
  1 11  1  0
  1 12  1  0
  2 13  1  0
  5 14  1  0
  5 15  1  0
  5 16  1  0
  6 17  1  0
  6 18  1  0
  6 19  1  0
  7 20  1  0
  9 21  1  0
M  END
