
     RDKit          3D

 23 24  0  0  0  0  0  0  0  0999 V2000
    2.5132   -0.5916    0.6597 C   0  0  0  0  0  0  0  0  0  0  0  0
    1.4418    0.2449    0.0575 C   0  0  0  0  0  0  0  0  0  0  0  0
    1.0018    1.2330    0.9029 O   0  0  0  0  0  0  0  0  0  0  0  0
   -0.1485    1.8575    0.5132 C   0  0  0  0  0  0  0  0  0  0  0  0
   -1.1315    0.9153   -0.1117 C   0  0  0  0  0  0  0  0  0  0  0  0
   -0.4852    0.3697   -1.3887 C   0  0  0  0  0  0  0  0  0  0  0  0
    0.2790   -0.5745   -0.4514 C   0  0  0  0  0  0  0  0  0  0  0  0
   -0.9171   -0.4683    0.4841 C   0  0  0  0  0  0  0  0  0  0  0  0
   -1.9978   -1.4424    0.1180 C   0  0  0  0  0  0  0  0  0  0  0  0
    2.8304   -1.3402   -0.1216 H   0  0  0  0  0  0  0  0  0  0  0  0
    3.4057    0.0301    0.8435 H   0  0  0  0  0  0  0  0  0  0  0  0
    2.1232   -1.0877    1.5575 H   0  0  0  0  0  0  0  0  0  0  0  0
    1.8818    0.7465   -0.8535 H   0  0  0  0  0  0  0  0  0  0  0  0
   -0.6311    2.2906    1.4160 H   0  0  0  0  0  0  0  0  0  0  0  0
    0.0053    2.7048   -0.1977 H   0  0  0  0  0  0  0  0  0  0  0  0
   -2.1584    1.2455   -0.2090 H   0  0  0  0  0  0  0  0  0  0  0  0
    0.1489    1.1296   -1.8688 H   0  0  0  0  0  0  0  0  0  0  0  0
   -1.1629   -0.1160   -2.0852 H   0  0  0  0  0  0  0  0  0  0  0  0
    0.4959   -1.5552   -0.8496 H   0  0  0  0  0  0  0  0  0  0  0  0
   -0.6960   -0.5000    1.5487 H   0  0  0  0  0  0  0  0  0  0  0  0
   -2.1648   -1.5107   -0.9840 H   0  0  0  0  0  0  0  0  0  0  0  0
   -1.6873   -2.4618    0.4329 H   0  0  0  0  0  0  0  0  0  0  0  0
   -2.9463   -1.1193    0.5874 H   0  0  0  0  0  0  0  0  0  0  0  0
  1  2  1  0
  2  3  1  0
  3  4  1  0
  4  5  1  0
  5  6  1  0
  6  7  1  0
  7  8  1  0
  8  9  1  0
  7  2  1  0
  8  5  1  0
  1 10  1  0
  1 11  1  0
  1 12  1  0
  2 13  1  0
  4 14  1  0
  4 15  1  0
  5 16  1  0
  6 17  1  0
  6 18  1  0
  7 19  1  0
  8 20  1  0
  9 21  1  0
  9 22  1  0
  9 23  1  0
M  END
