
     RDKit          3D

 18 19  0  0  0  0  0  0  0  0999 V2000
    2.6538   -0.1087   -0.1522 C   0  0  0  0  0  0  0  0  0  0  0  0
    1.3895   -0.5290    0.5493 C   0  0  0  0  0  0  0  0  0  0  0  0
    0.5417   -1.3495   -0.2523 O   0  0  0  0  0  0  0  0  0  0  0  0
   -0.4841   -0.8579    0.5337 C   0  0  0  0  0  0  0  0  0  0  0  0
   -1.7957   -0.5349   -0.1047 C   0  0  0  0  0  0  0  0  0  0  0  0
   -2.0167    0.8766    0.4285 C   0  0  0  0  0  0  0  0  0  0  0  0
   -0.6108    1.4092    0.4805 C   0  0  0  0  0  0  0  0  0  0  0  0
    0.2804    0.4616    0.5111 C   0  0  0  0  0  0  0  0  0  0  0  0
    3.3661    0.2190    0.6514 H   0  0  0  0  0  0  0  0  0  0  0  0
    2.4696    0.6971   -0.8871 H   0  0  0  0  0  0  0  0  0  0  0  0
    3.0636   -1.0225   -0.6453 H   0  0  0  0  0  0  0  0  0  0  0  0
    1.5640   -1.0010    1.5176 H   0  0  0  0  0  0  0  0  0  0  0  0
   -0.5184   -1.3186    1.5289 H   0  0  0  0  0  0  0  0  0  0  0  0
   -2.6256   -1.1502    0.3093 H   0  0  0  0  0  0  0  0  0  0  0  0
   -1.7934   -0.5604   -1.1946 H   0  0  0  0  0  0  0  0  0  0  0  0
   -2.4688    0.8985    1.4202 H   0  0  0  0  0  0  0  0  0  0  0  0
   -2.6378    1.4066   -0.3126 H   0  0  0  0  0  0  0  0  0  0  0  0
   -0.3775    2.4640    0.4909 H   0  0  0  0  0  0  0  0  0  0  0  0
  1  2  1  0
  2  3  1  0
  3  4  1  0
  4  5  1  0
  5  6  1  0
  6  7  1  0
  7  8  2  0
  8  2  1  0
  8  4  1  0
  1  9  1  0
  1 10  1  0
  1 11  1  0
  2 12  1  0
  4 13  1  0
  5 14  1  0
  5 15  1  0
  6 16  1  0
  6 17  1  0
  7 18  1  0
M  END
