
     RDKit          3D

 21 23  0  0  0  0  0  0  0  0999 V2000
    2.4863    0.0387   -0.2217 C   0  0  0  0  0  0  0  0  0  0  0  0
    1.1237   -0.6121    0.0109 C   0  0  0  0  0  0  0  0  0  0  0  0
    0.4663   -0.7311   -1.1890 O   0  0  0  0  0  0  0  0  0  0  0  0
   -0.8800   -0.4662   -1.1134 C   0  0  0  0  0  0  0  0  0  0  0  0
   -1.0177    1.0408   -0.8542 C   0  0  0  0  0  0  0  0  0  0  0  0
   -0.5856    1.1457    0.5655 C   0  0  0  0  0  0  0  0  0  0  0  0
   -1.0011   -0.1705    1.2126 C   0  0  0  0  0  0  0  0  0  0  0  0
   -1.5495   -1.0328    0.1062 C   0  0  0  0  0  0  0  0  0  0  0  0
    0.4087    0.2002    1.0360 C   0  0  0  0  0  0  0  0  0  0  0  0
    2.8079    0.6453    0.6449 H   0  0  0  0  0  0  0  0  0  0  0  0
    2.3603    0.7260   -1.0687 H   0  0  0  0  0  0  0  0  0  0  0  0
    3.2716   -0.7226   -0.3837 H   0  0  0  0  0  0  0  0  0  0  0  0
    1.3531   -1.6603    0.3584 H   0  0  0  0  0  0  0  0  0  0  0  0
   -1.3902   -0.7547   -2.0377 H   0  0  0  0  0  0  0  0  0  0  0  0
   -2.1057    1.2535   -0.9921 H   0  0  0  0  0  0  0  0  0  0  0  0
   -0.3850    1.5977   -1.5619 H   0  0  0  0  0  0  0  0  0  0  0  0
   -0.7663    2.0894    1.1063 H   0  0  0  0  0  0  0  0  0  0  0  0
   -1.5316   -0.1400    2.1722 H   0  0  0  0  0  0  0  0  0  0  0  0
   -2.6346   -0.7967    0.0227 H   0  0  0  0  0  0  0  0  0  0  0  0
   -1.4144   -2.0996    0.2521 H   0  0  0  0  0  0  0  0  0  0  0  0
    0.9838    0.4495    1.9349 H   0  0  0  0  0  0  0  0  0  0  0  0
  1  2  1  0
  2  3  1  0
  3  4  1  0
  4  5  1  0
  5  6  1  0
  6  7  1  0
  7  8  1  0
  7  9  1  0
  9  2  1  0
  8  4  1  0
  9  6  1  0
  1 10  1  0
  1 11  1  0
  1 12  1  0
  2 13  1  0
  4 14  1  0
  5 15  1  0
  5 16  1  0
  6 17  1  0
  7 18  1  0
  8 19  1  0
  8 20  1  0
  9 21  1  0
M  END
