
     RDKit          3D

 21 22  0  0  0  0  0  0  0  0999 V2000
    2.2835   -0.5876    0.2009 C   0  0  0  0  0  0  0  0  0  0  0  0
    1.0856   -0.4215   -0.6851 C   0  0  0  0  0  0  0  0  0  0  0  0
    0.2460   -1.5463   -0.5640 O   0  0  0  0  0  0  0  0  0  0  0  0
   -0.4070   -0.8695    0.4655 C   0  0  0  0  0  0  0  0  0  0  0  0
   -1.9086   -0.8710    0.2799 C   0  0  0  0  0  0  0  0  0  0  0  0
   -2.1453    0.0353   -0.8738 C   0  0  0  0  0  0  0  0  0  0  0  0
   -1.0614    0.7534   -1.0911 C   0  0  0  0  0  0  0  0  0  0  0  0
   -0.0253    0.4164   -0.1421 C   0  0  0  0  0  0  0  0  0  0  0  0
    0.3468    1.5502    0.7480 C   0  0  0  0  0  0  0  0  0  0  0  0
    2.6569   -1.6280    0.0598 H   0  0  0  0  0  0  0  0  0  0  0  0
    2.0644   -0.4630    1.2720 H   0  0  0  0  0  0  0  0  0  0  0  0
    3.1169    0.1002   -0.1097 H   0  0  0  0  0  0  0  0  0  0  0  0
    1.3463   -0.1510   -1.7073 H   0  0  0  0  0  0  0  0  0  0  0  0
   -0.0480   -1.1200    1.4678 H   0  0  0  0  0  0  0  0  0  0  0  0
   -2.2618   -1.8870   -0.0254 H   0  0  0  0  0  0  0  0  0  0  0  0
   -2.4333   -0.5315    1.1824 H   0  0  0  0  0  0  0  0  0  0  0  0
   -3.1008    0.0695   -1.4363 H   0  0  0  0  0  0  0  0  0  0  0  0
   -0.9621    1.4994   -1.8797 H   0  0  0  0  0  0  0  0  0  0  0  0
    0.6425    2.4108    0.0799 H   0  0  0  0  0  0  0  0  0  0  0  0
   -0.5630    1.9007    1.2795 H   0  0  0  0  0  0  0  0  0  0  0  0
    1.1279    1.3406    1.4788 H   0  0  0  0  0  0  0  0  0  0  0  0
  1  2  1  0
  2  3  1  0
  3  4  1  0
  4  5  1  0
  5  6  1  0
  6  7  2  0
  7  8  1  0
  8  9  1  0
  8  2  1  0
  8  4  1  0
  1 10  1  0
  1 11  1  0
  1 12  1  0
  2 13  1  0
  4 14  1  0
  5 15  1  0
  5 16  1  0
  6 17  1  0
  7 18  1  0
  9 19  1  0
  9 20  1  0
  9 21  1  0
M  END
