
     RDKit          3D

 20 20  0  0  0  0  0  0  0  0999 V2000
   -1.9805   -1.3421    0.2757 C   0  0  0  0  0  0  0  0  0  0  0  0
   -1.4655   -0.0115   -0.1772 C   0  0  0  0  0  0  0  0  0  0  0  0
   -0.5879   -0.1948   -1.2658 O   0  0  0  0  0  0  0  0  0  0  0  0
    0.3758   -0.5461   -0.3175 C   0  0  0  0  0  0  0  0  0  0  0  0
    1.7973   -0.2953   -0.7400 C   0  0  0  0  0  0  0  0  0  0  0  0
    2.6187   -0.6998    0.3172 O   0  0  0  0  0  0  0  0  0  0  0  0
   -0.2358    0.4685    0.5964 C   0  0  0  0  0  0  0  0  0  0  0  0
    0.1743    1.8588    0.2513 C   0  0  0  0  0  0  0  0  0  0  0  0
   -3.0988   -1.2805    0.2777 H   0  0  0  0  0  0  0  0  0  0  0  0
   -1.5922   -1.6833    1.2396 H   0  0  0  0  0  0  0  0  0  0  0  0
   -1.7535   -2.1612   -0.4675 H   0  0  0  0  0  0  0  0  0  0  0  0
   -2.2061    0.7840   -0.3093 H   0  0  0  0  0  0  0  0  0  0  0  0
    0.2678   -1.5604    0.1079 H   0  0  0  0  0  0  0  0  0  0  0  0
    2.0027   -1.0168   -1.5860 H   0  0  0  0  0  0  0  0  0  0  0  0
    1.9688    0.7362   -1.0556 H   0  0  0  0  0  0  0  0  0  0  0  0
    3.0836    0.0798    0.7107 H   0  0  0  0  0  0  0  0  0  0  0  0
   -0.2661    0.2140    1.6732 H   0  0  0  0  0  0  0  0  0  0  0  0
   -0.3161    2.6397    0.8562 H   0  0  0  0  0  0  0  0  0  0  0  0
    1.2625    1.9603    0.4245 H   0  0  0  0  0  0  0  0  0  0  0  0
   -0.0492    2.0505   -0.8114 H   0  0  0  0  0  0  0  0  0  0  0  0
  1  2  1  0
  2  3  1  0
  3  4  1  0
  4  5  1  0
  5  6  1  0
  4  7  1  0
  7  8  1  0
  7  2  1  0
  1  9  1  0
  1 10  1  0
  1 11  1  0
  2 12  1  0
  4 13  1  0
  5 14  1  0
  5 15  1  0
  6 16  1  0
  7 17  1  0
  8 18  1  0
  8 19  1  0
  8 20  1  0
M  END
