
     RDKit          3D

 17 19  0  0  0  0  0  0  0  0999 V2000
    2.5365    0.2733   -0.4521 C   0  0  0  0  0  0  0  0  0  0  0  0
    1.3065   -0.4478   -0.0546 C   0  0  0  0  0  0  0  0  0  0  0  0
    0.4511   -0.8088   -1.1526 O   0  0  0  0  0  0  0  0  0  0  0  0
   -0.5095   -0.8972   -0.1621 C   0  0  0  0  0  0  0  0  0  0  0  0
    0.1501    0.3712    0.3747 C   0  0  0  0  0  0  0  0  0  0  0  0
   -0.7917    1.1773    0.7997 C   0  0  0  0  0  0  0  0  0  0  0  0
   -2.1496    0.6027    0.4621 C   0  0  0  0  0  0  0  0  0  0  0  0
   -2.3760    0.6054   -0.9378 O   0  0  0  0  0  0  0  0  0  0  0  0
   -1.9136   -0.5573   -0.4102 C   0  0  0  0  0  0  0  0  0  0  0  0
    3.3764   -0.0768    0.1812 H   0  0  0  0  0  0  0  0  0  0  0  0
    2.4530    1.3897   -0.3918 H   0  0  0  0  0  0  0  0  0  0  0  0
    2.7333    0.0558   -1.5299 H   0  0  0  0  0  0  0  0  0  0  0  0
    1.4401   -1.3249    0.5763 H   0  0  0  0  0  0  0  0  0  0  0  0
   -0.3660   -1.7429    0.5436 H   0  0  0  0  0  0  0  0  0  0  0  0
   -0.6836    2.1159    1.3152 H   0  0  0  0  0  0  0  0  0  0  0  0
   -2.9706    0.6532    1.1542 H   0  0  0  0  0  0  0  0  0  0  0  0
   -2.6864   -1.3889   -0.3158 H   0  0  0  0  0  0  0  0  0  0  0  0
  1  2  1  0
  2  3  1  0
  3  4  1  0
  4  5  1  0
  5  6  2  0
  6  7  1  0
  7  8  1  0
  8  9  1  0
  5  2  1  0
  9  7  1  0
  9  4  1  0
  1 10  1  0
  1 11  1  0
  1 12  1  0
  2 13  1  0
  4 14  1  0
  6 15  1  0
  7 16  1  0
  9 17  1  0
M  END
