
     RDKit          3D

 19 20  0  0  0  0  0  0  0  0999 V2000
    2.9553   -0.1980    0.3576 C   0  0  0  0  0  0  0  0  0  0  0  0
    1.5311    0.0109    0.7506 C   0  0  0  0  0  0  0  0  0  0  0  0
    0.8065   -1.2868    0.8674 O   0  0  0  0  0  0  0  0  0  0  0  0
    0.4388   -0.2320   -0.1172 C   0  0  0  0  0  0  0  0  0  0  0  0
   -0.9522    0.2450    0.2122 C   0  0  0  0  0  0  0  0  0  0  0  0
   -1.1253    0.7855    1.4606 O   0  0  0  0  0  0  0  0  0  0  0  0
   -1.6439    1.0436   -0.8396 C   0  0  0  0  0  0  0  0  0  0  0  0
   -2.8206    0.3085   -0.6545 O   0  0  0  0  0  0  0  0  0  0  0  0
   -2.0363   -0.7566   -0.2030 C   0  0  0  0  0  0  0  0  0  0  0  0
    3.2119    0.3142   -0.6124 H   0  0  0  0  0  0  0  0  0  0  0  0
    3.2452   -1.2718    0.2803 H   0  0  0  0  0  0  0  0  0  0  0  0
    3.6388    0.2707    1.1091 H   0  0  0  0  0  0  0  0  0  0  0  0
    1.3563    0.5460    1.7217 H   0  0  0  0  0  0  0  0  0  0  0  0
    0.5896   -0.6816   -1.1184 H   0  0  0  0  0  0  0  0  0  0  0  0
   -2.0019    0.4872    1.8136 H   0  0  0  0  0  0  0  0  0  0  0  0
   -1.2188    0.9741   -1.8606 H   0  0  0  0  0  0  0  0  0  0  0  0
   -1.8474    2.1077   -0.5611 H   0  0  0  0  0  0  0  0  0  0  0  0
   -2.4106   -1.2960    0.6705 H   0  0  0  0  0  0  0  0  0  0  0  0
   -1.7167   -1.3707   -1.0582 H   0  0  0  0  0  0  0  0  0  0  0  0
  1  2  1  0
  2  3  1  0
  3  4  1  0
  4  5  1  0
  5  6  1  0
  5  7  1  0
  7  8  1  0
  8  9  1  0
  4  2  1  0
  9  5  1  0
  1 10  1  0
  1 11  1  0
  1 12  1  0
  2 13  1  0
  4 14  1  0
  6 15  1  0
  7 16  1  0
  7 17  1  0
  9 18  1  0
  9 19  1  0
M  END
