
     RDKit          3D

 21 22  0  0  0  0  0  0  0  0999 V2000
    3.1735   -0.2895    0.6999 C   0  0  0  0  0  0  0  0  0  0  0  0
    1.8965   -0.6824   -0.0082 C   0  0  0  0  0  0  0  0  0  0  0  0
    1.6757    0.1775   -1.1488 O   0  0  0  0  0  0  0  0  0  0  0  0
    0.7859    0.2231    0.0386 C   0  0  0  0  0  0  0  0  0  0  0  0
   -0.6147   -0.0972   -0.3527 C   0  0  0  0  0  0  0  0  0  0  0  0
   -1.2083   -1.2268    0.4706 C   0  0  0  0  0  0  0  0  0  0  0  0
   -1.4497    1.1551   -0.2647 C   0  0  0  0  0  0  0  0  0  0  0  0
   -2.8568    1.1921   -0.5769 C   0  0  0  0  0  0  0  0  0  0  0  0
   -2.4138    1.0908    0.7640 O   0  0  0  0  0  0  0  0  0  0  0  0
    3.3918   -0.9115    1.5684 H   0  0  0  0  0  0  0  0  0  0  0  0
    3.1750    0.7947    0.9786 H   0  0  0  0  0  0  0  0  0  0  0  0
    4.0001   -0.4498   -0.0366 H   0  0  0  0  0  0  0  0  0  0  0  0
    1.8120   -1.7623   -0.1933 H   0  0  0  0  0  0  0  0  0  0  0  0
    0.9477    1.2093    0.5699 H   0  0  0  0  0  0  0  0  0  0  0  0
   -0.7209   -0.4465   -1.4214 H   0  0  0  0  0  0  0  0  0  0  0  0
   -2.2112   -1.4194    0.0690 H   0  0  0  0  0  0  0  0  0  0  0  0
   -1.2311   -1.0140    1.5435 H   0  0  0  0  0  0  0  0  0  0  0  0
   -0.5900   -2.1319    0.2648 H   0  0  0  0  0  0  0  0  0  0  0  0
   -0.8608    2.0957   -0.3717 H   0  0  0  0  0  0  0  0  0  0  0  0
   -3.3065    2.1780   -0.8140 H   0  0  0  0  0  0  0  0  0  0  0  0
   -3.3942    0.3151   -0.9991 H   0  0  0  0  0  0  0  0  0  0  0  0
  1  2  1  0
  2  3  1  0
  3  4  1  0
  4  5  1  0
  5  6  1  0
  5  7  1  0
  7  8  1  0
  8  9  1  0
  4  2  1  0
  9  7  1  0
  1 10  1  0
  1 11  1  0
  1 12  1  0
  2 13  1  0
  4 14  1  0
  5 15  1  0
  6 16  1  0
  6 17  1  0
  6 18  1  0
  7 19  1  0
  8 20  1  0
  8 21  1  0
M  END
