
     RDKit          3D

 18 19  0  0  0  0  0  0  0  0999 V2000
   -2.3076    0.1647    0.3642 C   0  0  0  0  0  0  0  0  0  0  0  0
   -0.9804   -0.1364   -0.2426 C   0  0  0  0  0  0  0  0  0  0  0  0
   -0.5354   -1.4242   -0.0493 O   0  0  0  0  0  0  0  0  0  0  0  0
    0.7744   -1.3630   -0.5817 C   0  0  0  0  0  0  0  0  0  0  0  0
    1.3558   -0.1369    0.0585 C   0  0  0  0  0  0  0  0  0  0  0  0
    2.4391   -0.2255    0.9074 O   0  0  0  0  0  0  0  0  0  0  0  0
    1.1367    1.2088   -0.5535 C   0  0  0  0  0  0  0  0  0  0  0  0
    0.1528    0.6725    0.4022 C   0  0  0  0  0  0  0  0  0  0  0  0
   -3.0699    0.4319   -0.4164 H   0  0  0  0  0  0  0  0  0  0  0  0
   -2.7375   -0.6494    0.9681 H   0  0  0  0  0  0  0  0  0  0  0  0
   -2.2029    1.0685    1.0155 H   0  0  0  0  0  0  0  0  0  0  0  0
   -1.0225    0.0385   -1.3401 H   0  0  0  0  0  0  0  0  0  0  0  0
    0.6956   -1.2706   -1.6850 H   0  0  0  0  0  0  0  0  0  0  0  0
    1.3808   -2.2284   -0.2557 H   0  0  0  0  0  0  0  0  0  0  0  0
    2.2372   -0.4267    1.8316 H   0  0  0  0  0  0  0  0  0  0  0  0
    0.8594    1.2601   -1.6341 H   0  0  0  0  0  0  0  0  0  0  0  0
    1.7599    2.0387   -0.2293 H   0  0  0  0  0  0  0  0  0  0  0  0
    0.0646    0.9774    1.4402 H   0  0  0  0  0  0  0  0  0  0  0  0
  1  2  1  0
  2  3  1  0
  3  4  1  0
  4  5  1  0
  5  6  1  0
  5  7  1  0
  7  8  1  0
  8  2  1  0
  8  5  1  0
  1  9  1  0
  1 10  1  0
  1 11  1  0
  2 12  1  0
  4 13  1  0
  4 14  1  0
  6 15  1  0
  7 16  1  0
  7 17  1  0
  8 18  1  0
M  END
