
     RDKit          3D

 17 18  0  0  0  0  0  0  0  0999 V2000
   -2.3593    0.6145   -0.7152 C   0  0  0  0  0  0  0  0  0  0  0  0
   -2.5214   -0.3969    0.3708 C   0  0  0  0  0  0  0  0  0  0  0  0
   -1.9292   -1.6850   -0.0602 O   0  0  0  0  0  0  0  0  0  0  0  0
   -1.3066   -1.0560    0.9890 C   0  0  0  0  0  0  0  0  0  0  0  0
   -0.0081   -0.4522    0.6864 C   0  0  0  0  0  0  0  0  0  0  0  0
    1.0711    0.0702    0.4430 C   0  0  0  0  0  0  0  0  0  0  0  0
    2.3511    0.7144    0.1395 C   0  0  0  0  0  0  0  0  0  0  0  0
    3.3660    0.0029   -0.5195 C   0  0  0  0  0  0  0  0  0  0  0  0
    3.4521    0.0905    0.9490 O   0  0  0  0  0  0  0  0  0  0  0  0
   -2.3417    1.6423   -0.2582 H   0  0  0  0  0  0  0  0  0  0  0  0
   -1.4558    0.4316   -1.3212 H   0  0  0  0  0  0  0  0  0  0  0  0
   -3.2923    0.5941   -1.3319 H   0  0  0  0  0  0  0  0  0  0  0  0
   -3.5044   -0.5046    0.8484 H   0  0  0  0  0  0  0  0  0  0  0  0
   -1.4713   -1.4235    2.0403 H   0  0  0  0  0  0  0  0  0  0  0  0
    2.3939    1.8315    0.2065 H   0  0  0  0  0  0  0  0  0  0  0  0
    4.2656    0.5445   -0.9212 H   0  0  0  0  0  0  0  0  0  0  0  0
    3.2904   -1.0181   -0.9073 H   0  0  0  0  0  0  0  0  0  0  0  0
  1  2  1  0
  2  3  1  0
  3  4  1  0
  4  5  1  0
  5  6  3  0
  6  7  1  0
  7  8  1  0
  8  9  1  0
  4  2  1  0
  9  7  1  0
  1 10  1  0
  1 11  1  0
  1 12  1  0
  2 13  1  0
  4 14  1  0
  7 15  1  0
  8 16  1  0
  8 17  1  0
M  END
