
     RDKit          3D

 21 22  0  0  0  0  0  0  0  0999 V2000
    2.4434    0.7380    0.3595 C   0  0  0  0  0  0  0  0  0  0  0  0
    1.4071   -0.1888   -0.2013 C   0  0  0  0  0  0  0  0  0  0  0  0
    1.7479   -1.5195    0.1311 O   0  0  0  0  0  0  0  0  0  0  0  0
    0.3817   -1.7880    0.1464 C   0  0  0  0  0  0  0  0  0  0  0  0
    0.1652   -0.3623    0.6092 C   0  0  0  0  0  0  0  0  0  0  0  0
   -1.1096    0.1688   -0.0021 C   0  0  0  0  0  0  0  0  0  0  0  0
   -2.3188   -0.0510    0.8906 C   0  0  0  0  0  0  0  0  0  0  0  0
   -1.1293    1.3845   -0.8163 C   0  0  0  0  0  0  0  0  0  0  0  0
   -1.2873    0.0494   -1.3594 O   0  0  0  0  0  0  0  0  0  0  0  0
    2.0397    1.7511    0.5930 H   0  0  0  0  0  0  0  0  0  0  0  0
    3.2332    0.8686   -0.4320 H   0  0  0  0  0  0  0  0  0  0  0  0
    2.9029    0.3360    1.2856 H   0  0  0  0  0  0  0  0  0  0  0  0
    1.2381   -0.1069   -1.2882 H   0  0  0  0  0  0  0  0  0  0  0  0
    0.0521   -2.5652    0.8548 H   0  0  0  0  0  0  0  0  0  0  0  0
    0.0515   -1.9548   -0.9011 H   0  0  0  0  0  0  0  0  0  0  0  0
    0.2756   -0.2130    1.6766 H   0  0  0  0  0  0  0  0  0  0  0  0
   -3.0613    0.7648    0.7972 H   0  0  0  0  0  0  0  0  0  0  0  0
   -2.0127   -0.0844    1.9505 H   0  0  0  0  0  0  0  0  0  0  0  0
   -2.7694   -1.0579    0.6659 H   0  0  0  0  0  0  0  0  0  0  0  0
   -0.1722    1.8772   -1.0251 H   0  0  0  0  0  0  0  0  0  0  0  0
   -2.0777    1.9532   -0.8916 H   0  0  0  0  0  0  0  0  0  0  0  0
  1  2  1  0
  2  3  1  0
  3  4  1  0
  4  5  1  0
  5  6  1  0
  6  7  1  0
  6  8  1  0
  8  9  1  0
  5  2  1  0
  9  6  1  0
  1 10  1  0
  1 11  1  0
  1 12  1  0
  2 13  1  0
  4 14  1  0
  4 15  1  0
  5 16  1  0
  7 17  1  0
  7 18  1  0
  7 19  1  0
  8 20  1  0
  8 21  1  0
M  END
