
     RDKit          3D

 19 19  0  0  0  0  0  0  0  0999 V2000
    1.7506   -0.0507   -0.8078 C   0  0  0  0  0  0  0  0  0  0  0  0
    0.8506   -0.2981    0.3956 C   0  0  0  0  0  0  0  0  0  0  0  0
    0.3622   -1.5860    0.2645 O   0  0  0  0  0  0  0  0  0  0  0  0
   -0.9912   -1.7224    0.4877 C   0  0  0  0  0  0  0  0  0  0  0  0
   -1.6776   -0.8505   -0.4939 C   0  0  0  0  0  0  0  0  0  0  0  0
   -1.3004    0.4169   -0.4956 C   0  0  0  0  0  0  0  0  0  0  0  0
   -0.2250    0.7256    0.5238 C   0  0  0  0  0  0  0  0  0  0  0  0
    0.2431    2.1085    0.4161 C   0  0  0  0  0  0  0  0  0  0  0  0
    0.5907    2.5470   -0.6578 O   0  0  0  0  0  0  0  0  0  0  0  0
    2.6095    0.6092   -0.5261 H   0  0  0  0  0  0  0  0  0  0  0  0
    1.2134    0.3870   -1.6566 H   0  0  0  0  0  0  0  0  0  0  0  0
    2.1831   -1.0196   -1.1342 H   0  0  0  0  0  0  0  0  0  0  0  0
    1.4893   -0.2934    1.3029 H   0  0  0  0  0  0  0  0  0  0  0  0
   -1.2794   -1.4573    1.5338 H   0  0  0  0  0  0  0  0  0  0  0  0
   -1.2524   -2.7866    0.3657 H   0  0  0  0  0  0  0  0  0  0  0  0
   -2.4314   -1.1887   -1.1705 H   0  0  0  0  0  0  0  0  0  0  0  0
   -1.6909    1.1757   -1.1357 H   0  0  0  0  0  0  0  0  0  0  0  0
   -0.7328    0.5262    1.5140 H   0  0  0  0  0  0  0  0  0  0  0  0
    0.2887    2.7571    1.2740 H   0  0  0  0  0  0  0  0  0  0  0  0
  1  2  1  0
  2  3  1  0
  3  4  1  0
  4  5  1  0
  5  6  2  0
  6  7  1  0
  7  8  1  0
  8  9  2  0
  7  2  1  0
  1 10  1  0
  1 11  1  0
  1 12  1  0
  2 13  1  0
  4 14  1  0
  4 15  1  0
  5 16  1  0
  6 17  1  0
  7 18  1  0
  8 19  1  0
M  END
