
     RDKit          3D

 19 19  0  0  0  0  0  0  0  0999 V2000
   -2.4404   -0.2835    0.0272 C   0  0  0  0  0  0  0  0  0  0  0  0
   -1.2942    0.6852   -0.0054 C   0  0  0  0  0  0  0  0  0  0  0  0
   -0.3232    0.3804    0.9772 O   0  0  0  0  0  0  0  0  0  0  0  0
    0.6704    0.2427    0.0082 C   0  0  0  0  0  0  0  0  0  0  0  0
    1.7214    1.3314    0.1894 C   0  0  0  0  0  0  0  0  0  0  0  0
    1.3388   -1.1086    0.0700 C   0  0  0  0  0  0  0  0  0  0  0  0
    0.4518   -2.1511   -0.1279 O   0  0  0  0  0  0  0  0  0  0  0  0
   -0.2837    0.4557   -1.0697 C   0  0  0  0  0  0  0  0  0  0  0  0
   -0.2908    0.4551   -2.2821 O   0  0  0  0  0  0  0  0  0  0  0  0
   -3.3961    0.2380    0.3275 H   0  0  0  0  0  0  0  0  0  0  0  0
   -2.5541   -0.7645   -0.9741 H   0  0  0  0  0  0  0  0  0  0  0  0
   -2.2896   -1.0823    0.7827 H   0  0  0  0  0  0  0  0  0  0  0  0
   -1.5939    1.7717    0.0730 H   0  0  0  0  0  0  0  0  0  0  0  0
    1.3112    2.3333    0.0064 H   0  0  0  0  0  0  0  0  0  0  0  0
    2.0301    1.2550    1.2709 H   0  0  0  0  0  0  0  0  0  0  0  0
    2.6427    1.1214   -0.3878 H   0  0  0  0  0  0  0  0  0  0  0  0
    1.8708   -1.1773    1.0479 H   0  0  0  0  0  0  0  0  0  0  0  0
    2.1384   -1.1292   -0.7032 H   0  0  0  0  0  0  0  0  0  0  0  0
    0.2904   -2.5735    0.7698 H   0  0  0  0  0  0  0  0  0  0  0  0
  1  2  1  0
  2  3  1  0
  3  4  1  0
  4  5  1  0
  4  6  1  0
  6  7  1  0
  4  8  1  0
  8  9  2  0
  8  2  1  0
  1 10  1  0
  1 11  1  0
  1 12  1  0
  2 13  1  0
  5 14  1  0
  5 15  1  0
  5 16  1  0
  6 17  1  0
  6 18  1  0
  7 19  1  0
M  END
