
     RDKit          3D

 17 18  0  0  0  0  0  0  0  0999 V2000
    1.7141   -0.9661    0.5916 C   0  0  0  0  0  0  0  0  0  0  0  0
    1.0275    0.1281   -0.1740 C   0  0  0  0  0  0  0  0  0  0  0  0
    0.4200    1.0688    0.6365 O   0  0  0  0  0  0  0  0  0  0  0  0
   -0.9120    1.1754    0.2576 C   0  0  0  0  0  0  0  0  0  0  0  0
   -1.5537   -0.1620    0.6177 C   0  0  0  0  0  0  0  0  0  0  0  0
   -0.9721   -1.0592   -0.2425 O   0  0  0  0  0  0  0  0  0  0  0  0
   -0.0782   -0.3859   -1.0654 C   0  0  0  0  0  0  0  0  0  0  0  0
   -0.8024    0.9261   -1.2234 C   0  0  0  0  0  0  0  0  0  0  0  0
   -1.1584    1.5416   -2.1729 O   0  0  0  0  0  0  0  0  0  0  0  0
    2.1157   -1.6793   -0.1628 H   0  0  0  0  0  0  0  0  0  0  0  0
    2.6125   -0.5093    1.0728 H   0  0  0  0  0  0  0  0  0  0  0  0
    1.0955   -1.4371    1.3523 H   0  0  0  0  0  0  0  0  0  0  0  0
    1.7997    0.6272   -0.8052 H   0  0  0  0  0  0  0  0  0  0  0  0
   -1.4362    2.0444    0.5423 H   0  0  0  0  0  0  0  0  0  0  0  0
   -1.4405   -0.3926    1.6806 H   0  0  0  0  0  0  0  0  0  0  0  0
   -2.6330   -0.0574    0.3442 H   0  0  0  0  0  0  0  0  0  0  0  0
    0.2016   -0.8625   -1.9687 H   0  0  0  0  0  0  0  0  0  0  0  0
  1  2  1  0
  2  3  1  0
  3  4  1  0
  4  5  1  0
  5  6  1  0
  6  7  1  0
  7  8  1  0
  8  9  2  0
  7  2  1  0
  8  4  1  0
  1 10  1  0
  1 11  1  0
  1 12  1  0
  2 13  1  0
  4 14  1  0
  5 15  1  0
  5 16  1  0
  7 17  1  0
M  END
