
     RDKit          3D

 19 21  0  0  0  0  0  0  0  0999 V2000
   -2.1921   -1.2196   -0.1712 C   0  0  0  0  0  0  0  0  0  0  0  0
   -0.8126   -0.8096   -0.5440 C   0  0  0  0  0  0  0  0  0  0  0  0
    0.1674   -1.3138    0.3439 O   0  0  0  0  0  0  0  0  0  0  0  0
    0.8925   -0.1716    0.0663 C   0  0  0  0  0  0  0  0  0  0  0  0
    2.0262    0.3179    0.8032 C   0  0  0  0  0  0  0  0  0  0  0  0
    2.1419   -0.2060   -0.6639 C   0  0  0  0  0  0  0  0  0  0  0  0
   -0.3389    0.5309   -0.2480 C   0  0  0  0  0  0  0  0  0  0  0  0
   -0.7923    1.7763   -0.0666 C   0  0  0  0  0  0  0  0  0  0  0  0
   -0.9968    0.9821    1.0375 O   0  0  0  0  0  0  0  0  0  0  0  0
   -2.9836   -0.5533   -0.5217 H   0  0  0  0  0  0  0  0  0  0  0  0
   -2.3493   -2.2689   -0.5513 H   0  0  0  0  0  0  0  0  0  0  0  0
   -2.2586   -1.2933    0.9330 H   0  0  0  0  0  0  0  0  0  0  0  0
   -0.5893   -1.1190   -1.5980 H   0  0  0  0  0  0  0  0  0  0  0  0
    2.6043   -0.2169    1.5625 H   0  0  0  0  0  0  0  0  0  0  0  0
    2.1415    1.4363    0.8946 H   0  0  0  0  0  0  0  0  0  0  0  0
    2.4959    0.5179   -1.3932 H   0  0  0  0  0  0  0  0  0  0  0  0
    2.6607   -1.2014   -0.7209 H   0  0  0  0  0  0  0  0  0  0  0  0
   -1.7352    2.1838   -0.5062 H   0  0  0  0  0  0  0  0  0  0  0  0
   -0.0816    2.6283    0.1594 H   0  0  0  0  0  0  0  0  0  0  0  0
  1  2  1  0
  2  3  1  0
  3  4  1  0
  4  5  1  0
  5  6  1  0
  4  7  1  0
  7  8  1  0
  8  9  1  0
  7  2  1  0
  6  4  1  0
  9  7  1  0
  1 10  1  0
  1 11  1  0
  1 12  1  0
  2 13  1  0
  5 14  1  0
  5 15  1  0
  6 16  1  0
  6 17  1  0
  8 18  1  0
  8 19  1  0
M  END
