
     RDKit          3D

 21 22  0  0  0  0  0  0  0  0999 V2000
    2.4391    0.9281   -0.2555 C   0  0  0  0  0  0  0  0  0  0  0  0
    1.6677   -0.3518   -0.3493 C   0  0  0  0  0  0  0  0  0  0  0  0
    1.0541   -0.5798    0.9999 O   0  0  0  0  0  0  0  0  0  0  0  0
    0.3392   -0.4940   -0.3044 C   0  0  0  0  0  0  0  0  0  0  0  0
   -0.4627   -1.7380   -0.4693 C   0  0  0  0  0  0  0  0  0  0  0  0
   -1.5653   -1.0095    0.3085 C   0  0  0  0  0  0  0  0  0  0  0  0
   -0.8794    0.2772   -0.1788 C   0  0  0  0  0  0  0  0  0  0  0  0
   -0.9841    1.3269    0.8941 C   0  0  0  0  0  0  0  0  0  0  0  0
   -1.4778    0.6731   -1.3449 O   0  0  0  0  0  0  0  0  0  0  0  0
    3.4135    0.6910    0.2564 H   0  0  0  0  0  0  0  0  0  0  0  0
    1.9548    1.6888    0.3857 H   0  0  0  0  0  0  0  0  0  0  0  0
    2.7226    1.3441   -1.2405 H   0  0  0  0  0  0  0  0  0  0  0  0
    2.3314   -1.2257   -0.6300 H   0  0  0  0  0  0  0  0  0  0  0  0
   -0.0984   -2.6509    0.0165 H   0  0  0  0  0  0  0  0  0  0  0  0
   -0.7798   -1.8543   -1.5370 H   0  0  0  0  0  0  0  0  0  0  0  0
   -1.4436   -1.1240    1.4047 H   0  0  0  0  0  0  0  0  0  0  0  0
   -2.5708   -1.1515   -0.0915 H   0  0  0  0  0  0  0  0  0  0  0  0
   -0.3707    2.2182    0.7050 H   0  0  0  0  0  0  0  0  0  0  0  0
   -0.7905    0.9487    1.9047 H   0  0  0  0  0  0  0  0  0  0  0  0
   -2.0544    1.6764    0.8858 H   0  0  0  0  0  0  0  0  0  0  0  0
   -2.4449    0.4071   -1.3600 H   0  0  0  0  0  0  0  0  0  0  0  0
  1  2  1  0
  2  3  1  0
  3  4  1  0
  4  5  1  0
  5  6  1  0
  6  7  1  0
  7  8  1  0
  7  9  1  0
  4  2  1  0
  7  4  1  0
  1 10  1  0
  1 11  1  0
  1 12  1  0
  2 13  1  0
  5 14  1  0
  5 15  1  0
  6 16  1  0
  6 17  1  0
  8 18  1  0
  8 19  1  0
  8 20  1  0
  9 21  1  0
M  END
