
     RDKit          3D

 19 20  0  0  0  0  0  0  0  0999 V2000
    2.6904    0.3605    0.2048 C   0  0  0  0  0  0  0  0  0  0  0  0
    1.5349   -0.4491   -0.2256 C   0  0  0  0  0  0  0  0  0  0  0  0
    1.1477   -0.4497   -1.5860 O   0  0  0  0  0  0  0  0  0  0  0  0
    0.3621    0.2987   -0.7795 C   0  0  0  0  0  0  0  0  0  0  0  0
   -0.9726   -0.1849   -0.2733 C   0  0  0  0  0  0  0  0  0  0  0  0
   -1.1836   -1.6491   -0.1467 C   0  0  0  0  0  0  0  0  0  0  0  0
   -2.0748   -2.1860   -0.7309 O   0  0  0  0  0  0  0  0  0  0  0  0
   -1.4207    0.5944    0.9608 C   0  0  0  0  0  0  0  0  0  0  0  0
   -2.1707    0.6500   -0.3294 C   0  0  0  0  0  0  0  0  0  0  0  0
    2.6739    0.2822    1.3373 H   0  0  0  0  0  0  0  0  0  0  0  0
    3.6652    0.0520   -0.1598 H   0  0  0  0  0  0  0  0  0  0  0  0
    2.5384    1.4615    0.0088 H   0  0  0  0  0  0  0  0  0  0  0  0
    1.3988   -1.4551    0.2151 H   0  0  0  0  0  0  0  0  0  0  0  0
    0.4087    1.4157   -0.8095 H   0  0  0  0  0  0  0  0  0  0  0  0
   -0.5041   -2.2326    0.5110 H   0  0  0  0  0  0  0  0  0  0  0  0
   -1.8244    0.0926    1.8386 H   0  0  0  0  0  0  0  0  0  0  0  0
   -0.9257    1.5725    1.2189 H   0  0  0  0  0  0  0  0  0  0  0  0
   -2.1495    1.6055   -0.9347 H   0  0  0  0  0  0  0  0  0  0  0  0
   -3.1941    0.2210   -0.3200 H   0  0  0  0  0  0  0  0  0  0  0  0
  1  2  1  0
  2  3  1  0
  3  4  1  0
  4  5  1  0
  5  6  1  0
  6  7  2  0
  5  8  1  0
  8  9  1  0
  4  2  1  0
  9  5  1  0
  1 10  1  0
  1 11  1  0
  1 12  1  0
  2 13  1  0
  4 14  1  0
  6 15  1  0
  8 16  1  0
  8 17  1  0
  9 18  1  0
  9 19  1  0
M  END
