
     RDKit          3D

 21 22  0  0  0  0  0  0  0  0999 V2000
    2.4440    0.1108   -0.1597 C   0  0  0  0  0  0  0  0  0  0  0  0
    1.0628   -0.1748    0.3471 C   0  0  0  0  0  0  0  0  0  0  0  0
    0.5012    1.0130    0.8722 O   0  0  0  0  0  0  0  0  0  0  0  0
   -0.4580    1.5711    0.0429 C   0  0  0  0  0  0  0  0  0  0  0  0
   -1.7059    0.6711   -0.0692 C   0  0  0  0  0  0  0  0  0  0  0  0
   -1.2032   -0.6893    0.2109 C   0  0  0  0  0  0  0  0  0  0  0  0
   -1.0778   -0.9181    1.5980 O   0  0  0  0  0  0  0  0  0  0  0  0
   -0.8220   -1.7646   -0.6272 C   0  0  0  0  0  0  0  0  0  0  0  0
    0.1235   -0.7120   -0.6293 C   0  0  0  0  0  0  0  0  0  0  0  0
    3.1585   -0.6259    0.2972 H   0  0  0  0  0  0  0  0  0  0  0  0
    2.4833   -0.0188   -1.2801 H   0  0  0  0  0  0  0  0  0  0  0  0
    2.7957    1.1392    0.0706 H   0  0  0  0  0  0  0  0  0  0  0  0
    1.1200   -0.8651    1.2390 H   0  0  0  0  0  0  0  0  0  0  0  0
   -0.7700    2.5176    0.5336 H   0  0  0  0  0  0  0  0  0  0  0  0
   -0.0812    1.8569   -0.9508 H   0  0  0  0  0  0  0  0  0  0  0  0
   -2.1886    0.7811   -1.0518 H   0  0  0  0  0  0  0  0  0  0  0  0
   -2.4253    0.9978    0.7111 H   0  0  0  0  0  0  0  0  0  0  0  0
   -1.1037   -0.1194    2.1372 H   0  0  0  0  0  0  0  0  0  0  0  0
   -0.5556   -2.7437   -0.1723 H   0  0  0  0  0  0  0  0  0  0  0  0
   -1.4352   -1.9524   -1.5540 H   0  0  0  0  0  0  0  0  0  0  0  0
    0.1375   -0.0742   -1.5656 H   0  0  0  0  0  0  0  0  0  0  0  0
  1  2  1  0
  2  3  1  0
  3  4  1  0
  4  5  1  0
  5  6  1  0
  6  7  1  0
  6  8  1  0
  8  9  1  0
  9  2  1  0
  9  6  1  0
  1 10  1  0
  1 11  1  0
  1 12  1  0
  2 13  1  0
  4 14  1  0
  4 15  1  0
  5 16  1  0
  5 17  1  0
  7 18  1  0
  8 19  1  0
  8 20  1  0
  9 21  1  0
M  END
