
     RDKit          3D

 21 22  0  0  0  0  0  0  0  0999 V2000
    2.3624   -0.3332   -0.2615 C   0  0  0  0  0  0  0  0  0  0  0  0
    1.2474    0.6462   -0.5527 C   0  0  0  0  0  0  0  0  0  0  0  0
    0.9052    1.2333    0.6825 O   0  0  0  0  0  0  0  0  0  0  0  0
    0.0425    0.3189    1.3032 C   0  0  0  0  0  0  0  0  0  0  0  0
   -0.8593   -0.0752    0.1856 C   0  0  0  0  0  0  0  0  0  0  0  0
   -1.7468   -1.2439    0.3855 C   0  0  0  0  0  0  0  0  0  0  0  0
   -1.4243    1.1185   -0.5176 C   0  0  0  0  0  0  0  0  0  0  0  0
   -0.8846    0.7280   -1.7352 O   0  0  0  0  0  0  0  0  0  0  0  0
    0.0137   -0.0684   -1.0363 C   0  0  0  0  0  0  0  0  0  0  0  0
    2.2619   -1.2591   -0.8511 H   0  0  0  0  0  0  0  0  0  0  0  0
    2.3476   -0.6546    0.8132 H   0  0  0  0  0  0  0  0  0  0  0  0
    3.3280    0.1870   -0.4038 H   0  0  0  0  0  0  0  0  0  0  0  0
    1.5318    1.4175   -1.2807 H   0  0  0  0  0  0  0  0  0  0  0  0
   -0.5485    0.9133    2.0443 H   0  0  0  0  0  0  0  0  0  0  0  0
    0.5607   -0.5012    1.7974 H   0  0  0  0  0  0  0  0  0  0  0  0
   -1.1204   -2.1182    0.6732 H   0  0  0  0  0  0  0  0  0  0  0  0
   -2.5136   -0.9902    1.1374 H   0  0  0  0  0  0  0  0  0  0  0  0
   -2.1949   -1.5091   -0.6110 H   0  0  0  0  0  0  0  0  0  0  0  0
   -0.9512    2.0823   -0.2080 H   0  0  0  0  0  0  0  0  0  0  0  0
   -2.5192    1.1317   -0.4463 H   0  0  0  0  0  0  0  0  0  0  0  0
    0.1614   -1.0237   -1.5477 H   0  0  0  0  0  0  0  0  0  0  0  0
  1  2  1  0
  2  3  1  0
  3  4  1  0
  4  5  1  0
  5  6  1  0
  5  7  1  0
  7  8  1  0
  8  9  1  0
  9  2  1  0
  9  5  1  0
  1 10  1  0
  1 11  1  0
  1 12  1  0
  2 13  1  0
  4 14  1  0
  4 15  1  0
  6 16  1  0
  6 17  1  0
  6 18  1  0
  7 19  1  0
  7 20  1  0
  9 21  1  0
M  END
