
     RDKit          3D

 19 20  0  0  0  0  0  0  0  0999 V2000
   -2.0953   -1.3292    0.0827 C   0  0  0  0  0  0  0  0  0  0  0  0
   -0.7683   -0.7793    0.4941 C   0  0  0  0  0  0  0  0  0  0  0  0
    0.2473   -1.3872   -0.2817 O   0  0  0  0  0  0  0  0  0  0  0  0
    0.8839   -0.1378   -0.4715 C   0  0  0  0  0  0  0  0  0  0  0  0
    2.0502   -0.0612    0.5037 C   0  0  0  0  0  0  0  0  0  0  0  0
    2.6950    1.1495    0.3441 O   0  0  0  0  0  0  0  0  0  0  0  0
   -0.3427    0.5193   -0.0203 C   0  0  0  0  0  0  0  0  0  0  0  0
   -0.8244    1.7793   -0.0216 C   0  0  0  0  0  0  0  0  0  0  0  0
   -1.1713    0.9663   -1.1565 O   0  0  0  0  0  0  0  0  0  0  0  0
   -2.0619   -2.4423    0.0927 H   0  0  0  0  0  0  0  0  0  0  0  0
   -2.9070   -0.9716    0.7581 H   0  0  0  0  0  0  0  0  0  0  0  0
   -2.3118   -1.0170   -0.9595 H   0  0  0  0  0  0  0  0  0  0  0  0
   -0.5906   -0.9928    1.5766 H   0  0  0  0  0  0  0  0  0  0  0  0
    1.2316    0.0059   -1.5024 H   0  0  0  0  0  0  0  0  0  0  0  0
    1.6684   -0.2154    1.5489 H   0  0  0  0  0  0  0  0  0  0  0  0
    2.7270   -0.9129    0.2403 H   0  0  0  0  0  0  0  0  0  0  0  0
    3.4699    1.0742   -0.2703 H   0  0  0  0  0  0  0  0  0  0  0  0
   -0.2091    2.6526   -0.3442 H   0  0  0  0  0  0  0  0  0  0  0  0
   -1.6909    2.0996    0.5944 H   0  0  0  0  0  0  0  0  0  0  0  0
  1  2  1  0
  2  3  1  0
  3  4  1  0
  4  5  1  0
  5  6  1  0
  4  7  1  0
  7  8  1  0
  8  9  1  0
  7  2  1  0
  9  7  1  0
  1 10  1  0
  1 11  1  0
  1 12  1  0
  2 13  1  0
  4 14  1  0
  5 15  1  0
  5 16  1  0
  6 17  1  0
  8 18  1  0
  8 19  1  0
M  END
