
     RDKit          3D

 21 21  0  0  0  0  0  0  0  0999 V2000
   -2.6270   -0.0700    0.2624 C   0  0  0  0  0  0  0  0  0  0  0  0
   -1.2002   -0.1239   -0.3150 C   0  0  0  0  0  0  0  0  0  0  0  0
   -0.4820    0.8121    0.3478 O   0  0  0  0  0  0  0  0  0  0  0  0
    0.3345    1.6089   -0.4196 C   0  0  0  0  0  0  0  0  0  0  0  0
    1.7599    1.3162    0.0710 C   0  0  0  0  0  0  0  0  0  0  0  0
    2.0298    0.0248   -0.3444 O   0  0  0  0  0  0  0  0  0  0  0  0
    1.4335   -0.9349    0.5064 C   0  0  0  0  0  0  0  0  0  0  0  0
    0.4511   -1.7857   -0.1932 C   0  0  0  0  0  0  0  0  0  0  0  0
   -0.8166   -1.3907   -0.3055 O   0  0  0  0  0  0  0  0  0  0  0  0
   -3.3838   -0.1505   -0.5271 H   0  0  0  0  0  0  0  0  0  0  0  0
   -2.7240   -0.8885    1.0338 H   0  0  0  0  0  0  0  0  0  0  0  0
   -2.8004    0.8697    0.8115 H   0  0  0  0  0  0  0  0  0  0  0  0
   -1.3290    0.2295   -1.3805 H   0  0  0  0  0  0  0  0  0  0  0  0
    0.1297    2.6752   -0.2327 H   0  0  0  0  0  0  0  0  0  0  0  0
    0.3155    1.3465   -1.5001 H   0  0  0  0  0  0  0  0  0  0  0  0
    1.6904    1.3402    1.1860 H   0  0  0  0  0  0  0  0  0  0  0  0
    2.4850    2.0205   -0.3197 H   0  0  0  0  0  0  0  0  0  0  0  0
    2.3078   -1.6011    0.7833 H   0  0  0  0  0  0  0  0  0  0  0  0
    1.1087   -0.4993    1.4495 H   0  0  0  0  0  0  0  0  0  0  0  0
    0.8597   -2.0005   -1.2242 H   0  0  0  0  0  0  0  0  0  0  0  0
    0.4574   -2.7986    0.3104 H   0  0  0  0  0  0  0  0  0  0  0  0
  1  2  1  0
  2  3  1  0
  3  4  1  0
  4  5  1  0
  5  6  1  0
  6  7  1  0
  7  8  1  0
  8  9  1  0
  9  2  1  0
  1 10  1  0
  1 11  1  0
  1 12  1  0
  2 13  1  0
  4 14  1  0
  4 15  1  0
  5 16  1  0
  5 17  1  0
  7 18  1  0
  7 19  1  0
  8 20  1  0
  8 21  1  0
M  END
