
     RDKit          3D

 17 18  0  0  0  0  0  0  0  0999 V2000
   -2.1448   -0.6595   -0.0795 C   0  0  0  0  0  0  0  0  0  0  0  0
   -1.2017    0.5008   -0.1158 C   0  0  0  0  0  0  0  0  0  0  0  0
   -0.8592    0.9237    1.2048 O   0  0  0  0  0  0  0  0  0  0  0  0
    0.4774    1.2773    1.2475 C   0  0  0  0  0  0  0  0  0  0  0  0
    1.0832    2.0909    1.9931 O   0  0  0  0  0  0  0  0  0  0  0  0
    1.1388    0.4840    0.1924 C   0  0  0  0  0  0  0  0  0  0  0  0
    2.1090   -0.5971    0.5612 C   0  0  0  0  0  0  0  0  0  0  0  0
    1.0596    0.9741   -1.0859 O   0  0  0  0  0  0  0  0  0  0  0  0
    0.0712    0.0741   -0.7757 C   0  0  0  0  0  0  0  0  0  0  0  0
   -2.9849   -0.4867   -0.7804 H   0  0  0  0  0  0  0  0  0  0  0  0
   -1.6107   -1.6158   -0.3312 H   0  0  0  0  0  0  0  0  0  0  0  0
   -2.5739   -0.7427    0.9365 H   0  0  0  0  0  0  0  0  0  0  0  0
   -1.6945    1.3656   -0.5953 H   0  0  0  0  0  0  0  0  0  0  0  0
    2.2158   -0.5807    1.6687 H   0  0  0  0  0  0  0  0  0  0  0  0
    3.1017   -0.4946    0.1243 H   0  0  0  0  0  0  0  0  0  0  0  0
    1.7141   -1.6036    0.2818 H   0  0  0  0  0  0  0  0  0  0  0  0
    0.0990   -0.9100   -1.2562 H   0  0  0  0  0  0  0  0  0  0  0  0
  1  2  1  0
  2  3  1  0
  3  4  1  0
  4  5  2  0
  4  6  1  0
  6  7  1  0
  6  8  1  0
  8  9  1  0
  9  2  1  0
  9  6  1  0
  1 10  1  0
  1 11  1  0
  1 12  1  0
  2 13  1  0
  7 14  1  0
  7 15  1  0
  7 16  1  0
  9 17  1  0
M  END
