
     RDKit          3D

 19 20  0  0  0  0  0  0  0  0999 V2000
    2.2434    0.0332    0.1593 C   0  0  0  0  0  0  0  0  0  0  0  0
    0.9222   -0.6013   -0.1595 C   0  0  0  0  0  0  0  0  0  0  0  0
    0.2299   -0.9187    0.9767 O   0  0  0  0  0  0  0  0  0  0  0  0
   -0.9937   -0.2616    1.0539 C   0  0  0  0  0  0  0  0  0  0  0  0
   -1.8025   -0.7798   -0.1148 C   0  0  0  0  0  0  0  0  0  0  0  0
   -1.2091   -0.5170   -1.2803 C   0  0  0  0  0  0  0  0  0  0  0  0
    0.0783    0.2333   -1.0999 C   0  0  0  0  0  0  0  0  0  0  0  0
   -0.2037    1.4230   -0.4335 O   0  0  0  0  0  0  0  0  0  0  0  0
   -0.8181    1.2239    0.7910 C   0  0  0  0  0  0  0  0  0  0  0  0
    3.0722   -0.3617   -0.4969 H   0  0  0  0  0  0  0  0  0  0  0  0
    2.2481    1.1291    0.0378 H   0  0  0  0  0  0  0  0  0  0  0  0
    2.5301   -0.2789    1.1915 H   0  0  0  0  0  0  0  0  0  0  0  0
    1.1438   -1.5554   -0.7214 H   0  0  0  0  0  0  0  0  0  0  0  0
   -1.5184   -0.4559    1.9834 H   0  0  0  0  0  0  0  0  0  0  0  0
   -2.7365   -1.2940   -0.0109 H   0  0  0  0  0  0  0  0  0  0  0  0
   -1.6093   -0.8098   -2.2340 H   0  0  0  0  0  0  0  0  0  0  0  0
    0.5294    0.4264   -2.0607 H   0  0  0  0  0  0  0  0  0  0  0  0
   -1.8557    1.6692    0.7851 H   0  0  0  0  0  0  0  0  0  0  0  0
   -0.2505    1.6960    1.6332 H   0  0  0  0  0  0  0  0  0  0  0  0
  1  2  1  0
  2  3  1  0
  3  4  1  0
  4  5  1  0
  5  6  2  0
  6  7  1  0
  7  8  1  0
  8  9  1  0
  7  2  1  0
  9  4  1  0
  1 10  1  0
  1 11  1  0
  1 12  1  0
  2 13  1  0
  4 14  1  0
  5 15  1  0
  6 16  1  0
  7 17  1  0
  9 18  1  0
  9 19  1  0
M  END
