
     RDKit          3D

 19 21  0  0  0  0  0  0  0  0999 V2000
   -1.8585   -1.1944    0.8276 C   0  0  0  0  0  0  0  0  0  0  0  0
   -1.4057   -0.0959   -0.0625 C   0  0  0  0  0  0  0  0  0  0  0  0
   -1.8341    1.2003    0.3066 O   0  0  0  0  0  0  0  0  0  0  0  0
   -0.6785    1.6635   -0.3693 C   0  0  0  0  0  0  0  0  0  0  0  0
   -0.0237    0.3761    0.0184 C   0  0  0  0  0  0  0  0  0  0  0  0
    0.6647    0.3375    1.1785 O   0  0  0  0  0  0  0  0  0  0  0  0
    1.8531    0.3413    0.4157 C   0  0  0  0  0  0  0  0  0  0  0  0
    2.2118   -0.9394   -0.2471 C   0  0  0  0  0  0  0  0  0  0  0  0
    1.0356   -0.1769   -0.8135 C   0  0  0  0  0  0  0  0  0  0  0  0
   -1.8468   -2.1552    0.2664 H   0  0  0  0  0  0  0  0  0  0  0  0
   -1.1948   -1.2472    1.7291 H   0  0  0  0  0  0  0  0  0  0  0  0
   -2.8747   -0.9756    1.2196 H   0  0  0  0  0  0  0  0  0  0  0  0
   -1.7327   -0.2536   -1.1235 H   0  0  0  0  0  0  0  0  0  0  0  0
   -0.2555    2.5903    0.0310 H   0  0  0  0  0  0  0  0  0  0  0  0
   -0.9371    1.7119   -1.4551 H   0  0  0  0  0  0  0  0  0  0  0  0
    2.4108    1.2631    0.2862 H   0  0  0  0  0  0  0  0  0  0  0  0
    3.1911   -0.9033   -0.8012 H   0  0  0  0  0  0  0  0  0  0  0  0
    2.0320   -1.8459    0.3685 H   0  0  0  0  0  0  0  0  0  0  0  0
    1.2429    0.3034   -1.7753 H   0  0  0  0  0  0  0  0  0  0  0  0
  1  2  1  0
  2  3  1  0
  3  4  1  0
  4  5  1  0
  5  6  1  0
  6  7  1  0
  7  8  1  0
  8  9  1  0
  5  2  1  0
  9  7  1  0
  9  5  1  0
  1 10  1  0
  1 11  1  0
  1 12  1  0
  2 13  1  0
  4 14  1  0
  4 15  1  0
  7 16  1  0
  8 17  1  0
  8 18  1  0
  9 19  1  0
M  END
