
     RDKit          3D

 21 22  0  0  0  0  0  0  0  0999 V2000
   -2.8460    1.1219   -0.4959 C   0  0  0  0  0  0  0  0  0  0  0  0
   -2.5234   -0.2258    0.0357 C   0  0  0  0  0  0  0  0  0  0  0  0
   -1.7884   -0.0955    1.3282 O   0  0  0  0  0  0  0  0  0  0  0  0
   -1.2085   -0.7610    0.2340 C   0  0  0  0  0  0  0  0  0  0  0  0
    0.0392   -0.1883   -0.3850 C   0  0  0  0  0  0  0  0  0  0  0  0
    1.2331   -1.0117    0.0477 C   0  0  0  0  0  0  0  0  0  0  0  0
    2.5149   -0.4944   -0.5353 C   0  0  0  0  0  0  0  0  0  0  0  0
    2.9876    0.8778   -0.2603 C   0  0  0  0  0  0  0  0  0  0  0  0
    3.5421   -0.1507    0.4846 O   0  0  0  0  0  0  0  0  0  0  0  0
   -3.6205    1.0382   -1.2926 H   0  0  0  0  0  0  0  0  0  0  0  0
   -3.3579    1.6948    0.3321 H   0  0  0  0  0  0  0  0  0  0  0  0
   -1.9873    1.7282   -0.7903 H   0  0  0  0  0  0  0  0  0  0  0  0
   -3.4034   -0.9001    0.1482 H   0  0  0  0  0  0  0  0  0  0  0  0
   -1.1297   -1.8732    0.3858 H   0  0  0  0  0  0  0  0  0  0  0  0
   -0.0574   -0.3180   -1.4937 H   0  0  0  0  0  0  0  0  0  0  0  0
    0.1987    0.8569   -0.0966 H   0  0  0  0  0  0  0  0  0  0  0  0
    1.3072   -1.0611    1.1573 H   0  0  0  0  0  0  0  0  0  0  0  0
    1.1029   -2.0616   -0.2941 H   0  0  0  0  0  0  0  0  0  0  0  0
    2.9697   -1.0702   -1.3685 H   0  0  0  0  0  0  0  0  0  0  0  0
    2.3265    1.5926    0.2389 H   0  0  0  0  0  0  0  0  0  0  0  0
    3.7007    1.3012   -1.0105 H   0  0  0  0  0  0  0  0  0  0  0  0
  1  2  1  0
  2  3  1  0
  3  4  1  0
  4  5  1  0
  5  6  1  0
  6  7  1  0
  7  8  1  0
  8  9  1  0
  4  2  1  0
  9  7  1  0
  1 10  1  0
  1 11  1  0
  1 12  1  0
  2 13  1  0
  4 14  1  0
  5 15  1  0
  5 16  1  0
  6 17  1  0
  6 18  1  0
  7 19  1  0
  8 20  1  0
  8 21  1  0
M  END
