
     RDKit          3D

 20 21  0  0  0  0  0  0  0  0999 V2000
    2.2896    0.1371   -0.1837 C   0  0  0  0  0  0  0  0  0  0  0  0
    0.9689   -0.5814   -0.0046 C   0  0  0  0  0  0  0  0  0  0  0  0
    0.5921   -0.5026    1.2967 O   0  0  0  0  0  0  0  0  0  0  0  0
   -0.5906    0.0935    1.5754 C   0  0  0  0  0  0  0  0  0  0  0  0
   -1.5103    0.2440    0.4126 C   0  0  0  0  0  0  0  0  0  0  0  0
   -0.7793    1.1118   -0.6234 C   0  0  0  0  0  0  0  0  0  0  0  0
   -0.0623   -0.1651   -0.9988 C   0  0  0  0  0  0  0  0  0  0  0  0
   -1.3542   -0.8937   -0.5967 C   0  0  0  0  0  0  0  0  0  0  0  0
    3.0753   -0.5331    0.2663 H   0  0  0  0  0  0  0  0  0  0  0  0
    2.5506    0.2309   -1.2499 H   0  0  0  0  0  0  0  0  0  0  0  0
    2.3477    1.0814    0.3752 H   0  0  0  0  0  0  0  0  0  0  0  0
    1.1898   -1.6691   -0.2234 H   0  0  0  0  0  0  0  0  0  0  0  0
   -1.1047   -0.4907    2.3756 H   0  0  0  0  0  0  0  0  0  0  0  0
   -0.3765    1.1001    2.0293 H   0  0  0  0  0  0  0  0  0  0  0  0
   -2.5224    0.5429    0.6401 H   0  0  0  0  0  0  0  0  0  0  0  0
   -1.4954    1.3883   -1.4142 H   0  0  0  0  0  0  0  0  0  0  0  0
   -0.1595    1.8999   -0.1954 H   0  0  0  0  0  0  0  0  0  0  0  0
    0.2389   -0.2843   -2.0285 H   0  0  0  0  0  0  0  0  0  0  0  0
   -2.1364   -0.8568   -1.3534 H   0  0  0  0  0  0  0  0  0  0  0  0
   -1.1616   -1.8533   -0.0991 H   0  0  0  0  0  0  0  0  0  0  0  0
  1  2  1  0
  2  3  1  0
  3  4  1  0
  4  5  1  0
  5  6  1  0
  6  7  1  0
  7  8  1  0
  7  2  1  0
  8  5  1  0
  1  9  1  0
  1 10  1  0
  1 11  1  0
  2 12  1  0
  4 13  1  0
  4 14  1  0
  5 15  1  0
  6 16  1  0
  6 17  1  0
  7 18  1  0
  8 19  1  0
  8 20  1  0
M  END
