
     RDKit          3D

 21 21  0  0  0  0  0  0  0  0999 V2000
   -0.7251    1.6921    0.1551 C   0  0  0  0  0  0  0  0  0  0  0  0
   -0.1903    0.5237    0.9589 C   0  0  0  0  0  0  0  0  0  0  0  0
    1.1591    0.5828    1.1791 O   0  0  0  0  0  0  0  0  0  0  0  0
    1.9333    0.5111    0.0490 C   0  0  0  0  0  0  0  0  0  0  0  0
    1.7435   -0.7966   -0.7162 C   0  0  0  0  0  0  0  0  0  0  0  0
    0.2902   -1.0073   -0.8424 C   0  0  0  0  0  0  0  0  0  0  0  0
   -0.1872   -1.3382   -1.8942 O   0  0  0  0  0  0  0  0  0  0  0  0
   -0.5547   -0.8030    0.3452 C   0  0  0  0  0  0  0  0  0  0  0  0
   -2.0156   -0.9040    0.0218 C   0  0  0  0  0  0  0  0  0  0  0  0
   -0.4876    2.6080    0.7351 H   0  0  0  0  0  0  0  0  0  0  0  0
   -0.2820    1.7653   -0.8473 H   0  0  0  0  0  0  0  0  0  0  0  0
   -1.8230    1.5884    0.1035 H   0  0  0  0  0  0  0  0  0  0  0  0
   -0.6987    0.5705    1.9483 H   0  0  0  0  0  0  0  0  0  0  0  0
    1.7965    1.3405   -0.6628 H   0  0  0  0  0  0  0  0  0  0  0  0
    3.0053    0.5431    0.3843 H   0  0  0  0  0  0  0  0  0  0  0  0
    2.2146   -1.6295   -0.1348 H   0  0  0  0  0  0  0  0  0  0  0  0
    2.2620   -0.6667   -1.6856 H   0  0  0  0  0  0  0  0  0  0  0  0
   -0.2986   -1.5906    1.0823 H   0  0  0  0  0  0  0  0  0  0  0  0
   -2.3478   -0.1957   -0.7372 H   0  0  0  0  0  0  0  0  0  0  0  0
   -2.1844   -1.9277   -0.3976 H   0  0  0  0  0  0  0  0  0  0  0  0
   -2.6097   -0.8665    0.9556 H   0  0  0  0  0  0  0  0  0  0  0  0
  1  2  1  0
  2  3  1  0
  3  4  1  0
  4  5  1  0
  5  6  1  0
  6  7  2  0
  6  8  1  0
  8  9  1  0
  8  2  1  0
  1 10  1  0
  1 11  1  0
  1 12  1  0
  2 13  1  0
  4 14  1  0
  4 15  1  0
  5 16  1  0
  5 17  1  0
  8 18  1  0
  9 19  1  0
  9 20  1  0
  9 21  1  0
M  END
