
     RDKit          3D

 19 20  0  0  0  0  0  0  0  0999 V2000
    3.2051   -0.2541   -0.0079 C   0  0  0  0  0  0  0  0  0  0  0  0
    1.7441   -0.6493    0.0328 C   0  0  0  0  0  0  0  0  0  0  0  0
    1.2074   -0.5470   -1.3190 O   0  0  0  0  0  0  0  0  0  0  0  0
    0.7610    0.3458   -0.2142 C   0  0  0  0  0  0  0  0  0  0  0  0
   -0.6886    0.2085   -0.0758 C   0  0  0  0  0  0  0  0  0  0  0  0
   -1.4322   -0.8313    0.3024 C   0  0  0  0  0  0  0  0  0  0  0  0
   -2.8563   -0.4180    0.2645 C   0  0  0  0  0  0  0  0  0  0  0  0
   -2.8494    0.5962   -0.7058 O   0  0  0  0  0  0  0  0  0  0  0  0
   -1.6852    1.2823   -0.3509 C   0  0  0  0  0  0  0  0  0  0  0  0
    3.6874   -0.5347   -0.9725 H   0  0  0  0  0  0  0  0  0  0  0  0
    3.2923    0.8713    0.0313 H   0  0  0  0  0  0  0  0  0  0  0  0
    3.7644   -0.6300    0.8717 H   0  0  0  0  0  0  0  0  0  0  0  0
    1.5521   -1.6103    0.5390 H   0  0  0  0  0  0  0  0  0  0  0  0
    1.1232    1.3978   -0.3583 H   0  0  0  0  0  0  0  0  0  0  0  0
   -1.0394   -1.8006    0.5839 H   0  0  0  0  0  0  0  0  0  0  0  0
   -3.1745    0.0689    1.2097 H   0  0  0  0  0  0  0  0  0  0  0  0
   -3.4989   -1.2669   -0.0149 H   0  0  0  0  0  0  0  0  0  0  0  0
   -1.3062    1.9181   -1.1737 H   0  0  0  0  0  0  0  0  0  0  0  0
   -1.8064    1.8534    0.5836 H   0  0  0  0  0  0  0  0  0  0  0  0
  1  2  1  0
  2  3  1  0
  3  4  1  0
  4  5  1  0
  5  6  2  0
  6  7  1  0
  7  8  1  0
  8  9  1  0
  4  2  1  0
  9  5  1  0
  1 10  1  0
  1 11  1  0
  1 12  1  0
  2 13  1  0
  4 14  1  0
  6 15  1  0
  7 16  1  0
  7 17  1  0
  9 18  1  0
  9 19  1  0
M  END
