
     RDKit          3D

 18 18  0  0  0  0  0  0  0  0999 V2000
   -1.6155   -1.2165    0.0593 C   0  0  0  0  0  0  0  0  0  0  0  0
   -0.7669   -0.0351    0.3171 C   0  0  0  0  0  0  0  0  0  0  0  0
   -1.2652    1.1456   -0.2713 O   0  0  0  0  0  0  0  0  0  0  0  0
   -0.2103    2.0568   -0.2313 C   0  0  0  0  0  0  0  0  0  0  0  0
    1.0321    1.2672   -0.1572 C   0  0  0  0  0  0  0  0  0  0  0  0
    2.1459    1.6500    0.0416 O   0  0  0  0  0  0  0  0  0  0  0  0
    0.5896   -0.1185   -0.3858 C   0  0  0  0  0  0  0  0  0  0  0  0
    1.4704   -1.1548    0.2389 C   0  0  0  0  0  0  0  0  0  0  0  0
   -1.9478   -1.6458    1.0466 H   0  0  0  0  0  0  0  0  0  0  0  0
   -1.1256   -2.0291   -0.5116 H   0  0  0  0  0  0  0  0  0  0  0  0
   -2.5368   -0.9071   -0.4588 H   0  0  0  0  0  0  0  0  0  0  0  0
   -0.6510    0.1865    1.3987 H   0  0  0  0  0  0  0  0  0  0  0  0
   -0.3138    2.8060    0.5710 H   0  0  0  0  0  0  0  0  0  0  0  0
   -0.1981    2.5587   -1.2440 H   0  0  0  0  0  0  0  0  0  0  0  0
    0.3545   -0.3362   -1.4524 H   0  0  0  0  0  0  0  0  0  0  0  0
    2.3563   -1.2764   -0.4078 H   0  0  0  0  0  0  0  0  0  0  0  0
    1.7598   -0.8329    1.2376 H   0  0  0  0  0  0  0  0  0  0  0  0
    0.9221   -2.1181    0.2093 H   0  0  0  0  0  0  0  0  0  0  0  0
  1  2  1  0
  2  3  1  0
  3  4  1  0
  4  5  1  0
  5  6  2  0
  5  7  1  0
  7  8  1  0
  7  2  1  0
  1  9  1  0
  1 10  1  0
  1 11  1  0
  2 12  1  0
  4 13  1  0
  4 14  1  0
  7 15  1  0
  8 16  1  0
  8 17  1  0
  8 18  1  0
M  END
