
     RDKit          3D

 16 17  0  0  0  0  0  0  0  0999 V2000
    1.8566    0.3959    0.4176 C   0  0  0  0  0  0  0  0  0  0  0  0
    0.8058    0.3930   -0.6929 C   0  0  0  0  0  0  0  0  0  0  0  0
    0.9536   -0.8382   -1.4200 O   0  0  0  0  0  0  0  0  0  0  0  0
    0.2059   -1.4273   -0.3800 C   0  0  0  0  0  0  0  0  0  0  0  0
    0.2048   -2.5750    0.1102 O   0  0  0  0  0  0  0  0  0  0  0  0
   -0.4657   -0.1665   -0.2085 C   0  0  0  0  0  0  0  0  0  0  0  0
   -1.2740    0.2840    0.8822 C   0  0  0  0  0  0  0  0  0  0  0  0
   -1.7975    0.1916   -0.5892 C   0  0  0  0  0  0  0  0  0  0  0  0
    1.6915   -0.5693    0.9695 H   0  0  0  0  0  0  0  0  0  0  0  0
    1.6880    1.2054    1.1451 H   0  0  0  0  0  0  0  0  0  0  0  0
    2.8745    0.3585    0.0274 H   0  0  0  0  0  0  0  0  0  0  0  0
    0.8052    1.2928   -1.3038 H   0  0  0  0  0  0  0  0  0  0  0  0
   -1.1544    1.3414    1.2432 H   0  0  0  0  0  0  0  0  0  0  0  0
   -1.7390   -0.4266    1.5966 H   0  0  0  0  0  0  0  0  0  0  0  0
   -2.5479   -0.6126   -0.7495 H   0  0  0  0  0  0  0  0  0  0  0  0
   -2.1073    1.1530   -1.0481 H   0  0  0  0  0  0  0  0  0  0  0  0
  1  2  1  0
  2  3  1  0
  3  4  1  0
  4  5  2  0
  4  6  1  0
  6  7  1  0
  7  8  1  0
  6  2  1  0
  8  6  1  0
  1  9  1  0
  1 10  1  0
  1 11  1  0
  2 12  1  0
  7 13  1  0
  7 14  1  0
  8 15  1  0
  8 16  1  0
M  END
