
     RDKit          3D

 20 20  0  0  0  0  0  0  0  0999 V2000
    0.7085   -1.6974   -0.7372 C   0  0  0  0  0  0  0  0  0  0  0  0
    0.5111   -0.7229    0.3873 C   0  0  0  0  0  0  0  0  0  0  0  0
    1.7153   -0.0872    0.6274 O   0  0  0  0  0  0  0  0  0  0  0  0
    1.6811    1.1542    0.0509 C   0  0  0  0  0  0  0  0  0  0  0  0
    0.3771    1.4578   -0.2802 O   0  0  0  0  0  0  0  0  0  0  0  0
   -0.4206    0.3897    0.0862 C   0  0  0  0  0  0  0  0  0  0  0  0
   -1.1081    0.7920    1.3952 C   0  0  0  0  0  0  0  0  0  0  0  0
   -1.4445    0.0826   -0.9688 C   0  0  0  0  0  0  0  0  0  0  0  0
   -0.1304   -2.4004   -0.8662 H   0  0  0  0  0  0  0  0  0  0  0  0
    0.9742   -1.2282   -1.6973 H   0  0  0  0  0  0  0  0  0  0  0  0
    1.5973   -2.3305   -0.4571 H   0  0  0  0  0  0  0  0  0  0  0  0
    0.1606   -1.2795    1.2670 H   0  0  0  0  0  0  0  0  0  0  0  0
    2.2721    1.1493   -0.8788 H   0  0  0  0  0  0  0  0  0  0  0  0
    2.0575    1.9574    0.7185 H   0  0  0  0  0  0  0  0  0  0  0  0
   -1.3693    1.8628    1.2722 H   0  0  0  0  0  0  0  0  0  0  0  0
   -1.9900    0.1409    1.5418 H   0  0  0  0  0  0  0  0  0  0  0  0
   -0.4259    0.6299    2.2657 H   0  0  0  0  0  0  0  0  0  0  0  0
   -2.3455    0.7079   -0.7401 H   0  0  0  0  0  0  0  0  0  0  0  0
   -1.0751    0.3958   -1.9770 H   0  0  0  0  0  0  0  0  0  0  0  0
   -1.7453   -0.9741   -1.0098 H   0  0  0  0  0  0  0  0  0  0  0  0
  1  2  1  0
  2  3  1  0
  3  4  1  0
  4  5  1  0
  5  6  1  0
  6  7  1  0
  6  8  1  0
  6  2  1  0
  1  9  1  0
  1 10  1  0
  1 11  1  0
  2 12  1  0
  4 13  1  0
  4 14  1  0
  7 15  1  0
  7 16  1  0
  7 17  1  0
  8 18  1  0
  8 19  1  0
  8 20  1  0
M  END
