
     RDKit          3D

 19 21  0  0  0  0  0  0  0  0999 V2000
   -2.3493    0.5731   -0.2216 C   0  0  0  0  0  0  0  0  0  0  0  0
   -1.2392   -0.1915    0.3876 C   0  0  0  0  0  0  0  0  0  0  0  0
   -0.6907   -1.1520   -0.4813 O   0  0  0  0  0  0  0  0  0  0  0  0
    0.5431   -1.5008    0.0489 C   0  0  0  0  0  0  0  0  0  0  0  0
    1.7432   -0.6150   -0.2553 C   0  0  0  0  0  0  0  0  0  0  0  0
    1.5216    0.6709   -1.0135 C   0  0  0  0  0  0  0  0  0  0  0  0
    0.3549    1.2224   -0.5674 O   0  0  0  0  0  0  0  0  0  0  0  0
    0.0019    0.6802    0.6347 C   0  0  0  0  0  0  0  0  0  0  0  0
    0.9780   -0.4196    0.9732 C   0  0  0  0  0  0  0  0  0  0  0  0
   -2.1362    1.6697   -0.0690 H   0  0  0  0  0  0  0  0  0  0  0  0
   -3.2872    0.3760    0.3766 H   0  0  0  0  0  0  0  0  0  0  0  0
   -2.4825    0.3625   -1.2821 H   0  0  0  0  0  0  0  0  0  0  0  0
   -1.5065   -0.7470    1.3160 H   0  0  0  0  0  0  0  0  0  0  0  0
    0.7469   -2.5523    0.2267 H   0  0  0  0  0  0  0  0  0  0  0  0
    2.7361   -1.0515   -0.1919 H   0  0  0  0  0  0  0  0  0  0  0  0
    1.5456    0.5115   -2.1179 H   0  0  0  0  0  0  0  0  0  0  0  0
    2.3562    1.3645   -0.7025 H   0  0  0  0  0  0  0  0  0  0  0  0
   -0.1541    1.3945    1.4480 H   0  0  0  0  0  0  0  0  0  0  0  0
    1.3182   -0.5957    1.9797 H   0  0  0  0  0  0  0  0  0  0  0  0
  1  2  1  0
  2  3  1  0
  3  4  1  0
  4  5  1  0
  5  6  1  0
  6  7  1  0
  7  8  1  0
  8  9  1  0
  8  2  1  0
  9  4  1  0
  9  5  1  0
  1 10  1  0
  1 11  1  0
  1 12  1  0
  2 13  1  0
  4 14  1  0
  5 15  1  0
  6 16  1  0
  6 17  1  0
  8 18  1  0
  9 19  1  0
M  END
