
     RDKit          3D

 21 22  0  0  0  0  0  0  0  0999 V2000
   -1.9480   -1.3416    0.1129 C   0  0  0  0  0  0  0  0  0  0  0  0
   -0.9351   -0.2377    0.3391 C   0  0  0  0  0  0  0  0  0  0  0  0
   -1.5962    0.9660    0.1157 O   0  0  0  0  0  0  0  0  0  0  0  0
   -0.6474    1.8909   -0.2774 C   0  0  0  0  0  0  0  0  0  0  0  0
    0.5940    1.9446    0.5058 C   0  0  0  0  0  0  0  0  0  0  0  0
    0.5239    1.1876   -0.7884 C   0  0  0  0  0  0  0  0  0  0  0  0
    0.2289   -0.3030   -0.5909 C   0  0  0  0  0  0  0  0  0  0  0  0
    1.4684   -0.8869    0.0157 C   0  0  0  0  0  0  0  0  0  0  0  0
    1.3096   -2.1855    0.4677 O   0  0  0  0  0  0  0  0  0  0  0  0
   -2.7140   -1.2249    0.9173 H   0  0  0  0  0  0  0  0  0  0  0  0
   -1.4916   -2.3217    0.2518 H   0  0  0  0  0  0  0  0  0  0  0  0
   -2.4045   -1.2414   -0.8897 H   0  0  0  0  0  0  0  0  0  0  0  0
   -0.5788   -0.3455    1.3809 H   0  0  0  0  0  0  0  0  0  0  0  0
   -1.0146    2.7503   -0.8870 H   0  0  0  0  0  0  0  0  0  0  0  0
    0.6085    1.4022    1.4746 H   0  0  0  0  0  0  0  0  0  0  0  0
    1.2405    2.8370    0.4949 H   0  0  0  0  0  0  0  0  0  0  0  0
    1.1473    1.4999   -1.6194 H   0  0  0  0  0  0  0  0  0  0  0  0
   -0.0551   -0.7900   -1.5437 H   0  0  0  0  0  0  0  0  0  0  0  0
    1.7571   -0.2041    0.8691 H   0  0  0  0  0  0  0  0  0  0  0  0
    2.2926   -0.7735   -0.7189 H   0  0  0  0  0  0  0  0  0  0  0  0
    2.2146   -2.6228    0.3699 H   0  0  0  0  0  0  0  0  0  0  0  0
  1  2  1  0
  2  3  1  0
  3  4  1  0
  4  5  1  0
  5  6  1  0
  6  7  1  0
  7  8  1  0
  8  9  1  0
  7  2  1  0
  6  4  1  0
  1 10  1  0
  1 11  1  0
  1 12  1  0
  2 13  1  0
  4 14  1  0
  5 15  1  0
  5 16  1  0
  6 17  1  0
  7 18  1  0
  8 19  1  0
  8 20  1  0
  9 21  1  0
M  END
