
     RDKit          3D

 23 23  0  0  0  0  0  0  0  0999 V2000
    2.6392   -0.9162   -0.4050 C   0  0  0  0  0  0  0  0  0  0  0  0
    1.2675   -0.5936   -0.9662 C   0  0  0  0  0  0  0  0  0  0  0  0
    1.0344    0.7581   -0.7322 O   0  0  0  0  0  0  0  0  0  0  0  0
    0.2210    0.7719    0.3978 C   0  0  0  0  0  0  0  0  0  0  0  0
   -0.4690    2.0527    0.6462 C   0  0  0  0  0  0  0  0  0  0  0  0
   -0.7005   -0.3844    0.0796 C   0  0  0  0  0  0  0  0  0  0  0  0
   -1.6146   -0.1028   -1.0793 C   0  0  0  0  0  0  0  0  0  0  0  0
   -1.4661   -0.8803    1.2544 C   0  0  0  0  0  0  0  0  0  0  0  0
    0.2574   -1.3119   -0.3818 O   0  0  0  0  0  0  0  0  0  0  0  0
    2.6144   -1.3141    0.6081 H   0  0  0  0  0  0  0  0  0  0  0  0
    3.2602    0.0228   -0.3943 H   0  0  0  0  0  0  0  0  0  0  0  0
    3.1969   -1.6292   -1.0389 H   0  0  0  0  0  0  0  0  0  0  0  0
    1.2533   -0.8355   -2.0659 H   0  0  0  0  0  0  0  0  0  0  0  0
    0.8455    0.4796    1.2519 H   0  0  0  0  0  0  0  0  0  0  0  0
   -0.7922    2.0733    1.7217 H   0  0  0  0  0  0  0  0  0  0  0  0
    0.2719    2.8801    0.5566 H   0  0  0  0  0  0  0  0  0  0  0  0
   -1.3527    2.2602    0.0462 H   0  0  0  0  0  0  0  0  0  0  0  0
   -2.0465   -1.0885   -1.3943 H   0  0  0  0  0  0  0  0  0  0  0  0
   -2.4529    0.5597   -0.8459 H   0  0  0  0  0  0  0  0  0  0  0  0
   -1.0832    0.2890   -1.9562 H   0  0  0  0  0  0  0  0  0  0  0  0
   -2.5243   -0.5456    1.2779 H   0  0  0  0  0  0  0  0  0  0  0  0
   -0.9605   -0.5397    2.1758 H   0  0  0  0  0  0  0  0  0  0  0  0
   -1.3992   -2.0056    1.2440 H   0  0  0  0  0  0  0  0  0  0  0  0
  1  2  1  0
  2  3  1  0
  3  4  1  0
  4  5  1  0
  4  6  1  0
  6  7  1  0
  6  8  1  0
  6  9  1  0
  9  2  1  0
  1 10  1  0
  1 11  1  0
  1 12  1  0
  2 13  1  0
  4 14  1  0
  5 15  1  0
  5 16  1  0
  5 17  1  0
  7 18  1  0
  7 19  1  0
  7 20  1  0
  8 21  1  0
  8 22  1  0
  8 23  1  0
M  END
