
     RDKit          3D

 21 22  0  0  0  0  0  0  0  0999 V2000
   -2.8003    0.2160   -0.3531 C   0  0  0  0  0  0  0  0  0  0  0  0
   -1.9726   -0.9879   -0.0339 C   0  0  0  0  0  0  0  0  0  0  0  0
   -1.2666   -1.5066   -1.2244 O   0  0  0  0  0  0  0  0  0  0  0  0
   -0.5739   -1.0908    0.0236 C   0  0  0  0  0  0  0  0  0  0  0  0
    0.4697   -0.1143   -0.2722 C   0  0  0  0  0  0  0  0  0  0  0  0
    1.8494   -0.7111   -0.0688 C   0  0  0  0  0  0  0  0  0  0  0  0
    2.6880    0.5097   -0.1456 C   0  0  0  0  0  0  0  0  0  0  0  0
    1.9708    1.5513    0.2680 C   0  0  0  0  0  0  0  0  0  0  0  0
    0.5859    1.0672    0.6503 C   0  0  0  0  0  0  0  0  0  0  0  0
   -2.2456    1.0763   -0.7280 H   0  0  0  0  0  0  0  0  0  0  0  0
   -3.4267    0.4323    0.5364 H   0  0  0  0  0  0  0  0  0  0  0  0
   -3.5086   -0.0770   -1.1839 H   0  0  0  0  0  0  0  0  0  0  0  0
   -2.6025   -1.8175    0.3501 H   0  0  0  0  0  0  0  0  0  0  0  0
   -0.1571   -2.0357    0.4841 H   0  0  0  0  0  0  0  0  0  0  0  0
    0.3734    0.3037   -1.2963 H   0  0  0  0  0  0  0  0  0  0  0  0
    2.0940   -1.4631   -0.8338 H   0  0  0  0  0  0  0  0  0  0  0  0
    1.8784   -1.1000    0.9615 H   0  0  0  0  0  0  0  0  0  0  0  0
    3.7157    0.4983   -0.4911 H   0  0  0  0  0  0  0  0  0  0  0  0
    2.3524    2.5489    0.3068 H   0  0  0  0  0  0  0  0  0  0  0  0
    0.6658    0.8088    1.7094 H   0  0  0  0  0  0  0  0  0  0  0  0
   -0.0895    1.8915    0.4119 H   0  0  0  0  0  0  0  0  0  0  0  0
  1  2  1  0
  2  3  1  0
  3  4  1  0
  4  5  1  0
  5  6  1  0
  6  7  1  0
  7  8  2  0
  8  9  1  0
  4  2  1  0
  9  5  1  0
  1 10  1  0
  1 11  1  0
  1 12  1  0
  2 13  1  0
  4 14  1  0
  5 15  1  0
  6 16  1  0
  6 17  1  0
  7 18  1  0
  8 19  1  0
  9 20  1  0
  9 21  1  0
M  END
