
     RDKit          3D

 18 19  0  0  0  0  0  0  0  0999 V2000
    2.7847   -0.1185    0.1626 C   0  0  0  0  0  0  0  0  0  0  0  0
    1.4177   -0.6398    0.4952 C   0  0  0  0  0  0  0  0  0  0  0  0
    0.7376   -0.2439    1.6067 O   0  0  0  0  0  0  0  0  0  0  0  0
    0.3243    0.4241    0.4786 C   0  0  0  0  0  0  0  0  0  0  0  0
   -0.8810    0.0240   -0.2958 C   0  0  0  0  0  0  0  0  0  0  0  0
   -1.9997    1.0286   -0.3532 C   0  0  0  0  0  0  0  0  0  0  0  0
   -2.5759    0.4450    0.7667 O   0  0  0  0  0  0  0  0  0  0  0  0
   -1.9396   -0.7449    0.4462 C   0  0  0  0  0  0  0  0  0  0  0  0
    2.8576   -0.1200   -0.9640 H   0  0  0  0  0  0  0  0  0  0  0  0
    2.8401    0.9529    0.4490 H   0  0  0  0  0  0  0  0  0  0  0  0
    3.6068   -0.7299    0.5497 H   0  0  0  0  0  0  0  0  0  0  0  0
    1.2007   -1.6366    0.0827 H   0  0  0  0  0  0  0  0  0  0  0  0
    0.6325    1.4857    0.3797 H   0  0  0  0  0  0  0  0  0  0  0  0
   -0.6403   -0.4741   -1.2609 H   0  0  0  0  0  0  0  0  0  0  0  0
   -1.6761    2.0827   -0.1325 H   0  0  0  0  0  0  0  0  0  0  0  0
   -2.5497    0.9323   -1.2948 H   0  0  0  0  0  0  0  0  0  0  0  0
   -1.5583   -1.3375    1.3028 H   0  0  0  0  0  0  0  0  0  0  0  0
   -2.5812   -1.3300   -0.2537 H   0  0  0  0  0  0  0  0  0  0  0  0
  1  2  1  0
  2  3  1  0
  3  4  1  0
  4  5  1  0
  5  6  1  0
  6  7  1  0
  7  8  1  0
  4  2  1  0
  8  5  1  0
  1  9  1  0
  1 10  1  0
  1 11  1  0
  2 12  1  0
  4 13  1  0
  5 14  1  0
  6 15  1  0
  6 16  1  0
  8 17  1  0
  8 18  1  0
M  END
