
     RDKit          3D

 20 21  0  0  0  0  0  0  0  0999 V2000
    2.0137    1.2842    0.7273 C   0  0  0  0  0  0  0  0  0  0  0  0
    0.7596    0.6371    0.2270 C   0  0  0  0  0  0  0  0  0  0  0  0
   -0.2416    0.5623    1.1884 O   0  0  0  0  0  0  0  0  0  0  0  0
   -1.1865   -0.2903    0.6413 C   0  0  0  0  0  0  0  0  0  0  0  0
   -2.1104    0.5009   -0.2270 C   0  0  0  0  0  0  0  0  0  0  0  0
   -0.4799   -1.3973   -0.0517 C   0  0  0  0  0  0  0  0  0  0  0  0
    0.1894   -1.2537   -1.3531 C   0  0  0  0  0  0  0  0  0  0  0  0
    0.9542   -0.8110   -0.1654 C   0  0  0  0  0  0  0  0  0  0  0  0
    2.9135    0.6700    0.6416 H   0  0  0  0  0  0  0  0  0  0  0  0
    1.8388    1.5373    1.8096 H   0  0  0  0  0  0  0  0  0  0  0  0
    2.2057    2.2744    0.2279 H   0  0  0  0  0  0  0  0  0  0  0  0
    0.4257    1.2102   -0.6681 H   0  0  0  0  0  0  0  0  0  0  0  0
   -1.7595   -0.7192    1.5088 H   0  0  0  0  0  0  0  0  0  0  0  0
   -2.8491    1.0039    0.4624 H   0  0  0  0  0  0  0  0  0  0  0  0
   -1.6083    1.3397   -0.7621 H   0  0  0  0  0  0  0  0  0  0  0  0
   -2.6311   -0.0891   -0.9932 H   0  0  0  0  0  0  0  0  0  0  0  0
   -0.5599   -2.4211    0.3741 H   0  0  0  0  0  0  0  0  0  0  0  0
    0.5331   -2.1649   -1.8447 H   0  0  0  0  0  0  0  0  0  0  0  0
   -0.1223   -0.4558   -2.0691 H   0  0  0  0  0  0  0  0  0  0  0  0
    1.7150   -1.4178    0.3260 H   0  0  0  0  0  0  0  0  0  0  0  0
  1  2  1  0
  2  3  1  0
  3  4  1  0
  4  5  1  0
  4  6  1  0
  6  7  1  0
  7  8  1  0
  8  2  1  0
  8  6  1  0
  1  9  1  0
  1 10  1  0
  1 11  1  0
  2 12  1  0
  4 13  1  0
  5 14  1  0
  5 15  1  0
  5 16  1  0
  6 17  1  0
  7 18  1  0
  7 19  1  0
  8 20  1  0
M  END
