
     RDKit          3D

 21 22  0  0  0  0  0  0  0  0999 V2000
    2.2634   -0.2823    0.5451 C   0  0  0  0  0  0  0  0  0  0  0  0
    1.0691   -0.2613   -0.3785 C   0  0  0  0  0  0  0  0  0  0  0  0
    0.6451   -1.5383   -0.6609 O   0  0  0  0  0  0  0  0  0  0  0  0
   -0.7012   -1.5295   -0.8883 C   0  0  0  0  0  0  0  0  0  0  0  0
   -1.2753   -0.2360   -0.4219 C   0  0  0  0  0  0  0  0  0  0  0  0
   -1.7849   -0.3271    0.9897 C   0  0  0  0  0  0  0  0  0  0  0  0
   -0.5410    0.1563    1.4224 O   0  0  0  0  0  0  0  0  0  0  0  0
   -0.0919    0.5020    0.1820 C   0  0  0  0  0  0  0  0  0  0  0  0
   -0.0629    1.9692   -0.1454 C   0  0  0  0  0  0  0  0  0  0  0  0
    3.0078    0.4986    0.2386 H   0  0  0  0  0  0  0  0  0  0  0  0
    2.7795   -1.2687    0.3520 H   0  0  0  0  0  0  0  0  0  0  0  0
    1.9915   -0.1840    1.6094 H   0  0  0  0  0  0  0  0  0  0  0  0
    1.3823    0.2735   -1.3139 H   0  0  0  0  0  0  0  0  0  0  0  0
   -0.9433   -1.6979   -1.9533 H   0  0  0  0  0  0  0  0  0  0  0  0
   -1.1519   -2.3607   -0.2851 H   0  0  0  0  0  0  0  0  0  0  0  0
   -1.8658    0.3493   -1.1279 H   0  0  0  0  0  0  0  0  0  0  0  0
   -1.9461   -1.3923    1.3232 H   0  0  0  0  0  0  0  0  0  0  0  0
   -2.6436    0.3110    1.1882 H   0  0  0  0  0  0  0  0  0  0  0  0
   -0.9716    2.4832    0.1808 H   0  0  0  0  0  0  0  0  0  0  0  0
    0.0381    2.1162   -1.2355 H   0  0  0  0  0  0  0  0  0  0  0  0
    0.8028    2.4190    0.3792 H   0  0  0  0  0  0  0  0  0  0  0  0
  1  2  1  0
  2  3  1  0
  3  4  1  0
  4  5  1  0
  5  6  1  0
  6  7  1  0
  7  8  1  0
  8  9  1  0
  8  2  1  0
  8  5  1  0
  1 10  1  0
  1 11  1  0
  1 12  1  0
  2 13  1  0
  4 14  1  0
  4 15  1  0
  5 16  1  0
  6 17  1  0
  6 18  1  0
  9 19  1  0
  9 20  1  0
  9 21  1  0
M  END
