
     RDKit          3D

 17 18  0  0  0  0  0  0  0  0999 V2000
    2.2802    0.0905   -0.3462 C   0  0  0  0  0  0  0  0  0  0  0  0
    0.8019    0.0963   -0.4752 C   0  0  0  0  0  0  0  0  0  0  0  0
    0.1968   -0.9918   -1.0522 O   0  0  0  0  0  0  0  0  0  0  0  0
   -0.7665   -1.0516   -0.0585 C   0  0  0  0  0  0  0  0  0  0  0  0
   -1.9303   -0.1177   -0.2026 C   0  0  0  0  0  0  0  0  0  0  0  0
   -1.4879    1.1540    0.4110 C   0  0  0  0  0  0  0  0  0  0  0  0
   -1.8673    2.3411    0.1367 O   0  0  0  0  0  0  0  0  0  0  0  0
   -0.5550    0.8018    1.3698 O   0  0  0  0  0  0  0  0  0  0  0  0
    0.1458   -0.2873    0.8389 C   0  0  0  0  0  0  0  0  0  0  0  0
    2.8238    0.5346   -1.1961 H   0  0  0  0  0  0  0  0  0  0  0  0
    2.6617   -0.9136   -0.0983 H   0  0  0  0  0  0  0  0  0  0  0  0
    2.5433    0.7347    0.5420 H   0  0  0  0  0  0  0  0  0  0  0  0
    0.4405    1.0691   -0.8865 H   0  0  0  0  0  0  0  0  0  0  0  0
   -1.0460   -2.0796    0.2789 H   0  0  0  0  0  0  0  0  0  0  0  0
   -2.7475   -0.5153    0.4573 H   0  0  0  0  0  0  0  0  0  0  0  0
   -2.2646    0.0044   -1.2491 H   0  0  0  0  0  0  0  0  0  0  0  0
    0.7711   -0.8697    1.5301 H   0  0  0  0  0  0  0  0  0  0  0  0
  1  2  1  0
  2  3  1  0
  3  4  1  0
  4  5  1  0
  5  6  1  0
  6  7  2  0
  6  8  1  0
  8  9  1  0
  9  2  1  0
  9  4  1  0
  1 10  1  0
  1 11  1  0
  1 12  1  0
  2 13  1  0
  4 14  1  0
  5 15  1  0
  5 16  1  0
  9 17  1  0
M  END
