
     RDKit          3D

 23 24  0  0  0  0  0  0  0  0999 V2000
    2.5479   -0.6316    0.4318 C   0  0  0  0  0  0  0  0  0  0  0  0
    1.4931    0.0791   -0.4238 C   0  0  0  0  0  0  0  0  0  0  0  0
    1.9177    1.4206   -0.5760 O   0  0  0  0  0  0  0  0  0  0  0  0
    0.5835    1.7784   -0.6046 C   0  0  0  0  0  0  0  0  0  0  0  0
    0.3086    0.5794    0.2986 C   0  0  0  0  0  0  0  0  0  0  0  0
   -1.0015   -0.0704    0.0966 C   0  0  0  0  0  0  0  0  0  0  0  0
   -2.1253    0.5722    0.9217 C   0  0  0  0  0  0  0  0  0  0  0  0
   -0.9488   -1.5986    0.0987 C   0  0  0  0  0  0  0  0  0  0  0  0
   -1.4090   -0.8152   -1.0865 C   0  0  0  0  0  0  0  0  0  0  0  0
    2.1820   -1.5641    0.8584 H   0  0  0  0  0  0  0  0  0  0  0  0
    3.3982   -0.8498   -0.2498 H   0  0  0  0  0  0  0  0  0  0  0  0
    2.9041    0.0247    1.2445 H   0  0  0  0  0  0  0  0  0  0  0  0
    1.3408   -0.3937   -1.3955 H   0  0  0  0  0  0  0  0  0  0  0  0
    0.1244    1.6931   -1.6076 H   0  0  0  0  0  0  0  0  0  0  0  0
    0.3178    2.7016   -0.0554 H   0  0  0  0  0  0  0  0  0  0  0  0
    0.5162    0.8194    1.3569 H   0  0  0  0  0  0  0  0  0  0  0  0
   -3.0747    0.0525    0.7452 H   0  0  0  0  0  0  0  0  0  0  0  0
   -2.2420    1.6018    0.5092 H   0  0  0  0  0  0  0  0  0  0  0  0
   -1.8700    0.5906    1.9906 H   0  0  0  0  0  0  0  0  0  0  0  0
   -1.6575   -2.0972    0.7747 H   0  0  0  0  0  0  0  0  0  0  0  0
    0.0143   -2.1024   -0.0198 H   0  0  0  0  0  0  0  0  0  0  0  0
   -2.5048   -0.9118   -1.2882 H   0  0  0  0  0  0  0  0  0  0  0  0
   -0.8149   -0.8787   -2.0196 H   0  0  0  0  0  0  0  0  0  0  0  0
  1  2  1  0
  2  3  1  0
  3  4  1  0
  4  5  1  0
  5  6  1  0
  6  7  1  0
  6  8  1  0
  8  9  1  0
  5  2  1  0
  9  6  1  0
  1 10  1  0
  1 11  1  0
  1 12  1  0
  2 13  1  0
  4 14  1  0
  4 15  1  0
  5 16  1  0
  7 17  1  0
  7 18  1  0
  7 19  1  0
  8 20  1  0
  8 21  1  0
  9 22  1  0
  9 23  1  0
M  END
