
     RDKit          3D

 21 22  0  0  0  0  0  0  0  0999 V2000
    2.1406   -1.0578    0.5337 C   0  0  0  0  0  0  0  0  0  0  0  0
    0.8717   -0.3219    0.1536 C   0  0  0  0  0  0  0  0  0  0  0  0
    1.0023    0.3992   -1.0064 O   0  0  0  0  0  0  0  0  0  0  0  0
    0.4277    1.6406   -0.9400 C   0  0  0  0  0  0  0  0  0  0  0  0
   -0.6226    1.7695    0.1058 C   0  0  0  0  0  0  0  0  0  0  0  0
   -1.4189    0.8916    0.6815 C   0  0  0  0  0  0  0  0  0  0  0  0
   -1.5336   -0.5449    0.4727 C   0  0  0  0  0  0  0  0  0  0  0  0
   -1.3938   -1.0616   -0.9112 C   0  0  0  0  0  0  0  0  0  0  0  0
   -0.3005   -1.2356    0.0460 C   0  0  0  0  0  0  0  0  0  0  0  0
    1.9532   -1.5116    1.5276 H   0  0  0  0  0  0  0  0  0  0  0  0
    2.9525   -0.3099    0.5457 H   0  0  0  0  0  0  0  0  0  0  0  0
    2.3819   -1.8711   -0.1807 H   0  0  0  0  0  0  0  0  0  0  0  0
    0.6672    0.3962    0.9892 H   0  0  0  0  0  0  0  0  0  0  0  0
    1.2245    2.4042   -0.6959 H   0  0  0  0  0  0  0  0  0  0  0  0
   -0.0136    1.9740   -1.8889 H   0  0  0  0  0  0  0  0  0  0  0  0
   -0.7600    2.7823    0.4644 H   0  0  0  0  0  0  0  0  0  0  0  0
   -2.0872    1.3072    1.4200 H   0  0  0  0  0  0  0  0  0  0  0  0
   -2.1360   -1.0930    1.2312 H   0  0  0  0  0  0  0  0  0  0  0  0
   -1.3131   -0.2995   -1.7123 H   0  0  0  0  0  0  0  0  0  0  0  0
   -1.9541   -1.9754   -1.2335 H   0  0  0  0  0  0  0  0  0  0  0  0
   -0.0883   -2.2824    0.3976 H   0  0  0  0  0  0  0  0  0  0  0  0
  1  2  1  0
  2  3  1  0
  3  4  1  0
  4  5  1  0
  5  6  2  0
  6  7  1  0
  7  8  1  0
  8  9  1  0
  9  2  1  0
  9  7  1  0
  1 10  1  0
  1 11  1  0
  1 12  1  0
  2 13  1  0
  4 14  1  0
  4 15  1  0
  5 16  1  0
  6 17  1  0
  7 18  1  0
  8 19  1  0
  8 20  1  0
  9 21  1  0
M  END
