
     RDKit          3D

 19 20  0  0  0  0  0  0  0  0999 V2000
   -2.2451    0.4584   -0.2881 C   0  0  0  0  0  0  0  0  0  0  0  0
   -0.9437   -0.3029   -0.4005 C   0  0  0  0  0  0  0  0  0  0  0  0
   -0.1382    0.1421   -1.4083 O   0  0  0  0  0  0  0  0  0  0  0  0
    1.2390    0.1606   -1.0631 C   0  0  0  0  0  0  0  0  0  0  0  0
    1.3045    1.2263   -0.0162 C   0  0  0  0  0  0  0  0  0  0  0  0
    0.5469    0.9774    1.0343 C   0  0  0  0  0  0  0  0  0  0  0  0
   -0.2091   -0.3210    0.9338 C   0  0  0  0  0  0  0  0  0  0  0  0
    0.8805   -1.3533    0.7199 C   0  0  0  0  0  0  0  0  0  0  0  0
    1.5967   -1.1079   -0.3591 C   0  0  0  0  0  0  0  0  0  0  0  0
   -2.8219    0.0028    0.5359 H   0  0  0  0  0  0  0  0  0  0  0  0
   -2.7927    0.3375   -1.2317 H   0  0  0  0  0  0  0  0  0  0  0  0
   -2.0080    1.5317   -0.0684 H   0  0  0  0  0  0  0  0  0  0  0  0
   -1.2134   -1.3610   -0.6260 H   0  0  0  0  0  0  0  0  0  0  0  0
    1.8564    0.3476   -1.9289 H   0  0  0  0  0  0  0  0  0  0  0  0
    1.9254    2.0763   -0.1732 H   0  0  0  0  0  0  0  0  0  0  0  0
    0.4755    1.6346    1.8782 H   0  0  0  0  0  0  0  0  0  0  0  0
   -0.8369   -0.5338    1.7842 H   0  0  0  0  0  0  0  0  0  0  0  0
    1.0122   -2.1720    1.3990 H   0  0  0  0  0  0  0  0  0  0  0  0
    2.3717   -1.7432   -0.7219 H   0  0  0  0  0  0  0  0  0  0  0  0
  1  2  1  0
  2  3  1  0
  3  4  1  0
  4  5  1  0
  5  6  2  0
  6  7  1  0
  7  8  1  0
  8  9  2  0
  7  2  1  0
  9  4  1  0
  1 10  1  0
  1 11  1  0
  1 12  1  0
  2 13  1  0
  4 14  1  0
  5 15  1  0
  6 16  1  0
  7 17  1  0
  8 18  1  0
  9 19  1  0
M  END
