
     RDKit          3D

 19 21  0  0  0  0  0  0  0  0999 V2000
    2.1767   -0.1715   -0.4068 C   0  0  0  0  0  0  0  0  0  0  0  0
    0.9875   -0.5005    0.4285 C   0  0  0  0  0  0  0  0  0  0  0  0
    0.1122   -1.4101   -0.1987 O   0  0  0  0  0  0  0  0  0  0  0  0
   -1.1660   -1.1229    0.1700 C   0  0  0  0  0  0  0  0  0  0  0  0
   -1.6985    0.0720   -0.6281 C   0  0  0  0  0  0  0  0  0  0  0  0
   -0.4966    0.9895   -0.7800 C   0  0  0  0  0  0  0  0  0  0  0  0
    0.1057    0.6926    0.6062 C   0  0  0  0  0  0  0  0  0  0  0  0
   -1.1223    0.0056    1.1875 C   0  0  0  0  0  0  0  0  0  0  0  0
   -2.2275    0.5289    0.5734 O   0  0  0  0  0  0  0  0  0  0  0  0
    2.0395   -0.2866   -1.4859 H   0  0  0  0  0  0  0  0  0  0  0  0
    3.1148   -0.6831   -0.0398 H   0  0  0  0  0  0  0  0  0  0  0  0
    2.3971    0.9243   -0.2406 H   0  0  0  0  0  0  0  0  0  0  0  0
    1.2679   -0.9947    1.3934 H   0  0  0  0  0  0  0  0  0  0  0  0
   -1.8796   -1.9079    0.3365 H   0  0  0  0  0  0  0  0  0  0  0  0
   -2.3249   -0.1148   -1.4579 H   0  0  0  0  0  0  0  0  0  0  0  0
   -0.7817    2.0518   -0.8326 H   0  0  0  0  0  0  0  0  0  0  0  0
    0.1457    0.6387   -1.5876 H   0  0  0  0  0  0  0  0  0  0  0  0
    0.4719    1.5317    1.1296 H   0  0  0  0  0  0  0  0  0  0  0  0
   -1.1221   -0.2430    2.2200 H   0  0  0  0  0  0  0  0  0  0  0  0
  1  2  1  0
  2  3  1  0
  3  4  1  0
  4  5  1  0
  5  6  1  0
  6  7  1  0
  7  8  1  0
  8  9  1  0
  7  2  1  0
  8  4  1  0
  9  5  1  0
  1 10  1  0
  1 11  1  0
  1 12  1  0
  2 13  1  0
  4 14  1  0
  5 15  1  0
  6 16  1  0
  6 17  1  0
  7 18  1  0
  8 19  1  0
M  END
