
     RDKit          3D

 17 18  0  0  0  0  0  0  0  0999 V2000
    1.9001    0.6407    0.2512 C   0  0  0  0  0  0  0  0  0  0  0  0
    0.8212   -0.3227   -0.0996 C   0  0  0  0  0  0  0  0  0  0  0  0
    0.4367   -1.1176    0.9625 O   0  0  0  0  0  0  0  0  0  0  0  0
   -0.7662   -1.6982    0.6486 C   0  0  0  0  0  0  0  0  0  0  0  0
   -1.3626   -0.8845   -0.4582 C   0  0  0  0  0  0  0  0  0  0  0  0
   -2.3240   -1.1409   -1.1179 O   0  0  0  0  0  0  0  0  0  0  0  0
   -0.4656    0.3044   -0.5233 C   0  0  0  0  0  0  0  0  0  0  0  0
   -0.9573    1.5796   -0.1580 C   0  0  0  0  0  0  0  0  0  0  0  0
   -0.5565    1.2105   -1.5278 O   0  0  0  0  0  0  0  0  0  0  0  0
    2.7678    0.0870    0.6213 H   0  0  0  0  0  0  0  0  0  0  0  0
    1.5860    1.4314    0.9460 H   0  0  0  0  0  0  0  0  0  0  0  0
    2.2252    1.1388   -0.7067 H   0  0  0  0  0  0  0  0  0  0  0  0
    1.1947   -1.0001   -0.8961 H   0  0  0  0  0  0  0  0  0  0  0  0
   -0.6658   -2.7561    0.3872 H   0  0  0  0  0  0  0  0  0  0  0  0
   -1.4821   -1.5708    1.5133 H   0  0  0  0  0  0  0  0  0  0  0  0
   -0.2875    2.3400    0.3017 H   0  0  0  0  0  0  0  0  0  0  0  0
   -2.0640    1.7586   -0.1439 H   0  0  0  0  0  0  0  0  0  0  0  0
  1  2  1  0
  2  3  1  0
  3  4  1  0
  4  5  1  0
  5  6  2  0
  5  7  1  0
  7  8  1  0
  8  9  1  0
  7  2  1  0
  9  7  1  0
  1 10  1  0
  1 11  1  0
  1 12  1  0
  2 13  1  0
  4 14  1  0
  4 15  1  0
  8 16  1  0
  8 17  1  0
M  END
