
     RDKit          3D

 21 23  0  0  0  0  0  0  0  0999 V2000
   -2.2313    1.1813   -0.4893 C   0  0  0  0  0  0  0  0  0  0  0  0
   -1.4690    0.1410    0.3200 C   0  0  0  0  0  0  0  0  0  0  0  0
   -0.9100    0.7874    1.3899 O   0  0  0  0  0  0  0  0  0  0  0  0
    0.4612    0.5889    1.3816 C   0  0  0  0  0  0  0  0  0  0  0  0
    0.8641   -0.8429    1.1939 C   0  0  0  0  0  0  0  0  0  0  0  0
    0.1319   -1.7348    0.2440 C   0  0  0  0  0  0  0  0  0  0  0  0
   -0.3656   -0.4966   -0.4863 C   0  0  0  0  0  0  0  0  0  0  0  0
    0.8400    0.2172    0.0412 C   0  0  0  0  0  0  0  0  0  0  0  0
    2.1031    0.3592   -0.6506 C   0  0  0  0  0  0  0  0  0  0  0  0
   -2.7340    0.7690   -1.3605 H   0  0  0  0  0  0  0  0  0  0  0  0
   -1.5759    2.0333   -0.6611 H   0  0  0  0  0  0  0  0  0  0  0  0
   -3.0464    1.5440    0.2036 H   0  0  0  0  0  0  0  0  0  0  0  0
   -2.1816   -0.6636    0.5849 H   0  0  0  0  0  0  0  0  0  0  0  0
    1.0923    1.2303    1.9732 H   0  0  0  0  0  0  0  0  0  0  0  0
    1.8428   -1.1094    1.5935 H   0  0  0  0  0  0  0  0  0  0  0  0
    0.8338   -2.3211   -0.4005 H   0  0  0  0  0  0  0  0  0  0  0  0
   -0.6598   -2.3396    0.6890 H   0  0  0  0  0  0  0  0  0  0  0  0
   -0.4977   -0.5778   -1.5575 H   0  0  0  0  0  0  0  0  0  0  0  0
    2.9449    0.4450    0.0982 H   0  0  0  0  0  0  0  0  0  0  0  0
    2.4117   -0.5116   -1.2955 H   0  0  0  0  0  0  0  0  0  0  0  0
    2.1456    1.3009   -1.2332 H   0  0  0  0  0  0  0  0  0  0  0  0
  1  2  1  0
  2  3  1  0
  3  4  1  0
  4  5  1  0
  5  6  1  0
  6  7  1  0
  7  8  1  0
  8  9  1  0
  7  2  1  0
  8  4  1  0
  8  5  1  0
  1 10  1  0
  1 11  1  0
  1 12  1  0
  2 13  1  0
  4 14  1  0
  5 15  1  0
  6 16  1  0
  6 17  1  0
  7 18  1  0
  9 19  1  0
  9 20  1  0
  9 21  1  0
M  END
