
     RDKit          3D

 21 22  0  0  0  0  0  0  0  0999 V2000
    0.7159    2.0081   -0.0710 C   0  0  0  0  0  0  0  0  0  0  0  0
    0.8263    0.5297    0.0870 C   0  0  0  0  0  0  0  0  0  0  0  0
    1.7093   -0.0637   -0.8171 O   0  0  0  0  0  0  0  0  0  0  0  0
    1.5816   -1.4135   -0.4446 C   0  0  0  0  0  0  0  0  0  0  0  0
    0.0783   -1.6430   -0.3371 C   0  0  0  0  0  0  0  0  0  0  0  0
   -0.4219   -0.2327   -0.1337 C   0  0  0  0  0  0  0  0  0  0  0  0
   -1.5468   -0.0501    0.8073 C   0  0  0  0  0  0  0  0  0  0  0  0
   -2.4465   -0.0799   -0.2763 O   0  0  0  0  0  0  0  0  0  0  0  0
   -1.3941    0.2653   -1.1406 C   0  0  0  0  0  0  0  0  0  0  0  0
    1.7611    2.4232   -0.0136 H   0  0  0  0  0  0  0  0  0  0  0  0
    0.2991    2.3555   -1.0119 H   0  0  0  0  0  0  0  0  0  0  0  0
    0.1974    2.4114    0.8193 H   0  0  0  0  0  0  0  0  0  0  0  0
    1.2125    0.3141    1.0948 H   0  0  0  0  0  0  0  0  0  0  0  0
    2.0350   -1.4652    0.5878 H   0  0  0  0  0  0  0  0  0  0  0  0
    2.0575   -2.0963   -1.1463 H   0  0  0  0  0  0  0  0  0  0  0  0
   -0.1030   -2.1870    0.6102 H   0  0  0  0  0  0  0  0  0  0  0  0
   -0.3432   -2.1506   -1.1988 H   0  0  0  0  0  0  0  0  0  0  0  0
   -1.5653    0.9803    1.2590 H   0  0  0  0  0  0  0  0  0  0  0  0
   -1.7569   -0.8681    1.5196 H   0  0  0  0  0  0  0  0  0  0  0  0
   -1.4676   -0.3665   -2.0549 H   0  0  0  0  0  0  0  0  0  0  0  0
   -1.4287    1.3290   -1.3609 H   0  0  0  0  0  0  0  0  0  0  0  0
  1  2  1  0
  2  3  1  0
  3  4  1  0
  4  5  1  0
  5  6  1  0
  6  7  1  0
  7  8  1  0
  8  9  1  0
  6  2  1  0
  9  6  1  0
  1 10  1  0
  1 11  1  0
  1 12  1  0
  2 13  1  0
  4 14  1  0
  4 15  1  0
  5 16  1  0
  5 17  1  0
  7 18  1  0
  7 19  1  0
  9 20  1  0
  9 21  1  0
M  END
