
     RDKit          3D

 21 23  0  0  0  0  0  0  0  0999 V2000
    2.4383    0.4773   -0.0344 C   0  0  0  0  0  0  0  0  0  0  0  0
    0.9998    0.6876    0.3094 C   0  0  0  0  0  0  0  0  0  0  0  0
    0.2732    1.2002   -0.7216 O   0  0  0  0  0  0  0  0  0  0  0  0
   -1.0604    1.0012   -0.7208 C   0  0  0  0  0  0  0  0  0  0  0  0
   -1.4698   -0.4171   -0.7727 C   0  0  0  0  0  0  0  0  0  0  0  0
   -0.2973   -1.3003   -0.4666 C   0  0  0  0  0  0  0  0  0  0  0  0
    0.3337   -0.6235    0.7362 C   0  0  0  0  0  0  0  0  0  0  0  0
   -0.9125   -0.1835    1.4947 C   0  0  0  0  0  0  0  0  0  0  0  0
   -1.7192    0.4494    0.4385 C   0  0  0  0  0  0  0  0  0  0  0  0
    2.7158    0.9081   -1.0190 H   0  0  0  0  0  0  0  0  0  0  0  0
    2.6424   -0.6034   -0.0680 H   0  0  0  0  0  0  0  0  0  0  0  0
    3.0928    0.9166    0.7413 H   0  0  0  0  0  0  0  0  0  0  0  0
    0.9371    1.4255    1.1627 H   0  0  0  0  0  0  0  0  0  0  0  0
   -1.6500    1.6985   -1.3561 H   0  0  0  0  0  0  0  0  0  0  0  0
   -2.3386   -0.7808   -1.3263 H   0  0  0  0  0  0  0  0  0  0  0  0
   -0.5762   -2.3197   -0.1837 H   0  0  0  0  0  0  0  0  0  0  0  0
    0.4512   -1.2925   -1.2682 H   0  0  0  0  0  0  0  0  0  0  0  0
    0.9915   -1.2655    1.3132 H   0  0  0  0  0  0  0  0  0  0  0  0
   -1.4095   -1.1350    1.8346 H   0  0  0  0  0  0  0  0  0  0  0  0
   -0.6776    0.4197    2.3703 H   0  0  0  0  0  0  0  0  0  0  0  0
   -2.7649    0.7373    0.6483 H   0  0  0  0  0  0  0  0  0  0  0  0
  1  2  1  0
  2  3  1  0
  3  4  1  0
  4  5  1  0
  5  6  1  0
  6  7  1  0
  7  8  1  0
  8  9  1  0
  7  2  1  0
  9  4  1  0
  9  5  1  0
  1 10  1  0
  1 11  1  0
  1 12  1  0
  2 13  1  0
  4 14  1  0
  5 15  1  0
  6 16  1  0
  6 17  1  0
  7 18  1  0
  8 19  1  0
  8 20  1  0
  9 21  1  0
M  END
