
     RDKit          3D

 18 18  0  0  0  0  0  0  0  0999 V2000
   -1.9040    1.0954    0.3275 C   0  0  0  0  0  0  0  0  0  0  0  0
   -1.0649    0.1641   -0.5182 C   0  0  0  0  0  0  0  0  0  0  0  0
   -0.0251    0.8955   -1.1321 O   0  0  0  0  0  0  0  0  0  0  0  0
    0.9749    0.0409   -0.7090 C   0  0  0  0  0  0  0  0  0  0  0  0
    2.0708    0.6963    0.1235 C   0  0  0  0  0  0  0  0  0  0  0  0
   -0.0217   -0.6144    0.2071 C   0  0  0  0  0  0  0  0  0  0  0  0
   -0.0955   -2.0779    0.1402 C   0  0  0  0  0  0  0  0  0  0  0  0
    0.1175   -2.7828    1.1347 O   0  0  0  0  0  0  0  0  0  0  0  0
   -1.7837    0.7668    1.3847 H   0  0  0  0  0  0  0  0  0  0  0  0
   -2.9755    1.0533    0.0337 H   0  0  0  0  0  0  0  0  0  0  0  0
   -1.5590    2.1615    0.2456 H   0  0  0  0  0  0  0  0  0  0  0  0
   -1.6494   -0.3497   -1.2846 H   0  0  0  0  0  0  0  0  0  0  0  0
    1.3535   -0.6166   -1.5189 H   0  0  0  0  0  0  0  0  0  0  0  0
    2.3317   -0.0705    0.9096 H   0  0  0  0  0  0  0  0  0  0  0  0
    2.9491    0.9697   -0.4756 H   0  0  0  0  0  0  0  0  0  0  0  0
    1.5884    1.5716    0.6152 H   0  0  0  0  0  0  0  0  0  0  0  0
    0.0284   -0.2728    1.2785 H   0  0  0  0  0  0  0  0  0  0  0  0
   -0.3356   -2.6305   -0.7621 H   0  0  0  0  0  0  0  0  0  0  0  0
  1  2  1  0
  2  3  1  0
  3  4  1  0
  4  5  1  0
  4  6  1  0
  6  7  1  0
  7  8  2  0
  6  2  1  0
  1  9  1  0
  1 10  1  0
  1 11  1  0
  2 12  1  0
  4 13  1  0
  5 14  1  0
  5 15  1  0
  5 16  1  0
  6 17  1  0
  7 18  1  0
M  END
