
     RDKit          3D

 17 18  0  0  0  0  0  0  0  0999 V2000
    2.5497   -0.0803    0.2711 C   0  0  0  0  0  0  0  0  0  0  0  0
    1.2635   -0.4712   -0.3963 C   0  0  0  0  0  0  0  0  0  0  0  0
    0.4335   -1.2951    0.4373 O   0  0  0  0  0  0  0  0  0  0  0  0
   -0.5987   -0.8260   -0.3526 C   0  0  0  0  0  0  0  0  0  0  0  0
   -1.9196   -0.5018    0.2880 C   0  0  0  0  0  0  0  0  0  0  0  0
   -2.0722    0.9416   -0.1234 C   0  0  0  0  0  0  0  0  0  0  0  0
   -3.1416    1.5264   -0.3285 O   0  0  0  0  0  0  0  0  0  0  0  0
   -0.7152    1.4732   -0.2209 C   0  0  0  0  0  0  0  0  0  0  0  0
    0.1610    0.5003   -0.3002 C   0  0  0  0  0  0  0  0  0  0  0  0
    2.3434   -0.0450    1.3775 H   0  0  0  0  0  0  0  0  0  0  0  0
    3.2978   -0.8513    0.0996 H   0  0  0  0  0  0  0  0  0  0  0  0
    2.8996    0.9267   -0.0557 H   0  0  0  0  0  0  0  0  0  0  0  0
    1.3321   -0.9464   -1.3793 H   0  0  0  0  0  0  0  0  0  0  0  0
   -0.6392   -1.2072   -1.3735 H   0  0  0  0  0  0  0  0  0  0  0  0
   -2.7588   -1.0471   -0.1858 H   0  0  0  0  0  0  0  0  0  0  0  0
   -1.9536   -0.6349    1.3703 H   0  0  0  0  0  0  0  0  0  0  0  0
   -0.4818    2.5380   -0.2255 H   0  0  0  0  0  0  0  0  0  0  0  0
  1  2  1  0
  2  3  1  0
  3  4  1  0
  4  5  1  0
  5  6  1  0
  6  7  2  0
  6  8  1  0
  8  9  2  0
  9  2  1  0
  9  4  1  0
  1 10  1  0
  1 11  1  0
  1 12  1  0
  2 13  1  0
  4 14  1  0
  5 15  1  0
  5 16  1  0
  8 17  1  0
M  END
