
     RDKit          3D

 20 21  0  0  0  0  0  0  0  0999 V2000
    2.4099   -0.2856   -0.6521 C   0  0  0  0  0  0  0  0  0  0  0  0
    1.2192    0.3802   -0.0187 C   0  0  0  0  0  0  0  0  0  0  0  0
    0.4711    1.0284   -1.0328 O   0  0  0  0  0  0  0  0  0  0  0  0
   -0.6152    1.4525   -0.2285 C   0  0  0  0  0  0  0  0  0  0  0  0
   -1.0867    0.0741    0.2489 C   0  0  0  0  0  0  0  0  0  0  0  0
   -2.0069   -0.6934   -0.6183 C   0  0  0  0  0  0  0  0  0  0  0  0
   -0.7102   -0.2852    1.6068 C   0  0  0  0  0  0  0  0  0  0  0  0
    0.2736   -0.6059    0.5638 C   0  0  0  0  0  0  0  0  0  0  0  0
    3.3645   -0.0004   -0.1428 H   0  0  0  0  0  0  0  0  0  0  0  0
    2.5425   -0.0206   -1.7234 H   0  0  0  0  0  0  0  0  0  0  0  0
    2.3218   -1.3960   -0.5581 H   0  0  0  0  0  0  0  0  0  0  0  0
    1.5080    1.2060    0.6809 H   0  0  0  0  0  0  0  0  0  0  0  0
   -0.1688    2.0364    0.5870 H   0  0  0  0  0  0  0  0  0  0  0  0
   -1.3705    1.9804   -0.8010 H   0  0  0  0  0  0  0  0  0  0  0  0
   -2.1187   -0.1380   -1.5865 H   0  0  0  0  0  0  0  0  0  0  0  0
   -1.6738   -1.7242   -0.8419 H   0  0  0  0  0  0  0  0  0  0  0  0
   -3.0322   -0.7721   -0.1848 H   0  0  0  0  0  0  0  0  0  0  0  0
   -1.1715   -1.1608    2.1189 H   0  0  0  0  0  0  0  0  0  0  0  0
   -0.5635    0.5649    2.3255 H   0  0  0  0  0  0  0  0  0  0  0  0
    0.4073   -1.6407    0.2571 H   0  0  0  0  0  0  0  0  0  0  0  0
  1  2  1  0
  2  3  1  0
  3  4  1  0
  4  5  1  0
  5  6  1  0
  5  7  1  0
  7  8  1  0
  8  2  1  0
  8  5  1  0
  1  9  1  0
  1 10  1  0
  1 11  1  0
  2 12  1  0
  4 13  1  0
  4 14  1  0
  6 15  1  0
  6 16  1  0
  6 17  1  0
  7 18  1  0
  7 19  1  0
  8 20  1  0
M  END
