
     RDKit          3D

 19 21  0  0  0  0  0  0  0  0999 V2000
    2.8644    0.0742    0.5170 C   0  0  0  0  0  0  0  0  0  0  0  0
    1.5127    0.3911   -0.0840 C   0  0  0  0  0  0  0  0  0  0  0  0
    1.2874   -0.3875   -1.2669 O   0  0  0  0  0  0  0  0  0  0  0  0
    0.4118   -0.5400   -0.0735 C   0  0  0  0  0  0  0  0  0  0  0  0
   -0.9674   -0.1111   -0.4226 C   0  0  0  0  0  0  0  0  0  0  0  0
   -2.0274   -1.1946   -0.3875 C   0  0  0  0  0  0  0  0  0  0  0  0
   -2.9721   -0.3436    0.1856 O   0  0  0  0  0  0  0  0  0  0  0  0
   -1.9108    0.4487    0.6003 C   0  0  0  0  0  0  0  0  0  0  0  0
   -1.3176    1.3050   -0.4539 C   0  0  0  0  0  0  0  0  0  0  0  0
    3.5537   -0.4119   -0.2045 H   0  0  0  0  0  0  0  0  0  0  0  0
    3.3756    0.9973    0.8552 H   0  0  0  0  0  0  0  0  0  0  0  0
    2.7248   -0.6529    1.3433 H   0  0  0  0  0  0  0  0  0  0  0  0
    1.2977    1.4697   -0.1854 H   0  0  0  0  0  0  0  0  0  0  0  0
    0.5195   -1.5983    0.2530 H   0  0  0  0  0  0  0  0  0  0  0  0
   -2.2996   -1.6139   -1.3698 H   0  0  0  0  0  0  0  0  0  0  0  0
   -1.8104   -2.0219    0.3355 H   0  0  0  0  0  0  0  0  0  0  0  0
   -1.5496    0.4208    1.6246 H   0  0  0  0  0  0  0  0  0  0  0  0
   -0.6164    2.0641   -0.0774 H   0  0  0  0  0  0  0  0  0  0  0  0
   -2.0762    1.7046   -1.1890 H   0  0  0  0  0  0  0  0  0  0  0  0
  1  2  1  0
  2  3  1  0
  3  4  1  0
  4  5  1  0
  5  6  1  0
  6  7  1  0
  7  8  1  0
  8  9  1  0
  4  2  1  0
  8  5  1  0
  9  5  1  0
  1 10  1  0
  1 11  1  0
  1 12  1  0
  2 13  1  0
  4 14  1  0
  6 15  1  0
  6 16  1  0
  8 17  1  0
  9 18  1  0
  9 19  1  0
M  END
