
     RDKit          3D

 21 22  0  0  0  0  0  0  0  0999 V2000
   -1.8576    1.0694    0.8083 C   0  0  0  0  0  0  0  0  0  0  0  0
   -1.2868   -0.2919    0.5700 C   0  0  0  0  0  0  0  0  0  0  0  0
   -2.1412   -1.1670   -0.1365 O   0  0  0  0  0  0  0  0  0  0  0  0
   -1.0022   -1.7434   -0.7128 C   0  0  0  0  0  0  0  0  0  0  0  0
   -0.2861   -0.4761   -0.4719 C   0  0  0  0  0  0  0  0  0  0  0  0
    0.2177    0.4532   -1.4305 C   0  0  0  0  0  0  0  0  0  0  0  0
    1.1327   -0.2767   -0.4068 C   0  0  0  0  0  0  0  0  0  0  0  0
    1.8203    0.5937    0.6218 C   0  0  0  0  0  0  0  0  0  0  0  0
    3.2031    0.5824    0.4203 O   0  0  0  0  0  0  0  0  0  0  0  0
   -1.5320    1.4859    1.7934 H   0  0  0  0  0  0  0  0  0  0  0  0
   -1.6638    1.7677   -0.0198 H   0  0  0  0  0  0  0  0  0  0  0  0
   -2.9607    0.9627    0.8845 H   0  0  0  0  0  0  0  0  0  0  0  0
   -1.0030   -0.8202    1.5223 H   0  0  0  0  0  0  0  0  0  0  0  0
   -1.1039   -1.9968   -1.7820 H   0  0  0  0  0  0  0  0  0  0  0  0
   -0.6095   -2.5597   -0.0635 H   0  0  0  0  0  0  0  0  0  0  0  0
    0.3382    0.1125   -2.4941 H   0  0  0  0  0  0  0  0  0  0  0  0
    0.2209    1.5356   -1.3234 H   0  0  0  0  0  0  0  0  0  0  0  0
    1.7996   -1.0477   -0.8495 H   0  0  0  0  0  0  0  0  0  0  0  0
    1.5663    0.3144    1.6624 H   0  0  0  0  0  0  0  0  0  0  0  0
    1.5078    1.6715    0.5140 H   0  0  0  0  0  0  0  0  0  0  0  0
    3.6407   -0.1693    0.8938 H   0  0  0  0  0  0  0  0  0  0  0  0
  1  2  1  0
  2  3  1  0
  3  4  1  0
  4  5  1  0
  5  6  1  0
  6  7  1  0
  7  8  1  0
  8  9  1  0
  5  2  1  0
  7  5  1  0
  1 10  1  0
  1 11  1  0
  1 12  1  0
  2 13  1  0
  4 14  1  0
  4 15  1  0
  6 16  1  0
  6 17  1  0
  7 18  1  0
  8 19  1  0
  8 20  1  0
  9 21  1  0
M  END
