
     RDKit          3D

 21 22  0  0  0  0  0  0  0  0999 V2000
    0.7548    1.7221    0.8650 C   0  0  0  0  0  0  0  0  0  0  0  0
    0.5287    0.8102   -0.3496 C   0  0  0  0  0  0  0  0  0  0  0  0
    1.7010    0.2598   -0.6952 O   0  0  0  0  0  0  0  0  0  0  0  0
    1.8841   -1.0805   -0.5094 C   0  0  0  0  0  0  0  0  0  0  0  0
    0.7436   -1.9206   -0.8795 C   0  0  0  0  0  0  0  0  0  0  0  0
   -0.4808   -1.4563   -0.6889 C   0  0  0  0  0  0  0  0  0  0  0  0
   -0.6206   -0.1073   -0.1094 C   0  0  0  0  0  0  0  0  0  0  0  0
   -1.4633    0.0472    1.0820 C   0  0  0  0  0  0  0  0  0  0  0  0
   -2.0498    0.5092   -0.2356 C   0  0  0  0  0  0  0  0  0  0  0  0
    1.7557    2.2164    0.7659 H   0  0  0  0  0  0  0  0  0  0  0  0
    0.0195    2.5517    0.8856 H   0  0  0  0  0  0  0  0  0  0  0  0
    0.6570    1.1676    1.8091 H   0  0  0  0  0  0  0  0  0  0  0  0
    0.2157    1.5132   -1.1608 H   0  0  0  0  0  0  0  0  0  0  0  0
    2.2157   -1.3500    0.5269 H   0  0  0  0  0  0  0  0  0  0  0  0
    2.7485   -1.3790   -1.1651 H   0  0  0  0  0  0  0  0  0  0  0  0
    0.8711   -2.8944   -1.2976 H   0  0  0  0  0  0  0  0  0  0  0  0
   -1.3659   -2.0421   -0.9479 H   0  0  0  0  0  0  0  0  0  0  0  0
   -1.3576    0.8468    1.8200 H   0  0  0  0  0  0  0  0  0  0  0  0
   -1.9176   -0.8850    1.4943 H   0  0  0  0  0  0  0  0  0  0  0  0
   -2.0421    1.5892   -0.4732 H   0  0  0  0  0  0  0  0  0  0  0  0
   -2.7979   -0.1181   -0.7368 H   0  0  0  0  0  0  0  0  0  0  0  0
  1  2  1  0
  2  3  1  0
  3  4  1  0
  4  5  1  0
  5  6  2  0
  6  7  1  0
  7  8  1  0
  8  9  1  0
  7  2  1  0
  9  7  1  0
  1 10  1  0
  1 11  1  0
  1 12  1  0
  2 13  1  0
  4 14  1  0
  4 15  1  0
  5 16  1  0
  6 17  1  0
  8 18  1  0
  8 19  1  0
  9 20  1  0
  9 21  1  0
M  END
