
     RDKit          3D

 19 20  0  0  0  0  0  0  0  0999 V2000
    2.4583    0.4474    0.0544 C   0  0  0  0  0  0  0  0  0  0  0  0
    1.3121   -0.3138    0.6990 C   0  0  0  0  0  0  0  0  0  0  0  0
    1.1139   -1.5073    0.0329 O   0  0  0  0  0  0  0  0  0  0  0  0
   -0.0847   -1.0415   -0.4870 C   0  0  0  0  0  0  0  0  0  0  0  0
   -1.2148   -0.7515    0.4769 C   0  0  0  0  0  0  0  0  0  0  0  0
   -2.5187   -0.4268   -0.1899 C   0  0  0  0  0  0  0  0  0  0  0  0
   -0.0579    0.1661    0.3628 C   0  0  0  0  0  0  0  0  0  0  0  0
   -0.1723    1.5168   -0.1816 C   0  0  0  0  0  0  0  0  0  0  0  0
    0.0849    1.7378   -1.3510 O   0  0  0  0  0  0  0  0  0  0  0  0
    2.7724    1.3130    0.6620 H   0  0  0  0  0  0  0  0  0  0  0  0
    3.2985   -0.2967   -0.0416 H   0  0  0  0  0  0  0  0  0  0  0  0
    2.1944    0.8060   -0.9689 H   0  0  0  0  0  0  0  0  0  0  0  0
    1.4709   -0.3823    1.7866 H   0  0  0  0  0  0  0  0  0  0  0  0
   -0.2608   -1.0257   -1.5644 H   0  0  0  0  0  0  0  0  0  0  0  0
   -1.2361   -1.4608    1.3335 H   0  0  0  0  0  0  0  0  0  0  0  0
   -3.2046   -1.3025   -0.0850 H   0  0  0  0  0  0  0  0  0  0  0  0
   -3.0431    0.4328    0.2697 H   0  0  0  0  0  0  0  0  0  0  0  0
   -2.4233   -0.2388   -1.2724 H   0  0  0  0  0  0  0  0  0  0  0  0
   -0.4893    2.3279    0.4638 H   0  0  0  0  0  0  0  0  0  0  0  0
  1  2  1  0
  2  3  1  0
  3  4  1  0
  4  5  1  0
  5  6  1  0
  5  7  1  0
  7  8  1  0
  8  9  2  0
  7  2  1  0
  7  4  1  0
  1 10  1  0
  1 11  1  0
  1 12  1  0
  2 13  1  0
  4 14  1  0
  5 15  1  0
  6 16  1  0
  6 17  1  0
  6 18  1  0
  8 19  1  0
M  END
