
     RDKit          3D

 18 18  0  0  0  0  0  0  0  0999 V2000
   -0.8736   -1.5082   -0.5903 C   0  0  0  0  0  0  0  0  0  0  0  0
   -0.3907   -0.7076    0.5921 C   0  0  0  0  0  0  0  0  0  0  0  0
   -1.4950   -0.1564    1.2112 O   0  0  0  0  0  0  0  0  0  0  0  0
   -1.7388    1.0682    0.5991 C   0  0  0  0  0  0  0  0  0  0  0  0
   -0.3430    1.5008    0.2131 C   0  0  0  0  0  0  0  0  0  0  0  0
    0.4502    0.4359    0.2125 C   0  0  0  0  0  0  0  0  0  0  0  0
    1.9053    0.4496   -0.1167 C   0  0  0  0  0  0  0  0  0  0  0  0
    2.1786   -0.3573   -1.1972 O   0  0  0  0  0  0  0  0  0  0  0  0
   -1.8876   -1.1395   -0.9113 H   0  0  0  0  0  0  0  0  0  0  0  0
   -1.0350   -2.5582   -0.2681 H   0  0  0  0  0  0  0  0  0  0  0  0
   -0.1717   -1.4912   -1.4401 H   0  0  0  0  0  0  0  0  0  0  0  0
    0.1036   -1.4032    1.3023 H   0  0  0  0  0  0  0  0  0  0  0  0
   -2.3358    0.9889   -0.3068 H   0  0  0  0  0  0  0  0  0  0  0  0
   -2.1248    1.7628    1.3605 H   0  0  0  0  0  0  0  0  0  0  0  0
   -0.0119    2.5130   -0.0302 H   0  0  0  0  0  0  0  0  0  0  0  0
    2.2642    1.4521   -0.3241 H   0  0  0  0  0  0  0  0  0  0  0  0
    2.5161    0.0620    0.7453 H   0  0  0  0  0  0  0  0  0  0  0  0
    2.9900   -0.9117   -1.0513 H   0  0  0  0  0  0  0  0  0  0  0  0
  1  2  1  0
  2  3  1  0
  3  4  1  0
  4  5  1  0
  5  6  2  0
  6  7  1  0
  7  8  1  0
  6  2  1  0
  1  9  1  0
  1 10  1  0
  1 11  1  0
  2 12  1  0
  4 13  1  0
  4 14  1  0
  5 15  1  0
  7 16  1  0
  7 17  1  0
  8 18  1  0
M  END
