
     RDKit          3D

 19 19  0  0  0  0  0  0  0  0999 V2000
    2.3248   -0.0527    0.2778 C   0  0  0  0  0  0  0  0  0  0  0  0
    1.2470   -0.3908   -0.7160 C   0  0  0  0  0  0  0  0  0  0  0  0
    0.4194   -1.3974   -0.3371 O   0  0  0  0  0  0  0  0  0  0  0  0
   -0.4585   -1.1268    0.6722 C   0  0  0  0  0  0  0  0  0  0  0  0
   -1.7241   -0.5388    0.0365 C   0  0  0  0  0  0  0  0  0  0  0  0
   -1.6128    0.9443    0.1248 C   0  0  0  0  0  0  0  0  0  0  0  0
   -0.5549    1.4248   -0.7584 C   0  0  0  0  0  0  0  0  0  0  0  0
   -0.7199    2.5584   -1.2733 O   0  0  0  0  0  0  0  0  0  0  0  0
    0.6113    0.7985   -1.1077 O   0  0  0  0  0  0  0  0  0  0  0  0
    3.2860    0.2033   -0.2532 H   0  0  0  0  0  0  0  0  0  0  0  0
    2.0806    0.8546    0.8705 H   0  0  0  0  0  0  0  0  0  0  0  0
    2.5899   -0.9119    0.9398 H   0  0  0  0  0  0  0  0  0  0  0  0
    1.7874   -0.7495   -1.6433 H   0  0  0  0  0  0  0  0  0  0  0  0
   -0.0888   -0.4359    1.4456 H   0  0  0  0  0  0  0  0  0  0  0  0
   -0.7872   -2.0880    1.1211 H   0  0  0  0  0  0  0  0  0  0  0  0
   -2.6246   -0.8618    0.5667 H   0  0  0  0  0  0  0  0  0  0  0  0
   -1.8217   -0.8596   -1.0197 H   0  0  0  0  0  0  0  0  0  0  0  0
   -2.5944    1.4303   -0.1354 H   0  0  0  0  0  0  0  0  0  0  0  0
   -1.3597    1.1989    1.1891 H   0  0  0  0  0  0  0  0  0  0  0  0
  1  2  1  0
  2  3  1  0
  3  4  1  0
  4  5  1  0
  5  6  1  0
  6  7  1  0
  7  8  2  0
  7  9  1  0
  9  2  1  0
  1 10  1  0
  1 11  1  0
  1 12  1  0
  2 13  1  0
  4 14  1  0
  4 15  1  0
  5 16  1  0
  5 17  1  0
  6 18  1  0
  6 19  1  0
M  END
