
     RDKit          3D

 19 20  0  0  0  0  0  0  0  0999 V2000
   -2.5622   -0.0627   -0.9460 C   0  0  0  0  0  0  0  0  0  0  0  0
   -1.9748    0.5211    0.3118 C   0  0  0  0  0  0  0  0  0  0  0  0
   -1.0373    1.5501    0.0763 O   0  0  0  0  0  0  0  0  0  0  0  0
   -0.6465    0.2932    0.7701 C   0  0  0  0  0  0  0  0  0  0  0  0
    0.4444   -0.3713    0.0032 C   0  0  0  0  0  0  0  0  0  0  0  0
    1.8000   -0.5657    0.5628 C   0  0  0  0  0  0  0  0  0  0  0  0
    2.5951   -1.6089    0.0773 O   0  0  0  0  0  0  0  0  0  0  0  0
    1.6018    0.5660   -0.3648 C   0  0  0  0  0  0  0  0  0  0  0  0
    2.0759    0.5124   -1.6804 O   0  0  0  0  0  0  0  0  0  0  0  0
   -3.3474   -0.7896   -0.6310 H   0  0  0  0  0  0  0  0  0  0  0  0
   -3.1223    0.7577   -1.4724 H   0  0  0  0  0  0  0  0  0  0  0  0
   -1.8336   -0.4614   -1.6463 H   0  0  0  0  0  0  0  0  0  0  0  0
   -2.7473    0.8320    1.0461 H   0  0  0  0  0  0  0  0  0  0  0  0
   -0.3873    0.5425    1.8153 H   0  0  0  0  0  0  0  0  0  0  0  0
    0.1185   -1.1186   -0.7363 H   0  0  0  0  0  0  0  0  0  0  0  0
    1.9980   -0.3562    1.6409 H   0  0  0  0  0  0  0  0  0  0  0  0
    2.3527   -2.4701    0.5023 H   0  0  0  0  0  0  0  0  0  0  0  0
    1.6020    1.5818    0.0475 H   0  0  0  0  0  0  0  0  0  0  0  0
    3.0704    0.6476   -1.6785 H   0  0  0  0  0  0  0  0  0  0  0  0
  1  2  1  0
  2  3  1  0
  3  4  1  0
  4  5  1  0
  5  6  1  0
  6  7  1  0
  6  8  1  0
  8  9  1  0
  4  2  1  0
  8  5  1  0
  1 10  1  0
  1 11  1  0
  1 12  1  0
  2 13  1  0
  4 14  1  0
  5 15  1  0
  6 16  1  0
  7 17  1  0
  8 18  1  0
  9 19  1  0
M  END
