
     RDKit          3D

 19 20  0  0  0  0  0  0  0  0999 V2000
    2.3853   -0.5330    0.6724 C   0  0  0  0  0  0  0  0  0  0  0  0
    1.8973    0.6351   -0.1567 C   0  0  0  0  0  0  0  0  0  0  0  0
    1.3160    1.7155    0.5005 O   0  0  0  0  0  0  0  0  0  0  0  0
    0.4877    0.8575   -0.4208 C   0  0  0  0  0  0  0  0  0  0  0  0
   -0.6246    0.2549    0.3393 C   0  0  0  0  0  0  0  0  0  0  0  0
   -1.9941    0.6947   -0.1957 C   0  0  0  0  0  0  0  0  0  0  0  0
   -2.4713   -0.6712    0.1558 C   0  0  0  0  0  0  0  0  0  0  0  0
   -3.5661   -1.1065    0.4675 O   0  0  0  0  0  0  0  0  0  0  0  0
   -1.0673   -1.1255   -0.0585 C   0  0  0  0  0  0  0  0  0  0  0  0
    3.0605   -1.1591    0.0521 H   0  0  0  0  0  0  0  0  0  0  0  0
    1.5689   -1.1951    1.0102 H   0  0  0  0  0  0  0  0  0  0  0  0
    2.9124   -0.1883    1.6022 H   0  0  0  0  0  0  0  0  0  0  0  0
    2.6222    0.9507   -0.9381 H   0  0  0  0  0  0  0  0  0  0  0  0
    0.2241    1.5158   -1.2737 H   0  0  0  0  0  0  0  0  0  0  0  0
   -0.6296    0.3586    1.4388 H   0  0  0  0  0  0  0  0  0  0  0  0
   -2.4357    1.5226    0.3498 H   0  0  0  0  0  0  0  0  0  0  0  0
   -1.9982    0.7850   -1.3174 H   0  0  0  0  0  0  0  0  0  0  0  0
   -0.8554   -1.3769   -1.1165 H   0  0  0  0  0  0  0  0  0  0  0  0
   -0.8321   -1.9347    0.6375 H   0  0  0  0  0  0  0  0  0  0  0  0
  1  2  1  0
  2  3  1  0
  3  4  1  0
  4  5  1  0
  5  6  1  0
  6  7  1  0
  7  8  2  0
  7  9  1  0
  4  2  1  0
  9  5  1  0
  1 10  1  0
  1 11  1  0
  1 12  1  0
  2 13  1  0
  4 14  1  0
  5 15  1  0
  6 16  1  0
  6 17  1  0
  9 18  1  0
  9 19  1  0
M  END
