
     RDKit          3D

 21 22  0  0  0  0  0  0  0  0999 V2000
    2.2631   -0.3374   -0.0573 C   0  0  0  0  0  0  0  0  0  0  0  0
    0.9061   -0.2339   -0.7458 C   0  0  0  0  0  0  0  0  0  0  0  0
    0.7912    1.0553   -1.2228 O   0  0  0  0  0  0  0  0  0  0  0  0
    0.4736    1.9264   -0.1738 C   0  0  0  0  0  0  0  0  0  0  0  0
   -0.8349    1.6782    0.1752 O   0  0  0  0  0  0  0  0  0  0  0  0
   -1.0488    0.4304    0.6945 C   0  0  0  0  0  0  0  0  0  0  0  0
   -2.2115   -0.2430   -0.0191 C   0  0  0  0  0  0  0  0  0  0  0  0
   -1.3277   -1.4101   -0.3864 C   0  0  0  0  0  0  0  0  0  0  0  0
   -0.1590   -0.6410    0.2061 C   0  0  0  0  0  0  0  0  0  0  0  0
    2.9732   -0.9621   -0.6315 H   0  0  0  0  0  0  0  0  0  0  0  0
    2.1453   -0.8357    0.9484 H   0  0  0  0  0  0  0  0  0  0  0  0
    2.7040    0.6466    0.1539 H   0  0  0  0  0  0  0  0  0  0  0  0
    0.9547   -0.9057   -1.6400 H   0  0  0  0  0  0  0  0  0  0  0  0
    0.5811    2.9691   -0.5042 H   0  0  0  0  0  0  0  0  0  0  0  0
    1.0993    1.7756    0.7155 H   0  0  0  0  0  0  0  0  0  0  0  0
   -1.1403    0.4740    1.7950 H   0  0  0  0  0  0  0  0  0  0  0  0
   -2.5304    0.2793   -0.9451 H   0  0  0  0  0  0  0  0  0  0  0  0
   -3.0236   -0.4681    0.6787 H   0  0  0  0  0  0  0  0  0  0  0  0
   -1.2356   -1.6403   -1.4515 H   0  0  0  0  0  0  0  0  0  0  0  0
   -1.6412   -2.3032    0.1720 H   0  0  0  0  0  0  0  0  0  0  0  0
    0.2614   -1.2545    1.0552 H   0  0  0  0  0  0  0  0  0  0  0  0
  1  2  1  0
  2  3  1  0
  3  4  1  0
  4  5  1  0
  5  6  1  0
  6  7  1  0
  7  8  1  0
  8  9  1  0
  9  2  1  0
  9  6  1  0
  1 10  1  0
  1 11  1  0
  1 12  1  0
  2 13  1  0
  4 14  1  0
  4 15  1  0
  6 16  1  0
  7 17  1  0
  7 18  1  0
  8 19  1  0
  8 20  1  0
  9 21  1  0
M  END
