
     RDKit          3D

 21 22  0  0  0  0  0  0  0  0999 V2000
    2.7173    0.1554   -0.1604 C   0  0  0  0  0  0  0  0  0  0  0  0
    1.4117    0.5770    0.5301 C   0  0  0  0  0  0  0  0  0  0  0  0
    0.8200    1.5728   -0.2809 O   0  0  0  0  0  0  0  0  0  0  0  0
    0.1406    0.5386   -0.9161 C   0  0  0  0  0  0  0  0  0  0  0  0
   -1.0381    0.0217   -0.1722 C   0  0  0  0  0  0  0  0  0  0  0  0
   -1.7838    1.0958    0.6253 C   0  0  0  0  0  0  0  0  0  0  0  0
   -1.9390   -1.0103   -0.7858 C   0  0  0  0  0  0  0  0  0  0  0  0
    0.3186   -0.3970    0.2331 C   0  0  0  0  0  0  0  0  0  0  0  0
    0.7452   -1.6803   -0.0613 O   0  0  0  0  0  0  0  0  0  0  0  0
    3.1555   -0.7153    0.3450 H   0  0  0  0  0  0  0  0  0  0  0  0
    3.4392    0.9743   -0.1987 H   0  0  0  0  0  0  0  0  0  0  0  0
    2.4044   -0.2080   -1.1777 H   0  0  0  0  0  0  0  0  0  0  0  0
    1.5644    0.8715    1.5736 H   0  0  0  0  0  0  0  0  0  0  0  0
    0.3617    0.2553   -1.9410 H   0  0  0  0  0  0  0  0  0  0  0  0
   -2.0805    1.8764   -0.1209 H   0  0  0  0  0  0  0  0  0  0  0  0
   -2.6676    0.6919    1.1366 H   0  0  0  0  0  0  0  0  0  0  0  0
   -1.0363    1.5543    1.2870 H   0  0  0  0  0  0  0  0  0  0  0  0
   -1.9319   -1.8937   -0.0950 H   0  0  0  0  0  0  0  0  0  0  0  0
   -1.6432   -1.3004   -1.8134 H   0  0  0  0  0  0  0  0  0  0  0  0
   -3.0115   -0.6822   -0.8067 H   0  0  0  0  0  0  0  0  0  0  0  0
    0.0533   -2.2978   -0.3334 H   0  0  0  0  0  0  0  0  0  0  0  0
  1  2  1  0
  2  3  1  0
  3  4  1  0
  4  5  1  0
  5  6  1  0
  5  7  1  0
  5  8  1  0
  8  9  1  0
  8  2  1  0
  8  4  1  0
  1 10  1  0
  1 11  1  0
  1 12  1  0
  2 13  1  0
  4 14  1  0
  6 15  1  0
  6 16  1  0
  6 17  1  0
  7 18  1  0
  7 19  1  0
  7 20  1  0
  9 21  1  0
M  END
