
     RDKit          3D

 21 22  0  0  0  0  0  0  0  0999 V2000
    1.6886   -1.1288    0.1979 C   0  0  0  0  0  0  0  0  0  0  0  0
    1.1361    0.1370   -0.3477 C   0  0  0  0  0  0  0  0  0  0  0  0
    0.5762    0.0698   -1.6288 O   0  0  0  0  0  0  0  0  0  0  0  0
   -0.2227    1.1650   -1.2308 C   0  0  0  0  0  0  0  0  0  0  0  0
   -0.2251    0.5563    0.1548 C   0  0  0  0  0  0  0  0  0  0  0  0
   -0.0817    1.5345    1.2886 C   0  0  0  0  0  0  0  0  0  0  0  0
   -1.2030   -0.5456    0.3871 C   0  0  0  0  0  0  0  0  0  0  0  0
   -1.6217   -1.4328   -0.7053 C   0  0  0  0  0  0  0  0  0  0  0  0
   -0.8212   -1.8577    0.4718 O   0  0  0  0  0  0  0  0  0  0  0  0
    1.3875   -2.0356   -0.3662 H   0  0  0  0  0  0  0  0  0  0  0  0
    1.3692   -1.2291    1.2649 H   0  0  0  0  0  0  0  0  0  0  0  0
    2.8013   -1.0284    0.2407 H   0  0  0  0  0  0  0  0  0  0  0  0
    1.8221    1.0306   -0.3280 H   0  0  0  0  0  0  0  0  0  0  0  0
   -1.1814    1.2277   -1.7407 H   0  0  0  0  0  0  0  0  0  0  0  0
    0.3895    2.0889   -1.2174 H   0  0  0  0  0  0  0  0  0  0  0  0
   -0.8406    1.2556    2.0574 H   0  0  0  0  0  0  0  0  0  0  0  0
   -0.1825    2.5634    0.9362 H   0  0  0  0  0  0  0  0  0  0  0  0
    0.9052    1.3842    1.7811 H   0  0  0  0  0  0  0  0  0  0  0  0
   -2.0363   -0.2544    1.0933 H   0  0  0  0  0  0  0  0  0  0  0  0
   -2.6361   -1.8659   -0.7143 H   0  0  0  0  0  0  0  0  0  0  0  0
   -1.0233   -1.6348   -1.5948 H   0  0  0  0  0  0  0  0  0  0  0  0
  1  2  1  0
  2  3  1  0
  3  4  1  0
  4  5  1  0
  5  6  1  0
  5  7  1  0
  7  8  1  0
  8  9  1  0
  5  2  1  0
  9  7  1  0
  1 10  1  0
  1 11  1  0
  1 12  1  0
  2 13  1  0
  4 14  1  0
  4 15  1  0
  6 16  1  0
  6 17  1  0
  6 18  1  0
  7 19  1  0
  8 20  1  0
  8 21  1  0
M  END
