
     RDKit          3D

 21 22  0  0  0  0  0  0  0  0999 V2000
    2.3359    0.0001   -0.0743 C   0  0  0  0  0  0  0  0  0  0  0  0
    1.1420    0.4778    0.7000 C   0  0  0  0  0  0  0  0  0  0  0  0
    0.6521   -0.5226    1.5456 O   0  0  0  0  0  0  0  0  0  0  0  0
   -0.0347   -1.3517    0.6585 C   0  0  0  0  0  0  0  0  0  0  0  0
   -0.8809   -0.3851   -0.1172 C   0  0  0  0  0  0  0  0  0  0  0  0
   -2.3133   -0.3021    0.3052 C   0  0  0  0  0  0  0  0  0  0  0  0
   -0.3865    0.1666   -1.3871 C   0  0  0  0  0  0  0  0  0  0  0  0
   -0.0250    0.8583   -0.1348 C   0  0  0  0  0  0  0  0  0  0  0  0
   -0.5936    2.0914    0.1451 O   0  0  0  0  0  0  0  0  0  0  0  0
    2.9953   -0.5458    0.6493 H   0  0  0  0  0  0  0  0  0  0  0  0
    2.9528    0.8692   -0.4181 H   0  0  0  0  0  0  0  0  0  0  0  0
    2.0915   -0.6885   -0.8943 H   0  0  0  0  0  0  0  0  0  0  0  0
    1.4828    1.3312    1.3328 H   0  0  0  0  0  0  0  0  0  0  0  0
    0.7135   -1.8849    0.0333 H   0  0  0  0  0  0  0  0  0  0  0  0
   -0.6560   -2.1102    1.1754 H   0  0  0  0  0  0  0  0  0  0  0  0
   -2.7791   -1.2893    0.1583 H   0  0  0  0  0  0  0  0  0  0  0  0
   -2.8998    0.4149   -0.3164 H   0  0  0  0  0  0  0  0  0  0  0  0
   -2.3756   -0.0606    1.3946 H   0  0  0  0  0  0  0  0  0  0  0  0
   -1.1509    0.6900   -2.0118 H   0  0  0  0  0  0  0  0  0  0  0  0
    0.3810   -0.3325   -2.0092 H   0  0  0  0  0  0  0  0  0  0  0  0
   -0.6516    2.5737   -0.7349 H   0  0  0  0  0  0  0  0  0  0  0  0
  1  2  1  0
  2  3  1  0
  3  4  1  0
  4  5  1  0
  5  6  1  0
  5  7  1  0
  7  8  1  0
  8  9  1  0
  8  2  1  0
  8  5  1  0
  1 10  1  0
  1 11  1  0
  1 12  1  0
  2 13  1  0
  4 14  1  0
  4 15  1  0
  6 16  1  0
  6 17  1  0
  6 18  1  0
  7 19  1  0
  7 20  1  0
  9 21  1  0
M  END
