
     RDKit          3D

 19 21  0  0  0  0  0  0  0  0999 V2000
    2.2047    0.8294   -0.2052 C   0  0  0  0  0  0  0  0  0  0  0  0
    1.1986   -0.1945   -0.7501 C   0  0  0  0  0  0  0  0  0  0  0  0
    1.1985   -1.3344    0.0942 O   0  0  0  0  0  0  0  0  0  0  0  0
   -0.0545   -1.2725    0.6678 C   0  0  0  0  0  0  0  0  0  0  0  0
   -1.0262   -0.8707   -0.4120 C   0  0  0  0  0  0  0  0  0  0  0  0
   -1.7817   -0.1398    0.6527 C   0  0  0  0  0  0  0  0  0  0  0  0
   -2.4088    1.0069    0.1537 O   0  0  0  0  0  0  0  0  0  0  0  0
   -0.3450    0.1700    0.9675 C   0  0  0  0  0  0  0  0  0  0  0  0
   -0.1604    0.3471   -0.5078 C   0  0  0  0  0  0  0  0  0  0  0  0
    2.5881    1.4033   -1.0762 H   0  0  0  0  0  0  0  0  0  0  0  0
    1.6918    1.5813    0.4419 H   0  0  0  0  0  0  0  0  0  0  0  0
    3.0535    0.3481    0.2908 H   0  0  0  0  0  0  0  0  0  0  0  0
    1.4393   -0.4486   -1.7828 H   0  0  0  0  0  0  0  0  0  0  0  0
   -0.3528   -2.0221    1.3745 H   0  0  0  0  0  0  0  0  0  0  0  0
   -1.3797   -1.4406   -1.1504 H   0  0  0  0  0  0  0  0  0  0  0  0
   -2.3414   -0.7239    1.3782 H   0  0  0  0  0  0  0  0  0  0  0  0
   -3.0270    0.8104   -0.5664 H   0  0  0  0  0  0  0  0  0  0  0  0
    0.0152    0.7286    1.7104 H   0  0  0  0  0  0  0  0  0  0  0  0
   -0.5121    1.2220   -0.9939 H   0  0  0  0  0  0  0  0  0  0  0  0
  1  2  1  0
  2  3  1  0
  3  4  1  0
  4  5  1  0
  5  6  1  0
  6  7  1  0
  6  8  1  0
  8  9  1  0
  9  2  1  0
  8  4  1  0
  9  5  1  0
  1 10  1  0
  1 11  1  0
  1 12  1  0
  2 13  1  0
  4 14  1  0
  5 15  1  0
  6 16  1  0
  7 17  1  0
  8 18  1  0
  9 19  1  0
M  END
