
     RDKit          3D

 23 24  0  0  0  0  0  0  0  0999 V2000
    2.2599   -0.2651   -0.1575 C   0  0  0  0  0  0  0  0  0  0  0  0
    0.9366   -0.4002    0.6019 C   0  0  0  0  0  0  0  0  0  0  0  0
    0.4603   -1.6751    0.3178 O   0  0  0  0  0  0  0  0  0  0  0  0
   -0.7506   -1.5344   -0.3496 C   0  0  0  0  0  0  0  0  0  0  0  0
   -1.8029   -0.9970    0.5990 C   0  0  0  0  0  0  0  0  0  0  0  0
   -1.3251    0.4326    0.9005 C   0  0  0  0  0  0  0  0  0  0  0  0
   -0.0938    0.5652    0.0596 C   0  0  0  0  0  0  0  0  0  0  0  0
    0.3733    1.9111   -0.2379 C   0  0  0  0  0  0  0  0  0  0  0  0
   -0.5077   -0.2569   -1.1762 C   0  0  0  0  0  0  0  0  0  0  0  0
    3.0716   -0.6917    0.4851 H   0  0  0  0  0  0  0  0  0  0  0  0
    2.5168    0.7751   -0.3630 H   0  0  0  0  0  0  0  0  0  0  0  0
    2.2507   -0.9158   -1.0696 H   0  0  0  0  0  0  0  0  0  0  0  0
    1.1297   -0.2835    1.6713 H   0  0  0  0  0  0  0  0  0  0  0  0
   -1.0477   -2.3738   -0.9423 H   0  0  0  0  0  0  0  0  0  0  0  0
   -2.7554   -0.8684    0.0255 H   0  0  0  0  0  0  0  0  0  0  0  0
   -1.9210   -1.5899    1.5032 H   0  0  0  0  0  0  0  0  0  0  0  0
   -2.0970    1.1762    0.7087 H   0  0  0  0  0  0  0  0  0  0  0  0
   -1.0343    0.4271    1.9842 H   0  0  0  0  0  0  0  0  0  0  0  0
    0.7189    1.9541   -1.3113 H   0  0  0  0  0  0  0  0  0  0  0  0
    1.1942    2.2692    0.4113 H   0  0  0  0  0  0  0  0  0  0  0  0
   -0.4734    2.6333   -0.1846 H   0  0  0  0  0  0  0  0  0  0  0  0
    0.3275   -0.4056   -1.8590 H   0  0  0  0  0  0  0  0  0  0  0  0
   -1.4306    0.1134   -1.6168 H   0  0  0  0  0  0  0  0  0  0  0  0
  1  2  1  0
  2  3  1  0
  3  4  1  0
  4  5  1  0
  5  6  1  0
  6  7  1  0
  7  8  1  0
  7  9  1  0
  7  2  1  0
  9  4  1  0
  1 10  1  0
  1 11  1  0
  1 12  1  0
  2 13  1  0
  4 14  1  0
  5 15  1  0
  5 16  1  0
  6 17  1  0
  6 18  1  0
  8 19  1  0
  8 20  1  0
  8 21  1  0
  9 22  1  0
  9 23  1  0
M  END
