
     RDKit          3D

 19 20  0  0  0  0  0  0  0  0999 V2000
    1.9885    0.4570   -0.0913 C   0  0  0  0  0  0  0  0  0  0  0  0
    0.7809   -0.1168   -0.7908 C   0  0  0  0  0  0  0  0  0  0  0  0
    0.8173   -1.5135   -0.5406 O   0  0  0  0  0  0  0  0  0  0  0  0
   -0.2019   -1.6865    0.3477 C   0  0  0  0  0  0  0  0  0  0  0  0
   -1.3593   -0.9756   -0.3761 C   0  0  0  0  0  0  0  0  0  0  0  0
   -0.4739    0.2321   -0.0474 C   0  0  0  0  0  0  0  0  0  0  0  0
   -1.0345    1.5449   -0.0640 C   0  0  0  0  0  0  0  0  0  0  0  0
   -0.2229   -0.4771    1.2412 C   0  0  0  0  0  0  0  0  0  0  0  0
   -0.0972   -0.2265    2.4132 O   0  0  0  0  0  0  0  0  0  0  0  0
    1.7258    0.5608    0.9780 H   0  0  0  0  0  0  0  0  0  0  0  0
    2.3329    1.4054   -0.5057 H   0  0  0  0  0  0  0  0  0  0  0  0
    2.8275   -0.2907   -0.1262 H   0  0  0  0  0  0  0  0  0  0  0  0
    0.7506    0.0955   -1.8643 H   0  0  0  0  0  0  0  0  0  0  0  0
   -0.4173   -2.6310    0.7855 H   0  0  0  0  0  0  0  0  0  0  0  0
   -2.2683   -0.9386    0.2297 H   0  0  0  0  0  0  0  0  0  0  0  0
   -1.4425   -1.2090   -1.4357 H   0  0  0  0  0  0  0  0  0  0  0  0
   -0.7886    2.1346    0.8649 H   0  0  0  0  0  0  0  0  0  0  0  0
   -2.1633    1.5122   -0.0654 H   0  0  0  0  0  0  0  0  0  0  0  0
   -0.7539    2.1226   -0.9527 H   0  0  0  0  0  0  0  0  0  0  0  0
  1  2  1  0
  2  3  1  0
  3  4  1  0
  4  5  1  0
  5  6  1  0
  6  7  1  0
  6  8  1  0
  8  9  2  0
  6  2  1  0
  8  4  1  0
  1 10  1  0
  1 11  1  0
  1 12  1  0
  2 13  1  0
  4 14  1  0
  5 15  1  0
  5 16  1  0
  7 17  1  0
  7 18  1  0
  7 19  1  0
M  END
