
     RDKit          3D

 19 20  0  0  0  0  0  0  0  0999 V2000
   -2.1710    0.8909    0.1758 C   0  0  0  0  0  0  0  0  0  0  0  0
   -0.9682    0.1273   -0.3024 C   0  0  0  0  0  0  0  0  0  0  0  0
   -0.8853   -1.0917    0.3057 O   0  0  0  0  0  0  0  0  0  0  0  0
    0.3527   -1.6747    0.3348 C   0  0  0  0  0  0  0  0  0  0  0  0
    1.4910   -0.6954    0.1545 C   0  0  0  0  0  0  0  0  0  0  0  0
    1.3045    0.1913   -1.0531 C   0  0  0  0  0  0  0  0  0  0  0  0
    0.3011    0.9368   -0.1589 C   0  0  0  0  0  0  0  0  0  0  0  0
    1.1357    0.4868    0.9805 C   0  0  0  0  0  0  0  0  0  0  0  0
    1.4032    0.9003    2.0837 O   0  0  0  0  0  0  0  0  0  0  0  0
   -2.9163    1.0770   -0.6503 H   0  0  0  0  0  0  0  0  0  0  0  0
   -1.8960    1.8387    0.6832 H   0  0  0  0  0  0  0  0  0  0  0  0
   -2.7205    0.2829    0.9262 H   0  0  0  0  0  0  0  0  0  0  0  0
   -1.1037   -0.0254   -1.4136 H   0  0  0  0  0  0  0  0  0  0  0  0
    0.4557   -2.5756   -0.3043 H   0  0  0  0  0  0  0  0  0  0  0  0
    0.4900   -2.0636    1.3897 H   0  0  0  0  0  0  0  0  0  0  0  0
    2.4667   -1.1376    0.3065 H   0  0  0  0  0  0  0  0  0  0  0  0
    2.1833    0.8170   -1.2031 H   0  0  0  0  0  0  0  0  0  0  0  0
    0.8456   -0.2871   -1.9278 H   0  0  0  0  0  0  0  0  0  0  0  0
    0.2315    2.0023   -0.3271 H   0  0  0  0  0  0  0  0  0  0  0  0
  1  2  1  0
  2  3  1  0
  3  4  1  0
  4  5  1  0
  5  6  1  0
  6  7  1  0
  7  8  1  0
  8  9  2  0
  7  2  1  0
  8  5  1  0
  1 10  1  0
  1 11  1  0
  1 12  1  0
  2 13  1  0
  4 14  1  0
  4 15  1  0
  5 16  1  0
  6 17  1  0
  6 18  1  0
  7 19  1  0
M  END
