
     RDKit          3D

 21 22  0  0  0  0  0  0  0  0999 V2000
    2.3838   -0.6794    0.3353 C   0  0  0  0  0  0  0  0  0  0  0  0
    0.9747   -0.1586    0.6464 C   0  0  0  0  0  0  0  0  0  0  0  0
    0.9267    1.1535    0.3815 O   0  0  0  0  0  0  0  0  0  0  0  0
    0.0606    1.6212   -0.5442 C   0  0  0  0  0  0  0  0  0  0  0  0
   -1.3762    1.2522   -0.3429 C   0  0  0  0  0  0  0  0  0  0  0  0
   -1.5720   -0.1897   -0.6953 C   0  0  0  0  0  0  0  0  0  0  0  0
   -1.3789   -0.9943    0.5700 C   0  0  0  0  0  0  0  0  0  0  0  0
    0.0091   -1.0622   -0.0125 C   0  0  0  0  0  0  0  0  0  0  0  0
   -0.4029   -0.7102   -1.2656 O   0  0  0  0  0  0  0  0  0  0  0  0
    3.0569    0.1286    0.0142 H   0  0  0  0  0  0  0  0  0  0  0  0
    2.8424   -1.1798    1.1953 H   0  0  0  0  0  0  0  0  0  0  0  0
    2.3528   -1.4072   -0.5201 H   0  0  0  0  0  0  0  0  0  0  0  0
    0.8485   -0.2993    1.7629 H   0  0  0  0  0  0  0  0  0  0  0  0
    0.3379    1.3513   -1.6054 H   0  0  0  0  0  0  0  0  0  0  0  0
    0.1107    2.7434   -0.5333 H   0  0  0  0  0  0  0  0  0  0  0  0
   -2.0134    1.9153   -0.9394 H   0  0  0  0  0  0  0  0  0  0  0  0
   -1.6497    1.4261    0.7362 H   0  0  0  0  0  0  0  0  0  0  0  0
   -2.4484   -0.4558   -1.2870 H   0  0  0  0  0  0  0  0  0  0  0  0
   -1.9779   -1.9110    0.5260 H   0  0  0  0  0  0  0  0  0  0  0  0
   -1.4529   -0.4120    1.5166 H   0  0  0  0  0  0  0  0  0  0  0  0
    0.3683   -2.1320    0.0614 H   0  0  0  0  0  0  0  0  0  0  0  0
  1  2  1  0
  2  3  1  0
  3  4  1  0
  4  5  1  0
  5  6  1  0
  6  7  1  0
  7  8  1  0
  8  9  1  0
  8  2  1  0
  9  6  1  0
  1 10  1  0
  1 11  1  0
  1 12  1  0
  2 13  1  0
  4 14  1  0
  4 15  1  0
  5 16  1  0
  5 17  1  0
  6 18  1  0
  7 19  1  0
  7 20  1  0
  8 21  1  0
M  END
