
     RDKit          3D

 21 22  0  0  0  0  0  0  0  0999 V2000
    2.4744   -0.2135   -0.0380 C   0  0  0  0  0  0  0  0  0  0  0  0
    1.0246   -0.2203   -0.4180 C   0  0  0  0  0  0  0  0  0  0  0  0
    0.6174    0.9887   -0.9588 O   0  0  0  0  0  0  0  0  0  0  0  0
   -0.5188    1.4027   -0.2780 C   0  0  0  0  0  0  0  0  0  0  0  0
   -1.6490    0.4556   -0.5923 C   0  0  0  0  0  0  0  0  0  0  0  0
   -1.2499   -0.8632    0.0917 C   0  0  0  0  0  0  0  0  0  0  0  0
   -0.9843   -1.8286   -0.8690 O   0  0  0  0  0  0  0  0  0  0  0  0
    0.0981   -0.5077    0.7243 C   0  0  0  0  0  0  0  0  0  0  0  0
   -0.2203    0.9320    1.1595 C   0  0  0  0  0  0  0  0  0  0  0  0
    2.9767   -1.1961   -0.2111 H   0  0  0  0  0  0  0  0  0  0  0  0
    2.5897    0.1127    1.0011 H   0  0  0  0  0  0  0  0  0  0  0  0
    2.9939    0.5019   -0.7227 H   0  0  0  0  0  0  0  0  0  0  0  0
    0.8939   -1.0545   -1.1580 H   0  0  0  0  0  0  0  0  0  0  0  0
   -0.7426    2.4457   -0.3454 H   0  0  0  0  0  0  0  0  0  0  0  0
   -1.8439    0.3239   -1.6521 H   0  0  0  0  0  0  0  0  0  0  0  0
   -2.5792    0.8613   -0.1181 H   0  0  0  0  0  0  0  0  0  0  0  0
   -1.9974   -1.1524    0.8292 H   0  0  0  0  0  0  0  0  0  0  0  0
   -1.8058   -2.1825   -1.2678 H   0  0  0  0  0  0  0  0  0  0  0  0
    0.4300   -1.1494    1.4956 H   0  0  0  0  0  0  0  0  0  0  0  0
    0.6305    1.4372    1.5919 H   0  0  0  0  0  0  0  0  0  0  0  0
   -1.1380    0.9066    1.7359 H   0  0  0  0  0  0  0  0  0  0  0  0
  1  2  1  0
  2  3  1  0
  3  4  1  0
  4  5  1  0
  5  6  1  0
  6  7  1  0
  6  8  1  0
  8  9  1  0
  8  2  1  0
  9  4  1  0
  1 10  1  0
  1 11  1  0
  1 12  1  0
  2 13  1  0
  4 14  1  0
  5 15  1  0
  5 16  1  0
  6 17  1  0
  7 18  1  0
  8 19  1  0
  9 20  1  0
  9 21  1  0
M  END
