
     RDKit          3D

 23 24  0  0  0  0  0  0  0  0999 V2000
   -2.3800    0.8907   -0.2389 C   0  0  0  0  0  0  0  0  0  0  0  0
   -0.9009    1.0831   -0.3714 C   0  0  0  0  0  0  0  0  0  0  0  0
   -0.4692    0.8491   -1.7052 O   0  0  0  0  0  0  0  0  0  0  0  0
    0.4997   -0.1132   -1.5578 C   0  0  0  0  0  0  0  0  0  0  0  0
   -0.2003   -1.1276   -0.6563 C   0  0  0  0  0  0  0  0  0  0  0  0
   -0.0914    0.0331    0.3433 C   0  0  0  0  0  0  0  0  0  0  0  0
   -0.2303   -0.2154    1.7401 C   0  0  0  0  0  0  0  0  0  0  0  0
    1.2528    0.3038   -0.2878 C   0  0  0  0  0  0  0  0  0  0  0  0
    2.3789   -0.5471    0.1153 C   0  0  0  0  0  0  0  0  0  0  0  0
   -2.7576    1.6610    0.4625 H   0  0  0  0  0  0  0  0  0  0  0  0
   -2.9073    0.8926   -1.2157 H   0  0  0  0  0  0  0  0  0  0  0  0
   -2.5872   -0.1021    0.2330 H   0  0  0  0  0  0  0  0  0  0  0  0
   -0.5433    2.0710   -0.0121 H   0  0  0  0  0  0  0  0  0  0  0  0
    1.0649   -0.4688   -2.3748 H   0  0  0  0  0  0  0  0  0  0  0  0
    0.3717   -2.0121   -0.4033 H   0  0  0  0  0  0  0  0  0  0  0  0
   -1.2302   -1.3450   -0.9647 H   0  0  0  0  0  0  0  0  0  0  0  0
   -0.4924   -1.2944    1.9397 H   0  0  0  0  0  0  0  0  0  0  0  0
   -1.0960    0.3572    2.1819 H   0  0  0  0  0  0  0  0  0  0  0  0
    0.6836   -0.0356    2.3773 H   0  0  0  0  0  0  0  0  0  0  0  0
    1.5171    1.3663   -0.3845 H   0  0  0  0  0  0  0  0  0  0  0  0
    3.3267   -0.1025   -0.2153 H   0  0  0  0  0  0  0  0  0  0  0  0
    2.3623   -1.5887   -0.2489 H   0  0  0  0  0  0  0  0  0  0  0  0
    2.4284   -0.5553    1.2434 H   0  0  0  0  0  0  0  0  0  0  0  0
  1  2  1  0
  2  3  1  0
  3  4  1  0
  4  5  1  0
  5  6  1  0
  6  7  1  0
  6  8  1  0
  8  9  1  0
  6  2  1  0
  8  4  1  0
  1 10  1  0
  1 11  1  0
  1 12  1  0
  2 13  1  0
  4 14  1  0
  5 15  1  0
  5 16  1  0
  7 17  1  0
  7 18  1  0
  7 19  1  0
  8 20  1  0
  9 21  1  0
  9 22  1  0
  9 23  1  0
M  END
