
     RDKit          3D

 21 22  0  0  0  0  0  0  0  0999 V2000
   -1.9911    1.8296    0.4139 C   0  0  0  0  0  0  0  0  0  0  0  0
   -0.7457    1.1746   -0.0679 C   0  0  0  0  0  0  0  0  0  0  0  0
   -0.9522    0.2322   -1.0399 O   0  0  0  0  0  0  0  0  0  0  0  0
   -0.0681   -0.8254   -0.8075 C   0  0  0  0  0  0  0  0  0  0  0  0
   -0.8961   -1.9517   -0.2065 C   0  0  0  0  0  0  0  0  0  0  0  0
    0.8201   -0.2509    0.2563 C   0  0  0  0  0  0  0  0  0  0  0  0
    2.1243    0.4443   -0.1898 C   0  0  0  0  0  0  0  0  0  0  0  0
    2.0824   -0.7928    0.6628 C   0  0  0  0  0  0  0  0  0  0  0  0
   -0.0115    0.5615    0.9635 O   0  0  0  0  0  0  0  0  0  0  0  0
   -2.0130    2.0554    1.4918 H   0  0  0  0  0  0  0  0  0  0  0  0
   -2.1029    2.8084   -0.1166 H   0  0  0  0  0  0  0  0  0  0  0  0
   -2.9220    1.2538    0.1411 H   0  0  0  0  0  0  0  0  0  0  0  0
   -0.0486    1.9545   -0.4924 H   0  0  0  0  0  0  0  0  0  0  0  0
    0.4683   -1.1487   -1.7053 H   0  0  0  0  0  0  0  0  0  0  0  0
   -0.6297   -2.1231    0.8669 H   0  0  0  0  0  0  0  0  0  0  0  0
   -1.9763   -1.7348   -0.2181 H   0  0  0  0  0  0  0  0  0  0  0  0
   -0.7768   -2.9019   -0.8007 H   0  0  0  0  0  0  0  0  0  0  0  0
    2.3731    1.4117    0.2638 H   0  0  0  0  0  0  0  0  0  0  0  0
    2.3409    0.3780   -1.2699 H   0  0  0  0  0  0  0  0  0  0  0  0
    2.4592   -0.6758    1.6928 H   0  0  0  0  0  0  0  0  0  0  0  0
    2.4656   -1.6990    0.1616 H   0  0  0  0  0  0  0  0  0  0  0  0
  1  2  1  0
  2  3  1  0
  3  4  1  0
  4  5  1  0
  4  6  1  0
  6  7  1  0
  7  8  1  0
  6  9  1  0
  9  2  1  0
  8  6  1  0
  1 10  1  0
  1 11  1  0
  1 12  1  0
  2 13  1  0
  4 14  1  0
  5 15  1  0
  5 16  1  0
  5 17  1  0
  7 18  1  0
  7 19  1  0
  8 20  1  0
  8 21  1  0
M  END
