
     RDKit          3D

 12 12  0  0  0  0  0  0  0  0999 V2000
    1.6343   -0.0021   -0.1937 C   0  0  0  0  0  0  0  0  0  0  0  0
    0.2552    0.1782    0.3758 C   0  0  0  0  0  0  0  0  0  0  0  0
   -0.3616   -1.0858    0.4890 O   0  0  0  0  0  0  0  0  0  0  0  0
   -1.5627   -0.4408    0.2020 C   0  0  0  0  0  0  0  0  0  0  0  0
   -0.8000    0.5847   -0.5443 C   0  0  0  0  0  0  0  0  0  0  0  0
   -1.0632    1.3225   -1.4546 O   0  0  0  0  0  0  0  0  0  0  0  0
    1.6153    0.1395   -1.3026 H   0  0  0  0  0  0  0  0  0  0  0  0
    2.0260   -1.0233    0.0420 H   0  0  0  0  0  0  0  0  0  0  0  0
    2.3284    0.7264    0.2749 H   0  0  0  0  0  0  0  0  0  0  0  0
    0.2298    0.6466    1.3936 H   0  0  0  0  0  0  0  0  0  0  0  0
   -2.2811   -1.0390   -0.4122 H   0  0  0  0  0  0  0  0  0  0  0  0
   -2.0205   -0.0069    1.1300 H   0  0  0  0  0  0  0  0  0  0  0  0
  1  2  1  0
  2  3  1  0
  3  4  1  0
  4  5  1  0
  5  6  2  0
  5  2  1  0
  1  7  1  0
  1  8  1  0
  1  9  1  0
  2 10  1  0
  4 11  1  0
  4 12  1  0
M  END
