
     RDKit          3D

 17 17  0  0  0  0  0  0  0  0999 V2000
   -2.1662    0.9169   -1.3776 C   0  0  0  0  0  0  0  0  0  0  0  0
   -1.9722    1.5255   -0.0103 C   0  0  0  0  0  0  0  0  0  0  0  0
   -2.1721    0.7433    1.1136 O   0  0  0  0  0  0  0  0  0  0  0  0
   -0.8446    1.1711    0.8112 C   0  0  0  0  0  0  0  0  0  0  0  0
    0.1049    0.1213    0.4123 C   0  0  0  0  0  0  0  0  0  0  0  0
    0.8761   -0.7439    0.1053 C   0  0  0  0  0  0  0  0  0  0  0  0
    1.8365   -1.7845   -0.2633 C   0  0  0  0  0  0  0  0  0  0  0  0
    3.1956   -1.4839    0.2294 C   0  0  0  0  0  0  0  0  0  0  0  0
    3.3789   -0.4594    0.8586 O   0  0  0  0  0  0  0  0  0  0  0  0
   -1.4134    1.3554   -2.0646 H   0  0  0  0  0  0  0  0  0  0  0  0
   -3.1690    1.1828   -1.7799 H   0  0  0  0  0  0  0  0  0  0  0  0
   -2.1363   -0.1943   -1.3542 H   0  0  0  0  0  0  0  0  0  0  0  0
   -2.4037    2.5579    0.1070 H   0  0  0  0  0  0  0  0  0  0  0  0
   -0.4203    1.9387    1.4979 H   0  0  0  0  0  0  0  0  0  0  0  0
    1.8085   -1.9843   -1.3542 H   0  0  0  0  0  0  0  0  0  0  0  0
    1.4543   -2.7346    0.2114 H   0  0  0  0  0  0  0  0  0  0  0  0
    4.0430   -2.1280    0.0609 H   0  0  0  0  0  0  0  0  0  0  0  0
  1  2  1  0
  2  3  1  0
  3  4  1  0
  4  5  1  0
  5  6  3  0
  6  7  1  0
  7  8  1  0
  8  9  2  0
  4  2  1  0
  1 10  1  0
  1 11  1  0
  1 12  1  0
  2 13  1  0
  4 14  1  0
  7 15  1  0
  7 16  1  0
  8 17  1  0
M  END
