
     RDKit          3D

 23 23  0  0  0  0  0  0  0  0999 V2000
    0.2391    1.9516    0.8295 C   0  0  0  0  0  0  0  0  0  0  0  0
    0.4205    0.9122   -0.2717 C   0  0  0  0  0  0  0  0  0  0  0  0
    1.7241    0.5925   -0.3750 O   0  0  0  0  0  0  0  0  0  0  0  0
    2.1538   -0.6455   -0.1286 C   0  0  0  0  0  0  0  0  0  0  0  0
    1.2511   -1.6655   -0.0592 O   0  0  0  0  0  0  0  0  0  0  0  0
    0.1425   -1.4217   -0.8348 C   0  0  0  0  0  0  0  0  0  0  0  0
   -0.5372   -0.2273   -0.1438 C   0  0  0  0  0  0  0  0  0  0  0  0
   -0.8143   -0.6483    1.2609 C   0  0  0  0  0  0  0  0  0  0  0  0
   -1.8096    0.0223   -0.9403 C   0  0  0  0  0  0  0  0  0  0  0  0
   -0.7571    1.9165    1.2798 H   0  0  0  0  0  0  0  0  0  0  0  0
    1.0722    1.8580    1.5586 H   0  0  0  0  0  0  0  0  0  0  0  0
    0.3465    2.9961    0.4105 H   0  0  0  0  0  0  0  0  0  0  0  0
    0.1204    1.4550   -1.2194 H   0  0  0  0  0  0  0  0  0  0  0  0
    2.9168   -0.9331   -0.9130 H   0  0  0  0  0  0  0  0  0  0  0  0
    2.7504   -0.6720    0.8311 H   0  0  0  0  0  0  0  0  0  0  0  0
   -0.5437   -2.2840   -0.8899 H   0  0  0  0  0  0  0  0  0  0  0  0
    0.4644   -1.0603   -1.8236 H   0  0  0  0  0  0  0  0  0  0  0  0
   -0.3676   -1.6505    1.5194 H   0  0  0  0  0  0  0  0  0  0  0  0
   -0.4895    0.0403    2.0345 H   0  0  0  0  0  0  0  0  0  0  0  0
   -1.9255   -0.8225    1.3395 H   0  0  0  0  0  0  0  0  0  0  0  0
   -2.6733   -0.4858   -0.4629 H   0  0  0  0  0  0  0  0  0  0  0  0
   -1.9742    1.1154   -1.0111 H   0  0  0  0  0  0  0  0  0  0  0  0
   -1.7098   -0.3432   -1.9906 H   0  0  0  0  0  0  0  0  0  0  0  0
  1  2  1  0
  2  3  1  0
  3  4  1  0
  4  5  1  0
  5  6  1  0
  6  7  1  0
  7  8  1  0
  7  9  1  0
  7  2  1  0
  1 10  1  0
  1 11  1  0
  1 12  1  0
  2 13  1  0
  4 14  1  0
  4 15  1  0
  6 16  1  0
  6 17  1  0
  8 18  1  0
  8 19  1  0
  8 20  1  0
  9 21  1  0
  9 22  1  0
  9 23  1  0
M  END
