
     RDKit          3D

 17 18  0  0  0  0  0  0  0  0999 V2000
    1.9204   -0.2484    0.6218 C   0  0  0  0  0  0  0  0  0  0  0  0
    0.8950    0.3720   -0.2651 C   0  0  0  0  0  0  0  0  0  0  0  0
    0.5818   -0.4650   -1.3677 O   0  0  0  0  0  0  0  0  0  0  0  0
   -0.7866   -0.5635   -1.2749 C   0  0  0  0  0  0  0  0  0  0  0  0
   -0.9617   -0.9382    0.2096 C   0  0  0  0  0  0  0  0  0  0  0  0
   -0.4653    0.4966    0.3562 C   0  0  0  0  0  0  0  0  0  0  0  0
   -0.6613    1.1480    1.4839 O   0  0  0  0  0  0  0  0  0  0  0  0
   -1.2814    0.7652   -0.8477 C   0  0  0  0  0  0  0  0  0  0  0  0
   -1.9997    1.5902   -1.3231 O   0  0  0  0  0  0  0  0  0  0  0  0
    2.3108    0.5459    1.2950 H   0  0  0  0  0  0  0  0  0  0  0  0
    1.5642   -1.1176    1.1958 H   0  0  0  0  0  0  0  0  0  0  0  0
    2.7969   -0.5219   -0.0350 H   0  0  0  0  0  0  0  0  0  0  0  0
    1.2820    1.3332   -0.6389 H   0  0  0  0  0  0  0  0  0  0  0  0
   -1.3433   -1.1311   -1.9787 H   0  0  0  0  0  0  0  0  0  0  0  0
   -0.2661   -1.7153    0.5228 H   0  0  0  0  0  0  0  0  0  0  0  0
   -2.0183   -1.0533    0.4751 H   0  0  0  0  0  0  0  0  0  0  0  0
   -1.5674    1.5032    1.5708 H   0  0  0  0  0  0  0  0  0  0  0  0
  1  2  1  0
  2  3  1  0
  3  4  1  0
  4  5  1  0
  5  6  1  0
  6  7  1  0
  6  8  1  0
  8  9  2  0
  6  2  1  0
  8  4  1  0
  1 10  1  0
  1 11  1  0
  1 12  1  0
  2 13  1  0
  4 14  1  0
  5 15  1  0
  5 16  1  0
  7 17  1  0
M  END
