
     RDKit          3D

 19 19  0  0  0  0  0  0  0  0999 V2000
    2.3224    0.2297    0.2790 C   0  0  0  0  0  0  0  0  0  0  0  0
    1.1237   -0.5857    0.7058 C   0  0  0  0  0  0  0  0  0  0  0  0
    0.6833   -1.2774   -0.4397 O   0  0  0  0  0  0  0  0  0  0  0  0
    0.0228   -0.2213   -1.1110 C   0  0  0  0  0  0  0  0  0  0  0  0
   -0.8444    0.2636    0.0577 C   0  0  0  0  0  0  0  0  0  0  0  0
   -1.8306   -0.8604    0.3263 C   0  0  0  0  0  0  0  0  0  0  0  0
   -1.4795    1.5392   -0.2093 C   0  0  0  0  0  0  0  0  0  0  0  0
   -1.2041    2.5238    0.4356 O   0  0  0  0  0  0  0  0  0  0  0  0
    0.0735    0.2528    1.0744 O   0  0  0  0  0  0  0  0  0  0  0  0
    2.6750   -0.0399   -0.7469 H   0  0  0  0  0  0  0  0  0  0  0  0
    3.1653    0.0389    0.9575 H   0  0  0  0  0  0  0  0  0  0  0  0
    2.0419    1.3089    0.2126 H   0  0  0  0  0  0  0  0  0  0  0  0
    1.3508   -1.2775    1.5378 H   0  0  0  0  0  0  0  0  0  0  0  0
   -0.5722   -0.5714   -1.9540 H   0  0  0  0  0  0  0  0  0  0  0  0
    0.7477    0.5638   -1.3407 H   0  0  0  0  0  0  0  0  0  0  0  0
   -1.2032   -1.7351    0.6661 H   0  0  0  0  0  0  0  0  0  0  0  0
   -2.3340   -1.1676   -0.6058 H   0  0  0  0  0  0  0  0  0  0  0  0
   -2.5282   -0.6112    1.1458 H   0  0  0  0  0  0  0  0  0  0  0  0
   -2.2102    1.6268   -0.9913 H   0  0  0  0  0  0  0  0  0  0  0  0
  1  2  1  0
  2  3  1  0
  3  4  1  0
  4  5  1  0
  5  6  1  0
  5  7  1  0
  7  8  2  0
  5  9  1  0
  9  2  1  0
  1 10  1  0
  1 11  1  0
  1 12  1  0
  2 13  1  0
  4 14  1  0
  4 15  1  0
  6 16  1  0
  6 17  1  0
  6 18  1  0
  7 19  1  0
M  END
