
     RDKit          3D

 21 22  0  0  0  0  0  0  0  0999 V2000
   -1.5075    1.5250   -0.9569 C   0  0  0  0  0  0  0  0  0  0  0  0
   -1.3226    0.5237    0.1483 C   0  0  0  0  0  0  0  0  0  0  0  0
   -1.8390   -0.7495   -0.2158 O   0  0  0  0  0  0  0  0  0  0  0  0
   -1.0920   -1.7719    0.4098 C   0  0  0  0  0  0  0  0  0  0  0  0
    0.1872   -1.9210   -0.1862 O   0  0  0  0  0  0  0  0  0  0  0  0
    0.4423   -0.7399   -0.7874 C   0  0  0  0  0  0  0  0  0  0  0  0
    1.2554    0.3714   -0.4734 C   0  0  0  0  0  0  0  0  0  0  0  0
    2.6299    0.0900    0.1495 C   0  0  0  0  0  0  0  0  0  0  0  0
    0.1232    0.2769    0.3617 C   0  0  0  0  0  0  0  0  0  0  0  0
   -1.1918    1.1109   -1.9279 H   0  0  0  0  0  0  0  0  0  0  0  0
   -0.9448    2.4249   -0.6932 H   0  0  0  0  0  0  0  0  0  0  0  0
   -2.5692    1.8279   -1.0755 H   0  0  0  0  0  0  0  0  0  0  0  0
   -1.8584    0.8451    1.0549 H   0  0  0  0  0  0  0  0  0  0  0  0
   -1.0287   -1.6383    1.4908 H   0  0  0  0  0  0  0  0  0  0  0  0
   -1.6341   -2.7101    0.1721 H   0  0  0  0  0  0  0  0  0  0  0  0
   -0.1832   -0.6504   -1.7275 H   0  0  0  0  0  0  0  0  0  0  0  0
    1.3520    1.1990   -1.2200 H   0  0  0  0  0  0  0  0  0  0  0  0
    3.1760    1.0509    0.2938 H   0  0  0  0  0  0  0  0  0  0  0  0
    3.1824   -0.4935   -0.6259 H   0  0  0  0  0  0  0  0  0  0  0  0
    2.5277   -0.4833    1.0786 H   0  0  0  0  0  0  0  0  0  0  0  0
    0.2952   -0.0880    1.4179 H   0  0  0  0  0  0  0  0  0  0  0  0
  1  2  1  0
  2  3  1  0
  3  4  1  0
  4  5  1  0
  5  6  1  0
  6  7  1  0
  7  8  1  0
  7  9  1  0
  9  2  1  0
  9  6  1  0
  1 10  1  0
  1 11  1  0
  1 12  1  0
  2 13  1  0
  4 14  1  0
  4 15  1  0
  6 16  1  0
  7 17  1  0
  8 18  1  0
  8 19  1  0
  8 20  1  0
  9 21  1  0
M  END
