
     RDKit          3D

 19 20  0  0  0  0  0  0  0  0999 V2000
   -1.5817   -1.4018    0.5295 C   0  0  0  0  0  0  0  0  0  0  0  0
   -0.8132   -0.1239    0.8082 C   0  0  0  0  0  0  0  0  0  0  0  0
    0.4507   -0.4241    1.2121 O   0  0  0  0  0  0  0  0  0  0  0  0
    1.3613    0.0329    0.3061 C   0  0  0  0  0  0  0  0  0  0  0  0
    1.9248   -1.1316   -0.4335 C   0  0  0  0  0  0  0  0  0  0  0  0
    1.5783   -2.2533   -0.2060 O   0  0  0  0  0  0  0  0  0  0  0  0
    0.6707    0.9140   -0.6866 C   0  0  0  0  0  0  0  0  0  0  0  0
   -0.1628    2.0595   -0.2882 C   0  0  0  0  0  0  0  0  0  0  0  0
   -0.7622    0.7080   -0.4279 C   0  0  0  0  0  0  0  0  0  0  0  0
   -1.3322   -2.2037    1.2325 H   0  0  0  0  0  0  0  0  0  0  0  0
   -2.6826   -1.1709    0.6314 H   0  0  0  0  0  0  0  0  0  0  0  0
   -1.4622   -1.7291   -0.5283 H   0  0  0  0  0  0  0  0  0  0  0  0
   -1.3195    0.4325    1.6510 H   0  0  0  0  0  0  0  0  0  0  0  0
    2.2117    0.5555    0.8211 H   0  0  0  0  0  0  0  0  0  0  0  0
    2.6864   -0.9850   -1.2205 H   0  0  0  0  0  0  0  0  0  0  0  0
    1.0935    0.8988   -1.7298 H   0  0  0  0  0  0  0  0  0  0  0  0
   -0.3918    2.7933   -1.0864 H   0  0  0  0  0  0  0  0  0  0  0  0
   -0.0464    2.5354    0.7085 H   0  0  0  0  0  0  0  0  0  0  0  0
   -1.4229    0.4935   -1.2934 H   0  0  0  0  0  0  0  0  0  0  0  0
  1  2  1  0
  2  3  1  0
  3  4  1  0
  4  5  1  0
  5  6  2  0
  4  7  1  0
  7  8  1  0
  8  9  1  0
  9  2  1  0
  9  7  1  0
  1 10  1  0
  1 11  1  0
  1 12  1  0
  2 13  1  0
  4 14  1  0
  5 15  1  0
  7 16  1  0
  8 17  1  0
  8 18  1  0
  9 19  1  0
M  END
