
     RDKit          3D

 21 22  0  0  0  0  0  0  0  0999 V2000
   -2.5274    0.1648   -0.3091 C   0  0  0  0  0  0  0  0  0  0  0  0
   -1.1438   -0.4265   -0.4965 C   0  0  0  0  0  0  0  0  0  0  0  0
   -0.3867    0.2774   -1.4010 O   0  0  0  0  0  0  0  0  0  0  0  0
    0.7550    0.7491   -0.7588 C   0  0  0  0  0  0  0  0  0  0  0  0
    0.2085    1.0373    0.6534 C   0  0  0  0  0  0  0  0  0  0  0  0
   -0.3584   -0.3746    0.8125 C   0  0  0  0  0  0  0  0  0  0  0  0
    0.8836   -1.1926    0.5894 C   0  0  0  0  0  0  0  0  0  0  0  0
    1.6988   -0.3863   -0.4195 C   0  0  0  0  0  0  0  0  0  0  0  0
    2.7731    0.1531    0.2891 O   0  0  0  0  0  0  0  0  0  0  0  0
   -2.4536    1.2291    0.0138 H   0  0  0  0  0  0  0  0  0  0  0  0
   -3.0572    0.0459   -1.2682 H   0  0  0  0  0  0  0  0  0  0  0  0
   -3.0350   -0.3873    0.4984 H   0  0  0  0  0  0  0  0  0  0  0  0
   -1.2485   -1.4785   -0.7838 H   0  0  0  0  0  0  0  0  0  0  0  0
    1.2136    1.6053   -1.2153 H   0  0  0  0  0  0  0  0  0  0  0  0
    1.0546    1.2284    1.3109 H   0  0  0  0  0  0  0  0  0  0  0  0
   -0.5577    1.8006    0.6023 H   0  0  0  0  0  0  0  0  0  0  0  0
   -0.9163   -0.5490    1.6960 H   0  0  0  0  0  0  0  0  0  0  0  0
    0.5670   -2.1218    0.0606 H   0  0  0  0  0  0  0  0  0  0  0  0
    1.4408   -1.4311    1.4933 H   0  0  0  0  0  0  0  0  0  0  0  0
    2.0149   -0.9724   -1.2759 H   0  0  0  0  0  0  0  0  0  0  0  0
    3.0745    1.0290   -0.0917 H   0  0  0  0  0  0  0  0  0  0  0  0
  1  2  1  0
  2  3  1  0
  3  4  1  0
  4  5  1  0
  5  6  1  0
  6  7  1  0
  7  8  1  0
  8  9  1  0
  6  2  1  0
  8  4  1  0
  1 10  1  0
  1 11  1  0
  1 12  1  0
  2 13  1  0
  4 14  1  0
  5 15  1  0
  5 16  1  0
  6 17  1  0
  7 18  1  0
  7 19  1  0
  8 20  1  0
  9 21  1  0
M  END
