
     RDKit          3D

 21 22  0  0  0  0  0  0  0  0999 V2000
    2.2401    0.4441   -0.8707 C   0  0  0  0  0  0  0  0  0  0  0  0
    1.2617   -0.4145   -0.1722 C   0  0  0  0  0  0  0  0  0  0  0  0
    0.1088   -0.6916   -0.9515 O   0  0  0  0  0  0  0  0  0  0  0  0
   -0.9139   -0.3762   -0.0919 C   0  0  0  0  0  0  0  0  0  0  0  0
   -2.2977   -0.5672   -0.4592 C   0  0  0  0  0  0  0  0  0  0  0  0
   -0.4581   -0.8958    1.2842 C   0  0  0  0  0  0  0  0  0  0  0  0
    0.6412    0.1534    1.0465 C   0  0  0  0  0  0  0  0  0  0  0  0
   -0.4968    0.9818    0.4835 C   0  0  0  0  0  0  0  0  0  0  0  0
   -0.1715    1.9364   -0.4271 O   0  0  0  0  0  0  0  0  0  0  0  0
    3.2642   -0.0030   -0.7143 H   0  0  0  0  0  0  0  0  0  0  0  0
    2.3193    1.4800   -0.5001 H   0  0  0  0  0  0  0  0  0  0  0  0
    2.0389    0.4164   -1.9634 H   0  0  0  0  0  0  0  0  0  0  0  0
    1.6938   -1.4373    0.0370 H   0  0  0  0  0  0  0  0  0  0  0  0
   -2.3735   -1.3336   -1.2856 H   0  0  0  0  0  0  0  0  0  0  0  0
   -2.9437   -0.9707    0.3669 H   0  0  0  0  0  0  0  0  0  0  0  0
   -2.7395    0.3568   -0.8910 H   0  0  0  0  0  0  0  0  0  0  0  0
   -0.0668   -1.9232    1.2283 H   0  0  0  0  0  0  0  0  0  0  0  0
   -1.1523   -0.6578    2.0846 H   0  0  0  0  0  0  0  0  0  0  0  0
    1.1881    0.4971    1.8722 H   0  0  0  0  0  0  0  0  0  0  0  0
   -1.2109    1.3663    1.2436 H   0  0  0  0  0  0  0  0  0  0  0  0
    0.0685    1.6386   -1.3199 H   0  0  0  0  0  0  0  0  0  0  0  0
  1  2  1  0
  2  3  1  0
  3  4  1  0
  4  5  1  0
  4  6  1  0
  6  7  1  0
  7  8  1  0
  8  9  1  0
  7  2  1  0
  8  4  1  0
  1 10  1  0
  1 11  1  0
  1 12  1  0
  2 13  1  0
  5 14  1  0
  5 15  1  0
  5 16  1  0
  6 17  1  0
  6 18  1  0
  7 19  1  0
  8 20  1  0
  9 21  1  0
M  END
