
     RDKit          3D

 19 22  0  0  0  0  0  0  0  0999 V2000
   -2.3962    0.5789    0.2727 C   0  0  0  0  0  0  0  0  0  0  0  0
   -1.0796    0.2321   -0.3490 C   0  0  0  0  0  0  0  0  0  0  0  0
   -0.3640    1.3050   -0.8133 O   0  0  0  0  0  0  0  0  0  0  0  0
    0.9963    1.0290   -0.6233 C   0  0  0  0  0  0  0  0  0  0  0  0
    0.9643    0.3956    0.7419 C   0  0  0  0  0  0  0  0  0  0  0  0
   -0.2092   -0.5497    0.5931 C   0  0  0  0  0  0  0  0  0  0  0  0
    0.7534   -1.3825   -0.2760 C   0  0  0  0  0  0  0  0  0  0  0  0
    1.4099   -0.3552   -1.1440 C   0  0  0  0  0  0  0  0  0  0  0  0
    1.8454   -0.6574    0.2871 C   0  0  0  0  0  0  0  0  0  0  0  0
   -3.2727    0.2747   -0.3722 H   0  0  0  0  0  0  0  0  0  0  0  0
   -2.5411    1.6339    0.4981 H   0  0  0  0  0  0  0  0  0  0  0  0
   -2.5084   -0.0703    1.1895 H   0  0  0  0  0  0  0  0  0  0  0  0
   -1.3109   -0.4153   -1.2459 H   0  0  0  0  0  0  0  0  0  0  0  0
    1.6720    1.8363   -0.8068 H   0  0  0  0  0  0  0  0  0  0  0  0
    1.0753    0.9723    1.6121 H   0  0  0  0  0  0  0  0  0  0  0  0
   -0.6176   -1.0154    1.4522 H   0  0  0  0  0  0  0  0  0  0  0  0
    0.5889   -2.3951   -0.5066 H   0  0  0  0  0  0  0  0  0  0  0  0
    2.1627   -0.5073   -1.8690 H   0  0  0  0  0  0  0  0  0  0  0  0
    2.8314   -0.9097    0.5460 H   0  0  0  0  0  0  0  0  0  0  0  0
  1  2  1  0
  2  3  1  0
  3  4  1  0
  4  5  1  0
  5  6  1  0
  6  7  1  0
  7  8  1  0
  8  9  1  0
  6  2  1  0
  9  7  1  0
  8  4  1  0
  9  5  1  0
  1 10  1  0
  1 11  1  0
  1 12  1  0
  2 13  1  0
  4 14  1  0
  5 15  1  0
  6 16  1  0
  7 17  1  0
  8 18  1  0
  9 19  1  0
M  END
