
     RDKit          3D

 19 19  0  0  0  0  0  0  0  0999 V2000
    2.1686    0.5687    0.0096 C   0  0  0  0  0  0  0  0  0  0  0  0
    1.0640   -0.3441   -0.4626 C   0  0  0  0  0  0  0  0  0  0  0  0
    0.8504   -1.4055    0.4441 O   0  0  0  0  0  0  0  0  0  0  0  0
   -0.5062   -1.6183    0.6498 C   0  0  0  0  0  0  0  0  0  0  0  0
   -0.9620   -2.3469    1.5695 O   0  0  0  0  0  0  0  0  0  0  0  0
   -1.2302   -0.8417   -0.3926 C   0  0  0  0  0  0  0  0  0  0  0  0
   -2.4864   -0.4519   -0.0031 O   0  0  0  0  0  0  0  0  0  0  0  0
   -0.2714    0.3462   -0.5446 C   0  0  0  0  0  0  0  0  0  0  0  0
   -0.5274    1.2568    0.6305 C   0  0  0  0  0  0  0  0  0  0  0  0
    1.9854    0.9457    1.0328 H   0  0  0  0  0  0  0  0  0  0  0  0
    3.1146   -0.0142   -0.0632 H   0  0  0  0  0  0  0  0  0  0  0  0
    2.1634    1.4487   -0.6606 H   0  0  0  0  0  0  0  0  0  0  0  0
    1.3464   -0.6986   -1.4792 H   0  0  0  0  0  0  0  0  0  0  0  0
   -1.2126   -1.3637   -1.3656 H   0  0  0  0  0  0  0  0  0  0  0  0
   -3.1983   -0.6973   -0.6707 H   0  0  0  0  0  0  0  0  0  0  0  0
   -0.3739    0.8442   -1.5052 H   0  0  0  0  0  0  0  0  0  0  0  0
   -0.1090    2.2582    0.5146 H   0  0  0  0  0  0  0  0  0  0  0  0
   -1.6304    1.3582    0.7336 H   0  0  0  0  0  0  0  0  0  0  0  0
   -0.1849    0.7554    1.5626 H   0  0  0  0  0  0  0  0  0  0  0  0
  1  2  1  0
  2  3  1  0
  3  4  1  0
  4  5  2  0
  4  6  1  0
  6  7  1  0
  6  8  1  0
  8  9  1  0
  8  2  1  0
  1 10  1  0
  1 11  1  0
  1 12  1  0
  2 13  1  0
  6 14  1  0
  7 15  1  0
  8 16  1  0
  9 17  1  0
  9 18  1  0
  9 19  1  0
M  END
