
     RDKit          3D

 19 20  0  0  0  0  0  0  0  0999 V2000
    2.3235   -0.4113    0.0974 C   0  0  0  0  0  0  0  0  0  0  0  0
    1.0060    0.2703    0.2078 C   0  0  0  0  0  0  0  0  0  0  0  0
    0.4842    0.6723   -1.0285 O   0  0  0  0  0  0  0  0  0  0  0  0
   -0.6933    1.3784   -0.6838 C   0  0  0  0  0  0  0  0  0  0  0  0
   -1.5110    0.5793    0.2927 C   0  0  0  0  0  0  0  0  0  0  0  0
   -0.9062    0.4013    1.5145 O   0  0  0  0  0  0  0  0  0  0  0  0
   -0.0576   -0.5442    0.8902 C   0  0  0  0  0  0  0  0  0  0  0  0
   -1.2119   -0.8948    0.0134 C   0  0  0  0  0  0  0  0  0  0  0  0
   -0.9723   -1.1157   -1.3115 O   0  0  0  0  0  0  0  0  0  0  0  0
    3.1482    0.3553    0.0598 H   0  0  0  0  0  0  0  0  0  0  0  0
    2.4915   -0.9697    1.0614 H   0  0  0  0  0  0  0  0  0  0  0  0
    2.3933   -1.1342   -0.7224 H   0  0  0  0  0  0  0  0  0  0  0  0
    1.1784    1.2350    0.7714 H   0  0  0  0  0  0  0  0  0  0  0  0
   -0.4320    2.3728   -0.2532 H   0  0  0  0  0  0  0  0  0  0  0  0
   -1.2871    1.4635   -1.6159 H   0  0  0  0  0  0  0  0  0  0  0  0
   -2.5722    0.8451    0.2962 H   0  0  0  0  0  0  0  0  0  0  0  0
    0.3077   -1.3366    1.5647 H   0  0  0  0  0  0  0  0  0  0  0  0
   -1.9203   -1.5456    0.5203 H   0  0  0  0  0  0  0  0  0  0  0  0
   -1.7689   -1.6211   -1.6743 H   0  0  0  0  0  0  0  0  0  0  0  0
  1  2  1  0
  2  3  1  0
  3  4  1  0
  4  5  1  0
  5  6  1  0
  6  7  1  0
  7  8  1  0
  8  9  1  0
  7  2  1  0
  8  5  1  0
  1 10  1  0
  1 11  1  0
  1 12  1  0
  2 13  1  0
  4 14  1  0
  4 15  1  0
  5 16  1  0
  7 17  1  0
  8 18  1  0
  9 19  1  0
M  END
