
     RDKit          3D

 18 19  0  0  0  0  0  0  0  0999 V2000
   -2.2386    0.2313   -0.2754 C   0  0  0  0  0  0  0  0  0  0  0  0
   -0.8474    0.4298    0.3067 C   0  0  0  0  0  0  0  0  0  0  0  0
   -0.1714    1.3735   -0.4570 O   0  0  0  0  0  0  0  0  0  0  0  0
    1.1876    1.1200   -0.5417 C   0  0  0  0  0  0  0  0  0  0  0  0
    1.4617   -0.3605   -0.5717 C   0  0  0  0  0  0  0  0  0  0  0  0
    1.2298   -0.8772    0.8470 C   0  0  0  0  0  0  0  0  0  0  0  0
   -0.1660   -0.9087    0.3193 C   0  0  0  0  0  0  0  0  0  0  0  0
    0.3652   -1.1122   -0.9623 O   0  0  0  0  0  0  0  0  0  0  0  0
   -3.0366    0.4886    0.4448 H   0  0  0  0  0  0  0  0  0  0  0  0
   -2.3875    0.8423   -1.2019 H   0  0  0  0  0  0  0  0  0  0  0  0
   -2.4188   -0.8314   -0.5630 H   0  0  0  0  0  0  0  0  0  0  0  0
   -0.9554    0.8453    1.3314 H   0  0  0  0  0  0  0  0  0  0  0  0
    1.6659    1.4978    0.4098 H   0  0  0  0  0  0  0  0  0  0  0  0
    1.6120    1.6643   -1.3972 H   0  0  0  0  0  0  0  0  0  0  0  0
    2.4325   -0.6708   -0.9561 H   0  0  0  0  0  0  0  0  0  0  0  0
    1.4563   -0.1659    1.6460 H   0  0  0  0  0  0  0  0  0  0  0  0
    1.6467   -1.8832    0.9306 H   0  0  0  0  0  0  0  0  0  0  0  0
   -0.8360   -1.6828    0.6907 H   0  0  0  0  0  0  0  0  0  0  0  0
  1  2  1  0
  2  3  1  0
  3  4  1  0
  4  5  1  0
  5  6  1  0
  6  7  1  0
  7  8  1  0
  7  2  1  0
  8  5  1  0
  1  9  1  0
  1 10  1  0
  1 11  1  0
  2 12  1  0
  4 13  1  0
  4 14  1  0
  5 15  1  0
  6 16  1  0
  6 17  1  0
  7 18  1  0
M  END
