
     RDKit          3D

 19 19  0  0  0  0  0  0  0  0999 V2000
   -1.9776   -0.8624   -0.0068 C   0  0  0  0  0  0  0  0  0  0  0  0
   -0.7478   -0.1828    0.5262 C   0  0  0  0  0  0  0  0  0  0  0  0
   -1.1424    1.0706    1.0743 O   0  0  0  0  0  0  0  0  0  0  0  0
   -0.2711    2.0694    0.6939 C   0  0  0  0  0  0  0  0  0  0  0  0
   -0.3785    3.3213    0.8062 O   0  0  0  0  0  0  0  0  0  0  0  0
    0.9202    1.3868    0.0765 C   0  0  0  0  0  0  0  0  0  0  0  0
    0.2507    0.1715   -0.5350 C   0  0  0  0  0  0  0  0  0  0  0  0
    1.2669   -0.9198   -0.7801 C   0  0  0  0  0  0  0  0  0  0  0  0
    2.0000   -1.2107    0.3652 O   0  0  0  0  0  0  0  0  0  0  0  0
   -1.8036   -1.9427   -0.1786 H   0  0  0  0  0  0  0  0  0  0  0  0
   -2.7729   -0.7839    0.7679 H   0  0  0  0  0  0  0  0  0  0  0  0
   -2.3825   -0.3463   -0.9042 H   0  0  0  0  0  0  0  0  0  0  0  0
   -0.3386   -0.8002    1.3309 H   0  0  0  0  0  0  0  0  0  0  0  0
    1.4313    2.0182   -0.6521 H   0  0  0  0  0  0  0  0  0  0  0  0
    1.5992    1.0220    0.8975 H   0  0  0  0  0  0  0  0  0  0  0  0
   -0.2392    0.3968   -1.4874 H   0  0  0  0  0  0  0  0  0  0  0  0
    1.9903   -0.5258   -1.5252 H   0  0  0  0  0  0  0  0  0  0  0  0
    0.8088   -1.8148   -1.2333 H   0  0  0  0  0  0  0  0  0  0  0  0
    1.7868   -2.0671    0.7641 H   0  0  0  0  0  0  0  0  0  0  0  0
  1  2  1  0
  2  3  1  0
  3  4  1  0
  4  5  2  0
  4  6  1  0
  6  7  1  0
  7  8  1  0
  8  9  1  0
  7  2  1  0
  1 10  1  0
  1 11  1  0
  1 12  1  0
  2 13  1  0
  6 14  1  0
  6 15  1  0
  7 16  1  0
  8 17  1  0
  8 18  1  0
  9 19  1  0
M  END
