
     RDKit          3D

 23 24  0  0  0  0  0  0  0  0999 V2000
   -2.4376   -0.8069   -0.3240 C   0  0  0  0  0  0  0  0  0  0  0  0
   -1.1211   -0.6314    0.3466 C   0  0  0  0  0  0  0  0  0  0  0  0
   -0.1623   -1.5807   -0.0777 O   0  0  0  0  0  0  0  0  0  0  0  0
    0.9693   -1.1479    0.5811 C   0  0  0  0  0  0  0  0  0  0  0  0
    2.2433   -1.1294   -0.2189 C   0  0  0  0  0  0  0  0  0  0  0  0
    2.1141    0.3746   -0.4242 C   0  0  0  0  0  0  0  0  0  0  0  0
    0.9716    0.3649    0.5323 C   0  0  0  0  0  0  0  0  0  0  0  0
   -0.3884    0.6337   -0.1240 C   0  0  0  0  0  0  0  0  0  0  0  0
   -1.0270    1.8796    0.3723 C   0  0  0  0  0  0  0  0  0  0  0  0
   -3.1009   -1.3752    0.3929 H   0  0  0  0  0  0  0  0  0  0  0  0
   -2.3970   -1.2966   -1.3062 H   0  0  0  0  0  0  0  0  0  0  0  0
   -2.9242    0.2121   -0.3756 H   0  0  0  0  0  0  0  0  0  0  0  0
   -1.1444   -0.6857    1.4351 H   0  0  0  0  0  0  0  0  0  0  0  0
    1.0879   -1.5946    1.5831 H   0  0  0  0  0  0  0  0  0  0  0  0
    2.2381   -1.6376   -1.1818 H   0  0  0  0  0  0  0  0  0  0  0  0
    3.1491   -1.3613    0.3969 H   0  0  0  0  0  0  0  0  0  0  0  0
    1.7737    0.6684   -1.4434 H   0  0  0  0  0  0  0  0  0  0  0  0
    2.9642    0.9700   -0.0436 H   0  0  0  0  0  0  0  0  0  0  0  0
    1.1131    0.8653    1.5031 H   0  0  0  0  0  0  0  0  0  0  0  0
   -0.2509    0.5806   -1.2179 H   0  0  0  0  0  0  0  0  0  0  0  0
   -1.2351    2.5294   -0.5280 H   0  0  0  0  0  0  0  0  0  0  0  0
   -2.0328    1.7103    0.8256 H   0  0  0  0  0  0  0  0  0  0  0  0
   -0.4028    2.4583    1.0489 H   0  0  0  0  0  0  0  0  0  0  0  0
  1  2  1  0
  2  3  1  0
  3  4  1  0
  4  5  1  0
  5  6  1  0
  6  7  1  0
  7  8  1  0
  8  9  1  0
  8  2  1  0
  7  4  1  0
  1 10  1  0
  1 11  1  0
  1 12  1  0
  2 13  1  0
  4 14  1  0
  5 15  1  0
  5 16  1  0
  6 17  1  0
  6 18  1  0
  7 19  1  0
  8 20  1  0
  9 21  1  0
  9 22  1  0
  9 23  1  0
M  END
