
     RDKit          3D

 21 22  0  0  0  0  0  0  0  0999 V2000
    3.6916    0.2022    0.1611 C   0  0  0  0  0  0  0  0  0  0  0  0
    2.4833    0.2302   -0.7575 C   0  0  0  0  0  0  0  0  0  0  0  0
    2.0777   -1.0968   -1.1295 O   0  0  0  0  0  0  0  0  0  0  0  0
    1.2163   -0.3002   -0.2286 C   0  0  0  0  0  0  0  0  0  0  0  0
   -0.0621    0.0509   -0.9154 C   0  0  0  0  0  0  0  0  0  0  0  0
   -1.2696   -0.5632   -0.2623 C   0  0  0  0  0  0  0  0  0  0  0  0
   -1.5767   -0.2727    1.0554 O   0  0  0  0  0  0  0  0  0  0  0  0
   -2.3342    0.4372    0.1386 C   0  0  0  0  0  0  0  0  0  0  0  0
   -3.7310    0.0110   -0.1957 C   0  0  0  0  0  0  0  0  0  0  0  0
    4.5278   -0.2153   -0.4498 H   0  0  0  0  0  0  0  0  0  0  0  0
    3.5233   -0.5259    0.9830 H   0  0  0  0  0  0  0  0  0  0  0  0
    3.9709    1.1819    0.5322 H   0  0  0  0  0  0  0  0  0  0  0  0
    2.4926    0.9374   -1.5848 H   0  0  0  0  0  0  0  0  0  0  0  0
    1.2035   -0.7847    0.7662 H   0  0  0  0  0  0  0  0  0  0  0  0
   -0.1426    1.1786   -0.9560 H   0  0  0  0  0  0  0  0  0  0  0  0
   -0.0886   -0.2539   -1.9817 H   0  0  0  0  0  0  0  0  0  0  0  0
   -1.5486   -1.5515   -0.6320 H   0  0  0  0  0  0  0  0  0  0  0  0
   -2.0941    1.5061    0.0820 H   0  0  0  0  0  0  0  0  0  0  0  0
   -3.8025   -1.0309   -0.5594 H   0  0  0  0  0  0  0  0  0  0  0  0
   -4.0770    0.6597   -1.0398 H   0  0  0  0  0  0  0  0  0  0  0  0
   -4.4599    0.1997    0.6315 H   0  0  0  0  0  0  0  0  0  0  0  0
  1  2  1  0
  2  3  1  0
  3  4  1  0
  4  5  1  0
  5  6  1  0
  6  7  1  0
  7  8  1  0
  8  9  1  0
  4  2  1  0
  8  6  1  0
  1 10  1  0
  1 11  1  0
  1 12  1  0
  2 13  1  0
  4 14  1  0
  5 15  1  0
  5 16  1  0
  6 17  1  0
  8 18  1  0
  9 19  1  0
  9 20  1  0
  9 21  1  0
M  END
