
     RDKit          3D

 19 20  0  0  0  0  0  0  0  0999 V2000
    2.5496    0.7341   -0.9826 C   0  0  0  0  0  0  0  0  0  0  0  0
    1.0682    0.9393   -0.7602 C   0  0  0  0  0  0  0  0  0  0  0  0
    0.2738    0.0368   -1.5407 O   0  0  0  0  0  0  0  0  0  0  0  0
   -0.6752    0.2269   -0.5514 C   0  0  0  0  0  0  0  0  0  0  0  0
    0.5054    0.2104    0.3993 C   0  0  0  0  0  0  0  0  0  0  0  0
    0.1648   -0.4058    1.5055 C   0  0  0  0  0  0  0  0  0  0  0  0
   -1.2341   -0.9423    1.4318 C   0  0  0  0  0  0  0  0  0  0  0  0
   -1.4913   -0.9476   -0.0967 C   0  0  0  0  0  0  0  0  0  0  0  0
   -2.8482   -0.7010   -0.2769 O   0  0  0  0  0  0  0  0  0  0  0  0
    2.7362   -0.2062   -1.5252 H   0  0  0  0  0  0  0  0  0  0  0  0
    2.9930    0.5842    0.0435 H   0  0  0  0  0  0  0  0  0  0  0  0
    3.0255    1.6153   -1.4685 H   0  0  0  0  0  0  0  0  0  0  0  0
    0.7257    1.9805   -0.8250 H   0  0  0  0  0  0  0  0  0  0  0  0
   -1.2024    1.1881   -0.5913 H   0  0  0  0  0  0  0  0  0  0  0  0
    0.7887   -0.5241    2.3660 H   0  0  0  0  0  0  0  0  0  0  0  0
   -1.3450   -1.9556    1.8002 H   0  0  0  0  0  0  0  0  0  0  0  0
   -1.8865   -0.2077    1.9364 H   0  0  0  0  0  0  0  0  0  0  0  0
   -1.2007   -1.9095   -0.5338 H   0  0  0  0  0  0  0  0  0  0  0  0
   -2.9474    0.2843   -0.3305 H   0  0  0  0  0  0  0  0  0  0  0  0
  1  2  1  0
  2  3  1  0
  3  4  1  0
  4  5  1  0
  5  6  2  0
  6  7  1  0
  7  8  1  0
  8  9  1  0
  5  2  1  0
  8  4  1  0
  1 10  1  0
  1 11  1  0
  1 12  1  0
  2 13  1  0
  4 14  1  0
  6 15  1  0
  7 16  1  0
  7 17  1  0
  8 18  1  0
  9 19  1  0
M  END
