
     RDKit          3D

 23 24  0  0  0  0  0  0  0  0999 V2000
    2.3698    1.1003   -0.1246 C   0  0  0  0  0  0  0  0  0  0  0  0
    1.2435    0.4139    0.6209 C   0  0  0  0  0  0  0  0  0  0  0  0
    0.1281    1.2015    0.8620 O   0  0  0  0  0  0  0  0  0  0  0  0
   -0.6518    0.5272   -0.0803 C   0  0  0  0  0  0  0  0  0  0  0  0
   -0.9442    1.4401   -1.2400 C   0  0  0  0  0  0  0  0  0  0  0  0
   -1.8092   -0.2458    0.4628 C   0  0  0  0  0  0  0  0  0  0  0  0
   -1.2693   -1.5937    0.9192 C   0  0  0  0  0  0  0  0  0  0  0  0
    0.0884   -1.7492    0.3102 C   0  0  0  0  0  0  0  0  0  0  0  0
    0.4549   -0.4501   -0.3179 C   0  0  0  0  0  0  0  0  0  0  0  0
    3.2632    0.4291   -0.0080 H   0  0  0  0  0  0  0  0  0  0  0  0
    2.6093    2.0928    0.2622 H   0  0  0  0  0  0  0  0  0  0  0  0
    2.1414    1.1278   -1.2205 H   0  0  0  0  0  0  0  0  0  0  0  0
    1.5717   -0.0583    1.5681 H   0  0  0  0  0  0  0  0  0  0  0  0
   -0.8712    2.5205   -0.9416 H   0  0  0  0  0  0  0  0  0  0  0  0
   -0.1432    1.2799   -2.0019 H   0  0  0  0  0  0  0  0  0  0  0  0
   -1.9204    1.2892   -1.7013 H   0  0  0  0  0  0  0  0  0  0  0  0
   -2.5004   -0.4547   -0.3829 H   0  0  0  0  0  0  0  0  0  0  0  0
   -2.3768    0.2715    1.2526 H   0  0  0  0  0  0  0  0  0  0  0  0
   -1.2093   -1.6671    2.0225 H   0  0  0  0  0  0  0  0  0  0  0  0
   -1.9330   -2.4229    0.5596 H   0  0  0  0  0  0  0  0  0  0  0  0
    0.8704   -2.0631    1.0448 H   0  0  0  0  0  0  0  0  0  0  0  0
    0.1226   -2.5318   -0.4941 H   0  0  0  0  0  0  0  0  0  0  0  0
    0.7654   -0.4569   -1.3719 H   0  0  0  0  0  0  0  0  0  0  0  0
  1  2  1  0
  2  3  1  0
  3  4  1  0
  4  5  1  0
  4  6  1  0
  6  7  1  0
  7  8  1  0
  8  9  1  0
  9  2  1  0
  9  4  1  0
  1 10  1  0
  1 11  1  0
  1 12  1  0
  2 13  1  0
  5 14  1  0
  5 15  1  0
  5 16  1  0
  6 17  1  0
  6 18  1  0
  7 19  1  0
  7 20  1  0
  8 21  1  0
  8 22  1  0
  9 23  1  0
M  END
