
     RDKit          3D

 19 21  0  0  0  0  0  0  0  0999 V2000
    2.0323   -0.2812    0.2839 C   0  0  0  0  0  0  0  0  0  0  0  0
    0.6064   -0.2087    0.8387 C   0  0  0  0  0  0  0  0  0  0  0  0
    0.0794   -1.4597    1.0103 O   0  0  0  0  0  0  0  0  0  0  0  0
   -0.9258   -1.6610    0.0814 C   0  0  0  0  0  0  0  0  0  0  0  0
   -0.8065   -1.0246   -1.2608 C   0  0  0  0  0  0  0  0  0  0  0  0
    0.0281    0.0751   -1.4584 O   0  0  0  0  0  0  0  0  0  0  0  0
   -0.2239    0.5177   -0.1943 C   0  0  0  0  0  0  0  0  0  0  0  0
   -0.3927    1.9470    0.0801 C   0  0  0  0  0  0  0  0  0  0  0  0
   -1.4649   -0.3337   -0.1784 C   0  0  0  0  0  0  0  0  0  0  0  0
    2.7099   -0.4063    1.1332 H   0  0  0  0  0  0  0  0  0  0  0  0
    2.0382   -1.1300   -0.4253 H   0  0  0  0  0  0  0  0  0  0  0  0
    2.2410    0.6271   -0.3187 H   0  0  0  0  0  0  0  0  0  0  0  0
    0.6398    0.3536    1.7893 H   0  0  0  0  0  0  0  0  0  0  0  0
   -1.5852   -2.5036    0.1793 H   0  0  0  0  0  0  0  0  0  0  0  0
   -1.2711   -1.5417   -2.0930 H   0  0  0  0  0  0  0  0  0  0  0  0
   -0.8713    2.5400   -0.6876 H   0  0  0  0  0  0  0  0  0  0  0  0
    0.6220    2.3945    0.2881 H   0  0  0  0  0  0  0  0  0  0  0  0
   -1.0019    2.0667    1.0226 H   0  0  0  0  0  0  0  0  0  0  0  0
   -2.4539    0.0292   -0.0903 H   0  0  0  0  0  0  0  0  0  0  0  0
  1  2  1  0
  2  3  1  0
  3  4  1  0
  4  5  1  0
  5  6  1  0
  6  7  1  0
  7  8  1  0
  7  9  1  0
  7  2  1  0
  9  4  1  0
  9  5  1  0
  1 10  1  0
  1 11  1  0
  1 12  1  0
  2 13  1  0
  4 14  1  0
  5 15  1  0
  8 16  1  0
  8 17  1  0
  8 18  1  0
  9 19  1  0
M  END
