
     RDKit          3D

 15 15  0  0  0  0  0  0  0  0999 V2000
    2.0396   -0.1188   -0.0622 C   0  0  0  0  0  0  0  0  0  0  0  0
    0.6462    0.4126    0.1378 C   0  0  0  0  0  0  0  0  0  0  0  0
    0.0351    0.4429   -1.1162 O   0  0  0  0  0  0  0  0  0  0  0  0
   -1.3017    0.5386   -0.8245 C   0  0  0  0  0  0  0  0  0  0  0  0
   -1.5078   -0.5653    0.1958 C   0  0  0  0  0  0  0  0  0  0  0  0
   -0.2157   -0.4917    0.9264 C   0  0  0  0  0  0  0  0  0  0  0  0
    0.0341   -1.0743    1.9581 O   0  0  0  0  0  0  0  0  0  0  0  0
    2.6610    0.2013    0.7982 H   0  0  0  0  0  0  0  0  0  0  0  0
    2.4337    0.3410   -0.9931 H   0  0  0  0  0  0  0  0  0  0  0  0
    1.9740   -1.2240   -0.1523 H   0  0  0  0  0  0  0  0  0  0  0  0
    0.6449    1.4178    0.6070 H   0  0  0  0  0  0  0  0  0  0  0  0
   -1.9203    0.4191   -1.7169 H   0  0  0  0  0  0  0  0  0  0  0  0
   -1.4679    1.5043   -0.2962 H   0  0  0  0  0  0  0  0  0  0  0  0
   -2.3740   -0.2624    0.8132 H   0  0  0  0  0  0  0  0  0  0  0  0
   -1.6812   -1.5412   -0.2749 H   0  0  0  0  0  0  0  0  0  0  0  0
  1  2  1  0
  2  3  1  0
  3  4  1  0
  4  5  1  0
  5  6  1  0
  6  7  2  0
  6  2  1  0
  1  8  1  0
  1  9  1  0
  1 10  1  0
  2 11  1  0
  4 12  1  0
  4 13  1  0
  5 14  1  0
  5 15  1  0
M  END
