
     RDKit          3D

 23 24  0  0  0  0  0  0  0  0999 V2000
    2.8352   -0.5018    0.1596 C   0  0  0  0  0  0  0  0  0  0  0  0
    2.1565    0.5252   -0.6733 C   0  0  0  0  0  0  0  0  0  0  0  0
    1.6315    1.6010    0.2090 O   0  0  0  0  0  0  0  0  0  0  0  0
    0.7647    0.8069   -0.6638 C   0  0  0  0  0  0  0  0  0  0  0  0
   -0.2912    0.0594    0.0598 C   0  0  0  0  0  0  0  0  0  0  0  0
   -0.4165   -1.4048   -0.3368 C   0  0  0  0  0  0  0  0  0  0  0  0
   -0.7967    0.4229    1.3933 C   0  0  0  0  0  0  0  0  0  0  0  0
   -1.5947    0.8472    0.2532 C   0  0  0  0  0  0  0  0  0  0  0  0
   -2.8174    0.1154   -0.2271 C   0  0  0  0  0  0  0  0  0  0  0  0
    2.9626   -1.4723   -0.3594 H   0  0  0  0  0  0  0  0  0  0  0  0
    2.3482   -0.6900    1.1365 H   0  0  0  0  0  0  0  0  0  0  0  0
    3.8590   -0.1016    0.4137 H   0  0  0  0  0  0  0  0  0  0  0  0
    2.7922    0.9650   -1.4713 H   0  0  0  0  0  0  0  0  0  0  0  0
    0.3613    1.4812   -1.4719 H   0  0  0  0  0  0  0  0  0  0  0  0
    0.5897   -1.7643   -0.5591 H   0  0  0  0  0  0  0  0  0  0  0  0
   -1.1111   -1.4948   -1.2094 H   0  0  0  0  0  0  0  0  0  0  0  0
   -0.8592   -2.0018    0.4799 H   0  0  0  0  0  0  0  0  0  0  0  0
   -1.1647   -0.3981    2.0400 H   0  0  0  0  0  0  0  0  0  0  0  0
   -0.2759    1.2152    1.9981 H   0  0  0  0  0  0  0  0  0  0  0  0
   -1.5903    1.9216   -0.0005 H   0  0  0  0  0  0  0  0  0  0  0  0
   -3.7391    0.6281    0.1330 H   0  0  0  0  0  0  0  0  0  0  0  0
   -2.8345    0.1982   -1.3341 H   0  0  0  0  0  0  0  0  0  0  0  0
   -2.8094   -0.9576    0.0308 H   0  0  0  0  0  0  0  0  0  0  0  0
  1  2  1  0
  2  3  1  0
  3  4  1  0
  4  5  1  0
  5  6  1  0
  5  7  1  0
  7  8  1  0
  8  9  1  0
  4  2  1  0
  8  5  1  0
  1 10  1  0
  1 11  1  0
  1 12  1  0
  2 13  1  0
  4 14  1  0
  6 15  1  0
  6 16  1  0
  6 17  1  0
  7 18  1  0
  7 19  1  0
  8 20  1  0
  9 21  1  0
  9 22  1  0
  9 23  1  0
M  END
