
     RDKit          3D

 21 23  0  0  0  0  0  0  0  0999 V2000
    1.9734   -0.9122    0.4076 C   0  0  0  0  0  0  0  0  0  0  0  0
    1.3990    0.1912   -0.4449 C   0  0  0  0  0  0  0  0  0  0  0  0
    0.6474   -0.2773   -1.4913 O   0  0  0  0  0  0  0  0  0  0  0  0
   -0.6582    0.0970   -1.3228 C   0  0  0  0  0  0  0  0  0  0  0  0
   -1.3371   -0.9519   -0.4615 C   0  0  0  0  0  0  0  0  0  0  0  0
   -1.3682   -0.4078    0.9265 C   0  0  0  0  0  0  0  0  0  0  0  0
   -0.6791    0.9099    0.9480 C   0  0  0  0  0  0  0  0  0  0  0  0
    0.6013    1.1921    0.3210 C   0  0  0  0  0  0  0  0  0  0  0  0
   -0.6444    1.3400   -0.4608 C   0  0  0  0  0  0  0  0  0  0  0  0
    1.3424   -1.2126    1.2423 H   0  0  0  0  0  0  0  0  0  0  0  0
    2.0719   -1.8080   -0.2639 H   0  0  0  0  0  0  0  0  0  0  0  0
    3.0275   -0.6782    0.7145 H   0  0  0  0  0  0  0  0  0  0  0  0
    2.2886    0.7200   -0.8989 H   0  0  0  0  0  0  0  0  0  0  0  0
   -1.1554    0.2608   -2.2802 H   0  0  0  0  0  0  0  0  0  0  0  0
   -0.7909   -1.9342   -0.5164 H   0  0  0  0  0  0  0  0  0  0  0  0
   -2.3497   -1.1615   -0.8767 H   0  0  0  0  0  0  0  0  0  0  0  0
   -1.0111   -1.1246    1.7024 H   0  0  0  0  0  0  0  0  0  0  0  0
   -2.4536   -0.2176    1.1776 H   0  0  0  0  0  0  0  0  0  0  0  0
   -1.0483    1.6159    1.7118 H   0  0  0  0  0  0  0  0  0  0  0  0
    1.1729    2.0729    0.6957 H   0  0  0  0  0  0  0  0  0  0  0  0
   -1.0282    2.2860   -0.8297 H   0  0  0  0  0  0  0  0  0  0  0  0
  1  2  1  0
  2  3  1  0
  3  4  1  0
  4  5  1  0
  5  6  1  0
  6  7  1  0
  7  8  1  0
  8  9  1  0
  8  2  1  0
  9  4  1  0
  9  7  1  0
  1 10  1  0
  1 11  1  0
  1 12  1  0
  2 13  1  0
  4 14  1  0
  5 15  1  0
  5 16  1  0
  6 17  1  0
  6 18  1  0
  7 19  1  0
  8 20  1  0
  9 21  1  0
M  END
