
     RDKit          3D

 17 17  0  0  0  0  0  0  0  0999 V2000
   -2.1762    0.0771   -0.0162 C   0  0  0  0  0  0  0  0  0  0  0  0
   -0.7330    0.1906    0.4278 C   0  0  0  0  0  0  0  0  0  0  0  0
   -0.2538    1.4316   -0.1390 O   0  0  0  0  0  0  0  0  0  0  0  0
    1.1122    1.7034    0.1474 C   0  0  0  0  0  0  0  0  0  0  0  0
    1.5588    2.8447    0.2642 O   0  0  0  0  0  0  0  0  0  0  0  0
    1.9786    0.5423    0.2997 C   0  0  0  0  0  0  0  0  0  0  0  0
    1.5271   -0.6792    0.1777 C   0  0  0  0  0  0  0  0  0  0  0  0
    0.1105   -0.9278   -0.1240 C   0  0  0  0  0  0  0  0  0  0  0  0
   -0.0549   -0.9460   -1.5241 O   0  0  0  0  0  0  0  0  0  0  0  0
   -2.7443    0.8367    0.5967 H   0  0  0  0  0  0  0  0  0  0  0  0
   -2.5977   -0.9222    0.1859 H   0  0  0  0  0  0  0  0  0  0  0  0
   -2.1986    0.3353   -1.0901 H   0  0  0  0  0  0  0  0  0  0  0  0
   -0.6314    0.1907    1.5235 H   0  0  0  0  0  0  0  0  0  0  0  0
    3.0520    0.6500    0.5245 H   0  0  0  0  0  0  0  0  0  0  0  0
    2.1948   -1.5562    0.2975 H   0  0  0  0  0  0  0  0  0  0  0  0
   -0.2269   -1.8926    0.3149 H   0  0  0  0  0  0  0  0  0  0  0  0
    0.0829   -1.8783   -1.8666 H   0  0  0  0  0  0  0  0  0  0  0  0
  1  2  1  0
  2  3  1  0
  3  4  1  0
  4  5  2  0
  4  6  1  0
  6  7  2  0
  7  8  1  0
  8  9  1  0
  8  2  1  0
  1 10  1  0
  1 11  1  0
  1 12  1  0
  2 13  1  0
  6 14  1  0
  7 15  1  0
  8 16  1  0
  9 17  1  0
M  END
