
     RDKit          3D

 21 22  0  0  0  0  0  0  0  0999 V2000
    2.5611    0.7053    0.4727 C   0  0  0  0  0  0  0  0  0  0  0  0
    1.3424   -0.1760    0.6424 C   0  0  0  0  0  0  0  0  0  0  0  0
    0.1974    0.5969    0.6471 O   0  0  0  0  0  0  0  0  0  0  0  0
   -0.1680    0.0536   -0.5775 C   0  0  0  0  0  0  0  0  0  0  0  0
   -1.5739   -0.4431   -0.5372 C   0  0  0  0  0  0  0  0  0  0  0  0
   -2.6013    0.6635   -0.2140 C   0  0  0  0  0  0  0  0  0  0  0  0
   -2.3238   -0.3571    0.8322 C   0  0  0  0  0  0  0  0  0  0  0  0
    0.9245   -0.9404   -0.5832 C   0  0  0  0  0  0  0  0  0  0  0  0
    1.8386   -0.7996   -1.6450 O   0  0  0  0  0  0  0  0  0  0  0  0
    3.1026    0.5230   -0.4612 H   0  0  0  0  0  0  0  0  0  0  0  0
    3.1852    0.5600    1.3869 H   0  0  0  0  0  0  0  0  0  0  0  0
    2.2946    1.7941    0.4746 H   0  0  0  0  0  0  0  0  0  0  0  0
    1.3882   -0.8700    1.5123 H   0  0  0  0  0  0  0  0  0  0  0  0
   -0.0484    0.7766   -1.4278 H   0  0  0  0  0  0  0  0  0  0  0  0
   -1.9219   -1.2597   -1.1904 H   0  0  0  0  0  0  0  0  0  0  0  0
   -2.2537    1.6926   -0.1413 H   0  0  0  0  0  0  0  0  0  0  0  0
   -3.5592    0.5759   -0.8042 H   0  0  0  0  0  0  0  0  0  0  0  0
   -3.1184   -1.0959    1.0008 H   0  0  0  0  0  0  0  0  0  0  0  0
   -1.6524   -0.0815    1.6602 H   0  0  0  0  0  0  0  0  0  0  0  0
    0.6867   -1.9910   -0.4454 H   0  0  0  0  0  0  0  0  0  0  0  0
    1.6996    0.0728   -2.1113 H   0  0  0  0  0  0  0  0  0  0  0  0
  1  2  1  0
  2  3  1  0
  3  4  1  0
  4  5  1  0
  5  6  1  0
  6  7  1  0
  4  8  1  0
  8  9  1  0
  8  2  1  0
  7  5  1  0
  1 10  1  0
  1 11  1  0
  1 12  1  0
  2 13  1  0
  4 14  1  0
  5 15  1  0
  6 16  1  0
  6 17  1  0
  7 18  1  0
  7 19  1  0
  8 20  1  0
  9 21  1  0
M  END
