
     RDKit          3D

 19 21  0  0  0  0  0  0  0  0999 V2000
    2.5275   -0.0629   -0.1316 C   0  0  0  0  0  0  0  0  0  0  0  0
    1.2381    0.7556   -0.1099 C   0  0  0  0  0  0  0  0  0  0  0  0
    0.7427    1.3237    0.9341 O   0  0  0  0  0  0  0  0  0  0  0  0
    0.1906    0.1499    0.6561 C   0  0  0  0  0  0  0  0  0  0  0  0
   -0.5077   -0.6539   -0.3349 C   0  0  0  0  0  0  0  0  0  0  0  0
   -1.3420    0.3638   -1.0913 C   0  0  0  0  0  0  0  0  0  0  0  0
   -1.8223    1.1045    0.0184 O   0  0  0  0  0  0  0  0  0  0  0  0
   -1.2233    0.4445    1.0656 C   0  0  0  0  0  0  0  0  0  0  0  0
   -1.4898   -1.0401    0.7561 C   0  0  0  0  0  0  0  0  0  0  0  0
    3.2493    0.4310    0.5556 H   0  0  0  0  0  0  0  0  0  0  0  0
    2.9471   -0.1641   -1.1581 H   0  0  0  0  0  0  0  0  0  0  0  0
    2.3800   -1.1020    0.2295 H   0  0  0  0  0  0  0  0  0  0  0  0
    1.1202    1.3308   -1.0794 H   0  0  0  0  0  0  0  0  0  0  0  0
   -0.0427   -1.4382   -0.8926 H   0  0  0  0  0  0  0  0  0  0  0  0
   -0.7664    0.9764   -1.7818 H   0  0  0  0  0  0  0  0  0  0  0  0
   -2.1855   -0.1934   -1.5626 H   0  0  0  0  0  0  0  0  0  0  0  0
   -1.4453    0.7272    2.0782 H   0  0  0  0  0  0  0  0  0  0  0  0
   -2.4741   -1.2424    0.3297 H   0  0  0  0  0  0  0  0  0  0  0  0
   -1.0963   -1.7105    1.5188 H   0  0  0  0  0  0  0  0  0  0  0  0
  1  2  1  0
  2  3  1  0
  3  4  1  0
  4  5  1  0
  5  6  1  0
  6  7  1  0
  7  8  1  0
  8  9  1  0
  4  2  1  0
  9  5  1  0
  8  4  1  0
  1 10  1  0
  1 11  1  0
  1 12  1  0
  2 13  1  0
  5 14  1  0
  6 15  1  0
  6 16  1  0
  8 17  1  0
  9 18  1  0
  9 19  1  0
M  END
