
     RDKit          3D

 20 20  0  0  0  0  0  0  0  0999 V2000
    2.6155   -0.0286   -0.3699 C   0  0  0  0  0  0  0  0  0  0  0  0
    1.1977    0.4140   -0.2701 C   0  0  0  0  0  0  0  0  0  0  0  0
    0.7568    0.3234    1.1497 O   0  0  0  0  0  0  0  0  0  0  0  0
    0.0687   -0.3587    0.0970 C   0  0  0  0  0  0  0  0  0  0  0  0
    0.2224   -1.8791    0.1780 C   0  0  0  0  0  0  0  0  0  0  0  0
   -1.3155    0.0749   -0.2370 C   0  0  0  0  0  0  0  0  0  0  0  0
   -1.6954    1.4090    0.3593 C   0  0  0  0  0  0  0  0  0  0  0  0
   -3.0203    1.6706   -0.0474 O   0  0  0  0  0  0  0  0  0  0  0  0
    2.7882   -1.0997   -0.3174 H   0  0  0  0  0  0  0  0  0  0  0  0
    3.0193    0.3414   -1.3452 H   0  0  0  0  0  0  0  0  0  0  0  0
    3.2527    0.4488    0.4087 H   0  0  0  0  0  0  0  0  0  0  0  0
    1.0567    1.4879   -0.5755 H   0  0  0  0  0  0  0  0  0  0  0  0
   -0.6603   -2.4050   -0.2411 H   0  0  0  0  0  0  0  0  0  0  0  0
    0.2414   -2.1300    1.2592 H   0  0  0  0  0  0  0  0  0  0  0  0
    1.0997   -2.2426   -0.3593 H   0  0  0  0  0  0  0  0  0  0  0  0
   -2.0259   -0.6654    0.1868 H   0  0  0  0  0  0  0  0  0  0  0  0
   -1.4351    0.0754   -1.3249 H   0  0  0  0  0  0  0  0  0  0  0  0
   -1.7239    1.3653    1.4581 H   0  0  0  0  0  0  0  0  0  0  0  0
   -1.0601    2.2326    0.0465 H   0  0  0  0  0  0  0  0  0  0  0  0
   -3.3826    0.9659   -0.6212 H   0  0  0  0  0  0  0  0  0  0  0  0
  1  2  1  0
  2  3  1  0
  3  4  1  0
  4  5  1  0
  4  6  1  0
  6  7  1  0
  7  8  1  0
  4  2  1  0
  1  9  1  0
  1 10  1  0
  1 11  1  0
  2 12  1  0
  5 13  1  0
  5 14  1  0
  5 15  1  0
  6 16  1  0
  6 17  1  0
  7 18  1  0
  7 19  1  0
  8 20  1  0
M  END
