
     RDKit          3D

 19 21  0  0  0  0  0  0  0  0999 V2000
    2.3269   -0.7974    0.0686 C   0  0  0  0  0  0  0  0  0  0  0  0
    1.0729    0.0251   -0.2503 C   0  0  0  0  0  0  0  0  0  0  0  0
    0.7472    0.7144    0.8928 O   0  0  0  0  0  0  0  0  0  0  0  0
   -0.3627    1.5121    0.7882 C   0  0  0  0  0  0  0  0  0  0  0  0
   -1.6020    0.7858    0.3400 C   0  0  0  0  0  0  0  0  0  0  0  0
   -1.7431   -0.6629    0.3821 C   0  0  0  0  0  0  0  0  0  0  0  0
   -0.6220   -1.4363    0.5361 O   0  0  0  0  0  0  0  0  0  0  0  0
   -0.0835   -0.8650   -0.6298 C   0  0  0  0  0  0  0  0  0  0  0  0
   -1.2860   -0.0134   -0.8544 C   0  0  0  0  0  0  0  0  0  0  0  0
    2.1189   -1.4109    0.9623 H   0  0  0  0  0  0  0  0  0  0  0  0
    3.1136   -0.0755    0.3479 H   0  0  0  0  0  0  0  0  0  0  0  0
    2.6677   -1.3757   -0.8049 H   0  0  0  0  0  0  0  0  0  0  0  0
    1.3264    0.6546   -1.1149 H   0  0  0  0  0  0  0  0  0  0  0  0
   -0.1453    2.2698   -0.0175 H   0  0  0  0  0  0  0  0  0  0  0  0
   -0.5380    1.9915    1.7684 H   0  0  0  0  0  0  0  0  0  0  0  0
   -2.5112    1.4032    0.3312 H   0  0  0  0  0  0  0  0  0  0  0  0
   -2.7585   -1.0913    0.4180 H   0  0  0  0  0  0  0  0  0  0  0  0
    0.1159   -1.6375   -1.3794 H   0  0  0  0  0  0  0  0  0  0  0  0
   -1.8372    0.0095   -1.7844 H   0  0  0  0  0  0  0  0  0  0  0  0
  1  2  1  0
  2  3  1  0
  3  4  1  0
  4  5  1  0
  5  6  1  0
  6  7  1  0
  7  8  1  0
  8  9  1  0
  8  2  1  0
  9  5  1  0
  9  6  1  0
  1 10  1  0
  1 11  1  0
  1 12  1  0
  2 13  1  0
  4 14  1  0
  4 15  1  0
  5 16  1  0
  6 17  1  0
  8 18  1  0
  9 19  1  0
M  END
