
     RDKit          3D

 21 21  0  0  0  0  0  0  0  0999 V2000
   -2.3848   -0.4020    0.2383 C   0  0  0  0  0  0  0  0  0  0  0  0
   -1.0379   -0.4719   -0.3675 C   0  0  0  0  0  0  0  0  0  0  0  0
   -0.4376   -1.7316   -0.2874 O   0  0  0  0  0  0  0  0  0  0  0  0
    0.7862   -1.4597   -0.9124 C   0  0  0  0  0  0  0  0  0  0  0  0
    1.2476   -0.1249   -0.4216 C   0  0  0  0  0  0  0  0  0  0  0  0
    2.4389   -0.1631    0.4292 C   0  0  0  0  0  0  0  0  0  0  0  0
    3.2693    0.7223    0.3168 O   0  0  0  0  0  0  0  0  0  0  0  0
    0.0061    0.3642    0.3410 C   0  0  0  0  0  0  0  0  0  0  0  0
   -0.1538    1.8266    0.1270 C   0  0  0  0  0  0  0  0  0  0  0  0
   -2.5926   -1.1388    1.0160 H   0  0  0  0  0  0  0  0  0  0  0  0
   -2.5563    0.6562    0.5754 H   0  0  0  0  0  0  0  0  0  0  0  0
   -3.1394   -0.5944   -0.5811 H   0  0  0  0  0  0  0  0  0  0  0  0
   -1.0101   -0.1887   -1.4432 H   0  0  0  0  0  0  0  0  0  0  0  0
    1.5212   -2.2680   -0.7530 H   0  0  0  0  0  0  0  0  0  0  0  0
    0.5391   -1.4290   -2.0112 H   0  0  0  0  0  0  0  0  0  0  0  0
    1.3708    0.5559   -1.2780 H   0  0  0  0  0  0  0  0  0  0  0  0
    2.6239   -0.9347    1.1535 H   0  0  0  0  0  0  0  0  0  0  0  0
    0.0900    0.1304    1.4058 H   0  0  0  0  0  0  0  0  0  0  0  0
    0.8412    2.2832   -0.0753 H   0  0  0  0  0  0  0  0  0  0  0  0
   -0.8908    2.0161   -0.6720 H   0  0  0  0  0  0  0  0  0  0  0  0
   -0.5308    2.3520    1.0478 H   0  0  0  0  0  0  0  0  0  0  0  0
  1  2  1  0
  2  3  1  0
  3  4  1  0
  4  5  1  0
  5  6  1  0
  6  7  2  0
  5  8  1  0
  8  9  1  0
  8  2  1  0
  1 10  1  0
  1 11  1  0
  1 12  1  0
  2 13  1  0
  4 14  1  0
  4 15  1  0
  5 16  1  0
  6 17  1  0
  8 18  1  0
  9 19  1  0
  9 20  1  0
  9 21  1  0
M  END
