
     RDKit          3D

 21 22  0  0  0  0  0  0  0  0999 V2000
    2.0173   -0.7091   -0.6256 C   0  0  0  0  0  0  0  0  0  0  0  0
    0.9333   -0.6554    0.4000 C   0  0  0  0  0  0  0  0  0  0  0  0
    1.2086    0.3166    1.3672 O   0  0  0  0  0  0  0  0  0  0  0  0
    0.8164    1.5120    0.7520 C   0  0  0  0  0  0  0  0  0  0  0  0
   -0.5620    1.1442    0.2375 C   0  0  0  0  0  0  0  0  0  0  0  0
   -0.6372    0.6989   -1.1684 C   0  0  0  0  0  0  0  0  0  0  0  0
   -0.4163   -0.3426   -0.1559 C   0  0  0  0  0  0  0  0  0  0  0  0
   -1.5945   -1.2408    0.2283 C   0  0  0  0  0  0  0  0  0  0  0  0
   -2.7203   -0.7421   -0.4118 O   0  0  0  0  0  0  0  0  0  0  0  0
    2.7271    0.1179   -0.4570 H   0  0  0  0  0  0  0  0  0  0  0  0
    2.6213   -1.6557   -0.5746 H   0  0  0  0  0  0  0  0  0  0  0  0
    1.6254   -0.6054   -1.6558 H   0  0  0  0  0  0  0  0  0  0  0  0
    0.8672   -1.6311    0.9396 H   0  0  0  0  0  0  0  0  0  0  0  0
    0.7723    2.3540    1.4401 H   0  0  0  0  0  0  0  0  0  0  0  0
    1.5127    1.7551   -0.0892 H   0  0  0  0  0  0  0  0  0  0  0  0
   -1.4307    1.4421    0.8236 H   0  0  0  0  0  0  0  0  0  0  0  0
   -1.6397    0.7294   -1.6299 H   0  0  0  0  0  0  0  0  0  0  0  0
    0.1598    1.0606   -1.8415 H   0  0  0  0  0  0  0  0  0  0  0  0
   -1.3953   -2.2388   -0.1547 H   0  0  0  0  0  0  0  0  0  0  0  0
   -1.6954   -1.2307    1.3410 H   0  0  0  0  0  0  0  0  0  0  0  0
   -3.1701   -0.0790    0.2007 H   0  0  0  0  0  0  0  0  0  0  0  0
  1  2  1  0
  2  3  1  0
  3  4  1  0
  4  5  1  0
  5  6  1  0
  6  7  1  0
  7  8  1  0
  8  9  1  0
  7  2  1  0
  7  5  1  0
  1 10  1  0
  1 11  1  0
  1 12  1  0
  2 13  1  0
  4 14  1  0
  4 15  1  0
  5 16  1  0
  6 17  1  0
  6 18  1  0
  8 19  1  0
  8 20  1  0
  9 21  1  0
M  END
