
     RDKit          3D

 23 23  0  0  0  0  0  0  0  0999 V2000
    2.6554   -0.4800   -0.1019 C   0  0  0  0  0  0  0  0  0  0  0  0
    1.1504   -0.4480   -0.3026 C   0  0  0  0  0  0  0  0  0  0  0  0
    0.5104   -1.5278    0.2605 O   0  0  0  0  0  0  0  0  0  0  0  0
   -0.7651   -1.6034   -0.2998 C   0  0  0  0  0  0  0  0  0  0  0  0
   -1.6822   -0.7813    0.5619 C   0  0  0  0  0  0  0  0  0  0  0  0
   -1.8784    0.6164    0.0762 C   0  0  0  0  0  0  0  0  0  0  0  0
   -0.6740    1.2672   -0.4877 C   0  0  0  0  0  0  0  0  0  0  0  0
    0.6197    0.8824    0.1443 C   0  0  0  0  0  0  0  0  0  0  0  0
    0.5317    1.0047    1.5230 O   0  0  0  0  0  0  0  0  0  0  0  0
    3.0865    0.1027   -0.9520 H   0  0  0  0  0  0  0  0  0  0  0  0
    3.0722   -1.4971   -0.1553 H   0  0  0  0  0  0  0  0  0  0  0  0
    2.9689   -0.0092    0.8448 H   0  0  0  0  0  0  0  0  0  0  0  0
    0.9584   -0.5069   -1.4133 H   0  0  0  0  0  0  0  0  0  0  0  0
   -0.8124   -1.1880   -1.3229 H   0  0  0  0  0  0  0  0  0  0  0  0
   -1.1372   -2.6574   -0.3387 H   0  0  0  0  0  0  0  0  0  0  0  0
   -2.6881   -1.2807    0.5475 H   0  0  0  0  0  0  0  0  0  0  0  0
   -1.3603   -0.8380    1.6349 H   0  0  0  0  0  0  0  0  0  0  0  0
   -2.6649    0.5789   -0.7277 H   0  0  0  0  0  0  0  0  0  0  0  0
   -2.2771    1.2145    0.9356 H   0  0  0  0  0  0  0  0  0  0  0  0
   -0.7908    2.3804   -0.3466 H   0  0  0  0  0  0  0  0  0  0  0  0
   -0.5564    1.1403   -1.5950 H   0  0  0  0  0  0  0  0  0  0  0  0
    1.3869    1.6473   -0.1797 H   0  0  0  0  0  0  0  0  0  0  0  0
    0.3462    1.9831    1.6946 H   0  0  0  0  0  0  0  0  0  0  0  0
  1  2  1  0
  2  3  1  0
  3  4  1  0
  4  5  1  0
  5  6  1  0
  6  7  1  0
  7  8  1  0
  8  9  1  0
  8  2  1  0
  1 10  1  0
  1 11  1  0
  1 12  1  0
  2 13  1  0
  4 14  1  0
  4 15  1  0
  5 16  1  0
  5 17  1  0
  6 18  1  0
  6 19  1  0
  7 20  1  0
  7 21  1  0
  8 22  1  0
  9 23  1  0
M  END
