
     RDKit          3D

 17 18  0  0  0  0  0  0  0  0999 V2000
    1.9914   -0.1494   -0.0980 C   0  0  0  0  0  0  0  0  0  0  0  0
    0.6350   -0.7239   -0.3820 C   0  0  0  0  0  0  0  0  0  0  0  0
   -0.0110   -0.0369   -1.4442 O   0  0  0  0  0  0  0  0  0  0  0  0
   -1.0869    0.5441   -0.8129 C   0  0  0  0  0  0  0  0  0  0  0  0
   -1.6435   -0.5442    0.0965 C   0  0  0  0  0  0  0  0  0  0  0  0
   -0.2765   -0.3995    0.7463 C   0  0  0  0  0  0  0  0  0  0  0  0
   -0.4959    1.1021    0.4941 C   0  0  0  0  0  0  0  0  0  0  0  0
    2.2247    0.5581   -0.9363 H   0  0  0  0  0  0  0  0  0  0  0  0
    2.7886   -0.9249   -0.0625 H   0  0  0  0  0  0  0  0  0  0  0  0
    2.0375    0.4535    0.8250 H   0  0  0  0  0  0  0  0  0  0  0  0
    0.7218   -1.7806   -0.6367 H   0  0  0  0  0  0  0  0  0  0  0  0
   -1.7687    1.1619   -1.3392 H   0  0  0  0  0  0  0  0  0  0  0  0
   -1.7370   -1.5334   -0.3440 H   0  0  0  0  0  0  0  0  0  0  0  0
   -2.4547   -0.1998    0.7497 H   0  0  0  0  0  0  0  0  0  0  0  0
   -0.1223   -0.7264    1.7298 H   0  0  0  0  0  0  0  0  0  0  0  0
   -1.2376    1.5717    1.1320 H   0  0  0  0  0  0  0  0  0  0  0  0
    0.4351    1.6275    0.2824 H   0  0  0  0  0  0  0  0  0  0  0  0
  1  2  1  0
  2  3  1  0
  3  4  1  0
  4  5  1  0
  5  6  1  0
  6  7  1  0
  6  2  1  0
  7  4  1  0
  1  8  1  0
  1  9  1  0
  1 10  1  0
  2 11  1  0
  4 12  1  0
  5 13  1  0
  5 14  1  0
  6 15  1  0
  7 16  1  0
  7 17  1  0
M  END
