
     RDKit          3D

 23 23  0  0  0  0  0  0  0  0999 V2000
    2.4090   -1.0014    0.4755 C   0  0  0  0  0  0  0  0  0  0  0  0
    1.0265   -0.7157   -0.0664 C   0  0  0  0  0  0  0  0  0  0  0  0
   -0.0168   -1.1948    0.7203 O   0  0  0  0  0  0  0  0  0  0  0  0
   -0.7332   -0.0584    0.3525 C   0  0  0  0  0  0  0  0  0  0  0  0
   -1.5594    0.4118    1.5290 C   0  0  0  0  0  0  0  0  0  0  0  0
   -1.5350   -0.3301   -0.8927 C   0  0  0  0  0  0  0  0  0  0  0  0
   -2.4396   -1.3722   -0.6922 O   0  0  0  0  0  0  0  0  0  0  0  0
    0.5503    0.6723    0.1901 C   0  0  0  0  0  0  0  0  0  0  0  0
    0.6472    1.6419   -0.9479 C   0  0  0  0  0  0  0  0  0  0  0  0
    2.4652   -2.0685    0.7781 H   0  0  0  0  0  0  0  0  0  0  0  0
    2.6283   -0.3008    1.3044 H   0  0  0  0  0  0  0  0  0  0  0  0
    3.1233   -0.8405   -0.3604 H   0  0  0  0  0  0  0  0  0  0  0  0
    0.9652   -1.0639   -1.1231 H   0  0  0  0  0  0  0  0  0  0  0  0
   -1.7751    1.5102    1.4740 H   0  0  0  0  0  0  0  0  0  0  0  0
   -1.0820    0.2253    2.4926 H   0  0  0  0  0  0  0  0  0  0  0  0
   -2.4968   -0.1947    1.5119 H   0  0  0  0  0  0  0  0  0  0  0  0
   -2.1418    0.5598   -1.2000 H   0  0  0  0  0  0  0  0  0  0  0  0
   -0.8982   -0.5674   -1.7660 H   0  0  0  0  0  0  0  0  0  0  0  0
   -2.1765   -2.1741   -1.2423 H   0  0  0  0  0  0  0  0  0  0  0  0
    0.9260    1.0635    1.1451 H   0  0  0  0  0  0  0  0  0  0  0  0
    0.6119    1.1856   -1.9323 H   0  0  0  0  0  0  0  0  0  0  0  0
    1.6261    2.1726   -0.8443 H   0  0  0  0  0  0  0  0  0  0  0  0
   -0.1247    2.4394   -0.9059 H   0  0  0  0  0  0  0  0  0  0  0  0
  1  2  1  0
  2  3  1  0
  3  4  1  0
  4  5  1  0
  4  6  1  0
  6  7  1  0
  4  8  1  0
  8  9  1  0
  8  2  1  0
  1 10  1  0
  1 11  1  0
  1 12  1  0
  2 13  1  0
  5 14  1  0
  5 15  1  0
  5 16  1  0
  6 17  1  0
  6 18  1  0
  7 19  1  0
  8 20  1  0
  9 21  1  0
  9 22  1  0
  9 23  1  0
M  END
