
     RDKit          3D

 19 19  0  0  0  0  0  0  0  0999 V2000
   -2.5208   -0.0465   -0.2188 C   0  0  0  0  0  0  0  0  0  0  0  0
   -1.2415   -0.3039    0.5145 C   0  0  0  0  0  0  0  0  0  0  0  0
   -0.6657   -1.5581    0.1837 O   0  0  0  0  0  0  0  0  0  0  0  0
    0.7105   -1.4799    0.1764 C   0  0  0  0  0  0  0  0  0  0  0  0
    1.5134   -2.3946   -0.0939 O   0  0  0  0  0  0  0  0  0  0  0  0
    1.0639   -0.0994    0.5515 C   0  0  0  0  0  0  0  0  0  0  0  0
    2.3454    0.3886   -0.0113 C   0  0  0  0  0  0  0  0  0  0  0  0
   -0.1541    0.6426   -0.0163 C   0  0  0  0  0  0  0  0  0  0  0  0
   -0.1924    0.5477   -1.3915 O   0  0  0  0  0  0  0  0  0  0  0  0
   -3.0959    0.7430    0.2663 H   0  0  0  0  0  0  0  0  0  0  0  0
   -3.1285   -0.9850   -0.1556 H   0  0  0  0  0  0  0  0  0  0  0  0
   -2.2774    0.1514   -1.2725 H   0  0  0  0  0  0  0  0  0  0  0  0
   -1.3078   -0.1538    1.6075 H   0  0  0  0  0  0  0  0  0  0  0  0
    0.9987   -0.0139    1.6586 H   0  0  0  0  0  0  0  0  0  0  0  0
    3.0164    0.6547    0.8564 H   0  0  0  0  0  0  0  0  0  0  0  0
    2.8761   -0.4206   -0.5541 H   0  0  0  0  0  0  0  0  0  0  0  0
    2.2702    1.3142   -0.6127 H   0  0  0  0  0  0  0  0  0  0  0  0
   -0.2501    1.6496    0.3843 H   0  0  0  0  0  0  0  0  0  0  0  0
    0.0398    1.3638   -1.8725 H   0  0  0  0  0  0  0  0  0  0  0  0
  1  2  1  0
  2  3  1  0
  3  4  1  0
  4  5  2  0
  4  6  1  0
  6  7  1  0
  6  8  1  0
  8  9  1  0
  8  2  1  0
  1 10  1  0
  1 11  1  0
  1 12  1  0
  2 13  1  0
  6 14  1  0
  7 15  1  0
  7 16  1  0
  7 17  1  0
  8 18  1  0
  9 19  1  0
M  END
