
     RDKit          3D

 18 19  0  0  0  0  0  0  0  0999 V2000
    2.3108   -0.0133   -0.4692 C   0  0  0  0  0  0  0  0  0  0  0  0
    0.8929    0.4398   -0.4020 C   0  0  0  0  0  0  0  0  0  0  0  0
    0.5408    1.2901    0.6168 O   0  0  0  0  0  0  0  0  0  0  0  0
   -0.4601    0.4825    1.1281 C   0  0  0  0  0  0  0  0  0  0  0  0
   -1.8474    0.7387    0.6031 C   0  0  0  0  0  0  0  0  0  0  0  0
   -2.2379   -0.4641   -0.0192 O   0  0  0  0  0  0  0  0  0  0  0  0
   -1.1252   -0.9627   -0.6550 C   0  0  0  0  0  0  0  0  0  0  0  0
    0.0254   -0.6215    0.2264 C   0  0  0  0  0  0  0  0  0  0  0  0
    2.8604    0.4719   -1.3075 H   0  0  0  0  0  0  0  0  0  0  0  0
    2.3129   -1.1177   -0.6965 H   0  0  0  0  0  0  0  0  0  0  0  0
    2.8028    0.1403    0.5064 H   0  0  0  0  0  0  0  0  0  0  0  0
    0.5207    0.8439   -1.3751 H   0  0  0  0  0  0  0  0  0  0  0  0
   -0.4383    0.2854    2.2060 H   0  0  0  0  0  0  0  0  0  0  0  0
   -2.5640    0.8619    1.4571 H   0  0  0  0  0  0  0  0  0  0  0  0
   -1.9059    1.5693   -0.1156 H   0  0  0  0  0  0  0  0  0  0  0  0
   -1.1851   -2.0443   -0.8054 H   0  0  0  0  0  0  0  0  0  0  0  0
   -1.0237   -0.4869   -1.6728 H   0  0  0  0  0  0  0  0  0  0  0  0
    0.5209   -1.4134    0.7746 H   0  0  0  0  0  0  0  0  0  0  0  0
  1  2  1  0
  2  3  1  0
  3  4  1  0
  4  5  1  0
  5  6  1  0
  6  7  1  0
  7  8  1  0
  8  2  1  0
  8  4  1  0
  1  9  1  0
  1 10  1  0
  1 11  1  0
  2 12  1  0
  4 13  1  0
  5 14  1  0
  5 15  1  0
  7 16  1  0
  7 17  1  0
  8 18  1  0
M  END
