
     RDKit          3D

 21 23  0  0  0  0  0  0  0  0999 V2000
    3.1800   -0.1720    0.5627 C   0  0  0  0  0  0  0  0  0  0  0  0
    2.1459    0.4323   -0.3485 C   0  0  0  0  0  0  0  0  0  0  0  0
    1.5435    1.5885    0.0823 O   0  0  0  0  0  0  0  0  0  0  0  0
    0.3370    1.1007   -0.4464 C   0  0  0  0  0  0  0  0  0  0  0  0
   -0.3338    0.0795    0.3765 C   0  0  0  0  0  0  0  0  0  0  0  0
   -1.6260   -0.5458   -0.0100 C   0  0  0  0  0  0  0  0  0  0  0  0
   -2.8640    0.2434   -0.2078 C   0  0  0  0  0  0  0  0  0  0  0  0
   -2.7119   -0.5993    1.0705 C   0  0  0  0  0  0  0  0  0  0  0  0
    0.8743   -0.3416   -0.3735 C   0  0  0  0  0  0  0  0  0  0  0  0
    2.6777   -0.4794    1.5009 H   0  0  0  0  0  0  0  0  0  0  0  0
    4.0748    0.4327    0.6991 H   0  0  0  0  0  0  0  0  0  0  0  0
    3.5069   -1.1323    0.0690 H   0  0  0  0  0  0  0  0  0  0  0  0
    2.5456    0.5943   -1.3923 H   0  0  0  0  0  0  0  0  0  0  0  0
   -0.0127    1.4381   -1.4195 H   0  0  0  0  0  0  0  0  0  0  0  0
   -0.1716    0.1769    1.4856 H   0  0  0  0  0  0  0  0  0  0  0  0
   -1.5490   -1.4870   -0.5832 H   0  0  0  0  0  0  0  0  0  0  0  0
   -2.9184    1.3263   -0.0429 H   0  0  0  0  0  0  0  0  0  0  0  0
   -3.6115   -0.1484   -0.9544 H   0  0  0  0  0  0  0  0  0  0  0  0
   -3.3382   -1.4996    1.1437 H   0  0  0  0  0  0  0  0  0  0  0  0
   -2.4751   -0.0175    2.0091 H   0  0  0  0  0  0  0  0  0  0  0  0
    0.7264   -0.9897   -1.2519 H   0  0  0  0  0  0  0  0  0  0  0  0
  1  2  1  0
  2  3  1  0
  3  4  1  0
  4  5  1  0
  5  6  1  0
  6  7  1  0
  7  8  1  0
  5  9  1  0
  9  2  1  0
  9  4  1  0
  8  6  1  0
  1 10  1  0
  1 11  1  0
  1 12  1  0
  2 13  1  0
  4 14  1  0
  5 15  1  0
  6 16  1  0
  7 17  1  0
  7 18  1  0
  8 19  1  0
  8 20  1  0
  9 21  1  0
M  END
