
     RDKit          3D

 19 19  0  0  0  0  0  0  0  0999 V2000
   -2.1677   -0.6273   -0.2760 C   0  0  0  0  0  0  0  0  0  0  0  0
   -0.7599   -0.3407    0.1876 C   0  0  0  0  0  0  0  0  0  0  0  0
    0.0046   -1.4573   -0.0924 O   0  0  0  0  0  0  0  0  0  0  0  0
    1.3104   -1.3575    0.3998 C   0  0  0  0  0  0  0  0  0  0  0  0
    1.9437   -0.2077   -0.2793 C   0  0  0  0  0  0  0  0  0  0  0  0
    2.9929   -0.3447   -0.8594 O   0  0  0  0  0  0  0  0  0  0  0  0
    1.2370    1.0884   -0.2098 C   0  0  0  0  0  0  0  0  0  0  0  0
   -0.2246    0.9224   -0.4422 C   0  0  0  0  0  0  0  0  0  0  0  0
   -0.8752    1.9922    0.2143 O   0  0  0  0  0  0  0  0  0  0  0  0
   -2.6814    0.2537   -0.6778 H   0  0  0  0  0  0  0  0  0  0  0  0
   -2.1416   -1.3886   -1.1098 H   0  0  0  0  0  0  0  0  0  0  0  0
   -2.7090   -1.1298    0.5529 H   0  0  0  0  0  0  0  0  0  0  0  0
   -0.7959   -0.1693    1.2868 H   0  0  0  0  0  0  0  0  0  0  0  0
    1.2243   -1.1483    1.5053 H   0  0  0  0  0  0  0  0  0  0  0  0
    1.8160   -2.3058    0.1990 H   0  0  0  0  0  0  0  0  0  0  0  0
    1.3636    1.4580    0.8473 H   0  0  0  0  0  0  0  0  0  0  0  0
    1.6708    1.8111   -0.9334 H   0  0  0  0  0  0  0  0  0  0  0  0
   -0.4801    1.0122   -1.5099 H   0  0  0  0  0  0  0  0  0  0  0  0
   -0.7280    1.9390    1.1970 H   0  0  0  0  0  0  0  0  0  0  0  0
  1  2  1  0
  2  3  1  0
  3  4  1  0
  4  5  1  0
  5  6  2  0
  5  7  1  0
  7  8  1  0
  8  9  1  0
  8  2  1  0
  1 10  1  0
  1 11  1  0
  1 12  1  0
  2 13  1  0
  4 14  1  0
  4 15  1  0
  7 16  1  0
  7 17  1  0
  8 18  1  0
  9 19  1  0
M  END
