
     RDKit          3D

 21 22  0  0  0  0  0  0  0  0999 V2000
    3.3238    0.0848   -0.2033 C   0  0  0  0  0  0  0  0  0  0  0  0
    2.0981   -0.7746   -0.3557 C   0  0  0  0  0  0  0  0  0  0  0  0
    1.4088   -0.7996   -1.5541 O   0  0  0  0  0  0  0  0  0  0  0  0
    0.8169   -0.0264   -0.5822 C   0  0  0  0  0  0  0  0  0  0  0  0
   -0.3540   -0.5319    0.2071 C   0  0  0  0  0  0  0  0  0  0  0  0
   -1.6195    0.2586   -0.0599 C   0  0  0  0  0  0  0  0  0  0  0  0
   -2.1023    0.2606   -1.4897 C   0  0  0  0  0  0  0  0  0  0  0  0
   -2.5118    0.4765    1.0749 C   0  0  0  0  0  0  0  0  0  0  0  0
   -1.7444    1.5009    0.5696 O   0  0  0  0  0  0  0  0  0  0  0  0
    3.0998    1.1411   -0.4563 H   0  0  0  0  0  0  0  0  0  0  0  0
    4.1590   -0.2722   -0.8426 H   0  0  0  0  0  0  0  0  0  0  0  0
    3.6273    0.0091    0.8821 H   0  0  0  0  0  0  0  0  0  0  0  0
    2.0763   -1.6805    0.2802 H   0  0  0  0  0  0  0  0  0  0  0  0
    0.8372    1.0562   -0.7854 H   0  0  0  0  0  0  0  0  0  0  0  0
   -0.5389   -1.5912    0.0029 H   0  0  0  0  0  0  0  0  0  0  0  0
   -0.0887   -0.4551    1.2884 H   0  0  0  0  0  0  0  0  0  0  0  0
   -1.6402   -0.5493   -2.0944 H   0  0  0  0  0  0  0  0  0  0  0  0
   -3.2162    0.1463   -1.5272 H   0  0  0  0  0  0  0  0  0  0  0  0
   -1.8298    1.2132   -2.0219 H   0  0  0  0  0  0  0  0  0  0  0  0
   -3.5971    0.4418    0.9046 H   0  0  0  0  0  0  0  0  0  0  0  0
   -2.2042    0.0918    2.0623 H   0  0  0  0  0  0  0  0  0  0  0  0
  1  2  1  0
  2  3  1  0
  3  4  1  0
  4  5  1  0
  5  6  1  0
  6  7  1  0
  6  8  1  0
  8  9  1  0
  4  2  1  0
  9  6  1  0
  1 10  1  0
  1 11  1  0
  1 12  1  0
  2 13  1  0
  4 14  1  0
  5 15  1  0
  5 16  1  0
  7 17  1  0
  7 18  1  0
  7 19  1  0
  8 20  1  0
  8 21  1  0
M  END
