
     RDKit          3D

 21 22  0  0  0  0  0  0  0  0999 V2000
    2.2282   -0.8567   -0.4662 C   0  0  0  0  0  0  0  0  0  0  0  0
    1.4217   -0.1353    0.5842 C   0  0  0  0  0  0  0  0  0  0  0  0
    1.8104    1.1989    0.7939 O   0  0  0  0  0  0  0  0  0  0  0  0
    0.7662    1.6949    0.0364 C   0  0  0  0  0  0  0  0  0  0  0  0
    0.0873    0.3582    0.1064 C   0  0  0  0  0  0  0  0  0  0  0  0
   -0.9728    0.1867    1.1322 C   0  0  0  0  0  0  0  0  0  0  0  0
   -2.0735   -0.5247    0.4039 C   0  0  0  0  0  0  0  0  0  0  0  0
   -1.6596   -0.4625   -1.0261 C   0  0  0  0  0  0  0  0  0  0  0  0
   -0.3536   -0.0590   -1.1017 O   0  0  0  0  0  0  0  0  0  0  0  0
    2.3321   -1.9145   -0.1875 H   0  0  0  0  0  0  0  0  0  0  0  0
    1.7309   -0.7820   -1.4492 H   0  0  0  0  0  0  0  0  0  0  0  0
    3.2397   -0.3818   -0.4735 H   0  0  0  0  0  0  0  0  0  0  0  0
    1.3467   -0.7348    1.5276 H   0  0  0  0  0  0  0  0  0  0  0  0
    0.2241    2.5520    0.4444 H   0  0  0  0  0  0  0  0  0  0  0  0
    1.1291    1.9264   -0.9899 H   0  0  0  0  0  0  0  0  0  0  0  0
   -1.3075    1.2108    1.4497 H   0  0  0  0  0  0  0  0  0  0  0  0
   -0.6387   -0.3722    2.0418 H   0  0  0  0  0  0  0  0  0  0  0  0
   -2.1545   -1.5895    0.6941 H   0  0  0  0  0  0  0  0  0  0  0  0
   -3.0557   -0.0561    0.6182 H   0  0  0  0  0  0  0  0  0  0  0  0
   -1.7250   -1.4726   -1.5262 H   0  0  0  0  0  0  0  0  0  0  0  0
   -2.3755    0.2137   -1.5587 H   0  0  0  0  0  0  0  0  0  0  0  0
  1  2  1  0
  2  3  1  0
  3  4  1  0
  4  5  1  0
  5  6  1  0
  6  7  1  0
  7  8  1  0
  8  9  1  0
  5  2  1  0
  9  5  1  0
  1 10  1  0
  1 11  1  0
  1 12  1  0
  2 13  1  0
  4 14  1  0
  4 15  1  0
  6 16  1  0
  6 17  1  0
  7 18  1  0
  7 19  1  0
  8 20  1  0
  8 21  1  0
M  END
