
     RDKit          3D

 19 21  0  0  0  0  0  0  0  0999 V2000
   -2.7373    0.3769   -0.3080 C   0  0  0  0  0  0  0  0  0  0  0  0
   -1.3768   -0.0319   -0.8230 C   0  0  0  0  0  0  0  0  0  0  0  0
   -1.0479   -1.3632   -0.6663 O   0  0  0  0  0  0  0  0  0  0  0  0
   -0.0606   -1.2497    0.2612 C   0  0  0  0  0  0  0  0  0  0  0  0
   -0.2832    0.2982    0.1702 C   0  0  0  0  0  0  0  0  0  0  0  0
    1.0215   -0.3137    0.1425 C   0  0  0  0  0  0  0  0  0  0  0  0
    2.0667   -0.2057   -0.8491 C   0  0  0  0  0  0  0  0  0  0  0  0
    2.8490    0.5007    0.0952 O   0  0  0  0  0  0  0  0  0  0  0  0
    2.0305    0.0255    1.1478 C   0  0  0  0  0  0  0  0  0  0  0  0
   -3.4793    0.5276   -1.0965 H   0  0  0  0  0  0  0  0  0  0  0  0
   -3.0633   -0.3163    0.4979 H   0  0  0  0  0  0  0  0  0  0  0  0
   -2.5782    1.3669    0.2130 H   0  0  0  0  0  0  0  0  0  0  0  0
   -1.1528    0.3731   -1.8224 H   0  0  0  0  0  0  0  0  0  0  0  0
   -0.2736   -1.7099    1.2415 H   0  0  0  0  0  0  0  0  0  0  0  0
   -0.6119    0.7508    1.1420 H   0  0  0  0  0  0  0  0  0  0  0  0
    2.6034   -1.1776   -1.0410 H   0  0  0  0  0  0  0  0  0  0  0  0
    1.9098    0.3052   -1.7962 H   0  0  0  0  0  0  0  0  0  0  0  0
    1.6998    0.8368    1.8445 H   0  0  0  0  0  0  0  0  0  0  0  0
    2.4840   -0.8570    1.6467 H   0  0  0  0  0  0  0  0  0  0  0  0
  1  2  1  0
  2  3  1  0
  3  4  1  0
  4  5  1  0
  5  6  1  0
  6  7  1  0
  7  8  1  0
  8  9  1  0
  5  2  1  0
  9  6  1  0
  6  4  1  0
  1 10  1  0
  1 11  1  0
  1 12  1  0
  2 13  1  0
  4 14  1  0
  5 15  1  0
  7 16  1  0
  7 17  1  0
  9 18  1  0
  9 19  1  0
M  END
