
     RDKit          3D

 19 20  0  0  0  0  0  0  0  0999 V2000
   -2.4036    0.4943   -0.7609 C   0  0  0  0  0  0  0  0  0  0  0  0
   -1.1927    0.0668    0.0149 C   0  0  0  0  0  0  0  0  0  0  0  0
   -0.3781    1.1678    0.3707 O   0  0  0  0  0  0  0  0  0  0  0  0
    0.7364    0.6502    0.9278 C   0  0  0  0  0  0  0  0  0  0  0  0
    2.1212    0.8684    0.7358 C   0  0  0  0  0  0  0  0  0  0  0  0
    1.5341    0.1514   -0.3260 C   0  0  0  0  0  0  0  0  0  0  0  0
    1.0217   -1.2212   -0.4687 C   0  0  0  0  0  0  0  0  0  0  0  0
   -0.4513   -1.0407   -0.6161 C   0  0  0  0  0  0  0  0  0  0  0  0
   -1.0566   -1.8474   -1.2876 O   0  0  0  0  0  0  0  0  0  0  0  0
   -2.8409    1.3691   -0.2318 H   0  0  0  0  0  0  0  0  0  0  0  0
   -2.1775    0.6751   -1.8151 H   0  0  0  0  0  0  0  0  0  0  0  0
   -3.1666   -0.3232   -0.6443 H   0  0  0  0  0  0  0  0  0  0  0  0
   -1.5722   -0.3280    1.0016 H   0  0  0  0  0  0  0  0  0  0  0  0
    0.4605   -0.1331    1.6966 H   0  0  0  0  0  0  0  0  0  0  0  0
    2.4817    1.9105    0.5565 H   0  0  0  0  0  0  0  0  0  0  0  0
    2.8528    0.3437    1.4050 H   0  0  0  0  0  0  0  0  0  0  0  0
    1.3605    0.7273   -1.2861 H   0  0  0  0  0  0  0  0  0  0  0  0
    1.4845   -1.7039   -1.3481 H   0  0  0  0  0  0  0  0  0  0  0  0
    1.1862   -1.8270    0.4491 H   0  0  0  0  0  0  0  0  0  0  0  0
  1  2  1  0
  2  3  1  0
  3  4  1  0
  4  5  1  0
  5  6  1  0
  6  7  1  0
  7  8  1  0
  8  9  2  0
  8  2  1  0
  6  4  1  0
  1 10  1  0
  1 11  1  0
  1 12  1  0
  2 13  1  0
  4 14  1  0
  5 15  1  0
  5 16  1  0
  6 17  1  0
  7 18  1  0
  7 19  1  0
M  END
