
     RDKit          3D

 21 21  0  0  0  0  0  0  0  0999 V2000
    3.0214    0.4594   -0.0529 C   0  0  0  0  0  0  0  0  0  0  0  0
    1.6286    0.2869   -0.5843 C   0  0  0  0  0  0  0  0  0  0  0  0
    0.8578    1.5533   -0.4210 O   0  0  0  0  0  0  0  0  0  0  0  0
    0.4358    0.4301    0.2880 C   0  0  0  0  0  0  0  0  0  0  0  0
   -0.7735   -0.3275   -0.1618 C   0  0  0  0  0  0  0  0  0  0  0  0
   -0.9445   -1.5003    0.8135 C   0  0  0  0  0  0  0  0  0  0  0  0
   -0.5758   -0.7974   -1.4426 O   0  0  0  0  0  0  0  0  0  0  0  0
   -2.0461    0.4776   -0.0706 C   0  0  0  0  0  0  0  0  0  0  0  0
   -2.0589    1.5784   -0.8995 O   0  0  0  0  0  0  0  0  0  0  0  0
    3.0847    0.9832    0.8995 H   0  0  0  0  0  0  0  0  0  0  0  0
    3.4266   -0.5741    0.1227 H   0  0  0  0  0  0  0  0  0  0  0  0
    3.6496    0.9027   -0.8377 H   0  0  0  0  0  0  0  0  0  0  0  0
    1.5609    0.0089   -1.6400 H   0  0  0  0  0  0  0  0  0  0  0  0
    0.6741    0.4370    1.3847 H   0  0  0  0  0  0  0  0  0  0  0  0
   -0.1577   -2.2515    0.5533 H   0  0  0  0  0  0  0  0  0  0  0  0
   -0.7984   -1.0792    1.8163 H   0  0  0  0  0  0  0  0  0  0  0  0
   -1.9631   -1.9059    0.6445 H   0  0  0  0  0  0  0  0  0  0  0  0
   -1.2306   -1.5199   -1.6017 H   0  0  0  0  0  0  0  0  0  0  0  0
   -2.8797   -0.2080   -0.3532 H   0  0  0  0  0  0  0  0  0  0  0  0
   -2.1997    0.8132    0.9775 H   0  0  0  0  0  0  0  0  0  0  0  0
   -2.7115    2.2333   -0.5035 H   0  0  0  0  0  0  0  0  0  0  0  0
  1  2  1  0
  2  3  1  0
  3  4  1  0
  4  5  1  0
  5  6  1  0
  5  7  1  0
  5  8  1  0
  8  9  1  0
  4  2  1  0
  1 10  1  0
  1 11  1  0
  1 12  1  0
  2 13  1  0
  4 14  1  0
  6 15  1  0
  6 16  1  0
  6 17  1  0
  7 18  1  0
  8 19  1  0
  8 20  1  0
  9 21  1  0
M  END
