
     RDKit          3D

 19 20  0  0  0  0  0  0  0  0999 V2000
   -2.9458    0.5575    0.0196 C   0  0  0  0  0  0  0  0  0  0  0  0
   -1.5023    0.9447   -0.0566 C   0  0  0  0  0  0  0  0  0  0  0  0
   -0.8260    1.0802    1.1297 O   0  0  0  0  0  0  0  0  0  0  0  0
    0.1590    0.1257    0.8642 C   0  0  0  0  0  0  0  0  0  0  0  0
    0.8589    0.1377   -0.4422 C   0  0  0  0  0  0  0  0  0  0  0  0
    1.9375   -0.8721   -0.6481 C   0  0  0  0  0  0  0  0  0  0  0  0
    2.9820   -0.6463    0.3901 C   0  0  0  0  0  0  0  0  0  0  0  0
    2.9131    0.2290    1.2372 O   0  0  0  0  0  0  0  0  0  0  0  0
   -0.5679   -0.2007   -0.4092 C   0  0  0  0  0  0  0  0  0  0  0  0
   -3.5054    1.3157    0.6253 H   0  0  0  0  0  0  0  0  0  0  0  0
   -3.3457    0.5934   -1.0321 H   0  0  0  0  0  0  0  0  0  0  0  0
   -3.1343   -0.4505    0.3952 H   0  0  0  0  0  0  0  0  0  0  0  0
   -1.3450    1.7630   -0.7932 H   0  0  0  0  0  0  0  0  0  0  0  0
    0.3137   -0.6775    1.6059 H   0  0  0  0  0  0  0  0  0  0  0  0
    1.1258    1.1590   -0.8341 H   0  0  0  0  0  0  0  0  0  0  0  0
    2.4180   -0.6554   -1.6467 H   0  0  0  0  0  0  0  0  0  0  0  0
    1.5788   -1.9281   -0.6219 H   0  0  0  0  0  0  0  0  0  0  0  0
    3.8630   -1.2776    0.4208 H   0  0  0  0  0  0  0  0  0  0  0  0
   -0.9774   -1.1975   -0.5834 H   0  0  0  0  0  0  0  0  0  0  0  0
  1  2  1  0
  2  3  1  0
  3  4  1  0
  4  5  1  0
  5  6  1  0
  6  7  1  0
  7  8  2  0
  5  9  1  0
  9  2  1  0
  9  4  1  0
  1 10  1  0
  1 11  1  0
  1 12  1  0
  2 13  1  0
  4 14  1  0
  5 15  1  0
  6 16  1  0
  6 17  1  0
  7 18  1  0
  9 19  1  0
M  END
