
     RDKit          3D

 17 18  0  0  0  0  0  0  0  0999 V2000
   -2.3313   -0.3239    0.1930 C   0  0  0  0  0  0  0  0  0  0  0  0
   -1.0383   -0.7097   -0.5413 C   0  0  0  0  0  0  0  0  0  0  0  0
   -0.1507   -1.5473    0.1844 O   0  0  0  0  0  0  0  0  0  0  0  0
    0.1563   -0.2543   -0.1256 C   0  0  0  0  0  0  0  0  0  0  0  0
    0.4102    0.7762    0.9461 C   0  0  0  0  0  0  0  0  0  0  0  0
    1.6624    1.1280    0.2299 C   0  0  0  0  0  0  0  0  0  0  0  0
    2.5193    1.9462    0.4813 O   0  0  0  0  0  0  0  0  0  0  0  0
    1.4202    0.1224   -0.8354 C   0  0  0  0  0  0  0  0  0  0  0  0
    2.3723   -0.8628   -0.9580 O   0  0  0  0  0  0  0  0  0  0  0  0
   -2.2422   -0.4909    1.2734 H   0  0  0  0  0  0  0  0  0  0  0  0
   -3.2029   -0.8495   -0.2082 H   0  0  0  0  0  0  0  0  0  0  0  0
   -2.3998    0.7961    0.0626 H   0  0  0  0  0  0  0  0  0  0  0  0
   -1.2749   -1.0459   -1.5919 H   0  0  0  0  0  0  0  0  0  0  0  0
   -0.3908    1.5624    0.8790 H   0  0  0  0  0  0  0  0  0  0  0  0
    0.5465    0.3834    1.9649 H   0  0  0  0  0  0  0  0  0  0  0  0
    1.2267    0.5810   -1.8372 H   0  0  0  0  0  0  0  0  0  0  0  0
    2.7169   -1.2115   -0.1172 H   0  0  0  0  0  0  0  0  0  0  0  0
  1  2  1  0
  2  3  1  0
  3  4  1  0
  4  5  1  0
  5  6  1  0
  6  7  2  0
  6  8  1  0
  8  9  1  0
  4  2  1  0
  8  4  1  0
  1 10  1  0
  1 11  1  0
  1 12  1  0
  2 13  1  0
  5 14  1  0
  5 15  1  0
  8 16  1  0
  9 17  1  0
M  END
