
     RDKit          3D

 21 22  0  0  0  0  0  0  0  0999 V2000
   -2.1721   -1.3222    0.4655 C   0  0  0  0  0  0  0  0  0  0  0  0
   -0.9972   -1.1893   -0.4775 C   0  0  0  0  0  0  0  0  0  0  0  0
    0.1251   -1.9417   -0.1079 O   0  0  0  0  0  0  0  0  0  0  0  0
    0.9315   -0.8372   -0.3871 C   0  0  0  0  0  0  0  0  0  0  0  0
    2.0833   -0.6565    0.5885 C   0  0  0  0  0  0  0  0  0  0  0  0
   -0.2209    0.0329   -0.2105 C   0  0  0  0  0  0  0  0  0  0  0  0
   -0.3014    0.5127    1.1960 O   0  0  0  0  0  0  0  0  0  0  0  0
   -0.4883    1.3205    0.0306 C   0  0  0  0  0  0  0  0  0  0  0  0
    0.5548    2.4245   -0.1813 C   0  0  0  0  0  0  0  0  0  0  0  0
   -3.0882   -1.3170   -0.1868 H   0  0  0  0  0  0  0  0  0  0  0  0
   -2.1292   -2.2288    1.0726 H   0  0  0  0  0  0  0  0  0  0  0  0
   -2.2837   -0.4083    1.1046 H   0  0  0  0  0  0  0  0  0  0  0  0
   -1.2232   -1.3233   -1.5346 H   0  0  0  0  0  0  0  0  0  0  0  0
    1.3373   -0.9389   -1.4140 H   0  0  0  0  0  0  0  0  0  0  0  0
    1.7939    0.0287    1.4149 H   0  0  0  0  0  0  0  0  0  0  0  0
    2.2907   -1.6459    1.0400 H   0  0  0  0  0  0  0  0  0  0  0  0
    2.9951   -0.2775    0.0605 H   0  0  0  0  0  0  0  0  0  0  0  0
   -1.5183    1.7368    0.0269 H   0  0  0  0  0  0  0  0  0  0  0  0
    0.1231    3.2586   -0.7521 H   0  0  0  0  0  0  0  0  0  0  0  0
    0.7640    2.8177    0.8455 H   0  0  0  0  0  0  0  0  0  0  0  0
    1.4238    1.9544   -0.6516 H   0  0  0  0  0  0  0  0  0  0  0  0
  1  2  1  0
  2  3  1  0
  3  4  1  0
  4  5  1  0
  4  6  1  0
  6  7  1  0
  7  8  1  0
  8  9  1  0
  6  2  1  0
  8  6  1  0
  1 10  1  0
  1 11  1  0
  1 12  1  0
  2 13  1  0
  4 14  1  0
  5 15  1  0
  5 16  1  0
  5 17  1  0
  8 18  1  0
  9 19  1  0
  9 20  1  0
  9 21  1  0
M  END
