
     RDKit          3D

 17 18  0  0  0  0  0  0  0  0999 V2000
    2.3996    0.7441   -0.2716 C   0  0  0  0  0  0  0  0  0  0  0  0
    1.3968   -0.3082    0.0317 C   0  0  0  0  0  0  0  0  0  0  0  0
    0.3880   -0.4004   -0.9624 O   0  0  0  0  0  0  0  0  0  0  0  0
   -0.6026   -0.9540   -0.1969 C   0  0  0  0  0  0  0  0  0  0  0  0
   -1.7063   -0.4682    0.5107 C   0  0  0  0  0  0  0  0  0  0  0  0
   -2.8069    0.1828   -0.2663 C   0  0  0  0  0  0  0  0  0  0  0  0
   -2.4912    0.8630   -1.2248 O   0  0  0  0  0  0  0  0  0  0  0  0
   -0.5273    0.2536    0.8278 C   0  0  0  0  0  0  0  0  0  0  0  0
    0.7153   -0.0751    1.2531 O   0  0  0  0  0  0  0  0  0  0  0  0
    3.4466    0.3429   -0.3643 H   0  0  0  0  0  0  0  0  0  0  0  0
    2.4554    1.5128    0.5365 H   0  0  0  0  0  0  0  0  0  0  0  0
    2.1782    1.2554   -1.2210 H   0  0  0  0  0  0  0  0  0  0  0  0
    1.8314   -1.3233    0.1270 H   0  0  0  0  0  0  0  0  0  0  0  0
   -0.1837   -1.9368    0.1960 H   0  0  0  0  0  0  0  0  0  0  0  0
   -2.1418   -1.0650    1.3675 H   0  0  0  0  0  0  0  0  0  0  0  0
   -3.8606    0.0926   -0.0381 H   0  0  0  0  0  0  0  0  0  0  0  0
   -0.4908    1.2837    0.3536 H   0  0  0  0  0  0  0  0  0  0  0  0
  1  2  1  0
  2  3  1  0
  3  4  1  0
  4  5  1  0
  5  6  1  0
  6  7  2  0
  5  8  1  0
  8  9  1  0
  9  2  1  0
  8  4  1  0
  1 10  1  0
  1 11  1  0
  1 12  1  0
  2 13  1  0
  4 14  1  0
  5 15  1  0
  6 16  1  0
  8 17  1  0
M  END
