
     RDKit          3D

 17 18  0  0  0  0  0  0  0  0999 V2000
   -1.8581   -0.6957    0.2658 C   0  0  0  0  0  0  0  0  0  0  0  0
   -1.0478    0.4487   -0.2784 C   0  0  0  0  0  0  0  0  0  0  0  0
   -0.5720    1.2871    0.7122 O   0  0  0  0  0  0  0  0  0  0  0  0
    0.6954    0.8742    1.0324 C   0  0  0  0  0  0  0  0  0  0  0  0
    1.2998    0.4959   -0.2791 C   0  0  0  0  0  0  0  0  0  0  0  0
    1.8339   -0.8711   -0.2510 C   0  0  0  0  0  0  0  0  0  0  0  0
    2.9225   -1.3809    0.0325 O   0  0  0  0  0  0  0  0  0  0  0  0
    0.6130   -1.3366   -0.6719 O   0  0  0  0  0  0  0  0  0  0  0  0
    0.1250   -0.0521   -1.0506 C   0  0  0  0  0  0  0  0  0  0  0  0
   -1.9478   -0.6524    1.3875 H   0  0  0  0  0  0  0  0  0  0  0  0
   -1.4501   -1.6761   -0.0359 H   0  0  0  0  0  0  0  0  0  0  0  0
   -2.9046   -0.5847   -0.1234 H   0  0  0  0  0  0  0  0  0  0  0  0
   -1.6581    1.0881   -0.9829 H   0  0  0  0  0  0  0  0  0  0  0  0
    0.6163    0.0074    1.7114 H   0  0  0  0  0  0  0  0  0  0  0  0
    1.3150    1.6754    1.4766 H   0  0  0  0  0  0  0  0  0  0  0  0
    1.8812    1.2579   -0.8109 H   0  0  0  0  0  0  0  0  0  0  0  0
    0.1363    0.1149   -2.1343 H   0  0  0  0  0  0  0  0  0  0  0  0
  1  2  1  0
  2  3  1  0
  3  4  1  0
  4  5  1  0
  5  6  1  0
  6  7  2  0
  6  8  1  0
  8  9  1  0
  9  2  1  0
  9  5  1  0
  1 10  1  0
  1 11  1  0
  1 12  1  0
  2 13  1  0
  4 14  1  0
  4 15  1  0
  5 16  1  0
  9 17  1  0
M  END
