
     RDKit          3D

 21 22  0  0  0  0  0  0  0  0999 V2000
    2.5066    0.0273   -0.1406 C   0  0  0  0  0  0  0  0  0  0  0  0
    1.0649   -0.1814    0.1669 C   0  0  0  0  0  0  0  0  0  0  0  0
    0.5215   -1.2009   -0.5942 O   0  0  0  0  0  0  0  0  0  0  0  0
   -0.5914   -1.6667    0.1421 C   0  0  0  0  0  0  0  0  0  0  0  0
   -1.6343   -0.6092    0.2147 C   0  0  0  0  0  0  0  0  0  0  0  0
   -1.9378    0.0384   -1.1296 C   0  0  0  0  0  0  0  0  0  0  0  0
   -1.2312    0.7590   -0.0317 C   0  0  0  0  0  0  0  0  0  0  0  0
    0.2184    1.0573   -0.1073 C   0  0  0  0  0  0  0  0  0  0  0  0
    0.6330    1.6492   -1.2837 O   0  0  0  0  0  0  0  0  0  0  0  0
    2.8894    0.9681    0.2862 H   0  0  0  0  0  0  0  0  0  0  0  0
    3.0820   -0.7925    0.3441 H   0  0  0  0  0  0  0  0  0  0  0  0
    2.6902   -0.0483   -1.2200 H   0  0  0  0  0  0  0  0  0  0  0  0
    0.9811   -0.4831    1.2478 H   0  0  0  0  0  0  0  0  0  0  0  0
   -0.2133   -2.0081    1.1160 H   0  0  0  0  0  0  0  0  0  0  0  0
   -1.0204   -2.5158   -0.4672 H   0  0  0  0  0  0  0  0  0  0  0  0
   -2.4694   -0.8197    0.9093 H   0  0  0  0  0  0  0  0  0  0  0  0
   -1.3492   -0.2460   -2.0131 H   0  0  0  0  0  0  0  0  0  0  0  0
   -3.0048    0.1620   -1.3169 H   0  0  0  0  0  0  0  0  0  0  0  0
   -1.8655    1.5610    0.4503 H   0  0  0  0  0  0  0  0  0  0  0  0
    0.4807    1.7754    0.7176 H   0  0  0  0  0  0  0  0  0  0  0  0
    0.2493    2.5740   -1.3270 H   0  0  0  0  0  0  0  0  0  0  0  0
  1  2  1  0
  2  3  1  0
  3  4  1  0
  4  5  1  0
  5  6  1  0
  6  7  1  0
  7  8  1  0
  8  9  1  0
  8  2  1  0
  7  5  1  0
  1 10  1  0
  1 11  1  0
  1 12  1  0
  2 13  1  0
  4 14  1  0
  4 15  1  0
  5 16  1  0
  6 17  1  0
  6 18  1  0
  7 19  1  0
  8 20  1  0
  9 21  1  0
M  END
