
     RDKit          3D

 18 19  0  0  0  0  0  0  0  0999 V2000
    2.7155    0.5522    0.3633 C   0  0  0  0  0  0  0  0  0  0  0  0
    1.3935   -0.1880    0.5344 C   0  0  0  0  0  0  0  0  0  0  0  0
    1.4673   -1.5525    0.0956 O   0  0  0  0  0  0  0  0  0  0  0  0
    0.6783   -0.6647   -0.6374 C   0  0  0  0  0  0  0  0  0  0  0  0
   -0.8114   -0.8980   -0.5462 C   0  0  0  0  0  0  0  0  0  0  0  0
   -1.4928    0.3906   -0.1860 C   0  0  0  0  0  0  0  0  0  0  0  0
   -2.8934    0.5266   -0.0183 C   0  0  0  0  0  0  0  0  0  0  0  0
   -2.0293    0.3247    1.2009 O   0  0  0  0  0  0  0  0  0  0  0  0
    3.2040    0.1394   -0.5351 H   0  0  0  0  0  0  0  0  0  0  0  0
    2.4779    1.6459    0.2221 H   0  0  0  0  0  0  0  0  0  0  0  0
    3.3084    0.4429    1.2845 H   0  0  0  0  0  0  0  0  0  0  0  0
    0.9334   -0.0170    1.5288 H   0  0  0  0  0  0  0  0  0  0  0  0
    1.0858   -0.3250   -1.6319 H   0  0  0  0  0  0  0  0  0  0  0  0
   -1.0056   -1.7111    0.1838 H   0  0  0  0  0  0  0  0  0  0  0  0
   -1.1806   -1.2248   -1.5646 H   0  0  0  0  0  0  0  0  0  0  0  0
   -0.8838    1.2967   -0.3654 H   0  0  0  0  0  0  0  0  0  0  0  0
   -3.6320   -0.2779    0.0008 H   0  0  0  0  0  0  0  0  0  0  0  0
   -3.3352    1.5399    0.0707 H   0  0  0  0  0  0  0  0  0  0  0  0
  1  2  1  0
  2  3  1  0
  3  4  1  0
  4  5  1  0
  5  6  1  0
  6  7  1  0
  7  8  1  0
  4  2  1  0
  8  6  1  0
  1  9  1  0
  1 10  1  0
  1 11  1  0
  2 12  1  0
  4 13  1  0
  5 14  1  0
  5 15  1  0
  6 16  1  0
  7 17  1  0
  7 18  1  0
M  END
