
     RDKit          3D

 21 22  0  0  0  0  0  0  0  0999 V2000
    1.8998   -1.3940   -0.0514 C   0  0  0  0  0  0  0  0  0  0  0  0
    1.0968   -0.2240    0.3317 C   0  0  0  0  0  0  0  0  0  0  0  0
    0.7207   -0.1998    1.6867 O   0  0  0  0  0  0  0  0  0  0  0  0
    0.0220    1.0302    1.7176 C   0  0  0  0  0  0  0  0  0  0  0  0
   -0.9178    0.9996    0.5656 C   0  0  0  0  0  0  0  0  0  0  0  0
   -0.5223    1.3726   -0.7990 C   0  0  0  0  0  0  0  0  0  0  0  0
   -1.4785    1.4949   -1.7679 O   0  0  0  0  0  0  0  0  0  0  0  0
   -0.1928   -0.0296   -0.3643 C   0  0  0  0  0  0  0  0  0  0  0  0
   -1.0475   -1.1361   -0.8469 C   0  0  0  0  0  0  0  0  0  0  0  0
    1.3789   -2.2649   -0.4300 H   0  0  0  0  0  0  0  0  0  0  0  0
    2.5168   -1.7434    0.8242 H   0  0  0  0  0  0  0  0  0  0  0  0
    2.6410   -1.0941   -0.8494 H   0  0  0  0  0  0  0  0  0  0  0  0
    1.7396    0.6975    0.2050 H   0  0  0  0  0  0  0  0  0  0  0  0
    0.6841    1.8894    1.7715 H   0  0  0  0  0  0  0  0  0  0  0  0
   -0.5973    0.9968    2.6611 H   0  0  0  0  0  0  0  0  0  0  0  0
   -1.9928    0.8052    0.7531 H   0  0  0  0  0  0  0  0  0  0  0  0
    0.3366    2.0931   -0.8659 H   0  0  0  0  0  0  0  0  0  0  0  0
   -2.2772    0.9754   -1.5963 H   0  0  0  0  0  0  0  0  0  0  0  0
   -1.4130   -0.9381   -1.8824 H   0  0  0  0  0  0  0  0  0  0  0  0
   -1.9841   -1.1999   -0.2185 H   0  0  0  0  0  0  0  0  0  0  0  0
   -0.6132   -2.1307   -0.8445 H   0  0  0  0  0  0  0  0  0  0  0  0
  1  2  1  0
  2  3  1  0
  3  4  1  0
  4  5  1  0
  5  6  1  0
  6  7  1  0
  6  8  1  0
  8  9  1  0
  8  2  1  0
  8  5  1  0
  1 10  1  0
  1 11  1  0
  1 12  1  0
  2 13  1  0
  4 14  1  0
  4 15  1  0
  5 16  1  0
  6 17  1  0
  7 18  1  0
  9 19  1  0
  9 20  1  0
  9 21  1  0
M  END
