
     RDKit          3D

 21 21  0  0  0  0  0  0  0  0999 V2000
    2.1240    1.3841   -0.0623 C   0  0  0  0  0  0  0  0  0  0  0  0
    0.9448    0.6418    0.4938 C   0  0  0  0  0  0  0  0  0  0  0  0
   -0.2697    1.1923    0.1975 O   0  0  0  0  0  0  0  0  0  0  0  0
   -1.0469    0.2875   -0.4682 C   0  0  0  0  0  0  0  0  0  0  0  0
   -2.5201    0.3624   -0.0844 C   0  0  0  0  0  0  0  0  0  0  0  0
   -0.5678   -1.0822    0.0246 C   0  0  0  0  0  0  0  0  0  0  0  0
   -1.0234   -1.2020    1.3305 O   0  0  0  0  0  0  0  0  0  0  0  0
    0.9201   -0.8138    0.0945 C   0  0  0  0  0  0  0  0  0  0  0  0
    1.4327   -1.6321    1.1006 O   0  0  0  0  0  0  0  0  0  0  0  0
    3.0192    0.7190    0.0817 H   0  0  0  0  0  0  0  0  0  0  0  0
    2.3264    2.2881    0.5409 H   0  0  0  0  0  0  0  0  0  0  0  0
    1.9760    1.6846   -1.1051 H   0  0  0  0  0  0  0  0  0  0  0  0
    1.0683    0.6475    1.6156 H   0  0  0  0  0  0  0  0  0  0  0  0
   -0.9846    0.3291   -1.5657 H   0  0  0  0  0  0  0  0  0  0  0  0
   -3.0082    1.2494   -0.5012 H   0  0  0  0  0  0  0  0  0  0  0  0
   -2.9882   -0.5513   -0.5566 H   0  0  0  0  0  0  0  0  0  0  0  0
   -2.6382    0.2743    1.0263 H   0  0  0  0  0  0  0  0  0  0  0  0
   -0.8472   -1.8923   -0.6352 H   0  0  0  0  0  0  0  0  0  0  0  0
   -0.7623   -0.3368    1.7847 H   0  0  0  0  0  0  0  0  0  0  0  0
    1.4228   -0.9908   -0.8832 H   0  0  0  0  0  0  0  0  0  0  0  0
    1.4225   -2.5588    0.7600 H   0  0  0  0  0  0  0  0  0  0  0  0
  1  2  1  0
  2  3  1  0
  3  4  1  0
  4  5  1  0
  4  6  1  0
  6  7  1  0
  6  8  1  0
  8  9  1  0
  8  2  1  0
  1 10  1  0
  1 11  1  0
  1 12  1  0
  2 13  1  0
  4 14  1  0
  5 15  1  0
  5 16  1  0
  5 17  1  0
  6 18  1  0
  7 19  1  0
  8 20  1  0
  9 21  1  0
M  END
