
     RDKit          3D

 17 17  0  0  0  0  0  0  0  0999 V2000
    2.3797    0.1275    0.1541 C   0  0  0  0  0  0  0  0  0  0  0  0
    0.9843    0.6255   -0.0272 C   0  0  0  0  0  0  0  0  0  0  0  0
    0.2705    0.6312    1.2000 O   0  0  0  0  0  0  0  0  0  0  0  0
   -0.5657   -0.4883    1.2178 C   0  0  0  0  0  0  0  0  0  0  0  0
   -0.9108   -1.2165    2.1638 O   0  0  0  0  0  0  0  0  0  0  0  0
   -1.0003   -0.6624   -0.2107 C   0  0  0  0  0  0  0  0  0  0  0  0
   -2.2120    0.2193   -0.3969 C   0  0  0  0  0  0  0  0  0  0  0  0
    0.1740   -0.2133   -0.9531 C   0  0  0  0  0  0  0  0  0  0  0  0
    0.4632   -0.4582   -2.1029 O   0  0  0  0  0  0  0  0  0  0  0  0
    2.8492   -0.1602   -0.7860 H   0  0  0  0  0  0  0  0  0  0  0  0
    2.4403   -0.6685    0.9327 H   0  0  0  0  0  0  0  0  0  0  0  0
    2.9825    0.9820    0.5719 H   0  0  0  0  0  0  0  0  0  0  0  0
    1.0411    1.6459   -0.4798 H   0  0  0  0  0  0  0  0  0  0  0  0
   -1.2859   -1.7055   -0.3751 H   0  0  0  0  0  0  0  0  0  0  0  0
   -1.9832    1.2881   -0.2760 H   0  0  0  0  0  0  0  0  0  0  0  0
   -2.6794    0.0977   -1.3908 H   0  0  0  0  0  0  0  0  0  0  0  0
   -2.9476   -0.0443    0.3919 H   0  0  0  0  0  0  0  0  0  0  0  0
  1  2  1  0
  2  3  1  0
  3  4  1  0
  4  5  2  0
  4  6  1  0
  6  7  1  0
  6  8  1  0
  8  9  2  0
  8  2  1  0
  1 10  1  0
  1 11  1  0
  1 12  1  0
  2 13  1  0
  6 14  1  0
  7 15  1  0
  7 16  1  0
  7 17  1  0
M  END
