
     RDKit          3D

 15 16  0  0  0  0  0  0  0  0999 V2000
   -1.9355    0.4539    0.3692 C   0  0  0  0  0  0  0  0  0  0  0  0
   -1.3570   -0.5785   -0.5754 C   0  0  0  0  0  0  0  0  0  0  0  0
   -0.5541   -0.1530   -1.6239 O   0  0  0  0  0  0  0  0  0  0  0  0
    0.1302   -0.7346   -0.4973 C   0  0  0  0  0  0  0  0  0  0  0  0
    0.9047    0.3244    0.2592 C   0  0  0  0  0  0  0  0  0  0  0  0
    2.4036    0.1690    0.1568 C   0  0  0  0  0  0  0  0  0  0  0  0
    1.6305   -0.0583    1.3816 O   0  0  0  0  0  0  0  0  0  0  0  0
   -2.9713    0.1366    0.6109 H   0  0  0  0  0  0  0  0  0  0  0  0
   -1.3664    0.4651    1.3187 H   0  0  0  0  0  0  0  0  0  0  0  0
   -1.9224    1.4633   -0.0973 H   0  0  0  0  0  0  0  0  0  0  0  0
   -1.9213   -1.5085   -0.7820 H   0  0  0  0  0  0  0  0  0  0  0  0
    0.6192   -1.6952   -0.6722 H   0  0  0  0  0  0  0  0  0  0  0  0
    0.5004    1.3597    0.2298 H   0  0  0  0  0  0  0  0  0  0  0  0
    2.8446   -0.7466   -0.2376 H   0  0  0  0  0  0  0  0  0  0  0  0
    2.9948    1.1027    0.1673 H   0  0  0  0  0  0  0  0  0  0  0  0
  1  2  1  0
  2  3  1  0
  3  4  1  0
  4  5  1  0
  5  6  1  0
  6  7  1  0
  4  2  1  0
  7  5  1  0
  1  8  1  0
  1  9  1  0
  1 10  1  0
  2 11  1  0
  4 12  1  0
  5 13  1  0
  6 14  1  0
  6 15  1  0
M  END
