
     RDKit          3D

 19 20  0  0  0  0  0  0  0  0999 V2000
    2.1025   -0.4962    0.5479 C   0  0  0  0  0  0  0  0  0  0  0  0
    1.0733    0.4771    0.1447 C   0  0  0  0  0  0  0  0  0  0  0  0
    0.1705    0.8461    1.1219 O   0  0  0  0  0  0  0  0  0  0  0  0
   -1.0810    1.0287    0.5561 C   0  0  0  0  0  0  0  0  0  0  0  0
   -1.7247   -0.3654    0.4725 C   0  0  0  0  0  0  0  0  0  0  0  0
   -0.7032   -1.0638   -0.4160 C   0  0  0  0  0  0  0  0  0  0  0  0
    0.1709    0.0339   -0.9865 C   0  0  0  0  0  0  0  0  0  0  0  0
   -0.7904    1.1775   -0.9035 C   0  0  0  0  0  0  0  0  0  0  0  0
   -1.1902    1.9514   -1.7340 O   0  0  0  0  0  0  0  0  0  0  0  0
    1.8933   -1.5581    0.3157 H   0  0  0  0  0  0  0  0  0  0  0  0
    3.0429   -0.2626   -0.0327 H   0  0  0  0  0  0  0  0  0  0  0  0
    2.3789   -0.3630    1.6126 H   0  0  0  0  0  0  0  0  0  0  0  0
    1.5829    1.4360   -0.1679 H   0  0  0  0  0  0  0  0  0  0  0  0
   -1.7072    1.7781    0.9827 H   0  0  0  0  0  0  0  0  0  0  0  0
   -2.6896   -0.2656   -0.0769 H   0  0  0  0  0  0  0  0  0  0  0  0
   -1.8228   -0.8329    1.4516 H   0  0  0  0  0  0  0  0  0  0  0  0
   -1.1940   -1.6449   -1.2209 H   0  0  0  0  0  0  0  0  0  0  0  0
   -0.1321   -1.7343    0.2594 H   0  0  0  0  0  0  0  0  0  0  0  0
    0.6197   -0.1420   -1.9267 H   0  0  0  0  0  0  0  0  0  0  0  0
  1  2  1  0
  2  3  1  0
  3  4  1  0
  4  5  1  0
  5  6  1  0
  6  7  1  0
  7  8  1  0
  8  9  2  0
  7  2  1  0
  8  4  1  0
  1 10  1  0
  1 11  1  0
  1 12  1  0
  2 13  1  0
  4 14  1  0
  5 15  1  0
  5 16  1  0
  6 17  1  0
  6 18  1  0
  7 19  1  0
M  END
