
     RDKit          3D

 17 18  0  0  0  0  0  0  0  0999 V2000
    2.2174   -0.1969   -0.2340 C   0  0  0  0  0  0  0  0  0  0  0  0
    0.7487   -0.0905   -0.4626 C   0  0  0  0  0  0  0  0  0  0  0  0
    0.3884    1.2643   -0.4983 O   0  0  0  0  0  0  0  0  0  0  0  0
   -0.7155    1.3661    0.3374 C   0  0  0  0  0  0  0  0  0  0  0  0
   -0.3051    0.5362    1.4116 O   0  0  0  0  0  0  0  0  0  0  0  0
   -0.0888   -0.6389    0.6521 C   0  0  0  0  0  0  0  0  0  0  0  0
   -1.4860   -0.8461    0.0849 C   0  0  0  0  0  0  0  0  0  0  0  0
   -1.8143    0.5668   -0.2332 C   0  0  0  0  0  0  0  0  0  0  0  0
   -2.7641    0.9926   -0.8262 O   0  0  0  0  0  0  0  0  0  0  0  0
    2.4343   -0.0366    0.8207 H   0  0  0  0  0  0  0  0  0  0  0  0
    2.5548   -1.1873   -0.5912 H   0  0  0  0  0  0  0  0  0  0  0  0
    2.7165    0.5510   -0.9040 H   0  0  0  0  0  0  0  0  0  0  0  0
    0.4451   -0.5059   -1.4576 H   0  0  0  0  0  0  0  0  0  0  0  0
   -0.9633    2.3676    0.6434 H   0  0  0  0  0  0  0  0  0  0  0  0
    0.3086   -1.4609    1.2074 H   0  0  0  0  0  0  0  0  0  0  0  0
   -1.4790   -1.4978   -0.8115 H   0  0  0  0  0  0  0  0  0  0  0  0
   -2.1977   -1.1837    0.8611 H   0  0  0  0  0  0  0  0  0  0  0  0
  1  2  1  0
  2  3  1  0
  3  4  1  0
  4  5  1  0
  5  6  1  0
  6  7  1  0
  7  8  1  0
  8  9  2  0
  6  2  1  0
  8  4  1  0
  1 10  1  0
  1 11  1  0
  1 12  1  0
  2 13  1  0
  4 14  1  0
  6 15  1  0
  7 16  1  0
  7 17  1  0
M  END
