
     RDKit          3D

 19 21  0  0  0  0  0  0  0  0999 V2000
    2.6398   -0.3874   -0.3227 C   0  0  0  0  0  0  0  0  0  0  0  0
    1.5672    0.4601    0.2922 C   0  0  0  0  0  0  0  0  0  0  0  0
    0.8287    1.2370   -0.6166 O   0  0  0  0  0  0  0  0  0  0  0  0
   -0.1540    0.2779   -0.7196 C   0  0  0  0  0  0  0  0  0  0  0  0
   -1.5513    0.7026   -0.3708 C   0  0  0  0  0  0  0  0  0  0  0  0
   -2.4389   -0.4353    0.0955 C   0  0  0  0  0  0  0  0  0  0  0  0
   -1.6802    0.4355    1.0684 C   0  0  0  0  0  0  0  0  0  0  0  0
   -0.4709    0.0014    1.5724 O   0  0  0  0  0  0  0  0  0  0  0  0
    0.3209   -0.3955    0.5267 C   0  0  0  0  0  0  0  0  0  0  0  0
    2.2369   -0.8376   -1.2388 H   0  0  0  0  0  0  0  0  0  0  0  0
    2.8645   -1.2221    0.3821 H   0  0  0  0  0  0  0  0  0  0  0  0
    3.5646    0.1334   -0.5566 H   0  0  0  0  0  0  0  0  0  0  0  0
    1.8264    0.9788    1.2344 H   0  0  0  0  0  0  0  0  0  0  0  0
   -0.0767   -0.3183   -1.6568 H   0  0  0  0  0  0  0  0  0  0  0  0
   -2.0369    1.5422   -0.8867 H   0  0  0  0  0  0  0  0  0  0  0  0
   -3.5327   -0.3369    0.0335 H   0  0  0  0  0  0  0  0  0  0  0  0
   -2.0833   -1.4710   -0.0488 H   0  0  0  0  0  0  0  0  0  0  0  0
   -2.2945    1.1094    1.6806 H   0  0  0  0  0  0  0  0  0  0  0  0
    0.4705   -1.4741    0.3832 H   0  0  0  0  0  0  0  0  0  0  0  0
  1  2  1  0
  2  3  1  0
  3  4  1  0
  4  5  1  0
  5  6  1  0
  6  7  1  0
  7  8  1  0
  8  9  1  0
  9  2  1  0
  9  4  1  0
  7  5  1  0
  1 10  1  0
  1 11  1  0
  1 12  1  0
  2 13  1  0
  4 14  1  0
  5 15  1  0
  6 16  1  0
  6 17  1  0
  7 18  1  0
  9 19  1  0
M  END
