
     RDKit          3D

 19 20  0  0  0  0  0  0  0  0999 V2000
   -2.6511   -0.1289    0.5394 C   0  0  0  0  0  0  0  0  0  0  0  0
   -1.4074    0.7665    0.3979 C   0  0  0  0  0  0  0  0  0  0  0  0
   -1.1874    1.3120   -0.7261 O   0  0  0  0  0  0  0  0  0  0  0  0
   -0.3874    0.3191   -0.4630 C   0  0  0  0  0  0  0  0  0  0  0  0
    0.2276   -0.7948    0.1092 C   0  0  0  0  0  0  0  0  0  0  0  0
    1.6139   -0.5292   -0.4787 C   0  0  0  0  0  0  0  0  0  0  0  0
    2.6226   -0.0759    0.5185 C   0  0  0  0  0  0  0  0  0  0  0  0
    2.5653   -0.3660    1.6978 O   0  0  0  0  0  0  0  0  0  0  0  0
    0.8396    0.6099   -1.1479 C   0  0  0  0  0  0  0  0  0  0  0  0
   -2.8354   -0.6443   -0.4408 H   0  0  0  0  0  0  0  0  0  0  0  0
   -2.5683   -0.8138    1.3839 H   0  0  0  0  0  0  0  0  0  0  0  0
   -3.5031    0.5959    0.6404 H   0  0  0  0  0  0  0  0  0  0  0  0
   -1.2354    1.3146    1.3572 H   0  0  0  0  0  0  0  0  0  0  0  0
   -0.1172   -1.7929   -0.2998 H   0  0  0  0  0  0  0  0  0  0  0  0
    0.3778   -0.9566    1.2060 H   0  0  0  0  0  0  0  0  0  0  0  0
    1.9941   -1.2802   -1.1677 H   0  0  0  0  0  0  0  0  0  0  0  0
    3.4372    0.5436    0.1388 H   0  0  0  0  0  0  0  0  0  0  0  0
    0.7819    0.4035   -2.2579 H   0  0  0  0  0  0  0  0  0  0  0  0
    1.4324    1.5174   -1.0073 H   0  0  0  0  0  0  0  0  0  0  0  0
  1  2  1  0
  2  3  1  0
  3  4  1  0
  4  5  1  0
  5  6  1  0
  6  7  1  0
  7  8  2  0
  6  9  1  0
  4  2  1  0
  9  4  1  0
  1 10  1  0
  1 11  1  0
  1 12  1  0
  2 13  1  0
  5 14  1  0
  5 15  1  0
  6 16  1  0
  7 17  1  0
  9 18  1  0
  9 19  1  0
M  END
