
     RDKit          3D

 19 19  0  0  0  0  0  0  0  0999 V2000
   -2.4302   -0.4804   -0.2801 C   0  0  0  0  0  0  0  0  0  0  0  0
   -1.0686   -0.3664    0.3713 C   0  0  0  0  0  0  0  0  0  0  0  0
   -0.9583    0.8968    0.9211 O   0  0  0  0  0  0  0  0  0  0  0  0
    0.2149    1.5508    0.5591 C   0  0  0  0  0  0  0  0  0  0  0  0
    1.3134    0.9170    1.1171 O   0  0  0  0  0  0  0  0  0  0  0  0
    2.0660    0.3499    0.0903 C   0  0  0  0  0  0  0  0  0  0  0  0
    1.4299   -1.0137   -0.1990 C   0  0  0  0  0  0  0  0  0  0  0  0
    0.0017   -0.7039   -0.5786 C   0  0  0  0  0  0  0  0  0  0  0  0
   -0.2129   -0.7531   -1.7580 O   0  0  0  0  0  0  0  0  0  0  0  0
   -3.1724   -0.5064    0.5603 H   0  0  0  0  0  0  0  0  0  0  0  0
   -2.5347   -1.4263   -0.8335 H   0  0  0  0  0  0  0  0  0  0  0  0
   -2.6311    0.4223   -0.8808 H   0  0  0  0  0  0  0  0  0  0  0  0
   -1.0238   -1.1321    1.1953 H   0  0  0  0  0  0  0  0  0  0  0  0
    0.1604    2.5631    1.0399 H   0  0  0  0  0  0  0  0  0  0  0  0
    0.3029    1.7075   -0.5276 H   0  0  0  0  0  0  0  0  0  0  0  0
    3.1352    0.2346    0.3946 H   0  0  0  0  0  0  0  0  0  0  0  0
    1.9693    0.9266   -0.8649 H   0  0  0  0  0  0  0  0  0  0  0  0
    1.9701   -1.5125   -1.0185 H   0  0  0  0  0  0  0  0  0  0  0  0
    1.4681   -1.6738    0.6919 H   0  0  0  0  0  0  0  0  0  0  0  0
  1  2  1  0
  2  3  1  0
  3  4  1  0
  4  5  1  0
  5  6  1  0
  6  7  1  0
  7  8  1  0
  8  9  2  0
  8  2  1  0
  1 10  1  0
  1 11  1  0
  1 12  1  0
  2 13  1  0
  4 14  1  0
  4 15  1  0
  6 16  1  0
  6 17  1  0
  7 18  1  0
  7 19  1  0
M  END
