
     RDKit          3D

 19 20  0  0  0  0  0  0  0  0999 V2000
   -1.4774    0.9649    0.8282 C   0  0  0  0  0  0  0  0  0  0  0  0
   -0.4369    0.7807   -0.2327 C   0  0  0  0  0  0  0  0  0  0  0  0
   -1.1143    0.3182   -1.3867 O   0  0  0  0  0  0  0  0  0  0  0  0
   -1.2072   -1.0429   -1.2282 C   0  0  0  0  0  0  0  0  0  0  0  0
   -0.1119   -1.4526   -0.4577 O   0  0  0  0  0  0  0  0  0  0  0  0
    0.5095   -0.3345    0.0050 C   0  0  0  0  0  0  0  0  0  0  0  0
    1.3102   -0.3802    1.2280 C   0  0  0  0  0  0  0  0  0  0  0  0
    2.4144   -0.8192    0.4617 O   0  0  0  0  0  0  0  0  0  0  0  0
    1.8710   -0.0600   -0.5917 C   0  0  0  0  0  0  0  0  0  0  0  0
   -1.0928    1.0144    1.8489 H   0  0  0  0  0  0  0  0  0  0  0  0
   -2.0084    1.9327    0.5884 H   0  0  0  0  0  0  0  0  0  0  0  0
   -2.2882    0.1888    0.7323 H   0  0  0  0  0  0  0  0  0  0  0  0
    0.0246    1.7419   -0.4741 H   0  0  0  0  0  0  0  0  0  0  0  0
   -2.1094   -1.3690   -0.6727 H   0  0  0  0  0  0  0  0  0  0  0  0
   -1.1117   -1.5093   -2.2254 H   0  0  0  0  0  0  0  0  0  0  0  0
    1.5444    0.6342    1.6166 H   0  0  0  0  0  0  0  0  0  0  0  0
    1.0731   -1.1351    1.9987 H   0  0  0  0  0  0  0  0  0  0  0  0
    2.1855    0.9980   -0.4442 H   0  0  0  0  0  0  0  0  0  0  0  0
    2.0257   -0.4708   -1.5944 H   0  0  0  0  0  0  0  0  0  0  0  0
  1  2  1  0
  2  3  1  0
  3  4  1  0
  4  5  1  0
  5  6  1  0
  6  7  1  0
  7  8  1  0
  8  9  1  0
  6  2  1  0
  9  6  1  0
  1 10  1  0
  1 11  1  0
  1 12  1  0
  2 13  1  0
  4 14  1  0
  4 15  1  0
  7 16  1  0
  7 17  1  0
  9 18  1  0
  9 19  1  0
M  END
