
     RDKit          3D

 19 20  0  0  0  0  0  0  0  0999 V2000
   -2.2165   -0.7002   -0.4063 C   0  0  0  0  0  0  0  0  0  0  0  0
   -1.0611    0.0074    0.2587 C   0  0  0  0  0  0  0  0  0  0  0  0
   -1.1701    1.4081    0.0612 O   0  0  0  0  0  0  0  0  0  0  0  0
    0.1468    1.8953   -0.1034 C   0  0  0  0  0  0  0  0  0  0  0  0
    0.9821    0.7843    0.3679 C   0  0  0  0  0  0  0  0  0  0  0  0
    1.5586   -0.3825   -0.2033 C   0  0  0  0  0  0  0  0  0  0  0  0
    2.0035   -1.5109    0.6508 C   0  0  0  0  0  0  0  0  0  0  0  0
    1.3303   -1.8889    1.5894 O   0  0  0  0  0  0  0  0  0  0  0  0
    0.1784   -0.2791   -0.4956 C   0  0  0  0  0  0  0  0  0  0  0  0
   -3.0424   -0.9246    0.2739 H   0  0  0  0  0  0  0  0  0  0  0  0
   -2.5327   -0.0622   -1.2614 H   0  0  0  0  0  0  0  0  0  0  0  0
   -1.8155   -1.6511   -0.8167 H   0  0  0  0  0  0  0  0  0  0  0  0
   -1.0120   -0.1407    1.3411 H   0  0  0  0  0  0  0  0  0  0  0  0
    0.3651    2.1402   -1.1535 H   0  0  0  0  0  0  0  0  0  0  0  0
    0.2315    2.7740    0.5454 H   0  0  0  0  0  0  0  0  0  0  0  0
    0.8361    0.6853    1.4902 H   0  0  0  0  0  0  0  0  0  0  0  0
    2.3155   -0.1792   -1.0214 H   0  0  0  0  0  0  0  0  0  0  0  0
    2.9317   -2.0128    0.4511 H   0  0  0  0  0  0  0  0  0  0  0  0
   -0.0294    0.0377   -1.5681 H   0  0  0  0  0  0  0  0  0  0  0  0
  1  2  1  0
  2  3  1  0
  3  4  1  0
  4  5  1  0
  5  6  1  0
  6  7  1  0
  7  8  2  0
  6  9  1  0
  9  2  1  0
  9  5  1  0
  1 10  1  0
  1 11  1  0
  1 12  1  0
  2 13  1  0
  4 14  1  0
  4 15  1  0
  5 16  1  0
  6 17  1  0
  7 18  1  0
  9 19  1  0
M  END
