
     RDKit          3D

 17 18  0  0  0  0  0  0  0  0999 V2000
    2.0918    0.6302    0.0656 C   0  0  0  0  0  0  0  0  0  0  0  0
    0.7333    0.3046   -0.4707 C   0  0  0  0  0  0  0  0  0  0  0  0
   -0.1009    1.4248   -0.6277 O   0  0  0  0  0  0  0  0  0  0  0  0
   -1.3511    1.2183   -0.0812 C   0  0  0  0  0  0  0  0  0  0  0  0
   -2.3685    1.8950   -0.3358 O   0  0  0  0  0  0  0  0  0  0  0  0
   -1.2802    0.0755    0.8433 C   0  0  0  0  0  0  0  0  0  0  0  0
   -2.0141   -1.0379    0.5241 O   0  0  0  0  0  0  0  0  0  0  0  0
   -1.0762   -1.3941   -0.4510 C   0  0  0  0  0  0  0  0  0  0  0  0
   -0.0374   -0.6400    0.3837 C   0  0  0  0  0  0  0  0  0  0  0  0
    2.1025    0.7351    1.1683 H   0  0  0  0  0  0  0  0  0  0  0  0
    2.5274    1.4748   -0.4752 H   0  0  0  0  0  0  0  0  0  0  0  0
    2.7518   -0.2549   -0.1612 H   0  0  0  0  0  0  0  0  0  0  0  0
    0.8811   -0.1692   -1.4727 H   0  0  0  0  0  0  0  0  0  0  0  0
   -1.2758    0.3725    1.9126 H   0  0  0  0  0  0  0  0  0  0  0  0
   -1.2436   -0.9328   -1.4388 H   0  0  0  0  0  0  0  0  0  0  0  0
   -0.8325   -2.4684   -0.5047 H   0  0  0  0  0  0  0  0  0  0  0  0
    0.4925   -1.2335    1.1214 H   0  0  0  0  0  0  0  0  0  0  0  0
  1  2  1  0
  2  3  1  0
  3  4  1  0
  4  5  2  0
  4  6  1  0
  6  7  1  0
  7  8  1  0
  8  9  1  0
  9  2  1  0
  9  6  1  0
  1 10  1  0
  1 11  1  0
  1 12  1  0
  2 13  1  0
  6 14  1  0
  8 15  1  0
  8 16  1  0
  9 17  1  0
M  END
