
     RDKit          3D

 14 14  0  0  0  0  0  0  0  0999 V2000
    1.5731    0.1707    0.0339 C   0  0  0  0  0  0  0  0  0  0  0  0
    0.3092   -0.2757   -0.6772 C   0  0  0  0  0  0  0  0  0  0  0  0
   -0.2933    0.8238   -1.2772 O   0  0  0  0  0  0  0  0  0  0  0  0
   -1.2318    0.9000   -0.2413 C   0  0  0  0  0  0  0  0  0  0  0  0
   -0.8886   -0.4714    0.2067 C   0  0  0  0  0  0  0  0  0  0  0  0
   -0.5017   -0.6371    1.5231 O   0  0  0  0  0  0  0  0  0  0  0  0
    1.7046   -0.2870    1.0171 H   0  0  0  0  0  0  0  0  0  0  0  0
    1.6070    1.2753    0.1591 H   0  0  0  0  0  0  0  0  0  0  0  0
    2.4172   -0.0842   -0.6621 H   0  0  0  0  0  0  0  0  0  0  0  0
    0.4461   -1.1642   -1.3267 H   0  0  0  0  0  0  0  0  0  0  0  0
   -1.0852    1.7224    0.4690 H   0  0  0  0  0  0  0  0  0  0  0  0
   -2.2506    0.9269   -0.7056 H   0  0  0  0  0  0  0  0  0  0  0  0
   -1.5709   -1.2967   -0.1297 H   0  0  0  0  0  0  0  0  0  0  0  0
   -0.2351   -1.6028    1.6110 H   0  0  0  0  0  0  0  0  0  0  0  0
  1  2  1  0
  2  3  1  0
  3  4  1  0
  4  5  1  0
  5  6  1  0
  5  2  1  0
  1  7  1  0
  1  8  1  0
  1  9  1  0
  2 10  1  0
  4 11  1  0
  4 12  1  0
  5 13  1  0
  6 14  1  0
M  END
