
     RDKit          3D

 19 21  0  0  0  0  0  0  0  0999 V2000
    3.0025   -0.0642   -0.2859 C   0  0  0  0  0  0  0  0  0  0  0  0
    1.6014    0.3732   -0.6448 C   0  0  0  0  0  0  0  0  0  0  0  0
    1.0916    1.5425   -0.0482 O   0  0  0  0  0  0  0  0  0  0  0  0
    0.5468    0.2571    0.3971 C   0  0  0  0  0  0  0  0  0  0  0  0
   -0.8132    0.1132    0.1975 C   0  0  0  0  0  0  0  0  0  0  0  0
   -1.6844   -1.0079    0.5730 C   0  0  0  0  0  0  0  0  0  0  0  0
   -2.5666    0.0857    0.0284 C   0  0  0  0  0  0  0  0  0  0  0  0
   -1.5693    0.2490   -1.0705 C   0  0  0  0  0  0  0  0  0  0  0  0
   -1.7928    0.9629    0.7691 O   0  0  0  0  0  0  0  0  0  0  0  0
    3.4296    0.7039    0.4237 H   0  0  0  0  0  0  0  0  0  0  0  0
    2.9498   -0.9979    0.2926 H   0  0  0  0  0  0  0  0  0  0  0  0
    3.6450   -0.1365   -1.1836 H   0  0  0  0  0  0  0  0  0  0  0  0
    1.2873    0.3080   -1.7241 H   0  0  0  0  0  0  0  0  0  0  0  0
    0.9495    0.0866    1.4349 H   0  0  0  0  0  0  0  0  0  0  0  0
   -1.8460   -1.2340    1.6290 H   0  0  0  0  0  0  0  0  0  0  0  0
   -1.5707   -1.8905   -0.1031 H   0  0  0  0  0  0  0  0  0  0  0  0
   -3.5710    0.0634   -0.0437 H   0  0  0  0  0  0  0  0  0  0  0  0
   -1.5183    1.2245   -1.5632 H   0  0  0  0  0  0  0  0  0  0  0  0
   -1.5712   -0.6387   -1.7358 H   0  0  0  0  0  0  0  0  0  0  0  0
  1  2  1  0
  2  3  1  0
  3  4  1  0
  4  5  1  0
  5  6  1  0
  6  7  1  0
  7  8  1  0
  7  9  1  0
  4  2  1  0
  8  5  1  0
  9  5  1  0
  1 10  1  0
  1 11  1  0
  1 12  1  0
  2 13  1  0
  4 14  1  0
  6 15  1  0
  6 16  1  0
  7 17  1  0
  8 18  1  0
  8 19  1  0
M  END
