
     RDKit          3D

 17 18  0  0  0  0  0  0  0  0999 V2000
    2.2104   -0.0843    0.3526 C   0  0  0  0  0  0  0  0  0  0  0  0
    1.1333   -0.7755   -0.4892 C   0  0  0  0  0  0  0  0  0  0  0  0
    0.3548   -1.7503    0.0945 O   0  0  0  0  0  0  0  0  0  0  0  0
   -0.1887   -0.5472   -0.1822 C   0  0  0  0  0  0  0  0  0  0  0  0
   -1.3217   -0.2954   -1.0812 C   0  0  0  0  0  0  0  0  0  0  0  0
   -1.6009    0.9841   -0.2824 C   0  0  0  0  0  0  0  0  0  0  0  0
   -0.8065    0.3319    0.8566 C   0  0  0  0  0  0  0  0  0  0  0  0
    3.1715   -0.6080    0.3085 H   0  0  0  0  0  0  0  0  0  0  0  0
    2.2626    0.9594   -0.0653 H   0  0  0  0  0  0  0  0  0  0  0  0
    1.8185    0.0239    1.3772 H   0  0  0  0  0  0  0  0  0  0  0  0
    1.4871   -0.9476   -1.5427 H   0  0  0  0  0  0  0  0  0  0  0  0
   -2.2147   -0.9613   -1.0002 H   0  0  0  0  0  0  0  0  0  0  0  0
   -1.0479   -0.0821   -2.1322 H   0  0  0  0  0  0  0  0  0  0  0  0
   -2.6523    1.1442   -0.0417 H   0  0  0  0  0  0  0  0  0  0  0  0
   -1.0213    1.8640   -0.6318 H   0  0  0  0  0  0  0  0  0  0  0  0
   -1.4910   -0.2515    1.4988 H   0  0  0  0  0  0  0  0  0  0  0  0
   -0.0932    0.9958    1.3484 H   0  0  0  0  0  0  0  0  0  0  0  0
  1  2  1  0
  2  3  1  0
  3  4  1  0
  4  5  1  0
  5  6  1  0
  6  7  1  0
  4  2  1  0
  7  4  1  0
  1  8  1  0
  1  9  1  0
  1 10  1  0
  2 11  1  0
  5 12  1  0
  5 13  1  0
  6 14  1  0
  6 15  1  0
  7 16  1  0
  7 17  1  0
M  END
