
     RDKit          3D

 19 20  0  0  0  0  0  0  0  0999 V2000
    2.7388   -0.3892   -0.2346 C   0  0  0  0  0  0  0  0  0  0  0  0
    1.5134    0.4522   -0.0640 C   0  0  0  0  0  0  0  0  0  0  0  0
    1.4809    1.7349    0.1531 O   0  0  0  0  0  0  0  0  0  0  0  0
    0.2328    2.0829    0.2411 C   0  0  0  0  0  0  0  0  0  0  0  0
   -0.5848    0.9963    0.0769 C   0  0  0  0  0  0  0  0  0  0  0  0
    0.2441   -0.0858   -0.1251 C   0  0  0  0  0  0  0  0  0  0  0  0
   -0.5907   -1.3127   -0.3125 C   0  0  0  0  0  0  0  0  0  0  0  0
   -1.8498   -0.9137    0.4684 C   0  0  0  0  0  0  0  0  0  0  0  0
   -1.9884    0.5418    0.0331 C   0  0  0  0  0  0  0  0  0  0  0  0
    3.6261    0.2011    0.0654 H   0  0  0  0  0  0  0  0  0  0  0  0
    2.6484   -1.2811    0.4385 H   0  0  0  0  0  0  0  0  0  0  0  0
    2.8076   -0.7734   -1.2658 H   0  0  0  0  0  0  0  0  0  0  0  0
   -0.0573    3.1286    0.4242 H   0  0  0  0  0  0  0  0  0  0  0  0
   -0.8125   -1.3829   -1.3849 H   0  0  0  0  0  0  0  0  0  0  0  0
   -0.1295   -2.2055    0.1078 H   0  0  0  0  0  0  0  0  0  0  0  0
   -2.7111   -1.5235    0.2101 H   0  0  0  0  0  0  0  0  0  0  0  0
   -1.5746   -0.8963    1.5302 H   0  0  0  0  0  0  0  0  0  0  0  0
   -2.6618    1.1147    0.6734 H   0  0  0  0  0  0  0  0  0  0  0  0
   -2.3315    0.5118   -1.0353 H   0  0  0  0  0  0  0  0  0  0  0  0
  1  2  1  0
  2  3  1  0
  3  4  1  0
  4  5  2  0
  5  6  1  0
  6  7  1  0
  7  8  1  0
  8  9  1  0
  6  2  2  0
  9  5  1  0
  1 10  1  0
  1 11  1  0
  1 12  1  0
  4 13  1  0
  7 14  1  0
  7 15  1  0
  8 16  1  0
  8 17  1  0
  9 18  1  0
  9 19  1  0
M  END
