
     RDKit          3D

 16 17  0  0  0  0  0  0  0  0999 V2000
    2.2205   -0.4651    0.1654 C   0  0  0  0  0  0  0  0  0  0  0  0
    0.7078   -0.5746    0.1369 C   0  0  0  0  0  0  0  0  0  0  0  0
    0.1075   -0.7335    1.3695 O   0  0  0  0  0  0  0  0  0  0  0  0
   -0.9545    0.0350    0.9025 C   0  0  0  0  0  0  0  0  0  0  0  0
   -2.1539   -0.6162    0.3679 C   0  0  0  0  0  0  0  0  0  0  0  0
   -2.3014   -1.8182    0.2961 O   0  0  0  0  0  0  0  0  0  0  0  0
   -0.7301    1.4793    0.8457 C   0  0  0  0  0  0  0  0  0  0  0  0
   -0.0278    0.6832   -0.1669 C   0  0  0  0  0  0  0  0  0  0  0  0
    2.5550    0.5880    0.3088 H   0  0  0  0  0  0  0  0  0  0  0  0
    2.6645   -1.1508    0.9167 H   0  0  0  0  0  0  0  0  0  0  0  0
    2.6070   -0.7830   -0.8225 H   0  0  0  0  0  0  0  0  0  0  0  0
    0.4165   -1.4416   -0.5235 H   0  0  0  0  0  0  0  0  0  0  0  0
   -2.9657    0.0044    0.0118 H   0  0  0  0  0  0  0  0  0  0  0  0
   -1.5522    2.1469    0.5174 H   0  0  0  0  0  0  0  0  0  0  0  0
   -0.1552    1.9108    1.7159 H   0  0  0  0  0  0  0  0  0  0  0  0
   -0.4380    0.7355   -1.1999 H   0  0  0  0  0  0  0  0  0  0  0  0
  1  2  1  0
  2  3  1  0
  3  4  1  0
  4  5  1  0
  5  6  2  0
  4  7  1  0
  7  8  1  0
  8  2  1  0
  8  4  1  0
  1  9  1  0
  1 10  1  0
  1 11  1  0
  2 12  1  0
  5 13  1  0
  7 14  1  0
  7 15  1  0
  8 16  1  0
M  END
