
     RDKit          3D

 19 20  0  0  0  0  0  0  0  0999 V2000
    2.8653   -0.0453    0.2164 C   0  0  0  0  0  0  0  0  0  0  0  0
    1.3919   -0.3279    0.4575 C   0  0  0  0  0  0  0  0  0  0  0  0
    0.9521   -1.2142   -0.5173 O   0  0  0  0  0  0  0  0  0  0  0  0
   -0.3835   -0.8526   -0.7740 C   0  0  0  0  0  0  0  0  0  0  0  0
   -1.2605   -0.8722    0.4257 C   0  0  0  0  0  0  0  0  0  0  0  0
   -2.6168   -1.0202    0.1656 O   0  0  0  0  0  0  0  0  0  0  0  0
   -0.6293    0.4233   -0.0861 C   0  0  0  0  0  0  0  0  0  0  0  0
   -1.5738    1.4570   -0.5853 C   0  0  0  0  0  0  0  0  0  0  0  0
    0.6091    0.7967    0.3965 O   0  0  0  0  0  0  0  0  0  0  0  0
    3.4895   -0.7236    0.8643 H   0  0  0  0  0  0  0  0  0  0  0  0
    3.1180    1.0253    0.3897 H   0  0  0  0  0  0  0  0  0  0  0  0
    3.1654   -0.3131   -0.8329 H   0  0  0  0  0  0  0  0  0  0  0  0
    1.3227   -0.7640    1.4893 H   0  0  0  0  0  0  0  0  0  0  0  0
   -0.7904   -1.0888   -1.7645 H   0  0  0  0  0  0  0  0  0  0  0  0
   -0.8941   -1.1590    1.4189 H   0  0  0  0  0  0  0  0  0  0  0  0
   -3.1822   -0.4602    0.7658 H   0  0  0  0  0  0  0  0  0  0  0  0
   -2.5303    0.9601   -0.8529 H   0  0  0  0  0  0  0  0  0  0  0  0
   -1.8264    2.1402    0.2672 H   0  0  0  0  0  0  0  0  0  0  0  0
   -1.2267    2.0385   -1.4438 H   0  0  0  0  0  0  0  0  0  0  0  0
  1  2  1  0
  2  3  1  0
  3  4  1  0
  4  5  1  0
  5  6  1  0
  5  7  1  0
  7  8  1  0
  7  9  1  0
  9  2  1  0
  7  4  1  0
  1 10  1  0
  1 11  1  0
  1 12  1  0
  2 13  1  0
  4 14  1  0
  5 15  1  0
  6 16  1  0
  8 17  1  0
  8 18  1  0
  8 19  1  0
M  END
