
     RDKit          3D

 21 22  0  0  0  0  0  0  0  0999 V2000
    2.6261   -0.5928    0.1695 C   0  0  0  0  0  0  0  0  0  0  0  0
    1.2246   -0.8145    0.6576 C   0  0  0  0  0  0  0  0  0  0  0  0
    0.6003    0.1466    1.4477 O   0  0  0  0  0  0  0  0  0  0  0  0
    0.1021   -0.0060    0.1554 C   0  0  0  0  0  0  0  0  0  0  0  0
    0.2892    1.1841   -0.7232 C   0  0  0  0  0  0  0  0  0  0  0  0
    1.5907    1.5626   -0.9212 O   0  0  0  0  0  0  0  0  0  0  0  0
   -1.2080   -0.7356   -0.0394 C   0  0  0  0  0  0  0  0  0  0  0  0
   -2.3682    0.0464   -0.5456 C   0  0  0  0  0  0  0  0  0  0  0  0
   -2.3410   -0.5510    0.8721 C   0  0  0  0  0  0  0  0  0  0  0  0
    2.6633   -0.5140   -0.9537 H   0  0  0  0  0  0  0  0  0  0  0  0
    3.1201    0.2931    0.6494 H   0  0  0  0  0  0  0  0  0  0  0  0
    3.2799   -1.4618    0.4106 H   0  0  0  0  0  0  0  0  0  0  0  0
    1.0132   -1.8483    0.9892 H   0  0  0  0  0  0  0  0  0  0  0  0
   -0.2443    2.0505   -0.2516 H   0  0  0  0  0  0  0  0  0  0  0  0
   -0.2601    0.9978   -1.6794 H   0  0  0  0  0  0  0  0  0  0  0  0
    1.8226    2.4396   -0.5152 H   0  0  0  0  0  0  0  0  0  0  0  0
   -1.1038   -1.7518   -0.5091 H   0  0  0  0  0  0  0  0  0  0  0  0
   -2.3055    1.1474   -0.6301 H   0  0  0  0  0  0  0  0  0  0  0  0
   -3.0839   -0.3940   -1.2721 H   0  0  0  0  0  0  0  0  0  0  0  0
   -2.3657    0.1917    1.6779 H   0  0  0  0  0  0  0  0  0  0  0  0
   -3.0516   -1.3902    1.0112 H   0  0  0  0  0  0  0  0  0  0  0  0
  1  2  1  0
  2  3  1  0
  3  4  1  0
  4  5  1  0
  5  6  1  0
  4  7  1  0
  7  8  1  0
  8  9  1  0
  4  2  1  0
  9  7  1  0
  1 10  1  0
  1 11  1  0
  1 12  1  0
  2 13  1  0
  5 14  1  0
  5 15  1  0
  6 16  1  0
  7 17  1  0
  8 18  1  0
  8 19  1  0
  9 20  1  0
  9 21  1  0
M  END
