
     RDKit          3D

 19 21  0  0  0  0  0  0  0  0999 V2000
    2.3182   -0.2338   -0.8077 C   0  0  0  0  0  0  0  0  0  0  0  0
    1.5164   -0.6764    0.4039 C   0  0  0  0  0  0  0  0  0  0  0  0
    0.4940   -1.6152    0.2150 O   0  0  0  0  0  0  0  0  0  0  0  0
    0.2026   -0.3237    0.5165 C   0  0  0  0  0  0  0  0  0  0  0  0
   -0.6387    0.1217    1.6328 C   0  0  0  0  0  0  0  0  0  0  0  0
   -1.2719    1.1912    0.7795 C   0  0  0  0  0  0  0  0  0  0  0  0
   -0.5763    1.8541   -0.1897 O   0  0  0  0  0  0  0  0  0  0  0  0
   -0.6134    0.5023   -0.4179 C   0  0  0  0  0  0  0  0  0  0  0  0
   -1.6066   -0.1145   -1.3464 C   0  0  0  0  0  0  0  0  0  0  0  0
    2.2478    0.8931   -0.8049 H   0  0  0  0  0  0  0  0  0  0  0  0
    1.8792   -0.5624   -1.7509 H   0  0  0  0  0  0  0  0  0  0  0  0
    3.3971   -0.4527   -0.7034 H   0  0  0  0  0  0  0  0  0  0  0  0
    2.1712   -0.9317    1.2689 H   0  0  0  0  0  0  0  0  0  0  0  0
   -1.4430   -0.6333    1.8807 H   0  0  0  0  0  0  0  0  0  0  0  0
   -0.1475    0.4966    2.5484 H   0  0  0  0  0  0  0  0  0  0  0  0
   -2.3505    1.3421    0.7877 H   0  0  0  0  0  0  0  0  0  0  0  0
   -2.2363    0.6906   -1.7743 H   0  0  0  0  0  0  0  0  0  0  0  0
   -1.1018   -0.7319   -2.0875 H   0  0  0  0  0  0  0  0  0  0  0  0
   -2.2404   -0.8162   -0.7308 H   0  0  0  0  0  0  0  0  0  0  0  0
  1  2  1  0
  2  3  1  0
  3  4  1  0
  4  5  1  0
  5  6  1  0
  6  7  1  0
  7  8  1  0
  8  9  1  0
  4  2  1  0
  8  6  1  0
  8  4  1  0
  1 10  1  0
  1 11  1  0
  1 12  1  0
  2 13  1  0
  5 14  1  0
  5 15  1  0
  6 16  1  0
  9 17  1  0
  9 18  1  0
  9 19  1  0
M  END
