
     RDKit          3D

 19 20  0  0  0  0  0  0  0  0999 V2000
   -2.9922    0.2373   -0.2381 C   0  0  0  0  0  0  0  0  0  0  0  0
   -1.7800    1.1235   -0.0306 C   0  0  0  0  0  0  0  0  0  0  0  0
   -0.9933    0.9202    1.0915 O   0  0  0  0  0  0  0  0  0  0  0  0
   -0.4171    0.6493   -0.2331 C   0  0  0  0  0  0  0  0  0  0  0  0
   -0.0508   -0.7765   -0.3641 C   0  0  0  0  0  0  0  0  0  0  0  0
    0.5197   -1.1437   -1.5804 O   0  0  0  0  0  0  0  0  0  0  0  0
    1.3932   -1.1814   -0.3910 C   0  0  0  0  0  0  0  0  0  0  0  0
    2.5122   -0.1881   -0.4355 C   0  0  0  0  0  0  0  0  0  0  0  0
    3.2700   -0.3146    0.7329 O   0  0  0  0  0  0  0  0  0  0  0  0
   -3.3369   -0.1376    0.7501 H   0  0  0  0  0  0  0  0  0  0  0  0
   -2.7650   -0.5958   -0.9325 H   0  0  0  0  0  0  0  0  0  0  0  0
   -3.8543    0.7922   -0.6674 H   0  0  0  0  0  0  0  0  0  0  0  0
   -1.9834    2.1927   -0.2348 H   0  0  0  0  0  0  0  0  0  0  0  0
    0.3171    1.3827   -0.5864 H   0  0  0  0  0  0  0  0  0  0  0  0
   -0.7149   -1.5733    0.0838 H   0  0  0  0  0  0  0  0  0  0  0  0
    1.6510   -2.2584   -0.2333 H   0  0  0  0  0  0  0  0  0  0  0  0
    3.1961   -0.4640   -1.2912 H   0  0  0  0  0  0  0  0  0  0  0  0
    2.2158    0.8675   -0.4853 H   0  0  0  0  0  0  0  0  0  0  0  0
    3.8129    0.4681    0.9358 H   0  0  0  0  0  0  0  0  0  0  0  0
  1  2  1  0
  2  3  1  0
  3  4  1  0
  4  5  1  0
  5  6  1  0
  6  7  1  0
  7  8  1  0
  8  9  1  0
  4  2  1  0
  7  5  1  0
  1 10  1  0
  1 11  1  0
  1 12  1  0
  2 13  1  0
  4 14  1  0
  5 15  1  0
  7 16  1  0
  8 17  1  0
  8 18  1  0
  9 19  1  0
M  END
