
     RDKit          3D

 23 24  0  0  0  0  0  0  0  0999 V2000
    3.5751   -0.0431   -0.0088 C   0  0  0  0  0  0  0  0  0  0  0  0
    2.2998    0.7269   -0.0229 C   0  0  0  0  0  0  0  0  0  0  0  0
    1.5363    0.4320   -1.2460 O   0  0  0  0  0  0  0  0  0  0  0  0
    0.9895    0.0191    0.0403 C   0  0  0  0  0  0  0  0  0  0  0  0
   -0.2332    0.7969    0.3893 C   0  0  0  0  0  0  0  0  0  0  0  0
   -1.4900   -0.0269    0.4203 C   0  0  0  0  0  0  0  0  0  0  0  0
   -2.7245    0.7951    0.7784 C   0  0  0  0  0  0  0  0  0  0  0  0
   -1.7308   -1.0126   -0.6822 C   0  0  0  0  0  0  0  0  0  0  0  0
   -1.4927   -1.4546    0.7720 C   0  0  0  0  0  0  0  0  0  0  0  0
    4.4203    0.6727   -0.2027 H   0  0  0  0  0  0  0  0  0  0  0  0
    3.6497   -0.8290   -0.7797 H   0  0  0  0  0  0  0  0  0  0  0  0
    3.8089   -0.5231    0.9619 H   0  0  0  0  0  0  0  0  0  0  0  0
    2.3493    1.8016    0.2142 H   0  0  0  0  0  0  0  0  0  0  0  0
    1.0654   -1.0607    0.2425 H   0  0  0  0  0  0  0  0  0  0  0  0
   -0.4235    1.6424   -0.3043 H   0  0  0  0  0  0  0  0  0  0  0  0
   -0.0311    1.2713    1.3904 H   0  0  0  0  0  0  0  0  0  0  0  0
   -2.9589    1.4721   -0.0847 H   0  0  0  0  0  0  0  0  0  0  0  0
   -3.5947    0.1614    0.9836 H   0  0  0  0  0  0  0  0  0  0  0  0
   -2.4331    1.4478    1.6229 H   0  0  0  0  0  0  0  0  0  0  0  0
   -2.7309   -1.2325   -1.0475 H   0  0  0  0  0  0  0  0  0  0  0  0
   -0.8993   -1.1371   -1.4019 H   0  0  0  0  0  0  0  0  0  0  0  0
   -0.5882   -2.0465    0.8912 H   0  0  0  0  0  0  0  0  0  0  0  0
   -2.3633   -1.8732    1.3254 H   0  0  0  0  0  0  0  0  0  0  0  0
  1  2  1  0
  2  3  1  0
  3  4  1  0
  4  5  1  0
  5  6  1  0
  6  7  1  0
  6  8  1  0
  8  9  1  0
  4  2  1  0
  9  6  1  0
  1 10  1  0
  1 11  1  0
  1 12  1  0
  2 13  1  0
  4 14  1  0
  5 15  1  0
  5 16  1  0
  7 17  1  0
  7 18  1  0
  7 19  1  0
  8 20  1  0
  8 21  1  0
  9 22  1  0
  9 23  1  0
M  END
