
     RDKit          3D

 15 16  0  0  0  0  0  0  0  0999 V2000
   -1.8565   -0.1190    0.3023 C   0  0  0  0  0  0  0  0  0  0  0  0
   -0.6735   -0.2312   -0.6575 C   0  0  0  0  0  0  0  0  0  0  0  0
   -0.0750   -1.4696   -0.6134 O   0  0  0  0  0  0  0  0  0  0  0  0
    0.8949   -0.9343    0.2216 C   0  0  0  0  0  0  0  0  0  0  0  0
    1.9165   -0.0946   -0.4327 C   0  0  0  0  0  0  0  0  0  0  0  0
    0.5689    0.4541   -0.1505 C   0  0  0  0  0  0  0  0  0  0  0  0
    0.3461    1.4511    0.7632 O   0  0  0  0  0  0  0  0  0  0  0  0
   -2.0870   -1.1170    0.7437 H   0  0  0  0  0  0  0  0  0  0  0  0
   -2.7096    0.3152   -0.2392 H   0  0  0  0  0  0  0  0  0  0  0  0
   -1.6319    0.5843    1.1412 H   0  0  0  0  0  0  0  0  0  0  0  0
   -0.9025    0.1646   -1.6841 H   0  0  0  0  0  0  0  0  0  0  0  0
    1.0207   -1.2811    1.2484 H   0  0  0  0  0  0  0  0  0  0  0  0
    2.7383    0.3656    0.1608 H   0  0  0  0  0  0  0  0  0  0  0  0
    2.1801   -0.3964   -1.4756 H   0  0  0  0  0  0  0  0  0  0  0  0
    0.2706    2.3083    0.2520 H   0  0  0  0  0  0  0  0  0  0  0  0
  1  2  1  0
  2  3  1  0
  3  4  1  0
  4  5  1  0
  5  6  1  0
  6  7  1  0
  6  2  1  0
  6  4  1  0
  1  8  1  0
  1  9  1  0
  1 10  1  0
  2 11  1  0
  4 12  1  0
  5 13  1  0
  5 14  1  0
  7 15  1  0
M  END
