
     RDKit          3D

 21 22  0  0  0  0  0  0  0  0999 V2000
   -2.3393   -0.8546    0.4418 C   0  0  0  0  0  0  0  0  0  0  0  0
   -1.3575   -0.3207   -0.5885 C   0  0  0  0  0  0  0  0  0  0  0  0
   -0.4416   -1.3279   -0.9029 O   0  0  0  0  0  0  0  0  0  0  0  0
    0.5361   -0.8703   -0.0747 C   0  0  0  0  0  0  0  0  0  0  0  0
    1.9353   -0.9160   -0.6062 C   0  0  0  0  0  0  0  0  0  0  0  0
    0.3314   -0.2588    1.2385 C   0  0  0  0  0  0  0  0  0  0  0  0
   -0.2144    0.4053    0.0465 C   0  0  0  0  0  0  0  0  0  0  0  0
    0.3947    1.6187   -0.5687 C   0  0  0  0  0  0  0  0  0  0  0  0
    1.4351    2.0932    0.2246 O   0  0  0  0  0  0  0  0  0  0  0  0
   -3.3197   -1.0469   -0.0434 H   0  0  0  0  0  0  0  0  0  0  0  0
   -2.4331   -0.1605    1.3047 H   0  0  0  0  0  0  0  0  0  0  0  0
   -2.0097   -1.8261    0.8701 H   0  0  0  0  0  0  0  0  0  0  0  0
   -1.8339    0.1749   -1.4511 H   0  0  0  0  0  0  0  0  0  0  0  0
    2.5318   -0.0926   -0.1916 H   0  0  0  0  0  0  0  0  0  0  0  0
    1.9768   -0.9648   -1.7187 H   0  0  0  0  0  0  0  0  0  0  0  0
    2.3971   -1.8727   -0.2206 H   0  0  0  0  0  0  0  0  0  0  0  0
   -0.4357   -0.6562    1.9544 H   0  0  0  0  0  0  0  0  0  0  0  0
    1.1902    0.2051    1.7211 H   0  0  0  0  0  0  0  0  0  0  0  0
    0.8411    1.4247   -1.5795 H   0  0  0  0  0  0  0  0  0  0  0  0
   -0.3226    2.4408   -0.7022 H   0  0  0  0  0  0  0  0  0  0  0  0
    1.1379    2.8052    0.8463 H   0  0  0  0  0  0  0  0  0  0  0  0
  1  2  1  0
  2  3  1  0
  3  4  1  0
  4  5  1  0
  4  6  1  0
  6  7  1  0
  7  8  1  0
  8  9  1  0
  7  2  1  0
  7  4  1  0
  1 10  1  0
  1 11  1  0
  1 12  1  0
  2 13  1  0
  5 14  1  0
  5 15  1  0
  5 16  1  0
  6 17  1  0
  6 18  1  0
  8 19  1  0
  8 20  1  0
  9 21  1  0
M  END
