
     RDKit          3D

 17 18  0  0  0  0  0  0  0  0999 V2000
    2.4188   -0.2845   -0.2610 C   0  0  0  0  0  0  0  0  0  0  0  0
    1.0937    0.3688   -0.5050 C   0  0  0  0  0  0  0  0  0  0  0  0
    0.2414   -0.2733   -1.3856 O   0  0  0  0  0  0  0  0  0  0  0  0
   -0.5932   -0.7933   -0.4313 C   0  0  0  0  0  0  0  0  0  0  0  0
   -1.9874   -0.2891   -0.4162 C   0  0  0  0  0  0  0  0  0  0  0  0
   -2.9669   -0.6182   -1.0533 O   0  0  0  0  0  0  0  0  0  0  0  0
   -2.0134    0.7941    0.6019 C   0  0  0  0  0  0  0  0  0  0  0  0
   -0.7011    1.1715    0.8214 O   0  0  0  0  0  0  0  0  0  0  0  0
    0.0836    0.0694    0.6036 C   0  0  0  0  0  0  0  0  0  0  0  0
    2.5947   -0.2792    0.8543 H   0  0  0  0  0  0  0  0  0  0  0  0
    3.2715    0.3167   -0.6712 H   0  0  0  0  0  0  0  0  0  0  0  0
    2.4586   -1.3349   -0.5697 H   0  0  0  0  0  0  0  0  0  0  0  0
    1.2115    1.4659   -0.7139 H   0  0  0  0  0  0  0  0  0  0  0  0
   -0.4919   -1.8717   -0.2048 H   0  0  0  0  0  0  0  0  0  0  0  0
   -2.4462    0.3837    1.5583 H   0  0  0  0  0  0  0  0  0  0  0  0
   -2.6630    1.6371    0.3117 H   0  0  0  0  0  0  0  0  0  0  0  0
    0.4892   -0.4630    1.4608 H   0  0  0  0  0  0  0  0  0  0  0  0
  1  2  1  0
  2  3  1  0
  3  4  1  0
  4  5  1  0
  5  6  2  0
  5  7  1  0
  7  8  1  0
  8  9  1  0
  9  2  1  0
  9  4  1  0
  1 10  1  0
  1 11  1  0
  1 12  1  0
  2 13  1  0
  4 14  1  0
  7 15  1  0
  7 16  1  0
  9 17  1  0
M  END
