
     RDKit          3D

 18 19  0  0  0  0  0  0  0  0999 V2000
    1.6987    1.2208   -0.3544 C   0  0  0  0  0  0  0  0  0  0  0  0
    0.9886   -0.0686   -0.1540 C   0  0  0  0  0  0  0  0  0  0  0  0
    0.3549   -0.5614   -1.2826 O   0  0  0  0  0  0  0  0  0  0  0  0
   -0.8795   -1.0446   -0.9428 C   0  0  0  0  0  0  0  0  0  0  0  0
   -0.7242   -1.4015    0.5495 C   0  0  0  0  0  0  0  0  0  0  0  0
   -0.1259   -0.0094    0.8506 C   0  0  0  0  0  0  0  0  0  0  0  0
   -1.2299    0.8225    0.2500 C   0  0  0  0  0  0  0  0  0  0  0  0
   -1.7390    0.0726   -0.8186 O   0  0  0  0  0  0  0  0  0  0  0  0
    2.3536    1.3972    0.5234 H   0  0  0  0  0  0  0  0  0  0  0  0
    1.0400    2.0589   -0.5783 H   0  0  0  0  0  0  0  0  0  0  0  0
    2.3970    1.0877   -1.2203 H   0  0  0  0  0  0  0  0  0  0  0  0
    1.6986   -0.8475    0.1854 H   0  0  0  0  0  0  0  0  0  0  0  0
   -1.2891   -1.8359   -1.5290 H   0  0  0  0  0  0  0  0  0  0  0  0
    0.0109   -2.1908    0.6998 H   0  0  0  0  0  0  0  0  0  0  0  0
   -1.6899   -1.5390    1.0309 H   0  0  0  0  0  0  0  0  0  0  0  0
    0.1211    0.1542    1.8666 H   0  0  0  0  0  0  0  0  0  0  0  0
   -0.9219    1.8141   -0.0801 H   0  0  0  0  0  0  0  0  0  0  0  0
   -2.0640    0.8708    1.0038 H   0  0  0  0  0  0  0  0  0  0  0  0
  1  2  1  0
  2  3  1  0
  3  4  1  0
  4  5  1  0
  5  6  1  0
  6  7  1  0
  7  8  1  0
  6  2  1  0
  8  4  1  0
  1  9  1  0
  1 10  1  0
  1 11  1  0
  2 12  1  0
  4 13  1  0
  5 14  1  0
  5 15  1  0
  6 16  1  0
  7 17  1  0
  7 18  1  0
M  END
