
     RDKit          3D

 21 23  0  0  0  0  0  0  0  0999 V2000
    2.2353   -1.0963    0.1029 C   0  0  0  0  0  0  0  0  0  0  0  0
    1.4457    0.1476   -0.2888 C   0  0  0  0  0  0  0  0  0  0  0  0
    1.7179    1.1925    0.6282 O   0  0  0  0  0  0  0  0  0  0  0  0
    0.5539    0.8709    1.3639 C   0  0  0  0  0  0  0  0  0  0  0  0
    0.0521    0.1922    0.1471 C   0  0  0  0  0  0  0  0  0  0  0  0
   -0.7459   -1.0333    0.2829 C   0  0  0  0  0  0  0  0  0  0  0  0
   -1.9224   -0.3414   -0.3279 C   0  0  0  0  0  0  0  0  0  0  0  0
   -2.3176    1.0298    0.0246 C   0  0  0  0  0  0  0  0  0  0  0  0
   -0.9771    0.8570   -0.6758 C   0  0  0  0  0  0  0  0  0  0  0  0
    1.6699   -2.0172   -0.0973 H   0  0  0  0  0  0  0  0  0  0  0  0
    3.2008   -1.0338   -0.4408 H   0  0  0  0  0  0  0  0  0  0  0  0
    2.4950   -1.0298    1.1848 H   0  0  0  0  0  0  0  0  0  0  0  0
    1.6796    0.4779   -1.3310 H   0  0  0  0  0  0  0  0  0  0  0  0
   -0.0197    1.7223    1.7240 H   0  0  0  0  0  0  0  0  0  0  0  0
    0.8286    0.1129    2.1468 H   0  0  0  0  0  0  0  0  0  0  0  0
   -0.4176   -1.9127   -0.3269 H   0  0  0  0  0  0  0  0  0  0  0  0
   -0.8631   -1.3058    1.3718 H   0  0  0  0  0  0  0  0  0  0  0  0
   -2.4258   -0.8258   -1.1658 H   0  0  0  0  0  0  0  0  0  0  0  0
   -2.2083    1.4540    1.0398 H   0  0  0  0  0  0  0  0  0  0  0  0
   -3.0947    1.4977   -0.5756 H   0  0  0  0  0  0  0  0  0  0  0  0
   -0.8864    1.0413   -1.7430 H   0  0  0  0  0  0  0  0  0  0  0  0
  1  2  1  0
  2  3  1  0
  3  4  1  0
  4  5  1  0
  5  6  1  0
  6  7  1  0
  7  8  1  0
  8  9  1  0
  5  2  1  0
  9  7  1  0
  9  5  1  0
  1 10  1  0
  1 11  1  0
  1 12  1  0
  2 13  1  0
  4 14  1  0
  4 15  1  0
  6 16  1  0
  6 17  1  0
  7 18  1  0
  8 19  1  0
  8 20  1  0
  9 21  1  0
M  END
