
     RDKit          3D

 16 16  0  0  0  0  0  0  0  0999 V2000
   -2.0956   -0.3196    0.1231 C   0  0  0  0  0  0  0  0  0  0  0  0
   -0.7334   -0.3960   -0.4609 C   0  0  0  0  0  0  0  0  0  0  0  0
    0.1986   -1.1717    0.2722 O   0  0  0  0  0  0  0  0  0  0  0  0
    1.1664   -0.3988   -0.3686 C   0  0  0  0  0  0  0  0  0  0  0  0
    2.4507   -0.2633    0.3230 C   0  0  0  0  0  0  0  0  0  0  0  0
    3.3120    0.4091   -0.2202 O   0  0  0  0  0  0  0  0  0  0  0  0
    0.1933    0.7702   -0.1632 C   0  0  0  0  0  0  0  0  0  0  0  0
    0.1708    1.2224    1.1366 O   0  0  0  0  0  0  0  0  0  0  0  0
   -2.3993    0.6821    0.4625 H   0  0  0  0  0  0  0  0  0  0  0  0
   -2.2178   -1.1045    0.9049 H   0  0  0  0  0  0  0  0  0  0  0  0
   -2.8259   -0.6101   -0.6882 H   0  0  0  0  0  0  0  0  0  0  0  0
   -0.6795   -0.6210   -1.5490 H   0  0  0  0  0  0  0  0  0  0  0  0
    1.1886   -0.6447   -1.4350 H   0  0  0  0  0  0  0  0  0  0  0  0
    2.6303   -0.7410    1.2798 H   0  0  0  0  0  0  0  0  0  0  0  0
    0.3208    1.4998   -0.9581 H   0  0  0  0  0  0  0  0  0  0  0  0
   -0.6799    1.6871    1.3410 H   0  0  0  0  0  0  0  0  0  0  0  0
  1  2  1  0
  2  3  1  0
  3  4  1  0
  4  5  1  0
  5  6  2  0
  4  7  1  0
  7  8  1  0
  7  2  1  0
  1  9  1  0
  1 10  1  0
  1 11  1  0
  2 12  1  0
  4 13  1  0
  5 14  1  0
  7 15  1  0
  8 16  1  0
M  END
