
     RDKit          3D

 19 21  0  0  0  0  0  0  0  0999 V2000
    2.3894   -0.2505   -0.0580 C   0  0  0  0  0  0  0  0  0  0  0  0
    0.9338   -0.4307    0.3159 C   0  0  0  0  0  0  0  0  0  0  0  0
    0.4798    0.8140    0.7633 O   0  0  0  0  0  0  0  0  0  0  0  0
   -0.2201    1.3890   -0.2900 C   0  0  0  0  0  0  0  0  0  0  0  0
    0.2902    0.7675   -1.4561 O   0  0  0  0  0  0  0  0  0  0  0  0
    0.1627   -0.5653   -0.9864 C   0  0  0  0  0  0  0  0  0  0  0  0
   -1.3089   -0.6524   -0.7635 C   0  0  0  0  0  0  0  0  0  0  0  0
   -1.9372   -0.3666    0.5412 C   0  0  0  0  0  0  0  0  0  0  0  0
   -1.6197    0.8096   -0.2933 C   0  0  0  0  0  0  0  0  0  0  0  0
    3.0667   -0.8209    0.5769 H   0  0  0  0  0  0  0  0  0  0  0  0
    2.7068    0.8120   -0.0410 H   0  0  0  0  0  0  0  0  0  0  0  0
    2.5790   -0.5936   -1.1123 H   0  0  0  0  0  0  0  0  0  0  0  0
    0.7534   -1.2431    1.0158 H   0  0  0  0  0  0  0  0  0  0  0  0
   -0.1807    2.4663   -0.3337 H   0  0  0  0  0  0  0  0  0  0  0  0
    0.5852   -1.2830   -1.6767 H   0  0  0  0  0  0  0  0  0  0  0  0
   -1.9017   -0.9722   -1.6377 H   0  0  0  0  0  0  0  0  0  0  0  0
   -3.0192   -0.6041    0.6093 H   0  0  0  0  0  0  0  0  0  0  0  0
   -1.3614   -0.6134    1.4492 H   0  0  0  0  0  0  0  0  0  0  0  0
   -2.3982    1.3373   -0.8490 H   0  0  0  0  0  0  0  0  0  0  0  0
  1  2  1  0
  2  3  1  0
  3  4  1  0
  4  5  1  0
  5  6  1  0
  6  7  1  0
  7  8  1  0
  8  9  1  0
  6  2  1  0
  9  7  1  0
  9  4  1  0
  1 10  1  0
  1 11  1  0
  1 12  1  0
  2 13  1  0
  4 14  1  0
  6 15  1  0
  7 16  1  0
  8 17  1  0
  8 18  1  0
  9 19  1  0
M  END
