
     RDKit          3D

 17 18  0  0  0  0  0  0  0  0999 V2000
    2.1705    0.0931   -0.0420 C   0  0  0  0  0  0  0  0  0  0  0  0
    0.7152    0.3317    0.1623 C   0  0  0  0  0  0  0  0  0  0  0  0
    0.2963    1.6220   -0.3059 O   0  0  0  0  0  0  0  0  0  0  0  0
   -1.0388    1.9387   -0.0295 C   0  0  0  0  0  0  0  0  0  0  0  0
   -1.4685    3.1334   -0.1016 O   0  0  0  0  0  0  0  0  0  0  0  0
   -1.8550    0.8721    0.3252 O   0  0  0  0  0  0  0  0  0  0  0  0
   -1.6034   -0.3729   -0.3007 C   0  0  0  0  0  0  0  0  0  0  0  0
   -1.0552   -1.5097    0.4998 C   0  0  0  0  0  0  0  0  0  0  0  0
   -0.1732   -0.6973   -0.4697 C   0  0  0  0  0  0  0  0  0  0  0  0
    2.3959   -0.8999   -0.5037 H   0  0  0  0  0  0  0  0  0  0  0  0
    2.7456    0.0875    0.9301 H   0  0  0  0  0  0  0  0  0  0  0  0
    2.6776    0.8501   -0.6679 H   0  0  0  0  0  0  0  0  0  0  0  0
    0.5266    0.3654    1.2711 H   0  0  0  0  0  0  0  0  0  0  0  0
   -2.3372   -0.6922   -1.0968 H   0  0  0  0  0  0  0  0  0  0  0  0
   -1.2671   -2.5412    0.1756 H   0  0  0  0  0  0  0  0  0  0  0  0
   -0.8379   -1.4081    1.5751 H   0  0  0  0  0  0  0  0  0  0  0  0
    0.1087   -1.1727   -1.4216 H   0  0  0  0  0  0  0  0  0  0  0  0
  1  2  1  0
  2  3  1  0
  3  4  1  0
  4  5  2  0
  4  6  1  0
  6  7  1  0
  7  8  1  0
  8  9  1  0
  9  2  1  0
  9  7  1  0
  1 10  1  0
  1 11  1  0
  1 12  1  0
  2 13  1  0
  7 14  1  0
  8 15  1  0
  8 16  1  0
  9 17  1  0
M  END
