
     RDKit          3D

 21 22  0  0  0  0  0  0  0  0999 V2000
    2.6323    0.1899   -0.0022 C   0  0  0  0  0  0  0  0  0  0  0  0
    1.4874   -0.1153   -0.9142 C   0  0  0  0  0  0  0  0  0  0  0  0
    0.8233   -1.2898   -0.6061 O   0  0  0  0  0  0  0  0  0  0  0  0
    0.1471   -1.0009    0.5619 C   0  0  0  0  0  0  0  0  0  0  0  0
   -1.3306   -1.1712    0.5508 C   0  0  0  0  0  0  0  0  0  0  0  0
   -1.5168    0.3149    0.4967 C   0  0  0  0  0  0  0  0  0  0  0  0
   -2.1165    0.8541   -0.7813 C   0  0  0  0  0  0  0  0  0  0  0  0
   -0.0275    0.4960    0.4997 C   0  0  0  0  0  0  0  0  0  0  0  0
    0.4934    0.8606   -0.7335 O   0  0  0  0  0  0  0  0  0  0  0  0
    2.4841    1.1793    0.5096 H   0  0  0  0  0  0  0  0  0  0  0  0
    3.5439    0.3120   -0.6376 H   0  0  0  0  0  0  0  0  0  0  0  0
    2.7871   -0.5428    0.7990 H   0  0  0  0  0  0  0  0  0  0  0  0
    1.7787   -0.1794   -1.9863 H   0  0  0  0  0  0  0  0  0  0  0  0
    0.6789   -1.3840    1.4440 H   0  0  0  0  0  0  0  0  0  0  0  0
   -1.7869   -1.6554   -0.3167 H   0  0  0  0  0  0  0  0  0  0  0  0
   -1.7091   -1.5859    1.5234 H   0  0  0  0  0  0  0  0  0  0  0  0
   -1.9877    0.7845    1.3732 H   0  0  0  0  0  0  0  0  0  0  0  0
   -1.6805    1.8642   -0.9413 H   0  0  0  0  0  0  0  0  0  0  0  0
   -1.9188    0.1752   -1.6351 H   0  0  0  0  0  0  0  0  0  0  0  0
   -3.1982    0.9292   -0.6391 H   0  0  0  0  0  0  0  0  0  0  0  0
    0.4165    0.9645    1.3827 H   0  0  0  0  0  0  0  0  0  0  0  0
  1  2  1  0
  2  3  1  0
  3  4  1  0
  4  5  1  0
  5  6  1  0
  6  7  1  0
  6  8  1  0
  8  9  1  0
  9  2  1  0
  8  4  1  0
  1 10  1  0
  1 11  1  0
  1 12  1  0
  2 13  1  0
  4 14  1  0
  5 15  1  0
  5 16  1  0
  6 17  1  0
  7 18  1  0
  7 19  1  0
  7 20  1  0
  8 21  1  0
M  END
