
     RDKit          3D

 19 20  0  0  0  0  0  0  0  0999 V2000
    1.8343    0.7071   -0.7351 C   0  0  0  0  0  0  0  0  0  0  0  0
    0.9819    0.0564    0.2746 C   0  0  0  0  0  0  0  0  0  0  0  0
    0.8977   -1.3195    0.1886 O   0  0  0  0  0  0  0  0  0  0  0  0
   -0.4094   -1.7096    0.3406 C   0  0  0  0  0  0  0  0  0  0  0  0
   -0.9787   -0.5926    1.2374 C   0  0  0  0  0  0  0  0  0  0  0  0
   -0.4541    0.4974    0.2796 C   0  0  0  0  0  0  0  0  0  0  0  0
   -0.7278    1.7471    0.6380 O   0  0  0  0  0  0  0  0  0  0  0  0
   -1.1069   -0.0299   -0.9780 C   0  0  0  0  0  0  0  0  0  0  0  0
   -1.0764   -1.4200   -0.8554 O   0  0  0  0  0  0  0  0  0  0  0  0
    2.7693    0.1199   -0.8561 H   0  0  0  0  0  0  0  0  0  0  0  0
    1.3957    0.8335   -1.7333 H   0  0  0  0  0  0  0  0  0  0  0  0
    2.1649    1.7050   -0.3203 H   0  0  0  0  0  0  0  0  0  0  0  0
    1.3908    0.2927    1.2942 H   0  0  0  0  0  0  0  0  0  0  0  0
   -0.5897   -2.6909    0.7215 H   0  0  0  0  0  0  0  0  0  0  0  0
   -0.4598   -0.5262    2.1874 H   0  0  0  0  0  0  0  0  0  0  0  0
   -2.0644   -0.6127    1.2701 H   0  0  0  0  0  0  0  0  0  0  0  0
   -0.7677    2.3464   -0.1248 H   0  0  0  0  0  0  0  0  0  0  0  0
   -2.1824    0.2981   -0.9313 H   0  0  0  0  0  0  0  0  0  0  0  0
   -0.6174    0.2980   -1.8978 H   0  0  0  0  0  0  0  0  0  0  0  0
  1  2  1  0
  2  3  1  0
  3  4  1  0
  4  5  1  0
  5  6  1  0
  6  7  1  0
  6  8  1  0
  8  9  1  0
  6  2  1  0
  9  4  1  0
  1 10  1  0
  1 11  1  0
  1 12  1  0
  2 13  1  0
  4 14  1  0
  5 15  1  0
  5 16  1  0
  7 17  1  0
  8 18  1  0
  8 19  1  0
M  END
