
     RDKit          3D

 19 20  0  0  0  0  0  0  0  0999 V2000
    1.9757    0.4806   -0.0330 C   0  0  0  0  0  0  0  0  0  0  0  0
    0.6295    0.5225    0.6328 C   0  0  0  0  0  0  0  0  0  0  0  0
    0.4290   -0.6912    1.2920 O   0  0  0  0  0  0  0  0  0  0  0  0
    0.0736   -1.6114    0.3331 C   0  0  0  0  0  0  0  0  0  0  0  0
   -0.6537   -0.8555   -0.7667 C   0  0  0  0  0  0  0  0  0  0  0  0
   -2.0213   -0.8821   -0.4974 O   0  0  0  0  0  0  0  0  0  0  0  0
   -1.8371    0.2598    0.2805 C   0  0  0  0  0  0  0  0  0  0  0  0
   -0.5143    0.5635   -0.3241 C   0  0  0  0  0  0  0  0  0  0  0  0
   -0.5345    1.5397   -1.2702 O   0  0  0  0  0  0  0  0  0  0  0  0
    2.0284    1.1464   -0.9148 H   0  0  0  0  0  0  0  0  0  0  0  0
    2.7231    0.7776    0.7608 H   0  0  0  0  0  0  0  0  0  0  0  0
    2.2585   -0.5693   -0.3068 H   0  0  0  0  0  0  0  0  0  0  0  0
    0.5857    1.3831    1.2971 H   0  0  0  0  0  0  0  0  0  0  0  0
    0.9201   -2.1233   -0.1423 H   0  0  0  0  0  0  0  0  0  0  0  0
   -0.6042   -2.3550    0.8355 H   0  0  0  0  0  0  0  0  0  0  0  0
   -0.3556   -1.0985   -1.7895 H   0  0  0  0  0  0  0  0  0  0  0  0
   -2.6125    1.0328    0.0457 H   0  0  0  0  0  0  0  0  0  0  0  0
   -1.8094    0.0649    1.3793 H   0  0  0  0  0  0  0  0  0  0  0  0
   -0.6811    2.4155   -0.8120 H   0  0  0  0  0  0  0  0  0  0  0  0
  1  2  1  0
  2  3  1  0
  3  4  1  0
  4  5  1  0
  5  6  1  0
  6  7  1  0
  7  8  1  0
  8  9  1  0
  8  2  1  0
  8  5  1  0
  1 10  1  0
  1 11  1  0
  1 12  1  0
  2 13  1  0
  4 14  1  0
  4 15  1  0
  5 16  1  0
  7 17  1  0
  7 18  1  0
  9 19  1  0
M  END
