
     RDKit          3D

 19 19  0  0  0  0  0  0  0  0999 V2000
    2.2298   -0.4628    0.2866 C   0  0  0  0  0  0  0  0  0  0  0  0
    1.0174   -0.4728   -0.6000 C   0  0  0  0  0  0  0  0  0  0  0  0
    0.7883    0.7030   -1.2533 O   0  0  0  0  0  0  0  0  0  0  0  0
   -0.1217    1.4521   -0.5762 C   0  0  0  0  0  0  0  0  0  0  0  0
   -0.8331    0.5713    0.4185 C   0  0  0  0  0  0  0  0  0  0  0  0
   -2.3042    0.5414    0.1846 C   0  0  0  0  0  0  0  0  0  0  0  0
   -3.1153    1.0627    0.9284 O   0  0  0  0  0  0  0  0  0  0  0  0
   -0.2026   -0.7719    0.2312 C   0  0  0  0  0  0  0  0  0  0  0  0
   -1.0567   -1.5508   -0.5321 O   0  0  0  0  0  0  0  0  0  0  0  0
    1.9328   -0.1659    1.2962 H   0  0  0  0  0  0  0  0  0  0  0  0
    3.0113    0.2451   -0.0693 H   0  0  0  0  0  0  0  0  0  0  0  0
    2.7024   -1.4714    0.3590 H   0  0  0  0  0  0  0  0  0  0  0  0
    1.1622   -1.3297   -1.3203 H   0  0  0  0  0  0  0  0  0  0  0  0
    0.3617    2.3115   -0.0443 H   0  0  0  0  0  0  0  0  0  0  0  0
   -0.8386    1.8834   -1.3091 H   0  0  0  0  0  0  0  0  0  0  0  0
   -0.6799    0.9529    1.4579 H   0  0  0  0  0  0  0  0  0  0  0  0
   -2.6976    0.0333   -0.6893 H   0  0  0  0  0  0  0  0  0  0  0  0
    0.0675   -1.2607    1.1902 H   0  0  0  0  0  0  0  0  0  0  0  0
   -1.4239   -2.2706    0.0412 H   0  0  0  0  0  0  0  0  0  0  0  0
  1  2  1  0
  2  3  1  0
  3  4  1  0
  4  5  1  0
  5  6  1  0
  6  7  2  0
  5  8  1  0
  8  9  1  0
  8  2  1  0
  1 10  1  0
  1 11  1  0
  1 12  1  0
  2 13  1  0
  4 14  1  0
  4 15  1  0
  5 16  1  0
  6 17  1  0
  8 18  1  0
  9 19  1  0
M  END
