
     RDKit          3D

 21 22  0  0  0  0  0  0  0  0999 V2000
   -2.4205   -0.8152   -0.5657 C   0  0  0  0  0  0  0  0  0  0  0  0
   -1.3507   -0.0777    0.2262 C   0  0  0  0  0  0  0  0  0  0  0  0
   -1.3887    1.2569   -0.2343 O   0  0  0  0  0  0  0  0  0  0  0  0
   -0.0514    1.6756   -0.4028 C   0  0  0  0  0  0  0  0  0  0  0  0
    0.6638    0.7200    0.4773 C   0  0  0  0  0  0  0  0  0  0  0  0
    0.2264    0.9527    1.8119 O   0  0  0  0  0  0  0  0  0  0  0  0
    1.2929   -0.5117    0.2779 C   0  0  0  0  0  0  0  0  0  0  0  0
    2.5160   -0.5193   -0.6557 C   0  0  0  0  0  0  0  0  0  0  0  0
   -0.0159   -0.5230   -0.2388 C   0  0  0  0  0  0  0  0  0  0  0  0
   -1.9637   -1.4534   -1.3671 H   0  0  0  0  0  0  0  0  0  0  0  0
   -2.9886   -1.5035    0.0852 H   0  0  0  0  0  0  0  0  0  0  0  0
   -3.1194   -0.1424   -1.0629 H   0  0  0  0  0  0  0  0  0  0  0  0
   -1.5408   -0.1521    1.2960 H   0  0  0  0  0  0  0  0  0  0  0  0
    0.1791    1.5618   -1.4827 H   0  0  0  0  0  0  0  0  0  0  0  0
    0.0167    2.7095   -0.0531 H   0  0  0  0  0  0  0  0  0  0  0  0
    0.1896    0.1387    2.3357 H   0  0  0  0  0  0  0  0  0  0  0  0
    1.5136   -1.1890    1.1470 H   0  0  0  0  0  0  0  0  0  0  0  0
    2.3586    0.2737   -1.4098 H   0  0  0  0  0  0  0  0  0  0  0  0
    2.4960   -1.5134   -1.1570 H   0  0  0  0  0  0  0  0  0  0  0  0
    3.4219   -0.4143   -0.0592 H   0  0  0  0  0  0  0  0  0  0  0  0
   -0.0348   -0.4740   -1.3746 H   0  0  0  0  0  0  0  0  0  0  0  0
  1  2  1  0
  2  3  1  0
  3  4  1  0
  4  5  1  0
  5  6  1  0
  5  7  1  0
  7  8  1  0
  7  9  1  0
  9  2  1  0
  9  5  1  0
  1 10  1  0
  1 11  1  0
  1 12  1  0
  2 13  1  0
  4 14  1  0
  4 15  1  0
  6 16  1  0
  7 17  1  0
  8 18  1  0
  8 19  1  0
  8 20  1  0
  9 21  1  0
M  END
