
     RDKit          3D

 18 19  0  0  0  0  0  0  0  0999 V2000
    2.2767    0.2978   -0.4876 C   0  0  0  0  0  0  0  0  0  0  0  0
    1.2732   -0.1915    0.4956 C   0  0  0  0  0  0  0  0  0  0  0  0
    0.5036    0.7654    1.1401 O   0  0  0  0  0  0  0  0  0  0  0  0
   -0.7203    0.2631    0.7561 C   0  0  0  0  0  0  0  0  0  0  0  0
   -1.7121    1.1969    0.0878 C   0  0  0  0  0  0  0  0  0  0  0  0
   -1.0334   -1.1833    0.7862 C   0  0  0  0  0  0  0  0  0  0  0  0
    0.0153   -0.7106   -0.1462 C   0  0  0  0  0  0  0  0  0  0  0  0
   -0.1890   -0.5791   -1.4959 O   0  0  0  0  0  0  0  0  0  0  0  0
    2.5495   -0.5764   -1.1472 H   0  0  0  0  0  0  0  0  0  0  0  0
    3.2107    0.6170   -0.0158 H   0  0  0  0  0  0  0  0  0  0  0  0
    1.8273    1.0768   -1.1379 H   0  0  0  0  0  0  0  0  0  0  0  0
    1.7092   -0.9785    1.1451 H   0  0  0  0  0  0  0  0  0  0  0  0
   -1.2640    1.7733   -0.7343 H   0  0  0  0  0  0  0  0  0  0  0  0
   -2.5362    0.5888   -0.3543 H   0  0  0  0  0  0  0  0  0  0  0  0
   -2.1460    1.8695    0.8290 H   0  0  0  0  0  0  0  0  0  0  0  0
   -0.6656   -1.8409    1.6084 H   0  0  0  0  0  0  0  0  0  0  0  0
   -1.9832   -1.4895    0.3572 H   0  0  0  0  0  0  0  0  0  0  0  0
   -1.1157   -0.8988   -1.6863 H   0  0  0  0  0  0  0  0  0  0  0  0
  1  2  1  0
  2  3  1  0
  3  4  1  0
  4  5  1  0
  4  6  1  0
  6  7  1  0
  7  8  1  0
  7  2  1  0
  7  4  1  0
  1  9  1  0
  1 10  1  0
  1 11  1  0
  2 12  1  0
  5 13  1  0
  5 14  1  0
  5 15  1  0
  6 16  1  0
  6 17  1  0
  8 18  1  0
M  END
