
     RDKit          3D

 21 23  0  0  0  0  0  0  0  0999 V2000
    2.2541    0.3137    0.7278 C   0  0  0  0  0  0  0  0  0  0  0  0
    1.2452   -0.3772   -0.1122 C   0  0  0  0  0  0  0  0  0  0  0  0
    0.9358   -1.6767    0.3571 O   0  0  0  0  0  0  0  0  0  0  0  0
   -0.4344   -1.6614    0.4222 C   0  0  0  0  0  0  0  0  0  0  0  0
   -0.7858   -0.3518    1.0628 C   0  0  0  0  0  0  0  0  0  0  0  0
   -2.0331   -0.3747    0.2154 C   0  0  0  0  0  0  0  0  0  0  0  0
   -0.9606   -0.8388   -0.7204 C   0  0  0  0  0  0  0  0  0  0  0  0
   -0.1065    0.2395   -0.1248 C   0  0  0  0  0  0  0  0  0  0  0  0
   -0.3072    1.6228   -0.4889 C   0  0  0  0  0  0  0  0  0  0  0  0
    1.7051    0.8998    1.5202 H   0  0  0  0  0  0  0  0  0  0  0  0
    2.7565    1.0899    0.0792 H   0  0  0  0  0  0  0  0  0  0  0  0
    3.0469   -0.3148    1.1276 H   0  0  0  0  0  0  0  0  0  0  0  0
    1.5661   -0.5297   -1.1697 H   0  0  0  0  0  0  0  0  0  0  0  0
   -0.9689   -2.5444    0.7130 H   0  0  0  0  0  0  0  0  0  0  0  0
   -0.7118   -0.0956    2.0246 H   0  0  0  0  0  0  0  0  0  0  0  0
   -2.7999   -1.0983    0.4767 H   0  0  0  0  0  0  0  0  0  0  0  0
   -2.3499    0.6593   -0.0125 H   0  0  0  0  0  0  0  0  0  0  0  0
   -1.0411   -1.1045   -1.6790 H   0  0  0  0  0  0  0  0  0  0  0  0
    0.6619    2.0684   -0.8590 H   0  0  0  0  0  0  0  0  0  0  0  0
   -1.1313    1.8421   -1.1930 H   0  0  0  0  0  0  0  0  0  0  0  0
   -0.5411    2.2325    0.4326 H   0  0  0  0  0  0  0  0  0  0  0  0
  1  2  1  0
  2  3  1  0
  3  4  1  0
  4  5  1  0
  5  6  1  0
  6  7  1  0
  7  8  1  0
  8  9  1  0
  8  2  1  0
  7  4  1  0
  8  5  1  0
  1 10  1  0
  1 11  1  0
  1 12  1  0
  2 13  1  0
  4 14  1  0
  5 15  1  0
  6 16  1  0
  6 17  1  0
  7 18  1  0
  9 19  1  0
  9 20  1  0
  9 21  1  0
M  END
