
     RDKit          3D

 19 20  0  0  0  0  0  0  0  0999 V2000
    2.3081   -0.0296   -0.2727 C   0  0  0  0  0  0  0  0  0  0  0  0
    1.0695   -0.3906    0.5371 C   0  0  0  0  0  0  0  0  0  0  0  0
    0.3728   -1.3244   -0.1932 O   0  0  0  0  0  0  0  0  0  0  0  0
   -0.8538   -0.9700   -0.6478 C   0  0  0  0  0  0  0  0  0  0  0  0
   -1.8097   -0.4815    0.4454 C   0  0  0  0  0  0  0  0  0  0  0  0
   -1.0923    0.8602    0.2846 C   0  0  0  0  0  0  0  0  0  0  0  0
   -0.9369    0.4555   -1.1934 C   0  0  0  0  0  0  0  0  0  0  0  0
    0.2554    0.8070    0.8486 C   0  0  0  0  0  0  0  0  0  0  0  0
    0.6853    1.6981    1.5367 O   0  0  0  0  0  0  0  0  0  0  0  0
    2.5889    1.0112   -0.0383 H   0  0  0  0  0  0  0  0  0  0  0  0
    2.1401   -0.1708   -1.3537 H   0  0  0  0  0  0  0  0  0  0  0  0
    3.1806   -0.6805    0.0163 H   0  0  0  0  0  0  0  0  0  0  0  0
    1.4689   -0.8716    1.4765 H   0  0  0  0  0  0  0  0  0  0  0  0
   -1.2678   -1.6876   -1.3458 H   0  0  0  0  0  0  0  0  0  0  0  0
   -1.6946   -0.9609    1.4140 H   0  0  0  0  0  0  0  0  0  0  0  0
   -2.8196   -0.4044    0.0191 H   0  0  0  0  0  0  0  0  0  0  0  0
   -1.6982    1.7410    0.4287 H   0  0  0  0  0  0  0  0  0  0  0  0
   -1.8763    0.5726   -1.7471 H   0  0  0  0  0  0  0  0  0  0  0  0
   -0.0204    0.8263   -1.6662 H   0  0  0  0  0  0  0  0  0  0  0  0
  1  2  1  0
  2  3  1  0
  3  4  1  0
  4  5  1  0
  5  6  1  0
  6  7  1  0
  6  8  1  0
  8  9  2  0
  8  2  1  0
  7  4  1  0
  1 10  1  0
  1 11  1  0
  1 12  1  0
  2 13  1  0
  4 14  1  0
  5 15  1  0
  5 16  1  0
  6 17  1  0
  7 18  1  0
  7 19  1  0
M  END
