
     RDKit          3D

 19 19  0  0  0  0  0  0  0  0999 V2000
   -1.6619    0.9209   -0.3221 C   0  0  0  0  0  0  0  0  0  0  0  0
   -0.7523    0.5500    0.7946 C   0  0  0  0  0  0  0  0  0  0  0  0
   -1.0894   -0.7676    1.1868 O   0  0  0  0  0  0  0  0  0  0  0  0
   -0.5215   -1.6101    0.2594 C   0  0  0  0  0  0  0  0  0  0  0  0
    0.7036   -0.9304   -0.2963 C   0  0  0  0  0  0  0  0  0  0  0  0
    1.8698   -1.5978    0.0714 O   0  0  0  0  0  0  0  0  0  0  0  0
    0.6753    0.4002    0.4236 C   0  0  0  0  0  0  0  0  0  0  0  0
    1.2427    1.4934   -0.3621 C   0  0  0  0  0  0  0  0  0  0  0  0
    2.4696    1.5450   -0.4613 O   0  0  0  0  0  0  0  0  0  0  0  0
   -2.5787    1.3706    0.1501 H   0  0  0  0  0  0  0  0  0  0  0  0
   -2.0187   -0.0006   -0.8710 H   0  0  0  0  0  0  0  0  0  0  0  0
   -1.2189    1.5658   -1.0874 H   0  0  0  0  0  0  0  0  0  0  0  0
   -0.8811    1.1669    1.7049 H   0  0  0  0  0  0  0  0  0  0  0  0
   -0.2002   -2.5647    0.7578 H   0  0  0  0  0  0  0  0  0  0  0  0
   -1.2505   -1.9002   -0.5137 H   0  0  0  0  0  0  0  0  0  0  0  0
    0.6211   -0.8153   -1.4021 H   0  0  0  0  0  0  0  0  0  0  0  0
    2.6223   -1.3893   -0.5243 H   0  0  0  0  0  0  0  0  0  0  0  0
    1.2697    0.2941    1.3622 H   0  0  0  0  0  0  0  0  0  0  0  0
    0.6989    2.2689   -0.8706 H   0  0  0  0  0  0  0  0  0  0  0  0
  1  2  1  0
  2  3  1  0
  3  4  1  0
  4  5  1  0
  5  6  1  0
  5  7  1  0
  7  8  1  0
  8  9  2  0
  7  2  1  0
  1 10  1  0
  1 11  1  0
  1 12  1  0
  2 13  1  0
  4 14  1  0
  4 15  1  0
  5 16  1  0
  6 17  1  0
  7 18  1  0
  8 19  1  0
M  END
