
     RDKit          3D

 21 22  0  0  0  0  0  0  0  0999 V2000
    2.8657    0.7515    0.8320 C   0  0  0  0  0  0  0  0  0  0  0  0
    1.6786    0.7048   -0.1252 C   0  0  0  0  0  0  0  0  0  0  0  0
    2.1410    0.0271   -1.3666 O   0  0  0  0  0  0  0  0  0  0  0  0
    1.1038   -0.5449   -0.4373 C   0  0  0  0  0  0  0  0  0  0  0  0
   -0.1630   -0.7192   -1.2045 C   0  0  0  0  0  0  0  0  0  0  0  0
   -0.7965    0.3524   -1.7950 O   0  0  0  0  0  0  0  0  0  0  0  0
   -1.4330   -0.1784   -0.6729 C   0  0  0  0  0  0  0  0  0  0  0  0
   -1.4483    0.7328    0.5124 C   0  0  0  0  0  0  0  0  0  0  0  0
   -2.6552   -1.0589   -0.8867 C   0  0  0  0  0  0  0  0  0  0  0  0
    2.6128    1.2502    1.7643 H   0  0  0  0  0  0  0  0  0  0  0  0
    3.6567    1.3390    0.2891 H   0  0  0  0  0  0  0  0  0  0  0  0
    3.2556   -0.2752    0.9367 H   0  0  0  0  0  0  0  0  0  0  0  0
    1.1782    1.6533   -0.3889 H   0  0  0  0  0  0  0  0  0  0  0  0
    1.4923   -1.4774    0.0210 H   0  0  0  0  0  0  0  0  0  0  0  0
   -0.2011   -1.6489   -1.8148 H   0  0  0  0  0  0  0  0  0  0  0  0
   -2.5110    0.8266    0.8503 H   0  0  0  0  0  0  0  0  0  0  0  0
   -0.8259    0.3963    1.3569 H   0  0  0  0  0  0  0  0  0  0  0  0
   -1.1257    1.7780    0.2725 H   0  0  0  0  0  0  0  0  0  0  0  0
   -3.3420   -0.6493   -1.6483 H   0  0  0  0  0  0  0  0  0  0  0  0
   -2.3246   -2.1026   -1.1391 H   0  0  0  0  0  0  0  0  0  0  0  0
   -3.1584   -1.1571    0.1118 H   0  0  0  0  0  0  0  0  0  0  0  0
  1  2  1  0
  2  3  1  0
  3  4  1  0
  4  5  1  0
  5  6  1  0
  6  7  1  0
  7  8  1  0
  7  9  1  0
  4  2  1  0
  7  5  1  0
  1 10  1  0
  1 11  1  0
  1 12  1  0
  2 13  1  0
  4 14  1  0
  5 15  1  0
  8 16  1  0
  8 17  1  0
  8 18  1  0
  9 19  1  0
  9 20  1  0
  9 21  1  0
M  END
