
     RDKit          3D

 19 19  0  0  0  0  0  0  0  0999 V2000
    1.3804   -0.5558   -1.2572 C   0  0  0  0  0  0  0  0  0  0  0  0
    0.6913   -0.7703    0.0470 C   0  0  0  0  0  0  0  0  0  0  0  0
    1.5875   -0.5759    1.1268 O   0  0  0  0  0  0  0  0  0  0  0  0
    1.0964    0.4911    1.8810 C   0  0  0  0  0  0  0  0  0  0  0  0
    1.7827    1.2971    2.5914 O   0  0  0  0  0  0  0  0  0  0  0  0
   -0.2767    0.4705    1.6826 O   0  0  0  0  0  0  0  0  0  0  0  0
   -0.4758    0.0742    0.3212 C   0  0  0  0  0  0  0  0  0  0  0  0
   -1.8109   -0.6683    0.2537 C   0  0  0  0  0  0  0  0  0  0  0  0
   -0.6136    1.3118   -0.4953 C   0  0  0  0  0  0  0  0  0  0  0  0
    1.7223    0.4627   -1.4362 H   0  0  0  0  0  0  0  0  0  0  0  0
    2.3067   -1.1995   -1.2484 H   0  0  0  0  0  0  0  0  0  0  0  0
    0.7562   -0.9772   -2.0734 H   0  0  0  0  0  0  0  0  0  0  0  0
    0.3724   -1.8488    0.0788 H   0  0  0  0  0  0  0  0  0  0  0  0
   -2.6035    0.0879    0.4009 H   0  0  0  0  0  0  0  0  0  0  0  0
   -1.9129   -1.0511   -0.8016 H   0  0  0  0  0  0  0  0  0  0  0  0
   -1.8557   -1.5249    0.9190 H   0  0  0  0  0  0  0  0  0  0  0  0
   -1.1614    2.0634    0.1476 H   0  0  0  0  0  0  0  0  0  0  0  0
    0.3161    1.7924   -0.7919 H   0  0  0  0  0  0  0  0  0  0  0  0
   -1.3014    1.1206   -1.3461 H   0  0  0  0  0  0  0  0  0  0  0  0
  1  2  1  0
  2  3  1  0
  3  4  1  0
  4  5  2  0
  4  6  1  0
  6  7  1  0
  7  8  1  0
  7  9  1  0
  7  2  1  0
  1 10  1  0
  1 11  1  0
  1 12  1  0
  2 13  1  0
  8 14  1  0
  8 15  1  0
  8 16  1  0
  9 17  1  0
  9 18  1  0
  9 19  1  0
M  END
