
     RDKit          3D

 19 20  0  0  0  0  0  0  0  0999 V2000
    2.4130    0.6552   -0.8029 C   0  0  0  0  0  0  0  0  0  0  0  0
    1.9888   -0.4641    0.0916 C   0  0  0  0  0  0  0  0  0  0  0  0
    1.3177    0.0831    1.3263 O   0  0  0  0  0  0  0  0  0  0  0  0
    0.6454   -0.7725    0.4727 C   0  0  0  0  0  0  0  0  0  0  0  0
   -0.5945   -0.3069   -0.1976 C   0  0  0  0  0  0  0  0  0  0  0  0
   -1.8305   -0.8339    0.5029 C   0  0  0  0  0  0  0  0  0  0  0  0
   -2.4732    0.4582   -0.0082 C   0  0  0  0  0  0  0  0  0  0  0  0
   -1.0929    1.0387    0.0853 C   0  0  0  0  0  0  0  0  0  0  0  0
   -0.7614    2.1806    0.3119 O   0  0  0  0  0  0  0  0  0  0  0  0
    2.2331    1.6702   -0.3759 H   0  0  0  0  0  0  0  0  0  0  0  0
    3.5022    0.6160   -1.0189 H   0  0  0  0  0  0  0  0  0  0  0  0
    1.9237    0.5686   -1.8179 H   0  0  0  0  0  0  0  0  0  0  0  0
    2.8121   -1.1275    0.4270 H   0  0  0  0  0  0  0  0  0  0  0  0
    0.4955   -1.7955    0.9403 H   0  0  0  0  0  0  0  0  0  0  0  0
   -0.6225   -0.6180   -1.2612 H   0  0  0  0  0  0  0  0  0  0  0  0
   -1.6816   -0.8144    1.6076 H   0  0  0  0  0  0  0  0  0  0  0  0
   -2.2724   -1.7353    0.0877 H   0  0  0  0  0  0  0  0  0  0  0  0
   -3.2098    0.8937    0.6765 H   0  0  0  0  0  0  0  0  0  0  0  0
   -2.7928    0.3037   -1.0493 H   0  0  0  0  0  0  0  0  0  0  0  0
  1  2  1  0
  2  3  1  0
  3  4  1  0
  4  5  1  0
  5  6  1  0
  6  7  1  0
  7  8  1  0
  8  9  2  0
  4  2  1  0
  8  5  1  0
  1 10  1  0
  1 11  1  0
  1 12  1  0
  2 13  1  0
  4 14  1  0
  5 15  1  0
  6 16  1  0
  6 17  1  0
  7 18  1  0
  7 19  1  0
M  END
