
     RDKit          3D

 21 22  0  0  0  0  0  0  0  0999 V2000
    2.7153   -0.7090    0.2072 C   0  0  0  0  0  0  0  0  0  0  0  0
    1.3813   -0.0559    0.5145 C   0  0  0  0  0  0  0  0  0  0  0  0
    0.4059   -1.0312    0.2458 O   0  0  0  0  0  0  0  0  0  0  0  0
   -0.8810   -0.5737    0.6376 C   0  0  0  0  0  0  0  0  0  0  0  0
   -1.9573   -1.1618   -0.2109 C   0  0  0  0  0  0  0  0  0  0  0  0
   -0.8172    0.8918    0.4644 C   0  0  0  0  0  0  0  0  0  0  0  0
   -1.1485    1.7517   -0.6066 C   0  0  0  0  0  0  0  0  0  0  0  0
    0.0254    1.0086   -0.8555 C   0  0  0  0  0  0  0  0  0  0  0  0
    1.2837    1.0475   -0.3745 O   0  0  0  0  0  0  0  0  0  0  0  0
    3.5577   -0.2297    0.7180 H   0  0  0  0  0  0  0  0  0  0  0  0
    2.7018   -1.7962    0.4144 H   0  0  0  0  0  0  0  0  0  0  0  0
    2.9202   -0.5882   -0.8968 H   0  0  0  0  0  0  0  0  0  0  0  0
    1.3262    0.2674    1.5652 H   0  0  0  0  0  0  0  0  0  0  0  0
   -1.0361   -0.9031    1.6785 H   0  0  0  0  0  0  0  0  0  0  0  0
   -1.7402   -1.1834   -1.2801 H   0  0  0  0  0  0  0  0  0  0  0  0
   -2.8648   -0.5029   -0.0918 H   0  0  0  0  0  0  0  0  0  0  0  0
   -2.2813   -2.1557    0.1909 H   0  0  0  0  0  0  0  0  0  0  0  0
   -0.3768    1.3738    1.3833 H   0  0  0  0  0  0  0  0  0  0  0  0
   -2.0709    1.5342   -1.2071 H   0  0  0  0  0  0  0  0  0  0  0  0
   -1.0699    2.8576   -0.4535 H   0  0  0  0  0  0  0  0  0  0  0  0
   -0.0737    0.1581   -1.5957 H   0  0  0  0  0  0  0  0  0  0  0  0
  1  2  1  0
  2  3  1  0
  3  4  1  0
  4  5  1  0
  4  6  1  0
  6  7  1  0
  7  8  1  0
  8  9  1  0
  9  2  1  0
  8  6  1  0
  1 10  1  0
  1 11  1  0
  1 12  1  0
  2 13  1  0
  4 14  1  0
  5 15  1  0
  5 16  1  0
  5 17  1  0
  6 18  1  0
  7 19  1  0
  7 20  1  0
  8 21  1  0
M  END
