
     RDKit          3D

 19 20  0  0  0  0  0  0  0  0999 V2000
    1.8163    0.1215    0.3311 C   0  0  0  0  0  0  0  0  0  0  0  0
    0.8220   -0.1447   -0.8058 C   0  0  0  0  0  0  0  0  0  0  0  0
    0.4028    1.0246   -1.3632 O   0  0  0  0  0  0  0  0  0  0  0  0
   -0.6878    1.6299   -0.8125 C   0  0  0  0  0  0  0  0  0  0  0  0
   -1.0460    0.9680    0.4668 C   0  0  0  0  0  0  0  0  0  0  0  0
   -1.0708    1.6121    1.4889 O   0  0  0  0  0  0  0  0  0  0  0  0
   -1.3567   -0.4713    0.4045 C   0  0  0  0  0  0  0  0  0  0  0  0
   -0.4875   -1.5025    0.9866 C   0  0  0  0  0  0  0  0  0  0  0  0
   -0.2427   -1.1100   -0.4193 C   0  0  0  0  0  0  0  0  0  0  0  0
    1.9731   -0.7746    0.9451 H   0  0  0  0  0  0  0  0  0  0  0  0
    1.5453    1.0040    0.9067 H   0  0  0  0  0  0  0  0  0  0  0  0
    2.8227    0.3486   -0.1290 H   0  0  0  0  0  0  0  0  0  0  0  0
    1.4458   -0.6686   -1.5929 H   0  0  0  0  0  0  0  0  0  0  0  0
   -0.5888    2.7301   -0.7063 H   0  0  0  0  0  0  0  0  0  0  0  0
   -1.5375    1.4956   -1.5464 H   0  0  0  0  0  0  0  0  0  0  0  0
   -2.4058   -0.7228    0.1404 H   0  0  0  0  0  0  0  0  0  0  0  0
   -0.9774   -2.5047    1.1234 H   0  0  0  0  0  0  0  0  0  0  0  0
    0.1905   -1.2579    1.8101 H   0  0  0  0  0  0  0  0  0  0  0  0
   -0.6176   -1.7773   -1.2282 H   0  0  0  0  0  0  0  0  0  0  0  0
  1  2  1  0
  2  3  1  0
  3  4  1  0
  4  5  1  0
  5  6  2  0
  5  7  1  0
  7  8  1  0
  8  9  1  0
  9  2  1  0
  9  7  1  0
  1 10  1  0
  1 11  1  0
  1 12  1  0
  2 13  1  0
  4 14  1  0
  4 15  1  0
  7 16  1  0
  8 17  1  0
  8 18  1  0
  9 19  1  0
M  END
