
     RDKit          3D

 17 17  0  0  0  0  0  0  0  0999 V2000
   -2.2791   -0.2646    0.6335 C   0  0  0  0  0  0  0  0  0  0  0  0
   -1.1090    0.2836   -0.2021 C   0  0  0  0  0  0  0  0  0  0  0  0
   -0.2108    0.8054    0.6795 O   0  0  0  0  0  0  0  0  0  0  0  0
    0.8915    1.4209    0.2077 C   0  0  0  0  0  0  0  0  0  0  0  0
    1.9843    0.4185    0.0689 C   0  0  0  0  0  0  0  0  0  0  0  0
    1.7932   -0.8234   -0.3601 C   0  0  0  0  0  0  0  0  0  0  0  0
    0.5493   -1.4897   -0.7800 C   0  0  0  0  0  0  0  0  0  0  0  0
    0.5865   -2.7252   -0.9699 O   0  0  0  0  0  0  0  0  0  0  0  0
   -0.6467   -0.8052   -0.9701 O   0  0  0  0  0  0  0  0  0  0  0  0
   -2.1126   -1.3495    0.8565 H   0  0  0  0  0  0  0  0  0  0  0  0
   -2.3024    0.2366    1.6378 H   0  0  0  0  0  0  0  0  0  0  0  0
   -3.2401   -0.1329    0.1204 H   0  0  0  0  0  0  0  0  0  0  0  0
   -1.5686    1.0247   -0.8870 H   0  0  0  0  0  0  0  0  0  0  0  0
    1.2207    2.2765    0.8634 H   0  0  0  0  0  0  0  0  0  0  0  0
    0.7754    1.8817   -0.8094 H   0  0  0  0  0  0  0  0  0  0  0  0
    2.9924    0.6991    0.3264 H   0  0  0  0  0  0  0  0  0  0  0  0
    2.6761   -1.4564   -0.4156 H   0  0  0  0  0  0  0  0  0  0  0  0
  1  2  1  0
  2  3  1  0
  3  4  1  0
  4  5  1  0
  5  6  2  0
  6  7  1  0
  7  8  2  0
  7  9  1  0
  9  2  1  0
  1 10  1  0
  1 11  1  0
  1 12  1  0
  2 13  1  0
  4 14  1  0
  4 15  1  0
  5 16  1  0
  6 17  1  0
M  END
