
     RDKit          3D

 21 21  0  0  0  0  0  0  0  0999 V2000
   -1.9762   -1.4331    0.2929 C   0  0  0  0  0  0  0  0  0  0  0  0
   -0.9972   -0.2585    0.4088 C   0  0  0  0  0  0  0  0  0  0  0  0
   -1.7479    0.8928    0.5061 O   0  0  0  0  0  0  0  0  0  0  0  0
   -1.1328    1.8652   -0.2621 C   0  0  0  0  0  0  0  0  0  0  0  0
   -0.3726    1.2248   -1.2269 O   0  0  0  0  0  0  0  0  0  0  0  0
   -0.2023   -0.0789   -0.8390 C   0  0  0  0  0  0  0  0  0  0  0  0
    1.2561   -0.4418   -0.6491 C   0  0  0  0  0  0  0  0  0  0  0  0
    1.9208    0.3923    0.3984 C   0  0  0  0  0  0  0  0  0  0  0  0
    3.2535   -0.0291    0.4858 O   0  0  0  0  0  0  0  0  0  0  0  0
   -2.7574   -1.2391   -0.4628 H   0  0  0  0  0  0  0  0  0  0  0  0
   -1.3877   -2.3463    0.0462 H   0  0  0  0  0  0  0  0  0  0  0  0
   -2.4559   -1.5497    1.2860 H   0  0  0  0  0  0  0  0  0  0  0  0
   -0.3943   -0.4688    1.3124 H   0  0  0  0  0  0  0  0  0  0  0  0
   -1.9145    2.5137   -0.6772 H   0  0  0  0  0  0  0  0  0  0  0  0
   -0.4380    2.4667    0.3627 H   0  0  0  0  0  0  0  0  0  0  0  0
   -0.6205   -0.7377   -1.6272 H   0  0  0  0  0  0  0  0  0  0  0  0
    1.3560   -1.5066   -0.3789 H   0  0  0  0  0  0  0  0  0  0  0  0
    1.8092   -0.3010   -1.5987 H   0  0  0  0  0  0  0  0  0  0  0  0
    1.4761    0.3408    1.3899 H   0  0  0  0  0  0  0  0  0  0  0  0
    1.9642    1.4574    0.0655 H   0  0  0  0  0  0  0  0  0  0  0  0
    3.3612   -0.7631    1.1671 H   0  0  0  0  0  0  0  0  0  0  0  0
  1  2  1  0
  2  3  1  0
  3  4  1  0
  4  5  1  0
  5  6  1  0
  6  7  1  0
  7  8  1  0
  8  9  1  0
  6  2  1  0
  1 10  1  0
  1 11  1  0
  1 12  1  0
  2 13  1  0
  4 14  1  0
  4 15  1  0
  6 16  1  0
  7 17  1  0
  7 18  1  0
  8 19  1  0
  8 20  1  0
  9 21  1  0
M  END
