
     RDKit          3D

 21 22  0  0  0  0  0  0  0  0999 V2000
    2.0693   -0.8552   -0.2652 C   0  0  0  0  0  0  0  0  0  0  0  0
    0.6281   -0.6242    0.0032 C   0  0  0  0  0  0  0  0  0  0  0  0
   -0.1949   -1.1825   -0.9582 O   0  0  0  0  0  0  0  0  0  0  0  0
   -1.4907   -0.7815   -0.9179 C   0  0  0  0  0  0  0  0  0  0  0  0
   -2.3337   -1.0527    0.3007 C   0  0  0  0  0  0  0  0  0  0  0  0
   -1.8772    0.3325   -0.0958 C   0  0  0  0  0  0  0  0  0  0  0  0
   -0.9312    0.9467    0.6769 O   0  0  0  0  0  0  0  0  0  0  0  0
    0.2931    0.8638    0.0064 C   0  0  0  0  0  0  0  0  0  0  0  0
    1.3139    1.6888    0.7031 C   0  0  0  0  0  0  0  0  0  0  0  0
    2.3459   -0.2655   -1.1794 H   0  0  0  0  0  0  0  0  0  0  0  0
    2.6422   -0.4755    0.6306 H   0  0  0  0  0  0  0  0  0  0  0  0
    2.2316   -1.9424   -0.4184 H   0  0  0  0  0  0  0  0  0  0  0  0
    0.3712   -1.0766    0.9924 H   0  0  0  0  0  0  0  0  0  0  0  0
   -2.0505   -0.9305   -1.8869 H   0  0  0  0  0  0  0  0  0  0  0  0
   -3.4182   -1.2722    0.1646 H   0  0  0  0  0  0  0  0  0  0  0  0
   -1.7763   -1.5302    1.1287 H   0  0  0  0  0  0  0  0  0  0  0  0
   -2.6519    1.0454   -0.5021 H   0  0  0  0  0  0  0  0  0  0  0  0
    0.1915    1.2015   -1.0522 H   0  0  0  0  0  0  0  0  0  0  0  0
    2.0469    2.1391   -0.0192 H   0  0  0  0  0  0  0  0  0  0  0  0
    0.7788    2.5812    1.1419 H   0  0  0  0  0  0  0  0  0  0  0  0
    1.8122    1.1900    1.5467 H   0  0  0  0  0  0  0  0  0  0  0  0
  1  2  1  0
  2  3  1  0
  3  4  1  0
  4  5  1  0
  5  6  1  0
  6  7  1  0
  7  8  1  0
  8  9  1  0
  8  2  1  0
  6  4  1  0
  1 10  1  0
  1 11  1  0
  1 12  1  0
  2 13  1  0
  4 14  1  0
  5 15  1  0
  5 16  1  0
  6 17  1  0
  8 18  1  0
  9 19  1  0
  9 20  1  0
  9 21  1  0
M  END
