
     RDKit          3D

 19 20  0  0  0  0  0  0  0  0999 V2000
    2.1922    0.2069    0.9491 C   0  0  0  0  0  0  0  0  0  0  0  0
    1.3782   -0.6121   -0.0390 C   0  0  0  0  0  0  0  0  0  0  0  0
    1.2719    0.0932   -1.3135 O   0  0  0  0  0  0  0  0  0  0  0  0
    0.1757   -0.2680   -0.5335 C   0  0  0  0  0  0  0  0  0  0  0  0
   -0.8436   -1.2313   -1.0789 C   0  0  0  0  0  0  0  0  0  0  0  0
   -1.9047   -0.3840   -0.3849 C   0  0  0  0  0  0  0  0  0  0  0  0
   -0.8554    0.7369   -0.3093 C   0  0  0  0  0  0  0  0  0  0  0  0
   -0.9279    1.4716    0.9454 C   0  0  0  0  0  0  0  0  0  0  0  0
   -1.6070    1.1096    1.8802 O   0  0  0  0  0  0  0  0  0  0  0  0
    2.5593   -0.4837    1.7346 H   0  0  0  0  0  0  0  0  0  0  0  0
    1.6179    1.0506    1.3635 H   0  0  0  0  0  0  0  0  0  0  0  0
    3.0869    0.5588    0.3881 H   0  0  0  0  0  0  0  0  0  0  0  0
    1.8336   -1.6087   -0.2264 H   0  0  0  0  0  0  0  0  0  0  0  0
   -0.9372   -1.1588   -2.1724 H   0  0  0  0  0  0  0  0  0  0  0  0
   -0.7584   -2.2660   -0.6813 H   0  0  0  0  0  0  0  0  0  0  0  0
   -2.1276   -0.8078    0.6280 H   0  0  0  0  0  0  0  0  0  0  0  0
   -2.7768   -0.1578   -0.9914 H   0  0  0  0  0  0  0  0  0  0  0  0
   -1.0133    1.3723   -1.2321 H   0  0  0  0  0  0  0  0  0  0  0  0
   -0.3638    2.3783    1.0737 H   0  0  0  0  0  0  0  0  0  0  0  0
  1  2  1  0
  2  3  1  0
  3  4  1  0
  4  5  1  0
  5  6  1  0
  6  7  1  0
  7  8  1  0
  8  9  2  0
  4  2  1  0
  7  4  1  0
  1 10  1  0
  1 11  1  0
  1 12  1  0
  2 13  1  0
  5 14  1  0
  5 15  1  0
  6 16  1  0
  6 17  1  0
  7 18  1  0
  8 19  1  0
M  END
