
     RDKit          3D

 16 16  0  0  0  0  0  0  0  0999 V2000
   -2.4445    0.1882    0.5317 C   0  0  0  0  0  0  0  0  0  0  0  0
   -1.2138   -0.1895   -0.2200 C   0  0  0  0  0  0  0  0  0  0  0  0
   -0.1972   -0.7840    0.5610 O   0  0  0  0  0  0  0  0  0  0  0  0
    0.6971   -0.2295   -0.3777 C   0  0  0  0  0  0  0  0  0  0  0  0
    2.0473    0.1116    0.1872 C   0  0  0  0  0  0  0  0  0  0  0  0
    2.5889   -1.0994    0.6753 O   0  0  0  0  0  0  0  0  0  0  0  0
   -0.2539    0.8838   -0.5250 C   0  0  0  0  0  0  0  0  0  0  0  0
   -0.2026    2.0501   -0.7702 O   0  0  0  0  0  0  0  0  0  0  0  0
   -3.3335   -0.1415   -0.0810 H   0  0  0  0  0  0  0  0  0  0  0  0
   -2.5460   -0.2733    1.5220 H   0  0  0  0  0  0  0  0  0  0  0  0
   -2.5142    1.3027    0.5511 H   0  0  0  0  0  0  0  0  0  0  0  0
   -1.3918   -0.8838   -1.0942 H   0  0  0  0  0  0  0  0  0  0  0  0
    0.7810   -0.9007   -1.2740 H   0  0  0  0  0  0  0  0  0  0  0  0
    1.9125    0.7754    1.0636 H   0  0  0  0  0  0  0  0  0  0  0  0
    2.6541    0.5367   -0.6153 H   0  0  0  0  0  0  0  0  0  0  0  0
    3.4165   -1.3468    0.1857 H   0  0  0  0  0  0  0  0  0  0  0  0
  1  2  1  0
  2  3  1  0
  3  4  1  0
  4  5  1  0
  5  6  1  0
  4  7  1  0
  7  8  2  0
  7  2  1  0
  1  9  1  0
  1 10  1  0
  1 11  1  0
  2 12  1  0
  4 13  1  0
  5 14  1  0
  5 15  1  0
  6 16  1  0
M  END
