
     RDKit          3D

 19 20  0  0  0  0  0  0  0  0999 V2000
    2.1317   -0.7106   -0.2212 C   0  0  0  0  0  0  0  0  0  0  0  0
    1.2709    0.2212    0.6213 C   0  0  0  0  0  0  0  0  0  0  0  0
    1.3274    1.4743    0.0728 O   0  0  0  0  0  0  0  0  0  0  0  0
    0.2877    1.5612   -0.8453 C   0  0  0  0  0  0  0  0  0  0  0  0
   -0.7353    0.6222   -0.3263 C   0  0  0  0  0  0  0  0  0  0  0  0
   -0.1559   -0.1696    0.5404 C   0  0  0  0  0  0  0  0  0  0  0  0
   -1.2190   -1.1232    1.0676 C   0  0  0  0  0  0  0  0  0  0  0  0
   -2.3578   -0.2891    0.9241 O   0  0  0  0  0  0  0  0  0  0  0  0
   -2.1703    0.1803   -0.3714 C   0  0  0  0  0  0  0  0  0  0  0  0
    3.0254   -1.0466    0.3293 H   0  0  0  0  0  0  0  0  0  0  0  0
    2.4511   -0.2697   -1.1637 H   0  0  0  0  0  0  0  0  0  0  0  0
    1.5254   -1.6099   -0.4399 H   0  0  0  0  0  0  0  0  0  0  0  0
    1.6368    0.2704    1.6657 H   0  0  0  0  0  0  0  0  0  0  0  0
   -0.0756    2.6114   -0.8125 H   0  0  0  0  0  0  0  0  0  0  0  0
    0.5699    1.3249   -1.8706 H   0  0  0  0  0  0  0  0  0  0  0  0
   -1.3587   -1.9688    0.3941 H   0  0  0  0  0  0  0  0  0  0  0  0
   -1.0525   -1.3643    2.1176 H   0  0  0  0  0  0  0  0  0  0  0  0
   -2.2558   -0.7133   -1.0336 H   0  0  0  0  0  0  0  0  0  0  0  0
   -2.8454    0.9992   -0.6485 H   0  0  0  0  0  0  0  0  0  0  0  0
  1  2  1  0
  2  3  1  0
  3  4  1  0
  4  5  1  0
  5  6  2  0
  6  7  1  0
  7  8  1  0
  8  9  1  0
  6  2  1  0
  9  5  1  0
  1 10  1  0
  1 11  1  0
  1 12  1  0
  2 13  1  0
  4 14  1  0
  4 15  1  0
  7 16  1  0
  7 17  1  0
  9 18  1  0
  9 19  1  0
M  END
