
     RDKit          3D

 17 18  0  0  0  0  0  0  0  0999 V2000
    2.4296   -0.1267    0.0168 C   0  0  0  0  0  0  0  0  0  0  0  0
    1.0009    0.2339   -0.2052 C   0  0  0  0  0  0  0  0  0  0  0  0
    0.4530   -0.2613   -1.3561 O   0  0  0  0  0  0  0  0  0  0  0  0
   -0.8442   -0.6305   -1.1427 C   0  0  0  0  0  0  0  0  0  0  0  0
   -1.2098   -0.2471    0.2486 C   0  0  0  0  0  0  0  0  0  0  0  0
   -2.1327    0.8222    0.5970 C   0  0  0  0  0  0  0  0  0  0  0  0
   -2.3516   -0.6098    0.8539 O   0  0  0  0  0  0  0  0  0  0  0  0
    0.1118   -0.2472    0.9162 C   0  0  0  0  0  0  0  0  0  0  0  0
    0.4644   -0.5320    2.0235 O   0  0  0  0  0  0  0  0  0  0  0  0
    2.8088   -0.6066   -0.9171 H   0  0  0  0  0  0  0  0  0  0  0  0
    3.0079    0.8282    0.1039 H   0  0  0  0  0  0  0  0  0  0  0  0
    2.6374   -0.7072    0.9149 H   0  0  0  0  0  0  0  0  0  0  0  0
    0.8391    1.3523   -0.2201 H   0  0  0  0  0  0  0  0  0  0  0  0
   -1.5580   -0.1964   -1.8903 H   0  0  0  0  0  0  0  0  0  0  0  0
   -0.9057   -1.7433   -1.3193 H   0  0  0  0  0  0  0  0  0  0  0  0
   -2.8337    1.2632   -0.1263 H   0  0  0  0  0  0  0  0  0  0  0  0
   -1.9171    1.4082    1.5023 H   0  0  0  0  0  0  0  0  0  0  0  0
  1  2  1  0
  2  3  1  0
  3  4  1  0
  4  5  1  0
  5  6  1  0
  6  7  1  0
  5  8  1  0
  8  9  2  0
  8  2  1  0
  7  5  1  0
  1 10  1  0
  1 11  1  0
  1 12  1  0
  2 13  1  0
  4 14  1  0
  4 15  1  0
  6 16  1  0
  6 17  1  0
M  END
