
     RDKit          3D

 19 20  0  0  0  0  0  0  0  0999 V2000
   -2.0396   -0.4415    0.7589 C   0  0  0  0  0  0  0  0  0  0  0  0
   -1.2476   -0.0760   -0.4613 C   0  0  0  0  0  0  0  0  0  0  0  0
   -1.5051    1.2090   -0.9550 O   0  0  0  0  0  0  0  0  0  0  0  0
   -0.1280    1.5216   -1.0174 C   0  0  0  0  0  0  0  0  0  0  0  0
    0.1220    0.3968   -0.1037 C   0  0  0  0  0  0  0  0  0  0  0  0
    0.4041    0.6325    1.2061 O   0  0  0  0  0  0  0  0  0  0  0  0
    1.3592   -0.3922    1.1539 C   0  0  0  0  0  0  0  0  0  0  0  0
    1.2205   -0.5381   -0.3314 C   0  0  0  0  0  0  0  0  0  0  0  0
    2.2884   -0.1337   -1.1000 O   0  0  0  0  0  0  0  0  0  0  0  0
   -3.0857   -0.1399    0.5834 H   0  0  0  0  0  0  0  0  0  0  0  0
   -2.0357   -1.5306    0.9079 H   0  0  0  0  0  0  0  0  0  0  0  0
   -1.5855    0.0142    1.6503 H   0  0  0  0  0  0  0  0  0  0  0  0
   -1.2566   -0.8328   -1.2615 H   0  0  0  0  0  0  0  0  0  0  0  0
   -0.0092    2.5477   -0.5830 H   0  0  0  0  0  0  0  0  0  0  0  0
    0.2551    1.4163   -2.0550 H   0  0  0  0  0  0  0  0  0  0  0  0
    2.3511   -0.0610    1.5001 H   0  0  0  0  0  0  0  0  0  0  0  0
    0.9987   -1.2404    1.7680 H   0  0  0  0  0  0  0  0  0  0  0  0
    0.8858   -1.5560   -0.6613 H   0  0  0  0  0  0  0  0  0  0  0  0
    3.0081   -0.7959   -0.9991 H   0  0  0  0  0  0  0  0  0  0  0  0
  1  2  1  0
  2  3  1  0
  3  4  1  0
  4  5  1  0
  5  6  1  0
  6  7  1  0
  7  8  1  0
  8  9  1  0
  5  2  1  0
  8  5  1  0
  1 10  1  0
  1 11  1  0
  1 12  1  0
  2 13  1  0
  4 14  1  0
  4 15  1  0
  7 16  1  0
  7 17  1  0
  8 18  1  0
  9 19  1  0
M  END
