
     RDKit          3D

 21 22  0  0  0  0  0  0  0  0999 V2000
    2.4357   -0.4703    0.4781 C   0  0  0  0  0  0  0  0  0  0  0  0
    1.2818    0.3761    0.0493 C   0  0  0  0  0  0  0  0  0  0  0  0
    0.3412    0.4803    1.0809 O   0  0  0  0  0  0  0  0  0  0  0  0
   -0.6381    0.4796    0.0931 C   0  0  0  0  0  0  0  0  0  0  0  0
   -1.1301    1.7960   -0.3807 C   0  0  0  0  0  0  0  0  0  0  0  0
   -1.7016    2.5685    0.6207 O   0  0  0  0  0  0  0  0  0  0  0  0
   -0.9788   -0.8055   -0.4972 C   0  0  0  0  0  0  0  0  0  0  0  0
   -0.9693   -2.0403    0.3685 C   0  0  0  0  0  0  0  0  0  0  0  0
    0.3087   -0.2214   -0.8963 C   0  0  0  0  0  0  0  0  0  0  0  0
    2.1946   -1.0867    1.3723 H   0  0  0  0  0  0  0  0  0  0  0  0
    3.2815    0.1988    0.8132 H   0  0  0  0  0  0  0  0  0  0  0  0
    2.8518   -1.0948   -0.3588 H   0  0  0  0  0  0  0  0  0  0  0  0
    1.6512    1.3887   -0.2891 H   0  0  0  0  0  0  0  0  0  0  0  0
   -0.2323    2.3803   -0.7411 H   0  0  0  0  0  0  0  0  0  0  0  0
   -1.7666    1.6614   -1.2620 H   0  0  0  0  0  0  0  0  0  0  0  0
   -2.4898    2.1449    1.0348 H   0  0  0  0  0  0  0  0  0  0  0  0
   -1.8172   -0.8076   -1.2373 H   0  0  0  0  0  0  0  0  0  0  0  0
   -1.3102   -2.9020   -0.2442 H   0  0  0  0  0  0  0  0  0  0  0  0
   -1.7075   -1.9189    1.1876 H   0  0  0  0  0  0  0  0  0  0  0  0
    0.0384   -2.3067    0.7400 H   0  0  0  0  0  0  0  0  0  0  0  0
    0.3565    0.1797   -1.9318 H   0  0  0  0  0  0  0  0  0  0  0  0
  1  2  1  0
  2  3  1  0
  3  4  1  0
  4  5  1  0
  5  6  1  0
  4  7  1  0
  7  8  1  0
  7  9  1  0
  9  2  1  0
  9  4  1  0
  1 10  1  0
  1 11  1  0
  1 12  1  0
  2 13  1  0
  5 14  1  0
  5 15  1  0
  6 16  1  0
  7 17  1  0
  8 18  1  0
  8 19  1  0
  8 20  1  0
  9 21  1  0
M  END
