
     RDKit          3D

 15 15  0  0  0  0  0  0  0  0999 V2000
    1.8541   -0.4645    0.3647 C   0  0  0  0  0  0  0  0  0  0  0  0
    0.5894   -0.1119   -0.3866 C   0  0  0  0  0  0  0  0  0  0  0  0
    0.4913    1.2583   -0.5657 O   0  0  0  0  0  0  0  0  0  0  0  0
   -0.6233    1.3992    0.2453 C   0  0  0  0  0  0  0  0  0  0  0  0
   -0.6674   -0.0964    0.4726 C   0  0  0  0  0  0  0  0  0  0  0  0
   -1.7910   -0.7639   -0.2439 C   0  0  0  0  0  0  0  0  0  0  0  0
   -1.5957   -1.4126   -1.2592 O   0  0  0  0  0  0  0  0  0  0  0  0
    2.5591   -0.9738   -0.3317 H   0  0  0  0  0  0  0  0  0  0  0  0
    1.6506   -1.1883    1.1752 H   0  0  0  0  0  0  0  0  0  0  0  0
    2.3693    0.4472    0.7273 H   0  0  0  0  0  0  0  0  0  0  0  0
    0.4863   -0.7155   -1.3144 H   0  0  0  0  0  0  0  0  0  0  0  0
   -0.4764    2.0193    1.1413 H   0  0  0  0  0  0  0  0  0  0  0  0
   -1.4837    1.7472   -0.3931 H   0  0  0  0  0  0  0  0  0  0  0  0
   -0.5386   -0.4341    1.5063 H   0  0  0  0  0  0  0  0  0  0  0  0
   -2.8240   -0.7101    0.0924 H   0  0  0  0  0  0  0  0  0  0  0  0
  1  2  1  0
  2  3  1  0
  3  4  1  0
  4  5  1  0
  5  6  1  0
  6  7  2  0
  5  2  1  0
  1  8  1  0
  1  9  1  0
  1 10  1  0
  2 11  1  0
  4 12  1  0
  4 13  1  0
  5 14  1  0
  6 15  1  0
M  END
