
     RDKit          3D

 21 22  0  0  0  0  0  0  0  0999 V2000
   -2.2936    1.4877   -0.1592 C   0  0  0  0  0  0  0  0  0  0  0  0
   -2.3177    0.0288   -0.4727 C   0  0  0  0  0  0  0  0  0  0  0  0
   -1.2779   -0.2497   -1.4987 O   0  0  0  0  0  0  0  0  0  0  0  0
   -1.2665   -0.8997   -0.1420 C   0  0  0  0  0  0  0  0  0  0  0  0
   -0.0432   -0.5286    0.6626 C   0  0  0  0  0  0  0  0  0  0  0  0
    0.9308   -1.7002    0.8790 C   0  0  0  0  0  0  0  0  0  0  0  0
    1.2658   -0.5442   -0.0424 C   0  0  0  0  0  0  0  0  0  0  0  0
    2.4181    0.2908    0.4149 C   0  0  0  0  0  0  0  0  0  0  0  0
    2.1655    1.6495    0.4168 O   0  0  0  0  0  0  0  0  0  0  0  0
   -2.6100    2.0364   -1.0903 H   0  0  0  0  0  0  0  0  0  0  0  0
   -1.3249    1.8497    0.2244 H   0  0  0  0  0  0  0  0  0  0  0  0
   -3.0491    1.7272    0.6150 H   0  0  0  0  0  0  0  0  0  0  0  0
   -3.3082   -0.3671   -0.7457 H   0  0  0  0  0  0  0  0  0  0  0  0
   -1.4582   -1.9723   -0.3240 H   0  0  0  0  0  0  0  0  0  0  0  0
   -0.2032    0.0683    1.5746 H   0  0  0  0  0  0  0  0  0  0  0  0
    1.4439   -1.7742    1.8487 H   0  0  0  0  0  0  0  0  0  0  0  0
    0.7184   -2.6466    0.3705 H   0  0  0  0  0  0  0  0  0  0  0  0
    1.2222   -0.7256   -1.1445 H   0  0  0  0  0  0  0  0  0  0  0  0
    2.7980   -0.0225    1.4179 H   0  0  0  0  0  0  0  0  0  0  0  0
    3.2679    0.1214   -0.2854 H   0  0  0  0  0  0  0  0  0  0  0  0
    2.9221    2.1710    0.0005 H   0  0  0  0  0  0  0  0  0  0  0  0
  1  2  1  0
  2  3  1  0
  3  4  1  0
  4  5  1  0
  5  6  1  0
  6  7  1  0
  7  8  1  0
  8  9  1  0
  4  2  1  0
  7  5  1  0
  1 10  1  0
  1 11  1  0
  1 12  1  0
  2 13  1  0
  4 14  1  0
  5 15  1  0
  6 16  1  0
  6 17  1  0
  7 18  1  0
  8 19  1  0
  8 20  1  0
  9 21  1  0
M  END
