
     RDKit          3D

 16 16  0  0  0  0  0  0  0  0999 V2000
    1.9234   -0.5490    0.5040 C   0  0  0  0  0  0  0  0  0  0  0  0
    1.0792    0.3482   -0.3335 C   0  0  0  0  0  0  0  0  0  0  0  0
    0.2933   -0.4220   -1.2888 O   0  0  0  0  0  0  0  0  0  0  0  0
   -0.3894    0.3239   -0.3281 C   0  0  0  0  0  0  0  0  0  0  0  0
   -1.0461    1.5323   -0.8858 C   0  0  0  0  0  0  0  0  0  0  0  0
   -0.5646    2.2475   -1.7465 O   0  0  0  0  0  0  0  0  0  0  0  0
   -1.1676   -0.4066    0.7256 C   0  0  0  0  0  0  0  0  0  0  0  0
   -2.1678   -1.2101    0.1891 O   0  0  0  0  0  0  0  0  0  0  0  0
    2.9074   -0.0699    0.7599 H   0  0  0  0  0  0  0  0  0  0  0  0
    1.4732   -0.8226    1.4812 H   0  0  0  0  0  0  0  0  0  0  0  0
    2.1658   -1.5234   -0.0054 H   0  0  0  0  0  0  0  0  0  0  0  0
    1.6143    1.2209   -0.7808 H   0  0  0  0  0  0  0  0  0  0  0  0
   -2.0198    1.8125   -0.5144 H   0  0  0  0  0  0  0  0  0  0  0  0
   -1.6750    0.3388    1.3726 H   0  0  0  0  0  0  0  0  0  0  0  0
   -0.5531   -1.0375    1.3859 H   0  0  0  0  0  0  0  0  0  0  0  0
   -1.8732   -1.7828   -0.5349 H   0  0  0  0  0  0  0  0  0  0  0  0
  1  2  1  0
  2  3  1  0
  3  4  1  0
  4  5  1  0
  5  6  2  0
  4  7  1  0
  7  8  1  0
  4  2  1  0
  1  9  1  0
  1 10  1  0
  1 11  1  0
  2 12  1  0
  5 13  1  0
  7 14  1  0
  7 15  1  0
  8 16  1  0
M  END
