
     RDKit          3D

 17 18  0  0  0  0  0  0  0  0999 V2000
    2.2416    0.2973    0.0809 C   0  0  0  0  0  0  0  0  0  0  0  0
    0.8031    0.4142   -0.3237 C   0  0  0  0  0  0  0  0  0  0  0  0
    0.0815    1.2655    0.4961 O   0  0  0  0  0  0  0  0  0  0  0  0
   -0.9854    0.5420    0.9965 C   0  0  0  0  0  0  0  0  0  0  0  0
   -1.9867    0.1640   -0.0915 C   0  0  0  0  0  0  0  0  0  0  0  0
   -1.1780   -0.8118   -0.8680 C   0  0  0  0  0  0  0  0  0  0  0  0
   -1.3987   -1.4418   -1.8712 O   0  0  0  0  0  0  0  0  0  0  0  0
    0.1009   -0.8997   -0.1230 C   0  0  0  0  0  0  0  0  0  0  0  0
   -0.3764   -0.7242    1.1967 O   0  0  0  0  0  0  0  0  0  0  0  0
    2.7560    1.2715    0.1299 H   0  0  0  0  0  0  0  0  0  0  0  0
    2.3315   -0.1994    1.0710 H   0  0  0  0  0  0  0  0  0  0  0  0
    2.7285   -0.3997   -0.6475 H   0  0  0  0  0  0  0  0  0  0  0  0
    0.7488    0.7312   -1.3870 H   0  0  0  0  0  0  0  0  0  0  0  0
   -1.4388    0.9387    1.8933 H   0  0  0  0  0  0  0  0  0  0  0  0
   -2.7934   -0.3899    0.4014 H   0  0  0  0  0  0  0  0  0  0  0  0
   -2.3135    1.0238   -0.6818 H   0  0  0  0  0  0  0  0  0  0  0  0
    0.6791   -1.7818   -0.2722 H   0  0  0  0  0  0  0  0  0  0  0  0
  1  2  1  0
  2  3  1  0
  3  4  1  0
  4  5  1  0
  5  6  1  0
  6  7  2  0
  6  8  1  0
  8  9  1  0
  8  2  1  0
  9  4  1  0
  1 10  1  0
  1 11  1  0
  1 12  1  0
  2 13  1  0
  4 14  1  0
  5 15  1  0
  5 16  1  0
  8 17  1  0
M  END
