
     RDKit          3D

 21 22  0  0  0  0  0  0  0  0999 V2000
   -2.1688   -0.9950   -0.6199 C   0  0  0  0  0  0  0  0  0  0  0  0
   -0.7388   -1.0135   -0.0615 C   0  0  0  0  0  0  0  0  0  0  0  0
    0.0779   -0.6322   -1.1433 O   0  0  0  0  0  0  0  0  0  0  0  0
    1.1733    0.0154   -0.6006 C   0  0  0  0  0  0  0  0  0  0  0  0
    2.0452   -1.0704    0.0400 C   0  0  0  0  0  0  0  0  0  0  0  0
    0.5456    0.8782    0.4623 C   0  0  0  0  0  0  0  0  0  0  0  0
    0.2284    2.3047    0.2175 C   0  0  0  0  0  0  0  0  0  0  0  0
    0.4669    0.2992    1.7029 O   0  0  0  0  0  0  0  0  0  0  0  0
   -0.6534    0.0602    0.9610 C   0  0  0  0  0  0  0  0  0  0  0  0
   -2.2414   -0.2790   -1.4726 H   0  0  0  0  0  0  0  0  0  0  0  0
   -2.5154   -1.9838   -0.9113 H   0  0  0  0  0  0  0  0  0  0  0  0
   -2.8578   -0.6020    0.1656 H   0  0  0  0  0  0  0  0  0  0  0  0
   -0.4796   -2.0046    0.3311 H   0  0  0  0  0  0  0  0  0  0  0  0
    1.6982    0.5671   -1.3768 H   0  0  0  0  0  0  0  0  0  0  0  0
    1.8870   -1.1375    1.1242 H   0  0  0  0  0  0  0  0  0  0  0  0
    3.1173   -0.9261   -0.2165 H   0  0  0  0  0  0  0  0  0  0  0  0
    1.7823   -2.0809   -0.3730 H   0  0  0  0  0  0  0  0  0  0  0  0
   -0.0006    2.7811    1.2049 H   0  0  0  0  0  0  0  0  0  0  0  0
   -0.7523    2.3497   -0.3417 H   0  0  0  0  0  0  0  0  0  0  0  0
    0.9432    2.8639   -0.3823 H   0  0  0  0  0  0  0  0  0  0  0  0
   -1.5571    0.6055    1.2899 H   0  0  0  0  0  0  0  0  0  0  0  0
  1  2  1  0
  2  3  1  0
  3  4  1  0
  4  5  1  0
  4  6  1  0
  6  7  1  0
  6  8  1  0
  8  9  1  0
  9  2  1  0
  9  6  1  0
  1 10  1  0
  1 11  1  0
  1 12  1  0
  2 13  1  0
  4 14  1  0
  5 15  1  0
  5 16  1  0
  5 17  1  0
  7 18  1  0
  7 19  1  0
  7 20  1  0
  9 21  1  0
M  END
