
     RDKit          3D

 18 19  0  0  0  0  0  0  0  0999 V2000
    2.4221   -0.3402    0.1027 C   0  0  0  0  0  0  0  0  0  0  0  0
    1.1108    0.1427    0.6976 C   0  0  0  0  0  0  0  0  0  0  0  0
    0.2148   -0.8687    0.9784 O   0  0  0  0  0  0  0  0  0  0  0  0
   -0.6970   -0.3025    0.1410 C   0  0  0  0  0  0  0  0  0  0  0  0
   -1.6127   -1.0780   -0.6781 C   0  0  0  0  0  0  0  0  0  0  0  0
   -2.1156   -0.1307    0.4187 C   0  0  0  0  0  0  0  0  0  0  0  0
    0.2132    0.7570   -0.3444 C   0  0  0  0  0  0  0  0  0  0  0  0
   -0.1111    2.0682    0.0419 O   0  0  0  0  0  0  0  0  0  0  0  0
    2.9037   -0.9986    0.8566 H   0  0  0  0  0  0  0  0  0  0  0  0
    3.0763    0.5186   -0.0900 H   0  0  0  0  0  0  0  0  0  0  0  0
    2.2143   -0.8620   -0.8408 H   0  0  0  0  0  0  0  0  0  0  0  0
    1.2928    0.7508    1.6025 H   0  0  0  0  0  0  0  0  0  0  0  0
   -1.6715   -2.1791   -0.4506 H   0  0  0  0  0  0  0  0  0  0  0  0
   -1.8185   -0.8301   -1.7248 H   0  0  0  0  0  0  0  0  0  0  0  0
   -2.6545   -0.6151    1.2453 H   0  0  0  0  0  0  0  0  0  0  0  0
   -2.5941    0.8152    0.0486 H   0  0  0  0  0  0  0  0  0  0  0  0
    0.5174    0.6360   -1.3908 H   0  0  0  0  0  0  0  0  0  0  0  0
   -0.6905    2.5166   -0.6140 H   0  0  0  0  0  0  0  0  0  0  0  0
  1  2  1  0
  2  3  1  0
  3  4  1  0
  4  5  1  0
  5  6  1  0
  4  7  1  0
  7  8  1  0
  7  2  1  0
  6  4  1  0
  1  9  1  0
  1 10  1  0
  1 11  1  0
  2 12  1  0
  5 13  1  0
  5 14  1  0
  6 15  1  0
  6 16  1  0
  7 17  1  0
  8 18  1  0
M  END
