
     RDKit          3D

 19 20  0  0  0  0  0  0  0  0999 V2000
   -2.2971   -0.0301    0.4872 C   0  0  0  0  0  0  0  0  0  0  0  0
   -1.4146    0.1817   -0.7445 C   0  0  0  0  0  0  0  0  0  0  0  0
   -0.7537   -0.9709   -1.1152 O   0  0  0  0  0  0  0  0  0  0  0  0
    0.3174   -1.2700   -0.2858 C   0  0  0  0  0  0  0  0  0  0  0  0
    1.3277   -0.1678   -0.4231 C   0  0  0  0  0  0  0  0  0  0  0  0
    2.4891   -0.5384   -1.1309 O   0  0  0  0  0  0  0  0  0  0  0  0
    1.5150    0.8763    0.5840 C   0  0  0  0  0  0  0  0  0  0  0  0
    0.7081    1.1142   -0.7054 C   0  0  0  0  0  0  0  0  0  0  0  0
   -0.6209    1.2595   -0.5039 O   0  0  0  0  0  0  0  0  0  0  0  0
   -3.1752   -0.6679    0.2538 H   0  0  0  0  0  0  0  0  0  0  0  0
   -2.6642    0.9603    0.8106 H   0  0  0  0  0  0  0  0  0  0  0  0
   -1.7474   -0.5126    1.3111 H   0  0  0  0  0  0  0  0  0  0  0  0
   -2.1467    0.4041   -1.5755 H   0  0  0  0  0  0  0  0  0  0  0  0
   -0.0007   -1.4426    0.7549 H   0  0  0  0  0  0  0  0  0  0  0  0
    0.7262   -2.2500   -0.6484 H   0  0  0  0  0  0  0  0  0  0  0  0
    3.1054   -0.9607   -0.4644 H   0  0  0  0  0  0  0  0  0  0  0  0
    2.4732    1.4082    0.6286 H   0  0  0  0  0  0  0  0  0  0  0  0
    0.9710    0.8195    1.5352 H   0  0  0  0  0  0  0  0  0  0  0  0
    1.1872    1.7873   -1.4660 H   0  0  0  0  0  0  0  0  0  0  0  0
  1  2  1  0
  2  3  1  0
  3  4  1  0
  4  5  1  0
  5  6  1  0
  5  7  1  0
  7  8  1  0
  8  9  1  0
  9  2  1  0
  8  5  1  0
  1 10  1  0
  1 11  1  0
  1 12  1  0
  2 13  1  0
  4 14  1  0
  4 15  1  0
  6 16  1  0
  7 17  1  0
  7 18  1  0
  8 19  1  0
M  END
