
     RDKit          3D

 23 23  0  0  0  0  0  0  0  0999 V2000
    2.7876   -0.3522    0.2367 C   0  0  0  0  0  0  0  0  0  0  0  0
    1.4863    0.0300   -0.3769 C   0  0  0  0  0  0  0  0  0  0  0  0
    1.0890    1.3264    0.0286 O   0  0  0  0  0  0  0  0  0  0  0  0
    0.5709    0.7223    1.1740 C   0  0  0  0  0  0  0  0  0  0  0  0
    0.2422   -0.4780    0.3225 C   0  0  0  0  0  0  0  0  0  0  0  0
   -0.9586   -0.2573   -0.5242 C   0  0  0  0  0  0  0  0  0  0  0  0
   -1.2050    1.1976   -0.8552 C   0  0  0  0  0  0  0  0  0  0  0  0
   -2.2310   -0.8066    0.0655 C   0  0  0  0  0  0  0  0  0  0  0  0
   -0.7873   -0.9027   -1.7676 O   0  0  0  0  0  0  0  0  0  0  0  0
    2.7109   -1.0910    1.0506 H   0  0  0  0  0  0  0  0  0  0  0  0
    3.4118   -0.8330   -0.5724 H   0  0  0  0  0  0  0  0  0  0  0  0
    3.3868    0.5295    0.5610 H   0  0  0  0  0  0  0  0  0  0  0  0
    1.3897   -0.1385   -1.4674 H   0  0  0  0  0  0  0  0  0  0  0  0
    1.3723    0.5416    1.9307 H   0  0  0  0  0  0  0  0  0  0  0  0
   -0.2774    1.2179    1.6562 H   0  0  0  0  0  0  0  0  0  0  0  0
    0.3465   -1.4536    0.8106 H   0  0  0  0  0  0  0  0  0  0  0  0
   -0.5119    1.5543   -1.6542 H   0  0  0  0  0  0  0  0  0  0  0  0
   -1.2680    1.8603    0.0037 H   0  0  0  0  0  0  0  0  0  0  0  0
   -2.2245    1.2180   -1.3439 H   0  0  0  0  0  0  0  0  0  0  0  0
   -3.1008   -0.1466   -0.1425 H   0  0  0  0  0  0  0  0  0  0  0  0
   -2.4766   -1.7947   -0.3719 H   0  0  0  0  0  0  0  0  0  0  0  0
   -2.1032   -0.8579    1.1684 H   0  0  0  0  0  0  0  0  0  0  0  0
   -1.6496   -1.0857   -2.2017 H   0  0  0  0  0  0  0  0  0  0  0  0
  1  2  1  0
  2  3  1  0
  3  4  1  0
  4  5  1  0
  5  6  1  0
  6  7  1  0
  6  8  1  0
  6  9  1  0
  5  2  1  0
  1 10  1  0
  1 11  1  0
  1 12  1  0
  2 13  1  0
  4 14  1  0
  4 15  1  0
  5 16  1  0
  7 17  1  0
  7 18  1  0
  7 19  1  0
  8 20  1  0
  8 21  1  0
  8 22  1  0
  9 23  1  0
M  END
