
     RDKit          2D

 19 22  0  0  0  0  0  0  0  0999 V2000
    2.3907    1.0037    0.0000 C   0  0  0  0  0  0  0  0  0  0  0  0
    1.2760    0.0000    0.0000 C   0  0  0  0  0  0  0  0  0  0  0  0
    0.3943    1.2135    0.0000 O   0  0  0  0  0  0  0  0  0  0  0  0
   -1.0323    0.7500    0.0000 C   0  0  0  0  0  0  0  0  0  0  0  0
   -2.5323    0.7500    0.0000 C   0  0  0  0  0  0  0  0  0  0  0  0
   -2.5323   -0.7500    0.0000 C   0  0  0  0  0  0  0  0  0  0  0  0
   -1.0323   -0.7500    0.0000 C   0  0  0  0  0  0  0  0  0  0  0  0
    0.3943   -1.2135    0.0000 C   0  0  0  0  0  0  0  0  0  0  0  0
    0.3943    0.2865    0.0000 C   0  0  0  0  0  0  0  0  0  0  0  0
    3.5054    2.0074    0.0000 H   0  0  0  0  0  0  0  0  0  0  0  0
    3.3944   -0.1110    0.0000 H   0  0  0  0  0  0  0  0  0  0  0  0
    1.3870    2.1184    0.0000 H   0  0  0  0  0  0  0  0  0  0  0  0
    2.3907   -1.0037    0.0000 H   0  0  0  0  0  0  0  0  0  0  0  0
   -4.0323    0.7500    0.0000 H   0  0  0  0  0  0  0  0  0  0  0  0
   -2.5323    2.2500    0.0000 H   0  0  0  0  0  0  0  0  0  0  0  0
   -3.5929   -1.8107    0.0000 H   0  0  0  0  0  0  0  0  0  0  0  0
   -1.2669   -2.2315    0.0000 H   0  0  0  0  0  0  0  0  0  0  0  0
    0.8578   -2.6401    0.0000 H   0  0  0  0  0  0  0  0  0  0  0  0
    1.6078    1.1682    0.0000 H   0  0  0  0  0  0  0  0  0  0  0  0
  1  2  1  0
  2  3  1  0
  3  4  1  0
  4  5  1  0
  5  6  1  0
  6  7  1  0
  7  8  1  0
  8  9  1  0
  8  2  1  0
  7  4  1  0
  9  4  1  0
  9  6  1  0
  1 10  1  0
  1 11  1  0
  1 12  1  0
  2 13  1  0
  5 14  1  0
  5 15  1  0
  6 16  1  0
  7 17  1  0
  8 18  1  0
  9 19  1  0
M  END
