
     RDKit          3D

 19 21  0  0  0  0  0  0  0  0999 V2000
    2.6524   -0.3047    0.2874 C   0  0  0  0  0  0  0  0  0  0  0  0
    1.5246    0.6927    0.1586 C   0  0  0  0  0  0  0  0  0  0  0  0
    0.8140    0.3751   -0.9802 O   0  0  0  0  0  0  0  0  0  0  0  0
   -0.1020   -0.5883   -0.5718 C   0  0  0  0  0  0  0  0  0  0  0  0
   -1.4727   -0.2493   -1.0471 C   0  0  0  0  0  0  0  0  0  0  0  0
   -2.6718   -0.3388   -0.2168 C   0  0  0  0  0  0  0  0  0  0  0  0
   -1.6124    0.5774    0.2751 C   0  0  0  0  0  0  0  0  0  0  0  0
   -0.4121   -0.1229    0.8528 C   0  0  0  0  0  0  0  0  0  0  0  0
    0.6446    0.6526    1.2297 O   0  0  0  0  0  0  0  0  0  0  0  0
    2.5784   -0.8496    1.2278 H   0  0  0  0  0  0  0  0  0  0  0  0
    3.6198    0.2142    0.2613 H   0  0  0  0  0  0  0  0  0  0  0  0
    2.6266   -1.0758   -0.5310 H   0  0  0  0  0  0  0  0  0  0  0  0
    1.9387    1.7372    0.1379 H   0  0  0  0  0  0  0  0  0  0  0  0
    0.2199   -1.6244   -0.5971 H   0  0  0  0  0  0  0  0  0  0  0  0
   -1.5528    0.3277   -1.9853 H   0  0  0  0  0  0  0  0  0  0  0  0
   -3.5875    0.1277   -0.5703 H   0  0  0  0  0  0  0  0  0  0  0  0
   -2.8444   -1.2581    0.3950 H   0  0  0  0  0  0  0  0  0  0  0  0
   -1.6385    1.6562    0.1408 H   0  0  0  0  0  0  0  0  0  0  0  0
   -0.7250   -0.9383    1.5332 H   0  0  0  0  0  0  0  0  0  0  0  0
  1  2  1  0
  2  3  1  0
  3  4  1  0
  4  5  1  0
  5  6  1  0
  6  7  1  0
  7  8  1  0
  8  9  1  0
  9  2  1  0
  8  4  1  0
  7  5  1  0
  1 10  1  0
  1 11  1  0
  1 12  1  0
  2 13  1  0
  4 14  1  0
  5 15  1  0
  6 16  1  0
  6 17  1  0
  7 18  1  0
  8 19  1  0
M  END
