
     RDKit          3D

 17 18  0  0  0  0  0  0  0  0999 V2000
    2.5722    0.8376   -0.2829 C   0  0  0  0  0  0  0  0  0  0  0  0
    1.1473    0.7683    0.2279 C   0  0  0  0  0  0  0  0  0  0  0  0
    0.9208   -0.3694    1.0229 O   0  0  0  0  0  0  0  0  0  0  0  0
    0.2787   -0.2214   -0.3102 C   0  0  0  0  0  0  0  0  0  0  0  0
   -1.2156   -0.2131   -0.1152 C   0  0  0  0  0  0  0  0  0  0  0  0
   -1.7499    0.3263    1.1742 C   0  0  0  0  0  0  0  0  0  0  0  0
   -2.9400    0.3683    1.4099 O   0  0  0  0  0  0  0  0  0  0  0  0
   -1.9384   -1.4204   -0.6613 C   0  0  0  0  0  0  0  0  0  0  0  0
   -2.0299   -0.0868   -1.2436 O   0  0  0  0  0  0  0  0  0  0  0  0
    2.7320    1.6268   -1.0119 H   0  0  0  0  0  0  0  0  0  0  0  0
    3.2467    0.9835    0.5892 H   0  0  0  0  0  0  0  0  0  0  0  0
    2.8787   -0.1244   -0.7517 H   0  0  0  0  0  0  0  0  0  0  0  0
    0.7369    1.7414    0.5625 H   0  0  0  0  0  0  0  0  0  0  0  0
    0.6560   -0.9739   -1.0407 H   0  0  0  0  0  0  0  0  0  0  0  0
   -1.0577    0.6916    1.9233 H   0  0  0  0  0  0  0  0  0  0  0  0
   -1.3816   -2.1470   -1.2903 H   0  0  0  0  0  0  0  0  0  0  0  0
   -2.8561   -1.7874   -0.2022 H   0  0  0  0  0  0  0  0  0  0  0  0
  1  2  1  0
  2  3  1  0
  3  4  1  0
  4  5  1  0
  5  6  1  0
  6  7  2  0
  5  8  1  0
  8  9  1  0
  4  2  1  0
  9  5  1  0
  1 10  1  0
  1 11  1  0
  1 12  1  0
  2 13  1  0
  4 14  1  0
  6 15  1  0
  8 16  1  0
  8 17  1  0
M  END
