
     RDKit          3D

 19 20  0  0  0  0  0  0  0  0999 V2000
    1.2930    1.3586    0.2773 C   0  0  0  0  0  0  0  0  0  0  0  0
    0.2536    0.8061   -0.7032 C   0  0  0  0  0  0  0  0  0  0  0  0
    0.9696   -0.0831   -1.5319 O   0  0  0  0  0  0  0  0  0  0  0  0
    0.5465   -1.3561   -1.1250 C   0  0  0  0  0  0  0  0  0  0  0  0
    0.8758   -1.6188    0.3040 C   0  0  0  0  0  0  0  0  0  0  0  0
   -0.0058   -0.8720    1.0083 C   0  0  0  0  0  0  0  0  0  0  0  0
   -0.7207   -0.0926   -0.0359 C   0  0  0  0  0  0  0  0  0  0  0  0
   -2.0217    0.4353    0.3255 C   0  0  0  0  0  0  0  0  0  0  0  0
   -0.8459   -1.1086   -1.0192 O   0  0  0  0  0  0  0  0  0  0  0  0
    2.0486    0.5736    0.5368 H   0  0  0  0  0  0  0  0  0  0  0  0
    0.8180    1.7248    1.2031 H   0  0  0  0  0  0  0  0  0  0  0  0
    1.8697    2.1587   -0.2360 H   0  0  0  0  0  0  0  0  0  0  0  0
   -0.1623    1.6457   -1.2499 H   0  0  0  0  0  0  0  0  0  0  0  0
    0.7934   -2.1434   -1.8076 H   0  0  0  0  0  0  0  0  0  0  0  0
    1.6441   -2.2596    0.7290 H   0  0  0  0  0  0  0  0  0  0  0  0
   -0.1357   -0.8664    2.0831 H   0  0  0  0  0  0  0  0  0  0  0  0
   -2.4984   -0.2118    1.0918 H   0  0  0  0  0  0  0  0  0  0  0  0
   -2.6952    0.4453   -0.5786 H   0  0  0  0  0  0  0  0  0  0  0  0
   -2.0267    1.4643    0.7285 H   0  0  0  0  0  0  0  0  0  0  0  0
  1  2  1  0
  2  3  1  0
  3  4  1  0
  4  5  1  0
  5  6  2  0
  6  7  1  0
  7  8  1  0
  7  9  1  0
  7  2  1  0
  9  4  1  0
  1 10  1  0
  1 11  1  0
  1 12  1  0
  2 13  1  0
  4 14  1  0
  5 15  1  0
  6 16  1  0
  8 17  1  0
  8 18  1  0
  8 19  1  0
M  END
