
     RDKit          3D

 18 19  0  0  0  0  0  0  0  0999 V2000
    2.1565    0.9264   -0.4323 C   0  0  0  0  0  0  0  0  0  0  0  0
    1.3839   -0.0685    0.3686 C   0  0  0  0  0  0  0  0  0  0  0  0
    0.5230    0.4724    1.3366 O   0  0  0  0  0  0  0  0  0  0  0  0
   -0.3034   -0.6453    1.0764 C   0  0  0  0  0  0  0  0  0  0  0  0
    0.2797   -0.7950   -0.3195 C   0  0  0  0  0  0  0  0  0  0  0  0
   -1.1416   -0.5243   -0.1150 C   0  0  0  0  0  0  0  0  0  0  0  0
   -1.7393    0.8460   -0.3928 C   0  0  0  0  0  0  0  0  0  0  0  0
   -2.0514   -1.5833   -0.3221 O   0  0  0  0  0  0  0  0  0  0  0  0
    3.2137    0.9752   -0.0616 H   0  0  0  0  0  0  0  0  0  0  0  0
    2.1948    0.5735   -1.4976 H   0  0  0  0  0  0  0  0  0  0  0  0
    1.6542    1.9087   -0.3608 H   0  0  0  0  0  0  0  0  0  0  0  0
    2.0564   -0.8023    0.9034 H   0  0  0  0  0  0  0  0  0  0  0  0
   -0.2411   -1.5121    1.7264 H   0  0  0  0  0  0  0  0  0  0  0  0
    0.5420   -1.8108   -0.6857 H   0  0  0  0  0  0  0  0  0  0  0  0
   -2.4335    0.7185   -1.2559 H   0  0  0  0  0  0  0  0  0  0  0  0
   -2.3004    1.2460    0.4675 H   0  0  0  0  0  0  0  0  0  0  0  0
   -0.9481    1.5889   -0.6649 H   0  0  0  0  0  0  0  0  0  0  0  0
   -2.8453   -1.5141    0.2294 H   0  0  0  0  0  0  0  0  0  0  0  0
  1  2  1  0
  2  3  1  0
  3  4  1  0
  4  5  1  0
  5  6  1  0
  6  7  1  0
  6  8  1  0
  5  2  1  0
  6  4  1  0
  1  9  1  0
  1 10  1  0
  1 11  1  0
  2 12  1  0
  4 13  1  0
  5 14  1  0
  7 15  1  0
  7 16  1  0
  7 17  1  0
  8 18  1  0
M  END
