
     RDKit          3D

 21 22  0  0  0  0  0  0  0  0999 V2000
    2.9224    0.7690    0.8677 C   0  0  0  0  0  0  0  0  0  0  0  0
    1.8889    0.1457   -0.0495 C   0  0  0  0  0  0  0  0  0  0  0  0
    1.2051    1.0096   -0.9074 O   0  0  0  0  0  0  0  0  0  0  0  0
    0.4326    0.5166    0.1396 C   0  0  0  0  0  0  0  0  0  0  0  0
   -0.6132   -0.4748   -0.2216 C   0  0  0  0  0  0  0  0  0  0  0  0
   -0.1333   -1.7065   -0.9856 C   0  0  0  0  0  0  0  0  0  0  0  0
   -1.3392   -0.8959    1.0065 O   0  0  0  0  0  0  0  0  0  0  0  0
   -2.0247   -0.2744   -0.1182 C   0  0  0  0  0  0  0  0  0  0  0  0
   -2.6879    1.0121    0.2704 C   0  0  0  0  0  0  0  0  0  0  0  0
    3.9136    0.5411    0.4246 H   0  0  0  0  0  0  0  0  0  0  0  0
    2.7455    1.8549    0.9781 H   0  0  0  0  0  0  0  0  0  0  0  0
    2.8865    0.2641    1.8582 H   0  0  0  0  0  0  0  0  0  0  0  0
    2.1400   -0.8722   -0.3612 H   0  0  0  0  0  0  0  0  0  0  0  0
    0.2695    1.1764    1.0279 H   0  0  0  0  0  0  0  0  0  0  0  0
   -0.9950   -2.1239   -1.5808 H   0  0  0  0  0  0  0  0  0  0  0  0
    0.1338   -2.5143   -0.2690 H   0  0  0  0  0  0  0  0  0  0  0  0
    0.6939   -1.4517   -1.6738 H   0  0  0  0  0  0  0  0  0  0  0  0
   -2.7018   -1.0054   -0.5931 H   0  0  0  0  0  0  0  0  0  0  0  0
   -3.7764    0.8281    0.4992 H   0  0  0  0  0  0  0  0  0  0  0  0
   -2.2726    1.4370    1.2227 H   0  0  0  0  0  0  0  0  0  0  0  0
   -2.6877    1.7644   -0.5498 H   0  0  0  0  0  0  0  0  0  0  0  0
  1  2  1  0
  2  3  1  0
  3  4  1  0
  4  5  1  0
  5  6  1  0
  5  7  1  0
  7  8  1  0
  8  9  1  0
  4  2  1  0
  8  5  1  0
  1 10  1  0
  1 11  1  0
  1 12  1  0
  2 13  1  0
  4 14  1  0
  6 15  1  0
  6 16  1  0
  6 17  1  0
  8 18  1  0
  9 19  1  0
  9 20  1  0
  9 21  1  0
M  END
