
     RDKit          3D

 19 20  0  0  0  0  0  0  0  0999 V2000
    2.4585   -0.1592    0.0531 C   0  0  0  0  0  0  0  0  0  0  0  0
    0.9296   -0.1102   -0.1279 C   0  0  0  0  0  0  0  0  0  0  0  0
    0.6387    1.0815   -0.6339 O   0  0  0  0  0  0  0  0  0  0  0  0
   -0.6603    1.4772   -0.7853 C   0  0  0  0  0  0  0  0  0  0  0  0
   -1.6009    0.8704    0.1854 C   0  0  0  0  0  0  0  0  0  0  0  0
   -2.6753    0.1219   -0.0387 O   0  0  0  0  0  0  0  0  0  0  0  0
   -1.5694   -0.6163   -0.1599 C   0  0  0  0  0  0  0  0  0  0  0  0
   -0.7839   -1.2574    0.9297 C   0  0  0  0  0  0  0  0  0  0  0  0
    0.4075   -0.5032    1.0673 O   0  0  0  0  0  0  0  0  0  0  0  0
    2.6912   -1.0606    0.6392 H   0  0  0  0  0  0  0  0  0  0  0  0
    2.6942    0.7804    0.6259 H   0  0  0  0  0  0  0  0  0  0  0  0
    2.8920   -0.1466   -0.9579 H   0  0  0  0  0  0  0  0  0  0  0  0
    0.7211   -0.9231   -0.8783 H   0  0  0  0  0  0  0  0  0  0  0  0
   -0.6991    2.5855   -0.6890 H   0  0  0  0  0  0  0  0  0  0  0  0
   -1.0013    1.2476   -1.8176 H   0  0  0  0  0  0  0  0  0  0  0  0
   -1.4152    1.1747    1.2371 H   0  0  0  0  0  0  0  0  0  0  0  0
   -1.2972   -0.9396   -1.1706 H   0  0  0  0  0  0  0  0  0  0  0  0
   -0.4446   -2.2743    0.6316 H   0  0  0  0  0  0  0  0  0  0  0  0
   -1.2856   -1.3487    1.8899 H   0  0  0  0  0  0  0  0  0  0  0  0
  1  2  1  0
  2  3  1  0
  3  4  1  0
  4  5  1  0
  5  6  1  0
  6  7  1  0
  7  8  1  0
  8  9  1  0
  9  2  1  0
  7  5  1  0
  1 10  1  0
  1 11  1  0
  1 12  1  0
  2 13  1  0
  4 14  1  0
  4 15  1  0
  5 16  1  0
  7 17  1  0
  8 18  1  0
  8 19  1  0
M  END
