
     RDKit          3D

 23 24  0  0  0  0  0  0  0  0999 V2000
    2.7853   -0.1664    0.0117 C   0  0  0  0  0  0  0  0  0  0  0  0
    1.4532   -0.3317   -0.6411 C   0  0  0  0  0  0  0  0  0  0  0  0
    0.8138    0.9237   -0.8325 O   0  0  0  0  0  0  0  0  0  0  0  0
   -0.3921    0.7872   -0.1237 C   0  0  0  0  0  0  0  0  0  0  0  0
   -1.2994    1.9063   -0.0876 C   0  0  0  0  0  0  0  0  0  0  0  0
    0.0666    0.1492    1.1626 C   0  0  0  0  0  0  0  0  0  0  0  0
    0.4224   -0.9961    0.2047 C   0  0  0  0  0  0  0  0  0  0  0  0
   -0.8464   -0.5738   -0.5519 C   0  0  0  0  0  0  0  0  0  0  0  0
   -2.0933   -1.1127    0.0193 C   0  0  0  0  0  0  0  0  0  0  0  0
    2.7921    0.6614    0.7559 H   0  0  0  0  0  0  0  0  0  0  0  0
    3.0416   -1.1359    0.5013 H   0  0  0  0  0  0  0  0  0  0  0  0
    3.5265    0.1196   -0.7643 H   0  0  0  0  0  0  0  0  0  0  0  0
    1.5233   -0.7815   -1.6374 H   0  0  0  0  0  0  0  0  0  0  0  0
   -1.2062    2.4986   -1.0434 H   0  0  0  0  0  0  0  0  0  0  0  0
   -2.3512    1.6293    0.0019 H   0  0  0  0  0  0  0  0  0  0  0  0
   -0.9675    2.6348    0.7076 H   0  0  0  0  0  0  0  0  0  0  0  0
   -0.6878   -0.0984    1.8979 H   0  0  0  0  0  0  0  0  0  0  0  0
    0.9538    0.5935    1.6402 H   0  0  0  0  0  0  0  0  0  0  0  0
    0.5027   -1.9677    0.5696 H   0  0  0  0  0  0  0  0  0  0  0  0
   -0.7400   -0.8019   -1.6215 H   0  0  0  0  0  0  0  0  0  0  0  0
   -2.4013   -0.7311    0.9898 H   0  0  0  0  0  0  0  0  0  0  0  0
   -2.9271   -0.9753   -0.6849 H   0  0  0  0  0  0  0  0  0  0  0  0
   -1.9689   -2.2310    0.1207 H   0  0  0  0  0  0  0  0  0  0  0  0
  1  2  1  0
  2  3  1  0
  3  4  1  0
  4  5  1  0
  4  6  1  0
  6  7  1  0
  7  8  1  0
  8  9  1  0
  7  2  1  0
  8  4  1  0
  1 10  1  0
  1 11  1  0
  1 12  1  0
  2 13  1  0
  5 14  1  0
  5 15  1  0
  5 16  1  0
  6 17  1  0
  6 18  1  0
  7 19  1  0
  8 20  1  0
  9 21  1  0
  9 22  1  0
  9 23  1  0
M  END
