
     RDKit          3D

 21 22  0  0  0  0  0  0  0  0999 V2000
   -2.3545    0.5442    0.9082 C   0  0  0  0  0  0  0  0  0  0  0  0
   -1.4155   -0.3056    0.1195 C   0  0  0  0  0  0  0  0  0  0  0  0
   -1.0952    0.2386   -1.1236 O   0  0  0  0  0  0  0  0  0  0  0  0
    0.2820    0.4035   -1.1398 C   0  0  0  0  0  0  0  0  0  0  0  0
    0.6309    1.3629   -0.0295 C   0  0  0  0  0  0  0  0  0  0  0  0
    0.4215    0.6783    1.1682 O   0  0  0  0  0  0  0  0  0  0  0  0
   -0.1007   -0.5578    0.8256 C   0  0  0  0  0  0  0  0  0  0  0  0
    0.7187   -0.8956   -0.4341 C   0  0  0  0  0  0  0  0  0  0  0  0
    2.1781   -0.9227   -0.1689 C   0  0  0  0  0  0  0  0  0  0  0  0
   -2.2694    1.5820    0.5450 H   0  0  0  0  0  0  0  0  0  0  0  0
   -2.2391    0.4408    1.9977 H   0  0  0  0  0  0  0  0  0  0  0  0
   -3.4010    0.2150    0.6735 H   0  0  0  0  0  0  0  0  0  0  0  0
   -1.8614   -1.3208   -0.0634 H   0  0  0  0  0  0  0  0  0  0  0  0
    0.7385    0.5635   -2.0821 H   0  0  0  0  0  0  0  0  0  0  0  0
    1.7475    1.5179   -0.0975 H   0  0  0  0  0  0  0  0  0  0  0  0
    0.0879    2.3095   -0.0856 H   0  0  0  0  0  0  0  0  0  0  0  0
   -0.0938   -1.3121    1.5688 H   0  0  0  0  0  0  0  0  0  0  0  0
    0.3093   -1.7675   -0.9467 H   0  0  0  0  0  0  0  0  0  0  0  0
    2.7685   -0.2504   -0.8487 H   0  0  0  0  0  0  0  0  0  0  0  0
    2.5669   -1.9670   -0.2115 H   0  0  0  0  0  0  0  0  0  0  0  0
    2.3808   -0.5567    0.8593 H   0  0  0  0  0  0  0  0  0  0  0  0
  1  2  1  0
  2  3  1  0
  3  4  1  0
  4  5  1  0
  5  6  1  0
  6  7  1  0
  7  8  1  0
  8  9  1  0
  7  2  1  0
  8  4  1  0
  1 10  1  0
  1 11  1  0
  1 12  1  0
  2 13  1  0
  4 14  1  0
  5 15  1  0
  5 16  1  0
  7 17  1  0
  8 18  1  0
  9 19  1  0
  9 20  1  0
  9 21  1  0
M  END
