
     RDKit          3D

 21 22  0  0  0  0  0  0  0  0999 V2000
   -1.7204   -0.2299   -0.5175 C   0  0  0  0  0  0  0  0  0  0  0  0
   -0.9935   -0.0272    0.7949 C   0  0  0  0  0  0  0  0  0  0  0  0
   -0.2903   -1.1105    1.2067 O   0  0  0  0  0  0  0  0  0  0  0  0
    0.6572   -1.6864    0.4856 C   0  0  0  0  0  0  0  0  0  0  0  0
    1.6038   -0.9750   -0.3568 C   0  0  0  0  0  0  0  0  0  0  0  0
    1.7858    0.3853   -0.1865 O   0  0  0  0  0  0  0  0  0  0  0  0
    0.6528    1.0272   -0.5335 C   0  0  0  0  0  0  0  0  0  0  0  0
    0.0629    2.2420   -0.0645 C   0  0  0  0  0  0  0  0  0  0  0  0
   -0.1066    1.1489    0.8225 C   0  0  0  0  0  0  0  0  0  0  0  0
   -1.8975    0.6947   -1.0644 H   0  0  0  0  0  0  0  0  0  0  0  0
   -1.1914   -1.0164   -1.1261 H   0  0  0  0  0  0  0  0  0  0  0  0
   -2.7359   -0.6846   -0.3235 H   0  0  0  0  0  0  0  0  0  0  0  0
   -1.8112    0.1446    1.5581 H   0  0  0  0  0  0  0  0  0  0  0  0
    0.1638   -2.4960   -0.1420 H   0  0  0  0  0  0  0  0  0  0  0  0
    1.2667   -2.3268    1.2058 H   0  0  0  0  0  0  0  0  0  0  0  0
    2.6438   -1.4202   -0.3230 H   0  0  0  0  0  0  0  0  0  0  0  0
    1.3267   -1.0929   -1.4497 H   0  0  0  0  0  0  0  0  0  0  0  0
    0.1174    0.5271   -1.3822 H   0  0  0  0  0  0  0  0  0  0  0  0
    0.7544    3.0729    0.2329 H   0  0  0  0  0  0  0  0  0  0  0  0
   -0.8155    2.6638   -0.5975 H   0  0  0  0  0  0  0  0  0  0  0  0
    0.5266    1.1592    1.7606 H   0  0  0  0  0  0  0  0  0  0  0  0
  1  2  1  0
  2  3  1  0
  3  4  1  0
  4  5  1  0
  5  6  1  0
  6  7  1  0
  7  8  1  0
  8  9  1  0
  9  2  1  0
  9  7  1  0
  1 10  1  0
  1 11  1  0
  1 12  1  0
  2 13  1  0
  4 14  1  0
  4 15  1  0
  5 16  1  0
  5 17  1  0
  7 18  1  0
  8 19  1  0
  8 20  1  0
  9 21  1  0
M  END
