
     RDKit          3D

 19 19  0  0  0  0  0  0  0  0999 V2000
   -1.7012    0.5306    0.9693 C   0  0  0  0  0  0  0  0  0  0  0  0
   -1.0825    0.1118   -0.3352 C   0  0  0  0  0  0  0  0  0  0  0  0
   -0.5615    1.1548   -1.0995 O   0  0  0  0  0  0  0  0  0  0  0  0
    0.3691    0.2321   -1.5975 C   0  0  0  0  0  0  0  0  0  0  0  0
    0.3047   -0.4599   -0.2549 C   0  0  0  0  0  0  0  0  0  0  0  0
    0.4049   -1.9169   -0.3136 C   0  0  0  0  0  0  0  0  0  0  0  0
    0.5985   -2.5806    0.6817 O   0  0  0  0  0  0  0  0  0  0  0  0
    1.2334    0.2158    0.7179 C   0  0  0  0  0  0  0  0  0  0  0  0
    1.3807    1.5548    0.3613 O   0  0  0  0  0  0  0  0  0  0  0  0
   -2.8121    0.4845    0.8260 H   0  0  0  0  0  0  0  0  0  0  0  0
   -1.4372   -0.1058    1.8181 H   0  0  0  0  0  0  0  0  0  0  0  0
   -1.4713    1.5894    1.1745 H   0  0  0  0  0  0  0  0  0  0  0  0
   -1.7169   -0.5656   -0.9580 H   0  0  0  0  0  0  0  0  0  0  0  0
   -0.0747   -0.3988   -2.3932 H   0  0  0  0  0  0  0  0  0  0  0  0
    1.3599    0.6732   -1.8313 H   0  0  0  0  0  0  0  0  0  0  0  0
    0.3058   -2.4279   -1.2607 H   0  0  0  0  0  0  0  0  0  0  0  0
    2.2487   -0.2492    0.5507 H   0  0  0  0  0  0  0  0  0  0  0  0
    0.9388    0.1102    1.7667 H   0  0  0  0  0  0  0  0  0  0  0  0
    1.7128    2.0477    1.1778 H   0  0  0  0  0  0  0  0  0  0  0  0
  1  2  1  0
  2  3  1  0
  3  4  1  0
  4  5  1  0
  5  6  1  0
  6  7  2  0
  5  8  1  0
  8  9  1  0
  5  2  1  0
  1 10  1  0
  1 11  1  0
  1 12  1  0
  2 13  1  0
  4 14  1  0
  4 15  1  0
  6 16  1  0
  8 17  1  0
  8 18  1  0
  9 19  1  0
M  END
