
     RDKit          3D

 19 21  0  0  0  0  0  0  0  0999 V2000
    2.2998   -0.3994   -0.0859 C   0  0  0  0  0  0  0  0  0  0  0  0
    1.2087    0.5198    0.3906 C   0  0  0  0  0  0  0  0  0  0  0  0
    0.5967    0.0004    1.5592 O   0  0  0  0  0  0  0  0  0  0  0  0
   -0.7284   -0.0881    1.1961 C   0  0  0  0  0  0  0  0  0  0  0  0
   -1.0568    1.1085    0.3545 C   0  0  0  0  0  0  0  0  0  0  0  0
   -1.9639    0.1968   -0.4292 C   0  0  0  0  0  0  0  0  0  0  0  0
   -0.7352   -0.6353   -0.2122 C   0  0  0  0  0  0  0  0  0  0  0  0
   -0.5022   -1.8078   -0.5779 O   0  0  0  0  0  0  0  0  0  0  0  0
    0.0435    0.6130   -0.5247 C   0  0  0  0  0  0  0  0  0  0  0  0
    1.9699   -1.4488   -0.1638 H   0  0  0  0  0  0  0  0  0  0  0  0
    3.1230   -0.3528    0.6447 H   0  0  0  0  0  0  0  0  0  0  0  0
    2.6780   -0.0082   -1.0371 H   0  0  0  0  0  0  0  0  0  0  0  0
    1.6300    1.5144    0.5544 H   0  0  0  0  0  0  0  0  0  0  0  0
   -1.4522   -0.4580    1.8918 H   0  0  0  0  0  0  0  0  0  0  0  0
   -1.2460    2.0417    0.6567 H   0  0  0  0  0  0  0  0  0  0  0  0
   -2.0676    0.5776   -1.4694 H   0  0  0  0  0  0  0  0  0  0  0  0
   -2.8843   -0.1272    0.0692 H   0  0  0  0  0  0  0  0  0  0  0  0
   -1.0508   -2.1927   -1.2910 H   0  0  0  0  0  0  0  0  0  0  0  0
    0.1377    0.9460   -1.5260 H   0  0  0  0  0  0  0  0  0  0  0  0
  1  2  1  0
  2  3  1  0
  3  4  1  0
  4  5  1  0
  5  6  1  0
  6  7  1  0
  7  8  1  0
  7  9  1  0
  9  2  1  0
  7  4  1  0
  9  5  1  0
  1 10  1  0
  1 11  1  0
  1 12  1  0
  2 13  1  0
  4 14  1  0
  5 15  1  0
  6 16  1  0
  6 17  1  0
  8 18  1  0
  9 19  1  0
M  END
