
     RDKit          3D

 17 18  0  0  0  0  0  0  0  0999 V2000
    1.7283    0.9091    0.5697 C   0  0  0  0  0  0  0  0  0  0  0  0
    1.0603   -0.0219   -0.3766 C   0  0  0  0  0  0  0  0  0  0  0  0
    1.1637   -1.3905   -0.0454 O   0  0  0  0  0  0  0  0  0  0  0  0
   -0.0572   -1.5702   -0.6966 C   0  0  0  0  0  0  0  0  0  0  0  0
   -0.3875   -0.1648   -0.3696 C   0  0  0  0  0  0  0  0  0  0  0  0
   -1.2011    0.1378    0.8084 C   0  0  0  0  0  0  0  0  0  0  0  0
   -2.1144    0.6787   -0.2276 C   0  0  0  0  0  0  0  0  0  0  0  0
   -3.2933    1.0968   -0.2283 O   0  0  0  0  0  0  0  0  0  0  0  0
   -1.1808    0.5609   -1.2453 O   0  0  0  0  0  0  0  0  0  0  0  0
    2.5179    0.3174    1.1205 H   0  0  0  0  0  0  0  0  0  0  0  0
    2.3258    1.6925    0.0186 H   0  0  0  0  0  0  0  0  0  0  0  0
    1.0771    1.4503    1.2523 H   0  0  0  0  0  0  0  0  0  0  0  0
    1.4714    0.1041   -1.4088 H   0  0  0  0  0  0  0  0  0  0  0  0
   -0.7242   -2.3210   -0.2404 H   0  0  0  0  0  0  0  0  0  0  0  0
    0.1086   -1.7282   -1.7977 H   0  0  0  0  0  0  0  0  0  0  0  0
   -0.8909    0.9668    1.4815 H   0  0  0  0  0  0  0  0  0  0  0  0
   -1.6039   -0.7178    1.3853 H   0  0  0  0  0  0  0  0  0  0  0  0
  1  2  1  0
  2  3  1  0
  3  4  1  0
  4  5  1  0
  5  6  1  0
  6  7  1  0
  7  8  2  0
  7  9  1  0
  5  2  1  0
  9  5  1  0
  1 10  1  0
  1 11  1  0
  1 12  1  0
  2 13  1  0
  4 14  1  0
  4 15  1  0
  6 16  1  0
  6 17  1  0
M  END
