
     RDKit          3D

 19 19  0  0  0  0  0  0  0  0999 V2000
    2.1174   -0.8807   -0.2490 C   0  0  0  0  0  0  0  0  0  0  0  0
    1.1981    0.0183    0.4920 C   0  0  0  0  0  0  0  0  0  0  0  0
    0.8544    1.2198   -0.1718 O   0  0  0  0  0  0  0  0  0  0  0  0
   -0.3104    1.2115    0.5977 C   0  0  0  0  0  0  0  0  0  0  0  0
   -1.4534    1.8180   -0.0746 C   0  0  0  0  0  0  0  0  0  0  0  0
   -1.3312    2.2667   -1.1947 O   0  0  0  0  0  0  0  0  0  0  0  0
   -0.2466   -0.3137    0.5392 C   0  0  0  0  0  0  0  0  0  0  0  0
   -0.8565   -0.8100   -0.7506 C   0  0  0  0  0  0  0  0  0  0  0  0
   -2.1956   -1.0929   -0.6168 O   0  0  0  0  0  0  0  0  0  0  0  0
    2.8331   -0.3137   -0.8912 H   0  0  0  0  0  0  0  0  0  0  0  0
    2.7526   -1.4161    0.4972 H   0  0  0  0  0  0  0  0  0  0  0  0
    1.6565   -1.6398   -0.8764 H   0  0  0  0  0  0  0  0  0  0  0  0
    1.5581    0.2855    1.5222 H   0  0  0  0  0  0  0  0  0  0  0  0
   -0.1030    1.5305    1.6369 H   0  0  0  0  0  0  0  0  0  0  0  0
   -2.4188    1.8813    0.3997 H   0  0  0  0  0  0  0  0  0  0  0  0
   -0.5906   -0.8053    1.4523 H   0  0  0  0  0  0  0  0  0  0  0  0
   -0.3619   -1.7173   -1.1456 H   0  0  0  0  0  0  0  0  0  0  0  0
   -0.7236   -0.0149   -1.5145 H   0  0  0  0  0  0  0  0  0  0  0  0
   -2.3787   -1.2269    0.3479 H   0  0  0  0  0  0  0  0  0  0  0  0
  1  2  1  0
  2  3  1  0
  3  4  1  0
  4  5  1  0
  5  6  2  0
  4  7  1  0
  7  8  1  0
  8  9  1  0
  7  2  1  0
  1 10  1  0
  1 11  1  0
  1 12  1  0
  2 13  1  0
  4 14  1  0
  5 15  1  0
  7 16  1  0
  8 17  1  0
  8 18  1  0
  9 19  1  0
M  END
