
     RDKit          3D

 21 23  0  0  0  0  0  0  0  0999 V2000
    2.5918   -0.5235    0.2850 C   0  0  0  0  0  0  0  0  0  0  0  0
    1.4986    0.4196    0.6643 C   0  0  0  0  0  0  0  0  0  0  0  0
    0.8393   -0.0518    1.8293 O   0  0  0  0  0  0  0  0  0  0  0  0
   -0.4428   -0.2200    1.3967 C   0  0  0  0  0  0  0  0  0  0  0  0
   -0.3524   -0.8313   -0.0128 C   0  0  0  0  0  0  0  0  0  0  0  0
   -1.7492   -0.6654   -0.5323 C   0  0  0  0  0  0  0  0  0  0  0  0
   -2.0384    0.7603   -0.0206 C   0  0  0  0  0  0  0  0  0  0  0  0
   -0.7264    1.0632    0.6049 C   0  0  0  0  0  0  0  0  0  0  0  0
    0.3539    0.4567   -0.3024 C   0  0  0  0  0  0  0  0  0  0  0  0
    2.2995   -1.3129   -0.4197 H   0  0  0  0  0  0  0  0  0  0  0  0
    3.4784    0.0125   -0.0965 H   0  0  0  0  0  0  0  0  0  0  0  0
    2.9056   -1.0602    1.2274 H   0  0  0  0  0  0  0  0  0  0  0  0
    1.8563    1.4333    0.8720 H   0  0  0  0  0  0  0  0  0  0  0  0
   -1.2117   -0.5821    2.0311 H   0  0  0  0  0  0  0  0  0  0  0  0
    0.1539   -1.7609   -0.1060 H   0  0  0  0  0  0  0  0  0  0  0  0
   -2.4255   -1.3788   -0.0620 H   0  0  0  0  0  0  0  0  0  0  0  0
   -1.8199   -0.6666   -1.6369 H   0  0  0  0  0  0  0  0  0  0  0  0
   -2.7931    0.6657    0.8142 H   0  0  0  0  0  0  0  0  0  0  0  0
   -2.3564    1.4247   -0.8172 H   0  0  0  0  0  0  0  0  0  0  0  0
   -0.5193    1.9880    1.0703 H   0  0  0  0  0  0  0  0  0  0  0  0
    0.4576    0.8294   -1.2793 H   0  0  0  0  0  0  0  0  0  0  0  0
  1  2  1  0
  2  3  1  0
  3  4  1  0
  4  5  1  0
  5  6  1  0
  6  7  1  0
  7  8  1  0
  8  9  1  0
  9  2  1  0
  8  4  1  0
  9  5  1  0
  1 10  1  0
  1 11  1  0
  1 12  1  0
  2 13  1  0
  4 14  1  0
  5 15  1  0
  6 16  1  0
  6 17  1  0
  7 18  1  0
  7 19  1  0
  8 20  1  0
  9 21  1  0
M  END
