
     RDKit          3D

 14 14  0  0  0  0  0  0  0  0999 V2000
   -1.7987    0.2934   -0.1546 C   0  0  0  0  0  0  0  0  0  0  0  0
   -0.5258    0.2780    0.6708 C   0  0  0  0  0  0  0  0  0  0  0  0
    0.3320    1.3343    0.2786 O   0  0  0  0  0  0  0  0  0  0  0  0
    1.4642    0.8736   -0.3684 C   0  0  0  0  0  0  0  0  0  0  0  0
    2.3024    1.6148   -0.9303 O   0  0  0  0  0  0  0  0  0  0  0  0
    1.4691   -0.6160   -0.2573 C   0  0  0  0  0  0  0  0  0  0  0  0
    0.2082   -0.9733    0.4157 C   0  0  0  0  0  0  0  0  0  0  0  0
   -0.1341   -2.0959    0.6945 O   0  0  0  0  0  0  0  0  0  0  0  0
   -2.7104    0.3010    0.4675 H   0  0  0  0  0  0  0  0  0  0  0  0
   -1.8429   -0.5977   -0.8264 H   0  0  0  0  0  0  0  0  0  0  0  0
   -1.8562    1.1833   -0.8165 H   0  0  0  0  0  0  0  0  0  0  0  0
   -0.7654    0.4298    1.7442 H   0  0  0  0  0  0  0  0  0  0  0  0
    2.3007   -0.9917    0.3560 H   0  0  0  0  0  0  0  0  0  0  0  0
    1.5570   -1.0337   -1.2739 H   0  0  0  0  0  0  0  0  0  0  0  0
  1  2  1  0
  2  3  1  0
  3  4  1  0
  4  5  2  0
  4  6  1  0
  6  7  1  0
  7  8  2  0
  7  2  1  0
  1  9  1  0
  1 10  1  0
  1 11  1  0
  2 12  1  0
  6 13  1  0
  6 14  1  0
M  END
