
     RDKit          3D

 19 19  0  0  0  0  0  0  0  0999 V2000
   -1.0960    1.6905    0.0228 C   0  0  0  0  0  0  0  0  0  0  0  0
   -0.4928    0.5323   -0.7572 C   0  0  0  0  0  0  0  0  0  0  0  0
    0.7692    0.8724   -1.1167 O   0  0  0  0  0  0  0  0  0  0  0  0
    1.8074    0.2105   -0.5467 C   0  0  0  0  0  0  0  0  0  0  0  0
    1.5666   -0.3458    0.8182 C   0  0  0  0  0  0  0  0  0  0  0  0
    0.3536   -1.2045    0.7636 C   0  0  0  0  0  0  0  0  0  0  0  0
   -0.6154   -0.7425   -0.0087 C   0  0  0  0  0  0  0  0  0  0  0  0
   -1.8388   -1.5072   -0.1268 C   0  0  0  0  0  0  0  0  0  0  0  0
   -2.7965   -1.1284   -0.8406 O   0  0  0  0  0  0  0  0  0  0  0  0
   -1.5284    1.3457    0.9932 H   0  0  0  0  0  0  0  0  0  0  0  0
   -0.3265    2.4515    0.2890 H   0  0  0  0  0  0  0  0  0  0  0  0
   -1.8592    2.2408   -0.5780 H   0  0  0  0  0  0  0  0  0  0  0  0
   -1.1014    0.4201   -1.6791 H   0  0  0  0  0  0  0  0  0  0  0  0
    2.1646   -0.6199   -1.2006 H   0  0  0  0  0  0  0  0  0  0  0  0
    2.6738    0.9170   -0.4542 H   0  0  0  0  0  0  0  0  0  0  0  0
    2.4415   -0.9974    1.0717 H   0  0  0  0  0  0  0  0  0  0  0  0
    1.5112    0.4225    1.6142 H   0  0  0  0  0  0  0  0  0  0  0  0
    0.2940   -2.1299    1.3214 H   0  0  0  0  0  0  0  0  0  0  0  0
   -1.9270   -2.4278    0.4147 H   0  0  0  0  0  0  0  0  0  0  0  0
  1  2  1  0
  2  3  1  0
  3  4  1  0
  4  5  1  0
  5  6  1  0
  6  7  2  0
  7  8  1  0
  8  9  2  0
  7  2  1  0
  1 10  1  0
  1 11  1  0
  1 12  1  0
  2 13  1  0
  4 14  1  0
  4 15  1  0
  5 16  1  0
  5 17  1  0
  6 18  1  0
  8 19  1  0
M  END
