
     RDKit          3D

 19 21  0  0  0  0  0  0  0  0999 V2000
   -2.3674    0.2413   -0.3660 C   0  0  0  0  0  0  0  0  0  0  0  0
   -0.8482    0.2239   -0.5977 C   0  0  0  0  0  0  0  0  0  0  0  0
   -0.3556    1.3979   -0.1664 O   0  0  0  0  0  0  0  0  0  0  0  0
    0.9263    1.5152    0.1968 C   0  0  0  0  0  0  0  0  0  0  0  0
    1.7158    0.2676    0.3686 C   0  0  0  0  0  0  0  0  0  0  0  0
    1.9658   -0.4650   -0.7802 O   0  0  0  0  0  0  0  0  0  0  0  0
    1.0646   -1.4526   -0.3741 C   0  0  0  0  0  0  0  0  0  0  0  0
   -0.3138   -1.0108    0.0358 C   0  0  0  0  0  0  0  0  0  0  0  0
    0.8159   -0.8012    0.9263 C   0  0  0  0  0  0  0  0  0  0  0  0
   -2.6232    1.0339    0.3978 H   0  0  0  0  0  0  0  0  0  0  0  0
   -2.9218    0.4698   -1.2748 H   0  0  0  0  0  0  0  0  0  0  0  0
   -2.7144   -0.7096    0.0840 H   0  0  0  0  0  0  0  0  0  0  0  0
   -0.7310    0.1707   -1.7160 H   0  0  0  0  0  0  0  0  0  0  0  0
    1.4701    2.1830   -0.5304 H   0  0  0  0  0  0  0  0  0  0  0  0
    0.9801    2.0796    1.1731 H   0  0  0  0  0  0  0  0  0  0  0  0
    2.6482    0.4591    0.9300 H   0  0  0  0  0  0  0  0  0  0  0  0
    1.3187   -2.5088   -0.4703 H   0  0  0  0  0  0  0  0  0  0  0  0
   -1.0131   -1.8362    0.2742 H   0  0  0  0  0  0  0  0  0  0  0  0
    0.9829   -1.2579    1.8894 H   0  0  0  0  0  0  0  0  0  0  0  0
  1  2  1  0
  2  3  1  0
  3  4  1  0
  4  5  1  0
  5  6  1  0
  6  7  1  0
  7  8  1  0
  8  9  1  0
  8  2  1  0
  9  5  1  0
  9  7  1  0
  1 10  1  0
  1 11  1  0
  1 12  1  0
  2 13  1  0
  4 14  1  0
  4 15  1  0
  5 16  1  0
  7 17  1  0
  8 18  1  0
  9 19  1  0
M  END
