
     RDKit          3D

 17 18  0  0  0  0  0  0  0  0999 V2000
    2.2606    0.1550   -0.3171 C   0  0  0  0  0  0  0  0  0  0  0  0
    0.9052   -0.4758   -0.2794 C   0  0  0  0  0  0  0  0  0  0  0  0
    0.0769    0.1611   -1.2750 O   0  0  0  0  0  0  0  0  0  0  0  0
   -1.0980    0.8365   -0.8835 C   0  0  0  0  0  0  0  0  0  0  0  0
   -1.4081    1.9049   -1.4728 O   0  0  0  0  0  0  0  0  0  0  0  0
   -1.9596    0.2729    0.2275 C   0  0  0  0  0  0  0  0  0  0  0  0
   -1.2035   -0.9168    0.6782 C   0  0  0  0  0  0  0  0  0  0  0  0
   -0.4864   -1.1574    1.7518 O   0  0  0  0  0  0  0  0  0  0  0  0
    0.1749   -0.3058    0.9946 C   0  0  0  0  0  0  0  0  0  0  0  0
    2.4791    0.4903   -1.3650 H   0  0  0  0  0  0  0  0  0  0  0  0
    3.0283   -0.5585    0.0594 H   0  0  0  0  0  0  0  0  0  0  0  0
    2.2506    1.0839    0.3067 H   0  0  0  0  0  0  0  0  0  0  0  0
    0.9528   -1.5418   -0.5985 H   0  0  0  0  0  0  0  0  0  0  0  0
   -1.9928    1.0819    0.9902 H   0  0  0  0  0  0  0  0  0  0  0  0
   -2.9495   -0.0117   -0.1443 H   0  0  0  0  0  0  0  0  0  0  0  0
   -1.2471   -1.7558   -0.0594 H   0  0  0  0  0  0  0  0  0  0  0  0
    0.2167    0.7370    1.3865 H   0  0  0  0  0  0  0  0  0  0  0  0
  1  2  1  0
  2  3  1  0
  3  4  1  0
  4  5  2  0
  4  6  1  0
  6  7  1  0
  7  8  1  0
  8  9  1  0
  9  2  1  0
  9  7  1  0
  1 10  1  0
  1 11  1  0
  1 12  1  0
  2 13  1  0
  6 14  1  0
  6 15  1  0
  7 16  1  0
  9 17  1  0
M  END
