
     RDKit          3D

 21 21  0  0  0  0  0  0  0  0999 V2000
   -2.3927   -0.1392    0.6136 C   0  0  0  0  0  0  0  0  0  0  0  0
   -1.5660   -0.2585   -0.6225 C   0  0  0  0  0  0  0  0  0  0  0  0
   -1.2708    0.9052   -1.3003 O   0  0  0  0  0  0  0  0  0  0  0  0
   -0.1539    0.2074   -1.8207 C   0  0  0  0  0  0  0  0  0  0  0  0
   -0.1097   -0.5175   -0.4644 C   0  0  0  0  0  0  0  0  0  0  0  0
    0.6608    0.3144    0.4914 C   0  0  0  0  0  0  0  0  0  0  0  0
    0.2446    0.2563    1.7964 O   0  0  0  0  0  0  0  0  0  0  0  0
    2.1143   -0.1803    0.4582 C   0  0  0  0  0  0  0  0  0  0  0  0
    2.9016    0.6391    1.2609 O   0  0  0  0  0  0  0  0  0  0  0  0
   -2.3611   -1.1345    1.1261 H   0  0  0  0  0  0  0  0  0  0  0  0
   -3.4532   -0.0115    0.2979 H   0  0  0  0  0  0  0  0  0  0  0  0
   -2.1440    0.6991    1.2593 H   0  0  0  0  0  0  0  0  0  0  0  0
   -2.0156   -0.9950   -1.3211 H   0  0  0  0  0  0  0  0  0  0  0  0
   -0.4329   -0.4797   -2.6296 H   0  0  0  0  0  0  0  0  0  0  0  0
    0.7020    0.8660   -1.9753 H   0  0  0  0  0  0  0  0  0  0  0  0
    0.2261   -1.5619   -0.5503 H   0  0  0  0  0  0  0  0  0  0  0  0
    0.7211    1.3934    0.2047 H   0  0  0  0  0  0  0  0  0  0  0  0
   -0.1899   -0.5923    1.9942 H   0  0  0  0  0  0  0  0  0  0  0  0
    2.1781   -1.2458    0.7453 H   0  0  0  0  0  0  0  0  0  0  0  0
    2.4970   -0.0570   -0.5928 H   0  0  0  0  0  0  0  0  0  0  0  0
    3.8439    0.4407    1.0288 H   0  0  0  0  0  0  0  0  0  0  0  0
  1  2  1  0
  2  3  1  0
  3  4  1  0
  4  5  1  0
  5  6  1  0
  6  7  1  0
  6  8  1  0
  8  9  1  0
  5  2  1  0
  1 10  1  0
  1 11  1  0
  1 12  1  0
  2 13  1  0
  4 14  1  0
  4 15  1  0
  5 16  1  0
  6 17  1  0
  7 18  1  0
  8 19  1  0
  8 20  1  0
  9 21  1  0
M  END
