
     RDKit          3D

 17 18  0  0  0  0  0  0  0  0999 V2000
   -1.7973   -1.2915    0.0397 C   0  0  0  0  0  0  0  0  0  0  0  0
   -1.0306   -0.0687   -0.3893 C   0  0  0  0  0  0  0  0  0  0  0  0
   -1.3888    1.0634    0.3109 O   0  0  0  0  0  0  0  0  0  0  0  0
   -0.3354    1.9322    0.0548 C   0  0  0  0  0  0  0  0  0  0  0  0
    0.8691    1.0626    0.1856 C   0  0  0  0  0  0  0  0  0  0  0  0
    2.1451    1.0239    0.4542 O   0  0  0  0  0  0  0  0  0  0  0  0
    2.5625   -0.2153    0.3614 C   0  0  0  0  0  0  0  0  0  0  0  0
    1.5217   -1.0264    0.0182 C   0  0  0  0  0  0  0  0  0  0  0  0
    0.4117   -0.2183   -0.1013 C   0  0  0  0  0  0  0  0  0  0  0  0
   -1.9664   -1.3469    1.1301 H   0  0  0  0  0  0  0  0  0  0  0  0
   -1.3117   -2.1963   -0.3236 H   0  0  0  0  0  0  0  0  0  0  0  0
   -2.8210   -1.2328   -0.4201 H   0  0  0  0  0  0  0  0  0  0  0  0
   -1.2454    0.0820   -1.4710 H   0  0  0  0  0  0  0  0  0  0  0  0
   -0.4184    2.2905   -0.9940 H   0  0  0  0  0  0  0  0  0  0  0  0
   -0.2690    2.7619    0.7550 H   0  0  0  0  0  0  0  0  0  0  0  0
    3.5801   -0.5293    0.5339 H   0  0  0  0  0  0  0  0  0  0  0  0
    1.4939   -2.0908   -0.1445 H   0  0  0  0  0  0  0  0  0  0  0  0
  1  2  1  0
  2  3  1  0
  3  4  1  0
  4  5  1  0
  5  6  1  0
  6  7  1  0
  7  8  2  0
  8  9  1  0
  9  2  1  0
  9  5  2  0
  1 10  1  0
  1 11  1  0
  1 12  1  0
  2 13  1  0
  4 14  1  0
  4 15  1  0
  7 16  1  0
  8 17  1  0
M  END
