
     RDKit          3D

 18 19  0  0  0  0  0  0  0  0999 V2000
   -2.4454    0.5074    0.0965 C   0  0  0  0  0  0  0  0  0  0  0  0
   -1.1361   -0.0423    0.5802 C   0  0  0  0  0  0  0  0  0  0  0  0
   -0.2125    0.9978    0.7806 O   0  0  0  0  0  0  0  0  0  0  0  0
    0.4102    0.7063   -0.4114 C   0  0  0  0  0  0  0  0  0  0  0  0
    1.8710    0.3673   -0.2499 C   0  0  0  0  0  0  0  0  0  0  0  0
    1.8264   -1.0172    0.3204 C   0  0  0  0  0  0  0  0  0  0  0  0
    0.6131   -1.5701    0.0578 O   0  0  0  0  0  0  0  0  0  0  0  0
   -0.2380   -0.6402   -0.4546 C   0  0  0  0  0  0  0  0  0  0  0  0
   -2.9377   -0.1085   -0.6708 H   0  0  0  0  0  0  0  0  0  0  0  0
   -3.0862    0.6630    1.0054 H   0  0  0  0  0  0  0  0  0  0  0  0
   -2.3010    1.5188   -0.3618 H   0  0  0  0  0  0  0  0  0  0  0  0
   -1.2418   -0.7011    1.4734 H   0  0  0  0  0  0  0  0  0  0  0  0
    0.1846    1.3734   -1.2687 H   0  0  0  0  0  0  0  0  0  0  0  0
    2.4087    1.0771    0.4080 H   0  0  0  0  0  0  0  0  0  0  0  0
    2.3725    0.3093   -1.2395 H   0  0  0  0  0  0  0  0  0  0  0  0
    2.6614   -1.6617   -0.0617 H   0  0  0  0  0  0  0  0  0  0  0  0
    1.9284   -0.9173    1.4330 H   0  0  0  0  0  0  0  0  0  0  0  0
   -0.6774   -0.8619   -1.4367 H   0  0  0  0  0  0  0  0  0  0  0  0
  1  2  1  0
  2  3  1  0
  3  4  1  0
  4  5  1  0
  5  6  1  0
  6  7  1  0
  7  8  1  0
  8  2  1  0
  8  4  1  0
  1  9  1  0
  1 10  1  0
  1 11  1  0
  2 12  1  0
  4 13  1  0
  5 14  1  0
  5 15  1  0
  6 16  1  0
  6 17  1  0
  8 18  1  0
M  END
