
     RDKit          3D

 19 20  0  0  0  0  0  0  0  0999 V2000
   -1.7224   -0.2735    0.9234 C   0  0  0  0  0  0  0  0  0  0  0  0
   -1.2227   -0.1234   -0.4674 C   0  0  0  0  0  0  0  0  0  0  0  0
   -0.9876    1.2139   -0.8075 O   0  0  0  0  0  0  0  0  0  0  0  0
    0.3680    1.0422   -0.9631 C   0  0  0  0  0  0  0  0  0  0  0  0
    1.1457    1.5652    0.1997 C   0  0  0  0  0  0  0  0  0  0  0  0
    1.5483    0.5631    0.9615 C   0  0  0  0  0  0  0  0  0  0  0  0
    1.0969   -0.7261    0.4104 C   0  0  0  0  0  0  0  0  0  0  0  0
    0.1960   -0.4243   -0.7514 C   0  0  0  0  0  0  0  0  0  0  0  0
    0.4045   -1.2426   -1.8462 O   0  0  0  0  0  0  0  0  0  0  0  0
   -0.9634   -0.3493    1.7004 H   0  0  0  0  0  0  0  0  0  0  0  0
   -2.4250   -1.1555    0.9940 H   0  0  0  0  0  0  0  0  0  0  0  0
   -2.3794    0.6083    1.1580 H   0  0  0  0  0  0  0  0  0  0  0  0
   -1.9355   -0.5787   -1.2025 H   0  0  0  0  0  0  0  0  0  0  0  0
    0.7662    1.3280   -1.9548 H   0  0  0  0  0  0  0  0  0  0  0  0
    1.3398    2.6129    0.3750 H   0  0  0  0  0  0  0  0  0  0  0  0
    2.1256    0.7122    1.8548 H   0  0  0  0  0  0  0  0  0  0  0  0
    0.6868   -1.4243    1.1346 H   0  0  0  0  0  0  0  0  0  0  0  0
    2.0083   -1.2283   -0.0305 H   0  0  0  0  0  0  0  0  0  0  0  0
   -0.0502   -2.1198   -1.6885 H   0  0  0  0  0  0  0  0  0  0  0  0
  1  2  1  0
  2  3  1  0
  3  4  1  0
  4  5  1  0
  5  6  2  0
  6  7  1  0
  7  8  1  0
  8  9  1  0
  8  2  1  0
  8  4  1  0
  1 10  1  0
  1 11  1  0
  1 12  1  0
  2 13  1  0
  4 14  1  0
  5 15  1  0
  6 16  1  0
  7 17  1  0
  7 18  1  0
  9 19  1  0
M  END
