
     RDKit          3D

 19 20  0  0  0  0  0  0  0  0999 V2000
    2.3098    0.6067   -0.5651 C   0  0  0  0  0  0  0  0  0  0  0  0
    1.2697   -0.0498    0.2580 C   0  0  0  0  0  0  0  0  0  0  0  0
    0.2410    0.8454    0.6422 O   0  0  0  0  0  0  0  0  0  0  0  0
   -0.8884    0.1519    0.2713 C   0  0  0  0  0  0  0  0  0  0  0  0
   -2.2053    0.6889    0.5902 C   0  0  0  0  0  0  0  0  0  0  0  0
   -0.5910   -0.2152   -1.1783 C   0  0  0  0  0  0  0  0  0  0  0  0
    0.4523   -1.0807   -0.4487 C   0  0  0  0  0  0  0  0  0  0  0  0
   -0.6285   -1.2893    0.5523 C   0  0  0  0  0  0  0  0  0  0  0  0
   -1.1060   -2.1275    1.2557 O   0  0  0  0  0  0  0  0  0  0  0  0
    3.3017    0.1378   -0.3089 H   0  0  0  0  0  0  0  0  0  0  0  0
    2.4025    1.6706   -0.2381 H   0  0  0  0  0  0  0  0  0  0  0  0
    2.1312    0.5922   -1.6529 H   0  0  0  0  0  0  0  0  0  0  0  0
    1.6688   -0.4798    1.1817 H   0  0  0  0  0  0  0  0  0  0  0  0
   -2.5210    1.4482   -0.1537 H   0  0  0  0  0  0  0  0  0  0  0  0
   -2.9907   -0.0481    0.7562 H   0  0  0  0  0  0  0  0  0  0  0  0
   -2.1192    1.2584    1.5614 H   0  0  0  0  0  0  0  0  0  0  0  0
   -1.4362   -0.7931   -1.5739 H   0  0  0  0  0  0  0  0  0  0  0  0
   -0.1671    0.5745   -1.7916 H   0  0  0  0  0  0  0  0  0  0  0  0
    0.8762   -1.8911   -0.9598 H   0  0  0  0  0  0  0  0  0  0  0  0
  1  2  1  0
  2  3  1  0
  3  4  1  0
  4  5  1  0
  4  6  1  0
  6  7  1  0
  7  8  1  0
  8  9  2  0
  7  2  1  0
  8  4  1  0
  1 10  1  0
  1 11  1  0
  1 12  1  0
  2 13  1  0
  5 14  1  0
  5 15  1  0
  5 16  1  0
  6 17  1  0
  6 18  1  0
  7 19  1  0
M  END
