
     RDKit          3D

 19 20  0  0  0  0  0  0  0  0999 V2000
    2.2754    0.2902    0.4391 C   0  0  0  0  0  0  0  0  0  0  0  0
    0.8669   -0.0016    0.7987 C   0  0  0  0  0  0  0  0  0  0  0  0
    0.5554   -1.3690    0.5804 O   0  0  0  0  0  0  0  0  0  0  0  0
   -0.5503   -1.3082   -0.2170 C   0  0  0  0  0  0  0  0  0  0  0  0
   -0.1668   -0.2682   -1.2819 C   0  0  0  0  0  0  0  0  0  0  0  0
   -0.1637    0.6446   -0.0508 C   0  0  0  0  0  0  0  0  0  0  0  0
   -0.2676    1.9443   -0.2056 O   0  0  0  0  0  0  0  0  0  0  0  0
   -1.3998   -0.1661    0.3650 C   0  0  0  0  0  0  0  0  0  0  0  0
   -2.5231    0.1245   -0.3805 O   0  0  0  0  0  0  0  0  0  0  0  0
    2.5856   -0.3665   -0.4124 H   0  0  0  0  0  0  0  0  0  0  0  0
    2.9217   -0.0099    1.3130 H   0  0  0  0  0  0  0  0  0  0  0  0
    2.4665    1.3159    0.1339 H   0  0  0  0  0  0  0  0  0  0  0  0
    0.6111    0.1847    1.8641 H   0  0  0  0  0  0  0  0  0  0  0  0
   -1.0617   -2.1755   -0.5455 H   0  0  0  0  0  0  0  0  0  0  0  0
   -1.0359   -0.1287   -1.9476 H   0  0  0  0  0  0  0  0  0  0  0  0
    0.8071   -0.4318   -1.7410 H   0  0  0  0  0  0  0  0  0  0  0  0
   -1.1444    2.3671   -0.1657 H   0  0  0  0  0  0  0  0  0  0  0  0
   -1.5049   -0.2527    1.4430 H   0  0  0  0  0  0  0  0  0  0  0  0
   -3.2715   -0.3929    0.0108 H   0  0  0  0  0  0  0  0  0  0  0  0
  1  2  1  0
  2  3  1  0
  3  4  1  0
  4  5  1  0
  5  6  1  0
  6  7  1  0
  6  8  1  0
  8  9  1  0
  6  2  1  0
  8  4  1  0
  1 10  1  0
  1 11  1  0
  1 12  1  0
  2 13  1  0
  4 14  1  0
  5 15  1  0
  5 16  1  0
  7 17  1  0
  8 18  1  0
  9 19  1  0
M  END
