
     RDKit          2D

 21 23  0  0  0  0  0  0  0  0999 V2000
    2.1213    1.0607    0.0000 C   0  0  0  0  0  0  0  0  0  0  0  0
    1.0607    0.0000    0.0000 C   0  0  0  0  0  0  0  0  0  0  0  0
   -0.0000   -1.0607    0.0000 O   0  0  0  0  0  0  0  0  0  0  0  0
   -1.0607    0.0000    0.0000 C   0  0  0  0  0  0  0  0  0  0  0  0
    0.0000    1.0607    0.0000 C   0  0  0  0  0  0  0  0  0  0  0  0
   -1.0607    2.1213    0.0000 C   0  0  0  0  0  0  0  0  0  0  0  0
   -2.5095    2.5095    0.0000 C   0  0  0  0  0  0  0  0  0  0  0  0
   -2.3788    4.0038    0.0000 C   0  0  0  0  0  0  0  0  0  0  0  0
   -2.1213    1.0607    0.0000 C   0  0  0  0  0  0  0  0  0  0  0  0
    3.1820    2.1213    0.0000 H   0  0  0  0  0  0  0  0  0  0  0  0
    3.1820    0.0000    0.0000 H   0  0  0  0  0  0  0  0  0  0  0  0
    1.5760    1.7586    0.0000 H   0  0  0  0  0  0  0  0  0  0  0  0
    2.1213   -1.0607    0.0000 H   0  0  0  0  0  0  0  0  0  0  0  0
   -2.1213   -1.0607    0.0000 H   0  0  0  0  0  0  0  0  0  0  0  0
    0.5453    1.7586    0.0000 H   0  0  0  0  0  0  0  0  0  0  0  0
   -0.1579    3.3192    0.0000 H   0  0  0  0  0  0  0  0  0  0  0  0
   -4.0038    2.3788    0.0000 H   0  0  0  0  0  0  0  0  0  0  0  0
   -2.2481    5.4981    0.0000 H   0  0  0  0  0  0  0  0  0  0  0  0
   -3.8731    4.1346    0.0000 H   0  0  0  0  0  0  0  0  0  0  0  0
   -0.8797    4.0562    0.0000 H   0  0  0  0  0  0  0  0  0  0  0  0
   -3.4204    0.3107    0.0000 H   0  0  0  0  0  0  0  0  0  0  0  0
  1  2  1  0
  2  3  1  0
  3  4  1  0
  4  5  1  0
  5  6  1  0
  6  7  1  0
  7  8  1  0
  7  9  1  0
  5  2  1  0
  9  6  1  0
  9  4  1  0
  1 10  1  0
  1 11  1  0
  1 12  1  0
  2 13  1  0
  4 14  1  0
  5 15  1  0
  6 16  1  0
  7 17  1  0
  8 18  1  0
  8 19  1  0
  8 20  1  0
  9 21  1  0
M  END
