
     RDKit          3D

 18 19  0  0  0  0  0  0  0  0999 V2000
    2.4356    0.2301    0.2536 C   0  0  0  0  0  0  0  0  0  0  0  0
    1.0520   -0.4361    0.2519 C   0  0  0  0  0  0  0  0  0  0  0  0
    0.5373   -0.2650   -1.0074 O   0  0  0  0  0  0  0  0  0  0  0  0
   -0.8173   -0.0361   -1.0380 C   0  0  0  0  0  0  0  0  0  0  0  0
   -1.2519    1.1030   -0.1343 C   0  0  0  0  0  0  0  0  0  0  0  0
   -1.0398    0.1127    1.0164 C   0  0  0  0  0  0  0  0  0  0  0  0
   -1.4434   -0.9723    0.0062 C   0  0  0  0  0  0  0  0  0  0  0  0
    0.3144    0.0902    1.2712 O   0  0  0  0  0  0  0  0  0  0  0  0
    2.7234    0.5574    1.2708 H   0  0  0  0  0  0  0  0  0  0  0  0
    2.4297    1.1376   -0.4044 H   0  0  0  0  0  0  0  0  0  0  0  0
    3.1732   -0.4861   -0.1861 H   0  0  0  0  0  0  0  0  0  0  0  0
    1.2618   -1.5108    0.5074 H   0  0  0  0  0  0  0  0  0  0  0  0
   -1.2646   -0.0794   -2.0212 H   0  0  0  0  0  0  0  0  0  0  0  0
   -0.6120    1.9804   -0.1161 H   0  0  0  0  0  0  0  0  0  0  0  0
   -2.3423    1.2654   -0.2467 H   0  0  0  0  0  0  0  0  0  0  0  0
   -1.7138    0.2229    1.8585 H   0  0  0  0  0  0  0  0  0  0  0  0
   -0.9097   -1.9199    0.1366 H   0  0  0  0  0  0  0  0  0  0  0  0
   -2.5325   -0.9941   -0.0621 H   0  0  0  0  0  0  0  0  0  0  0  0
  1  2  1  0
  2  3  1  0
  3  4  1  0
  4  5  1  0
  5  6  1  0
  6  7  1  0
  6  8  1  0
  8  2  1  0
  7  4  1  0
  1  9  1  0
  1 10  1  0
  1 11  1  0
  2 12  1  0
  4 13  1  0
  5 14  1  0
  5 15  1  0
  6 16  1  0
  7 17  1  0
  7 18  1  0
M  END
