
     RDKit          3D

 18 18  0  0  0  0  0  0  0  0999 V2000
   -1.7339    0.5717    0.5000 C   0  0  0  0  0  0  0  0  0  0  0  0
   -0.8951    0.0324   -0.6316 C   0  0  0  0  0  0  0  0  0  0  0  0
   -0.0491    1.0239   -1.0608 O   0  0  0  0  0  0  0  0  0  0  0  0
    0.9246    1.3893   -0.1844 C   0  0  0  0  0  0  0  0  0  0  0  0
    1.4863    0.2798    0.6095 C   0  0  0  0  0  0  0  0  0  0  0  0
    0.9924   -0.9400    0.5832 C   0  0  0  0  0  0  0  0  0  0  0  0
   -0.1682   -1.2341   -0.2657 C   0  0  0  0  0  0  0  0  0  0  0  0
    0.2342   -1.8790   -1.4320 O   0  0  0  0  0  0  0  0  0  0  0  0
   -2.1244    1.5584    0.1817 H   0  0  0  0  0  0  0  0  0  0  0  0
   -2.5738   -0.0861    0.7762 H   0  0  0  0  0  0  0  0  0  0  0  0
   -1.0757    0.7472    1.3771 H   0  0  0  0  0  0  0  0  0  0  0  0
   -1.5637   -0.2255   -1.4991 H   0  0  0  0  0  0  0  0  0  0  0  0
    1.7735    1.8148   -0.7866 H   0  0  0  0  0  0  0  0  0  0  0  0
    0.6202    2.1902    0.5314 H   0  0  0  0  0  0  0  0  0  0  0  0
    2.3530    0.5161    1.2384 H   0  0  0  0  0  0  0  0  0  0  0  0
    1.4503   -1.6989    1.1858 H   0  0  0  0  0  0  0  0  0  0  0  0
   -0.8442   -1.9137    0.2838 H   0  0  0  0  0  0  0  0  0  0  0  0
    1.1935   -2.1466   -1.4070 H   0  0  0  0  0  0  0  0  0  0  0  0
  1  2  1  0
  2  3  1  0
  3  4  1  0
  4  5  1  0
  5  6  2  0
  6  7  1  0
  7  8  1  0
  7  2  1  0
  1  9  1  0
  1 10  1  0
  1 11  1  0
  2 12  1  0
  4 13  1  0
  4 14  1  0
  5 15  1  0
  6 16  1  0
  7 17  1  0
  8 18  1  0
M  END
