
     RDKit          3D

 21 21  0  0  0  0  0  0  0  0999 V2000
    2.4858   -1.2912    0.0875 C   0  0  0  0  0  0  0  0  0  0  0  0
    1.1865   -0.7759    0.7161 C   0  0  0  0  0  0  0  0  0  0  0  0
    1.1427    0.5931    0.7501 O   0  0  0  0  0  0  0  0  0  0  0  0
   -0.1935    0.9253    0.4292 C   0  0  0  0  0  0  0  0  0  0  0  0
   -0.2100    2.3012   -0.1496 C   0  0  0  0  0  0  0  0  0  0  0  0
   -0.5146   -0.1515   -0.5816 C   0  0  0  0  0  0  0  0  0  0  0  0
   -1.9864   -0.4821   -0.6098 C   0  0  0  0  0  0  0  0  0  0  0  0
   -2.4984   -0.7621    0.6330 O   0  0  0  0  0  0  0  0  0  0  0  0
    0.1604   -1.2430   -0.0667 O   0  0  0  0  0  0  0  0  0  0  0  0
    2.8316   -0.5394   -0.6224 H   0  0  0  0  0  0  0  0  0  0  0  0
    3.2643   -1.4691    0.8531 H   0  0  0  0  0  0  0  0  0  0  0  0
    2.2709   -2.2246   -0.4850 H   0  0  0  0  0  0  0  0  0  0  0  0
    1.1302   -1.1417    1.7733 H   0  0  0  0  0  0  0  0  0  0  0  0
   -0.8424    0.8989    1.3111 H   0  0  0  0  0  0  0  0  0  0  0  0
    0.7708    2.6479   -0.5300 H   0  0  0  0  0  0  0  0  0  0  0  0
   -0.9646    2.3877   -0.9589 H   0  0  0  0  0  0  0  0  0  0  0  0
   -0.5162    3.0666    0.6209 H   0  0  0  0  0  0  0  0  0  0  0  0
   -0.1710    0.1117   -1.5849 H   0  0  0  0  0  0  0  0  0  0  0  0
   -2.5935    0.2899   -1.1301 H   0  0  0  0  0  0  0  0  0  0  0  0
   -2.0887   -1.4135   -1.2333 H   0  0  0  0  0  0  0  0  0  0  0  0
   -2.6637   -1.7282    0.7779 H   0  0  0  0  0  0  0  0  0  0  0  0
  1  2  1  0
  2  3  1  0
  3  4  1  0
  4  5  1  0
  4  6  1  0
  6  7  1  0
  7  8  1  0
  6  9  1  0
  9  2  1  0
  1 10  1  0
  1 11  1  0
  1 12  1  0
  2 13  1  0
  4 14  1  0
  5 15  1  0
  5 16  1  0
  5 17  1  0
  6 18  1  0
  7 19  1  0
  7 20  1  0
  8 21  1  0
M  END
