
     RDKit          3D

 19 19  0  0  0  0  0  0  0  0999 V2000
   -2.8172    0.1072    0.6613 C   0  0  0  0  0  0  0  0  0  0  0  0
   -1.6385    0.3823   -0.2120 C   0  0  0  0  0  0  0  0  0  0  0  0
   -0.4088    0.4952    0.4774 O   0  0  0  0  0  0  0  0  0  0  0  0
    0.1870    0.0016   -0.6969 C   0  0  0  0  0  0  0  0  0  0  0  0
    1.4282   -0.8169   -0.4548 C   0  0  0  0  0  0  0  0  0  0  0  0
    2.4488    0.0506    0.2488 C   0  0  0  0  0  0  0  0  0  0  0  0
    2.7135    1.1281   -0.5942 O   0  0  0  0  0  0  0  0  0  0  0  0
   -1.0536   -0.7841   -0.9165 C   0  0  0  0  0  0  0  0  0  0  0  0
   -1.3320   -1.8417   -1.4290 O   0  0  0  0  0  0  0  0  0  0  0  0
   -3.3312   -0.8585    0.4313 H   0  0  0  0  0  0  0  0  0  0  0  0
   -2.4967    0.0823    1.7113 H   0  0  0  0  0  0  0  0  0  0  0  0
   -3.5703    0.9290    0.4803 H   0  0  0  0  0  0  0  0  0  0  0  0
   -1.7333    1.2975   -0.8550 H   0  0  0  0  0  0  0  0  0  0  0  0
    0.2984    0.8327   -1.4214 H   0  0  0  0  0  0  0  0  0  0  0  0
    1.1645   -1.7186    0.1004 H   0  0  0  0  0  0  0  0  0  0  0  0
    1.8542   -1.0584   -1.4523 H   0  0  0  0  0  0  0  0  0  0  0  0
    3.3802   -0.5714    0.3559 H   0  0  0  0  0  0  0  0  0  0  0  0
    2.0714    0.4141    1.2180 H   0  0  0  0  0  0  0  0  0  0  0  0
    2.8354    1.9288   -0.0205 H   0  0  0  0  0  0  0  0  0  0  0  0
  1  2  1  0
  2  3  1  0
  3  4  1  0
  4  5  1  0
  5  6  1  0
  6  7  1  0
  4  8  1  0
  8  9  2  0
  8  2  1  0
  1 10  1  0
  1 11  1  0
  1 12  1  0
  2 13  1  0
  4 14  1  0
  5 15  1  0
  5 16  1  0
  6 17  1  0
  6 18  1  0
  7 19  1  0
M  END
