
     RDKit          3D

 21 23  0  0  0  0  0  0  0  0999 V2000
    2.6805    0.2923    0.1925 C   0  0  0  0  0  0  0  0  0  0  0  0
    1.1748    0.4153    0.1137 C   0  0  0  0  0  0  0  0  0  0  0  0
    0.7496    0.9696   -1.0912 O   0  0  0  0  0  0  0  0  0  0  0  0
   -0.5876    1.3541   -0.8933 C   0  0  0  0  0  0  0  0  0  0  0  0
   -1.4363    0.1084   -0.7622 C   0  0  0  0  0  0  0  0  0  0  0  0
   -1.9825   -0.1326    0.6215 C   0  0  0  0  0  0  0  0  0  0  0  0
   -0.8387   -1.0257    0.9345 C   0  0  0  0  0  0  0  0  0  0  0  0
   -0.6085   -1.1419   -0.6024 C   0  0  0  0  0  0  0  0  0  0  0  0
    0.4872   -0.9112    0.3246 C   0  0  0  0  0  0  0  0  0  0  0  0
    3.1543    1.1837    0.6702 H   0  0  0  0  0  0  0  0  0  0  0  0
    2.9052   -0.5816    0.8555 H   0  0  0  0  0  0  0  0  0  0  0  0
    3.1617    0.1479   -0.7806 H   0  0  0  0  0  0  0  0  0  0  0  0
    0.8313    1.1010    0.9153 H   0  0  0  0  0  0  0  0  0  0  0  0
   -0.6153    1.9416    0.0694 H   0  0  0  0  0  0  0  0  0  0  0  0
   -0.9555    1.9960   -1.7251 H   0  0  0  0  0  0  0  0  0  0  0  0
   -2.1881    0.0491   -1.5723 H   0  0  0  0  0  0  0  0  0  0  0  0
   -2.1567    0.7427    1.2442 H   0  0  0  0  0  0  0  0  0  0  0  0
   -2.9440   -0.7175    0.5234 H   0  0  0  0  0  0  0  0  0  0  0  0
   -1.0942   -1.9530    1.4673 H   0  0  0  0  0  0  0  0  0  0  0  0
   -0.9259   -2.0937   -1.0092 H   0  0  0  0  0  0  0  0  0  0  0  0
    1.1888   -1.7445    0.5040 H   0  0  0  0  0  0  0  0  0  0  0  0
  1  2  1  0
  2  3  1  0
  3  4  1  0
  4  5  1  0
  5  6  1  0
  6  7  1  0
  7  8  1  0
  8  9  1  0
  9  2  1  0
  8  5  1  0
  9  7  1  0
  1 10  1  0
  1 11  1  0
  1 12  1  0
  2 13  1  0
  4 14  1  0
  4 15  1  0
  5 16  1  0
  6 17  1  0
  6 18  1  0
  7 19  1  0
  8 20  1  0
  9 21  1  0
M  END
