
     RDKit          3D

 19 20  0  0  0  0  0  0  0  0999 V2000
    1.8255   -1.0591    0.0101 C   0  0  0  0  0  0  0  0  0  0  0  0
    1.0409    0.0700   -0.5945 C   0  0  0  0  0  0  0  0  0  0  0  0
   -0.0191   -0.3192   -1.3624 O   0  0  0  0  0  0  0  0  0  0  0  0
   -1.1911    0.0569   -0.7817 C   0  0  0  0  0  0  0  0  0  0  0  0
   -1.8185   -1.0645   -0.0033 C   0  0  0  0  0  0  0  0  0  0  0  0
   -1.0002   -0.7353    1.0640 O   0  0  0  0  0  0  0  0  0  0  0  0
   -0.9091    0.5786    0.5968 C   0  0  0  0  0  0  0  0  0  0  0  0
    0.5290    0.9873    0.4932 C   0  0  0  0  0  0  0  0  0  0  0  0
    0.7222    2.2981    0.1377 O   0  0  0  0  0  0  0  0  0  0  0  0
    1.3061   -1.6185    0.7829 H   0  0  0  0  0  0  0  0  0  0  0  0
    2.7635   -0.6261    0.4210 H   0  0  0  0  0  0  0  0  0  0  0  0
    2.0951   -1.7543   -0.7979 H   0  0  0  0  0  0  0  0  0  0  0  0
    1.7471    0.6354   -1.2545 H   0  0  0  0  0  0  0  0  0  0  0  0
   -1.9343    0.5930   -1.3787 H   0  0  0  0  0  0  0  0  0  0  0  0
   -1.6330   -2.0295   -0.4932 H   0  0  0  0  0  0  0  0  0  0  0  0
   -2.8818   -0.9191    0.2847 H   0  0  0  0  0  0  0  0  0  0  0  0
   -1.6211    1.2918    0.9870 H   0  0  0  0  0  0  0  0  0  0  0  0
    1.0399    0.7898    1.4603 H   0  0  0  0  0  0  0  0  0  0  0  0
   -0.0611    2.8246    0.4287 H   0  0  0  0  0  0  0  0  0  0  0  0
  1  2  1  0
  2  3  1  0
  3  4  1  0
  4  5  1  0
  5  6  1  0
  6  7  1  0
  7  8  1  0
  8  9  1  0
  8  2  1  0
  7  4  1  0
  1 10  1  0
  1 11  1  0
  1 12  1  0
  2 13  1  0
  4 14  1  0
  5 15  1  0
  5 16  1  0
  7 17  1  0
  8 18  1  0
  9 19  1  0
M  END
