
     RDKit          3D

 17 18  0  0  0  0  0  0  0  0999 V2000
    2.7815    0.1091    0.0865 C   0  0  0  0  0  0  0  0  0  0  0  0
    1.4375    0.2337   -0.6146 C   0  0  0  0  0  0  0  0  0  0  0  0
    0.7489   -1.0784   -0.4938 O   0  0  0  0  0  0  0  0  0  0  0  0
    0.2695    0.1631    0.1738 C   0  0  0  0  0  0  0  0  0  0  0  0
   -1.1311    0.4438   -0.2530 C   0  0  0  0  0  0  0  0  0  0  0  0
   -2.2490    0.2978    0.7943 C   0  0  0  0  0  0  0  0  0  0  0  0
   -2.1435   -0.7064   -0.2806 C   0  0  0  0  0  0  0  0  0  0  0  0
    3.2957    1.0611    0.1796 H   0  0  0  0  0  0  0  0  0  0  0  0
    2.6146   -0.2901    1.1204 H   0  0  0  0  0  0  0  0  0  0  0  0
    3.3908   -0.6815   -0.4347 H   0  0  0  0  0  0  0  0  0  0  0  0
    1.5229    0.5573   -1.6532 H   0  0  0  0  0  0  0  0  0  0  0  0
    0.3773    0.0584    1.2863 H   0  0  0  0  0  0  0  0  0  0  0  0
   -1.3447    1.2287   -1.0016 H   0  0  0  0  0  0  0  0  0  0  0  0
   -3.0284    1.0656    0.8331 H   0  0  0  0  0  0  0  0  0  0  0  0
   -1.8857   -0.0178    1.8112 H   0  0  0  0  0  0  0  0  0  0  0  0
   -1.7755   -1.7205   -0.0168 H   0  0  0  0  0  0  0  0  0  0  0  0
   -2.8808   -0.7239   -1.1078 H   0  0  0  0  0  0  0  0  0  0  0  0
  1  2  1  0
  2  3  1  0
  3  4  1  0
  4  5  1  0
  5  6  1  0
  6  7  1  0
  4  2  1  0
  7  5  1  0
  1  8  1  0
  1  9  1  0
  1 10  1  0
  2 11  1  0
  4 12  1  0
  5 13  1  0
  6 14  1  0
  6 15  1  0
  7 16  1  0
  7 17  1  0
M  END
