
     RDKit          3D

 19 19  0  0  0  0  0  0  0  0999 V2000
   -2.4610   -0.2948   -0.5880 C   0  0  0  0  0  0  0  0  0  0  0  0
   -0.9846   -0.4720   -0.5851 C   0  0  0  0  0  0  0  0  0  0  0  0
   -0.5638   -0.6822    0.8323 O   0  0  0  0  0  0  0  0  0  0  0  0
   -0.0208    0.3652    0.0560 C   0  0  0  0  0  0  0  0  0  0  0  0
   -0.3840    1.7783    0.4506 C   0  0  0  0  0  0  0  0  0  0  0  0
    1.4041    0.1698   -0.2597 C   0  0  0  0  0  0  0  0  0  0  0  0
    2.2145    0.9903    0.0625 O   0  0  0  0  0  0  0  0  0  0  0  0
    1.8245   -1.0528   -0.9830 C   0  0  0  0  0  0  0  0  0  0  0  0
    3.1868   -1.1386   -1.1565 O   0  0  0  0  0  0  0  0  0  0  0  0
   -2.8159    0.2949    0.3041 H   0  0  0  0  0  0  0  0  0  0  0  0
   -2.9429   -1.3168   -0.5007 H   0  0  0  0  0  0  0  0  0  0  0  0
   -2.8555    0.1788   -1.5215 H   0  0  0  0  0  0  0  0  0  0  0  0
   -0.5912   -1.2961   -1.2366 H   0  0  0  0  0  0  0  0  0  0  0  0
    0.3899    2.2284    1.1318 H   0  0  0  0  0  0  0  0  0  0  0  0
   -0.4761    2.4157   -0.4486 H   0  0  0  0  0  0  0  0  0  0  0  0
   -1.3693    1.8191    0.9754 H   0  0  0  0  0  0  0  0  0  0  0  0
    1.4266   -1.9084   -0.3561 H   0  0  0  0  0  0  0  0  0  0  0  0
    1.3655   -1.0797   -2.0148 H   0  0  0  0  0  0  0  0  0  0  0  0
    3.6533   -0.9990   -0.3005 H   0  0  0  0  0  0  0  0  0  0  0  0
  1  2  1  0
  2  3  1  0
  3  4  1  0
  4  5  1  0
  4  6  1  0
  6  7  2  0
  6  8  1  0
  8  9  1  0
  4  2  1  0
  1 10  1  0
  1 11  1  0
  1 12  1  0
  2 13  1  0
  5 14  1  0
  5 15  1  0
  5 16  1  0
  8 17  1  0
  8 18  1  0
  9 19  1  0
M  END
