
     RDKit          3D

 16 16  0  0  0  0  0  0  0  0999 V2000
   -2.2332    0.5901   -0.0561 C   0  0  0  0  0  0  0  0  0  0  0  0
   -1.1539   -0.2560   -0.7502 C   0  0  0  0  0  0  0  0  0  0  0  0
   -0.9114   -1.3261    0.1678 O   0  0  0  0  0  0  0  0  0  0  0  0
    0.2824   -1.0099    0.8063 C   0  0  0  0  0  0  0  0  0  0  0  0
    0.6595   -1.2594    1.9798 O   0  0  0  0  0  0  0  0  0  0  0  0
    1.0323   -0.2783   -0.2754 C   0  0  0  0  0  0  0  0  0  0  0  0
    2.1823    0.4976    0.2516 C   0  0  0  0  0  0  0  0  0  0  0  0
    0.0150    0.4779   -0.8159 O   0  0  0  0  0  0  0  0  0  0  0  0
   -3.0150   -0.1544    0.2481 H   0  0  0  0  0  0  0  0  0  0  0  0
   -1.7168    1.0183    0.8364 H   0  0  0  0  0  0  0  0  0  0  0  0
   -2.6087    1.3868   -0.6940 H   0  0  0  0  0  0  0  0  0  0  0  0
   -1.5008   -0.6218   -1.7266 H   0  0  0  0  0  0  0  0  0  0  0  0
    1.3492   -1.0277   -1.0520 H   0  0  0  0  0  0  0  0  0  0  0  0
    1.9909    1.5528    0.4650 H   0  0  0  0  0  0  0  0  0  0  0  0
    2.6220   -0.0483    1.1348 H   0  0  0  0  0  0  0  0  0  0  0  0
    3.0064    0.4587   -0.5196 H   0  0  0  0  0  0  0  0  0  0  0  0
  1  2  1  0
  2  3  1  0
  3  4  1  0
  4  5  2  0
  4  6  1  0
  6  7  1  0
  6  8  1  0
  8  2  1  0
  1  9  1  0
  1 10  1  0
  1 11  1  0
  2 12  1  0
  6 13  1  0
  7 14  1  0
  7 15  1  0
  7 16  1  0
M  END
