
     RDKit          3D

 19 20  0  0  0  0  0  0  0  0999 V2000
   -2.0528    0.9058    0.3185 C   0  0  0  0  0  0  0  0  0  0  0  0
   -1.1023    0.3992   -0.7112 C   0  0  0  0  0  0  0  0  0  0  0  0
   -1.5515   -0.8824   -1.1842 O   0  0  0  0  0  0  0  0  0  0  0  0
   -0.5791   -1.5789   -0.4867 C   0  0  0  0  0  0  0  0  0  0  0  0
   -0.4085   -2.7864   -0.2097 O   0  0  0  0  0  0  0  0  0  0  0  0
    0.1070   -0.3301   -0.2426 C   0  0  0  0  0  0  0  0  0  0  0  0
    1.3952   -0.0712   -0.9286 C   0  0  0  0  0  0  0  0  0  0  0  0
    2.0440    0.0772    0.4547 C   0  0  0  0  0  0  0  0  0  0  0  0
    0.6525   -0.0340    1.0906 C   0  0  0  0  0  0  0  0  0  0  0  0
   -2.4110    1.9369    0.0704 H   0  0  0  0  0  0  0  0  0  0  0  0
   -2.9697    0.2552    0.4270 H   0  0  0  0  0  0  0  0  0  0  0  0
   -1.6175    0.9572    1.3314 H   0  0  0  0  0  0  0  0  0  0  0  0
   -0.9626    1.0509   -1.6090 H   0  0  0  0  0  0  0  0  0  0  0  0
    1.7801   -1.0000   -1.4087 H   0  0  0  0  0  0  0  0  0  0  0  0
    1.4770    0.8174   -1.5648 H   0  0  0  0  0  0  0  0  0  0  0  0
    2.5125    1.0740    0.5680 H   0  0  0  0  0  0  0  0  0  0  0  0
    2.6944   -0.7677    0.7388 H   0  0  0  0  0  0  0  0  0  0  0  0
    0.4059    0.9082    1.5839 H   0  0  0  0  0  0  0  0  0  0  0  0
    0.5862   -0.9311    1.7623 H   0  0  0  0  0  0  0  0  0  0  0  0
  1  2  1  0
  2  3  1  0
  3  4  1  0
  4  5  2  0
  4  6  1  0
  6  7  1  0
  7  8  1  0
  8  9  1  0
  6  2  1  0
  9  6  1  0
  1 10  1  0
  1 11  1  0
  1 12  1  0
  2 13  1  0
  7 14  1  0
  7 15  1  0
  8 16  1  0
  8 17  1  0
  9 18  1  0
  9 19  1  0
M  END
