
     RDKit          3D

 17 18  0  0  0  0  0  0  0  0999 V2000
    1.8150    0.8611   -1.0748 C   0  0  0  0  0  0  0  0  0  0  0  0
    1.5858    0.0516    0.1568 C   0  0  0  0  0  0  0  0  0  0  0  0
    0.9216    0.7598    1.2080 O   0  0  0  0  0  0  0  0  0  0  0  0
   -0.2062    0.6482    0.4490 C   0  0  0  0  0  0  0  0  0  0  0  0
   -1.5110    0.3928    1.0433 C   0  0  0  0  0  0  0  0  0  0  0  0
   -2.0665    0.9880    1.9157 O   0  0  0  0  0  0  0  0  0  0  0  0
   -2.0482   -0.8169    0.3161 C   0  0  0  0  0  0  0  0  0  0  0  0
   -0.7687   -1.5012   -0.0144 C   0  0  0  0  0  0  0  0  0  0  0  0
    0.2918   -0.7278    0.0831 C   0  0  0  0  0  0  0  0  0  0  0  0
    1.8492    1.9521   -0.8996 H   0  0  0  0  0  0  0  0  0  0  0  0
    1.0533    0.6726   -1.8802 H   0  0  0  0  0  0  0  0  0  0  0  0
    2.7805    0.4868   -1.5294 H   0  0  0  0  0  0  0  0  0  0  0  0
    2.3990   -0.5856    0.4891 H   0  0  0  0  0  0  0  0  0  0  0  0
   -0.1700    1.3615   -0.4001 H   0  0  0  0  0  0  0  0  0  0  0  0
   -2.6192   -1.4675    1.0193 H   0  0  0  0  0  0  0  0  0  0  0  0
   -2.6248   -0.5310   -0.5689 H   0  0  0  0  0  0  0  0  0  0  0  0
   -0.6816   -2.5446   -0.3130 H   0  0  0  0  0  0  0  0  0  0  0  0
  1  2  1  0
  2  3  1  0
  3  4  1  0
  4  5  1  0
  5  6  2  0
  5  7  1  0
  7  8  1  0
  8  9  2  0
  9  2  1  0
  9  4  1  0
  1 10  1  0
  1 11  1  0
  1 12  1  0
  2 13  1  0
  4 14  1  0
  7 15  1  0
  7 16  1  0
  8 17  1  0
M  END
