
     RDKit          3D

 21 22  0  0  0  0  0  0  0  0999 V2000
    2.7157   -0.1761   -0.0901 C   0  0  0  0  0  0  0  0  0  0  0  0
    1.3232    0.0347   -0.7020 C   0  0  0  0  0  0  0  0  0  0  0  0
    0.9755    1.3357   -0.4748 O   0  0  0  0  0  0  0  0  0  0  0  0
   -0.3276    1.5309   -0.0987 C   0  0  0  0  0  0  0  0  0  0  0  0
   -1.2170    0.5538   -0.8766 C   0  0  0  0  0  0  0  0  0  0  0  0
   -0.7552   -0.4660    0.1733 C   0  0  0  0  0  0  0  0  0  0  0  0
   -1.7381   -1.5435    0.4779 C   0  0  0  0  0  0  0  0  0  0  0  0
   -0.6952    0.6888    1.1323 C   0  0  0  0  0  0  0  0  0  0  0  0
    0.4987   -0.9059   -0.1379 O   0  0  0  0  0  0  0  0  0  0  0  0
    2.6046   -0.6743    0.9130 H   0  0  0  0  0  0  0  0  0  0  0  0
    3.2330    0.7933    0.0257 H   0  0  0  0  0  0  0  0  0  0  0  0
    3.3161   -0.8600   -0.7252 H   0  0  0  0  0  0  0  0  0  0  0  0
    1.3772   -0.2050   -1.8045 H   0  0  0  0  0  0  0  0  0  0  0  0
   -0.6572    2.5569   -0.0802 H   0  0  0  0  0  0  0  0  0  0  0  0
   -2.3036    0.7878   -0.7531 H   0  0  0  0  0  0  0  0  0  0  0  0
   -0.8800    0.3347   -1.8877 H   0  0  0  0  0  0  0  0  0  0  0  0
   -1.5598   -2.3791   -0.2304 H   0  0  0  0  0  0  0  0  0  0  0  0
   -2.7662   -1.1904    0.2947 H   0  0  0  0  0  0  0  0  0  0  0  0
   -1.5890   -1.9507    1.4887 H   0  0  0  0  0  0  0  0  0  0  0  0
    0.1308    0.7104    1.8434 H   0  0  0  0  0  0  0  0  0  0  0  0
   -1.6859    1.0238    1.5121 H   0  0  0  0  0  0  0  0  0  0  0  0
  1  2  1  0
  2  3  1  0
  3  4  1  0
  4  5  1  0
  5  6  1  0
  6  7  1  0
  6  8  1  0
  6  9  1  0
  9  2  1  0
  8  4  1  0
  1 10  1  0
  1 11  1  0
  1 12  1  0
  2 13  1  0
  4 14  1  0
  5 15  1  0
  5 16  1  0
  7 17  1  0
  7 18  1  0
  7 19  1  0
  8 20  1  0
  8 21  1  0
M  END
