
     RDKit          3D

 19 20  0  0  0  0  0  0  0  0999 V2000
   -1.3172   -1.6319   -0.1247 C   0  0  0  0  0  0  0  0  0  0  0  0
   -0.9006   -0.3514   -0.7462 C   0  0  0  0  0  0  0  0  0  0  0  0
   -1.8495    0.6961   -0.6686 O   0  0  0  0  0  0  0  0  0  0  0  0
   -0.9672    1.5810   -0.0048 C   0  0  0  0  0  0  0  0  0  0  0  0
    0.0562    0.5193   -0.0741 C   0  0  0  0  0  0  0  0  0  0  0  0
    0.7676    0.1102    1.1432 C   0  0  0  0  0  0  0  0  0  0  0  0
    1.9528   -0.1793    0.2126 C   0  0  0  0  0  0  0  0  0  0  0  0
    1.3351    0.8193   -0.7312 C   0  0  0  0  0  0  0  0  0  0  0  0
    1.8260    1.5059   -1.6134 O   0  0  0  0  0  0  0  0  0  0  0  0
   -2.3237   -1.5287    0.3774 H   0  0  0  0  0  0  0  0  0  0  0  0
   -0.5750   -2.0892    0.5515 H   0  0  0  0  0  0  0  0  0  0  0  0
   -1.5008   -2.4040   -0.9260 H   0  0  0  0  0  0  0  0  0  0  0  0
   -0.6535   -0.4703   -1.8418 H   0  0  0  0  0  0  0  0  0  0  0  0
   -0.7898    2.5267   -0.5142 H   0  0  0  0  0  0  0  0  0  0  0  0
   -1.3453    1.7013    1.0521 H   0  0  0  0  0  0  0  0  0  0  0  0
    0.4153   -0.7414    1.7218 H   0  0  0  0  0  0  0  0  0  0  0  0
    1.0560    1.0119    1.7604 H   0  0  0  0  0  0  0  0  0  0  0  0
    1.8962   -1.2184   -0.1674 H   0  0  0  0  0  0  0  0  0  0  0  0
    2.9176    0.1429    0.5933 H   0  0  0  0  0  0  0  0  0  0  0  0
  1  2  1  0
  2  3  1  0
  3  4  1  0
  4  5  1  0
  5  6  1  0
  6  7  1  0
  7  8  1  0
  8  9  2  0
  5  2  1  0
  8  5  1  0
  1 10  1  0
  1 11  1  0
  1 12  1  0
  2 13  1  0
  4 14  1  0
  4 15  1  0
  6 16  1  0
  6 17  1  0
  7 18  1  0
  7 19  1  0
M  END
