
     RDKit          3D

 21 22  0  0  0  0  0  0  0  0999 V2000
    2.3851    0.4264    0.2156 C   0  0  0  0  0  0  0  0  0  0  0  0
    1.1993   -0.0627   -0.6286 C   0  0  0  0  0  0  0  0  0  0  0  0
    1.2845   -1.3787   -0.9530 O   0  0  0  0  0  0  0  0  0  0  0  0
    0.2617   -2.0828   -0.4000 C   0  0  0  0  0  0  0  0  0  0  0  0
   -0.7530   -1.1418    0.1561 C   0  0  0  0  0  0  0  0  0  0  0  0
   -1.6531   -0.5856   -0.7206 O   0  0  0  0  0  0  0  0  0  0  0  0
   -1.2233    0.7250   -0.5109 C   0  0  0  0  0  0  0  0  0  0  0  0
   -2.0719    1.5275    0.4493 C   0  0  0  0  0  0  0  0  0  0  0  0
   -0.0251    0.1656    0.2052 C   0  0  0  0  0  0  0  0  0  0  0  0
    2.3597   -0.1182    1.1759 H   0  0  0  0  0  0  0  0  0  0  0  0
    3.3302    0.3661   -0.3249 H   0  0  0  0  0  0  0  0  0  0  0  0
    2.1169    1.4911    0.4753 H   0  0  0  0  0  0  0  0  0  0  0  0
    1.1770    0.5594   -1.5660 H   0  0  0  0  0  0  0  0  0  0  0  0
    0.6820   -2.6634    0.4718 H   0  0  0  0  0  0  0  0  0  0  0  0
   -0.2491   -2.7555   -1.1236 H   0  0  0  0  0  0  0  0  0  0  0  0
   -1.2120   -1.4678    1.1235 H   0  0  0  0  0  0  0  0  0  0  0  0
   -0.9429    1.2483   -1.4479 H   0  0  0  0  0  0  0  0  0  0  0  0
   -1.4693    1.8312    1.3532 H   0  0  0  0  0  0  0  0  0  0  0  0
   -2.4209    2.4625   -0.0095 H   0  0  0  0  0  0  0  0  0  0  0  0
   -2.9006    0.9061    0.8397 H   0  0  0  0  0  0  0  0  0  0  0  0
    0.1248    0.5471    1.2193 H   0  0  0  0  0  0  0  0  0  0  0  0
  1  2  1  0
  2  3  1  0
  3  4  1  0
  4  5  1  0
  5  6  1  0
  6  7  1  0
  7  8  1  0
  7  9  1  0
  9  2  1  0
  9  5  1  0
  1 10  1  0
  1 11  1  0
  1 12  1  0
  2 13  1  0
  4 14  1  0
  4 15  1  0
  5 16  1  0
  7 17  1  0
  8 18  1  0
  8 19  1  0
  8 20  1  0
  9 21  1  0
M  END
