
     RDKit          3D

 21 22  0  0  0  0  0  0  0  0999 V2000
   -2.5463    0.1304    0.7471 C   0  0  0  0  0  0  0  0  0  0  0  0
   -1.1414    0.6589    0.5331 C   0  0  0  0  0  0  0  0  0  0  0  0
   -1.0333    1.0734   -0.8217 O   0  0  0  0  0  0  0  0  0  0  0  0
   -0.3357   -0.0400   -1.2880 C   0  0  0  0  0  0  0  0  0  0  0  0
   -0.6592   -1.4043   -0.7976 C   0  0  0  0  0  0  0  0  0  0  0  0
   -0.1446   -0.3915    0.1825 C   0  0  0  0  0  0  0  0  0  0  0  0
    1.2298   -0.4186    0.6934 C   0  0  0  0  0  0  0  0  0  0  0  0
    2.0970    0.7736    0.3809 C   0  0  0  0  0  0  0  0  0  0  0  0
    2.2850    0.9956   -0.9530 O   0  0  0  0  0  0  0  0  0  0  0  0
   -2.5828   -0.7088    1.4586 H   0  0  0  0  0  0  0  0  0  0  0  0
   -3.1655    0.9454    1.2015 H   0  0  0  0  0  0  0  0  0  0  0  0
   -3.0393   -0.1696   -0.1866 H   0  0  0  0  0  0  0  0  0  0  0  0
   -0.8294    1.4268    1.2598 H   0  0  0  0  0  0  0  0  0  0  0  0
    0.4841    0.0574   -1.9805 H   0  0  0  0  0  0  0  0  0  0  0  0
   -1.7344   -1.6602   -0.6791 H   0  0  0  0  0  0  0  0  0  0  0  0
   -0.0112   -2.2145   -1.1227 H   0  0  0  0  0  0  0  0  0  0  0  0
    1.7943   -1.2962    0.2460 H   0  0  0  0  0  0  0  0  0  0  0  0
    1.2976   -0.6604    1.7975 H   0  0  0  0  0  0  0  0  0  0  0  0
    1.7672    1.6808    0.9289 H   0  0  0  0  0  0  0  0  0  0  0  0
    3.1143    0.5459    0.8175 H   0  0  0  0  0  0  0  0  0  0  0  0
    3.1539    0.6759   -1.2756 H   0  0  0  0  0  0  0  0  0  0  0  0
  1  2  1  0
  2  3  1  0
  3  4  1  0
  4  5  1  0
  5  6  1  0
  6  7  1  0
  7  8  1  0
  8  9  1  0
  6  2  1  0
  6  4  1  0
  1 10  1  0
  1 11  1  0
  1 12  1  0
  2 13  1  0
  4 14  1  0
  5 15  1  0
  5 16  1  0
  7 17  1  0
  7 18  1  0
  8 19  1  0
  8 20  1  0
  9 21  1  0
M  END
