
     RDKit          3D

 21 22  0  0  0  0  0  0  0  0999 V2000
    2.8029    0.6970    0.2484 C   0  0  0  0  0  0  0  0  0  0  0  0
    1.3589    0.9837   -0.0546 C   0  0  0  0  0  0  0  0  0  0  0  0
    0.5201    1.5219    0.8780 O   0  0  0  0  0  0  0  0  0  0  0  0
    0.3985    0.1661    0.7958 C   0  0  0  0  0  0  0  0  0  0  0  0
   -0.6916   -0.4883   -0.0023 C   0  0  0  0  0  0  0  0  0  0  0  0
   -0.7060   -1.9683    0.2041 C   0  0  0  0  0  0  0  0  0  0  0  0
   -2.0501    0.1509    0.0824 C   0  0  0  0  0  0  0  0  0  0  0  0
   -1.6243    0.8306   -1.1833 C   0  0  0  0  0  0  0  0  0  0  0  0
   -0.6918   -0.1788   -1.3730 O   0  0  0  0  0  0  0  0  0  0  0  0
    3.4171    1.4462   -0.2924 H   0  0  0  0  0  0  0  0  0  0  0  0
    3.0332    0.5954    1.3062 H   0  0  0  0  0  0  0  0  0  0  0  0
    3.0338   -0.2836   -0.2651 H   0  0  0  0  0  0  0  0  0  0  0  0
    1.1467    1.1193   -1.1289 H   0  0  0  0  0  0  0  0  0  0  0  0
    0.7874   -0.3999    1.6500 H   0  0  0  0  0  0  0  0  0  0  0  0
    0.3316   -2.2928    0.4886 H   0  0  0  0  0  0  0  0  0  0  0  0
   -1.0019   -2.5460   -0.6743 H   0  0  0  0  0  0  0  0  0  0  0  0
   -1.4034   -2.1744    1.0601 H   0  0  0  0  0  0  0  0  0  0  0  0
   -2.8289   -0.6254   -0.1515 H   0  0  0  0  0  0  0  0  0  0  0  0
   -2.2400    0.7761    0.9536 H   0  0  0  0  0  0  0  0  0  0  0  0
   -1.2107    1.8308   -0.9780 H   0  0  0  0  0  0  0  0  0  0  0  0
   -2.3813    0.8395   -2.0064 H   0  0  0  0  0  0  0  0  0  0  0  0
  1  2  1  0
  2  3  1  0
  3  4  1  0
  4  5  1  0
  5  6  1  0
  5  7  1  0
  7  8  1  0
  8  9  1  0
  4  2  1  0
  9  5  1  0
  1 10  1  0
  1 11  1  0
  1 12  1  0
  2 13  1  0
  4 14  1  0
  6 15  1  0
  6 16  1  0
  6 17  1  0
  7 18  1  0
  7 19  1  0
  8 20  1  0
  8 21  1  0
M  END
