
     RDKit          3D

 17 17  0  0  0  0  0  0  0  0999 V2000
   -1.6285   -1.1282   -0.2892 C   0  0  0  0  0  0  0  0  0  0  0  0
   -0.4596   -0.4927    0.4018 C   0  0  0  0  0  0  0  0  0  0  0  0
    0.5570   -1.3444    0.7051 O   0  0  0  0  0  0  0  0  0  0  0  0
    1.7633   -0.7893    0.4048 C   0  0  0  0  0  0  0  0  0  0  0  0
    1.5314    0.5973   -0.0678 C   0  0  0  0  0  0  0  0  0  0  0  0
    2.3357    1.5088   -0.1193 O   0  0  0  0  0  0  0  0  0  0  0  0
    0.0966    0.6230   -0.4640 C   0  0  0  0  0  0  0  0  0  0  0  0
   -0.5747    1.8707   -0.0598 C   0  0  0  0  0  0  0  0  0  0  0  0
   -0.1080    2.5461    0.8240 O   0  0  0  0  0  0  0  0  0  0  0  0
   -2.3193   -1.5363    0.4929 H   0  0  0  0  0  0  0  0  0  0  0  0
   -2.1778   -0.3028   -0.8205 H   0  0  0  0  0  0  0  0  0  0  0  0
   -1.3547   -1.8723   -1.0520 H   0  0  0  0  0  0  0  0  0  0  0  0
   -0.8469   -0.0599    1.3707 H   0  0  0  0  0  0  0  0  0  0  0  0
    2.1991   -1.3711   -0.4585 H   0  0  0  0  0  0  0  0  0  0  0  0
    2.5008   -0.8118    1.2304 H   0  0  0  0  0  0  0  0  0  0  0  0
   -0.0393    0.3950   -1.5420 H   0  0  0  0  0  0  0  0  0  0  0  0
   -1.4751    2.1680   -0.5566 H   0  0  0  0  0  0  0  0  0  0  0  0
  1  2  1  0
  2  3  1  0
  3  4  1  0
  4  5  1  0
  5  6  2  0
  5  7  1  0
  7  8  1  0
  8  9  2  0
  7  2  1  0
  1 10  1  0
  1 11  1  0
  1 12  1  0
  2 13  1  0
  4 14  1  0
  4 15  1  0
  7 16  1  0
  8 17  1  0
M  END
