
     RDKit          3D

 22 22  0  0  0  0  0  0  0  0999 V2000
    1.6999   -1.3082   -0.1254 C   0  0  0  0  0  0  0  0  0  0  0  0
    0.7829   -0.4236    0.6298 C   0  0  0  0  0  0  0  0  0  0  0  0
    1.4320    0.7448    0.9550 O   0  0  0  0  0  0  0  0  0  0  0  0
    0.8649    1.7869    0.2831 C   0  0  0  0  0  0  0  0  0  0  0  0
   -0.2578    1.2997   -0.5566 C   0  0  0  0  0  0  0  0  0  0  0  0
   -0.5003   -0.0935   -0.0308 C   0  0  0  0  0  0  0  0  0  0  0  0
   -1.6041    0.0187    1.0260 C   0  0  0  0  0  0  0  0  0  0  0  0
   -0.9546   -0.9839   -1.1067 C   0  0  0  0  0  0  0  0  0  0  0  0
    1.7141   -1.1787   -1.2093 H   0  0  0  0  0  0  0  0  0  0  0  0
    2.7513   -1.0818    0.2236 H   0  0  0  0  0  0  0  0  0  0  0  0
    1.5476   -2.3815    0.1890 H   0  0  0  0  0  0  0  0  0  0  0  0
    0.5419   -0.9392    1.6059 H   0  0  0  0  0  0  0  0  0  0  0  0
    0.4684    2.5769    0.9737 H   0  0  0  0  0  0  0  0  0  0  0  0
    1.6370    2.2385   -0.3867 H   0  0  0  0  0  0  0  0  0  0  0  0
   -1.1844    1.8992   -0.4645 H   0  0  0  0  0  0  0  0  0  0  0  0
   -0.0229    1.2461   -1.6349 H   0  0  0  0  0  0  0  0  0  0  0  0
   -1.1348    0.5632    1.8877 H   0  0  0  0  0  0  0  0  0  0  0  0
   -2.4513    0.6248    0.6376 H   0  0  0  0  0  0  0  0  0  0  0  0
   -1.9250   -0.9770    1.3804 H   0  0  0  0  0  0  0  0  0  0  0  0
   -1.3214   -0.3635   -1.9770 H   0  0  0  0  0  0  0  0  0  0  0  0
   -0.2366   -1.6896   -1.5160 H   0  0  0  0  0  0  0  0  0  0  0  0
   -1.8468   -1.5781   -0.7838 H   0  0  0  0  0  0  0  0  0  0  0  0
  1  2  1  0
  2  3  1  0
  3  4  1  0
  4  5  1  0
  5  6  1  0
  6  7  1  0
  6  8  1  0
  6  2  1  0
  1  9  1  0
  1 10  1  0
  1 11  1  0
  2 12  1  0
  4 13  1  0
  4 14  1  0
  5 15  1  0
  5 16  1  0
  7 17  1  0
  7 18  1  0
  7 19  1  0
  8 20  1  0
  8 21  1  0
  8 22  1  0
M  END
