
     RDKit          3D

 21 22  0  0  0  0  0  0  0  0999 V2000
   -1.7824    1.3369   -0.3221 C   0  0  0  0  0  0  0  0  0  0  0  0
   -1.2743   -0.0227   -0.6674 C   0  0  0  0  0  0  0  0  0  0  0  0
   -2.0977   -0.9998   -0.0668 O   0  0  0  0  0  0  0  0  0  0  0  0
   -0.9439   -1.8021    0.0695 C   0  0  0  0  0  0  0  0  0  0  0  0
   -0.1359   -0.5710    0.0625 C   0  0  0  0  0  0  0  0  0  0  0  0
    1.2615   -0.4175   -0.1765 C   0  0  0  0  0  0  0  0  0  0  0  0
    1.9091    0.7252   -0.9064 C   0  0  0  0  0  0  0  0  0  0  0  0
    0.5917    0.0011    1.1605 C   0  0  0  0  0  0  0  0  0  0  0  0
    0.9004   -0.7912    2.2587 O   0  0  0  0  0  0  0  0  0  0  0  0
   -2.8991    1.2868   -0.2185 H   0  0  0  0  0  0  0  0  0  0  0  0
   -1.4146    1.7111    0.6633 H   0  0  0  0  0  0  0  0  0  0  0  0
   -1.5994    2.1040   -1.1033 H   0  0  0  0  0  0  0  0  0  0  0  0
   -1.3224   -0.1951   -1.7758 H   0  0  0  0  0  0  0  0  0  0  0  0
   -0.9009   -2.3652    1.0263 H   0  0  0  0  0  0  0  0  0  0  0  0
   -0.8173   -2.3918   -0.8491 H   0  0  0  0  0  0  0  0  0  0  0  0
    1.9298   -1.3151   -0.0972 H   0  0  0  0  0  0  0  0  0  0  0  0
    1.4715    1.7171   -0.6403 H   0  0  0  0  0  0  0  0  0  0  0  0
    1.9479    0.5768   -2.0090 H   0  0  0  0  0  0  0  0  0  0  0  0
    2.9773    0.7720   -0.5776 H   0  0  0  0  0  0  0  0  0  0  0  0
    0.5463    1.0741    1.3855 H   0  0  0  0  0  0  0  0  0  0  0  0
    1.6526   -0.4335    2.7837 H   0  0  0  0  0  0  0  0  0  0  0  0
  1  2  1  0
  2  3  1  0
  3  4  1  0
  4  5  1  0
  5  6  1  0
  6  7  1  0
  6  8  1  0
  8  9  1  0
  5  2  1  0
  8  5  1  0
  1 10  1  0
  1 11  1  0
  1 12  1  0
  2 13  1  0
  4 14  1  0
  4 15  1  0
  6 16  1  0
  7 17  1  0
  7 18  1  0
  7 19  1  0
  8 20  1  0
  9 21  1  0
M  END
