
     RDKit          3D

 23 24  0  0  0  0  0  0  0  0999 V2000
    2.8862    0.0892    0.1037 C   0  0  0  0  0  0  0  0  0  0  0  0
    1.4539    0.3350   -0.2321 C   0  0  0  0  0  0  0  0  0  0  0  0
    0.8888    1.2204    0.6520 O   0  0  0  0  0  0  0  0  0  0  0  0
   -0.4790    1.3812    0.4374 C   0  0  0  0  0  0  0  0  0  0  0  0
   -1.1434    0.0728    0.0867 C   0  0  0  0  0  0  0  0  0  0  0  0
   -2.6097    0.0281    0.1939 C   0  0  0  0  0  0  0  0  0  0  0  0
   -0.3656   -1.0053    0.8380 C   0  0  0  0  0  0  0  0  0  0  0  0
    0.6276   -0.9058   -0.3325 C   0  0  0  0  0  0  0  0  0  0  0  0
   -0.5977   -0.5373   -1.1788 C   0  0  0  0  0  0  0  0  0  0  0  0
    3.3703    1.0729    0.2802 H   0  0  0  0  0  0  0  0  0  0  0  0
    3.0258   -0.5525    0.9815 H   0  0  0  0  0  0  0  0  0  0  0  0
    3.3824   -0.3212   -0.8136 H   0  0  0  0  0  0  0  0  0  0  0  0
    1.4296    0.8288   -1.2466 H   0  0  0  0  0  0  0  0  0  0  0  0
   -0.7114    2.1942   -0.2750 H   0  0  0  0  0  0  0  0  0  0  0  0
   -0.9086    1.7001    1.4151 H   0  0  0  0  0  0  0  0  0  0  0  0
   -2.9804    0.8745    0.8310 H   0  0  0  0  0  0  0  0  0  0  0  0
   -2.9676   -0.9474    0.5064 H   0  0  0  0  0  0  0  0  0  0  0  0
   -3.0431    0.2351   -0.8291 H   0  0  0  0  0  0  0  0  0  0  0  0
    0.0770   -0.6591    1.7876 H   0  0  0  0  0  0  0  0  0  0  0  0
   -0.8565   -1.9915    0.8515 H   0  0  0  0  0  0  0  0  0  0  0  0
    1.1172   -1.8351   -0.6012 H   0  0  0  0  0  0  0  0  0  0  0  0
   -1.2057   -1.4237   -1.4509 H   0  0  0  0  0  0  0  0  0  0  0  0
   -0.3900    0.1467   -2.0052 H   0  0  0  0  0  0  0  0  0  0  0  0
  1  2  1  0
  2  3  1  0
  3  4  1  0
  4  5  1  0
  5  6  1  0
  5  7  1  0
  7  8  1  0
  8  9  1  0
  8  2  1  0
  9  5  1  0
  1 10  1  0
  1 11  1  0
  1 12  1  0
  2 13  1  0
  4 14  1  0
  4 15  1  0
  6 16  1  0
  6 17  1  0
  6 18  1  0
  7 19  1  0
  7 20  1  0
  8 21  1  0
  9 22  1  0
  9 23  1  0
M  END
