
     RDKit          3D

 19 20  0  0  0  0  0  0  0  0999 V2000
   -3.0496    0.1272    0.4877 C   0  0  0  0  0  0  0  0  0  0  0  0
   -1.5941   -0.2706    0.6757 C   0  0  0  0  0  0  0  0  0  0  0  0
   -0.8022    0.7929    1.3513 O   0  0  0  0  0  0  0  0  0  0  0  0
   -0.5978    0.5195   -0.0002 C   0  0  0  0  0  0  0  0  0  0  0  0
    0.7454   -0.0608   -0.4175 C   0  0  0  0  0  0  0  0  0  0  0  0
    0.8213   -0.2883   -1.7954 O   0  0  0  0  0  0  0  0  0  0  0  0
    1.4827   -0.9250    0.5314 C   0  0  0  0  0  0  0  0  0  0  0  0
    1.9123    0.4931    0.3120 C   0  0  0  0  0  0  0  0  0  0  0  0
    3.1437    0.6414   -0.3033 O   0  0  0  0  0  0  0  0  0  0  0  0
   -3.6021   -0.7877    0.2638 H   0  0  0  0  0  0  0  0  0  0  0  0
   -3.1187    0.8782   -0.3232 H   0  0  0  0  0  0  0  0  0  0  0  0
   -3.3645    0.5850    1.4552 H   0  0  0  0  0  0  0  0  0  0  0  0
   -1.4197   -1.2041    1.2004 H   0  0  0  0  0  0  0  0  0  0  0  0
   -0.9278    1.3458   -0.6501 H   0  0  0  0  0  0  0  0  0  0  0  0
    1.6499   -0.7642   -2.0496 H   0  0  0  0  0  0  0  0  0  0  0  0
    1.0236   -1.1841    1.5114 H   0  0  0  0  0  0  0  0  0  0  0  0
    2.0753   -1.7489    0.0621 H   0  0  0  0  0  0  0  0  0  0  0  0
    1.7495    1.2254    1.1384 H   0  0  0  0  0  0  0  0  0  0  0  0
    3.8727    0.6254    0.3635 H   0  0  0  0  0  0  0  0  0  0  0  0
  1  2  1  0
  2  3  1  0
  3  4  1  0
  4  5  1  0
  5  6  1  0
  5  7  1  0
  7  8  1  0
  8  9  1  0
  4  2  1  0
  8  5  1  0
  1 10  1  0
  1 11  1  0
  1 12  1  0
  2 13  1  0
  4 14  1  0
  6 15  1  0
  7 16  1  0
  7 17  1  0
  8 18  1  0
  9 19  1  0
M  END
