
     RDKit          3D

 23 24  0  0  0  0  0  0  0  0999 V2000
    2.8123    0.6001    0.1984 C   0  0  0  0  0  0  0  0  0  0  0  0
    1.7741   -0.4662    0.2128 C   0  0  0  0  0  0  0  0  0  0  0  0
    1.5821   -0.9786   -1.1756 O   0  0  0  0  0  0  0  0  0  0  0  0
    0.5287   -0.4536   -0.4626 C   0  0  0  0  0  0  0  0  0  0  0  0
   -0.5190   -1.4786   -0.0695 C   0  0  0  0  0  0  0  0  0  0  0  0
   -1.4124   -0.9045    0.9799 C   0  0  0  0  0  0  0  0  0  0  0  0
   -2.2130    0.2241    0.3166 C   0  0  0  0  0  0  0  0  0  0  0  0
   -1.2883    1.2526   -0.2362 C   0  0  0  0  0  0  0  0  0  0  0  0
   -0.1648    0.7179   -1.0530 C   0  0  0  0  0  0  0  0  0  0  0  0
    3.5639    0.4522   -0.6316 H   0  0  0  0  0  0  0  0  0  0  0  0
    3.4474    0.6034    1.1306 H   0  0  0  0  0  0  0  0  0  0  0  0
    2.4185    1.6271    0.0674 H   0  0  0  0  0  0  0  0  0  0  0  0
    1.9926   -1.3007    0.9287 H   0  0  0  0  0  0  0  0  0  0  0  0
   -1.1609   -1.7069   -0.9614 H   0  0  0  0  0  0  0  0  0  0  0  0
   -0.0363   -2.3989    0.3349 H   0  0  0  0  0  0  0  0  0  0  0  0
   -2.0895   -1.6976    1.3326 H   0  0  0  0  0  0  0  0  0  0  0  0
   -0.8687   -0.4367    1.8232 H   0  0  0  0  0  0  0  0  0  0  0  0
   -2.7764    0.6988    1.1718 H   0  0  0  0  0  0  0  0  0  0  0  0
   -2.9492   -0.1710   -0.3993 H   0  0  0  0  0  0  0  0  0  0  0  0
   -0.8358    1.7961    0.6416 H   0  0  0  0  0  0  0  0  0  0  0  0
   -1.8886    1.9495   -0.8725 H   0  0  0  0  0  0  0  0  0  0  0  0
    0.5889    1.5480   -1.1659 H   0  0  0  0  0  0  0  0  0  0  0  0
   -0.5053    0.5234   -2.1108 H   0  0  0  0  0  0  0  0  0  0  0  0
  1  2  1  0
  2  3  1  0
  3  4  1  0
  4  5  1  0
  5  6  1  0
  6  7  1  0
  7  8  1  0
  8  9  1  0
  4  2  1  0
  9  4  1  0
  1 10  1  0
  1 11  1  0
  1 12  1  0
  2 13  1  0
  5 14  1  0
  5 15  1  0
  6 16  1  0
  6 17  1  0
  7 18  1  0
  7 19  1  0
  8 20  1  0
  8 21  1  0
  9 22  1  0
  9 23  1  0
M  END
