
     RDKit          3D

 18 19  0  0  0  0  0  0  0  0999 V2000
    1.9685   -0.1532   -0.6602 C   0  0  0  0  0  0  0  0  0  0  0  0
    0.9409   -0.1128    0.4363 C   0  0  0  0  0  0  0  0  0  0  0  0
    0.3645   -1.3940    0.6324 O   0  0  0  0  0  0  0  0  0  0  0  0
   -0.9761   -1.1469    0.4679 C   0  0  0  0  0  0  0  0  0  0  0  0
   -1.0361   -0.2784   -0.8003 C   0  0  0  0  0  0  0  0  0  0  0  0
   -0.2706    0.6890    0.1097 C   0  0  0  0  0  0  0  0  0  0  0  0
   -0.2358    1.9678   -0.1791 O   0  0  0  0  0  0  0  0  0  0  0  0
   -1.2406    0.1834    1.1902 C   0  0  0  0  0  0  0  0  0  0  0  0
    2.2775    0.8924   -0.8564 H   0  0  0  0  0  0  0  0  0  0  0  0
    2.8580   -0.6959   -0.2397 H   0  0  0  0  0  0  0  0  0  0  0  0
    1.6415   -0.6711   -1.5673 H   0  0  0  0  0  0  0  0  0  0  0  0
    1.4026    0.1748    1.3770 H   0  0  0  0  0  0  0  0  0  0  0  0
   -1.7016   -1.9119    0.5692 H   0  0  0  0  0  0  0  0  0  0  0  0
   -2.0719    0.0399   -0.9485 H   0  0  0  0  0  0  0  0  0  0  0  0
   -0.4764   -0.6730   -1.6401 H   0  0  0  0  0  0  0  0  0  0  0  0
   -0.4086    2.2685   -1.1057 H   0  0  0  0  0  0  0  0  0  0  0  0
   -2.2517    0.5551    1.0383 H   0  0  0  0  0  0  0  0  0  0  0  0
   -0.7841    0.2663    2.1763 H   0  0  0  0  0  0  0  0  0  0  0  0
  1  2  1  0
  2  3  1  0
  3  4  1  0
  4  5  1  0
  5  6  1  0
  6  7  1  0
  6  8  1  0
  6  2  1  0
  8  4  1  0
  1  9  1  0
  1 10  1  0
  1 11  1  0
  2 12  1  0
  4 13  1  0
  5 14  1  0
  5 15  1  0
  7 16  1  0
  8 17  1  0
  8 18  1  0
M  END
