
     RDKit          3D

 19 20  0  0  0  0  0  0  0  0999 V2000
    2.2257    0.1853    0.6509 C   0  0  0  0  0  0  0  0  0  0  0  0
    0.9841   -0.6169    0.2761 C   0  0  0  0  0  0  0  0  0  0  0  0
    0.1002   -0.5863    1.3661 O   0  0  0  0  0  0  0  0  0  0  0  0
   -0.6433    0.3989    0.7061 C   0  0  0  0  0  0  0  0  0  0  0  0
   -2.0493   -0.1150    0.4798 C   0  0  0  0  0  0  0  0  0  0  0  0
   -1.7942   -1.2476   -0.3148 O   0  0  0  0  0  0  0  0  0  0  0  0
   -0.9438   -0.7648   -1.3205 C   0  0  0  0  0  0  0  0  0  0  0  0
    0.0180    0.1337   -0.6027 C   0  0  0  0  0  0  0  0  0  0  0  0
    0.5194    1.1980   -1.2979 O   0  0  0  0  0  0  0  0  0  0  0  0
    1.8739    1.1257    1.1285 H   0  0  0  0  0  0  0  0  0  0  0  0
    2.8019   -0.4540    1.3602 H   0  0  0  0  0  0  0  0  0  0  0  0
    2.8389    0.4309   -0.2509 H   0  0  0  0  0  0  0  0  0  0  0  0
    1.1834   -1.6656   -0.0167 H   0  0  0  0  0  0  0  0  0  0  0  0
   -0.5464    1.3832    1.1503 H   0  0  0  0  0  0  0  0  0  0  0  0
   -2.4697   -0.3994    1.4540 H   0  0  0  0  0  0  0  0  0  0  0  0
   -2.6342    0.6474   -0.0577 H   0  0  0  0  0  0  0  0  0  0  0  0
   -0.3644   -1.5657   -1.8023 H   0  0  0  0  0  0  0  0  0  0  0  0
   -1.5249   -0.1593   -2.0360 H   0  0  0  0  0  0  0  0  0  0  0  0
    0.4245    2.0715   -0.8727 H   0  0  0  0  0  0  0  0  0  0  0  0
  1  2  1  0
  2  3  1  0
  3  4  1  0
  4  5  1  0
  5  6  1  0
  6  7  1  0
  7  8  1  0
  8  9  1  0
  8  2  1  0
  8  4  1  0
  1 10  1  0
  1 11  1  0
  1 12  1  0
  2 13  1  0
  4 14  1  0
  5 15  1  0
  5 16  1  0
  7 17  1  0
  7 18  1  0
  9 19  1  0
M  END
