
     RDKit          3D

 19 20  0  0  0  0  0  0  0  0999 V2000
   -3.2066    0.4094   -0.2514 C   0  0  0  0  0  0  0  0  0  0  0  0
   -1.7117    0.4097   -0.4810 C   0  0  0  0  0  0  0  0  0  0  0  0
   -1.2974   -0.3319   -1.5946 O   0  0  0  0  0  0  0  0  0  0  0  0
   -0.9879   -0.8334   -0.2477 C   0  0  0  0  0  0  0  0  0  0  0  0
    0.4709   -0.8853   -0.0190 C   0  0  0  0  0  0  0  0  0  0  0  0
    0.9560   -1.9320    0.3749 O   0  0  0  0  0  0  0  0  0  0  0  0
    1.3556    0.2781   -0.2493 C   0  0  0  0  0  0  0  0  0  0  0  0
    2.7299   -0.0247   -0.8110 C   0  0  0  0  0  0  0  0  0  0  0  0
    2.5736    0.3228    0.6180 C   0  0  0  0  0  0  0  0  0  0  0  0
   -3.6212   -0.5244   -0.6809 H   0  0  0  0  0  0  0  0  0  0  0  0
   -3.6949    1.3133   -0.6834 H   0  0  0  0  0  0  0  0  0  0  0  0
   -3.4428    0.3811    0.8459 H   0  0  0  0  0  0  0  0  0  0  0  0
   -1.2138    1.4027   -0.3303 H   0  0  0  0  0  0  0  0  0  0  0  0
   -1.5836   -1.7466   -0.0526 H   0  0  0  0  0  0  0  0  0  0  0  0
    0.9365    1.2239   -0.6025 H   0  0  0  0  0  0  0  0  0  0  0  0
    3.2132    0.7241   -1.4729 H   0  0  0  0  0  0  0  0  0  0  0  0
    2.8963   -1.0696   -1.1432 H   0  0  0  0  0  0  0  0  0  0  0  0
    2.9017    1.3406    0.9238 H   0  0  0  0  0  0  0  0  0  0  0  0
    2.7263   -0.4579    1.3999 H   0  0  0  0  0  0  0  0  0  0  0  0
  1  2  1  0
  2  3  1  0
  3  4  1  0
  4  5  1  0
  5  6  2  0
  5  7  1  0
  7  8  1  0
  8  9  1  0
  4  2  1  0
  9  7  1  0
  1 10  1  0
  1 11  1  0
  1 12  1  0
  2 13  1  0
  4 14  1  0
  7 15  1  0
  8 16  1  0
  8 17  1  0
  9 18  1  0
  9 19  1  0
M  END
