
     RDKit          3D

 21 22  0  0  0  0  0  0  0  0999 V2000
    2.0827   -1.0666    0.2570 C   0  0  0  0  0  0  0  0  0  0  0  0
    1.1343    0.0602    0.0883 C   0  0  0  0  0  0  0  0  0  0  0  0
    0.1960    0.1584    1.1429 O   0  0  0  0  0  0  0  0  0  0  0  0
   -0.9617   -0.2064    0.5242 C   0  0  0  0  0  0  0  0  0  0  0  0
   -0.9027   -1.7151    0.2158 C   0  0  0  0  0  0  0  0  0  0  0  0
   -1.9545    0.5037   -0.1770 C   0  0  0  0  0  0  0  0  0  0  0  0
   -0.6841    0.7490   -0.7143 C   0  0  0  0  0  0  0  0  0  0  0  0
   -0.1030    2.1346   -0.3389 C   0  0  0  0  0  0  0  0  0  0  0  0
    0.3661   -0.0420   -1.0980 O   0  0  0  0  0  0  0  0  0  0  0  0
    2.2558   -1.5790   -0.7340 H   0  0  0  0  0  0  0  0  0  0  0  0
    3.1112   -0.6965    0.5442 H   0  0  0  0  0  0  0  0  0  0  0  0
    1.8041   -1.7946    1.0390 H   0  0  0  0  0  0  0  0  0  0  0  0
    1.7137    0.9997   -0.0060 H   0  0  0  0  0  0  0  0  0  0  0  0
   -0.1191   -1.9405   -0.5255 H   0  0  0  0  0  0  0  0  0  0  0  0
   -0.7388   -2.1944    1.1885 H   0  0  0  0  0  0  0  0  0  0  0  0
   -1.8713   -2.0792   -0.1732 H   0  0  0  0  0  0  0  0  0  0  0  0
   -2.5178    1.2971    0.3649 H   0  0  0  0  0  0  0  0  0  0  0  0
   -2.6952   -0.0635   -0.8177 H   0  0  0  0  0  0  0  0  0  0  0  0
    0.6635    2.4495   -1.0435 H   0  0  0  0  0  0  0  0  0  0  0  0
    0.1773    2.1618    0.7152 H   0  0  0  0  0  0  0  0  0  0  0  0
   -0.9566    2.8638   -0.4519 H   0  0  0  0  0  0  0  0  0  0  0  0
  1  2  1  0
  2  3  1  0
  3  4  1  0
  4  5  1  0
  4  6  1  0
  6  7  1  0
  7  8  1  0
  7  9  1  0
  9  2  1  0
  7  4  1  0
  1 10  1  0
  1 11  1  0
  1 12  1  0
  2 13  1  0
  5 14  1  0
  5 15  1  0
  5 16  1  0
  6 17  1  0
  6 18  1  0
  8 19  1  0
  8 20  1  0
  8 21  1  0
M  END
