
     RDKit          3D

 19 20  0  0  0  0  0  0  0  0999 V2000
    2.4148    0.4063   -0.0816 C   0  0  0  0  0  0  0  0  0  0  0  0
    1.0080    0.0537   -0.5039 C   0  0  0  0  0  0  0  0  0  0  0  0
    0.3025    1.2235   -0.7832 O   0  0  0  0  0  0  0  0  0  0  0  0
   -0.5325    0.9902    0.3049 C   0  0  0  0  0  0  0  0  0  0  0  0
   -1.9239    0.6881   -0.1678 C   0  0  0  0  0  0  0  0  0  0  0  0
   -2.0306   -0.7937   -0.2630 C   0  0  0  0  0  0  0  0  0  0  0  0
   -0.9163   -1.3681    0.1516 C   0  0  0  0  0  0  0  0  0  0  0  0
    0.0792   -0.3589    0.5770 C   0  0  0  0  0  0  0  0  0  0  0  0
    0.6026   -0.5309    1.8424 O   0  0  0  0  0  0  0  0  0  0  0  0
    2.4393    1.3900    0.4688 H   0  0  0  0  0  0  0  0  0  0  0  0
    2.9171   -0.3819    0.4885 H   0  0  0  0  0  0  0  0  0  0  0  0
    3.0003    0.5805   -1.0107 H   0  0  0  0  0  0  0  0  0  0  0  0
    1.0336   -0.6678   -1.3286 H   0  0  0  0  0  0  0  0  0  0  0  0
   -0.4100    1.7569    1.0671 H   0  0  0  0  0  0  0  0  0  0  0  0
   -2.6875    1.0294    0.5630 H   0  0  0  0  0  0  0  0  0  0  0  0
   -2.0854    1.1226   -1.1571 H   0  0  0  0  0  0  0  0  0  0  0  0
   -2.9290   -1.2772   -0.6316 H   0  0  0  0  0  0  0  0  0  0  0  0
   -0.7505   -2.4230    0.1782 H   0  0  0  0  0  0  0  0  0  0  0  0
    0.4684   -1.4397    2.1943 H   0  0  0  0  0  0  0  0  0  0  0  0
  1  2  1  0
  2  3  1  0
  3  4  1  0
  4  5  1  0
  5  6  1  0
  6  7  2  0
  7  8  1  0
  8  9  1  0
  8  2  1  0
  8  4  1  0
  1 10  1  0
  1 11  1  0
  1 12  1  0
  2 13  1  0
  4 14  1  0
  5 15  1  0
  5 16  1  0
  6 17  1  0
  7 18  1  0
  9 19  1  0
M  END
