
     RDKit          3D

 17 18  0  0  0  0  0  0  0  0999 V2000
    2.2196   -0.3877   -0.5731 C   0  0  0  0  0  0  0  0  0  0  0  0
    1.0756    0.3533    0.1349 C   0  0  0  0  0  0  0  0  0  0  0  0
    0.3280    0.9450   -0.8465 O   0  0  0  0  0  0  0  0  0  0  0  0
   -1.0359    0.7394   -0.7259 C   0  0  0  0  0  0  0  0  0  0  0  0
   -1.3498   -0.7457   -0.4932 C   0  0  0  0  0  0  0  0  0  0  0  0
   -0.9517   -0.4198    0.9489 C   0  0  0  0  0  0  0  0  0  0  0  0
    0.4274   -0.4734    0.9980 O   0  0  0  0  0  0  0  0  0  0  0  0
   -1.4817    0.9291    0.6716 C   0  0  0  0  0  0  0  0  0  0  0  0
   -2.0288    1.7991    1.2870 O   0  0  0  0  0  0  0  0  0  0  0  0
    1.7618   -0.9540   -1.4266 H   0  0  0  0  0  0  0  0  0  0  0  0
    2.9661    0.3144   -0.9755 H   0  0  0  0  0  0  0  0  0  0  0  0
    2.6327   -1.1346    0.1160 H   0  0  0  0  0  0  0  0  0  0  0  0
    1.5991    1.1455    0.7457 H   0  0  0  0  0  0  0  0  0  0  0  0
   -1.6050    1.2180   -1.5106 H   0  0  0  0  0  0  0  0  0  0  0  0
   -2.4338   -0.8753   -0.5830 H   0  0  0  0  0  0  0  0  0  0  0  0
   -0.6901   -1.4447   -0.9862 H   0  0  0  0  0  0  0  0  0  0  0  0
   -1.4334   -1.0086    1.7158 H   0  0  0  0  0  0  0  0  0  0  0  0
  1  2  1  0
  2  3  1  0
  3  4  1  0
  4  5  1  0
  5  6  1  0
  6  7  1  0
  6  8  1  0
  8  9  2  0
  7  2  1  0
  8  4  1  0
  1 10  1  0
  1 11  1  0
  1 12  1  0
  2 13  1  0
  4 14  1  0
  5 15  1  0
  5 16  1  0
  6 17  1  0
M  END
