
     RDKit          3D

 19 20  0  0  0  0  0  0  0  0999 V2000
    2.5314    0.1909   -0.4619 C   0  0  0  0  0  0  0  0  0  0  0  0
    1.3472   -0.5775    0.0103 C   0  0  0  0  0  0  0  0  0  0  0  0
    0.5440   -1.1513   -0.9517 O   0  0  0  0  0  0  0  0  0  0  0  0
   -0.5190   -1.0451   -0.0217 C   0  0  0  0  0  0  0  0  0  0  0  0
   -1.8642   -0.8217   -0.6324 C   0  0  0  0  0  0  0  0  0  0  0  0
   -2.3165    0.4333   -0.2386 O   0  0  0  0  0  0  0  0  0  0  0  0
   -1.5202    1.4653   -0.6734 C   0  0  0  0  0  0  0  0  0  0  0  0
   -0.1588    1.2189   -0.5373 O   0  0  0  0  0  0  0  0  0  0  0  0
    0.1344    0.2724    0.4060 C   0  0  0  0  0  0  0  0  0  0  0  0
    3.1350   -0.4632   -1.1325 H   0  0  0  0  0  0  0  0  0  0  0  0
    2.2756    1.1590   -0.9539 H   0  0  0  0  0  0  0  0  0  0  0  0
    3.1518    0.4395    0.4364 H   0  0  0  0  0  0  0  0  0  0  0  0
    1.6261   -1.3289    0.7705 H   0  0  0  0  0  0  0  0  0  0  0  0
   -0.4291   -1.8222    0.7447 H   0  0  0  0  0  0  0  0  0  0  0  0
   -1.8849   -0.9822   -1.7143 H   0  0  0  0  0  0  0  0  0  0  0  0
   -2.5650   -1.5627   -0.1613 H   0  0  0  0  0  0  0  0  0  0  0  0
   -1.7705    2.3514   -0.0185 H   0  0  0  0  0  0  0  0  0  0  0  0
   -1.7709    1.7057   -1.7417 H   0  0  0  0  0  0  0  0  0  0  0  0
    0.0537    0.5186    1.4538 H   0  0  0  0  0  0  0  0  0  0  0  0
  1  2  1  0
  2  3  1  0
  3  4  1  0
  4  5  1  0
  5  6  1  0
  6  7  1  0
  7  8  1  0
  8  9  1  0
  9  2  1  0
  9  4  1  0
  1 10  1  0
  1 11  1  0
  1 12  1  0
  2 13  1  0
  4 14  1  0
  5 15  1  0
  5 16  1  0
  7 17  1  0
  7 18  1  0
  9 19  1  0
M  END
