
     RDKit          3D

 21 22  0  0  0  0  0  0  0  0999 V2000
    2.2955    1.1179   -0.0507 C   0  0  0  0  0  0  0  0  0  0  0  0
    1.3580   -0.0035   -0.4646 C   0  0  0  0  0  0  0  0  0  0  0  0
    1.6544   -1.2007    0.1674 O   0  0  0  0  0  0  0  0  0  0  0  0
    0.4688   -1.9266    0.1101 C   0  0  0  0  0  0  0  0  0  0  0  0
   -0.5848   -0.9219    0.4811 C   0  0  0  0  0  0  0  0  0  0  0  0
   -1.2426   -0.1077   -0.6206 C   0  0  0  0  0  0  0  0  0  0  0  0
   -2.5279    0.5518   -0.1991 C   0  0  0  0  0  0  0  0  0  0  0  0
   -0.0132    0.3866   -0.0007 C   0  0  0  0  0  0  0  0  0  0  0  0
   -0.1372    1.4192    0.9579 O   0  0  0  0  0  0  0  0  0  0  0  0
    2.2138    1.2478    1.0359 H   0  0  0  0  0  0  0  0  0  0  0  0
    3.3058    1.0083   -0.4401 H   0  0  0  0  0  0  0  0  0  0  0  0
    1.8686    2.0487   -0.5187 H   0  0  0  0  0  0  0  0  0  0  0  0
    1.3781   -0.0903   -1.5703 H   0  0  0  0  0  0  0  0  0  0  0  0
    0.4276   -2.7354    0.8823 H   0  0  0  0  0  0  0  0  0  0  0  0
    0.2438   -2.3249   -0.8838 H   0  0  0  0  0  0  0  0  0  0  0  0
   -1.0693   -0.9873    1.4626 H   0  0  0  0  0  0  0  0  0  0  0  0
   -1.2479   -0.5442   -1.6357 H   0  0  0  0  0  0  0  0  0  0  0  0
   -3.2545    0.6464   -1.0390 H   0  0  0  0  0  0  0  0  0  0  0  0
   -3.0193   -0.1037    0.5732 H   0  0  0  0  0  0  0  0  0  0  0  0
   -2.3064    1.5182    0.2817 H   0  0  0  0  0  0  0  0  0  0  0  0
    0.1887    1.0013    1.8093 H   0  0  0  0  0  0  0  0  0  0  0  0
  1  2  1  0
  2  3  1  0
  3  4  1  0
  4  5  1  0
  5  6  1  0
  6  7  1  0
  6  8  1  0
  8  9  1  0
  8  2  1  0
  8  5  1  0
  1 10  1  0
  1 11  1  0
  1 12  1  0
  2 13  1  0
  4 14  1  0
  4 15  1  0
  5 16  1  0
  6 17  1  0
  7 18  1  0
  7 19  1  0
  7 20  1  0
  9 21  1  0
M  END
