
     RDKit          3D

 23 24  0  0  0  0  0  0  0  0999 V2000
    2.1976   -0.2230   -1.0121 C   0  0  0  0  0  0  0  0  0  0  0  0
    1.9477    0.1779    0.3984 C   0  0  0  0  0  0  0  0  0  0  0  0
    2.0393    1.5892    0.5041 O   0  0  0  0  0  0  0  0  0  0  0  0
    0.7102    1.5750    0.0013 C   0  0  0  0  0  0  0  0  0  0  0  0
    0.5177    0.3551    0.8387 C   0  0  0  0  0  0  0  0  0  0  0  0
   -0.4754   -0.6632    0.4376 C   0  0  0  0  0  0  0  0  0  0  0  0
   -1.8493   -0.2825    1.0151 C   0  0  0  0  0  0  0  0  0  0  0  0
   -2.5083   -0.6460   -0.3111 C   0  0  0  0  0  0  0  0  0  0  0  0
   -1.1145   -0.5354   -0.9266 C   0  0  0  0  0  0  0  0  0  0  0  0
    2.8282    0.5320   -1.5570 H   0  0  0  0  0  0  0  0  0  0  0  0
    2.8351   -1.1469   -0.9911 H   0  0  0  0  0  0  0  0  0  0  0  0
    1.3203   -0.4687   -1.6103 H   0  0  0  0  0  0  0  0  0  0  0  0
    2.5318   -0.3415    1.1798 H   0  0  0  0  0  0  0  0  0  0  0  0
    0.7163    1.4051   -1.0843 H   0  0  0  0  0  0  0  0  0  0  0  0
    0.1694    2.4748    0.3444 H   0  0  0  0  0  0  0  0  0  0  0  0
    0.5123    0.5854    1.9277 H   0  0  0  0  0  0  0  0  0  0  0  0
   -0.2458   -1.7139    0.7282 H   0  0  0  0  0  0  0  0  0  0  0  0
   -1.9783    0.7911    1.1930 H   0  0  0  0  0  0  0  0  0  0  0  0
   -2.1651   -0.8861    1.8692 H   0  0  0  0  0  0  0  0  0  0  0  0
   -3.2211    0.1085   -0.6933 H   0  0  0  0  0  0  0  0  0  0  0  0
   -2.8847   -1.6916   -0.2695 H   0  0  0  0  0  0  0  0  0  0  0  0
   -0.8756   -1.4219   -1.5634 H   0  0  0  0  0  0  0  0  0  0  0  0
   -1.0078    0.4266   -1.4208 H   0  0  0  0  0  0  0  0  0  0  0  0
  1  2  1  0
  2  3  1  0
  3  4  1  0
  4  5  1  0
  5  6  1  0
  6  7  1  0
  7  8  1  0
  8  9  1  0
  5  2  1  0
  9  6  1  0
  1 10  1  0
  1 11  1  0
  1 12  1  0
  2 13  1  0
  4 14  1  0
  4 15  1  0
  5 16  1  0
  6 17  1  0
  7 18  1  0
  7 19  1  0
  8 20  1  0
  8 21  1  0
  9 22  1  0
  9 23  1  0
M  END
