
     RDKit          3D

 23 24  0  0  0  0  0  0  0  0999 V2000
   -1.2026   -1.2027    0.5483 C   0  0  0  0  0  0  0  0  0  0  0  0
   -0.8466   -0.5607   -0.7432 C   0  0  0  0  0  0  0  0  0  0  0  0
   -1.9836    0.2126   -1.0957 O   0  0  0  0  0  0  0  0  0  0  0  0
   -1.9389    1.3517   -0.3332 C   0  0  0  0  0  0  0  0  0  0  0  0
   -0.5118    1.5520    0.1367 C   0  0  0  0  0  0  0  0  0  0  0  0
    0.1815    0.5039   -0.7015 C   0  0  0  0  0  0  0  0  0  0  0  0
    1.5428    0.1643   -0.3107 C   0  0  0  0  0  0  0  0  0  0  0  0
    1.9004   -0.4262    1.0161 C   0  0  0  0  0  0  0  0  0  0  0  0
    2.0705   -1.2272   -0.2048 C   0  0  0  0  0  0  0  0  0  0  0  0
   -0.6061   -2.0591    0.8464 H   0  0  0  0  0  0  0  0  0  0  0  0
   -1.2786   -0.4903    1.3991 H   0  0  0  0  0  0  0  0  0  0  0  0
   -2.2574   -1.5985    0.4265 H   0  0  0  0  0  0  0  0  0  0  0  0
   -0.7158   -1.3217   -1.5078 H   0  0  0  0  0  0  0  0  0  0  0  0
   -2.1630    2.2131   -1.0273 H   0  0  0  0  0  0  0  0  0  0  0  0
   -2.6688    1.3768    0.4965 H   0  0  0  0  0  0  0  0  0  0  0  0
   -0.1404    2.5827   -0.1028 H   0  0  0  0  0  0  0  0  0  0  0  0
   -0.3776    1.3296    1.2099 H   0  0  0  0  0  0  0  0  0  0  0  0
    0.2116    0.9466   -1.7432 H   0  0  0  0  0  0  0  0  0  0  0  0
    2.3312    0.8884   -0.6849 H   0  0  0  0  0  0  0  0  0  0  0  0
    2.8265   -0.0641    1.5560 H   0  0  0  0  0  0  0  0  0  0  0  0
    1.0894   -0.6264    1.7566 H   0  0  0  0  0  0  0  0  0  0  0  0
    3.1296   -1.4535   -0.4822 H   0  0  0  0  0  0  0  0  0  0  0  0
    1.4076   -2.0912   -0.4550 H   0  0  0  0  0  0  0  0  0  0  0  0
  1  2  1  0
  2  3  1  0
  3  4  1  0
  4  5  1  0
  5  6  1  0
  6  7  1  0
  7  8  1  0
  8  9  1  0
  6  2  1  0
  9  7  1  0
  1 10  1  0
  1 11  1  0
  1 12  1  0
  2 13  1  0
  4 14  1  0
  4 15  1  0
  5 16  1  0
  5 17  1  0
  6 18  1  0
  7 19  1  0
  8 20  1  0
  8 21  1  0
  9 22  1  0
  9 23  1  0
M  END
