
     RDKit          3D

 17 19  0  0  0  0  0  0  0  0999 V2000
    2.3910    0.0940   -0.3935 C   0  0  0  0  0  0  0  0  0  0  0  0
    1.2781   -0.1101    0.6366 C   0  0  0  0  0  0  0  0  0  0  0  0
    0.6144   -1.4528    0.4632 O   0  0  0  0  0  0  0  0  0  0  0  0
   -0.0060   -0.2566    0.3141 C   0  0  0  0  0  0  0  0  0  0  0  0
   -1.3126    0.0875    0.9381 C   0  0  0  0  0  0  0  0  0  0  0  0
   -1.9498   -0.6838   -0.1862 C   0  0  0  0  0  0  0  0  0  0  0  0
   -0.8494    0.1270   -0.8371 C   0  0  0  0  0  0  0  0  0  0  0  0
   -1.3433    1.2342    0.0234 C   0  0  0  0  0  0  0  0  0  0  0  0
   -1.5705    2.3878   -0.1596 O   0  0  0  0  0  0  0  0  0  0  0  0
    3.2813    0.5662    0.0595 H   0  0  0  0  0  0  0  0  0  0  0  0
    2.7063   -0.8915   -0.7948 H   0  0  0  0  0  0  0  0  0  0  0  0
    2.0543    0.7765   -1.2042 H   0  0  0  0  0  0  0  0  0  0  0  0
    1.6784   -0.0777    1.6809 H   0  0  0  0  0  0  0  0  0  0  0  0
   -1.5706    0.0587    1.9059 H   0  0  0  0  0  0  0  0  0  0  0  0
   -1.8287   -1.7611   -0.1839 H   0  0  0  0  0  0  0  0  0  0  0  0
   -2.9305   -0.2711   -0.4483 H   0  0  0  0  0  0  0  0  0  0  0  0
   -0.6424    0.1728   -1.8141 H   0  0  0  0  0  0  0  0  0  0  0  0
  1  2  1  0
  2  3  1  0
  3  4  1  0
  4  5  1  0
  5  6  1  0
  6  7  1  0
  7  8  1  0
  8  9  2  0
  4  2  1  0
  8  5  1  0
  7  4  1  0
  1 10  1  0
  1 11  1  0
  1 12  1  0
  2 13  1  0
  5 14  1  0
  6 15  1  0
  6 16  1  0
  7 17  1  0
M  END
