
     RDKit          3D

 21 22  0  0  0  0  0  0  0  0999 V2000
    2.3649   -0.0014    0.3274 C   0  0  0  0  0  0  0  0  0  0  0  0
    0.9584   -0.5235    0.4647 C   0  0  0  0  0  0  0  0  0  0  0  0
    0.3114    0.0591    1.5332 O   0  0  0  0  0  0  0  0  0  0  0  0
   -0.9238    0.5232    1.0859 C   0  0  0  0  0  0  0  0  0  0  0  0
   -1.7733   -0.6425    0.6387 C   0  0  0  0  0  0  0  0  0  0  0  0
   -1.1060   -1.1322   -0.6579 C   0  0  0  0  0  0  0  0  0  0  0  0
    0.1107   -0.2386   -0.7496 C   0  0  0  0  0  0  0  0  0  0  0  0
   -0.5223    1.0862   -0.2895 C   0  0  0  0  0  0  0  0  0  0  0  0
    0.3885    2.0960   -0.1945 O   0  0  0  0  0  0  0  0  0  0  0  0
    2.9697   -0.4357    1.1450 H   0  0  0  0  0  0  0  0  0  0  0  0
    2.8248   -0.3189   -0.6179 H   0  0  0  0  0  0  0  0  0  0  0  0
    2.4386    1.0963    0.4066 H   0  0  0  0  0  0  0  0  0  0  0  0
    1.0104   -1.6200    0.5896 H   0  0  0  0  0  0  0  0  0  0  0  0
   -1.3982    1.2382    1.7212 H   0  0  0  0  0  0  0  0  0  0  0  0
   -1.8622   -1.4392    1.3773 H   0  0  0  0  0  0  0  0  0  0  0  0
   -2.7797   -0.2340    0.3288 H   0  0  0  0  0  0  0  0  0  0  0  0
   -1.7365   -0.9670   -1.5310 H   0  0  0  0  0  0  0  0  0  0  0  0
   -0.7832   -2.1701   -0.4949 H   0  0  0  0  0  0  0  0  0  0  0  0
    0.6042   -0.1926   -1.6880 H   0  0  0  0  0  0  0  0  0  0  0  0
   -1.3850    1.2613   -0.9221 H   0  0  0  0  0  0  0  0  0  0  0  0
    0.2887    2.5553    0.6947 H   0  0  0  0  0  0  0  0  0  0  0  0
  1  2  1  0
  2  3  1  0
  3  4  1  0
  4  5  1  0
  5  6  1  0
  6  7  1  0
  7  8  1  0
  8  9  1  0
  7  2  1  0
  8  4  1  0
  1 10  1  0
  1 11  1  0
  1 12  1  0
  2 13  1  0
  4 14  1  0
  5 15  1  0
  5 16  1  0
  6 17  1  0
  6 18  1  0
  7 19  1  0
  8 20  1  0
  9 21  1  0
M  END
