
     RDKit          3D

 17 19  0  0  0  0  0  0  0  0999 V2000
    1.9615    0.3788   -0.0899 C   0  0  0  0  0  0  0  0  0  0  0  0
    0.7581   -0.2190    0.6525 C   0  0  0  0  0  0  0  0  0  0  0  0
    0.5012   -1.4342   -0.0269 O   0  0  0  0  0  0  0  0  0  0  0  0
   -0.6705   -1.2091   -0.6927 C   0  0  0  0  0  0  0  0  0  0  0  0
   -1.5572   -0.5290    0.2759 C   0  0  0  0  0  0  0  0  0  0  0  0
   -2.0867    0.1844   -0.7906 O   0  0  0  0  0  0  0  0  0  0  0  0
   -0.7360    0.2509   -1.0679 C   0  0  0  0  0  0  0  0  0  0  0  0
   -0.4930    0.5251    0.3572 C   0  0  0  0  0  0  0  0  0  0  0  0
   -0.7544    1.7030    0.9182 O   0  0  0  0  0  0  0  0  0  0  0  0
    1.7032    0.3138   -1.1817 H   0  0  0  0  0  0  0  0  0  0  0  0
    2.1839    1.3906    0.2443 H   0  0  0  0  0  0  0  0  0  0  0  0
    2.7856   -0.3507    0.0601 H   0  0  0  0  0  0  0  0  0  0  0  0
    0.9596   -0.3674    1.7114 H   0  0  0  0  0  0  0  0  0  0  0  0
   -1.0507   -1.9323   -1.3800 H   0  0  0  0  0  0  0  0  0  0  0  0
   -2.0717   -0.9233    1.0495 H   0  0  0  0  0  0  0  0  0  0  0  0
   -0.3018    0.6622   -1.8831 H   0  0  0  0  0  0  0  0  0  0  0  0
   -1.1311    1.5562    1.8438 H   0  0  0  0  0  0  0  0  0  0  0  0
  1  2  1  0
  2  3  1  0
  3  4  1  0
  4  5  1  0
  5  6  1  0
  6  7  1  0
  7  8  1  0
  8  9  1  0
  8  2  1  0
  7  4  1  0
  8  5  1  0
  1 10  1  0
  1 11  1  0
  1 12  1  0
  2 13  1  0
  4 14  1  0
  5 15  1  0
  7 16  1  0
  9 17  1  0
M  END
