
     RDKit          3D

 21 22  0  0  0  0  0  0  0  0999 V2000
    3.1853   -0.1707    0.0970 C   0  0  0  0  0  0  0  0  0  0  0  0
    1.7205   -0.4482    0.1324 C   0  0  0  0  0  0  0  0  0  0  0  0
    1.1752    0.0088    1.4388 O   0  0  0  0  0  0  0  0  0  0  0  0
    0.6995    0.5314    0.1069 C   0  0  0  0  0  0  0  0  0  0  0  0
   -0.7298    0.1700   -0.0924 C   0  0  0  0  0  0  0  0  0  0  0  0
   -1.6992    1.3600   -0.0921 C   0  0  0  0  0  0  0  0  0  0  0  0
   -3.0075    0.9378   -0.2830 O   0  0  0  0  0  0  0  0  0  0  0  0
   -1.3046   -1.0364    0.6393 C   0  0  0  0  0  0  0  0  0  0  0  0
   -1.1695   -0.9938   -0.8639 C   0  0  0  0  0  0  0  0  0  0  0  0
    3.5535    0.1314   -0.9091 H   0  0  0  0  0  0  0  0  0  0  0  0
    3.5130    0.6319    0.7910 H   0  0  0  0  0  0  0  0  0  0  0  0
    3.7365   -1.0859    0.4170 H   0  0  0  0  0  0  0  0  0  0  0  0
    1.4567   -1.5243   -0.0676 H   0  0  0  0  0  0  0  0  0  0  0  0
    0.9694    1.6142    0.1204 H   0  0  0  0  0  0  0  0  0  0  0  0
   -1.6340    1.9031    0.8653 H   0  0  0  0  0  0  0  0  0  0  0  0
   -1.4185    2.0822   -0.8892 H   0  0  0  0  0  0  0  0  0  0  0  0
   -3.5944    1.1459    0.4809 H   0  0  0  0  0  0  0  0  0  0  0  0
   -0.5454   -1.5652    1.2468 H   0  0  0  0  0  0  0  0  0  0  0  0
   -2.2849   -0.9699    1.1153 H   0  0  0  0  0  0  0  0  0  0  0  0
   -2.1474   -0.9669   -1.3947 H   0  0  0  0  0  0  0  0  0  0  0  0
   -0.4743   -1.7554   -1.2766 H   0  0  0  0  0  0  0  0  0  0  0  0
  1  2  1  0
  2  3  1  0
  3  4  1  0
  4  5  1  0
  5  6  1  0
  6  7  1  0
  5  8  1  0
  8  9  1  0
  4  2  1  0
  9  5  1  0
  1 10  1  0
  1 11  1  0
  1 12  1  0
  2 13  1  0
  4 14  1  0
  6 15  1  0
  6 16  1  0
  7 17  1  0
  8 18  1  0
  8 19  1  0
  9 20  1  0
  9 21  1  0
M  END
