
     RDKit          3D

 21 22  0  0  0  0  0  0  0  0999 V2000
    2.6170    0.8134   -0.0206 C   0  0  0  0  0  0  0  0  0  0  0  0
    1.1350    1.0588   -0.1447 C   0  0  0  0  0  0  0  0  0  0  0  0
    0.4216    0.8876    1.1441 O   0  0  0  0  0  0  0  0  0  0  0  0
    0.2373   -0.0492    0.0028 C   0  0  0  0  0  0  0  0  0  0  0  0
    0.8467   -1.4004    0.3117 C   0  0  0  0  0  0  0  0  0  0  0  0
   -1.2003   -0.0455   -0.3947 C   0  0  0  0  0  0  0  0  0  0  0  0
   -2.0559    1.1733   -0.1074 C   0  0  0  0  0  0  0  0  0  0  0  0
   -1.9309   -1.3523   -0.1872 C   0  0  0  0  0  0  0  0  0  0  0  0
   -1.5772   -0.8663   -1.4503 O   0  0  0  0  0  0  0  0  0  0  0  0
    3.0125    0.1442   -0.8134 H   0  0  0  0  0  0  0  0  0  0  0  0
    2.8789    0.3227    0.9623 H   0  0  0  0  0  0  0  0  0  0  0  0
    3.1838    1.7897    0.0124 H   0  0  0  0  0  0  0  0  0  0  0  0
    0.8738    2.0452   -0.5610 H   0  0  0  0  0  0  0  0  0  0  0  0
    0.5226   -1.7729    1.3180 H   0  0  0  0  0  0  0  0  0  0  0  0
    1.9708   -1.3687    0.2718 H   0  0  0  0  0  0  0  0  0  0  0  0
    0.4938   -2.1572   -0.4174 H   0  0  0  0  0  0  0  0  0  0  0  0
   -3.0916    0.9193   -0.4755 H   0  0  0  0  0  0  0  0  0  0  0  0
   -2.1624    1.3288    0.9861 H   0  0  0  0  0  0  0  0  0  0  0  0
   -1.6930    2.0737   -0.6372 H   0  0  0  0  0  0  0  0  0  0  0  0
   -3.0500   -1.3235   -0.0406 H   0  0  0  0  0  0  0  0  0  0  0  0
   -1.4327   -2.2203    0.2410 H   0  0  0  0  0  0  0  0  0  0  0  0
  1  2  1  0
  2  3  1  0
  3  4  1  0
  4  5  1  0
  4  6  1  0
  6  7  1  0
  6  8  1  0
  8  9  1  0
  4  2  1  0
  9  6  1  0
  1 10  1  0
  1 11  1  0
  1 12  1  0
  2 13  1  0
  5 14  1  0
  5 15  1  0
  5 16  1  0
  7 17  1  0
  7 18  1  0
  7 19  1  0
  8 20  1  0
  8 21  1  0
M  END
