
     RDKit          3D

 19 21  0  0  0  0  0  0  0  0999 V2000
    2.4787   -0.1773   -0.5055 C   0  0  0  0  0  0  0  0  0  0  0  0
    1.1964   -0.3543    0.2688 C   0  0  0  0  0  0  0  0  0  0  0  0
    0.7085    0.8746    0.6910 O   0  0  0  0  0  0  0  0  0  0  0  0
   -0.0468    0.9664   -0.4901 C   0  0  0  0  0  0  0  0  0  0  0  0
   -0.0023   -0.5256   -0.6198 C   0  0  0  0  0  0  0  0  0  0  0  0
   -1.2035   -1.0799    0.0828 C   0  0  0  0  0  0  0  0  0  0  0  0
   -2.0536    0.1406    0.4042 C   0  0  0  0  0  0  0  0  0  0  0  0
   -2.5076    0.7151   -0.8996 O   0  0  0  0  0  0  0  0  0  0  0  0
   -1.4819    1.2700   -0.1510 C   0  0  0  0  0  0  0  0  0  0  0  0
    2.4181    0.7999   -1.0373 H   0  0  0  0  0  0  0  0  0  0  0  0
    2.6725   -1.0096   -1.2161 H   0  0  0  0  0  0  0  0  0  0  0  0
    3.2952   -0.0722    0.2460 H   0  0  0  0  0  0  0  0  0  0  0  0
    1.2141   -1.1552    1.0408 H   0  0  0  0  0  0  0  0  0  0  0  0
    0.4027    1.5570   -1.2937 H   0  0  0  0  0  0  0  0  0  0  0  0
    0.2269   -0.9336   -1.6157 H   0  0  0  0  0  0  0  0  0  0  0  0
   -1.8102   -1.7521   -0.5492 H   0  0  0  0  0  0  0  0  0  0  0  0
   -0.9023   -1.5975    0.9917 H   0  0  0  0  0  0  0  0  0  0  0  0
   -2.9358    0.0294    1.0394 H   0  0  0  0  0  0  0  0  0  0  0  0
   -1.6690    2.3045    0.1663 H   0  0  0  0  0  0  0  0  0  0  0  0
  1  2  1  0
  2  3  1  0
  3  4  1  0
  4  5  1  0
  5  6  1  0
  6  7  1  0
  7  8  1  0
  8  9  1  0
  5  2  1  0
  9  7  1  0
  9  4  1  0
  1 10  1  0
  1 11  1  0
  1 12  1  0
  2 13  1  0
  4 14  1  0
  5 15  1  0
  6 16  1  0
  6 17  1  0
  7 18  1  0
  9 19  1  0
M  END
