
     RDKit          3D

 19 19  0  0  0  0  0  0  0  0999 V2000
   -1.9899    0.9696   -0.5069 C   0  0  0  0  0  0  0  0  0  0  0  0
   -1.3527   -0.1677    0.1955 C   0  0  0  0  0  0  0  0  0  0  0  0
   -0.5636    0.3666    1.3607 O   0  0  0  0  0  0  0  0  0  0  0  0
   -0.0006   -0.4860    0.3379 C   0  0  0  0  0  0  0  0  0  0  0  0
    0.3474   -1.8461    0.9745 C   0  0  0  0  0  0  0  0  0  0  0  0
    1.2188    0.1475   -0.2389 C   0  0  0  0  0  0  0  0  0  0  0  0
    1.8050   -0.6153   -1.2457 O   0  0  0  0  0  0  0  0  0  0  0  0
    1.1067    1.5620   -0.6146 C   0  0  0  0  0  0  0  0  0  0  0  0
    0.6433    2.3655    0.1528 O   0  0  0  0  0  0  0  0  0  0  0  0
   -1.4142    1.3847   -1.3516 H   0  0  0  0  0  0  0  0  0  0  0  0
   -2.9599    0.6121   -0.9675 H   0  0  0  0  0  0  0  0  0  0  0  0
   -2.3040    1.7261    0.2261 H   0  0  0  0  0  0  0  0  0  0  0  0
   -2.1165   -0.9080    0.5842 H   0  0  0  0  0  0  0  0  0  0  0  0
    0.8395   -2.4458    0.1565 H   0  0  0  0  0  0  0  0  0  0  0  0
   -0.5683   -2.3418    1.3348 H   0  0  0  0  0  0  0  0  0  0  0  0
    1.0977   -1.6425    1.7386 H   0  0  0  0  0  0  0  0  0  0  0  0
    1.9846    0.1289    0.6001 H   0  0  0  0  0  0  0  0  0  0  0  0
    2.7864   -0.6904   -1.1573 H   0  0  0  0  0  0  0  0  0  0  0  0
    1.4401    1.8807   -1.5790 H   0  0  0  0  0  0  0  0  0  0  0  0
  1  2  1  0
  2  3  1  0
  3  4  1  0
  4  5  1  0
  4  6  1  0
  6  7  1  0
  6  8  1  0
  8  9  2  0
  4  2  1  0
  1 10  1  0
  1 11  1  0
  1 12  1  0
  2 13  1  0
  5 14  1  0
  5 15  1  0
  5 16  1  0
  6 17  1  0
  7 18  1  0
  8 19  1  0
M  END
