
     RDKit          3D

 19 20  0  0  0  0  0  0  0  0999 V2000
    3.0779    0.3833    0.1355 C   0  0  0  0  0  0  0  0  0  0  0  0
    1.7673   -0.3326    0.2073 C   0  0  0  0  0  0  0  0  0  0  0  0
    0.7719    0.3273    0.9663 O   0  0  0  0  0  0  0  0  0  0  0  0
   -0.1465   -0.2591    0.1097 C   0  0  0  0  0  0  0  0  0  0  0  0
   -1.4043    0.5256   -0.1335 C   0  0  0  0  0  0  0  0  0  0  0  0
   -2.3747   -0.1646   -1.0799 C   0  0  0  0  0  0  0  0  0  0  0  0
   -2.7099    0.0689    0.3747 C   0  0  0  0  0  0  0  0  0  0  0  0
    0.8722   -0.1995   -0.9509 C   0  0  0  0  0  0  0  0  0  0  0  0
    0.9450   -0.0973   -2.1296 O   0  0  0  0  0  0  0  0  0  0  0  0
    3.1136    1.1578    0.9451 H   0  0  0  0  0  0  0  0  0  0  0  0
    3.8919   -0.3750    0.3158 H   0  0  0  0  0  0  0  0  0  0  0  0
    3.2955    0.8150   -0.8643 H   0  0  0  0  0  0  0  0  0  0  0  0
    1.8506   -1.4237    0.4836 H   0  0  0  0  0  0  0  0  0  0  0  0
   -0.3701   -1.2941    0.4904 H   0  0  0  0  0  0  0  0  0  0  0  0
   -1.2802    1.6162   -0.2700 H   0  0  0  0  0  0  0  0  0  0  0  0
   -2.1966   -1.2325   -1.3369 H   0  0  0  0  0  0  0  0  0  0  0  0
   -2.8959    0.4621   -1.8468 H   0  0  0  0  0  0  0  0  0  0  0  0
   -3.4995    0.8175    0.6158 H   0  0  0  0  0  0  0  0  0  0  0  0
   -2.7082   -0.7954    1.0681 H   0  0  0  0  0  0  0  0  0  0  0  0
  1  2  1  0
  2  3  1  0
  3  4  1  0
  4  5  1  0
  5  6  1  0
  6  7  1  0
  4  8  1  0
  8  9  2  0
  8  2  1  0
  7  5  1  0
  1 10  1  0
  1 11  1  0
  1 12  1  0
  2 13  1  0
  4 14  1  0
  5 15  1  0
  6 16  1  0
  6 17  1  0
  7 18  1  0
  7 19  1  0
M  END
