
     RDKit          3D

 25 25  0  0  0  0  0  0  0  0999 V2000
    2.9019    0.2308   -0.5544 C   0  0  0  0  0  0  0  0  0  0  0  0
    1.4911    0.6973   -0.3983 C   0  0  0  0  0  0  0  0  0  0  0  0
    1.1821    0.7238    1.0775 O   0  0  0  0  0  0  0  0  0  0  0  0
    0.4828   -0.1589    0.1099 C   0  0  0  0  0  0  0  0  0  0  0  0
    0.8113   -1.6183    0.3480 C   0  0  0  0  0  0  0  0  0  0  0  0
   -0.9696    0.1515    0.0710 C   0  0  0  0  0  0  0  0  0  0  0  0
   -1.4709    0.3393   -1.3684 C   0  0  0  0  0  0  0  0  0  0  0  0
   -1.3031    1.4355    0.7961 C   0  0  0  0  0  0  0  0  0  0  0  0
   -1.8208   -0.9400    0.7251 C   0  0  0  0  0  0  0  0  0  0  0  0
    3.5772    1.1352   -0.5823 H   0  0  0  0  0  0  0  0  0  0  0  0
    3.0760   -0.3144   -1.5042 H   0  0  0  0  0  0  0  0  0  0  0  0
    3.2730   -0.3951    0.2757 H   0  0  0  0  0  0  0  0  0  0  0  0
    1.2818    1.7016   -0.8416 H   0  0  0  0  0  0  0  0  0  0  0  0
    1.8320   -1.7715    0.7399 H   0  0  0  0  0  0  0  0  0  0  0  0
    0.1222   -2.0846    1.0934 H   0  0  0  0  0  0  0  0  0  0  0  0
    0.6323   -2.1393   -0.6205 H   0  0  0  0  0  0  0  0  0  0  0  0
   -2.5635    0.5691   -1.2559 H   0  0  0  0  0  0  0  0  0  0  0  0
   -0.9719    1.2566   -1.7402 H   0  0  0  0  0  0  0  0  0  0  0  0
   -1.2781   -0.5516   -1.9642 H   0  0  0  0  0  0  0  0  0  0  0  0
   -2.2844    1.7783    0.4052 H   0  0  0  0  0  0  0  0  0  0  0  0
   -1.4096    1.2488    1.9052 H   0  0  0  0  0  0  0  0  0  0  0  0
   -0.4935    2.1675    0.5938 H   0  0  0  0  0  0  0  0  0  0  0  0
   -1.7058   -1.8825    0.1774 H   0  0  0  0  0  0  0  0  0  0  0  0
   -1.5266   -1.0121    1.7918 H   0  0  0  0  0  0  0  0  0  0  0  0
   -2.8659   -0.5669    0.7201 H   0  0  0  0  0  0  0  0  0  0  0  0
  1  2  1  0
  2  3  1  0
  3  4  1  0
  4  5  1  0
  4  6  1  0
  6  7  1  0
  6  8  1  0
  6  9  1  0
  4  2  1  0
  1 10  1  0
  1 11  1  0
  1 12  1  0
  2 13  1  0
  5 14  1  0
  5 15  1  0
  5 16  1  0
  7 17  1  0
  7 18  1  0
  7 19  1  0
  8 20  1  0
  8 21  1  0
  8 22  1  0
  9 23  1  0
  9 24  1  0
  9 25  1  0
M  END
