
     RDKit          3D

 19 20  0  0  0  0  0  0  0  0999 V2000
   -2.4502    0.3300    0.1712 C   0  0  0  0  0  0  0  0  0  0  0  0
   -1.3549   -0.6645   -0.2160 C   0  0  0  0  0  0  0  0  0  0  0  0
   -0.8624   -0.3624   -1.5392 O   0  0  0  0  0  0  0  0  0  0  0  0
   -0.0559   -0.1846   -0.4457 C   0  0  0  0  0  0  0  0  0  0  0  0
    0.3214    1.2097    0.0150 C   0  0  0  0  0  0  0  0  0  0  0  0
    1.7564    1.1468    0.3723 C   0  0  0  0  0  0  0  0  0  0  0  0
    2.2460   -0.0649    0.1397 C   0  0  0  0  0  0  0  0  0  0  0  0
    1.2223   -0.9694   -0.3978 C   0  0  0  0  0  0  0  0  0  0  0  0
    1.1227   -2.1769    0.2443 O   0  0  0  0  0  0  0  0  0  0  0  0
   -3.3430    0.0389   -0.4469 H   0  0  0  0  0  0  0  0  0  0  0  0
   -2.1366    1.3546   -0.1257 H   0  0  0  0  0  0  0  0  0  0  0  0
   -2.6462    0.3461    1.2406 H   0  0  0  0  0  0  0  0  0  0  0  0
   -1.5730   -1.7172   -0.0150 H   0  0  0  0  0  0  0  0  0  0  0  0
   -0.3049    1.4133    0.9177 H   0  0  0  0  0  0  0  0  0  0  0  0
    0.0829    1.9749   -0.7278 H   0  0  0  0  0  0  0  0  0  0  0  0
    2.3159    1.9834    0.7680 H   0  0  0  0  0  0  0  0  0  0  0  0
    3.2764   -0.3337    0.3297 H   0  0  0  0  0  0  0  0  0  0  0  0
    1.5055   -1.1892   -1.4666 H   0  0  0  0  0  0  0  0  0  0  0  0
    0.8775   -2.1349    1.1822 H   0  0  0  0  0  0  0  0  0  0  0  0
  1  2  1  0
  2  3  1  0
  3  4  1  0
  4  5  1  0
  5  6  1  0
  6  7  2  0
  7  8  1  0
  8  9  1  0
  4  2  1  0
  8  4  1  0
  1 10  1  0
  1 11  1  0
  1 12  1  0
  2 13  1  0
  5 14  1  0
  5 15  1  0
  6 16  1  0
  7 17  1  0
  8 18  1  0
  9 19  1  0
M  END
