
     RDKit          3D

 19 20  0  0  0  0  0  0  0  0999 V2000
    2.6188   -0.5126   -0.0186 C   0  0  0  0  0  0  0  0  0  0  0  0
    1.1025   -0.6546   -0.0256 C   0  0  0  0  0  0  0  0  0  0  0  0
    0.6021   -0.0297    1.2413 O   0  0  0  0  0  0  0  0  0  0  0  0
    0.2195    0.3667   -0.0098 C   0  0  0  0  0  0  0  0  0  0  0  0
    0.1891    1.7528   -0.4730 C   0  0  0  0  0  0  0  0  0  0  0  0
   -1.2249    1.6971   -0.4634 O   0  0  0  0  0  0  0  0  0  0  0  0
   -1.2049    0.3048   -0.4603 C   0  0  0  0  0  0  0  0  0  0  0  0
   -2.1072   -0.3256    0.5867 C   0  0  0  0  0  0  0  0  0  0  0  0
   -2.0573   -1.7006    0.5552 O   0  0  0  0  0  0  0  0  0  0  0  0
    2.9483    0.5031   -0.2729 H   0  0  0  0  0  0  0  0  0  0  0  0
    2.9906   -0.7723    1.0116 H   0  0  0  0  0  0  0  0  0  0  0  0
    3.0610   -1.2884   -0.6903 H   0  0  0  0  0  0  0  0  0  0  0  0
    0.7966   -1.7300   -0.0535 H   0  0  0  0  0  0  0  0  0  0  0  0
    0.5128    1.9920   -1.5034 H   0  0  0  0  0  0  0  0  0  0  0  0
    0.5134    2.5480    0.2289 H   0  0  0  0  0  0  0  0  0  0  0  0
   -1.3277   -0.0908   -1.4663 H   0  0  0  0  0  0  0  0  0  0  0  0
   -1.8440    0.0673    1.5844 H   0  0  0  0  0  0  0  0  0  0  0  0
   -3.1663   -0.0300    0.3794 H   0  0  0  0  0  0  0  0  0  0  0  0
   -2.6224   -2.0971   -0.1501 H   0  0  0  0  0  0  0  0  0  0  0  0
  1  2  1  0
  2  3  1  0
  3  4  1  0
  4  5  1  0
  5  6  1  0
  6  7  1  0
  7  8  1  0
  8  9  1  0
  4  2  1  0
  7  4  1  0
  1 10  1  0
  1 11  1  0
  1 12  1  0
  2 13  1  0
  5 14  1  0
  5 15  1  0
  7 16  1  0
  8 17  1  0
  8 18  1  0
  9 19  1  0
M  END
