
     RDKit          3D

 19 20  0  0  0  0  0  0  0  0999 V2000
    2.2226   -0.8660    0.0719 C   0  0  0  0  0  0  0  0  0  0  0  0
    1.1841    0.1144   -0.3728 C   0  0  0  0  0  0  0  0  0  0  0  0
    0.1478   -0.5171   -1.1080 O   0  0  0  0  0  0  0  0  0  0  0  0
   -0.9708   -0.0873   -0.4596 C   0  0  0  0  0  0  0  0  0  0  0  0
   -2.2756   -0.4358   -0.9216 C   0  0  0  0  0  0  0  0  0  0  0  0
   -3.3267   -0.0994   -0.4089 O   0  0  0  0  0  0  0  0  0  0  0  0
   -0.6376   -0.3534    1.0128 C   0  0  0  0  0  0  0  0  0  0  0  0
    0.4032    0.7357    0.7258 C   0  0  0  0  0  0  0  0  0  0  0  0
   -0.7145    1.3871   -0.1011 C   0  0  0  0  0  0  0  0  0  0  0  0
    1.9393   -1.9011   -0.2779 H   0  0  0  0  0  0  0  0  0  0  0  0
    2.3430   -0.8830    1.1815 H   0  0  0  0  0  0  0  0  0  0  0  0
    3.1699   -0.6013   -0.4456 H   0  0  0  0  0  0  0  0  0  0  0  0
    1.5733    0.9137   -1.0367 H   0  0  0  0  0  0  0  0  0  0  0  0
   -2.3756   -1.0659   -1.8219 H   0  0  0  0  0  0  0  0  0  0  0  0
   -1.4347   -0.0239    1.7121 H   0  0  0  0  0  0  0  0  0  0  0  0
   -0.2263   -1.3403    1.2159 H   0  0  0  0  0  0  0  0  0  0  0  0
    0.8249    1.2657    1.5204 H   0  0  0  0  0  0  0  0  0  0  0  0
   -1.5249    1.8164    0.4729 H   0  0  0  0  0  0  0  0  0  0  0  0
   -0.3215    1.9415   -0.9594 H   0  0  0  0  0  0  0  0  0  0  0  0
  1  2  1  0
  2  3  1  0
  3  4  1  0
  4  5  1  0
  5  6  2  0
  4  7  1  0
  7  8  1  0
  8  9  1  0
  8  2  1  0
  9  4  1  0
  1 10  1  0
  1 11  1  0
  1 12  1  0
  2 13  1  0
  5 14  1  0
  7 15  1  0
  7 16  1  0
  8 17  1  0
  9 18  1  0
  9 19  1  0
M  END
