
     RDKit          3D

 17 19  0  0  0  0  0  0  0  0999 V2000
    2.2884   -0.1094    0.6000 C   0  0  0  0  0  0  0  0  0  0  0  0
    1.0663    0.7512    0.4494 C   0  0  0  0  0  0  0  0  0  0  0  0
    0.9795    1.1985   -0.9743 O   0  0  0  0  0  0  0  0  0  0  0  0
    0.0216    0.4579   -0.3499 C   0  0  0  0  0  0  0  0  0  0  0  0
   -1.3932    0.8679   -0.4036 C   0  0  0  0  0  0  0  0  0  0  0  0
   -2.0707   -0.0672    0.5613 C   0  0  0  0  0  0  0  0  0  0  0  0
   -1.4860   -1.2365    0.2117 C   0  0  0  0  0  0  0  0  0  0  0  0
   -0.5801   -0.7652   -0.8952 C   0  0  0  0  0  0  0  0  0  0  0  0
   -1.4815    0.0865   -1.5822 O   0  0  0  0  0  0  0  0  0  0  0  0
    2.2876   -0.8645   -0.2408 H   0  0  0  0  0  0  0  0  0  0  0  0
    2.2590   -0.7057    1.5252 H   0  0  0  0  0  0  0  0  0  0  0  0
    3.2322    0.4530    0.4833 H   0  0  0  0  0  0  0  0  0  0  0  0
    1.0772    1.6383    1.1434 H   0  0  0  0  0  0  0  0  0  0  0  0
   -1.7087    1.8729   -0.4453 H   0  0  0  0  0  0  0  0  0  0  0  0
   -2.8128    0.1324    1.3189 H   0  0  0  0  0  0  0  0  0  0  0  0
   -1.6294   -2.2249    0.6132 H   0  0  0  0  0  0  0  0  0  0  0  0
   -0.0495   -1.4854   -1.4573 H   0  0  0  0  0  0  0  0  0  0  0  0
  1  2  1  0
  2  3  1  0
  3  4  1  0
  4  5  1  0
  5  6  1  0
  6  7  2  0
  7  8  1  0
  8  9  1  0
  4  2  1  0
  9  5  1  0
  8  4  1  0
  1 10  1  0
  1 11  1  0
  1 12  1  0
  2 13  1  0
  5 14  1  0
  6 15  1  0
  7 16  1  0
  8 17  1  0
M  END
