
     RDKit          3D

 21 22  0  0  0  0  0  0  0  0999 V2000
   -1.1374    1.7867    0.9202 C   0  0  0  0  0  0  0  0  0  0  0  0
   -0.8739    0.3009    0.7286 C   0  0  0  0  0  0  0  0  0  0  0  0
    0.3628    0.0341    1.2386 O   0  0  0  0  0  0  0  0  0  0  0  0
    1.1539   -0.5440    0.2948 C   0  0  0  0  0  0  0  0  0  0  0  0
    2.4654    0.2035    0.1919 C   0  0  0  0  0  0  0  0  0  0  0  0
    0.4270   -0.6701   -0.9859 C   0  0  0  0  0  0  0  0  0  0  0  0
   -0.1586   -1.9422   -1.1198 O   0  0  0  0  0  0  0  0  0  0  0  0
   -1.4622   -1.5079   -0.9652 C   0  0  0  0  0  0  0  0  0  0  0  0
   -0.9328   -0.1280   -0.6944 C   0  0  0  0  0  0  0  0  0  0  0  0
   -1.8649    2.1709    0.2081 H   0  0  0  0  0  0  0  0  0  0  0  0
   -1.5376    1.9199    1.9539 H   0  0  0  0  0  0  0  0  0  0  0  0
   -0.1609    2.3287    0.9160 H   0  0  0  0  0  0  0  0  0  0  0  0
   -1.6411   -0.2406    1.3178 H   0  0  0  0  0  0  0  0  0  0  0  0
    1.4259   -1.5746    0.6705 H   0  0  0  0  0  0  0  0  0  0  0  0
    2.9765    0.0670    1.1788 H   0  0  0  0  0  0  0  0  0  0  0  0
    2.3403    1.2871    0.0625 H   0  0  0  0  0  0  0  0  0  0  0  0
    3.1168   -0.2463   -0.5847 H   0  0  0  0  0  0  0  0  0  0  0  0
    0.9126   -0.3182   -1.9073 H   0  0  0  0  0  0  0  0  0  0  0  0
   -2.0166   -1.8947   -0.1001 H   0  0  0  0  0  0  0  0  0  0  0  0
   -2.0528   -1.6308   -1.8964 H   0  0  0  0  0  0  0  0  0  0  0  0
   -1.3426    0.5986   -1.4279 H   0  0  0  0  0  0  0  0  0  0  0  0
  1  2  1  0
  2  3  1  0
  3  4  1  0
  4  5  1  0
  4  6  1  0
  6  7  1  0
  7  8  1  0
  8  9  1  0
  9  2  1  0
  9  6  1  0
  1 10  1  0
  1 11  1  0
  1 12  1  0
  2 13  1  0
  4 14  1  0
  5 15  1  0
  5 16  1  0
  5 17  1  0
  6 18  1  0
  8 19  1  0
  8 20  1  0
  9 21  1  0
M  END
