
     RDKit          3D

 21 22  0  0  0  0  0  0  0  0999 V2000
   -2.3500    0.3692   -0.0527 C   0  0  0  0  0  0  0  0  0  0  0  0
   -0.8929    0.7206   -0.1548 C   0  0  0  0  0  0  0  0  0  0  0  0
   -0.3355    0.7624    1.0912 O   0  0  0  0  0  0  0  0  0  0  0  0
    0.2439   -0.4352    1.4030 C   0  0  0  0  0  0  0  0  0  0  0  0
   -0.0027   -1.3816    0.2190 C   0  0  0  0  0  0  0  0  0  0  0  0
   -0.0770   -0.3358   -0.8595 C   0  0  0  0  0  0  0  0  0  0  0  0
    1.3306    0.2471   -0.9996 C   0  0  0  0  0  0  0  0  0  0  0  0
    1.9956    0.5199    0.2805 C   0  0  0  0  0  0  0  0  0  0  0  0
    1.6434   -0.2436    1.3554 O   0  0  0  0  0  0  0  0  0  0  0  0
   -2.9109    0.5550   -0.9989 H   0  0  0  0  0  0  0  0  0  0  0  0
   -2.7715    0.9612    0.7966 H   0  0  0  0  0  0  0  0  0  0  0  0
   -2.5271   -0.6945    0.1969 H   0  0  0  0  0  0  0  0  0  0  0  0
   -0.8000    1.6528   -0.7374 H   0  0  0  0  0  0  0  0  0  0  0  0
   -0.0966   -0.8463    2.3452 H   0  0  0  0  0  0  0  0  0  0  0  0
    0.8374   -2.0901    0.0885 H   0  0  0  0  0  0  0  0  0  0  0  0
   -0.9123   -1.9666    0.3439 H   0  0  0  0  0  0  0  0  0  0  0  0
   -0.4718   -0.6675   -1.8042 H   0  0  0  0  0  0  0  0  0  0  0  0
    1.1466    1.2367   -1.5146 H   0  0  0  0  0  0  0  0  0  0  0  0
    1.9359   -0.3493   -1.7342 H   0  0  0  0  0  0  0  0  0  0  0  0
    1.9058    1.6011    0.5985 H   0  0  0  0  0  0  0  0  0  0  0  0
    3.1090    0.3846    0.1373 H   0  0  0  0  0  0  0  0  0  0  0  0
  1  2  1  0
  2  3  1  0
  3  4  1  0
  4  5  1  0
  5  6  1  0
  6  7  1  0
  7  8  1  0
  8  9  1  0
  6  2  1  0
  9  4  1  0
  1 10  1  0
  1 11  1  0
  1 12  1  0
  2 13  1  0
  4 14  1  0
  5 15  1  0
  5 16  1  0
  6 17  1  0
  7 18  1  0
  7 19  1  0
  8 20  1  0
  8 21  1  0
M  END
