
     RDKit          3D

 21 22  0  0  0  0  0  0  0  0999 V2000
    2.1259   -0.0198   -0.1172 C   0  0  0  0  0  0  0  0  0  0  0  0
    0.8282   -0.1918   -0.9080 C   0  0  0  0  0  0  0  0  0  0  0  0
    0.4718   -1.5001   -1.0677 O   0  0  0  0  0  0  0  0  0  0  0  0
   -0.4149   -1.8700   -0.1016 C   0  0  0  0  0  0  0  0  0  0  0  0
   -0.7558   -0.6857    0.7425 C   0  0  0  0  0  0  0  0  0  0  0  0
   -2.1285   -0.5837    0.8655 O   0  0  0  0  0  0  0  0  0  0  0  0
   -0.2516    0.4694   -0.0820 C   0  0  0  0  0  0  0  0  0  0  0  0
   -1.1339    1.4910   -0.6313 C   0  0  0  0  0  0  0  0  0  0  0  0
   -0.0955    1.8195    0.4443 C   0  0  0  0  0  0  0  0  0  0  0  0
    2.6827   -0.9787   -0.1638 H   0  0  0  0  0  0  0  0  0  0  0  0
    2.7461    0.7938   -0.5084 H   0  0  0  0  0  0  0  0  0  0  0  0
    1.9167    0.1793    0.9599 H   0  0  0  0  0  0  0  0  0  0  0  0
    0.9512    0.3512   -1.8746 H   0  0  0  0  0  0  0  0  0  0  0  0
   -1.3428   -2.2454   -0.6264 H   0  0  0  0  0  0  0  0  0  0  0  0
   -0.0147   -2.6938    0.5339 H   0  0  0  0  0  0  0  0  0  0  0  0
   -0.2346   -0.7699    1.7297 H   0  0  0  0  0  0  0  0  0  0  0  0
   -2.5184   -1.4008    1.2801 H   0  0  0  0  0  0  0  0  0  0  0  0
   -2.2027    1.4588   -0.2949 H   0  0  0  0  0  0  0  0  0  0  0  0
   -0.9375    1.8229   -1.6682 H   0  0  0  0  0  0  0  0  0  0  0  0
   -0.5117    2.1738    1.3873 H   0  0  0  0  0  0  0  0  0  0  0  0
    0.8198    2.3800    0.1009 H   0  0  0  0  0  0  0  0  0  0  0  0
  1  2  1  0
  2  3  1  0
  3  4  1  0
  4  5  1  0
  5  6  1  0
  5  7  1  0
  7  8  1  0
  8  9  1  0
  7  2  1  0
  9  7  1  0
  1 10  1  0
  1 11  1  0
  1 12  1  0
  2 13  1  0
  4 14  1  0
  4 15  1  0
  5 16  1  0
  6 17  1  0
  8 18  1  0
  8 19  1  0
  9 20  1  0
  9 21  1  0
M  END
