
     RDKit          3D

 23 24  0  0  0  0  0  0  0  0999 V2000
    3.2969    0.9191    0.0429 C   0  0  0  0  0  0  0  0  0  0  0  0
    2.7718   -0.3289   -0.5982 C   0  0  0  0  0  0  0  0  0  0  0  0
    1.8847   -0.1369   -1.6840 O   0  0  0  0  0  0  0  0  0  0  0  0
    1.4374   -0.8391   -0.4409 C   0  0  0  0  0  0  0  0  0  0  0  0
    0.3530   -0.0820    0.2521 C   0  0  0  0  0  0  0  0  0  0  0  0
   -0.9174   -0.9033    0.2399 C   0  0  0  0  0  0  0  0  0  0  0  0
   -2.0577   -0.2199    0.9142 C   0  0  0  0  0  0  0  0  0  0  0  0
   -2.5863    1.0825    0.4650 C   0  0  0  0  0  0  0  0  0  0  0  0
   -3.3314   -0.1799    0.0797 C   0  0  0  0  0  0  0  0  0  0  0  0
    2.5264    1.6084    0.3836 H   0  0  0  0  0  0  0  0  0  0  0  0
    4.0127    0.6136    0.8472 H   0  0  0  0  0  0  0  0  0  0  0  0
    3.9188    1.4628   -0.7131 H   0  0  0  0  0  0  0  0  0  0  0  0
    3.5791   -1.0578   -0.8701 H   0  0  0  0  0  0  0  0  0  0  0  0
    1.2457   -1.9057   -0.6427 H   0  0  0  0  0  0  0  0  0  0  0  0
    0.0966    0.8855   -0.2550 H   0  0  0  0  0  0  0  0  0  0  0  0
    0.6387    0.1390    1.2965 H   0  0  0  0  0  0  0  0  0  0  0  0
   -1.1594   -1.2200   -0.8028 H   0  0  0  0  0  0  0  0  0  0  0  0
   -0.7032   -1.8437    0.7875 H   0  0  0  0  0  0  0  0  0  0  0  0
   -2.1922   -0.4746    1.9864 H   0  0  0  0  0  0  0  0  0  0  0  0
   -2.1370    1.6735   -0.3414 H   0  0  0  0  0  0  0  0  0  0  0  0
   -3.1243    1.6864    1.2160 H   0  0  0  0  0  0  0  0  0  0  0  0
   -3.2723   -0.4477   -0.9872 H   0  0  0  0  0  0  0  0  0  0  0  0
   -4.2806   -0.4313    0.5566 H   0  0  0  0  0  0  0  0  0  0  0  0
  1  2  1  0
  2  3  1  0
  3  4  1  0
  4  5  1  0
  5  6  1  0
  6  7  1  0
  7  8  1  0
  8  9  1  0
  4  2  1  0
  9  7  1  0
  1 10  1  0
  1 11  1  0
  1 12  1  0
  2 13  1  0
  4 14  1  0
  5 15  1  0
  5 16  1  0
  6 17  1  0
  6 18  1  0
  7 19  1  0
  8 20  1  0
  8 21  1  0
  9 22  1  0
  9 23  1  0
M  END
