
     RDKit          3D

 19 20  0  0  0  0  0  0  0  0999 V2000
   -2.1671   -0.5454    0.0074 C   0  0  0  0  0  0  0  0  0  0  0  0
   -0.7604   -0.7798   -0.4393 C   0  0  0  0  0  0  0  0  0  0  0  0
   -0.4542    0.1628   -1.4419 O   0  0  0  0  0  0  0  0  0  0  0  0
    0.0201    1.3929   -1.0800 C   0  0  0  0  0  0  0  0  0  0  0  0
   -0.2907    2.4791   -1.6671 O   0  0  0  0  0  0  0  0  0  0  0  0
    0.9495    1.5008    0.0547 C   0  0  0  0  0  0  0  0  0  0  0  0
    1.1651    0.2557    0.8147 C   0  0  0  0  0  0  0  0  0  0  0  0
    1.6738   -0.9942    0.1823 C   0  0  0  0  0  0  0  0  0  0  0  0
    0.2378   -0.8364    0.6572 C   0  0  0  0  0  0  0  0  0  0  0  0
   -2.8580   -1.0108   -0.7526 H   0  0  0  0  0  0  0  0  0  0  0  0
   -2.4132   -0.9145    0.9974 H   0  0  0  0  0  0  0  0  0  0  0  0
   -2.3811    0.5583   -0.0788 H   0  0  0  0  0  0  0  0  0  0  0  0
   -0.7487   -1.7851   -0.9549 H   0  0  0  0  0  0  0  0  0  0  0  0
    0.5148    2.2656    0.7546 H   0  0  0  0  0  0  0  0  0  0  0  0
    1.8834    1.9730   -0.3315 H   0  0  0  0  0  0  0  0  0  0  0  0
    1.5779    0.4197    1.8549 H   0  0  0  0  0  0  0  0  0  0  0  0
    1.8856   -1.0167   -0.8958 H   0  0  0  0  0  0  0  0  0  0  0  0
    2.2512   -1.7225    0.7661 H   0  0  0  0  0  0  0  0  0  0  0  0
   -0.0858   -1.4026    1.5526 H   0  0  0  0  0  0  0  0  0  0  0  0
  1  2  1  0
  2  3  1  0
  3  4  1  0
  4  5  2  0
  4  6  1  0
  6  7  1  0
  7  8  1  0
  8  9  1  0
  9  2  1  0
  9  7  1  0
  1 10  1  0
  1 11  1  0
  1 12  1  0
  2 13  1  0
  6 14  1  0
  6 15  1  0
  7 16  1  0
  8 17  1  0
  8 18  1  0
  9 19  1  0
M  END
