
     RDKit          3D

 21 22  0  0  0  0  0  0  0  0999 V2000
    1.0206    1.7593   -0.8254 C   0  0  0  0  0  0  0  0  0  0  0  0
    1.2769    0.3072   -0.6988 C   0  0  0  0  0  0  0  0  0  0  0  0
    1.6983   -0.0066    0.6849 O   0  0  0  0  0  0  0  0  0  0  0  0
    0.5863   -0.6949    0.0054 C   0  0  0  0  0  0  0  0  0  0  0  0
    1.0836   -2.1439   -0.2570 C   0  0  0  0  0  0  0  0  0  0  0  0
   -0.6660   -0.6786    0.7860 C   0  0  0  0  0  0  0  0  0  0  0  0
   -1.8695   -0.2235   -0.0721 C   0  0  0  0  0  0  0  0  0  0  0  0
   -1.4597    0.4595    1.2151 C   0  0  0  0  0  0  0  0  0  0  0  0
   -1.0631    1.7683    1.2488 O   0  0  0  0  0  0  0  0  0  0  0  0
    1.7150    2.1851   -1.6212 H   0  0  0  0  0  0  0  0  0  0  0  0
    1.2909    2.3579    0.0809 H   0  0  0  0  0  0  0  0  0  0  0  0
    0.0157    2.0397   -1.2047 H   0  0  0  0  0  0  0  0  0  0  0  0
    2.0696   -0.0503   -1.4369 H   0  0  0  0  0  0  0  0  0  0  0  0
    1.8203   -2.1735   -1.0565 H   0  0  0  0  0  0  0  0  0  0  0  0
    1.4478   -2.4971    0.7290 H   0  0  0  0  0  0  0  0  0  0  0  0
    0.1976   -2.7861   -0.4990 H   0  0  0  0  0  0  0  0  0  0  0  0
   -0.8860   -1.6750    1.3078 H   0  0  0  0  0  0  0  0  0  0  0  0
   -1.6791    0.3650   -0.9713 H   0  0  0  0  0  0  0  0  0  0  0  0
   -2.7566   -0.8775   -0.1047 H   0  0  0  0  0  0  0  0  0  0  0  0
   -2.2054    0.2286    2.0444 H   0  0  0  0  0  0  0  0  0  0  0  0
   -1.6372    2.3362    0.6454 H   0  0  0  0  0  0  0  0  0  0  0  0
  1  2  1  0
  2  3  1  0
  3  4  1  0
  4  5  1  0
  4  6  1  0
  6  7  1  0
  7  8  1  0
  8  9  1  0
  4  2  1  0
  8  6  1  0
  1 10  1  0
  1 11  1  0
  1 12  1  0
  2 13  1  0
  5 14  1  0
  5 15  1  0
  5 16  1  0
  6 17  1  0
  7 18  1  0
  7 19  1  0
  8 20  1  0
  9 21  1  0
M  END
