
     RDKit          3D

 21 21  0  0  0  0  0  0  0  0999 V2000
    2.8118    0.2617    0.0123 C   0  0  0  0  0  0  0  0  0  0  0  0
    1.4243   -0.2020   -0.3555 C   0  0  0  0  0  0  0  0  0  0  0  0
    1.1506   -1.4919    0.0527 O   0  0  0  0  0  0  0  0  0  0  0  0
   -0.1269   -1.6128    0.5535 C   0  0  0  0  0  0  0  0  0  0  0  0
   -1.1550   -0.8603   -0.2963 C   0  0  0  0  0  0  0  0  0  0  0  0
   -2.3999   -1.0108    0.2576 O   0  0  0  0  0  0  0  0  0  0  0  0
   -0.6819    0.5476   -0.4175 C   0  0  0  0  0  0  0  0  0  0  0  0
   -1.6142    1.5642    0.1811 C   0  0  0  0  0  0  0  0  0  0  0  0
    0.5266    0.6402    0.3097 O   0  0  0  0  0  0  0  0  0  0  0  0
    3.4168    0.4069   -0.9121 H   0  0  0  0  0  0  0  0  0  0  0  0
    3.3179   -0.4502    0.6978 H   0  0  0  0  0  0  0  0  0  0  0  0
    2.7976    1.2562    0.5429 H   0  0  0  0  0  0  0  0  0  0  0  0
    1.2196   -0.1166   -1.4493 H   0  0  0  0  0  0  0  0  0  0  0  0
   -0.4672   -2.6500    0.6282 H   0  0  0  0  0  0  0  0  0  0  0  0
   -0.1905   -1.1565    1.5699 H   0  0  0  0  0  0  0  0  0  0  0  0
   -1.1323   -1.3571   -1.2979 H   0  0  0  0  0  0  0  0  0  0  0  0
   -3.0249   -0.2948   -0.0052 H   0  0  0  0  0  0  0  0  0  0  0  0
   -0.4720    0.8502   -1.4507 H   0  0  0  0  0  0  0  0  0  0  0  0
   -1.8777    1.3576    1.2355 H   0  0  0  0  0  0  0  0  0  0  0  0
   -1.0329    2.5341    0.2152 H   0  0  0  0  0  0  0  0  0  0  0  0
   -2.4895    1.7845   -0.4597 H   0  0  0  0  0  0  0  0  0  0  0  0
  1  2  1  0
  2  3  1  0
  3  4  1  0
  4  5  1  0
  5  6  1  0
  5  7  1  0
  7  8  1  0
  7  9  1  0
  9  2  1  0
  1 10  1  0
  1 11  1  0
  1 12  1  0
  2 13  1  0
  4 14  1  0
  4 15  1  0
  5 16  1  0
  6 17  1  0
  7 18  1  0
  8 19  1  0
  8 20  1  0
  8 21  1  0
M  END
