
     RDKit          3D

 19 20  0  0  0  0  0  0  0  0999 V2000
    2.3905    0.9562    0.5816 C   0  0  0  0  0  0  0  0  0  0  0  0
    1.3908   -0.1311    0.7645 C   0  0  0  0  0  0  0  0  0  0  0  0
    0.1220    0.2535    1.1937 O   0  0  0  0  0  0  0  0  0  0  0  0
   -0.5356   -0.3654    0.1556 C   0  0  0  0  0  0  0  0  0  0  0  0
   -1.6282    0.3737   -0.5852 C   0  0  0  0  0  0  0  0  0  0  0  0
   -2.7386    0.7615    0.3307 C   0  0  0  0  0  0  0  0  0  0  0  0
   -3.5731   -0.0189    0.7357 O   0  0  0  0  0  0  0  0  0  0  0  0
   -0.2398   -1.7490   -0.2701 C   0  0  0  0  0  0  0  0  0  0  0  0
    0.7550   -0.6535   -0.4897 C   0  0  0  0  0  0  0  0  0  0  0  0
    2.3458    1.2865   -0.4953 H   0  0  0  0  0  0  0  0  0  0  0  0
    2.2734    1.8146    1.2710 H   0  0  0  0  0  0  0  0  0  0  0  0
    3.4115    0.5566    0.7571 H   0  0  0  0  0  0  0  0  0  0  0  0
    1.7254   -0.9930    1.3958 H   0  0  0  0  0  0  0  0  0  0  0  0
   -2.0374   -0.2517   -1.4044 H   0  0  0  0  0  0  0  0  0  0  0  0
   -1.2357    1.2964   -1.0878 H   0  0  0  0  0  0  0  0  0  0  0  0
   -2.8364    1.8016    0.6773 H   0  0  0  0  0  0  0  0  0  0  0  0
    0.1145   -2.5201    0.4611 H   0  0  0  0  0  0  0  0  0  0  0  0
   -0.7546   -2.1006   -1.1717 H   0  0  0  0  0  0  0  0  0  0  0  0
    1.0503   -0.3174   -1.4761 H   0  0  0  0  0  0  0  0  0  0  0  0
  1  2  1  0
  2  3  1  0
  3  4  1  0
  4  5  1  0
  5  6  1  0
  6  7  2  0
  4  8  1  0
  8  9  1  0
  9  2  1  0
  9  4  1  0
  1 10  1  0
  1 11  1  0
  1 12  1  0
  2 13  1  0
  5 14  1  0
  5 15  1  0
  6 16  1  0
  8 17  1  0
  8 18  1  0
  9 19  1  0
M  END
