
     RDKit          3D

 15 17  0  0  0  0  0  0  0  0999 V2000
    2.1427    0.2519   -0.2287 C   0  0  0  0  0  0  0  0  0  0  0  0
    0.9420    0.1347    0.6847 C   0  0  0  0  0  0  0  0  0  0  0  0
    0.0451    1.3088    0.4883 O   0  0  0  0  0  0  0  0  0  0  0  0
   -0.3226    0.0246    0.2389 C   0  0  0  0  0  0  0  0  0  0  0  0
   -1.5398   -0.5831    0.8133 C   0  0  0  0  0  0  0  0  0  0  0  0
   -1.8238   -1.2902    1.7183 O   0  0  0  0  0  0  0  0  0  0  0  0
   -2.1779    0.1278   -0.2899 C   0  0  0  0  0  0  0  0  0  0  0  0
   -2.1132   -0.1000   -1.5970 O   0  0  0  0  0  0  0  0  0  0  0  0
   -0.9294   -0.4268   -1.0467 C   0  0  0  0  0  0  0  0  0  0  0  0
    1.9913    0.9382   -1.0681 H   0  0  0  0  0  0  0  0  0  0  0  0
    3.0362    0.6360    0.3319 H   0  0  0  0  0  0  0  0  0  0  0  0
    2.4461   -0.7444   -0.6371 H   0  0  0  0  0  0  0  0  0  0  0  0
    1.2377    0.0380    1.7568 H   0  0  0  0  0  0  0  0  0  0  0  0
   -2.0945    1.2474   -0.0886 H   0  0  0  0  0  0  0  0  0  0  0  0
   -0.8399   -1.5631   -1.0760 H   0  0  0  0  0  0  0  0  0  0  0  0
  1  2  1  0
  2  3  1  0
  3  4  1  0
  4  5  1  0
  5  6  2  0
  5  7  1  0
  7  8  1  0
  8  9  1  0
  4  2  1  0
  9  7  1  0
  9  4  1  0
  1 10  1  0
  1 11  1  0
  1 12  1  0
  2 13  1  0
  7 14  1  0
  9 15  1  0
M  END
