
     RDKit          3D

 15 17  0  0  0  0  0  0  0  0999 V2000
    2.2283   -0.2143    0.2568 C   0  0  0  0  0  0  0  0  0  0  0  0
    0.9274   -0.3983   -0.5423 C   0  0  0  0  0  0  0  0  0  0  0  0
    0.1860   -1.4579   -0.3458 O   0  0  0  0  0  0  0  0  0  0  0  0
   -0.2738   -0.2729    0.1733 C   0  0  0  0  0  0  0  0  0  0  0  0
   -1.7019   -0.5196    0.1967 C   0  0  0  0  0  0  0  0  0  0  0  0
   -1.7838    0.0036   -1.0905 O   0  0  0  0  0  0  0  0  0  0  0  0
   -0.9711    0.8912   -0.4089 C   0  0  0  0  0  0  0  0  0  0  0  0
   -1.9200    0.8365    0.6809 C   0  0  0  0  0  0  0  0  0  0  0  0
   -2.5819    1.3586    1.5368 O   0  0  0  0  0  0  0  0  0  0  0  0
    1.9836    0.4866    1.0827 H   0  0  0  0  0  0  0  0  0  0  0  0
    2.5266   -1.1646    0.7384 H   0  0  0  0  0  0  0  0  0  0  0  0
    3.0263    0.2482   -0.3191 H   0  0  0  0  0  0  0  0  0  0  0  0
    1.1311   -0.1785   -1.6388 H   0  0  0  0  0  0  0  0  0  0  0  0
   -2.2245   -1.3492    0.5002 H   0  0  0  0  0  0  0  0  0  0  0  0
   -0.5524    1.7306   -0.8204 H   0  0  0  0  0  0  0  0  0  0  0  0
  1  2  1  0
  2  3  1  0
  3  4  1  0
  4  5  1  0
  5  6  1  0
  6  7  1  0
  7  8  1  0
  8  9  2  0
  4  2  1  0
  8  5  1  0
  7  4  1  0
  1 10  1  0
  1 11  1  0
  1 12  1  0
  2 13  1  0
  5 14  1  0
  7 15  1  0
M  END
