
     RDKit          3D

 19 21  0  0  0  0  0  0  0  0999 V2000
    2.2922   -0.2710    0.0182 C   0  0  0  0  0  0  0  0  0  0  0  0
    0.8881   -0.1107    0.5724 C   0  0  0  0  0  0  0  0  0  0  0  0
    0.3720   -1.3531    0.7926 O   0  0  0  0  0  0  0  0  0  0  0  0
   -0.7276   -1.5485    0.0003 C   0  0  0  0  0  0  0  0  0  0  0  0
   -1.9614   -0.7866    0.3091 C   0  0  0  0  0  0  0  0  0  0  0  0
   -1.0179   -0.3466   -0.7844 C   0  0  0  0  0  0  0  0  0  0  0  0
   -0.0018    0.6607   -0.3180 C   0  0  0  0  0  0  0  0  0  0  0  0
   -0.4773    2.0125   -0.0559 C   0  0  0  0  0  0  0  0  0  0  0  0
    0.4174    1.6816   -1.1146 O   0  0  0  0  0  0  0  0  0  0  0  0
    2.5682    0.6688   -0.4828 H   0  0  0  0  0  0  0  0  0  0  0  0
    2.3241   -1.1586   -0.6548 H   0  0  0  0  0  0  0  0  0  0  0  0
    2.9519   -0.4883    0.8913 H   0  0  0  0  0  0  0  0  0  0  0  0
    0.9800    0.4260    1.5558 H   0  0  0  0  0  0  0  0  0  0  0  0
   -0.7991   -2.5574   -0.4860 H   0  0  0  0  0  0  0  0  0  0  0  0
   -2.9560   -1.1000   -0.0243 H   0  0  0  0  0  0  0  0  0  0  0  0
   -1.9923   -0.2083    1.2666 H   0  0  0  0  0  0  0  0  0  0  0  0
   -1.2928   -0.4409   -1.8339 H   0  0  0  0  0  0  0  0  0  0  0  0
   -0.0452    2.6558    0.7188 H   0  0  0  0  0  0  0  0  0  0  0  0
   -1.5224    2.2647   -0.3704 H   0  0  0  0  0  0  0  0  0  0  0  0
  1  2  1  0
  2  3  1  0
  3  4  1  0
  4  5  1  0
  5  6  1  0
  6  7  1  0
  7  8  1  0
  8  9  1  0
  7  2  1  0
  6  4  1  0
  9  7  1  0
  1 10  1  0
  1 11  1  0
  1 12  1  0
  2 13  1  0
  4 14  1  0
  5 15  1  0
  5 16  1  0
  6 17  1  0
  8 18  1  0
  8 19  1  0
M  END
