
     RDKit          3D

 21 23  0  0  0  0  0  0  0  0999 V2000
    2.1892    0.3936    0.3230 C   0  0  0  0  0  0  0  0  0  0  0  0
    1.0635   -0.3127   -0.3545 C   0  0  0  0  0  0  0  0  0  0  0  0
    0.9532   -1.5735    0.1942 O   0  0  0  0  0  0  0  0  0  0  0  0
   -0.2132   -1.6489    0.9287 C   0  0  0  0  0  0  0  0  0  0  0  0
   -1.4606   -1.3391    0.1045 C   0  0  0  0  0  0  0  0  0  0  0  0
   -1.2960   -0.4001   -1.0635 C   0  0  0  0  0  0  0  0  0  0  0  0
   -0.2682    0.3563   -0.2143 C   0  0  0  0  0  0  0  0  0  0  0  0
   -0.3854    1.7969   -0.3531 C   0  0  0  0  0  0  0  0  0  0  0  0
   -0.8466   -0.3375    0.9770 C   0  0  0  0  0  0  0  0  0  0  0  0
    3.0546    0.4104   -0.4021 H   0  0  0  0  0  0  0  0  0  0  0  0
    2.5934   -0.1951    1.1984 H   0  0  0  0  0  0  0  0  0  0  0  0
    1.9646    1.3856    0.7020 H   0  0  0  0  0  0  0  0  0  0  0  0
    1.2448   -0.4547   -1.4521 H   0  0  0  0  0  0  0  0  0  0  0  0
   -0.3106   -2.3347    1.7609 H   0  0  0  0  0  0  0  0  0  0  0  0
   -2.3939   -1.8527    0.3046 H   0  0  0  0  0  0  0  0  0  0  0  0
   -2.1918    0.2106   -1.2764 H   0  0  0  0  0  0  0  0  0  0  0  0
   -0.8691   -0.8827   -1.9514 H   0  0  0  0  0  0  0  0  0  0  0  0
   -0.8770    2.0415   -1.3385 H   0  0  0  0  0  0  0  0  0  0  0  0
   -1.0959    2.1964    0.4291 H   0  0  0  0  0  0  0  0  0  0  0  0
    0.5074    2.4078   -0.2948 H   0  0  0  0  0  0  0  0  0  0  0  0
   -1.3626    0.1327    1.7784 H   0  0  0  0  0  0  0  0  0  0  0  0
  1  2  1  0
  2  3  1  0
  3  4  1  0
  4  5  1  0
  5  6  1  0
  6  7  1  0
  7  8  1  0
  7  9  1  0
  7  2  1  0
  9  4  1  0
  9  5  1  0
  1 10  1  0
  1 11  1  0
  1 12  1  0
  2 13  1  0
  4 14  1  0
  5 15  1  0
  6 16  1  0
  6 17  1  0
  8 18  1  0
  8 19  1  0
  8 20  1  0
  9 21  1  0
M  END
