
     RDKit          3D

 19 21  0  0  0  0  0  0  0  0999 V2000
    2.1075   -0.0494   -0.5826 C   0  0  0  0  0  0  0  0  0  0  0  0
    1.1883   -0.0224    0.6143 C   0  0  0  0  0  0  0  0  0  0  0  0
    0.7812   -1.3309    0.9675 O   0  0  0  0  0  0  0  0  0  0  0  0
   -0.5880   -1.2555    0.8198 C   0  0  0  0  0  0  0  0  0  0  0  0
   -1.0321    0.0858    1.3511 C   0  0  0  0  0  0  0  0  0  0  0  0
   -2.0877    0.0562    0.3013 C   0  0  0  0  0  0  0  0  0  0  0  0
   -0.8704   -0.4454   -0.4198 C   0  0  0  0  0  0  0  0  0  0  0  0
   -0.1102    0.6180    0.2958 C   0  0  0  0  0  0  0  0  0  0  0  0
   -0.1891    1.8920   -0.0865 O   0  0  0  0  0  0  0  0  0  0  0  0
    2.2754    1.0017   -0.8818 H   0  0  0  0  0  0  0  0  0  0  0  0
    1.6051   -0.6106   -1.3941 H   0  0  0  0  0  0  0  0  0  0  0  0
    3.0597   -0.5538   -0.3359 H   0  0  0  0  0  0  0  0  0  0  0  0
    1.6626    0.4766    1.4771 H   0  0  0  0  0  0  0  0  0  0  0  0
   -1.1947   -2.1139    1.0234 H   0  0  0  0  0  0  0  0  0  0  0  0
   -1.0961    0.3599    2.3093 H   0  0  0  0  0  0  0  0  0  0  0  0
   -2.7999   -0.7738    0.4884 H   0  0  0  0  0  0  0  0  0  0  0  0
   -2.5076    1.0020   -0.0373 H   0  0  0  0  0  0  0  0  0  0  0  0
   -0.7957   -0.7464   -1.3678 H   0  0  0  0  0  0  0  0  0  0  0  0
    0.5919    2.4099    0.2319 H   0  0  0  0  0  0  0  0  0  0  0  0
  1  2  1  0
  2  3  1  0
  3  4  1  0
  4  5  1  0
  5  6  1  0
  6  7  1  0
  7  8  1  0
  8  9  1  0
  8  2  1  0
  7  4  1  0
  8  5  1  0
  1 10  1  0
  1 11  1  0
  1 12  1  0
  2 13  1  0
  4 14  1  0
  5 15  1  0
  6 16  1  0
  6 17  1  0
  7 18  1  0
  9 19  1  0
M  END
