
     RDKit          3D

 17 17  0  0  0  0  0  0  0  0999 V2000
    2.1979   -0.1893    0.4159 C   0  0  0  0  0  0  0  0  0  0  0  0
    0.9677    0.1484   -0.4408 C   0  0  0  0  0  0  0  0  0  0  0  0
    0.2866   -0.9795   -0.6266 O   0  0  0  0  0  0  0  0  0  0  0  0
   -0.9821   -1.1250   -0.2256 C   0  0  0  0  0  0  0  0  0  0  0  0
   -1.5704    0.0556    0.5205 C   0  0  0  0  0  0  0  0  0  0  0  0
   -1.0016    1.2664   -0.2333 C   0  0  0  0  0  0  0  0  0  0  0  0
    0.3537    1.2260    0.1163 O   0  0  0  0  0  0  0  0  0  0  0  0
    2.4792    0.6469    1.0556 H   0  0  0  0  0  0  0  0  0  0  0  0
    3.0601   -0.4677   -0.2195 H   0  0  0  0  0  0  0  0  0  0  0  0
    1.9388   -1.0740    1.0650 H   0  0  0  0  0  0  0  0  0  0  0  0
    1.4083    0.4849   -1.4266 H   0  0  0  0  0  0  0  0  0  0  0  0
   -1.1849   -2.0732    0.3550 H   0  0  0  0  0  0  0  0  0  0  0  0
   -1.6315   -1.2427   -1.1449 H   0  0  0  0  0  0  0  0  0  0  0  0
   -2.6528    0.0531    0.5498 H   0  0  0  0  0  0  0  0  0  0  0  0
   -1.1502    0.0408    1.5516 H   0  0  0  0  0  0  0  0  0  0  0  0
   -1.4976    2.1932    0.0264 H   0  0  0  0  0  0  0  0  0  0  0  0
   -1.0212    1.0360   -1.3387 H   0  0  0  0  0  0  0  0  0  0  0  0
  1  2  1  0
  2  3  1  0
  3  4  1  0
  4  5  1  0
  5  6  1  0
  6  7  1  0
  7  2  1  0
  1  8  1  0
  1  9  1  0
  1 10  1  0
  2 11  1  0
  4 12  1  0
  4 13  1  0
  5 14  1  0
  5 15  1  0
  6 16  1  0
  6 17  1  0
M  END
