
     RDKit          3D

 21 22  0  0  0  0  0  0  0  0999 V2000
    2.4108   -0.7501   -0.6244 C   0  0  0  0  0  0  0  0  0  0  0  0
    1.4093   -0.1781    0.3908 C   0  0  0  0  0  0  0  0  0  0  0  0
    1.3877    1.1412    0.2564 O   0  0  0  0  0  0  0  0  0  0  0  0
    0.2784    1.8524    0.1003 C   0  0  0  0  0  0  0  0  0  0  0  0
   -1.0403    1.1873    0.0996 C   0  0  0  0  0  0  0  0  0  0  0  0
   -1.0233   -0.3007    0.2027 C   0  0  0  0  0  0  0  0  0  0  0  0
   -2.3280   -0.9645   -0.2424 C   0  0  0  0  0  0  0  0  0  0  0  0
   -0.6466   -0.8229    1.5013 O   0  0  0  0  0  0  0  0  0  0  0  0
    0.1479   -0.9446    0.2603 C   0  0  0  0  0  0  0  0  0  0  0  0
    3.3993   -0.3052   -0.3156 H   0  0  0  0  0  0  0  0  0  0  0  0
    2.1208   -0.4509   -1.6320 H   0  0  0  0  0  0  0  0  0  0  0  0
    2.5149   -1.8337   -0.4651 H   0  0  0  0  0  0  0  0  0  0  0  0
    1.8582   -0.4473    1.3937 H   0  0  0  0  0  0  0  0  0  0  0  0
    0.2504    2.6537    0.9015 H   0  0  0  0  0  0  0  0  0  0  0  0
    0.3663    2.4616   -0.8507 H   0  0  0  0  0  0  0  0  0  0  0  0
   -1.7119    1.5479    0.9356 H   0  0  0  0  0  0  0  0  0  0  0  0
   -1.6372    1.4372   -0.8288 H   0  0  0  0  0  0  0  0  0  0  0  0
   -3.0052   -1.0700    0.6472 H   0  0  0  0  0  0  0  0  0  0  0  0
   -2.1600   -1.8994   -0.7735 H   0  0  0  0  0  0  0  0  0  0  0  0
   -2.8914   -0.2845   -0.9376 H   0  0  0  0  0  0  0  0  0  0  0  0
    0.2998   -2.0293   -0.0190 H   0  0  0  0  0  0  0  0  0  0  0  0
  1  2  1  0
  2  3  1  0
  3  4  1  0
  4  5  1  0
  5  6  1  0
  6  7  1  0
  6  8  1  0
  8  9  1  0
  9  2  1  0
  9  6  1  0
  1 10  1  0
  1 11  1  0
  1 12  1  0
  2 13  1  0
  4 14  1  0
  4 15  1  0
  5 16  1  0
  5 17  1  0
  7 18  1  0
  7 19  1  0
  7 20  1  0
  9 21  1  0
M  END
