
     RDKit          3D

 19 20  0  0  0  0  0  0  0  0999 V2000
    2.5772    0.6173   -0.5050 C   0  0  0  0  0  0  0  0  0  0  0  0
    1.1455    0.2198   -0.8122 C   0  0  0  0  0  0  0  0  0  0  0  0
    0.2230    0.9396   -0.0929 O   0  0  0  0  0  0  0  0  0  0  0  0
   -0.8746    0.1570    0.1464 C   0  0  0  0  0  0  0  0  0  0  0  0
   -1.8950    0.6060    1.1125 C   0  0  0  0  0  0  0  0  0  0  0  0
   -2.2291    0.5146   -0.3301 C   0  0  0  0  0  0  0  0  0  0  0  0
   -0.4605   -1.2867    0.0468 C   0  0  0  0  0  0  0  0  0  0  0  0
    0.9387   -1.2086   -0.4321 C   0  0  0  0  0  0  0  0  0  0  0  0
    1.7937   -2.0531   -0.5301 O   0  0  0  0  0  0  0  0  0  0  0  0
    2.9542    0.0804    0.3762 H   0  0  0  0  0  0  0  0  0  0  0  0
    3.1885    0.2843   -1.3774 H   0  0  0  0  0  0  0  0  0  0  0  0
    2.6443    1.7155   -0.3714 H   0  0  0  0  0  0  0  0  0  0  0  0
    0.9991    0.3588   -1.9186 H   0  0  0  0  0  0  0  0  0  0  0  0
   -2.3929   -0.0758    1.8187 H   0  0  0  0  0  0  0  0  0  0  0  0
   -1.7251    1.6241    1.5478 H   0  0  0  0  0  0  0  0  0  0  0  0
   -2.2802    1.4150   -0.9698 H   0  0  0  0  0  0  0  0  0  0  0  0
   -2.9421   -0.2872   -0.6133 H   0  0  0  0  0  0  0  0  0  0  0  0
   -0.5943   -1.8620    0.9608 H   0  0  0  0  0  0  0  0  0  0  0  0
   -1.0705   -1.7590   -0.7779 H   0  0  0  0  0  0  0  0  0  0  0  0
  1  2  1  0
  2  3  1  0
  3  4  1  0
  4  5  1  0
  5  6  1  0
  4  7  1  0
  7  8  1  0
  8  9  2  0
  8  2  1  0
  6  4  1  0
  1 10  1  0
  1 11  1  0
  1 12  1  0
  2 13  1  0
  5 14  1  0
  5 15  1  0
  6 16  1  0
  6 17  1  0
  7 18  1  0
  7 19  1  0
M  END
