
     RDKit          3D

 15 15  0  0  0  0  0  0  0  0999 V2000
    2.2419    0.1599   -0.4406 C   0  0  0  0  0  0  0  0  0  0  0  0
    0.7828   -0.2166   -0.4025 C   0  0  0  0  0  0  0  0  0  0  0  0
    0.2857   -0.2920    0.9167 O   0  0  0  0  0  0  0  0  0  0  0  0
   -0.9074    0.3348    0.5414 C   0  0  0  0  0  0  0  0  0  0  0  0
   -2.0249   -0.6237    0.1910 C   0  0  0  0  0  0  0  0  0  0  0  0
   -0.1780    0.8671   -0.6453 C   0  0  0  0  0  0  0  0  0  0  0  0
   -0.4369    1.8104   -1.3697 O   0  0  0  0  0  0  0  0  0  0  0  0
    2.6025    0.5583    0.5149 H   0  0  0  0  0  0  0  0  0  0  0  0
    2.8060   -0.8015   -0.6031 H   0  0  0  0  0  0  0  0  0  0  0  0
    2.4933    0.8231   -1.2940 H   0  0  0  0  0  0  0  0  0  0  0  0
    0.5335   -1.1833   -0.9147 H   0  0  0  0  0  0  0  0  0  0  0  0
   -1.2463    1.0895    1.2493 H   0  0  0  0  0  0  0  0  0  0  0  0
   -1.8477   -1.1398   -0.7845 H   0  0  0  0  0  0  0  0  0  0  0  0
   -2.1673   -1.3744    0.9976 H   0  0  0  0  0  0  0  0  0  0  0  0
   -2.9374   -0.0117    0.0406 H   0  0  0  0  0  0  0  0  0  0  0  0
  1  2  1  0
  2  3  1  0
  3  4  1  0
  4  5  1  0
  4  6  1  0
  6  7  2  0
  6  2  1  0
  1  8  1  0
  1  9  1  0
  1 10  1  0
  2 11  1  0
  4 12  1  0
  5 13  1  0
  5 14  1  0
  5 15  1  0
M  END
