
     RDKit          3D

 21 22  0  0  0  0  0  0  0  0999 V2000
    2.7531    0.4234   -0.2973 C   0  0  0  0  0  0  0  0  0  0  0  0
    1.2624    0.1182   -0.4967 C   0  0  0  0  0  0  0  0  0  0  0  0
    1.1508   -1.2534   -0.5711 O   0  0  0  0  0  0  0  0  0  0  0  0
   -0.1915   -1.6441   -0.7001 C   0  0  0  0  0  0  0  0  0  0  0  0
   -0.8704   -1.1916    0.5972 C   0  0  0  0  0  0  0  0  0  0  0  0
   -0.7119    0.3114    0.6362 C   0  0  0  0  0  0  0  0  0  0  0  0
   -1.6812    1.0369   -0.2775 C   0  0  0  0  0  0  0  0  0  0  0  0
   -1.7221    1.2003    1.1961 C   0  0  0  0  0  0  0  0  0  0  0  0
    0.6210    0.6552    0.6292 O   0  0  0  0  0  0  0  0  0  0  0  0
    2.8528    1.5083   -0.0997 H   0  0  0  0  0  0  0  0  0  0  0  0
    3.3439    0.0714   -1.1546 H   0  0  0  0  0  0  0  0  0  0  0  0
    3.0239   -0.1039    0.6530 H   0  0  0  0  0  0  0  0  0  0  0  0
    0.9577    0.6122   -1.4310 H   0  0  0  0  0  0  0  0  0  0  0  0
   -0.2797   -2.7136   -0.8704 H   0  0  0  0  0  0  0  0  0  0  0  0
   -0.6567   -1.0253   -1.5096 H   0  0  0  0  0  0  0  0  0  0  0  0
   -1.9408   -1.4585    0.6107 H   0  0  0  0  0  0  0  0  0  0  0  0
   -0.3656   -1.6748    1.4643 H   0  0  0  0  0  0  0  0  0  0  0  0
   -2.4694    0.4542   -0.8021 H   0  0  0  0  0  0  0  0  0  0  0  0
   -1.1836    1.7654   -0.9390 H   0  0  0  0  0  0  0  0  0  0  0  0
   -1.3331    2.1743    1.6174 H   0  0  0  0  0  0  0  0  0  0  0  0
   -2.5598    0.7339    1.7449 H   0  0  0  0  0  0  0  0  0  0  0  0
  1  2  1  0
  2  3  1  0
  3  4  1  0
  4  5  1  0
  5  6  1  0
  6  7  1  0
  7  8  1  0
  6  9  1  0
  9  2  1  0
  8  6  1  0
  1 10  1  0
  1 11  1  0
  1 12  1  0
  2 13  1  0
  4 14  1  0
  4 15  1  0
  5 16  1  0
  5 17  1  0
  7 18  1  0
  7 19  1  0
  8 20  1  0
  8 21  1  0
M  END
