
     RDKit          3D

 14 15  0  0  0  0  0  0  0  0999 V2000
   -1.8825    0.0684    0.4538 C   0  0  0  0  0  0  0  0  0  0  0  0
   -0.6545   -0.3076   -0.2955 C   0  0  0  0  0  0  0  0  0  0  0  0
    0.1073   -1.3410    0.2895 O   0  0  0  0  0  0  0  0  0  0  0  0
    1.2303   -0.7161   -0.2911 C   0  0  0  0  0  0  0  0  0  0  0  0
    1.7281    0.4565    0.4440 C   0  0  0  0  0  0  0  0  0  0  0  0
    0.4851    0.6372   -0.3018 C   0  0  0  0  0  0  0  0  0  0  0  0
   -2.7918    0.0182   -0.2018 H   0  0  0  0  0  0  0  0  0  0  0  0
   -1.8695    1.1110    0.8469 H   0  0  0  0  0  0  0  0  0  0  0  0
   -2.0871   -0.6797    1.2665 H   0  0  0  0  0  0  0  0  0  0  0  0
   -0.9107   -0.6594   -1.3383 H   0  0  0  0  0  0  0  0  0  0  0  0
    1.6364   -1.0839   -1.2262 H   0  0  0  0  0  0  0  0  0  0  0  0
    2.6697    0.9102    0.0540 H   0  0  0  0  0  0  0  0  0  0  0  0
    1.7609    0.3453    1.5525 H   0  0  0  0  0  0  0  0  0  0  0  0
    0.5784    1.2409   -1.2525 H   0  0  0  0  0  0  0  0  0  0  0  0
  1  2  1  0
  2  3  1  0
  3  4  1  0
  4  5  1  0
  5  6  1  0
  6  2  1  0
  6  4  1  0
  1  7  1  0
  1  8  1  0
  1  9  1  0
  2 10  1  0
  4 11  1  0
  5 12  1  0
  5 13  1  0
  6 14  1  0
M  END
