
     RDKit          2D

 19 21  0  0  0  0  0  0  0  0999 V2000
   -1.8067   -3.9790    0.0000 C   0  0  0  0  0  0  0  0  0  0  0  0
   -1.9635   -2.4872    0.0000 C   0  0  0  0  0  0  0  0  0  0  0  0
   -0.4635   -2.4872    0.0000 O   0  0  0  0  0  0  0  0  0  0  0  0
   -0.0000   -1.0607    0.0000 C   0  0  0  0  0  0  0  0  0  0  0  0
    1.0607    0.0000    0.0000 C   0  0  0  0  0  0  0  0  0  0  0  0
    0.0000    1.0607    0.0000 O   0  0  0  0  0  0  0  0  0  0  0  0
   -1.0607    0.0000    0.0000 C   0  0  0  0  0  0  0  0  0  0  0  0
   -2.1213   -1.0607    0.0000 C   0  0  0  0  0  0  0  0  0  0  0  0
   -1.0607   -1.4213    0.0000 C   0  0  0  0  0  0  0  0  0  0  0  0
   -1.6499   -5.4708    0.0000 H   0  0  0  0  0  0  0  0  0  0  0  0
   -3.2985   -4.1358    0.0000 H   0  0  0  0  0  0  0  0  0  0  0  0
   -0.3070   -4.0052    0.0000 H   0  0  0  0  0  0  0  0  0  0  0  0
   -3.4307   -2.7991    0.0000 H   0  0  0  0  0  0  0  0  0  0  0  0
    2.1213    1.0607    0.0000 H   0  0  0  0  0  0  0  0  0  0  0  0
    2.1213   -1.0607    0.0000 H   0  0  0  0  0  0  0  0  0  0  0  0
   -2.1213    1.0607    0.0000 H   0  0  0  0  0  0  0  0  0  0  0  0
   -3.6213   -1.0607    0.0000 H   0  0  0  0  0  0  0  0  0  0  0  0
   -0.7029   -2.1505    0.0000 H   0  0  0  0  0  0  0  0  0  0  0  0
   -1.8331   -3.4071    0.0000 H   0  0  0  0  0  0  0  0  0  0  0  0
  1  2  1  0
  2  3  1  0
  3  4  1  0
  4  5  1  0
  5  6  1  0
  6  7  1  0
  7  8  1  0
  8  9  1  0
  8  2  1  0
  7  4  1  0
  9  4  1  0
  1 10  1  0
  1 11  1  0
  1 12  1  0
  2 13  1  0
  5 14  1  0
  5 15  1  0
  7 16  1  0
  8 17  1  0
  9 18  1  0
  9 19  1  0
M  END
