
     RDKit          3D

 21 22  0  0  0  0  0  0  0  0999 V2000
   -1.3663    1.8638   -0.6398 C   0  0  0  0  0  0  0  0  0  0  0  0
   -1.1836    0.3715   -0.8283 C   0  0  0  0  0  0  0  0  0  0  0  0
   -2.3377   -0.2350   -0.3096 O   0  0  0  0  0  0  0  0  0  0  0  0
   -1.8925   -1.4850    0.0455 C   0  0  0  0  0  0  0  0  0  0  0  0
   -0.5292   -1.2895    0.5698 C   0  0  0  0  0  0  0  0  0  0  0  0
   -0.0846   -0.1539    0.0406 C   0  0  0  0  0  0  0  0  0  0  0  0
    1.2227    0.4839    0.2491 C   0  0  0  0  0  0  0  0  0  0  0  0
    2.4667   -0.1298   -0.2743 C   0  0  0  0  0  0  0  0  0  0  0  0
    2.1594   -0.2429    1.1720 C   0  0  0  0  0  0  0  0  0  0  0  0
   -2.2783    2.1383   -1.2257 H   0  0  0  0  0  0  0  0  0  0  0  0
   -1.6227    2.0064    0.4418 H   0  0  0  0  0  0  0  0  0  0  0  0
   -0.4896    2.4462   -0.9538 H   0  0  0  0  0  0  0  0  0  0  0  0
   -1.0946    0.0668   -1.8709 H   0  0  0  0  0  0  0  0  0  0  0  0
   -1.9203   -2.1339   -0.8536 H   0  0  0  0  0  0  0  0  0  0  0  0
   -2.5879   -1.9339    0.7805 H   0  0  0  0  0  0  0  0  0  0  0  0
   -0.0094   -1.9540    1.2525 H   0  0  0  0  0  0  0  0  0  0  0  0
    1.2227    1.6045    0.3089 H   0  0  0  0  0  0  0  0  0  0  0  0
    2.4437   -1.0886   -0.8514 H   0  0  0  0  0  0  0  0  0  0  0  0
    3.3044    0.5405   -0.5470 H   0  0  0  0  0  0  0  0  0  0  0  0
    1.8859   -1.2462    1.5669 H   0  0  0  0  0  0  0  0  0  0  0  0
    2.6915    0.3706    1.9265 H   0  0  0  0  0  0  0  0  0  0  0  0
  1  2  1  0
  2  3  1  0
  3  4  1  0
  4  5  1  0
  5  6  2  0
  6  7  1  0
  7  8  1  0
  8  9  1  0
  6  2  1  0
  9  7  1  0
  1 10  1  0
  1 11  1  0
  1 12  1  0
  2 13  1  0
  4 14  1  0
  4 15  1  0
  5 16  1  0
  7 17  1  0
  8 18  1  0
  8 19  1  0
  9 20  1  0
  9 21  1  0
M  END
