
     RDKit          3D

 21 22  0  0  0  0  0  0  0  0999 V2000
   -2.1120   -0.3047   -0.7442 C   0  0  0  0  0  0  0  0  0  0  0  0
   -1.0752   -0.1847    0.3411 C   0  0  0  0  0  0  0  0  0  0  0  0
   -0.5331   -1.3986    0.6805 O   0  0  0  0  0  0  0  0  0  0  0  0
    0.7083   -1.6525    0.1635 C   0  0  0  0  0  0  0  0  0  0  0  0
    1.5684   -0.4195    0.1356 C   0  0  0  0  0  0  0  0  0  0  0  0
    1.0611    0.6515    1.1007 C   0  0  0  0  0  0  0  0  0  0  0  0
   -0.0463    0.8795    0.0588 C   0  0  0  0  0  0  0  0  0  0  0  0
   -0.5336    2.1479   -0.0079 O   0  0  0  0  0  0  0  0  0  0  0  0
    0.9682    0.4651   -0.9690 C   0  0  0  0  0  0  0  0  0  0  0  0
   -2.2887    0.6770   -1.2293 H   0  0  0  0  0  0  0  0  0  0  0  0
   -1.8991   -1.1189   -1.4576 H   0  0  0  0  0  0  0  0  0  0  0  0
   -3.1020   -0.5757   -0.2752 H   0  0  0  0  0  0  0  0  0  0  0  0
   -1.6304    0.1763    1.2584 H   0  0  0  0  0  0  0  0  0  0  0  0
    0.5572   -1.9507   -0.9162 H   0  0  0  0  0  0  0  0  0  0  0  0
    1.1615   -2.5123    0.6559 H   0  0  0  0  0  0  0  0  0  0  0  0
    2.6419   -0.5501    0.0928 H   0  0  0  0  0  0  0  0  0  0  0  0
    1.7453    1.5049    1.1174 H   0  0  0  0  0  0  0  0  0  0  0  0
    0.6681    0.2833    2.0468 H   0  0  0  0  0  0  0  0  0  0  0  0
   -0.1103    2.7447    0.6562 H   0  0  0  0  0  0  0  0  0  0  0  0
    0.6121   -0.1530   -1.7996 H   0  0  0  0  0  0  0  0  0  0  0  0
    1.6386    1.2907   -1.2139 H   0  0  0  0  0  0  0  0  0  0  0  0
  1  2  1  0
  2  3  1  0
  3  4  1  0
  4  5  1  0
  5  6  1  0
  6  7  1  0
  7  8  1  0
  7  9  1  0
  7  2  1  0
  9  5  1  0
  1 10  1  0
  1 11  1  0
  1 12  1  0
  2 13  1  0
  4 14  1  0
  4 15  1  0
  5 16  1  0
  6 17  1  0
  6 18  1  0
  8 19  1  0
  9 20  1  0
  9 21  1  0
M  END
