
     RDKit          3D

 19 20  0  0  0  0  0  0  0  0999 V2000
   -1.8217   -1.3727   -0.5013 C   0  0  0  0  0  0  0  0  0  0  0  0
   -0.5276   -0.7969   -0.0477 C   0  0  0  0  0  0  0  0  0  0  0  0
    0.4160   -0.7796   -1.0570 O   0  0  0  0  0  0  0  0  0  0  0  0
    1.6385   -0.3203   -0.6761 C   0  0  0  0  0  0  0  0  0  0  0  0
    1.6741    0.6450    0.4434 C   0  0  0  0  0  0  0  0  0  0  0  0
    1.2632    0.0643    1.6842 O   0  0  0  0  0  0  0  0  0  0  0  0
    0.5153    1.0798    1.0826 C   0  0  0  0  0  0  0  0  0  0  0  0
   -0.7652    0.6507    0.3577 C   0  0  0  0  0  0  0  0  0  0  0  0
   -0.7996    1.4144   -0.8241 O   0  0  0  0  0  0  0  0  0  0  0  0
   -2.3283   -0.6169   -1.1486 H   0  0  0  0  0  0  0  0  0  0  0  0
   -1.6082   -2.3068   -1.0734 H   0  0  0  0  0  0  0  0  0  0  0  0
   -2.4502   -1.5888    0.4091 H   0  0  0  0  0  0  0  0  0  0  0  0
   -0.0728   -1.3614    0.8047 H   0  0  0  0  0  0  0  0  0  0  0  0
    2.2788   -1.2047   -0.3856 H   0  0  0  0  0  0  0  0  0  0  0  0
    2.1453    0.1079   -1.5790 H   0  0  0  0  0  0  0  0  0  0  0  0
    2.6239    1.2504    0.4982 H   0  0  0  0  0  0  0  0  0  0  0  0
    0.4877    2.0071    1.6667 H   0  0  0  0  0  0  0  0  0  0  0  0
   -1.6506    0.7783    0.9759 H   0  0  0  0  0  0  0  0  0  0  0  0
   -1.0185    2.3499   -0.6296 H   0  0  0  0  0  0  0  0  0  0  0  0
  1  2  1  0
  2  3  1  0
  3  4  1  0
  4  5  1  0
  5  6  1  0
  6  7  1  0
  7  8  1  0
  8  9  1  0
  8  2  1  0
  7  5  1  0
  1 10  1  0
  1 11  1  0
  1 12  1  0
  2 13  1  0
  4 14  1  0
  4 15  1  0
  5 16  1  0
  7 17  1  0
  8 18  1  0
  9 19  1  0
M  END
