
     RDKit          3D

 15 16  0  0  0  0  0  0  0  0999 V2000
    2.1493    0.0623    0.1201 C   0  0  0  0  0  0  0  0  0  0  0  0
    0.7705   -0.2849    0.5821 C   0  0  0  0  0  0  0  0  0  0  0  0
    0.0596    0.7146    1.2241 O   0  0  0  0  0  0  0  0  0  0  0  0
   -0.9343    0.7900    0.2941 C   0  0  0  0  0  0  0  0  0  0  0  0
   -1.6606   -0.4297   -0.0954 C   0  0  0  0  0  0  0  0  0  0  0  0
   -2.6433   -0.4332   -1.0459 O   0  0  0  0  0  0  0  0  0  0  0  0
   -0.2550   -0.2295   -0.5292 C   0  0  0  0  0  0  0  0  0  0  0  0
    2.8628   -0.0379    0.9566 H   0  0  0  0  0  0  0  0  0  0  0  0
    2.4380   -0.7159   -0.6458 H   0  0  0  0  0  0  0  0  0  0  0  0
    2.1790    1.0262   -0.3953 H   0  0  0  0  0  0  0  0  0  0  0  0
    0.7544   -1.2744    1.0614 H   0  0  0  0  0  0  0  0  0  0  0  0
   -1.2862    1.7472   -0.0743 H   0  0  0  0  0  0  0  0  0  0  0  0
   -1.8346   -1.1675    0.7338 H   0  0  0  0  0  0  0  0  0  0  0  0
   -2.6426    0.3086   -1.6710 H   0  0  0  0  0  0  0  0  0  0  0  0
    0.0431   -0.0759   -1.5612 H   0  0  0  0  0  0  0  0  0  0  0  0
  1  2  1  0
  2  3  1  0
  3  4  1  0
  4  5  1  0
  5  6  1  0
  5  7  1  0
  7  2  1  0
  7  4  1  0
  1  8  1  0
  1  9  1  0
  1 10  1  0
  2 11  1  0
  4 12  1  0
  5 13  1  0
  6 14  1  0
  7 15  1  0
M  END
