
     RDKit          3D

 17 17  0  0  0  0  0  0  0  0999 V2000
    2.1604    0.3253   -0.6990 C   0  0  0  0  0  0  0  0  0  0  0  0
    1.3502   -0.1541    0.5059 C   0  0  0  0  0  0  0  0  0  0  0  0
    0.6442    0.7911    1.2487 O   0  0  0  0  0  0  0  0  0  0  0  0
   -0.0923   -0.1062    0.5058 C   0  0  0  0  0  0  0  0  0  0  0  0
   -0.8036   -1.2228    1.1735 C   0  0  0  0  0  0  0  0  0  0  0  0
   -1.7277   -1.7662    0.6054 O   0  0  0  0  0  0  0  0  0  0  0  0
   -0.8587    0.5469   -0.6474 C   0  0  0  0  0  0  0  0  0  0  0  0
   -2.2919    0.4244   -0.3345 C   0  0  0  0  0  0  0  0  0  0  0  0
   -2.8026    1.1646    0.4666 O   0  0  0  0  0  0  0  0  0  0  0  0
    1.8392    1.3259   -1.0291 H   0  0  0  0  0  0  0  0  0  0  0  0
    2.0446   -0.4460   -1.4862 H   0  0  0  0  0  0  0  0  0  0  0  0
    3.2350    0.3459   -0.4092 H   0  0  0  0  0  0  0  0  0  0  0  0
    1.8528   -0.9277    1.1113 H   0  0  0  0  0  0  0  0  0  0  0  0
   -0.4968   -1.5441    2.1559 H   0  0  0  0  0  0  0  0  0  0  0  0
   -0.5587    1.6071   -0.7789 H   0  0  0  0  0  0  0  0  0  0  0  0
   -0.6163   -0.0394   -1.5671 H   0  0  0  0  0  0  0  0  0  0  0  0
   -2.8778   -0.3247   -0.8217 H   0  0  0  0  0  0  0  0  0  0  0  0
  1  2  1  0
  2  3  1  0
  3  4  1  0
  4  5  1  0
  5  6  2  0
  4  7  1  0
  7  8  1  0
  8  9  2  0
  4  2  1  0
  1 10  1  0
  1 11  1  0
  1 12  1  0
  2 13  1  0
  5 14  1  0
  7 15  1  0
  7 16  1  0
  8 17  1  0
M  END
