
     RDKit          3D

 16 16  0  0  0  0  0  0  0  0999 V2000
    2.3578    0.2953   -0.1023 C   0  0  0  0  0  0  0  0  0  0  0  0
    0.9272    0.1088    0.2910 C   0  0  0  0  0  0  0  0  0  0  0  0
    0.3991   -1.0642   -0.2109 O   0  0  0  0  0  0  0  0  0  0  0  0
   -0.9112   -1.2388    0.1433 C   0  0  0  0  0  0  0  0  0  0  0  0
   -1.8275   -0.1433   -0.3579 C   0  0  0  0  0  0  0  0  0  0  0  0
   -1.1771    1.1840   -0.1600 C   0  0  0  0  0  0  0  0  0  0  0  0
   -1.8711    2.2244    0.0602 O   0  0  0  0  0  0  0  0  0  0  0  0
    0.2006    1.2307   -0.2264 O   0  0  0  0  0  0  0  0  0  0  0  0
    3.0526   -0.4361    0.3233 H   0  0  0  0  0  0  0  0  0  0  0  0
    2.6622    1.3201    0.2583 H   0  0  0  0  0  0  0  0  0  0  0  0
    2.4264    0.2350   -1.2030 H   0  0  0  0  0  0  0  0  0  0  0  0
    0.8677    0.1863    1.3951 H   0  0  0  0  0  0  0  0  0  0  0  0
   -1.2681   -2.1942   -0.2964 H   0  0  0  0  0  0  0  0  0  0  0  0
   -0.9821   -1.2445    1.2541 H   0  0  0  0  0  0  0  0  0  0  0  0
   -2.7494   -0.1855    0.2550 H   0  0  0  0  0  0  0  0  0  0  0  0
   -2.1072   -0.2780   -1.4232 H   0  0  0  0  0  0  0  0  0  0  0  0
  1  2  1  0
  2  3  1  0
  3  4  1  0
  4  5  1  0
  5  6  1  0
  6  7  2  0
  6  8  1  0
  8  2  1  0
  1  9  1  0
  1 10  1  0
  1 11  1  0
  2 12  1  0
  4 13  1  0
  4 14  1  0
  5 15  1  0
  5 16  1  0
M  END
