
     RDKit          3D

 21 22  0  0  0  0  0  0  0  0999 V2000
    2.1999   -0.7076   -0.2870 C   0  0  0  0  0  0  0  0  0  0  0  0
    0.8430   -0.5026    0.3684 C   0  0  0  0  0  0  0  0  0  0  0  0
    0.7047    0.7361    0.9437 O   0  0  0  0  0  0  0  0  0  0  0  0
    0.6193    1.7837    0.0704 C   0  0  0  0  0  0  0  0  0  0  0  0
   -0.7189    2.1489   -0.2033 O   0  0  0  0  0  0  0  0  0  0  0  0
   -1.5057    1.1280    0.3226 C   0  0  0  0  0  0  0  0  0  0  0  0
   -1.4989   -0.1216   -0.4701 C   0  0  0  0  0  0  0  0  0  0  0  0
   -1.5349   -1.4358    0.2501 C   0  0  0  0  0  0  0  0  0  0  0  0
   -0.2894   -0.9042   -0.5234 C   0  0  0  0  0  0  0  0  0  0  0  0
    2.1101   -1.6227   -0.9233 H   0  0  0  0  0  0  0  0  0  0  0  0
    2.4966    0.1067   -0.9389 H   0  0  0  0  0  0  0  0  0  0  0  0
    2.9435   -0.8344    0.5301 H   0  0  0  0  0  0  0  0  0  0  0  0
    0.8360   -1.2405    1.2281 H   0  0  0  0  0  0  0  0  0  0  0  0
    1.1573    2.6553    0.5493 H   0  0  0  0  0  0  0  0  0  0  0  0
    1.0751    1.5695   -0.9029 H   0  0  0  0  0  0  0  0  0  0  0  0
   -2.5611    1.5308    0.3138 H   0  0  0  0  0  0  0  0  0  0  0  0
   -1.2271    1.0191    1.3808 H   0  0  0  0  0  0  0  0  0  0  0  0
   -2.1333   -0.0925   -1.3976 H   0  0  0  0  0  0  0  0  0  0  0  0
   -1.9962   -2.3240   -0.1924 H   0  0  0  0  0  0  0  0  0  0  0  0
   -1.4877   -1.4282    1.3383 H   0  0  0  0  0  0  0  0  0  0  0  0
   -0.0323   -1.4641   -1.4566 H   0  0  0  0  0  0  0  0  0  0  0  0
  1  2  1  0
  2  3  1  0
  3  4  1  0
  4  5  1  0
  5  6  1  0
  6  7  1  0
  7  8  1  0
  8  9  1  0
  9  2  1  0
  9  7  1  0
  1 10  1  0
  1 11  1  0
  1 12  1  0
  2 13  1  0
  4 14  1  0
  4 15  1  0
  6 16  1  0
  6 17  1  0
  7 18  1  0
  8 19  1  0
  8 20  1  0
  9 21  1  0
M  END
