
     RDKit          3D

 17 19  0  0  0  0  0  0  0  0999 V2000
    2.2811    0.3551   -0.7132 C   0  0  0  0  0  0  0  0  0  0  0  0
    1.4307   -0.3203    0.3483 C   0  0  0  0  0  0  0  0  0  0  0  0
    0.6774   -1.4394   -0.0336 O   0  0  0  0  0  0  0  0  0  0  0  0
    0.0329   -0.2889    0.2403 C   0  0  0  0  0  0  0  0  0  0  0  0
   -0.7812    0.4512   -0.7993 C   0  0  0  0  0  0  0  0  0  0  0  0
   -2.0438    0.1905   -0.4825 C   0  0  0  0  0  0  0  0  0  0  0  0
   -2.0635   -0.6604    0.6701 C   0  0  0  0  0  0  0  0  0  0  0  0
   -1.8953   -0.5788    1.9519 O   0  0  0  0  0  0  0  0  0  0  0  0
   -0.8622   -0.0176    1.3948 C   0  0  0  0  0  0  0  0  0  0  0  0
    1.6552    1.0502   -1.3323 H   0  0  0  0  0  0  0  0  0  0  0  0
    2.9883    1.0285   -0.1616 H   0  0  0  0  0  0  0  0  0  0  0  0
    2.7816   -0.3460   -1.3805 H   0  0  0  0  0  0  0  0  0  0  0  0
    1.9007   -0.4464    1.3483 H   0  0  0  0  0  0  0  0  0  0  0  0
   -0.3864    1.0533   -1.6112 H   0  0  0  0  0  0  0  0  0  0  0  0
   -2.8926    0.5907   -1.0496 H   0  0  0  0  0  0  0  0  0  0  0  0
   -1.8912   -1.7390    0.3202 H   0  0  0  0  0  0  0  0  0  0  0  0
   -0.9319    1.1173    1.5079 H   0  0  0  0  0  0  0  0  0  0  0  0
  1  2  1  0
  2  3  1  0
  3  4  1  0
  4  5  1  0
  5  6  2  0
  6  7  1  0
  7  8  1  0
  8  9  1  0
  4  2  1  0
  9  7  1  0
  9  4  1  0
  1 10  1  0
  1 11  1  0
  1 12  1  0
  2 13  1  0
  5 14  1  0
  6 15  1  0
  7 16  1  0
  9 17  1  0
M  END
