
     RDKit          3D

 17 18  0  0  0  0  0  0  0  0999 V2000
    2.0690   -0.2929   -0.2931 C   0  0  0  0  0  0  0  0  0  0  0  0
    1.0213    0.7891   -0.2321 C   0  0  0  0  0  0  0  0  0  0  0  0
   -0.0054    0.5873   -1.1259 O   0  0  0  0  0  0  0  0  0  0  0  0
   -0.8351   -0.3870   -0.6483 C   0  0  0  0  0  0  0  0  0  0  0  0
   -2.2520    0.0128   -0.3407 C   0  0  0  0  0  0  0  0  0  0  0  0
   -1.9984   -0.1290    1.0345 O   0  0  0  0  0  0  0  0  0  0  0  0
   -0.6758   -0.4383    0.8589 C   0  0  0  0  0  0  0  0  0  0  0  0
    0.2907    0.6810    1.0849 C   0  0  0  0  0  0  0  0  0  0  0  0
    0.4697    1.3599    2.0774 O   0  0  0  0  0  0  0  0  0  0  0  0
    1.6645   -1.2521    0.0676 H   0  0  0  0  0  0  0  0  0  0  0  0
    2.4836   -0.3561   -1.3157 H   0  0  0  0  0  0  0  0  0  0  0  0
    2.9135    0.0430    0.3609 H   0  0  0  0  0  0  0  0  0  0  0  0
    1.4994    1.7636   -0.3502 H   0  0  0  0  0  0  0  0  0  0  0  0
   -0.7403   -1.3494   -1.1645 H   0  0  0  0  0  0  0  0  0  0  0  0
   -2.5206    1.0639   -0.5394 H   0  0  0  0  0  0  0  0  0  0  0  0
   -2.9995   -0.6894   -0.7489 H   0  0  0  0  0  0  0  0  0  0  0  0
   -0.3847   -1.4063    1.2744 H   0  0  0  0  0  0  0  0  0  0  0  0
  1  2  1  0
  2  3  1  0
  3  4  1  0
  4  5  1  0
  5  6  1  0
  6  7  1  0
  7  8  1  0
  8  9  2  0
  8  2  1  0
  7  4  1  0
  1 10  1  0
  1 11  1  0
  1 12  1  0
  2 13  1  0
  4 14  1  0
  5 15  1  0
  5 16  1  0
  7 17  1  0
M  END
