
     RDKit          3D

 21 22  0  0  0  0  0  0  0  0999 V2000
   -2.1991    0.9999    0.0691 C   0  0  0  0  0  0  0  0  0  0  0  0
   -0.7975    0.6674   -0.3204 C   0  0  0  0  0  0  0  0  0  0  0  0
    0.0617    1.3227    0.5562 O   0  0  0  0  0  0  0  0  0  0  0  0
    1.2842    1.4111   -0.1526 C   0  0  0  0  0  0  0  0  0  0  0  0
    1.8789    0.0339   -0.1453 C   0  0  0  0  0  0  0  0  0  0  0  0
    0.9457   -1.0507   -0.5273 C   0  0  0  0  0  0  0  0  0  0  0  0
    0.1001   -1.5969    0.6085 C   0  0  0  0  0  0  0  0  0  0  0  0
   -0.4864   -0.7676   -0.4393 C   0  0  0  0  0  0  0  0  0  0  0  0
   -1.2866   -1.4599   -1.3787 O   0  0  0  0  0  0  0  0  0  0  0  0
   -2.5952    0.4233    0.9111 H   0  0  0  0  0  0  0  0  0  0  0  0
   -2.8437    0.9805   -0.8351 H   0  0  0  0  0  0  0  0  0  0  0  0
   -2.1944    2.0831    0.3908 H   0  0  0  0  0  0  0  0  0  0  0  0
   -0.6180    1.1474   -1.3281 H   0  0  0  0  0  0  0  0  0  0  0  0
    1.9259    2.1038    0.3937 H   0  0  0  0  0  0  0  0  0  0  0  0
    1.0914    1.8075   -1.1705 H   0  0  0  0  0  0  0  0  0  0  0  0
    2.7779    0.0631   -0.8046 H   0  0  0  0  0  0  0  0  0  0  0  0
    2.2916   -0.1257    0.8945 H   0  0  0  0  0  0  0  0  0  0  0  0
    1.3292   -1.7509   -1.2992 H   0  0  0  0  0  0  0  0  0  0  0  0
    0.3127   -1.2274    1.6401 H   0  0  0  0  0  0  0  0  0  0  0  0
   -0.0868   -2.6948    0.6012 H   0  0  0  0  0  0  0  0  0  0  0  0
   -0.8918   -2.3697   -1.5470 H   0  0  0  0  0  0  0  0  0  0  0  0
  1  2  1  0
  2  3  1  0
  3  4  1  0
  4  5  1  0
  5  6  1  0
  6  7  1  0
  7  8  1  0
  8  9  1  0
  8  2  1  0
  8  6  1  0
  1 10  1  0
  1 11  1  0
  1 12  1  0
  2 13  1  0
  4 14  1  0
  4 15  1  0
  5 16  1  0
  5 17  1  0
  6 18  1  0
  7 19  1  0
  7 20  1  0
  9 21  1  0
M  END
