
     RDKit          3D

 21 22  0  0  0  0  0  0  0  0999 V2000
   -1.7840   -1.6357   -0.2712 C   0  0  0  0  0  0  0  0  0  0  0  0
   -1.6516   -0.1238   -0.2957 C   0  0  0  0  0  0  0  0  0  0  0  0
   -1.1463    0.4755   -1.4581 O   0  0  0  0  0  0  0  0  0  0  0  0
   -0.4235    0.5783   -0.1389 C   0  0  0  0  0  0  0  0  0  0  0  0
   -0.4944    2.0122    0.4083 C   0  0  0  0  0  0  0  0  0  0  0  0
    0.9521    0.0873   -0.3500 C   0  0  0  0  0  0  0  0  0  0  0  0
    1.6632    0.8359   -1.3215 O   0  0  0  0  0  0  0  0  0  0  0  0
    1.4381   -1.2564   -0.0965 C   0  0  0  0  0  0  0  0  0  0  0  0
    1.7832   -0.1794    0.8974 C   0  0  0  0  0  0  0  0  0  0  0  0
   -2.8390   -1.9581   -0.4107 H   0  0  0  0  0  0  0  0  0  0  0  0
   -1.5181   -1.9551    0.7691 H   0  0  0  0  0  0  0  0  0  0  0  0
   -1.1953   -2.1298   -1.0470 H   0  0  0  0  0  0  0  0  0  0  0  0
   -2.5906    0.3796    0.0215 H   0  0  0  0  0  0  0  0  0  0  0  0
    0.5003    2.4541    0.5338 H   0  0  0  0  0  0  0  0  0  0  0  0
   -1.1882    2.6337   -0.1707 H   0  0  0  0  0  0  0  0  0  0  0  0
   -0.9256    1.9065    1.4449 H   0  0  0  0  0  0  0  0  0  0  0  0
    2.2209    1.5320   -0.8942 H   0  0  0  0  0  0  0  0  0  0  0  0
    0.8204   -2.1040    0.2538 H   0  0  0  0  0  0  0  0  0  0  0  0
    2.3266   -1.6172   -0.6746 H   0  0  0  0  0  0  0  0  0  0  0  0
    1.2296   -0.1407    1.8565 H   0  0  0  0  0  0  0  0  0  0  0  0
    2.8221    0.2051    0.9437 H   0  0  0  0  0  0  0  0  0  0  0  0
  1  2  1  0
  2  3  1  0
  3  4  1  0
  4  5  1  0
  4  6  1  0
  6  7  1  0
  6  8  1  0
  8  9  1  0
  4  2  1  0
  9  6  1  0
  1 10  1  0
  1 11  1  0
  1 12  1  0
  2 13  1  0
  5 14  1  0
  5 15  1  0
  5 16  1  0
  7 17  1  0
  8 18  1  0
  8 19  1  0
  9 20  1  0
  9 21  1  0
M  END
