
     RDKit          3D

 18 18  0  0  0  0  0  0  0  0999 V2000
   -2.2034   -0.0746   -0.5695 C   0  0  0  0  0  0  0  0  0  0  0  0
   -0.9694   -0.1616    0.3087 C   0  0  0  0  0  0  0  0  0  0  0  0
   -0.6211   -1.4566    0.6769 O   0  0  0  0  0  0  0  0  0  0  0  0
    0.6706   -1.2986    0.1400 C   0  0  0  0  0  0  0  0  0  0  0  0
    0.3275    0.0306   -0.4380 C   0  0  0  0  0  0  0  0  0  0  0  0
    0.1968    0.0095   -1.8138 O   0  0  0  0  0  0  0  0  0  0  0  0
    1.0928    1.2152    0.0778 C   0  0  0  0  0  0  0  0  0  0  0  0
    2.3775    1.2895   -0.4034 O   0  0  0  0  0  0  0  0  0  0  0  0
   -2.1940    0.9045   -1.1075 H   0  0  0  0  0  0  0  0  0  0  0  0
   -2.2967   -0.9246   -1.2579 H   0  0  0  0  0  0  0  0  0  0  0  0
   -3.0745   -0.0727    0.1046 H   0  0  0  0  0  0  0  0  0  0  0  0
   -1.0832    0.4949    1.1855 H   0  0  0  0  0  0  0  0  0  0  0  0
    0.8145   -2.1132   -0.6209 H   0  0  0  0  0  0  0  0  0  0  0  0
    1.4641   -1.3458    0.8922 H   0  0  0  0  0  0  0  0  0  0  0  0
    1.0485   -0.3153   -2.1862 H   0  0  0  0  0  0  0  0  0  0  0  0
    0.5535    2.1275   -0.2757 H   0  0  0  0  0  0  0  0  0  0  0  0
    1.0345    1.2444    1.1894 H   0  0  0  0  0  0  0  0  0  0  0  0
    2.8620    0.4471   -0.4520 H   0  0  0  0  0  0  0  0  0  0  0  0
  1  2  1  0
  2  3  1  0
  3  4  1  0
  4  5  1  0
  5  6  1  0
  5  7  1  0
  7  8  1  0
  5  2  1  0
  1  9  1  0
  1 10  1  0
  1 11  1  0
  2 12  1  0
  4 13  1  0
  4 14  1  0
  6 15  1  0
  7 16  1  0
  7 17  1  0
  8 18  1  0
M  END
