
     RDKit          3D

 19 19  0  0  0  0  0  0  0  0999 V2000
    2.5032   -0.7346   -0.1867 C   0  0  0  0  0  0  0  0  0  0  0  0
    1.2261   -0.0422    0.2380 C   0  0  0  0  0  0  0  0  0  0  0  0
    1.2264    1.2752   -0.1912 O   0  0  0  0  0  0  0  0  0  0  0  0
    0.0330    1.9139   -0.0858 C   0  0  0  0  0  0  0  0  0  0  0  0
   -1.1580    1.0556   -0.1329 C   0  0  0  0  0  0  0  0  0  0  0  0
   -2.2044    1.5178   -0.5107 O   0  0  0  0  0  0  0  0  0  0  0  0
   -0.9864   -0.3696    0.3024 C   0  0  0  0  0  0  0  0  0  0  0  0
   -2.1405   -1.2217   -0.1206 C   0  0  0  0  0  0  0  0  0  0  0  0
    0.1880   -0.7889   -0.3646 O   0  0  0  0  0  0  0  0  0  0  0  0
    2.3579   -1.8242    0.0760 H   0  0  0  0  0  0  0  0  0  0  0  0
    2.6006   -0.7243   -1.2948 H   0  0  0  0  0  0  0  0  0  0  0  0
    3.3955   -0.3507    0.3279 H   0  0  0  0  0  0  0  0  0  0  0  0
    1.0873   -0.1606    1.3196 H   0  0  0  0  0  0  0  0  0  0  0  0
   -0.0346    2.6580   -0.9306 H   0  0  0  0  0  0  0  0  0  0  0  0
   -0.0644    2.5553    0.8389 H   0  0  0  0  0  0  0  0  0  0  0  0
   -0.7783   -0.4568    1.3708 H   0  0  0  0  0  0  0  0  0  0  0  0
   -2.2691   -1.1952   -1.2129 H   0  0  0  0  0  0  0  0  0  0  0  0
   -3.0557   -0.8476    0.3781 H   0  0  0  0  0  0  0  0  0  0  0  0
   -1.9266   -2.2594    0.1789 H   0  0  0  0  0  0  0  0  0  0  0  0
  1  2  1  0
  2  3  1  0
  3  4  1  0
  4  5  1  0
  5  6  2  0
  5  7  1  0
  7  8  1  0
  7  9  1  0
  9  2  1  0
  1 10  1  0
  1 11  1  0
  1 12  1  0
  2 13  1  0
  4 14  1  0
  4 15  1  0
  7 16  1  0
  8 17  1  0
  8 18  1  0
  8 19  1  0
M  END
