
     RDKit          3D

 19 20  0  0  0  0  0  0  0  0999 V2000
   -2.1191    0.3655   -0.2788 C   0  0  0  0  0  0  0  0  0  0  0  0
   -0.8270    0.5801    0.4806 C   0  0  0  0  0  0  0  0  0  0  0  0
   -0.0660    1.5603   -0.1752 O   0  0  0  0  0  0  0  0  0  0  0  0
    1.0896    0.9694   -0.6241 C   0  0  0  0  0  0  0  0  0  0  0  0
    1.8880    0.5729    0.5965 C   0  0  0  0  0  0  0  0  0  0  0  0
    1.2308   -0.4117    1.1996 C   0  0  0  0  0  0  0  0  0  0  0  0
    0.0287   -0.6752    0.4156 C   0  0  0  0  0  0  0  0  0  0  0  0
   -0.6072   -1.8343    0.5754 O   0  0  0  0  0  0  0  0  0  0  0  0
    0.5916   -0.4387   -1.0036 C   0  0  0  0  0  0  0  0  0  0  0  0
   -2.3010   -0.7245   -0.4631 H   0  0  0  0  0  0  0  0  0  0  0  0
   -2.9422    0.8230    0.2989 H   0  0  0  0  0  0  0  0  0  0  0  0
   -2.0907    0.8586   -1.2796 H   0  0  0  0  0  0  0  0  0  0  0  0
   -0.9828    0.8186    1.5408 H   0  0  0  0  0  0  0  0  0  0  0  0
    1.6318    1.4632   -1.3824 H   0  0  0  0  0  0  0  0  0  0  0  0
    2.8191    1.0537    0.8630 H   0  0  0  0  0  0  0  0  0  0  0  0
    1.5647   -0.8934    2.0987 H   0  0  0  0  0  0  0  0  0  0  0  0
   -0.1277   -2.5645    0.0909 H   0  0  0  0  0  0  0  0  0  0  0  0
    1.4170   -1.1172   -1.2022 H   0  0  0  0  0  0  0  0  0  0  0  0
   -0.1976   -0.4059   -1.7511 H   0  0  0  0  0  0  0  0  0  0  0  0
  1  2  1  0
  2  3  1  0
  3  4  1  0
  4  5  1  0
  5  6  2  0
  6  7  1  0
  7  8  1  0
  7  9  1  0
  7  2  1  0
  9  4  1  0
  1 10  1  0
  1 11  1  0
  1 12  1  0
  2 13  1  0
  4 14  1  0
  5 15  1  0
  6 16  1  0
  8 17  1  0
  9 18  1  0
  9 19  1  0
M  END
