
     RDKit          3D

 16 16  0  0  0  0  0  0  0  0999 V2000
   -1.7523    0.3439   -0.3144 C   0  0  0  0  0  0  0  0  0  0  0  0
   -0.8959   -0.6579    0.4599 C   0  0  0  0  0  0  0  0  0  0  0  0
   -0.1224   -1.4302   -0.3606 O   0  0  0  0  0  0  0  0  0  0  0  0
    0.8920   -0.7539   -1.0123 C   0  0  0  0  0  0  0  0  0  0  0  0
    1.5444    0.2185   -0.1232 C   0  0  0  0  0  0  0  0  0  0  0  0
    2.6541    0.6129   -0.4257 O   0  0  0  0  0  0  0  0  0  0  0  0
    0.8875    0.6980    1.0833 C   0  0  0  0  0  0  0  0  0  0  0  0
   -0.2278   -0.0073    1.4680 O   0  0  0  0  0  0  0  0  0  0  0  0
   -2.1454   -0.1158   -1.2503 H   0  0  0  0  0  0  0  0  0  0  0  0
   -1.1378    1.2291   -0.4920 H   0  0  0  0  0  0  0  0  0  0  0  0
   -2.6106    0.6245    0.3400 H   0  0  0  0  0  0  0  0  0  0  0  0
   -1.6325   -1.3400    0.9450 H   0  0  0  0  0  0  0  0  0  0  0  0
    0.5548   -0.2842   -1.9667 H   0  0  0  0  0  0  0  0  0  0  0  0
    1.6580   -1.5285   -1.2912 H   0  0  0  0  0  0  0  0  0  0  0  0
    1.6194    0.5927    1.9367 H   0  0  0  0  0  0  0  0  0  0  0  0
    0.7145    1.7980    1.0036 H   0  0  0  0  0  0  0  0  0  0  0  0
  1  2  1  0
  2  3  1  0
  3  4  1  0
  4  5  1  0
  5  6  2  0
  5  7  1  0
  7  8  1  0
  8  2  1  0
  1  9  1  0
  1 10  1  0
  1 11  1  0
  2 12  1  0
  4 13  1  0
  4 14  1  0
  7 15  1  0
  7 16  1  0
M  END
