
     RDKit          3D

 17 17  0  0  0  0  0  0  0  0999 V2000
    1.9283   -0.1916   -0.4443 C   0  0  0  0  0  0  0  0  0  0  0  0
    0.4823   -0.5741   -0.7177 C   0  0  0  0  0  0  0  0  0  0  0  0
    0.0069   -1.5818    0.1347 O   0  0  0  0  0  0  0  0  0  0  0  0
   -0.1481   -0.5761    1.1082 C   0  0  0  0  0  0  0  0  0  0  0  0
   -0.4393    0.3824   -0.0112 C   0  0  0  0  0  0  0  0  0  0  0  0
   -1.8952    0.2904   -0.4115 C   0  0  0  0  0  0  0  0  0  0  0  0
    0.0085    1.6657    0.1363 O   0  0  0  0  0  0  0  0  0  0  0  0
    2.4182    0.2289   -1.3342 H   0  0  0  0  0  0  0  0  0  0  0  0
    2.4766   -1.0879   -0.0668 H   0  0  0  0  0  0  0  0  0  0  0  0
    2.0149    0.5707    0.3574 H   0  0  0  0  0  0  0  0  0  0  0  0
    0.2489   -0.7876   -1.7753 H   0  0  0  0  0  0  0  0  0  0  0  0
    0.7968   -0.4485    1.6428 H   0  0  0  0  0  0  0  0  0  0  0  0
   -1.0214   -0.7679    1.7681 H   0  0  0  0  0  0  0  0  0  0  0  0
   -2.1052    0.6981   -1.4056 H   0  0  0  0  0  0  0  0  0  0  0  0
   -2.2655   -0.7402   -0.3771 H   0  0  0  0  0  0  0  0  0  0  0  0
   -2.4632    0.8839    0.3566 H   0  0  0  0  0  0  0  0  0  0  0  0
   -0.0432    2.0357    1.0397 H   0  0  0  0  0  0  0  0  0  0  0  0
  1  2  1  0
  2  3  1  0
  3  4  1  0
  4  5  1  0
  5  6  1  0
  5  7  1  0
  5  2  1  0
  1  8  1  0
  1  9  1  0
  1 10  1  0
  2 11  1  0
  4 12  1  0
  4 13  1  0
  6 14  1  0
  6 15  1  0
  6 16  1  0
  7 17  1  0
M  END
