
     RDKit          3D

 19 21  0  0  0  0  0  0  0  0999 V2000
    3.0399    0.1795    0.4568 C   0  0  0  0  0  0  0  0  0  0  0  0
    1.6098   -0.1307    0.0974 C   0  0  0  0  0  0  0  0  0  0  0  0
    1.1948    0.5284   -1.1661 O   0  0  0  0  0  0  0  0  0  0  0  0
    0.6436    0.9099    0.1228 C   0  0  0  0  0  0  0  0  0  0  0  0
   -0.8319    0.6941    0.1524 C   0  0  0  0  0  0  0  0  0  0  0  0
   -1.5248   -0.0428   -0.9443 C   0  0  0  0  0  0  0  0  0  0  0  0
   -2.9227   -0.5461   -0.6658 C   0  0  0  0  0  0  0  0  0  0  0  0
   -2.6166   -0.8783    0.6340 O   0  0  0  0  0  0  0  0  0  0  0  0
   -1.2735   -0.7126    0.3308 C   0  0  0  0  0  0  0  0  0  0  0  0
    3.1114    1.0915    1.0958 H   0  0  0  0  0  0  0  0  0  0  0  0
    3.5048   -0.6765    0.9819 H   0  0  0  0  0  0  0  0  0  0  0  0
    3.5973    0.3784   -0.4779 H   0  0  0  0  0  0  0  0  0  0  0  0
    1.3884   -1.1949    0.0024 H   0  0  0  0  0  0  0  0  0  0  0  0
    0.9776    1.9338    0.4055 H   0  0  0  0  0  0  0  0  0  0  0  0
   -1.4186    1.5193    0.6063 H   0  0  0  0  0  0  0  0  0  0  0  0
   -1.0394   -0.2834   -1.8892 H   0  0  0  0  0  0  0  0  0  0  0  0
   -3.6890    0.2453   -0.7099 H   0  0  0  0  0  0  0  0  0  0  0  0
   -3.1803   -1.4801   -1.2417 H   0  0  0  0  0  0  0  0  0  0  0  0
   -0.5709   -1.5349    0.4488 H   0  0  0  0  0  0  0  0  0  0  0  0
  1  2  1  0
  2  3  1  0
  3  4  1  0
  4  5  1  0
  5  6  1  0
  6  7  1  0
  7  8  1  0
  8  9  1  0
  4  2  1  0
  9  5  1  0
  9  6  1  0
  1 10  1  0
  1 11  1  0
  1 12  1  0
  2 13  1  0
  4 14  1  0
  5 15  1  0
  6 16  1  0
  7 17  1  0
  7 18  1  0
  9 19  1  0
M  END
