
     RDKit          3D

 19 20  0  0  0  0  0  0  0  0999 V2000
    1.4550    1.1670   -0.6804 C   0  0  0  0  0  0  0  0  0  0  0  0
    0.9339    0.3032    0.3974 C   0  0  0  0  0  0  0  0  0  0  0  0
    1.6021   -0.8908    0.4575 O   0  0  0  0  0  0  0  0  0  0  0  0
    0.7175   -1.9151    0.2347 C   0  0  0  0  0  0  0  0  0  0  0  0
   -0.5562   -1.4015    0.7944 C   0  0  0  0  0  0  0  0  0  0  0  0
   -1.3444   -2.0368    1.4297 O   0  0  0  0  0  0  0  0  0  0  0  0
   -0.5256    0.0054    0.3508 C   0  0  0  0  0  0  0  0  0  0  0  0
   -1.3894    0.3316   -0.7874 C   0  0  0  0  0  0  0  0  0  0  0  0
   -1.5836    0.9726    0.5289 C   0  0  0  0  0  0  0  0  0  0  0  0
    2.2643    1.8588   -0.3021 H   0  0  0  0  0  0  0  0  0  0  0  0
    0.7279    1.8094   -1.1861 H   0  0  0  0  0  0  0  0  0  0  0  0
    1.9775    0.5576   -1.4748 H   0  0  0  0  0  0  0  0  0  0  0  0
    1.1178    0.8308    1.3802 H   0  0  0  0  0  0  0  0  0  0  0  0
    0.5647   -1.9841   -0.8739 H   0  0  0  0  0  0  0  0  0  0  0  0
    1.0227   -2.8736    0.6763 H   0  0  0  0  0  0  0  0  0  0  0  0
   -2.1996   -0.4037   -1.0732 H   0  0  0  0  0  0  0  0  0  0  0  0
   -1.0195    0.8749   -1.6703 H   0  0  0  0  0  0  0  0  0  0  0  0
   -1.2679    2.0466    0.6766 H   0  0  0  0  0  0  0  0  0  0  0  0
   -2.4974    0.7475    1.1216 H   0  0  0  0  0  0  0  0  0  0  0  0
  1  2  1  0
  2  3  1  0
  3  4  1  0
  4  5  1  0
  5  6  2  0
  5  7  1  0
  7  8  1  0
  8  9  1  0
  7  2  1  0
  9  7  1  0
  1 10  1  0
  1 11  1  0
  1 12  1  0
  2 13  1  0
  4 14  1  0
  4 15  1  0
  8 16  1  0
  8 17  1  0
  9 18  1  0
  9 19  1  0
M  END
