
     RDKit          3D

 17 18  0  0  0  0  0  0  0  0999 V2000
   -2.1679    0.2397   -0.7861 C   0  0  0  0  0  0  0  0  0  0  0  0
   -1.3892   -0.7358    0.0483 C   0  0  0  0  0  0  0  0  0  0  0  0
   -0.5814   -1.5231   -0.7662 O   0  0  0  0  0  0  0  0  0  0  0  0
    0.6298   -0.9981   -0.4182 C   0  0  0  0  0  0  0  0  0  0  0  0
    0.8787    0.4442   -0.2367 C   0  0  0  0  0  0  0  0  0  0  0  0
    2.1899    0.8299    0.4131 C   0  0  0  0  0  0  0  0  0  0  0  0
   -0.1137   -0.1807    0.6657 C   0  0  0  0  0  0  0  0  0  0  0  0
   -1.7093    0.4031   -1.7972 H   0  0  0  0  0  0  0  0  0  0  0  0
   -2.2845    1.2301   -0.3206 H   0  0  0  0  0  0  0  0  0  0  0  0
   -3.2002   -0.1764   -0.8927 H   0  0  0  0  0  0  0  0  0  0  0  0
   -2.0013   -1.2572    0.7872 H   0  0  0  0  0  0  0  0  0  0  0  0
    1.4113   -1.6967   -0.0772 H   0  0  0  0  0  0  0  0  0  0  0  0
    0.5718    1.1032   -1.0621 H   0  0  0  0  0  0  0  0  0  0  0  0
    2.0185    1.4640    1.3218 H   0  0  0  0  0  0  0  0  0  0  0  0
    2.8336    1.3830   -0.3145 H   0  0  0  0  0  0  0  0  0  0  0  0
    2.7716   -0.0968    0.6813 H   0  0  0  0  0  0  0  0  0  0  0  0
    0.1423   -0.4324    1.6958 H   0  0  0  0  0  0  0  0  0  0  0  0
  1  2  1  0
  2  3  1  0
  3  4  1  0
  4  5  1  0
  5  6  1  0
  5  7  1  0
  7  2  1  0
  7  4  1  0
  1  8  1  0
  1  9  1  0
  1 10  1  0
  2 11  1  0
  4 12  1  0
  5 13  1  0
  6 14  1  0
  6 15  1  0
  6 16  1  0
  7 17  1  0
M  END
