
     RDKit          3D

 19 19  0  0  0  0  0  0  0  0999 V2000
    1.2222   -0.9927    0.9456 C   0  0  0  0  0  0  0  0  0  0  0  0
    1.3016   -0.3073   -0.3652 C   0  0  0  0  0  0  0  0  0  0  0  0
    1.8593    0.9806   -0.2282 O   0  0  0  0  0  0  0  0  0  0  0  0
    0.6315    1.6196   -0.5187 C   0  0  0  0  0  0  0  0  0  0  0  0
    0.0861    0.3104   -0.9309 C   0  0  0  0  0  0  0  0  0  0  0  0
   -1.2413   -0.1044   -0.3988 C   0  0  0  0  0  0  0  0  0  0  0  0
   -1.4640   -1.4620   -0.5738 O   0  0  0  0  0  0  0  0  0  0  0  0
   -1.5190    0.2650    0.9795 C   0  0  0  0  0  0  0  0  0  0  0  0
   -1.8870   -0.5939    1.7620 O   0  0  0  0  0  0  0  0  0  0  0  0
    0.4752   -1.7921    1.0228 H   0  0  0  0  0  0  0  0  0  0  0  0
    2.2187   -1.4935    1.1240 H   0  0  0  0  0  0  0  0  0  0  0  0
    1.1406   -0.2548    1.7934 H   0  0  0  0  0  0  0  0  0  0  0  0
    1.9364   -0.8733   -1.1016 H   0  0  0  0  0  0  0  0  0  0  0  0
    0.2193    2.1047    0.3796 H   0  0  0  0  0  0  0  0  0  0  0  0
    0.7543    2.3808   -1.3162 H   0  0  0  0  0  0  0  0  0  0  0  0
    0.0833    0.2227   -2.0538 H   0  0  0  0  0  0  0  0  0  0  0  0
   -2.0179    0.4075   -1.0425 H   0  0  0  0  0  0  0  0  0  0  0  0
   -2.3676   -1.6763   -0.8821 H   0  0  0  0  0  0  0  0  0  0  0  0
   -1.4315    1.2589    1.4049 H   0  0  0  0  0  0  0  0  0  0  0  0
  1  2  1  0
  2  3  1  0
  3  4  1  0
  4  5  1  0
  5  6  1  0
  6  7  1  0
  6  8  1  0
  8  9  2  0
  5  2  1  0
  1 10  1  0
  1 11  1  0
  1 12  1  0
  2 13  1  0
  4 14  1  0
  4 15  1  0
  5 16  1  0
  6 17  1  0
  7 18  1  0
  8 19  1  0
M  END
