
     RDKit          3D

 19 20  0  0  0  0  0  0  0  0999 V2000
   -3.8689   -0.6157    0.1061 C   0  0  0  0  0  0  0  0  0  0  0  0
   -2.3530   -0.6568    0.0971 C   0  0  0  0  0  0  0  0  0  0  0  0
   -1.8949   -0.9431   -1.2817 O   0  0  0  0  0  0  0  0  0  0  0  0
   -1.5939    0.2641   -0.6931 C   0  0  0  0  0  0  0  0  0  0  0  0
   -0.1846    0.4736   -0.3406 C   0  0  0  0  0  0  0  0  0  0  0  0
    0.9899    0.6479   -0.0563 C   0  0  0  0  0  0  0  0  0  0  0  0
    2.3976    0.8797    0.2735 C   0  0  0  0  0  0  0  0  0  0  0  0
    3.0866   -0.2344    0.9696 C   0  0  0  0  0  0  0  0  0  0  0  0
    3.3983    0.1323   -0.4775 C   0  0  0  0  0  0  0  0  0  0  0  0
   -4.2066    0.3571   -0.2880 H   0  0  0  0  0  0  0  0  0  0  0  0
   -4.2700   -1.3994   -0.5960 H   0  0  0  0  0  0  0  0  0  0  0  0
   -4.2685   -0.7458    1.1278 H   0  0  0  0  0  0  0  0  0  0  0  0
   -1.8393   -1.3691    0.7628 H   0  0  0  0  0  0  0  0  0  0  0  0
   -2.1466    1.1382   -1.1486 H   0  0  0  0  0  0  0  0  0  0  0  0
    2.6917    1.9102    0.6259 H   0  0  0  0  0  0  0  0  0  0  0  0
    3.8594    0.0090    1.7406 H   0  0  0  0  0  0  0  0  0  0  0  0
    2.6453   -1.2288    1.0899 H   0  0  0  0  0  0  0  0  0  0  0  0
    4.4224    0.5794   -0.6388 H   0  0  0  0  0  0  0  0  0  0  0  0
    3.1352   -0.6081   -1.2728 H   0  0  0  0  0  0  0  0  0  0  0  0
  1  2  1  0
  2  3  1  0
  3  4  1  0
  4  5  1  0
  5  6  3  0
  6  7  1  0
  7  8  1  0
  8  9  1  0
  4  2  1  0
  9  7  1  0
  1 10  1  0
  1 11  1  0
  1 12  1  0
  2 13  1  0
  4 14  1  0
  7 15  1  0
  8 16  1  0
  8 17  1  0
  9 18  1  0
  9 19  1  0
M  END
