
     RDKit          3D

 23 24  0  0  0  0  0  0  0  0999 V2000
    2.6489   -0.0540    0.4672 C   0  0  0  0  0  0  0  0  0  0  0  0
    1.2770   -0.5919    0.1555 C   0  0  0  0  0  0  0  0  0  0  0  0
    1.0021   -0.4957   -1.2353 O   0  0  0  0  0  0  0  0  0  0  0  0
   -0.0502    0.3888   -1.2928 C   0  0  0  0  0  0  0  0  0  0  0  0
    0.3516    1.4690   -0.2759 C   0  0  0  0  0  0  0  0  0  0  0  0
    0.1671    0.2780    0.6780 C   0  0  0  0  0  0  0  0  0  0  0  0
   -0.9741   -0.1314   -0.2138 C   0  0  0  0  0  0  0  0  0  0  0  0
   -2.2601    0.5855   -0.0387 C   0  0  0  0  0  0  0  0  0  0  0  0
   -1.2023   -1.6003   -0.3592 C   0  0  0  0  0  0  0  0  0  0  0  0
    3.0621    0.5574   -0.3578 H   0  0  0  0  0  0  0  0  0  0  0  0
    2.5583    0.5915    1.3747 H   0  0  0  0  0  0  0  0  0  0  0  0
    3.3727   -0.8747    0.6840 H   0  0  0  0  0  0  0  0  0  0  0  0
    1.2277   -1.6229    0.5096 H   0  0  0  0  0  0  0  0  0  0  0  0
   -0.4521    0.7098   -2.2156 H   0  0  0  0  0  0  0  0  0  0  0  0
    1.3969    1.7772   -0.4055 H   0  0  0  0  0  0  0  0  0  0  0  0
   -0.3549    2.2764   -0.1533 H   0  0  0  0  0  0  0  0  0  0  0  0
    0.0342    0.4611    1.6978 H   0  0  0  0  0  0  0  0  0  0  0  0
   -2.1796    1.5770    0.4394 H   0  0  0  0  0  0  0  0  0  0  0  0
   -2.7785    0.6207   -1.0257 H   0  0  0  0  0  0  0  0  0  0  0  0
   -2.9112   -0.0273    0.6202 H   0  0  0  0  0  0  0  0  0  0  0  0
   -2.0654   -1.7393   -1.0441 H   0  0  0  0  0  0  0  0  0  0  0  0
   -1.5147   -2.0087    0.6222 H   0  0  0  0  0  0  0  0  0  0  0  0
   -0.3555   -2.1462   -0.8126 H   0  0  0  0  0  0  0  0  0  0  0  0
  1  2  1  0
  2  3  1  0
  3  4  1  0
  4  5  1  0
  5  6  1  0
  6  7  1  0
  7  8  1  0
  7  9  1  0
  6  2  1  0
  7  4  1  0
  1 10  1  0
  1 11  1  0
  1 12  1  0
  2 13  1  0
  4 14  1  0
  5 15  1  0
  5 16  1  0
  6 17  1  0
  8 18  1  0
  8 19  1  0
  8 20  1  0
  9 21  1  0
  9 22  1  0
  9 23  1  0
M  END
