
     RDKit          3D

 21 22  0  0  0  0  0  0  0  0999 V2000
    2.6251   -0.1666   -0.0234 C   0  0  0  0  0  0  0  0  0  0  0  0
    1.3662   -0.9198   -0.3040 C   0  0  0  0  0  0  0  0  0  0  0  0
    0.4337   -0.9540    0.7439 O   0  0  0  0  0  0  0  0  0  0  0  0
   -0.5186   -1.1004   -0.2631 C   0  0  0  0  0  0  0  0  0  0  0  0
   -1.8921   -0.6185    0.0435 C   0  0  0  0  0  0  0  0  0  0  0  0
   -1.9979    0.7906    0.4810 C   0  0  0  0  0  0  0  0  0  0  0  0
   -0.8764    1.6578    0.0398 C   0  0  0  0  0  0  0  0  0  0  0  0
    0.1535    1.2270   -0.6600 C   0  0  0  0  0  0  0  0  0  0  0  0
    0.3081   -0.1692   -1.0847 C   0  0  0  0  0  0  0  0  0  0  0  0
    3.2861   -0.8179    0.5673 H   0  0  0  0  0  0  0  0  0  0  0  0
    3.1214    0.0368   -0.9959 H   0  0  0  0  0  0  0  0  0  0  0  0
    2.4519    0.8213    0.4452 H   0  0  0  0  0  0  0  0  0  0  0  0
    1.5701   -1.9288   -0.6657 H   0  0  0  0  0  0  0  0  0  0  0  0
   -0.5286   -2.1422   -0.6081 H   0  0  0  0  0  0  0  0  0  0  0  0
   -2.5227   -0.8066   -0.8372 H   0  0  0  0  0  0  0  0  0  0  0  0
   -2.3037   -1.2910    0.8531 H   0  0  0  0  0  0  0  0  0  0  0  0
   -2.9304    1.2353    0.0317 H   0  0  0  0  0  0  0  0  0  0  0  0
   -2.0575    0.8385    1.5813 H   0  0  0  0  0  0  0  0  0  0  0  0
   -0.9292    2.7031    0.3214 H   0  0  0  0  0  0  0  0  0  0  0  0
    0.9180    1.9593   -0.9268 H   0  0  0  0  0  0  0  0  0  0  0  0
    0.3227   -0.3546   -2.1763 H   0  0  0  0  0  0  0  0  0  0  0  0
  1  2  1  0
  2  3  1  0
  3  4  1  0
  4  5  1  0
  5  6  1  0
  6  7  1  0
  7  8  2  0
  8  9  1  0
  9  2  1  0
  9  4  1  0
  1 10  1  0
  1 11  1  0
  1 12  1  0
  2 13  1  0
  4 14  1  0
  5 15  1  0
  5 16  1  0
  6 17  1  0
  6 18  1  0
  7 19  1  0
  8 20  1  0
  9 21  1  0
M  END
