
     RDKit          3D

 19 20  0  0  0  0  0  0  0  0999 V2000
   -2.3608    0.1087    0.2447 C   0  0  0  0  0  0  0  0  0  0  0  0
   -0.9154    0.1343    0.7418 C   0  0  0  0  0  0  0  0  0  0  0  0
   -0.3778    1.3706    0.3877 O   0  0  0  0  0  0  0  0  0  0  0  0
    0.1475    1.2821   -0.8792 C   0  0  0  0  0  0  0  0  0  0  0  0
    0.4039    2.2349   -1.6232 O   0  0  0  0  0  0  0  0  0  0  0  0
    0.3545   -0.1425   -1.2032 C   0  0  0  0  0  0  0  0  0  0  0  0
    1.2661   -0.8717   -0.2824 C   0  0  0  0  0  0  0  0  0  0  0  0
    2.2309   -0.0179    0.5372 C   0  0  0  0  0  0  0  0  0  0  0  0
   -0.1614   -0.9006   -0.0028 C   0  0  0  0  0  0  0  0  0  0  0  0
   -2.8759    0.9884    0.6774 H   0  0  0  0  0  0  0  0  0  0  0  0
   -2.8463   -0.8473    0.4512 H   0  0  0  0  0  0  0  0  0  0  0  0
   -2.3524    0.2934   -0.8692 H   0  0  0  0  0  0  0  0  0  0  0  0
   -0.9479   -0.0572    1.8326 H   0  0  0  0  0  0  0  0  0  0  0  0
    0.0509   -0.5469   -2.1730 H   0  0  0  0  0  0  0  0  0  0  0  0
    1.7332   -1.7990   -0.6441 H   0  0  0  0  0  0  0  0  0  0  0  0
    1.6912    0.3888    1.4206 H   0  0  0  0  0  0  0  0  0  0  0  0
    2.6052    0.8457   -0.0607 H   0  0  0  0  0  0  0  0  0  0  0  0
    3.0787   -0.6173    0.9233 H   0  0  0  0  0  0  0  0  0  0  0  0
   -0.7242   -1.8466   -0.1794 H   0  0  0  0  0  0  0  0  0  0  0  0
  1  2  1  0
  2  3  1  0
  3  4  1  0
  4  5  2  0
  4  6  1  0
  6  7  1  0
  7  8  1  0
  7  9  1  0
  9  2  1  0
  9  6  1  0
  1 10  1  0
  1 11  1  0
  1 12  1  0
  2 13  1  0
  6 14  1  0
  7 15  1  0
  8 16  1  0
  8 17  1  0
  8 18  1  0
  9 19  1  0
M  END
