
     RDKit          3D

 23 23  0  0  0  0  0  0  0  0999 V2000
   -1.9140    1.4607   -0.1320 C   0  0  0  0  0  0  0  0  0  0  0  0
   -1.9324   -0.0378   -0.3594 C   0  0  0  0  0  0  0  0  0  0  0  0
   -1.1279   -0.5602   -1.3896 O   0  0  0  0  0  0  0  0  0  0  0  0
   -0.8349   -0.8549    0.0324 C   0  0  0  0  0  0  0  0  0  0  0  0
   -1.1646   -2.3084    0.4054 C   0  0  0  0  0  0  0  0  0  0  0  0
    0.5224   -0.3984    0.3933 C   0  0  0  0  0  0  0  0  0  0  0  0
    1.1490    0.3368   -0.7669 C   0  0  0  0  0  0  0  0  0  0  0  0
    2.5458    0.8016   -0.3822 C   0  0  0  0  0  0  0  0  0  0  0  0
    2.4141    1.6416    0.7085 O   0  0  0  0  0  0  0  0  0  0  0  0
   -1.1166    1.7298    0.5977 H   0  0  0  0  0  0  0  0  0  0  0  0
   -2.8706    1.7803    0.3404 H   0  0  0  0  0  0  0  0  0  0  0  0
   -1.8366    2.0297   -1.0811 H   0  0  0  0  0  0  0  0  0  0  0  0
   -2.9509   -0.4741   -0.3907 H   0  0  0  0  0  0  0  0  0  0  0  0
   -0.2320   -2.8522    0.6648 H   0  0  0  0  0  0  0  0  0  0  0  0
   -1.7607   -2.7804   -0.3780 H   0  0  0  0  0  0  0  0  0  0  0  0
   -1.8033   -2.2185    1.3304 H   0  0  0  0  0  0  0  0  0  0  0  0
    0.5631    0.2022    1.3332 H   0  0  0  0  0  0  0  0  0  0  0  0
    1.1775   -1.3045    0.5569 H   0  0  0  0  0  0  0  0  0  0  0  0
    0.5130    1.1819   -1.0769 H   0  0  0  0  0  0  0  0  0  0  0  0
    1.2382   -0.3513   -1.6219 H   0  0  0  0  0  0  0  0  0  0  0  0
    3.1333   -0.1169   -0.1472 H   0  0  0  0  0  0  0  0  0  0  0  0
    3.0055    1.3262   -1.2457 H   0  0  0  0  0  0  0  0  0  0  0  0
    3.2825    1.7666    1.1533 H   0  0  0  0  0  0  0  0  0  0  0  0
  1  2  1  0
  2  3  1  0
  3  4  1  0
  4  5  1  0
  4  6  1  0
  6  7  1  0
  7  8  1  0
  8  9  1  0
  4  2  1  0
  1 10  1  0
  1 11  1  0
  1 12  1  0
  2 13  1  0
  5 14  1  0
  5 15  1  0
  5 16  1  0
  6 17  1  0
  6 18  1  0
  7 19  1  0
  7 20  1  0
  8 21  1  0
  8 22  1  0
  9 23  1  0
M  END
