
     RDKit          3D

 19 20  0  0  0  0  0  0  0  0999 V2000
   -1.1918   -0.9294    1.3041 C   0  0  0  0  0  0  0  0  0  0  0  0
   -0.9355   -1.1162   -0.1549 C   0  0  0  0  0  0  0  0  0  0  0  0
   -1.8096   -0.2908   -0.8556 O   0  0  0  0  0  0  0  0  0  0  0  0
   -1.2298    0.9750   -0.9610 C   0  0  0  0  0  0  0  0  0  0  0  0
    0.1531    0.8435   -0.4814 C   0  0  0  0  0  0  0  0  0  0  0  0
    1.2491    1.3774   -0.0139 C   0  0  0  0  0  0  0  0  0  0  0  0
    2.2313    0.2814    0.1894 C   0  0  0  0  0  0  0  0  0  0  0  0
    1.4362   -0.8534    0.3386 O   0  0  0  0  0  0  0  0  0  0  0  0
    0.4119   -0.6357   -0.5736 C   0  0  0  0  0  0  0  0  0  0  0  0
   -2.2528   -1.2024    1.4995 H   0  0  0  0  0  0  0  0  0  0  0  0
   -0.5871   -1.6151    1.9439 H   0  0  0  0  0  0  0  0  0  0  0  0
   -1.0878    0.1365    1.6329 H   0  0  0  0  0  0  0  0  0  0  0  0
   -1.1296   -2.1633   -0.4108 H   0  0  0  0  0  0  0  0  0  0  0  0
   -1.2336    1.2293   -2.0509 H   0  0  0  0  0  0  0  0  0  0  0  0
   -1.8253    1.7141   -0.3704 H   0  0  0  0  0  0  0  0  0  0  0  0
    1.4555    2.4413    0.2062 H   0  0  0  0  0  0  0  0  0  0  0  0
    2.8425    0.4295    1.1010 H   0  0  0  0  0  0  0  0  0  0  0  0
    2.8506    0.2374   -0.7402 H   0  0  0  0  0  0  0  0  0  0  0  0
    0.6526   -0.8591   -1.6029 H   0  0  0  0  0  0  0  0  0  0  0  0
  1  2  1  0
  2  3  1  0
  3  4  1  0
  4  5  1  0
  5  6  2  0
  6  7  1  0
  7  8  1  0
  8  9  1  0
  9  2  1  0
  9  5  1  0
  1 10  1  0
  1 11  1  0
  1 12  1  0
  2 13  1  0
  4 14  1  0
  4 15  1  0
  6 16  1  0
  7 17  1  0
  7 18  1  0
  9 19  1  0
M  END
