
     RDKit          3D

 21 22  0  0  0  0  0  0  0  0999 V2000
    2.3407   -0.8445   -0.1094 C   0  0  0  0  0  0  0  0  0  0  0  0
    1.7237    0.3084   -0.7786 C   0  0  0  0  0  0  0  0  0  0  0  0
    1.4678    1.4694   -0.0066 O   0  0  0  0  0  0  0  0  0  0  0  0
    0.4437    0.6961    0.4985 C   0  0  0  0  0  0  0  0  0  0  0  0
    0.2335    0.3194   -1.0105 C   0  0  0  0  0  0  0  0  0  0  0  0
   -0.8227    0.3593   -0.0285 C   0  0  0  0  0  0  0  0  0  0  0  0
   -1.8942    1.4645    0.0336 C   0  0  0  0  0  0  0  0  0  0  0  0
   -1.4728   -1.0001    0.2639 C   0  0  0  0  0  0  0  0  0  0  0  0
   -1.6560   -1.1568    1.6412 O   0  0  0  0  0  0  0  0  0  0  0  0
    1.6359   -1.6967    0.0245 H   0  0  0  0  0  0  0  0  0  0  0  0
    3.1727   -1.2937   -0.7349 H   0  0  0  0  0  0  0  0  0  0  0  0
    2.8736   -0.5949    0.8566 H   0  0  0  0  0  0  0  0  0  0  0  0
    2.3533    0.6408   -1.6347 H   0  0  0  0  0  0  0  0  0  0  0  0
    0.9077   -0.1392    1.1068 H   0  0  0  0  0  0  0  0  0  0  0  0
    0.0622    1.1862   -1.7218 H   0  0  0  0  0  0  0  0  0  0  0  0
   -1.4399    2.4364    0.3216 H   0  0  0  0  0  0  0  0  0  0  0  0
   -2.3585    1.5999   -0.9826 H   0  0  0  0  0  0  0  0  0  0  0  0
   -2.6836    1.2129    0.7323 H   0  0  0  0  0  0  0  0  0  0  0  0
   -0.9010   -1.8292   -0.1813 H   0  0  0  0  0  0  0  0  0  0  0  0
   -2.5003   -1.0480   -0.1700 H   0  0  0  0  0  0  0  0  0  0  0  0
   -1.4858   -2.0902    1.8799 H   0  0  0  0  0  0  0  0  0  0  0  0
  1  2  1  0
  2  3  1  0
  3  4  1  0
  4  5  1  0
  5  6  1  0
  6  7  1  0
  6  8  1  0
  8  9  1  0
  5  2  1  0
  6  4  1  0
  1 10  1  0
  1 11  1  0
  1 12  1  0
  2 13  1  0
  4 14  1  0
  5 15  1  0
  7 16  1  0
  7 17  1  0
  7 18  1  0
  8 19  1  0
  8 20  1  0
  9 21  1  0
M  END
