
     RDKit          3D

 16 18  0  0  0  0  0  0  0  0999 V2000
    1.9750    0.2645   -0.6137 C   0  0  0  0  0  0  0  0  0  0  0  0
    0.8927   -0.0169    0.4021 C   0  0  0  0  0  0  0  0  0  0  0  0
    0.2247    1.1337    0.6952 O   0  0  0  0  0  0  0  0  0  0  0  0
   -1.1338    0.9316    0.6043 C   0  0  0  0  0  0  0  0  0  0  0  0
   -1.6265    0.2019   -0.6650 C   0  0  0  0  0  0  0  0  0  0  0  0
   -0.7130   -0.5751   -1.3401 O   0  0  0  0  0  0  0  0  0  0  0  0
   -0.1333   -1.0140   -0.1491 C   0  0  0  0  0  0  0  0  0  0  0  0
   -1.3476   -0.5071    0.5682 C   0  0  0  0  0  0  0  0  0  0  0  0
    2.5985    1.0748   -0.1771 H   0  0  0  0  0  0  0  0  0  0  0  0
    2.6411   -0.5906   -0.7943 H   0  0  0  0  0  0  0  0  0  0  0  0
    1.5330    0.6746   -1.5449 H   0  0  0  0  0  0  0  0  0  0  0  0
    1.3638   -0.5123    1.2656 H   0  0  0  0  0  0  0  0  0  0  0  0
   -1.7842    1.6747    1.0470 H   0  0  0  0  0  0  0  0  0  0  0  0
   -2.6158    0.4226   -1.0454 H   0  0  0  0  0  0  0  0  0  0  0  0
    0.1233   -2.0584   -0.0670 H   0  0  0  0  0  0  0  0  0  0  0  0
   -1.9978   -1.1039    1.1635 H   0  0  0  0  0  0  0  0  0  0  0  0
  1  2  1  0
  2  3  1  0
  3  4  1  0
  4  5  1  0
  5  6  1  0
  6  7  1  0
  7  8  1  0
  7  2  1  0
  8  4  1  0
  8  5  1  0
  1  9  1  0
  1 10  1  0
  1 11  1  0
  2 12  1  0
  4 13  1  0
  5 14  1  0
  7 15  1  0
  8 16  1  0
M  END
