
     RDKit          3D

 20 20  0  0  0  0  0  0  0  0999 V2000
   -0.5913    2.0782    0.0869 C   0  0  0  0  0  0  0  0  0  0  0  0
   -0.0497    0.7353   -0.4253 C   0  0  0  0  0  0  0  0  0  0  0  0
    1.3113    0.8318   -0.3034 O   0  0  0  0  0  0  0  0  0  0  0  0
    2.0084   -0.3230   -0.3515 C   0  0  0  0  0  0  0  0  0  0  0  0
    1.3901   -1.5149    0.2724 C   0  0  0  0  0  0  0  0  0  0  0  0
    0.0565   -1.5215    0.4306 O   0  0  0  0  0  0  0  0  0  0  0  0
   -0.6233   -0.3596    0.4053 C   0  0  0  0  0  0  0  0  0  0  0  0
   -2.0612   -0.6639   -0.0263 C   0  0  0  0  0  0  0  0  0  0  0  0
   -0.1558    2.9114   -0.5097 H   0  0  0  0  0  0  0  0  0  0  0  0
   -0.1229    2.1901    1.1090 H   0  0  0  0  0  0  0  0  0  0  0  0
   -1.6739    2.0886    0.1597 H   0  0  0  0  0  0  0  0  0  0  0  0
   -0.3283    0.6959   -1.4942 H   0  0  0  0  0  0  0  0  0  0  0  0
    3.0014   -0.1540    0.1612 H   0  0  0  0  0  0  0  0  0  0  0  0
    2.2978   -0.5158   -1.4243 H   0  0  0  0  0  0  0  0  0  0  0  0
    1.8687   -1.7583    1.2680 H   0  0  0  0  0  0  0  0  0  0  0  0
    1.6745   -2.4068   -0.3643 H   0  0  0  0  0  0  0  0  0  0  0  0
   -0.7079    0.0358    1.4588 H   0  0  0  0  0  0  0  0  0  0  0  0
   -2.4035    0.0020   -0.8254 H   0  0  0  0  0  0  0  0  0  0  0  0
   -2.1308   -1.7076   -0.4484 H   0  0  0  0  0  0  0  0  0  0  0  0
   -2.7604   -0.6439    0.8209 H   0  0  0  0  0  0  0  0  0  0  0  0
  1  2  1  0
  2  3  1  0
  3  4  1  0
  4  5  1  0
  5  6  1  0
  6  7  1  0
  7  8  1  0
  7  2  1  0
  1  9  1  0
  1 10  1  0
  1 11  1  0
  2 12  1  0
  4 13  1  0
  4 14  1  0
  5 15  1  0
  5 16  1  0
  7 17  1  0
  8 18  1  0
  8 19  1  0
  8 20  1  0
M  END
