
     RDKit          3D

 21 22  0  0  0  0  0  0  0  0999 V2000
   -1.4269   -1.5048   -0.1567 C   0  0  0  0  0  0  0  0  0  0  0  0
   -1.4352   -0.0475    0.1355 C   0  0  0  0  0  0  0  0  0  0  0  0
   -1.4151    0.7421   -1.0389 O   0  0  0  0  0  0  0  0  0  0  0  0
   -1.1511    1.9986   -0.4725 C   0  0  0  0  0  0  0  0  0  0  0  0
   -0.2353    1.8163    0.5299 O   0  0  0  0  0  0  0  0  0  0  0  0
   -0.1471    0.4386    0.7781 C   0  0  0  0  0  0  0  0  0  0  0  0
    0.9895   -0.0838   -0.0566 C   0  0  0  0  0  0  0  0  0  0  0  0
    2.3841    0.2288    0.3243 C   0  0  0  0  0  0  0  0  0  0  0  0
    1.8292   -1.1441    0.5570 C   0  0  0  0  0  0  0  0  0  0  0  0
   -0.4005   -1.9267   -0.2146 H   0  0  0  0  0  0  0  0  0  0  0  0
   -2.0570   -2.0318    0.5944 H   0  0  0  0  0  0  0  0  0  0  0  0
   -1.8799   -1.6568   -1.1634 H   0  0  0  0  0  0  0  0  0  0  0  0
   -2.2848    0.3057    0.7294 H   0  0  0  0  0  0  0  0  0  0  0  0
   -0.7886    2.6929   -1.2721 H   0  0  0  0  0  0  0  0  0  0  0  0
   -2.1528    2.3551   -0.0918 H   0  0  0  0  0  0  0  0  0  0  0  0
   -0.0812    0.2017    1.8388 H   0  0  0  0  0  0  0  0  0  0  0  0
    0.7818   -0.0862   -1.1456 H   0  0  0  0  0  0  0  0  0  0  0  0
    2.5201    0.8820    1.2140 H   0  0  0  0  0  0  0  0  0  0  0  0
    3.1845    0.2931   -0.4159 H   0  0  0  0  0  0  0  0  0  0  0  0
    2.1736   -1.9724   -0.1206 H   0  0  0  0  0  0  0  0  0  0  0  0
    1.5929   -1.5008    1.5696 H   0  0  0  0  0  0  0  0  0  0  0  0
  1  2  1  0
  2  3  1  0
  3  4  1  0
  4  5  1  0
  5  6  1  0
  6  7  1  0
  7  8  1  0
  8  9  1  0
  6  2  1  0
  9  7  1  0
  1 10  1  0
  1 11  1  0
  1 12  1  0
  2 13  1  0
  4 14  1  0
  4 15  1  0
  6 16  1  0
  7 17  1  0
  8 18  1  0
  8 19  1  0
  9 20  1  0
  9 21  1  0
M  END
