
     RDKit          3D

 19 20  0  0  0  0  0  0  0  0999 V2000
    2.0897   -0.1299   -0.2455 C   0  0  0  0  0  0  0  0  0  0  0  0
    0.8678   -0.2351    0.6193 C   0  0  0  0  0  0  0  0  0  0  0  0
    0.6111   -1.6188    0.8141 O   0  0  0  0  0  0  0  0  0  0  0  0
   -0.4224   -2.0562    0.0399 C   0  0  0  0  0  0  0  0  0  0  0  0
   -0.7331   -3.2514   -0.1816 O   0  0  0  0  0  0  0  0  0  0  0  0
   -1.1467   -0.9063   -0.5181 C   0  0  0  0  0  0  0  0  0  0  0  0
   -0.3773    0.2713    0.0182 C   0  0  0  0  0  0  0  0  0  0  0  0
   -1.1901    1.3354    0.7858 C   0  0  0  0  0  0  0  0  0  0  0  0
   -0.5747    1.6057   -0.5396 C   0  0  0  0  0  0  0  0  0  0  0  0
    2.3736   -1.1228   -0.7064 H   0  0  0  0  0  0  0  0  0  0  0  0
    2.9771    0.1322    0.3895 H   0  0  0  0  0  0  0  0  0  0  0  0
    2.0027    0.5888   -1.0591 H   0  0  0  0  0  0  0  0  0  0  0  0
    1.0753    0.2304    1.6169 H   0  0  0  0  0  0  0  0  0  0  0  0
   -1.2123   -0.8873   -1.6055 H   0  0  0  0  0  0  0  0  0  0  0  0
   -2.1849   -0.8745   -0.0760 H   0  0  0  0  0  0  0  0  0  0  0  0
   -0.7252    1.7167    1.7127 H   0  0  0  0  0  0  0  0  0  0  0  0
   -2.2803    1.1261    0.8799 H   0  0  0  0  0  0  0  0  0  0  0  0
    0.1862    2.3842   -0.5737 H   0  0  0  0  0  0  0  0  0  0  0  0
   -1.3367    1.6916   -1.3709 H   0  0  0  0  0  0  0  0  0  0  0  0
  1  2  1  0
  2  3  1  0
  3  4  1  0
  4  5  2  0
  4  6  1  0
  6  7  1  0
  7  8  1  0
  8  9  1  0
  7  2  1  0
  9  7  1  0
  1 10  1  0
  1 11  1  0
  1 12  1  0
  2 13  1  0
  6 14  1  0
  6 15  1  0
  8 16  1  0
  8 17  1  0
  9 18  1  0
  9 19  1  0
M  END
