
     RDKit          3D

 19 19  0  0  0  0  0  0  0  0999 V2000
   -1.6839   -1.2405   -0.2577 C   0  0  0  0  0  0  0  0  0  0  0  0
   -0.3015   -0.6906   -0.3790 C   0  0  0  0  0  0  0  0  0  0  0  0
    0.4502   -0.9959    0.7269 O   0  0  0  0  0  0  0  0  0  0  0  0
    1.4184   -0.0370    0.8245 C   0  0  0  0  0  0  0  0  0  0  0  0
    2.7535   -0.4967    0.3647 C   0  0  0  0  0  0  0  0  0  0  0  0
    2.9534   -1.6183   -0.0553 O   0  0  0  0  0  0  0  0  0  0  0  0
    1.0605    1.0496    0.0519 O   0  0  0  0  0  0  0  0  0  0  0  0
   -0.1616    0.7505   -0.5532 C   0  0  0  0  0  0  0  0  0  0  0  0
   -1.1904    1.6361    0.0388 C   0  0  0  0  0  0  0  0  0  0  0  0
   -1.5699   -2.3481   -0.0566 H   0  0  0  0  0  0  0  0  0  0  0  0
   -2.2743   -0.8526    0.5667 H   0  0  0  0  0  0  0  0  0  0  0  0
   -2.2574   -1.1883   -1.2057 H   0  0  0  0  0  0  0  0  0  0  0  0
    0.1816   -1.2274   -1.2468 H   0  0  0  0  0  0  0  0  0  0  0  0
    1.4464    0.3101    1.8850 H   0  0  0  0  0  0  0  0  0  0  0  0
    3.5895    0.1840    0.3998 H   0  0  0  0  0  0  0  0  0  0  0  0
   -0.0096    0.9826   -1.6488 H   0  0  0  0  0  0  0  0  0  0  0  0
   -0.7379    2.4621    0.6627 H   0  0  0  0  0  0  0  0  0  0  0  0
   -1.7232    2.1625   -0.7808 H   0  0  0  0  0  0  0  0  0  0  0  0
   -1.9438    1.1580    0.6628 H   0  0  0  0  0  0  0  0  0  0  0  0
  1  2  1  0
  2  3  1  0
  3  4  1  0
  4  5  1  0
  5  6  2  0
  4  7  1  0
  7  8  1  0
  8  9  1  0
  8  2  1  0
  1 10  1  0
  1 11  1  0
  1 12  1  0
  2 13  1  0
  4 14  1  0
  5 15  1  0
  8 16  1  0
  9 17  1  0
  9 18  1  0
  9 19  1  0
M  END
