
     RDKit          3D

 12 12  0  0  0  0  0  0  0  0999 V2000
   -1.6921   -0.0234    0.0182 C   0  0  0  0  0  0  0  0  0  0  0  0
   -0.3557    0.5525   -0.3317 C   0  0  0  0  0  0  0  0  0  0  0  0
    0.3288    0.1986   -1.4549 O   0  0  0  0  0  0  0  0  0  0  0  0
    0.7661   -0.4834   -0.3402 C   0  0  0  0  0  0  0  0  0  0  0  0
    1.9428   -0.0574    0.4225 C   0  0  0  0  0  0  0  0  0  0  0  0
    2.3251    1.0882    0.4772 O   0  0  0  0  0  0  0  0  0  0  0  0
   -1.6868   -1.1359    0.0823 H   0  0  0  0  0  0  0  0  0  0  0  0
   -2.5211    0.3361   -0.6193 H   0  0  0  0  0  0  0  0  0  0  0  0
   -1.9329    0.3233    1.0630 H   0  0  0  0  0  0  0  0  0  0  0  0
   -0.1576    1.5530    0.0565 H   0  0  0  0  0  0  0  0  0  0  0  0
    0.4865   -1.5488   -0.3365 H   0  0  0  0  0  0  0  0  0  0  0  0
    2.4970   -0.8029    0.9630 H   0  0  0  0  0  0  0  0  0  0  0  0
  1  2  1  0
  2  3  1  0
  3  4  1  0
  4  5  1  0
  5  6  2  0
  4  2  1  0
  1  7  1  0
  1  8  1  0
  1  9  1  0
  2 10  1  0
  4 11  1  0
  5 12  1  0
M  END
