
     RDKit          3D

 21 22  0  0  0  0  0  0  0  0999 V2000
   -2.7428   -0.8624    0.1830 C   0  0  0  0  0  0  0  0  0  0  0  0
   -1.7862    0.2923    0.2181 C   0  0  0  0  0  0  0  0  0  0  0  0
   -2.0327    1.2207   -0.8014 O   0  0  0  0  0  0  0  0  0  0  0  0
   -0.6560    1.5265   -0.7452 C   0  0  0  0  0  0  0  0  0  0  0  0
   -0.4398    0.0441   -0.4129 C   0  0  0  0  0  0  0  0  0  0  0  0
    0.7042   -0.1367    0.5392 C   0  0  0  0  0  0  0  0  0  0  0  0
    1.9549   -0.3722   -0.2909 C   0  0  0  0  0  0  0  0  0  0  0  0
    3.2189   -0.5794    0.3900 C   0  0  0  0  0  0  0  0  0  0  0  0
    2.8986    0.6836   -0.3442 O   0  0  0  0  0  0  0  0  0  0  0  0
   -3.3384   -0.9011   -0.7565 H   0  0  0  0  0  0  0  0  0  0  0  0
   -2.2503   -1.8424    0.3527 H   0  0  0  0  0  0  0  0  0  0  0  0
   -3.4740   -0.7255    1.0084 H   0  0  0  0  0  0  0  0  0  0  0  0
   -1.7076    0.7968    1.1825 H   0  0  0  0  0  0  0  0  0  0  0  0
   -0.3740    2.1587    0.1115 H   0  0  0  0  0  0  0  0  0  0  0  0
   -0.2283    1.8091   -1.7292 H   0  0  0  0  0  0  0  0  0  0  0  0
   -0.4196   -0.6064   -1.2880 H   0  0  0  0  0  0  0  0  0  0  0  0
    0.8838    0.7912    1.1487 H   0  0  0  0  0  0  0  0  0  0  0  0
    0.5608   -0.9521    1.2576 H   0  0  0  0  0  0  0  0  0  0  0  0
    1.8291   -0.8760   -1.2840 H   0  0  0  0  0  0  0  0  0  0  0  0
    4.0082   -1.1654   -0.1179 H   0  0  0  0  0  0  0  0  0  0  0  0
    3.3912   -0.3034    1.4340 H   0  0  0  0  0  0  0  0  0  0  0  0
  1  2  1  0
  2  3  1  0
  3  4  1  0
  4  5  1  0
  5  6  1  0
  6  7  1  0
  7  8  1  0
  8  9  1  0
  5  2  1  0
  9  7  1  0
  1 10  1  0
  1 11  1  0
  1 12  1  0
  2 13  1  0
  4 14  1  0
  4 15  1  0
  5 16  1  0
  6 17  1  0
  6 18  1  0
  7 19  1  0
  8 20  1  0
  8 21  1  0
M  END
