
     RDKit          3D

 17 18  0  0  0  0  0  0  0  0999 V2000
    1.7703   -0.8474   -0.7268 C   0  0  0  0  0  0  0  0  0  0  0  0
    0.3109   -0.6067   -0.5816 C   0  0  0  0  0  0  0  0  0  0  0  0
   -0.1361    0.5015   -1.3451 O   0  0  0  0  0  0  0  0  0  0  0  0
   -0.7131    1.3031   -0.3917 C   0  0  0  0  0  0  0  0  0  0  0  0
    0.3174    1.3160    0.6767 C   0  0  0  0  0  0  0  0  0  0  0  0
    1.0645    2.0958    1.1986 O   0  0  0  0  0  0  0  0  0  0  0  0
   -0.0249   -0.1202    0.7915 C   0  0  0  0  0  0  0  0  0  0  0  0
   -1.4626    0.3495    0.5523 C   0  0  0  0  0  0  0  0  0  0  0  0
   -2.1805   -0.6256   -0.1011 O   0  0  0  0  0  0  0  0  0  0  0  0
    2.3612    0.0746   -0.9118 H   0  0  0  0  0  0  0  0  0  0  0  0
    1.9340   -1.6216   -1.5007 H   0  0  0  0  0  0  0  0  0  0  0  0
    2.1388   -1.2954    0.2295 H   0  0  0  0  0  0  0  0  0  0  0  0
   -0.3090   -1.4508   -0.8847 H   0  0  0  0  0  0  0  0  0  0  0  0
   -1.2028    2.2073   -0.6547 H   0  0  0  0  0  0  0  0  0  0  0  0
    0.1953   -0.6691    1.6566 H   0  0  0  0  0  0  0  0  0  0  0  0
   -1.9098    0.8458    1.4028 H   0  0  0  0  0  0  0  0  0  0  0  0
   -2.1538   -1.4568    0.4379 H   0  0  0  0  0  0  0  0  0  0  0  0
  1  2  1  0
  2  3  1  0
  3  4  1  0
  4  5  1  0
  5  6  2  0
  5  7  1  0
  7  8  1  0
  8  9  1  0
  7  2  1  0
  8  4  1  0
  1 10  1  0
  1 11  1  0
  1 12  1  0
  2 13  1  0
  4 14  1  0
  7 15  1  0
  8 16  1  0
  9 17  1  0
M  END
