
     RDKit          3D

 17 18  0  0  0  0  0  0  0  0999 V2000
    2.2425    0.5296    0.1259 C   0  0  0  0  0  0  0  0  0  0  0  0
    1.1879   -0.5411    0.2374 C   0  0  0  0  0  0  0  0  0  0  0  0
    0.7431   -0.8827   -1.1573 O   0  0  0  0  0  0  0  0  0  0  0  0
   -0.1329   -0.3828   -0.2068 C   0  0  0  0  0  0  0  0  0  0  0  0
   -1.2293   -1.3193    0.1879 C   0  0  0  0  0  0  0  0  0  0  0  0
   -2.4478   -0.6448    0.0004 O   0  0  0  0  0  0  0  0  0  0  0  0
   -2.2199    0.7173   -0.2580 C   0  0  0  0  0  0  0  0  0  0  0  0
   -3.1461    1.5652   -0.3641 O   0  0  0  0  0  0  0  0  0  0  0  0
   -0.7630    0.9628   -0.3770 C   0  0  0  0  0  0  0  0  0  0  0  0
    2.3297    1.1627    1.0157 H   0  0  0  0  0  0  0  0  0  0  0  0
    3.2081   -0.0010   -0.0866 H   0  0  0  0  0  0  0  0  0  0  0  0
    2.0378    1.2214   -0.7313 H   0  0  0  0  0  0  0  0  0  0  0  0
    1.5144   -1.4516    0.7865 H   0  0  0  0  0  0  0  0  0  0  0  0
   -1.2668   -2.2288   -0.4641 H   0  0  0  0  0  0  0  0  0  0  0  0
   -1.0983   -1.6970    1.2243 H   0  0  0  0  0  0  0  0  0  0  0  0
   -0.4632    1.6201    0.4400 H   0  0  0  0  0  0  0  0  0  0  0  0
   -0.4963    1.3699   -1.3746 H   0  0  0  0  0  0  0  0  0  0  0  0
  1  2  1  0
  2  3  1  0
  3  4  1  0
  4  5  1  0
  5  6  1  0
  6  7  1  0
  7  8  2  0
  7  9  1  0
  4  2  1  0
  9  4  1  0
  1 10  1  0
  1 11  1  0
  1 12  1  0
  2 13  1  0
  5 14  1  0
  5 15  1  0
  9 16  1  0
  9 17  1  0
M  END
