
     RDKit          3D

 20 21  0  0  0  0  0  0  0  0999 V2000
    1.9666   -0.9474   -0.1009 C   0  0  0  0  0  0  0  0  0  0  0  0
    0.7649   -0.4209    0.5914 C   0  0  0  0  0  0  0  0  0  0  0  0
   -0.1948   -1.4292    0.8649 O   0  0  0  0  0  0  0  0  0  0  0  0
   -1.0805   -1.2717   -0.1430 C   0  0  0  0  0  0  0  0  0  0  0  0
   -2.3241   -0.6327   -0.2935 C   0  0  0  0  0  0  0  0  0  0  0  0
   -1.3450    0.2607    0.1669 C   0  0  0  0  0  0  0  0  0  0  0  0
    0.0207    0.6270   -0.2593 C   0  0  0  0  0  0  0  0  0  0  0  0
    0.4634    2.0041    0.0932 C   0  0  0  0  0  0  0  0  0  0  0  0
    2.6043   -1.4639    0.6249 H   0  0  0  0  0  0  0  0  0  0  0  0
    2.4871   -0.1049   -0.5967 H   0  0  0  0  0  0  0  0  0  0  0  0
    1.6389   -1.6292   -0.9078 H   0  0  0  0  0  0  0  0  0  0  0  0
    0.9709    0.0850    1.5572 H   0  0  0  0  0  0  0  0  0  0  0  0
   -0.5475   -1.4871   -1.1212 H   0  0  0  0  0  0  0  0  0  0  0  0
   -2.7627   -0.4653   -1.3131 H   0  0  0  0  0  0  0  0  0  0  0  0
   -3.1636   -0.9629    0.3873 H   0  0  0  0  0  0  0  0  0  0  0  0
   -1.4214    0.5049    1.2775 H   0  0  0  0  0  0  0  0  0  0  0  0
    0.1950    0.3406   -1.3055 H   0  0  0  0  0  0  0  0  0  0  0  0
   -0.0715    2.7233   -0.5236 H   0  0  0  0  0  0  0  0  0  0  0  0
    1.5437    2.0916   -0.1586 H   0  0  0  0  0  0  0  0  0  0  0  0
    0.2555    2.1779    1.1599 H   0  0  0  0  0  0  0  0  0  0  0  0
  1  2  1  0
  2  3  1  0
  3  4  1  0
  4  5  1  0
  5  6  1  0
  6  7  1  0
  7  8  1  0
  7  2  1  0
  6  4  1  0
  1  9  1  0
  1 10  1  0
  1 11  1  0
  2 12  1  0
  4 13  1  0
  5 14  1  0
  5 15  1  0
  6 16  1  0
  7 17  1  0
  8 18  1  0
  8 19  1  0
  8 20  1  0
M  END
