
     RDKit          3D

 18 19  0  0  0  0  0  0  0  0999 V2000
   -1.2086    1.2606   -0.3620 C   0  0  0  0  0  0  0  0  0  0  0  0
   -0.8031    0.5344    0.8852 C   0  0  0  0  0  0  0  0  0  0  0  0
   -1.4574   -0.6869    0.9118 O   0  0  0  0  0  0  0  0  0  0  0  0
   -0.6562   -1.4858    0.0898 C   0  0  0  0  0  0  0  0  0  0  0  0
    0.7507   -1.1622    0.4237 C   0  0  0  0  0  0  0  0  0  0  0  0
    1.4924   -0.0410   -0.1777 C   0  0  0  0  0  0  0  0  0  0  0  0
    1.1954    0.4772   -1.4200 O   0  0  0  0  0  0  0  0  0  0  0  0
    0.6612    0.2854    0.9994 C   0  0  0  0  0  0  0  0  0  0  0  0
   -0.4819    2.0614   -0.6452 H   0  0  0  0  0  0  0  0  0  0  0  0
   -1.2790    0.5757   -1.2298 H   0  0  0  0  0  0  0  0  0  0  0  0
   -2.2337    1.6788   -0.2057 H   0  0  0  0  0  0  0  0  0  0  0  0
   -1.1821    1.1089    1.7736 H   0  0  0  0  0  0  0  0  0  0  0  0
   -0.8917   -2.5461    0.3924 H   0  0  0  0  0  0  0  0  0  0  0  0
   -0.9238   -1.4170   -0.9728 H   0  0  0  0  0  0  0  0  0  0  0  0
    1.2798   -1.8848    1.0805 H   0  0  0  0  0  0  0  0  0  0  0  0
    2.6009   -0.0530    0.0304 H   0  0  0  0  0  0  0  0  0  0  0  0
    1.9984    0.8398   -1.9010 H   0  0  0  0  0  0  0  0  0  0  0  0
    1.1388    0.4546    1.9766 H   0  0  0  0  0  0  0  0  0  0  0  0
  1  2  1  0
  2  3  1  0
  3  4  1  0
  4  5  1  0
  5  6  1  0
  6  7  1  0
  6  8  1  0
  8  2  1  0
  8  5  1  0
  1  9  1  0
  1 10  1  0
  1 11  1  0
  2 12  1  0
  4 13  1  0
  4 14  1  0
  5 15  1  0
  6 16  1  0
  7 17  1  0
  8 18  1  0
M  END
