
     RDKit          3D

 21 22  0  0  0  0  0  0  0  0999 V2000
    2.8605   -0.3384   -0.8049 C   0  0  0  0  0  0  0  0  0  0  0  0
    1.8188    0.3580    0.0350 C   0  0  0  0  0  0  0  0  0  0  0  0
    1.1219    1.3739   -0.6767 O   0  0  0  0  0  0  0  0  0  0  0  0
    0.0659    1.1144    0.1895 C   0  0  0  0  0  0  0  0  0  0  0  0
   -1.3245    1.1440   -0.4007 C   0  0  0  0  0  0  0  0  0  0  0  0
   -2.1483    0.2480    0.5362 C   0  0  0  0  0  0  0  0  0  0  0  0
   -1.8056   -1.1664    0.2577 C   0  0  0  0  0  0  0  0  0  0  0  0
   -0.3361   -1.3332    0.1484 C   0  0  0  0  0  0  0  0  0  0  0  0
    0.5148   -0.3281    0.1121 C   0  0  0  0  0  0  0  0  0  0  0  0
    3.1039    0.2112   -1.7378 H   0  0  0  0  0  0  0  0  0  0  0  0
    3.8041   -0.3999   -0.2003 H   0  0  0  0  0  0  0  0  0  0  0  0
    2.5849   -1.3681   -1.0519 H   0  0  0  0  0  0  0  0  0  0  0  0
    2.1443    0.7400    1.0076 H   0  0  0  0  0  0  0  0  0  0  0  0
    0.1538    1.5186    1.1947 H   0  0  0  0  0  0  0  0  0  0  0  0
   -1.3214    0.7572   -1.4169 H   0  0  0  0  0  0  0  0  0  0  0  0
   -1.7508    2.1665   -0.4006 H   0  0  0  0  0  0  0  0  0  0  0  0
   -1.8161    0.4876    1.5757 H   0  0  0  0  0  0  0  0  0  0  0  0
   -3.2057    0.4978    0.4768 H   0  0  0  0  0  0  0  0  0  0  0  0
   -2.2866   -1.4917   -0.6907 H   0  0  0  0  0  0  0  0  0  0  0  0
   -2.1938   -1.8089    1.0921 H   0  0  0  0  0  0  0  0  0  0  0  0
    0.0159   -2.3825    0.0975 H   0  0  0  0  0  0  0  0  0  0  0  0
  1  2  1  0
  2  3  1  0
  3  4  1  0
  4  5  1  0
  5  6  1  0
  6  7  1  0
  7  8  1  0
  8  9  2  0
  9  2  1  0
  9  4  1  0
  1 10  1  0
  1 11  1  0
  1 12  1  0
  2 13  1  0
  4 14  1  0
  5 15  1  0
  5 16  1  0
  6 17  1  0
  6 18  1  0
  7 19  1  0
  7 20  1  0
  8 21  1  0
M  END
