
     RDKit          3D

 21 21  0  0  0  0  0  0  0  0999 V2000
   -0.7680   -1.9494   -0.5916 C   0  0  0  0  0  0  0  0  0  0  0  0
   -0.8072   -0.5531   -0.0867 C   0  0  0  0  0  0  0  0  0  0  0  0
   -1.5503    0.2556   -0.9213 O   0  0  0  0  0  0  0  0  0  0  0  0
   -1.3289    1.5259   -0.3529 C   0  0  0  0  0  0  0  0  0  0  0  0
    0.1568    1.5867   -0.0750 C   0  0  0  0  0  0  0  0  0  0  0  0
    0.5064    0.1106    0.0719 C   0  0  0  0  0  0  0  0  0  0  0  0
    1.0236   -0.0804    1.4972 C   0  0  0  0  0  0  0  0  0  0  0  0
    1.5435   -0.2664   -0.8732 C   0  0  0  0  0  0  0  0  0  0  0  0
    2.1191   -1.3344   -0.8187 O   0  0  0  0  0  0  0  0  0  0  0  0
   -1.8165   -2.2864   -0.7571 H   0  0  0  0  0  0  0  0  0  0  0  0
   -0.3406   -2.6488    0.1542 H   0  0  0  0  0  0  0  0  0  0  0  0
   -0.1914   -2.0555   -1.5100 H   0  0  0  0  0  0  0  0  0  0  0  0
   -1.3187   -0.5422    0.9163 H   0  0  0  0  0  0  0  0  0  0  0  0
   -1.8656    1.6131    0.6232 H   0  0  0  0  0  0  0  0  0  0  0  0
   -1.6874    2.3118   -1.0192 H   0  0  0  0  0  0  0  0  0  0  0  0
    0.3404    2.1494    0.8510 H   0  0  0  0  0  0  0  0  0  0  0  0
    0.6419    2.0286   -0.9529 H   0  0  0  0  0  0  0  0  0  0  0  0
    1.0437   -1.1390    1.7876 H   0  0  0  0  0  0  0  0  0  0  0  0
    0.4203    0.4855    2.2233 H   0  0  0  0  0  0  0  0  0  0  0  0
    2.0466    0.3787    1.4969 H   0  0  0  0  0  0  0  0  0  0  0  0
    1.8325    0.4095   -1.6630 H   0  0  0  0  0  0  0  0  0  0  0  0
  1  2  1  0
  2  3  1  0
  3  4  1  0
  4  5  1  0
  5  6  1  0
  6  7  1  0
  6  8  1  0
  8  9  2  0
  6  2  1  0
  1 10  1  0
  1 11  1  0
  1 12  1  0
  2 13  1  0
  4 14  1  0
  4 15  1  0
  5 16  1  0
  5 17  1  0
  7 18  1  0
  7 19  1  0
  7 20  1  0
  8 21  1  0
M  END
