
     RDKit          3D

 21 22  0  0  0  0  0  0  0  0999 V2000
    2.4031    0.8233    0.4738 C   0  0  0  0  0  0  0  0  0  0  0  0
    1.5595   -0.3698    0.0749 C   0  0  0  0  0  0  0  0  0  0  0  0
    1.6282   -0.4977   -1.2966 O   0  0  0  0  0  0  0  0  0  0  0  0
    0.4333   -1.0574   -1.6936 C   0  0  0  0  0  0  0  0  0  0  0  0
   -0.5305   -0.5635   -0.6878 C   0  0  0  0  0  0  0  0  0  0  0  0
    0.1268   -0.1467    0.3821 C   0  0  0  0  0  0  0  0  0  0  0  0
   -0.8612    0.3347    1.3705 C   0  0  0  0  0  0  0  0  0  0  0  0
   -1.9718    0.8209    0.4683 C   0  0  0  0  0  0  0  0  0  0  0  0
   -2.0056   -0.3797   -0.4972 C   0  0  0  0  0  0  0  0  0  0  0  0
    2.4322    1.5754   -0.3676 H   0  0  0  0  0  0  0  0  0  0  0  0
    3.4638    0.4670    0.5627 H   0  0  0  0  0  0  0  0  0  0  0  0
    2.0328    1.2815    1.4072 H   0  0  0  0  0  0  0  0  0  0  0  0
    1.9246   -1.2562    0.6286 H   0  0  0  0  0  0  0  0  0  0  0  0
    0.5250   -2.1614   -1.6035 H   0  0  0  0  0  0  0  0  0  0  0  0
    0.1304   -0.7260   -2.6928 H   0  0  0  0  0  0  0  0  0  0  0  0
   -0.4695    1.1253    2.0308 H   0  0  0  0  0  0  0  0  0  0  0  0
   -1.2692   -0.5311    1.9335 H   0  0  0  0  0  0  0  0  0  0  0  0
   -1.6817    1.7300   -0.0663 H   0  0  0  0  0  0  0  0  0  0  0  0
   -2.9374    0.9118    1.0019 H   0  0  0  0  0  0  0  0  0  0  0  0
   -2.4349   -1.2512    0.0068 H   0  0  0  0  0  0  0  0  0  0  0  0
   -2.4981   -0.1292   -1.4358 H   0  0  0  0  0  0  0  0  0  0  0  0
  1  2  1  0
  2  3  1  0
  3  4  1  0
  4  5  1  0
  5  6  2  0
  6  7  1  0
  7  8  1  0
  8  9  1  0
  6  2  1  0
  9  5  1  0
  1 10  1  0
  1 11  1  0
  1 12  1  0
  2 13  1  0
  4 14  1  0
  4 15  1  0
  7 16  1  0
  7 17  1  0
  8 18  1  0
  8 19  1  0
  9 20  1  0
  9 21  1  0
M  END
