
     RDKit          3D

 17 18  0  0  0  0  0  0  0  0999 V2000
    2.0130    0.3424   -0.1691 C   0  0  0  0  0  0  0  0  0  0  0  0
    0.8338   -0.5568   -0.2271 C   0  0  0  0  0  0  0  0  0  0  0  0
    0.0435   -0.3866   -1.3630 O   0  0  0  0  0  0  0  0  0  0  0  0
   -1.2858   -0.2881   -0.9543 C   0  0  0  0  0  0  0  0  0  0  0  0
   -1.4078    1.0460   -0.3101 C   0  0  0  0  0  0  0  0  0  0  0  0
   -0.6888    0.9867    0.8059 C   0  0  0  0  0  0  0  0  0  0  0  0
   -0.1241   -0.4100    0.9192 C   0  0  0  0  0  0  0  0  0  0  0  0
   -1.2855   -1.1447    0.2964 C   0  0  0  0  0  0  0  0  0  0  0  0
   -1.9546   -2.0533    0.6458 O   0  0  0  0  0  0  0  0  0  0  0  0
    2.3283    0.4838    0.8944 H   0  0  0  0  0  0  0  0  0  0  0  0
    1.8251    1.3308   -0.6246 H   0  0  0  0  0  0  0  0  0  0  0  0
    2.8977   -0.1413   -0.6634 H   0  0  0  0  0  0  0  0  0  0  0  0
    1.1842   -1.6112   -0.2512 H   0  0  0  0  0  0  0  0  0  0  0  0
   -2.0228   -0.5515   -1.6676 H   0  0  0  0  0  0  0  0  0  0  0  0
   -1.9752    1.8712   -0.7010 H   0  0  0  0  0  0  0  0  0  0  0  0
   -0.5482    1.8046    1.4931 H   0  0  0  0  0  0  0  0  0  0  0  0
    0.1672   -0.7220    1.8766 H   0  0  0  0  0  0  0  0  0  0  0  0
  1  2  1  0
  2  3  1  0
  3  4  1  0
  4  5  1  0
  5  6  2  0
  6  7  1  0
  7  8  1  0
  8  9  2  0
  7  2  1  0
  8  4  1  0
  1 10  1  0
  1 11  1  0
  1 12  1  0
  2 13  1  0
  4 14  1  0
  5 15  1  0
  6 16  1  0
  7 17  1  0
M  END
