
     RDKit          3D

 23 24  0  0  0  0  0  0  0  0999 V2000
    2.4365   -0.0232    1.0148 C   0  0  0  0  0  0  0  0  0  0  0  0
    1.2299   -0.7333    0.4072 C   0  0  0  0  0  0  0  0  0  0  0  0
    0.2686   -0.9670    1.3868 O   0  0  0  0  0  0  0  0  0  0  0  0
   -0.9348   -0.4256    0.9203 C   0  0  0  0  0  0  0  0  0  0  0  0
   -1.3187   -1.1982   -0.3094 C   0  0  0  0  0  0  0  0  0  0  0  0
   -0.3661   -0.7253   -1.4154 C   0  0  0  0  0  0  0  0  0  0  0  0
    0.5595    0.1609   -0.6409 C   0  0  0  0  0  0  0  0  0  0  0  0
   -0.4056    0.8665    0.2967 C   0  0  0  0  0  0  0  0  0  0  0  0
   -1.4306    1.6791   -0.3635 C   0  0  0  0  0  0  0  0  0  0  0  0
    2.1669    1.0262    1.2369 H   0  0  0  0  0  0  0  0  0  0  0  0
    3.2551   -0.0733    0.2705 H   0  0  0  0  0  0  0  0  0  0  0  0
    2.7505   -0.5602    1.9097 H   0  0  0  0  0  0  0  0  0  0  0  0
    1.5524   -1.6637   -0.0771 H   0  0  0  0  0  0  0  0  0  0  0  0
   -1.6826   -0.2894    1.6633 H   0  0  0  0  0  0  0  0  0  0  0  0
   -2.3678   -0.9695   -0.5715 H   0  0  0  0  0  0  0  0  0  0  0  0
   -1.1681   -2.2815   -0.1233 H   0  0  0  0  0  0  0  0  0  0  0  0
   -0.8904   -0.2384   -2.2360 H   0  0  0  0  0  0  0  0  0  0  0  0
    0.2121   -1.6211   -1.7862 H   0  0  0  0  0  0  0  0  0  0  0  0
    1.2210    0.7878   -1.1871 H   0  0  0  0  0  0  0  0  0  0  0  0
    0.0990    1.4228    1.0847 H   0  0  0  0  0  0  0  0  0  0  0  0
   -1.0714    2.7315   -0.4388 H   0  0  0  0  0  0  0  0  0  0  0  0
   -2.3335    1.7333    0.3005 H   0  0  0  0  0  0  0  0  0  0  0  0
   -1.7818    1.3617   -1.3422 H   0  0  0  0  0  0  0  0  0  0  0  0
  1  2  1  0
  2  3  1  0
  3  4  1  0
  4  5  1  0
  5  6  1  0
  6  7  1  0
  7  8  1  0
  8  9  1  0
  7  2  1  0
  8  4  1  0
  1 10  1  0
  1 11  1  0
  1 12  1  0
  2 13  1  0
  4 14  1  0
  5 15  1  0
  5 16  1  0
  6 17  1  0
  6 18  1  0
  7 19  1  0
  8 20  1  0
  9 21  1  0
  9 22  1  0
  9 23  1  0
M  END
