
     RDKit          3D

 21 22  0  0  0  0  0  0  0  0999 V2000
    2.4511   -0.8888   -0.4842 C   0  0  0  0  0  0  0  0  0  0  0  0
    1.7035    0.0061    0.4649 C   0  0  0  0  0  0  0  0  0  0  0  0
    1.3852    1.2838   -0.2118 O   0  0  0  0  0  0  0  0  0  0  0  0
    0.4297    0.4260    0.2611 C   0  0  0  0  0  0  0  0  0  0  0  0
   -0.5727    0.9589    1.2344 C   0  0  0  0  0  0  0  0  0  0  0  0
   -1.5513    1.0121    0.0525 C   0  0  0  0  0  0  0  0  0  0  0  0
   -1.4906    2.2005   -0.6578 O   0  0  0  0  0  0  0  0  0  0  0  0
   -0.6818   -0.0911   -0.5695 C   0  0  0  0  0  0  0  0  0  0  0  0
   -1.2183   -1.4394   -0.1371 C   0  0  0  0  0  0  0  0  0  0  0  0
    3.1210   -1.5620    0.0958 H   0  0  0  0  0  0  0  0  0  0  0  0
    1.8118   -1.5026   -1.1256 H   0  0  0  0  0  0  0  0  0  0  0  0
    3.1487   -0.2880   -1.1359 H   0  0  0  0  0  0  0  0  0  0  0  0
    2.2780    0.2358    1.3916 H   0  0  0  0  0  0  0  0  0  0  0  0
   -0.9293    0.1877    1.9456 H   0  0  0  0  0  0  0  0  0  0  0  0
   -0.3569    1.9284    1.6857 H   0  0  0  0  0  0  0  0  0  0  0  0
   -2.5632    0.6812    0.2818 H   0  0  0  0  0  0  0  0  0  0  0  0
   -2.2547    2.1943   -1.2873 H   0  0  0  0  0  0  0  0  0  0  0  0
   -0.5544    0.0142   -1.6581 H   0  0  0  0  0  0  0  0  0  0  0  0
   -1.4903   -2.0106   -1.0663 H   0  0  0  0  0  0  0  0  0  0  0  0
   -0.5016   -1.9889    0.4819 H   0  0  0  0  0  0  0  0  0  0  0  0
   -2.1638   -1.3576    0.4386 H   0  0  0  0  0  0  0  0  0  0  0  0
  1  2  1  0
  2  3  1  0
  3  4  1  0
  4  5  1  0
  5  6  1  0
  6  7  1  0
  6  8  1  0
  8  9  1  0
  4  2  1  0
  8  4  1  0
  1 10  1  0
  1 11  1  0
  1 12  1  0
  2 13  1  0
  5 14  1  0
  5 15  1  0
  6 16  1  0
  7 17  1  0
  8 18  1  0
  9 19  1  0
  9 20  1  0
  9 21  1  0
M  END
