
     RDKit          3D

 21 21  0  0  0  0  0  0  0  0999 V2000
   -1.9683    1.4470   -0.2143 C   0  0  0  0  0  0  0  0  0  0  0  0
   -1.1539    0.3974    0.4568 C   0  0  0  0  0  0  0  0  0  0  0  0
   -0.3418    1.0119    1.4532 O   0  0  0  0  0  0  0  0  0  0  0  0
    0.8030    0.2545    1.6594 C   0  0  0  0  0  0  0  0  0  0  0  0
    1.4394    0.1420    2.7397 O   0  0  0  0  0  0  0  0  0  0  0  0
    1.1196   -0.3878    0.3614 C   0  0  0  0  0  0  0  0  0  0  0  0
    2.3094    0.2333   -0.3234 C   0  0  0  0  0  0  0  0  0  0  0  0
   -0.1477   -0.2657   -0.4607 C   0  0  0  0  0  0  0  0  0  0  0  0
   -0.6313   -1.6568   -0.7679 C   0  0  0  0  0  0  0  0  0  0  0  0
   -3.0599    1.2966    0.0283 H   0  0  0  0  0  0  0  0  0  0  0  0
   -1.8846    1.4666   -1.3049 H   0  0  0  0  0  0  0  0  0  0  0  0
   -1.7481    2.4806    0.1673 H   0  0  0  0  0  0  0  0  0  0  0  0
   -1.8033   -0.3411    0.9635 H   0  0  0  0  0  0  0  0  0  0  0  0
    1.3824   -1.4464    0.5718 H   0  0  0  0  0  0  0  0  0  0  0  0
    2.3802    1.3159   -0.1949 H   0  0  0  0  0  0  0  0  0  0  0  0
    3.2392   -0.2654    0.0452 H   0  0  0  0  0  0  0  0  0  0  0  0
    2.1846    0.0368   -1.4237 H   0  0  0  0  0  0  0  0  0  0  0  0
    0.0058    0.3442   -1.3788 H   0  0  0  0  0  0  0  0  0  0  0  0
   -0.4794   -2.2533    0.1774 H   0  0  0  0  0  0  0  0  0  0  0  0
   -1.6909   -1.7077   -1.0365 H   0  0  0  0  0  0  0  0  0  0  0  0
    0.0457   -2.1025   -1.5192 H   0  0  0  0  0  0  0  0  0  0  0  0
  1  2  1  0
  2  3  1  0
  3  4  1  0
  4  5  2  0
  4  6  1  0
  6  7  1  0
  6  8  1  0
  8  9  1  0
  8  2  1  0
  1 10  1  0
  1 11  1  0
  1 12  1  0
  2 13  1  0
  6 14  1  0
  7 15  1  0
  7 16  1  0
  7 17  1  0
  8 18  1  0
  9 19  1  0
  9 20  1  0
  9 21  1  0
M  END
