
     RDKit          3D

 21 22  0  0  0  0  0  0  0  0999 V2000
    2.6366   -0.3208    0.4323 C   0  0  0  0  0  0  0  0  0  0  0  0
    2.0713   -0.3419   -0.9831 C   0  0  0  0  0  0  0  0  0  0  0  0
    1.8629    0.9614   -1.4781 O   0  0  0  0  0  0  0  0  0  0  0  0
    0.7436    0.1786   -1.2624 C   0  0  0  0  0  0  0  0  0  0  0  0
   -0.1476    0.4896   -0.0750 C   0  0  0  0  0  0  0  0  0  0  0  0
   -0.4621   -0.6548    0.8187 C   0  0  0  0  0  0  0  0  0  0  0  0
   -1.5247   -0.0362   -0.0133 C   0  0  0  0  0  0  0  0  0  0  0  0
   -2.5392    0.8870    0.6445 C   0  0  0  0  0  0  0  0  0  0  0  0
   -2.0490   -0.7909   -1.0685 O   0  0  0  0  0  0  0  0  0  0  0  0
    2.5140   -1.2689    0.9540 H   0  0  0  0  0  0  0  0  0  0  0  0
    2.1453    0.5006    1.0282 H   0  0  0  0  0  0  0  0  0  0  0  0
    3.7240   -0.0581    0.4331 H   0  0  0  0  0  0  0  0  0  0  0  0
    2.5145   -1.0990   -1.6285 H   0  0  0  0  0  0  0  0  0  0  0  0
    0.2268   -0.1423   -2.1649 H   0  0  0  0  0  0  0  0  0  0  0  0
    0.0956    1.4655    0.4103 H   0  0  0  0  0  0  0  0  0  0  0  0
   -0.1036   -1.6592    0.5152 H   0  0  0  0  0  0  0  0  0  0  0  0
   -0.4553   -0.5018    1.9229 H   0  0  0  0  0  0  0  0  0  0  0  0
   -3.5710    0.5147    0.5201 H   0  0  0  0  0  0  0  0  0  0  0  0
   -2.2736    0.9250    1.7229 H   0  0  0  0  0  0  0  0  0  0  0  0
   -2.3958    1.8920    0.1511 H   0  0  0  0  0  0  0  0  0  0  0  0
   -3.0127   -0.9405   -0.8796 H   0  0  0  0  0  0  0  0  0  0  0  0
  1  2  1  0
  2  3  1  0
  3  4  1  0
  4  5  1  0
  5  6  1  0
  6  7  1  0
  7  8  1  0
  7  9  1  0
  4  2  1  0
  7  5  1  0
  1 10  1  0
  1 11  1  0
  1 12  1  0
  2 13  1  0
  4 14  1  0
  5 15  1  0
  6 16  1  0
  6 17  1  0
  8 18  1  0
  8 19  1  0
  8 20  1  0
  9 21  1  0
M  END
