
     RDKit          3D

 19 20  0  0  0  0  0  0  0  0999 V2000
   -1.1778   -1.6477   -0.5054 C   0  0  0  0  0  0  0  0  0  0  0  0
   -0.5009   -0.3778   -0.9524 C   0  0  0  0  0  0  0  0  0  0  0  0
   -1.4764    0.6476   -0.9967 O   0  0  0  0  0  0  0  0  0  0  0  0
   -0.9866    1.0158    0.2720 C   0  0  0  0  0  0  0  0  0  0  0  0
    0.2311    1.8460    0.1938 C   0  0  0  0  0  0  0  0  0  0  0  0
    0.5066    2.5947   -0.9727 O   0  0  0  0  0  0  0  0  0  0  0  0
    0.2924    0.3567    0.0473 C   0  0  0  0  0  0  0  0  0  0  0  0
    1.0745   -0.3391    1.1253 C   0  0  0  0  0  0  0  0  0  0  0  0
    2.0035   -1.1655    0.4849 O   0  0  0  0  0  0  0  0  0  0  0  0
   -0.5857   -2.2423    0.2014 H   0  0  0  0  0  0  0  0  0  0  0  0
   -2.1733   -1.4589   -0.0333 H   0  0  0  0  0  0  0  0  0  0  0  0
   -1.3905   -2.3180   -1.3753 H   0  0  0  0  0  0  0  0  0  0  0  0
   -0.0073   -0.5418   -1.9466 H   0  0  0  0  0  0  0  0  0  0  0  0
   -1.6091    0.9125    1.1505 H   0  0  0  0  0  0  0  0  0  0  0  0
    0.5538    2.2975    1.1516 H   0  0  0  0  0  0  0  0  0  0  0  0
    1.5135    2.6467   -0.9961 H   0  0  0  0  0  0  0  0  0  0  0  0
    1.6359    0.3566    1.7593 H   0  0  0  0  0  0  0  0  0  0  0  0
    0.4495   -1.0252    1.7452 H   0  0  0  0  0  0  0  0  0  0  0  0
    1.6469   -1.5578   -0.3529 H   0  0  0  0  0  0  0  0  0  0  0  0
  1  2  1  0
  2  3  1  0
  3  4  1  0
  4  5  1  0
  5  6  1  0
  5  7  1  0
  7  8  1  0
  8  9  1  0
  7  2  1  0
  7  4  1  0
  1 10  1  0
  1 11  1  0
  1 12  1  0
  2 13  1  0
  4 14  1  0
  5 15  1  0
  6 16  1  0
  8 17  1  0
  8 18  1  0
  9 19  1  0
M  END
