
     RDKit          3D

 18 18  0  0  0  0  0  0  0  0999 V2000
   -0.9883   -1.6819    0.3688 C   0  0  0  0  0  0  0  0  0  0  0  0
   -0.6650   -0.2229    0.5899 C   0  0  0  0  0  0  0  0  0  0  0  0
   -1.8169    0.5116    0.2571 O   0  0  0  0  0  0  0  0  0  0  0  0
   -1.2566    1.7881    0.0832 C   0  0  0  0  0  0  0  0  0  0  0  0
   -0.0908    1.5895   -0.6473 O   0  0  0  0  0  0  0  0  0  0  0  0
    0.3167    0.2906   -0.4359 C   0  0  0  0  0  0  0  0  0  0  0  0
    1.7279    0.2113    0.1085 C   0  0  0  0  0  0  0  0  0  0  0  0
    2.1226   -1.1085    0.3157 O   0  0  0  0  0  0  0  0  0  0  0  0
   -0.1348   -2.3329    0.5528 H   0  0  0  0  0  0  0  0  0  0  0  0
   -1.8558   -1.9401    1.0061 H   0  0  0  0  0  0  0  0  0  0  0  0
   -1.3230   -1.7714   -0.6937 H   0  0  0  0  0  0  0  0  0  0  0  0
   -0.3839    0.0188    1.6182 H   0  0  0  0  0  0  0  0  0  0  0  0
   -0.9483    2.1213    1.1005 H   0  0  0  0  0  0  0  0  0  0  0  0
   -1.9393    2.4938   -0.3883 H   0  0  0  0  0  0  0  0  0  0  0  0
    0.1984   -0.3092   -1.3389 H   0  0  0  0  0  0  0  0  0  0  0  0
    2.3970    0.6352   -0.6831 H   0  0  0  0  0  0  0  0  0  0  0  0
    1.8491    0.7904    1.0324 H   0  0  0  0  0  0  0  0  0  0  0  0
    2.7911   -1.0837    1.0710 H   0  0  0  0  0  0  0  0  0  0  0  0
  1  2  1  0
  2  3  1  0
  3  4  1  0
  4  5  1  0
  5  6  1  0
  6  7  1  0
  7  8  1  0
  6  2  1  0
  1  9  1  0
  1 10  1  0
  1 11  1  0
  2 12  1  0
  4 13  1  0
  4 14  1  0
  6 15  1  0
  7 16  1  0
  7 17  1  0
  8 18  1  0
M  END
