
     RDKit          3D

 17 18  0  0  0  0  0  0  0  0999 V2000
   -3.1046   -0.0925    0.2641 C   0  0  0  0  0  0  0  0  0  0  0  0
   -1.6874   -0.5880    0.3325 C   0  0  0  0  0  0  0  0  0  0  0  0
   -1.0191   -0.1151    1.5290 O   0  0  0  0  0  0  0  0  0  0  0  0
   -0.5453    0.2478    0.1567 C   0  0  0  0  0  0  0  0  0  0  0  0
    0.7765   -0.3716   -0.0745 C   0  0  0  0  0  0  0  0  0  0  0  0
    0.9787   -1.5726   -0.0061 O   0  0  0  0  0  0  0  0  0  0  0  0
    1.9389    0.4860   -0.4095 C   0  0  0  0  0  0  0  0  0  0  0  0
    3.3167   -0.1255   -0.4408 C   0  0  0  0  0  0  0  0  0  0  0  0
    2.6474    0.0394   -1.6436 O   0  0  0  0  0  0  0  0  0  0  0  0
   -3.1947    0.8537   -0.3225 H   0  0  0  0  0  0  0  0  0  0  0  0
   -3.7424   -0.8553   -0.2426 H   0  0  0  0  0  0  0  0  0  0  0  0
   -3.5582    0.0916    1.2510 H   0  0  0  0  0  0  0  0  0  0  0  0
   -1.5620   -1.6947    0.2733 H   0  0  0  0  0  0  0  0  0  0  0  0
   -0.6126    1.3315    0.0697 H   0  0  0  0  0  0  0  0  0  0  0  0
    1.8178    1.5735   -0.4850 H   0  0  0  0  0  0  0  0  0  0  0  0
    3.3793   -1.1548   -0.0590 H   0  0  0  0  0  0  0  0  0  0  0  0
    4.1710    0.5309   -0.1927 H   0  0  0  0  0  0  0  0  0  0  0  0
  1  2  1  0
  2  3  1  0
  3  4  1  0
  4  5  1  0
  5  6  2  0
  5  7  1  0
  7  8  1  0
  8  9  1  0
  4  2  1  0
  9  7  1  0
  1 10  1  0
  1 11  1  0
  1 12  1  0
  2 13  1  0
  4 14  1  0
  7 15  1  0
  8 16  1  0
  8 17  1  0
M  END
