
     RDKit          3D

 23 24  0  0  0  0  0  0  0  0999 V2000
   -1.9126   -1.0571   -0.2791 C   0  0  0  0  0  0  0  0  0  0  0  0
   -1.0116   -0.6505    0.8976 C   0  0  0  0  0  0  0  0  0  0  0  0
   -0.0643   -1.6313    1.0296 O   0  0  0  0  0  0  0  0  0  0  0  0
    1.0128   -1.5222    0.1946 C   0  0  0  0  0  0  0  0  0  0  0  0
    1.8044   -0.2934    0.6124 C   0  0  0  0  0  0  0  0  0  0  0  0
    1.8213    0.8662   -0.3094 C   0  0  0  0  0  0  0  0  0  0  0  0
    0.9879    0.8716    0.9222 C   0  0  0  0  0  0  0  0  0  0  0  0
   -0.4853    0.7317    0.7566 C   0  0  0  0  0  0  0  0  0  0  0  0
   -0.8690    1.3870   -0.5628 C   0  0  0  0  0  0  0  0  0  0  0  0
   -1.2814   -1.3480   -1.1160 H   0  0  0  0  0  0  0  0  0  0  0  0
   -2.4540   -1.9835    0.0755 H   0  0  0  0  0  0  0  0  0  0  0  0
   -2.6702   -0.3022   -0.4895 H   0  0  0  0  0  0  0  0  0  0  0  0
   -1.6886   -0.7407    1.7998 H   0  0  0  0  0  0  0  0  0  0  0  0
    1.6673   -2.4017    0.3560 H   0  0  0  0  0  0  0  0  0  0  0  0
    0.7438   -1.3950   -0.8742 H   0  0  0  0  0  0  0  0  0  0  0  0
    2.7497   -0.4694    1.2048 H   0  0  0  0  0  0  0  0  0  0  0  0
    2.7060    1.5465   -0.3767 H   0  0  0  0  0  0  0  0  0  0  0  0
    1.3790    0.6755   -1.3106 H   0  0  0  0  0  0  0  0  0  0  0  0
    1.3900    1.5475    1.7334 H   0  0  0  0  0  0  0  0  0  0  0  0
   -0.9678    1.3806    1.5472 H   0  0  0  0  0  0  0  0  0  0  0  0
   -0.0470    2.0795   -0.9143 H   0  0  0  0  0  0  0  0  0  0  0  0
   -1.7586    2.0446   -0.4571 H   0  0  0  0  0  0  0  0  0  0  0  0
   -1.0518    0.6642   -1.3609 H   0  0  0  0  0  0  0  0  0  0  0  0
  1  2  1  0
  2  3  1  0
  3  4  1  0
  4  5  1  0
  5  6  1  0
  6  7  1  0
  7  8  1  0
  8  9  1  0
  8  2  1  0
  7  5  1  0
  1 10  1  0
  1 11  1  0
  1 12  1  0
  2 13  1  0
  4 14  1  0
  4 15  1  0
  5 16  1  0
  6 17  1  0
  6 18  1  0
  7 19  1  0
  8 20  1  0
  9 21  1  0
  9 22  1  0
  9 23  1  0
M  END
