
     RDKit          3D

 23 24  0  0  0  0  0  0  0  0999 V2000
   -1.4074    1.8259   -0.0431 C   0  0  0  0  0  0  0  0  0  0  0  0
   -1.8263    0.3868    0.1781 C   0  0  0  0  0  0  0  0  0  0  0  0
   -1.2588   -0.3200    1.2398 O   0  0  0  0  0  0  0  0  0  0  0  0
   -0.9964   -0.7413   -0.0971 C   0  0  0  0  0  0  0  0  0  0  0  0
   -1.6914   -2.0428   -0.5198 C   0  0  0  0  0  0  0  0  0  0  0  0
    0.4485   -0.7210   -0.4395 C   0  0  0  0  0  0  0  0  0  0  0  0
    1.3178   -0.1044    0.6271 C   0  0  0  0  0  0  0  0  0  0  0  0
    2.8083   -0.0228    0.4016 C   0  0  0  0  0  0  0  0  0  0  0  0
    1.9779    1.1772    0.2527 C   0  0  0  0  0  0  0  0  0  0  0  0
   -0.6988    2.1833    0.7346 H   0  0  0  0  0  0  0  0  0  0  0  0
   -0.9729    1.9278   -1.0789 H   0  0  0  0  0  0  0  0  0  0  0  0
   -2.2688    2.5247   -0.0176 H   0  0  0  0  0  0  0  0  0  0  0  0
   -2.9281    0.2523    0.1271 H   0  0  0  0  0  0  0  0  0  0  0  0
   -2.7399   -2.0117   -0.2101 H   0  0  0  0  0  0  0  0  0  0  0  0
   -1.6697   -2.0384   -1.6298 H   0  0  0  0  0  0  0  0  0  0  0  0
   -1.1394   -2.9222   -0.1723 H   0  0  0  0  0  0  0  0  0  0  0  0
    0.8501   -1.7411   -0.6221 H   0  0  0  0  0  0  0  0  0  0  0  0
    0.5980   -0.1854   -1.4247 H   0  0  0  0  0  0  0  0  0  0  0  0
    1.0480   -0.3254    1.6689 H   0  0  0  0  0  0  0  0  0  0  0  0
    3.1761   -0.6030   -0.4592 H   0  0  0  0  0  0  0  0  0  0  0  0
    3.4915   -0.0453    1.2673 H   0  0  0  0  0  0  0  0  0  0  0  0
    2.0415    1.9934    0.9986 H   0  0  0  0  0  0  0  0  0  0  0  0
    1.8405    1.5533   -0.7815 H   0  0  0  0  0  0  0  0  0  0  0  0
  1  2  1  0
  2  3  1  0
  3  4  1  0
  4  5  1  0
  4  6  1  0
  6  7  1  0
  7  8  1  0
  8  9  1  0
  4  2  1  0
  9  7  1  0
  1 10  1  0
  1 11  1  0
  1 12  1  0
  2 13  1  0
  5 14  1  0
  5 15  1  0
  5 16  1  0
  6 17  1  0
  6 18  1  0
  7 19  1  0
  8 20  1  0
  8 21  1  0
  9 22  1  0
  9 23  1  0
M  END
