
     RDKit          3D

 23 23  0  0  0  0  0  0  0  0999 V2000
    0.9970    2.2791    0.6345 C   0  0  0  0  0  0  0  0  0  0  0  0
    0.3652    1.1504   -0.1015 C   0  0  0  0  0  0  0  0  0  0  0  0
   -1.0312    1.0864    0.0855 O   0  0  0  0  0  0  0  0  0  0  0  0
   -1.3303   -0.0882   -0.6100 C   0  0  0  0  0  0  0  0  0  0  0  0
   -2.6851   -0.6213   -0.2296 C   0  0  0  0  0  0  0  0  0  0  0  0
   -0.2713   -1.0935   -0.2548 C   0  0  0  0  0  0  0  0  0  0  0  0
   -0.7145   -2.0754    0.6079 O   0  0  0  0  0  0  0  0  0  0  0  0
    0.7743   -0.2151    0.4237 C   0  0  0  0  0  0  0  0  0  0  0  0
    2.1684   -0.5564    0.0201 C   0  0  0  0  0  0  0  0  0  0  0  0
    1.0971    2.0679    1.7046 H   0  0  0  0  0  0  0  0  0  0  0  0
    0.3405    3.1778    0.5113 H   0  0  0  0  0  0  0  0  0  0  0  0
    1.9534    2.5483    0.1345 H   0  0  0  0  0  0  0  0  0  0  0  0
    0.5798    1.1487   -1.1844 H   0  0  0  0  0  0  0  0  0  0  0  0
   -1.2993    0.1543   -1.7025 H   0  0  0  0  0  0  0  0  0  0  0  0
   -2.6824   -1.7053   -0.4392 H   0  0  0  0  0  0  0  0  0  0  0  0
   -2.8077   -0.4501    0.8690 H   0  0  0  0  0  0  0  0  0  0  0  0
   -3.4779   -0.0976   -0.8183 H   0  0  0  0  0  0  0  0  0  0  0  0
    0.1417   -1.5084   -1.1859 H   0  0  0  0  0  0  0  0  0  0  0  0
   -0.3755   -2.9441    0.2544 H   0  0  0  0  0  0  0  0  0  0  0  0
    0.6187   -0.3256    1.5034 H   0  0  0  0  0  0  0  0  0  0  0  0
    2.3548   -1.6357   -0.1102 H   0  0  0  0  0  0  0  0  0  0  0  0
    2.4257   -0.0693   -0.9510 H   0  0  0  0  0  0  0  0  0  0  0  0
    2.8587   -0.2267    0.8386 H   0  0  0  0  0  0  0  0  0  0  0  0
  1  2  1  0
  2  3  1  0
  3  4  1  0
  4  5  1  0
  4  6  1  0
  6  7  1  0
  6  8  1  0
  8  9  1  0
  8  2  1  0
  1 10  1  0
  1 11  1  0
  1 12  1  0
  2 13  1  0
  4 14  1  0
  5 15  1  0
  5 16  1  0
  5 17  1  0
  6 18  1  0
  7 19  1  0
  8 20  1  0
  9 21  1  0
  9 22  1  0
  9 23  1  0
M  END
