
     RDKit          3D

 21 22  0  0  0  0  0  0  0  0999 V2000
    3.2392    0.3969   -0.3144 C   0  0  0  0  0  0  0  0  0  0  0  0
    1.8981   -0.2129   -0.6713 C   0  0  0  0  0  0  0  0  0  0  0  0
    0.9928    0.6963   -1.3839 O   0  0  0  0  0  0  0  0  0  0  0  0
    0.7312    0.3476   -0.0367 C   0  0  0  0  0  0  0  0  0  0  0  0
   -0.5151   -0.4209    0.2582 C   0  0  0  0  0  0  0  0  0  0  0  0
   -1.1956   -1.0129   -0.9756 C   0  0  0  0  0  0  0  0  0  0  0  0
   -2.5249   -0.6182   -0.3180 C   0  0  0  0  0  0  0  0  0  0  0  0
   -1.7352    0.5020    0.3597 C   0  0  0  0  0  0  0  0  0  0  0  0
   -2.1281    0.8066    1.6373 O   0  0  0  0  0  0  0  0  0  0  0  0
    4.0603   -0.1007   -0.8833 H   0  0  0  0  0  0  0  0  0  0  0  0
    3.4633    0.1673    0.7637 H   0  0  0  0  0  0  0  0  0  0  0  0
    3.2485    1.4957   -0.4264 H   0  0  0  0  0  0  0  0  0  0  0  0
    1.8755   -1.2262   -1.1136 H   0  0  0  0  0  0  0  0  0  0  0  0
    0.8672    1.2446    0.6270 H   0  0  0  0  0  0  0  0  0  0  0  0
   -0.3847   -1.1070    1.0948 H   0  0  0  0  0  0  0  0  0  0  0  0
   -0.9587   -0.3824   -1.8429 H   0  0  0  0  0  0  0  0  0  0  0  0
   -1.0888   -2.0986   -1.0878 H   0  0  0  0  0  0  0  0  0  0  0  0
   -3.2995   -0.2873   -1.0136 H   0  0  0  0  0  0  0  0  0  0  0  0
   -2.8224   -1.3783    0.4405 H   0  0  0  0  0  0  0  0  0  0  0  0
   -1.5806    1.3746   -0.3186 H   0  0  0  0  0  0  0  0  0  0  0  0
   -2.1422    1.8138    1.7026 H   0  0  0  0  0  0  0  0  0  0  0  0
  1  2  1  0
  2  3  1  0
  3  4  1  0
  4  5  1  0
  5  6  1  0
  6  7  1  0
  7  8  1  0
  8  9  1  0
  4  2  1  0
  8  5  1  0
  1 10  1  0
  1 11  1  0
  1 12  1  0
  2 13  1  0
  4 14  1  0
  5 15  1  0
  6 16  1  0
  6 17  1  0
  7 18  1  0
  7 19  1  0
  8 20  1  0
  9 21  1  0
M  END
