
     RDKit          3D

 17 18  0  0  0  0  0  0  0  0999 V2000
   -2.0927   -0.4839   -0.3566 C   0  0  0  0  0  0  0  0  0  0  0  0
   -1.2086    0.3635   -1.2701 C   0  0  0  0  0  0  0  0  0  0  0  0
   -0.9952    1.5997   -0.6384 O   0  0  0  0  0  0  0  0  0  0  0  0
    0.2616    1.3580   -0.1533 C   0  0  0  0  0  0  0  0  0  0  0  0
    0.6965    0.0343    0.3472 C   0  0  0  0  0  0  0  0  0  0  0  0
    2.0259   -0.0670    0.7600 O   0  0  0  0  0  0  0  0  0  0  0  0
    2.4697   -0.7986    1.8362 C   0  0  0  0  0  0  0  0  0  0  0  0
    1.6140   -1.4298    2.5070 O   0  0  0  0  0  0  0  0  0  0  0  0
    0.2869    0.1035   -1.0582 C   0  0  0  0  0  0  0  0  0  0  0  0
   -1.9095   -1.5675   -0.5009 H   0  0  0  0  0  0  0  0  0  0  0  0
   -3.1357   -0.2427   -0.6567 H   0  0  0  0  0  0  0  0  0  0  0  0
   -1.9866   -0.1621    0.6900 H   0  0  0  0  0  0  0  0  0  0  0  0
   -1.5180    0.4040   -2.3111 H   0  0  0  0  0  0  0  0  0  0  0  0
    1.0057    2.1290   -0.3449 H   0  0  0  0  0  0  0  0  0  0  0  0
    0.0021   -0.5652    1.0090 H   0  0  0  0  0  0  0  0  0  0  0  0
    3.5255   -0.7956    2.0517 H   0  0  0  0  0  0  0  0  0  0  0  0
    0.9584    0.1205   -1.9110 H   0  0  0  0  0  0  0  0  0  0  0  0
  1  2  1  0
  2  3  1  0
  3  4  1  0
  4  5  1  0
  5  6  1  0
  6  7  1  0
  7  8  2  0
  5  9  1  0
  9  2  1  0
  9  4  1  0
  1 10  1  0
  1 11  1  0
  1 12  1  0
  2 13  1  0
  4 14  1  0
  5 15  1  0
  7 16  1  0
  9 17  1  0
M  END
