
     RDKit          3D

 19 20  0  0  0  0  0  0  0  0999 V2000
    2.2660    0.1042    0.5104 C   0  0  0  0  0  0  0  0  0  0  0  0
    1.1242   -0.7090   -0.0132 C   0  0  0  0  0  0  0  0  0  0  0  0
    0.0378   -0.7498    0.8878 O   0  0  0  0  0  0  0  0  0  0  0  0
   -1.0606   -0.2619    0.1941 C   0  0  0  0  0  0  0  0  0  0  0  0
   -2.3705   -0.6701    0.7105 C   0  0  0  0  0  0  0  0  0  0  0  0
   -0.8663    1.1881    0.0031 C   0  0  0  0  0  0  0  0  0  0  0  0
    0.0945    1.2970   -0.9272 C   0  0  0  0  0  0  0  0  0  0  0  0
    0.4694   -0.1117   -1.2275 C   0  0  0  0  0  0  0  0  0  0  0  0
   -0.8029   -0.7294   -1.1202 O   0  0  0  0  0  0  0  0  0  0  0  0
    1.9215    0.9291    1.1346 H   0  0  0  0  0  0  0  0  0  0  0  0
    2.9857   -0.5765    1.0363 H   0  0  0  0  0  0  0  0  0  0  0  0
    2.8397    0.4681   -0.3905 H   0  0  0  0  0  0  0  0  0  0  0  0
    1.3891   -1.7465   -0.2196 H   0  0  0  0  0  0  0  0  0  0  0  0
   -3.1553   -0.0123    0.2931 H   0  0  0  0  0  0  0  0  0  0  0  0
   -2.6073   -1.6967    0.3468 H   0  0  0  0  0  0  0  0  0  0  0  0
   -2.3550   -0.6660    1.8171 H   0  0  0  0  0  0  0  0  0  0  0  0
   -1.3724    2.0122    0.4913 H   0  0  0  0  0  0  0  0  0  0  0  0
    0.5063    2.2070   -1.3633 H   0  0  0  0  0  0  0  0  0  0  0  0
    0.9563   -0.2757   -2.1636 H   0  0  0  0  0  0  0  0  0  0  0  0
  1  2  1  0
  2  3  1  0
  3  4  1  0
  4  5  1  0
  4  6  1  0
  6  7  2  0
  7  8  1  0
  8  9  1  0
  8  2  1  0
  9  4  1  0
  1 10  1  0
  1 11  1  0
  1 12  1  0
  2 13  1  0
  5 14  1  0
  5 15  1  0
  5 16  1  0
  6 17  1  0
  7 18  1  0
  8 19  1  0
M  END
