
     RDKit          3D

 21 22  0  0  0  0  0  0  0  0999 V2000
    1.9082   -0.1898    0.9134 C   0  0  0  0  0  0  0  0  0  0  0  0
    1.1648   -0.5483   -0.3558 C   0  0  0  0  0  0  0  0  0  0  0  0
    0.5612   -1.7654   -0.1661 O   0  0  0  0  0  0  0  0  0  0  0  0
   -0.7350   -1.7038   -0.6051 C   0  0  0  0  0  0  0  0  0  0  0  0
   -1.1457   -0.2470   -0.3502 C   0  0  0  0  0  0  0  0  0  0  0  0
   -2.0511    0.0312    0.6610 C   0  0  0  0  0  0  0  0  0  0  0  0
   -2.3706    0.1878   -0.7850 O   0  0  0  0  0  0  0  0  0  0  0  0
    0.1167    0.4541   -0.7144 C   0  0  0  0  0  0  0  0  0  0  0  0
    0.2991    1.7876   -0.0696 C   0  0  0  0  0  0  0  0  0  0  0  0
    1.9743    0.8803    1.0984 H   0  0  0  0  0  0  0  0  0  0  0  0
    1.3814   -0.6721    1.7846 H   0  0  0  0  0  0  0  0  0  0  0  0
    2.9283   -0.6308    0.8989 H   0  0  0  0  0  0  0  0  0  0  0  0
    1.9400   -0.6762   -1.1471 H   0  0  0  0  0  0  0  0  0  0  0  0
   -0.8213   -1.8345   -1.7212 H   0  0  0  0  0  0  0  0  0  0  0  0
   -1.4056   -2.3782   -0.0564 H   0  0  0  0  0  0  0  0  0  0  0  0
   -2.1574    1.0089    1.1829 H   0  0  0  0  0  0  0  0  0  0  0  0
   -2.6720   -0.7587    1.1320 H   0  0  0  0  0  0  0  0  0  0  0  0
    0.1276    0.5968   -1.8169 H   0  0  0  0  0  0  0  0  0  0  0  0
    0.1512    1.7917    1.0127 H   0  0  0  0  0  0  0  0  0  0  0  0
   -0.4708    2.4740   -0.4995 H   0  0  0  0  0  0  0  0  0  0  0  0
    1.2767    2.1925   -0.3968 H   0  0  0  0  0  0  0  0  0  0  0  0
  1  2  1  0
  2  3  1  0
  3  4  1  0
  4  5  1  0
  5  6  1  0
  6  7  1  0
  5  8  1  0
  8  9  1  0
  8  2  1  0
  7  5  1  0
  1 10  1  0
  1 11  1  0
  1 12  1  0
  2 13  1  0
  4 14  1  0
  4 15  1  0
  6 16  1  0
  6 17  1  0
  8 18  1  0
  9 19  1  0
  9 20  1  0
  9 21  1  0
M  END
