
     RDKit          3D

 17 17  0  0  0  0  0  0  0  0999 V2000
    1.8659    0.7691    0.3173 C   0  0  0  0  0  0  0  0  0  0  0  0
    0.8973   -0.2536   -0.1537 C   0  0  0  0  0  0  0  0  0  0  0  0
    0.4746   -1.1618    0.8234 O   0  0  0  0  0  0  0  0  0  0  0  0
   -0.8387   -1.5607    0.6096 C   0  0  0  0  0  0  0  0  0  0  0  0
   -1.4829   -2.3080    1.3787 O   0  0  0  0  0  0  0  0  0  0  0  0
   -1.2806   -0.9266   -0.6795 C   0  0  0  0  0  0  0  0  0  0  0  0
   -0.4087    0.3352   -0.6423 C   0  0  0  0  0  0  0  0  0  0  0  0
   -1.0065    1.2625    0.3454 C   0  0  0  0  0  0  0  0  0  0  0  0
   -0.7896    1.1846    1.5363 O   0  0  0  0  0  0  0  0  0  0  0  0
    2.6540    0.2329    0.9188 H   0  0  0  0  0  0  0  0  0  0  0  0
    2.4240    1.1859   -0.5573 H   0  0  0  0  0  0  0  0  0  0  0  0
    1.4504    1.5391    0.9715 H   0  0  0  0  0  0  0  0  0  0  0  0
    1.3348   -0.8208   -0.9846 H   0  0  0  0  0  0  0  0  0  0  0  0
   -2.3478   -0.6929   -0.6812 H   0  0  0  0  0  0  0  0  0  0  0  0
   -0.9567   -1.5757   -1.5249 H   0  0  0  0  0  0  0  0  0  0  0  0
   -0.3275    0.7562   -1.6413 H   0  0  0  0  0  0  0  0  0  0  0  0
   -1.6618    2.0347   -0.0361 H   0  0  0  0  0  0  0  0  0  0  0  0
  1  2  1  0
  2  3  1  0
  3  4  1  0
  4  5  2  0
  4  6  1  0
  6  7  1  0
  7  8  1  0
  8  9  2  0
  7  2  1  0
  1 10  1  0
  1 11  1  0
  1 12  1  0
  2 13  1  0
  6 14  1  0
  6 15  1  0
  7 16  1  0
  8 17  1  0
M  END
