
     RDKit          3D

 17 18  0  0  0  0  0  0  0  0999 V2000
    2.3305   -0.1338    0.0846 C   0  0  0  0  0  0  0  0  0  0  0  0
    0.9785   -0.1593   -0.5867 C   0  0  0  0  0  0  0  0  0  0  0  0
    0.5725    1.0058   -1.1895 O   0  0  0  0  0  0  0  0  0  0  0  0
   -0.5437    1.1626   -0.3861 C   0  0  0  0  0  0  0  0  0  0  0  0
   -1.8204    0.6981   -0.9119 C   0  0  0  0  0  0  0  0  0  0  0  0
   -2.5490    1.3284   -1.7108 O   0  0  0  0  0  0  0  0  0  0  0  0
   -2.1145   -0.6130   -0.3623 C   0  0  0  0  0  0  0  0  0  0  0  0
   -1.1372   -1.0152    0.4251 C   0  0  0  0  0  0  0  0  0  0  0  0
   -0.0906    0.0071    0.4703 C   0  0  0  0  0  0  0  0  0  0  0  0
    3.1519   -0.2132   -0.6512 H   0  0  0  0  0  0  0  0  0  0  0  0
    2.4244    0.7113    0.7704 H   0  0  0  0  0  0  0  0  0  0  0  0
    2.3660   -1.0634    0.7264 H   0  0  0  0  0  0  0  0  0  0  0  0
    0.8563   -1.0477   -1.2394 H   0  0  0  0  0  0  0  0  0  0  0  0
   -0.5520    2.1359    0.1526 H   0  0  0  0  0  0  0  0  0  0  0  0
   -3.0265   -1.1840   -0.5774 H   0  0  0  0  0  0  0  0  0  0  0  0
   -1.1012   -1.9493    0.9590 H   0  0  0  0  0  0  0  0  0  0  0  0
    0.2549    0.3297    1.4544 H   0  0  0  0  0  0  0  0  0  0  0  0
  1  2  1  0
  2  3  1  0
  3  4  1  0
  4  5  1  0
  5  6  2  0
  5  7  1  0
  7  8  2  0
  8  9  1  0
  9  2  1  0
  9  4  1  0
  1 10  1  0
  1 11  1  0
  1 12  1  0
  2 13  1  0
  4 14  1  0
  7 15  1  0
  8 16  1  0
  9 17  1  0
M  END
