
     RDKit          3D

 18 18  0  0  0  0  0  0  0  0999 V2000
    2.4467    0.0889    0.0822 C   0  0  0  0  0  0  0  0  0  0  0  0
    1.1424   -0.4046    0.6228 C   0  0  0  0  0  0  0  0  0  0  0  0
    0.2190    0.5941    0.9479 O   0  0  0  0  0  0  0  0  0  0  0  0
   -0.6977    0.0956    0.0179 C   0  0  0  0  0  0  0  0  0  0  0  0
   -1.1429    1.1555   -0.9395 C   0  0  0  0  0  0  0  0  0  0  0  0
   -1.8994   -0.5480    0.6994 C   0  0  0  0  0  0  0  0  0  0  0  0
    0.2618   -0.8951   -0.4678 C   0  0  0  0  0  0  0  0  0  0  0  0
    0.4034   -1.7462   -1.3130 O   0  0  0  0  0  0  0  0  0  0  0  0
    3.0261    0.6824    0.8064 H   0  0  0  0  0  0  0  0  0  0  0  0
    2.2897    0.6797   -0.8546 H   0  0  0  0  0  0  0  0  0  0  0  0
    3.0529   -0.7873   -0.2004 H   0  0  0  0  0  0  0  0  0  0  0  0
    1.2801   -1.1143    1.4595 H   0  0  0  0  0  0  0  0  0  0  0  0
   -1.5506    0.7200   -1.8754 H   0  0  0  0  0  0  0  0  0  0  0  0
   -1.9899    1.7050   -0.4696 H   0  0  0  0  0  0  0  0  0  0  0  0
   -0.3337    1.8746   -1.1105 H   0  0  0  0  0  0  0  0  0  0  0  0
   -2.4595    0.2077    1.2970 H   0  0  0  0  0  0  0  0  0  0  0  0
   -2.5749   -0.9540   -0.0565 H   0  0  0  0  0  0  0  0  0  0  0  0
   -1.4736   -1.3539    1.3542 H   0  0  0  0  0  0  0  0  0  0  0  0
  1  2  1  0
  2  3  1  0
  3  4  1  0
  4  5  1  0
  4  6  1  0
  4  7  1  0
  7  8  2  0
  7  2  1  0
  1  9  1  0
  1 10  1  0
  1 11  1  0
  2 12  1  0
  5 13  1  0
  5 14  1  0
  5 15  1  0
  6 16  1  0
  6 17  1  0
  6 18  1  0
M  END
