
     RDKit          3D

 18 19  0  0  0  0  0  0  0  0999 V2000
   -2.4591   -0.4003   -0.0412 C   0  0  0  0  0  0  0  0  0  0  0  0
   -1.1195    0.1358   -0.4114 C   0  0  0  0  0  0  0  0  0  0  0  0
   -0.3413   -0.8665   -1.0172 O   0  0  0  0  0  0  0  0  0  0  0  0
    0.5925   -0.9551    0.0390 C   0  0  0  0  0  0  0  0  0  0  0  0
    1.9739   -0.4750   -0.3300 C   0  0  0  0  0  0  0  0  0  0  0  0
    1.9482    0.9898   -0.0796 C   0  0  0  0  0  0  0  0  0  0  0  0
    0.8095    1.3625    0.4705 C   0  0  0  0  0  0  0  0  0  0  0  0
   -0.0907    0.2215    0.6707 C   0  0  0  0  0  0  0  0  0  0  0  0
   -3.0355   -0.5549   -0.9827 H   0  0  0  0  0  0  0  0  0  0  0  0
   -3.0102    0.2785    0.6587 H   0  0  0  0  0  0  0  0  0  0  0  0
   -2.3194   -1.3713    0.4843 H   0  0  0  0  0  0  0  0  0  0  0  0
   -1.2089    1.0277   -1.0671 H   0  0  0  0  0  0  0  0  0  0  0  0
    0.5275   -1.8571    0.6454 H   0  0  0  0  0  0  0  0  0  0  0  0
    2.1083   -0.6704   -1.4164 H   0  0  0  0  0  0  0  0  0  0  0  0
    2.7694   -0.9648    0.2370 H   0  0  0  0  0  0  0  0  0  0  0  0
    2.7579    1.6620   -0.3175 H   0  0  0  0  0  0  0  0  0  0  0  0
    0.5428    2.3908    0.7531 H   0  0  0  0  0  0  0  0  0  0  0  0
   -0.4453    0.0466    1.7045 H   0  0  0  0  0  0  0  0  0  0  0  0
  1  2  1  0
  2  3  1  0
  3  4  1  0
  4  5  1  0
  5  6  1  0
  6  7  2  0
  7  8  1  0
  8  2  1  0
  8  4  1  0
  1  9  1  0
  1 10  1  0
  1 11  1  0
  2 12  1  0
  4 13  1  0
  5 14  1  0
  5 15  1  0
  6 16  1  0
  7 17  1  0
  8 18  1  0
M  END
