
     RDKit          3D

 19 19  0  0  0  0  0  0  0  0999 V2000
   -2.8089    1.1160    0.2479 C   0  0  0  0  0  0  0  0  0  0  0  0
   -1.9421   -0.1205    0.2917 C   0  0  0  0  0  0  0  0  0  0  0  0
   -1.5225   -0.4836   -1.0690 O   0  0  0  0  0  0  0  0  0  0  0  0
   -0.5089   -0.0089   -0.0929 C   0  0  0  0  0  0  0  0  0  0  0  0
    0.4053   -1.0968    0.2538 C   0  0  0  0  0  0  0  0  0  0  0  0
    1.8020   -1.0110   -0.1147 C   0  0  0  0  0  0  0  0  0  0  0  0
    2.4816   -1.9945    0.2573 O   0  0  0  0  0  0  0  0  0  0  0  0
    2.5616   -0.0037   -0.8320 C   0  0  0  0  0  0  0  0  0  0  0  0
    1.9082    1.0926   -1.2930 O   0  0  0  0  0  0  0  0  0  0  0  0
   -2.8225    1.5971    1.2468 H   0  0  0  0  0  0  0  0  0  0  0  0
   -2.4388    1.7790   -0.5510 H   0  0  0  0  0  0  0  0  0  0  0  0
   -3.8364    0.7798   -0.0575 H   0  0  0  0  0  0  0  0  0  0  0  0
   -2.3260   -1.0398    0.7788 H   0  0  0  0  0  0  0  0  0  0  0  0
   -0.2113    1.0013   -0.4239 H   0  0  0  0  0  0  0  0  0  0  0  0
    0.0170   -2.0899   -0.1115 H   0  0  0  0  0  0  0  0  0  0  0  0
    0.3681   -1.2223    1.3764 H   0  0  0  0  0  0  0  0  0  0  0  0
    3.0414   -0.4989   -1.7273 H   0  0  0  0  0  0  0  0  0  0  0  0
    3.4358    0.2956   -0.1851 H   0  0  0  0  0  0  0  0  0  0  0  0
    2.3962    1.9085   -1.0117 H   0  0  0  0  0  0  0  0  0  0  0  0
  1  2  1  0
  2  3  1  0
  3  4  1  0
  4  5  1  0
  5  6  1  0
  6  7  2  0
  6  8  1  0
  8  9  1  0
  4  2  1  0
  1 10  1  0
  1 11  1  0
  1 12  1  0
  2 13  1  0
  4 14  1  0
  5 15  1  0
  5 16  1  0
  8 17  1  0
  8 18  1  0
  9 19  1  0
M  END
