
     RDKit          3D

 21 22  0  0  0  0  0  0  0  0999 V2000
    2.5349    0.4048   -0.1890 C   0  0  0  0  0  0  0  0  0  0  0  0
    1.0572    0.7795   -0.1382 C   0  0  0  0  0  0  0  0  0  0  0  0
    0.5701    0.7073    1.1365 O   0  0  0  0  0  0  0  0  0  0  0  0
   -0.3167   -0.3048    1.3623 C   0  0  0  0  0  0  0  0  0  0  0  0
    0.0756   -1.5732    0.5886 C   0  0  0  0  0  0  0  0  0  0  0  0
   -0.5327   -0.8395   -0.6124 C   0  0  0  0  0  0  0  0  0  0  0  0
    0.3402    0.0922   -1.0861 O   0  0  0  0  0  0  0  0  0  0  0  0
   -1.5150   -0.2673    0.4051 C   0  0  0  0  0  0  0  0  0  0  0  0
   -2.0504    1.0804    0.1050 C   0  0  0  0  0  0  0  0  0  0  0  0
    2.9035    0.2756    0.8673 H   0  0  0  0  0  0  0  0  0  0  0  0
    3.1595    1.1852   -0.6317 H   0  0  0  0  0  0  0  0  0  0  0  0
    2.7017   -0.5169   -0.7936 H   0  0  0  0  0  0  0  0  0  0  0  0
    1.0214    1.8690   -0.4397 H   0  0  0  0  0  0  0  0  0  0  0  0
   -0.5550   -0.4957    2.4015 H   0  0  0  0  0  0  0  0  0  0  0  0
   -0.5769   -2.4158    0.8611 H   0  0  0  0  0  0  0  0  0  0  0  0
    1.1385   -1.7694    0.5281 H   0  0  0  0  0  0  0  0  0  0  0  0
   -0.9552   -1.4710   -1.3825 H   0  0  0  0  0  0  0  0  0  0  0  0
   -2.2365   -1.0586    0.6948 H   0  0  0  0  0  0  0  0  0  0  0  0
   -3.1516    0.9536   -0.1163 H   0  0  0  0  0  0  0  0  0  0  0  0
   -1.5776    1.5933   -0.7579 H   0  0  0  0  0  0  0  0  0  0  0  0
   -2.0351    1.7713    0.9905 H   0  0  0  0  0  0  0  0  0  0  0  0
  1  2  1  0
  2  3  1  0
  3  4  1  0
  4  5  1  0
  5  6  1  0
  6  7  1  0
  6  8  1  0
  8  9  1  0
  7  2  1  0
  8  4  1  0
  1 10  1  0
  1 11  1  0
  1 12  1  0
  2 13  1  0
  4 14  1  0
  5 15  1  0
  5 16  1  0
  6 17  1  0
  8 18  1  0
  9 19  1  0
  9 20  1  0
  9 21  1  0
M  END
