
     RDKit          3D

 17 17  0  0  0  0  0  0  0  0999 V2000
   -1.6380   -1.0891   -0.1410 C   0  0  0  0  0  0  0  0  0  0  0  0
   -0.2486   -0.6699    0.3619 C   0  0  0  0  0  0  0  0  0  0  0  0
    0.6410   -1.0722   -0.6200 O   0  0  0  0  0  0  0  0  0  0  0  0
    1.9306   -0.6310   -0.4123 C   0  0  0  0  0  0  0  0  0  0  0  0
    1.9621    0.7963   -0.5467 O   0  0  0  0  0  0  0  0  0  0  0  0
    0.7900    1.4964   -0.2628 C   0  0  0  0  0  0  0  0  0  0  0  0
    0.6420    2.6433   -0.7526 O   0  0  0  0  0  0  0  0  0  0  0  0
   -0.2003    0.8258    0.6037 C   0  0  0  0  0  0  0  0  0  0  0  0
   -1.4698    1.4046    0.4926 O   0  0  0  0  0  0  0  0  0  0  0  0
   -1.5100   -2.0935   -0.5932 H   0  0  0  0  0  0  0  0  0  0  0  0
   -1.8982   -0.3492   -0.9225 H   0  0  0  0  0  0  0  0  0  0  0  0
   -2.3660   -1.1596    0.6701 H   0  0  0  0  0  0  0  0  0  0  0  0
   -0.1059   -1.2256    1.3147 H   0  0  0  0  0  0  0  0  0  0  0  0
    2.5599   -1.0544   -1.2206 H   0  0  0  0  0  0  0  0  0  0  0  0
    2.2675   -0.9052    0.5903 H   0  0  0  0  0  0  0  0  0  0  0  0
    0.1164    0.9952    1.6659 H   0  0  0  0  0  0  0  0  0  0  0  0
   -1.4728    2.0882   -0.2277 H   0  0  0  0  0  0  0  0  0  0  0  0
  1  2  1  0
  2  3  1  0
  3  4  1  0
  4  5  1  0
  5  6  1  0
  6  7  2  0
  6  8  1  0
  8  9  1  0
  8  2  1  0
  1 10  1  0
  1 11  1  0
  1 12  1  0
  2 13  1  0
  4 14  1  0
  4 15  1  0
  8 16  1  0
  9 17  1  0
M  END
