
     RDKit          3D

 21 22  0  0  0  0  0  0  0  0999 V2000
    2.4284    0.3554   -0.0335 C   0  0  0  0  0  0  0  0  0  0  0  0
    1.0877    0.2885    0.6703 C   0  0  0  0  0  0  0  0  0  0  0  0
    0.2843    1.2714    0.1686 O   0  0  0  0  0  0  0  0  0  0  0  0
   -0.4961    0.8000   -0.8443 C   0  0  0  0  0  0  0  0  0  0  0  0
   -1.9324    0.7265   -0.3234 C   0  0  0  0  0  0  0  0  0  0  0  0
   -1.8975   -0.1524    0.8893 C   0  0  0  0  0  0  0  0  0  0  0  0
   -0.9048   -0.9705    1.1591 C   0  0  0  0  0  0  0  0  0  0  0  0
    0.3439   -0.9858    0.3509 C   0  0  0  0  0  0  0  0  0  0  0  0
   -0.0990   -0.6658   -1.0797 C   0  0  0  0  0  0  0  0  0  0  0  0
    3.1835    0.7586    0.6505 H   0  0  0  0  0  0  0  0  0  0  0  0
    2.3910    1.0644   -0.9094 H   0  0  0  0  0  0  0  0  0  0  0  0
    2.7362   -0.6113   -0.4480 H   0  0  0  0  0  0  0  0  0  0  0  0
    1.2170    0.3264    1.7813 H   0  0  0  0  0  0  0  0  0  0  0  0
   -0.4284    1.3660   -1.7776 H   0  0  0  0  0  0  0  0  0  0  0  0
   -2.6256    0.3482   -1.0950 H   0  0  0  0  0  0  0  0  0  0  0  0
   -2.2395    1.7698   -0.0552 H   0  0  0  0  0  0  0  0  0  0  0  0
   -2.7481   -0.0894    1.5608 H   0  0  0  0  0  0  0  0  0  0  0  0
   -0.9600   -1.6661    1.9832 H   0  0  0  0  0  0  0  0  0  0  0  0
    0.9260   -1.8893    0.4297 H   0  0  0  0  0  0  0  0  0  0  0  0
   -0.9809   -1.2914   -1.2815 H   0  0  0  0  0  0  0  0  0  0  0  0
    0.7141   -0.7530   -1.7962 H   0  0  0  0  0  0  0  0  0  0  0  0
  1  2  1  0
  2  3  1  0
  3  4  1  0
  4  5  1  0
  5  6  1  0
  6  7  2  0
  7  8  1  0
  8  9  1  0
  8  2  1  0
  9  4  1  0
  1 10  1  0
  1 11  1  0
  1 12  1  0
  2 13  1  0
  4 14  1  0
  5 15  1  0
  5 16  1  0
  6 17  1  0
  7 18  1  0
  8 19  1  0
  9 20  1  0
  9 21  1  0
M  END
