
     RDKit          3D

 21 22  0  0  0  0  0  0  0  0999 V2000
    2.9592    0.7537   -0.2283 C   0  0  0  0  0  0  0  0  0  0  0  0
    1.8296   -0.2527   -0.2488 C   0  0  0  0  0  0  0  0  0  0  0  0
    1.6237   -0.8305    1.1157 O   0  0  0  0  0  0  0  0  0  0  0  0
    0.5882   -0.0819    0.4255 C   0  0  0  0  0  0  0  0  0  0  0  0
   -0.6026   -0.9038   -0.0222 C   0  0  0  0  0  0  0  0  0  0  0  0
   -0.2915   -1.9399   -0.9113 O   0  0  0  0  0  0  0  0  0  0  0  0
   -1.7604   -1.0985    0.8711 C   0  0  0  0  0  0  0  0  0  0  0  0
   -1.8629   -0.1566   -0.2866 C   0  0  0  0  0  0  0  0  0  0  0  0
   -1.9558    1.3106    0.0596 C   0  0  0  0  0  0  0  0  0  0  0  0
    3.7265    0.5168    0.5192 H   0  0  0  0  0  0  0  0  0  0  0  0
    3.4682    0.7871   -1.2185 H   0  0  0  0  0  0  0  0  0  0  0  0
    2.5856    1.7954   -0.0587 H   0  0  0  0  0  0  0  0  0  0  0  0
    1.9303   -1.0555   -1.0173 H   0  0  0  0  0  0  0  0  0  0  0  0
    0.3019    0.8662    0.9364 H   0  0  0  0  0  0  0  0  0  0  0  0
   -0.0253   -1.5670   -1.7934 H   0  0  0  0  0  0  0  0  0  0  0  0
   -2.3467   -2.0376    0.7383 H   0  0  0  0  0  0  0  0  0  0  0  0
   -1.6966   -0.6576    1.9021 H   0  0  0  0  0  0  0  0  0  0  0  0
   -2.4389   -0.4561   -1.1802 H   0  0  0  0  0  0  0  0  0  0  0  0
   -1.2587    1.9225   -0.5840 H   0  0  0  0  0  0  0  0  0  0  0  0
   -1.7644    1.4560    1.1253 H   0  0  0  0  0  0  0  0  0  0  0  0
   -3.0094    1.6294   -0.1439 H   0  0  0  0  0  0  0  0  0  0  0  0
  1  2  1  0
  2  3  1  0
  3  4  1  0
  4  5  1  0
  5  6  1  0
  5  7  1  0
  7  8  1  0
  8  9  1  0
  4  2  1  0
  8  5  1  0
  1 10  1  0
  1 11  1  0
  1 12  1  0
  2 13  1  0
  4 14  1  0
  6 15  1  0
  7 16  1  0
  7 17  1  0
  8 18  1  0
  9 19  1  0
  9 20  1  0
  9 21  1  0
M  END
