
     RDKit          3D

 18 19  0  0  0  0  0  0  0  0999 V2000
    2.5106   -0.1887   -0.1252 C   0  0  0  0  0  0  0  0  0  0  0  0
    1.2636    0.3366   -0.8305 C   0  0  0  0  0  0  0  0  0  0  0  0
    0.4442   -0.6111   -1.4142 O   0  0  0  0  0  0  0  0  0  0  0  0
    0.0136    0.1690   -0.2221 C   0  0  0  0  0  0  0  0  0  0  0  0
   -1.2575    0.8868   -0.5218 C   0  0  0  0  0  0  0  0  0  0  0  0
   -2.3068   -0.0771   -0.0002 C   0  0  0  0  0  0  0  0  0  0  0  0
   -1.6489   -1.1675    0.5096 O   0  0  0  0  0  0  0  0  0  0  0  0
   -0.3633   -0.7651    0.8687 C   0  0  0  0  0  0  0  0  0  0  0  0
    2.2459   -0.6548    0.8509 H   0  0  0  0  0  0  0  0  0  0  0  0
    3.0448   -0.9286   -0.7673 H   0  0  0  0  0  0  0  0  0  0  0  0
    3.2275    0.6343    0.0579 H   0  0  0  0  0  0  0  0  0  0  0  0
    1.4770    1.2527   -1.4179 H   0  0  0  0  0  0  0  0  0  0  0  0
   -1.3942    1.1456   -1.5732 H   0  0  0  0  0  0  0  0  0  0  0  0
   -1.2856    1.8208    0.1095 H   0  0  0  0  0  0  0  0  0  0  0  0
   -3.0273   -0.3619   -0.8126 H   0  0  0  0  0  0  0  0  0  0  0  0
   -2.9035    0.3985    0.8029 H   0  0  0  0  0  0  0  0  0  0  0  0
    0.3356   -1.6189    0.8774 H   0  0  0  0  0  0  0  0  0  0  0  0
   -0.3756   -0.2707    1.8599 H   0  0  0  0  0  0  0  0  0  0  0  0
  1  2  1  0
  2  3  1  0
  3  4  1  0
  4  5  1  0
  5  6  1  0
  6  7  1  0
  7  8  1  0
  4  2  1  0
  8  4  1  0
  1  9  1  0
  1 10  1  0
  1 11  1  0
  2 12  1  0
  5 13  1  0
  5 14  1  0
  6 15  1  0
  6 16  1  0
  8 17  1  0
  8 18  1  0
M  END
