
     RDKit          3D

 25 25  0  0  0  0  0  0  0  0999 V2000
    2.0034    1.1533   -0.8294 C   0  0  0  0  0  0  0  0  0  0  0  0
    0.9825    0.9471    0.2378 C   0  0  0  0  0  0  0  0  0  0  0  0
   -0.2368    1.5999    0.0611 O   0  0  0  0  0  0  0  0  0  0  0  0
   -0.9256    0.3633    0.0648 C   0  0  0  0  0  0  0  0  0  0  0  0
   -1.9940    0.3462    1.0903 C   0  0  0  0  0  0  0  0  0  0  0  0
   -1.5315    0.2032   -1.3378 C   0  0  0  0  0  0  0  0  0  0  0  0
    0.3182   -0.3898    0.3035 C   0  0  0  0  0  0  0  0  0  0  0  0
    0.5293   -1.0500    1.6188 C   0  0  0  0  0  0  0  0  0  0  0  0
    0.6227   -1.3400   -0.8323 C   0  0  0  0  0  0  0  0  0  0  0  0
    3.0351    1.3439   -0.4099 H   0  0  0  0  0  0  0  0  0  0  0  0
    1.7683    2.0939   -1.3960 H   0  0  0  0  0  0  0  0  0  0  0  0
    2.1263    0.3060   -1.5220 H   0  0  0  0  0  0  0  0  0  0  0  0
    1.4076    1.2848    1.2285 H   0  0  0  0  0  0  0  0  0  0  0  0
   -3.0217    0.2105    0.6410 H   0  0  0  0  0  0  0  0  0  0  0  0
   -1.9070   -0.4138    1.8682 H   0  0  0  0  0  0  0  0  0  0  0  0
   -2.0562    1.3358    1.6330 H   0  0  0  0  0  0  0  0  0  0  0  0
   -0.8668    0.6744   -2.1074 H   0  0  0  0  0  0  0  0  0  0  0  0
   -1.7756   -0.8367   -1.5650 H   0  0  0  0  0  0  0  0  0  0  0  0
   -2.4560    0.8411   -1.3408 H   0  0  0  0  0  0  0  0  0  0  0  0
    0.8955   -0.3084    2.3776 H   0  0  0  0  0  0  0  0  0  0  0  0
   -0.3003   -1.6652    1.9800 H   0  0  0  0  0  0  0  0  0  0  0  0
    1.4012   -1.7598    1.4960 H   0  0  0  0  0  0  0  0  0  0  0  0
    1.6752   -1.6960   -0.8232 H   0  0  0  0  0  0  0  0  0  0  0  0
    0.2997   -0.9795   -1.8108 H   0  0  0  0  0  0  0  0  0  0  0  0
    0.0064   -2.2641   -0.6261 H   0  0  0  0  0  0  0  0  0  0  0  0
  1  2  1  0
  2  3  1  0
  3  4  1  0
  4  5  1  0
  4  6  1  0
  4  7  1  0
  7  8  1  0
  7  9  1  0
  7  2  1  0
  1 10  1  0
  1 11  1  0
  1 12  1  0
  2 13  1  0
  5 14  1  0
  5 15  1  0
  5 16  1  0
  6 17  1  0
  6 18  1  0
  6 19  1  0
  8 20  1  0
  8 21  1  0
  8 22  1  0
  9 23  1  0
  9 24  1  0
  9 25  1  0
M  END
