
     RDKit          3D

 19 19  0  0  0  0  0  0  0  0999 V2000
    2.4197    0.0977    0.0991 C   0  0  0  0  0  0  0  0  0  0  0  0
    0.9354    0.3053    0.1647 C   0  0  0  0  0  0  0  0  0  0  0  0
    0.4102    0.6853   -1.0779 O   0  0  0  0  0  0  0  0  0  0  0  0
   -0.8117    1.3272   -0.8681 C   0  0  0  0  0  0  0  0  0  0  0  0
   -1.7747    0.4693   -0.0720 C   0  0  0  0  0  0  0  0  0  0  0  0
   -1.7931   -0.7860   -0.6938 O   0  0  0  0  0  0  0  0  0  0  0  0
   -0.9919   -1.6170    0.0957 C   0  0  0  0  0  0  0  0  0  0  0  0
    0.2278   -0.9455    0.5612 C   0  0  0  0  0  0  0  0  0  0  0  0
    0.7877   -1.5525    1.4834 O   0  0  0  0  0  0  0  0  0  0  0  0
    2.7020   -0.9748    0.0774 H   0  0  0  0  0  0  0  0  0  0  0  0
    2.9012    0.6072   -0.7386 H   0  0  0  0  0  0  0  0  0  0  0  0
    2.8693    0.5100    1.0312 H   0  0  0  0  0  0  0  0  0  0  0  0
    0.7043    1.1285    0.8689 H   0  0  0  0  0  0  0  0  0  0  0  0
   -0.6470    2.3038   -0.3441 H   0  0  0  0  0  0  0  0  0  0  0  0
   -1.3025    1.4940   -1.8631 H   0  0  0  0  0  0  0  0  0  0  0  0
   -1.5172    0.4056    0.9951 H   0  0  0  0  0  0  0  0  0  0  0  0
   -2.7774    0.9274   -0.1540 H   0  0  0  0  0  0  0  0  0  0  0  0
   -1.6352   -1.9151    0.9625 H   0  0  0  0  0  0  0  0  0  0  0  0
   -0.7067   -2.4704   -0.5276 H   0  0  0  0  0  0  0  0  0  0  0  0
  1  2  1  0
  2  3  1  0
  3  4  1  0
  4  5  1  0
  5  6  1  0
  6  7  1  0
  7  8  1  0
  8  9  2  0
  8  2  1  0
  1 10  1  0
  1 11  1  0
  1 12  1  0
  2 13  1  0
  4 14  1  0
  4 15  1  0
  5 16  1  0
  5 17  1  0
  7 18  1  0
  7 19  1  0
M  END
