
     RDKit          3D

 21 22  0  0  0  0  0  0  0  0999 V2000
   -0.0093    2.0298   -0.4940 C   0  0  0  0  0  0  0  0  0  0  0  0
   -0.2847    0.9402    0.5517 C   0  0  0  0  0  0  0  0  0  0  0  0
    0.9091    0.6515    1.1761 O   0  0  0  0  0  0  0  0  0  0  0  0
    1.8509    0.0970    0.3322 C   0  0  0  0  0  0  0  0  0  0  0  0
    1.3965   -1.2585   -0.0768 C   0  0  0  0  0  0  0  0  0  0  0  0
   -0.0578   -1.4610   -0.1611 C   0  0  0  0  0  0  0  0  0  0  0  0
   -0.9079   -0.2482   -0.0694 C   0  0  0  0  0  0  0  0  0  0  0  0
   -2.3874   -0.5561    0.1898 C   0  0  0  0  0  0  0  0  0  0  0  0
   -1.9179    0.0062   -0.9807 O   0  0  0  0  0  0  0  0  0  0  0  0
    0.4276    1.5973   -1.4161 H   0  0  0  0  0  0  0  0  0  0  0  0
   -0.9462    2.5341   -0.7932 H   0  0  0  0  0  0  0  0  0  0  0  0
    0.6821    2.7835   -0.0435 H   0  0  0  0  0  0  0  0  0  0  0  0
   -0.9376    1.4375    1.3123 H   0  0  0  0  0  0  0  0  0  0  0  0
    2.7999    0.0132    0.9226 H   0  0  0  0  0  0  0  0  0  0  0  0
    2.0548    0.6894   -0.5724 H   0  0  0  0  0  0  0  0  0  0  0  0
    1.8842   -1.5124   -1.0567 H   0  0  0  0  0  0  0  0  0  0  0  0
    1.8270   -2.0022    0.6478 H   0  0  0  0  0  0  0  0  0  0  0  0
   -0.3215   -1.9761   -1.1320 H   0  0  0  0  0  0  0  0  0  0  0  0
   -0.4201   -2.1857    0.6251 H   0  0  0  0  0  0  0  0  0  0  0  0
   -2.9106    0.0208    0.9468 H   0  0  0  0  0  0  0  0  0  0  0  0
   -2.7309   -1.6001    0.0916 H   0  0  0  0  0  0  0  0  0  0  0  0
  1  2  1  0
  2  3  1  0
  3  4  1  0
  4  5  1  0
  5  6  1  0
  6  7  1  0
  7  8  1  0
  8  9  1  0
  7  2  1  0
  9  7  1  0
  1 10  1  0
  1 11  1  0
  1 12  1  0
  2 13  1  0
  4 14  1  0
  4 15  1  0
  5 16  1  0
  5 17  1  0
  6 18  1  0
  6 19  1  0
  8 20  1  0
  8 21  1  0
M  END
