
     RDKit          3D

 21 22  0  0  0  0  0  0  0  0999 V2000
   -2.5990    0.7765   -0.9240 C   0  0  0  0  0  0  0  0  0  0  0  0
   -1.2258    0.6311   -0.3664 C   0  0  0  0  0  0  0  0  0  0  0  0
   -0.2188    0.3924   -1.3123 O   0  0  0  0  0  0  0  0  0  0  0  0
    0.4137   -0.3664   -0.3704 C   0  0  0  0  0  0  0  0  0  0  0  0
    1.4989   -1.2869   -0.5918 C   0  0  0  0  0  0  0  0  0  0  0  0
    1.6340   -0.0379    0.3179 C   0  0  0  0  0  0  0  0  0  0  0  0
    2.5073    1.0514   -0.3183 C   0  0  0  0  0  0  0  0  0  0  0  0
   -0.8945   -0.7097    0.2548 C   0  0  0  0  0  0  0  0  0  0  0  0
   -1.4641   -1.8085   -0.4079 O   0  0  0  0  0  0  0  0  0  0  0  0
   -2.6256    1.5080   -1.7688 H   0  0  0  0  0  0  0  0  0  0  0  0
   -3.0230   -0.1972   -1.2449 H   0  0  0  0  0  0  0  0  0  0  0  0
   -3.2500    1.1901   -0.1148 H   0  0  0  0  0  0  0  0  0  0  0  0
   -0.9364    1.4343    0.3592 H   0  0  0  0  0  0  0  0  0  0  0  0
    2.1145   -1.3404   -1.4845 H   0  0  0  0  0  0  0  0  0  0  0  0
    1.4765   -2.2523   -0.0067 H   0  0  0  0  0  0  0  0  0  0  0  0
    1.8079   -0.2166    1.3842 H   0  0  0  0  0  0  0  0  0  0  0  0
    2.3746    2.0162    0.1853 H   0  0  0  0  0  0  0  0  0  0  0  0
    2.1796    1.2053   -1.3782 H   0  0  0  0  0  0  0  0  0  0  0  0
    3.5678    0.7026   -0.3280 H   0  0  0  0  0  0  0  0  0  0  0  0
   -0.9271   -0.7541    1.3511 H   0  0  0  0  0  0  0  0  0  0  0  0
   -2.4109   -1.9378   -0.1767 H   0  0  0  0  0  0  0  0  0  0  0  0
  1  2  1  0
  2  3  1  0
  3  4  1  0
  4  5  1  0
  5  6  1  0
  6  7  1  0
  4  8  1  0
  8  9  1  0
  8  2  1  0
  6  4  1  0
  1 10  1  0
  1 11  1  0
  1 12  1  0
  2 13  1  0
  5 14  1  0
  5 15  1  0
  6 16  1  0
  7 17  1  0
  7 18  1  0
  7 19  1  0
  8 20  1  0
  9 21  1  0
M  END
