
     RDKit          3D

 17 18  0  0  0  0  0  0  0  0999 V2000
    2.3153    0.0320    0.1759 C   0  0  0  0  0  0  0  0  0  0  0  0
    0.8817    0.3275   -0.2095 C   0  0  0  0  0  0  0  0  0  0  0  0
    0.5245   -0.2712   -1.4433 O   0  0  0  0  0  0  0  0  0  0  0  0
   -0.7740   -0.7456   -1.3805 C   0  0  0  0  0  0  0  0  0  0  0  0
   -1.3838   -1.2065   -2.3685 O   0  0  0  0  0  0  0  0  0  0  0  0
   -1.3091   -0.6314   -0.0314 C   0  0  0  0  0  0  0  0  0  0  0  0
   -1.8199    0.7243    0.3823 C   0  0  0  0  0  0  0  0  0  0  0  0
   -0.8411    0.7968    1.3637 O   0  0  0  0  0  0  0  0  0  0  0  0
   -0.1106   -0.1984    0.7707 C   0  0  0  0  0  0  0  0  0  0  0  0
    2.6997   -0.8821   -0.2803 H   0  0  0  0  0  0  0  0  0  0  0  0
    2.3643    0.0058    1.3017 H   0  0  0  0  0  0  0  0  0  0  0  0
    2.9814    0.8877   -0.1404 H   0  0  0  0  0  0  0  0  0  0  0  0
    0.7682    1.4321   -0.3633 H   0  0  0  0  0  0  0  0  0  0  0  0
   -1.9102   -1.4464    0.3676 H   0  0  0  0  0  0  0  0  0  0  0  0
   -2.8348    0.7063    0.8395 H   0  0  0  0  0  0  0  0  0  0  0  0
   -1.7744    1.4986   -0.4028 H   0  0  0  0  0  0  0  0  0  0  0  0
    0.2227   -1.0293    1.4186 H   0  0  0  0  0  0  0  0  0  0  0  0
  1  2  1  0
  2  3  1  0
  3  4  1  0
  4  5  2  0
  4  6  1  0
  6  7  1  0
  7  8  1  0
  8  9  1  0
  9  2  1  0
  9  6  1  0
  1 10  1  0
  1 11  1  0
  1 12  1  0
  2 13  1  0
  6 14  1  0
  7 15  1  0
  7 16  1  0
  9 17  1  0
M  END
