
     RDKit          3D

 21 23  0  0  0  0  0  0  0  0999 V2000
   -1.8441   -1.0862   -1.1923 C   0  0  0  0  0  0  0  0  0  0  0  0
   -0.9236   -0.8518   -0.0163 C   0  0  0  0  0  0  0  0  0  0  0  0
   -1.6934   -0.3921    1.0728 O   0  0  0  0  0  0  0  0  0  0  0  0
   -1.1782    0.8931    1.1192 C   0  0  0  0  0  0  0  0  0  0  0  0
   -1.0128    1.7057   -0.1050 C   0  0  0  0  0  0  0  0  0  0  0  0
   -0.2139    0.4581   -0.0026 C   0  0  0  0  0  0  0  0  0  0  0  0
    1.2555    0.5446    0.3349 C   0  0  0  0  0  0  0  0  0  0  0  0
    2.2412   -0.2057   -0.5317 C   0  0  0  0  0  0  0  0  0  0  0  0
    2.0000   -0.5892    0.9146 C   0  0  0  0  0  0  0  0  0  0  0  0
   -1.3081   -0.9017   -2.1484 H   0  0  0  0  0  0  0  0  0  0  0  0
   -2.7198   -0.4101   -1.1655 H   0  0  0  0  0  0  0  0  0  0  0  0
   -2.2397   -2.1182   -1.1271 H   0  0  0  0  0  0  0  0  0  0  0  0
   -0.2803   -1.7100    0.1955 H   0  0  0  0  0  0  0  0  0  0  0  0
   -0.7318    1.2107    2.0763 H   0  0  0  0  0  0  0  0  0  0  0  0
   -0.4414    2.6410    0.0149 H   0  0  0  0  0  0  0  0  0  0  0  0
   -1.8794    1.7780   -0.8038 H   0  0  0  0  0  0  0  0  0  0  0  0
    1.5978    1.5722    0.6090 H   0  0  0  0  0  0  0  0  0  0  0  0
    1.8474   -0.9335   -1.2702 H   0  0  0  0  0  0  0  0  0  0  0  0
    3.2021    0.2506   -0.7860 H   0  0  0  0  0  0  0  0  0  0  0  0
    2.8223   -0.3323    1.6421 H   0  0  0  0  0  0  0  0  0  0  0  0
    1.5000   -1.5233    1.1695 H   0  0  0  0  0  0  0  0  0  0  0  0
  1  2  1  0
  2  3  1  0
  3  4  1  0
  4  5  1  0
  5  6  1  0
  6  7  1  0
  7  8  1  0
  8  9  1  0
  6  2  1  0
  9  7  1  0
  6  4  1  0
  1 10  1  0
  1 11  1  0
  1 12  1  0
  2 13  1  0
  4 14  1  0
  5 15  1  0
  5 16  1  0
  7 17  1  0
  8 18  1  0
  8 19  1  0
  9 20  1  0
  9 21  1  0
M  END
