
     RDKit          3D

 19 21  0  0  0  0  0  0  0  0999 V2000
    2.5401    0.3551   -0.0336 C   0  0  0  0  0  0  0  0  0  0  0  0
    1.3632   -0.6270   -0.0079 C   0  0  0  0  0  0  0  0  0  0  0  0
    0.7878   -0.8818    1.2647 O   0  0  0  0  0  0  0  0  0  0  0  0
    0.0451   -0.3123    0.2475 C   0  0  0  0  0  0  0  0  0  0  0  0
   -1.0811   -1.1507   -0.3905 C   0  0  0  0  0  0  0  0  0  0  0  0
   -1.9807   -0.0554   -0.8308 C   0  0  0  0  0  0  0  0  0  0  0  0
   -2.9775    0.5821   -0.2871 O   0  0  0  0  0  0  0  0  0  0  0  0
   -1.9913    0.6649    0.5583 C   0  0  0  0  0  0  0  0  0  0  0  0
   -0.5583    1.0765    0.4523 C   0  0  0  0  0  0  0  0  0  0  0  0
    2.3212    1.2856    0.4818 H   0  0  0  0  0  0  0  0  0  0  0  0
    3.4279   -0.1700    0.4090 H   0  0  0  0  0  0  0  0  0  0  0  0
    2.7509    0.5306   -1.1059 H   0  0  0  0  0  0  0  0  0  0  0  0
    1.6241   -1.5325   -0.6111 H   0  0  0  0  0  0  0  0  0  0  0  0
   -1.4839   -1.8365    0.3491 H   0  0  0  0  0  0  0  0  0  0  0  0
   -0.6286   -1.6378   -1.2751 H   0  0  0  0  0  0  0  0  0  0  0  0
   -1.4977    0.5336   -1.6728 H   0  0  0  0  0  0  0  0  0  0  0  0
   -2.1187   -0.0269    1.4498 H   0  0  0  0  0  0  0  0  0  0  0  0
   -0.1941    1.4579    1.4062 H   0  0  0  0  0  0  0  0  0  0  0  0
   -0.3484    1.7447   -0.4039 H   0  0  0  0  0  0  0  0  0  0  0  0
  1  2  1  0
  2  3  1  0
  3  4  1  0
  4  5  1  0
  5  6  1  0
  6  7  1  0
  7  8  1  0
  8  9  1  0
  4  2  1  0
  8  6  1  0
  9  4  1  0
  1 10  1  0
  1 11  1  0
  1 12  1  0
  2 13  1  0
  5 14  1  0
  5 15  1  0
  6 16  1  0
  8 17  1  0
  9 18  1  0
  9 19  1  0
M  END
