
     RDKit          3D

 21 22  0  0  0  0  0  0  0  0999 V2000
    2.2967   -1.0277    0.0495 C   0  0  0  0  0  0  0  0  0  0  0  0
    0.9589   -0.3583    0.2160 C   0  0  0  0  0  0  0  0  0  0  0  0
    1.1324    0.8997    0.7740 O   0  0  0  0  0  0  0  0  0  0  0  0
   -0.0780    1.6276    0.6935 C   0  0  0  0  0  0  0  0  0  0  0  0
   -0.8378    1.3226   -0.5587 C   0  0  0  0  0  0  0  0  0  0  0  0
    0.1361    1.0659   -1.5519 O   0  0  0  0  0  0  0  0  0  0  0  0
    0.1880   -0.2364   -1.0556 C   0  0  0  0  0  0  0  0  0  0  0  0
   -1.2816   -0.0851   -0.6932 C   0  0  0  0  0  0  0  0  0  0  0  0
   -1.7195   -0.8055    0.5364 C   0  0  0  0  0  0  0  0  0  0  0  0
    2.8252   -0.6905   -0.8474 H   0  0  0  0  0  0  0  0  0  0  0  0
    2.9037   -0.7759    0.9397 H   0  0  0  0  0  0  0  0  0  0  0  0
    2.2366   -2.1304    0.0023 H   0  0  0  0  0  0  0  0  0  0  0  0
    0.4060   -0.9620    0.9951 H   0  0  0  0  0  0  0  0  0  0  0  0
    0.2569    2.7021    0.6105 H   0  0  0  0  0  0  0  0  0  0  0  0
   -0.6622    1.5668    1.6133 H   0  0  0  0  0  0  0  0  0  0  0  0
   -1.5520    2.1087   -0.8020 H   0  0  0  0  0  0  0  0  0  0  0  0
    0.4109   -0.9332   -1.8632 H   0  0  0  0  0  0  0  0  0  0  0  0
   -1.9029   -0.2359   -1.5789 H   0  0  0  0  0  0  0  0  0  0  0  0
   -1.3682   -1.8712    0.5636 H   0  0  0  0  0  0  0  0  0  0  0  0
   -1.5047   -0.2873    1.4731 H   0  0  0  0  0  0  0  0  0  0  0  0
   -2.8444   -0.8940    0.4840 H   0  0  0  0  0  0  0  0  0  0  0  0
  1  2  1  0
  2  3  1  0
  3  4  1  0
  4  5  1  0
  5  6  1  0
  6  7  1  0
  7  8  1  0
  8  9  1  0
  7  2  1  0
  8  5  1  0
  1 10  1  0
  1 11  1  0
  1 12  1  0
  2 13  1  0
  4 14  1  0
  4 15  1  0
  5 16  1  0
  7 17  1  0
  8 18  1  0
  9 19  1  0
  9 20  1  0
  9 21  1  0
M  END
