
     RDKit          3D

 19 19  0  0  0  0  0  0  0  0999 V2000
   -2.4981    0.2798   -0.7839 C   0  0  0  0  0  0  0  0  0  0  0  0
   -1.3938    0.1361    0.2195 C   0  0  0  0  0  0  0  0  0  0  0  0
   -0.8928   -1.1635    0.2849 O   0  0  0  0  0  0  0  0  0  0  0  0
    0.1856   -0.9817    1.1710 C   0  0  0  0  0  0  0  0  0  0  0  0
    0.9419    0.2064    0.5657 C   0  0  0  0  0  0  0  0  0  0  0  0
    1.9388   -0.3514   -0.4274 C   0  0  0  0  0  0  0  0  0  0  0  0
    2.6404    0.7264   -0.9911 O   0  0  0  0  0  0  0  0  0  0  0  0
   -0.1833    0.9101   -0.1141 C   0  0  0  0  0  0  0  0  0  0  0  0
   -0.1830    1.9043   -0.8055 O   0  0  0  0  0  0  0  0  0  0  0  0
   -2.9931    1.2534   -0.6082 H   0  0  0  0  0  0  0  0  0  0  0  0
   -2.1769    0.2272   -1.8192 H   0  0  0  0  0  0  0  0  0  0  0  0
   -3.2402   -0.5367   -0.5758 H   0  0  0  0  0  0  0  0  0  0  0  0
   -1.8068    0.3715    1.2129 H   0  0  0  0  0  0  0  0  0  0  0  0
    0.8231   -1.8734    1.2417 H   0  0  0  0  0  0  0  0  0  0  0  0
   -0.2756   -0.6841    2.1358 H   0  0  0  0  0  0  0  0  0  0  0  0
    1.4125    0.8044    1.3427 H   0  0  0  0  0  0  0  0  0  0  0  0
    2.6571   -0.9708    0.1088 H   0  0  0  0  0  0  0  0  0  0  0  0
    1.4150   -0.8496   -1.2598 H   0  0  0  0  0  0  0  0  0  0  0  0
    3.6291    0.5919   -0.8977 H   0  0  0  0  0  0  0  0  0  0  0  0
  1  2  1  0
  2  3  1  0
  3  4  1  0
  4  5  1  0
  5  6  1  0
  6  7  1  0
  5  8  1  0
  8  9  2  0
  8  2  1  0
  1 10  1  0
  1 11  1  0
  1 12  1  0
  2 13  1  0
  4 14  1  0
  4 15  1  0
  5 16  1  0
  6 17  1  0
  6 18  1  0
  7 19  1  0
M  END
