
     RDKit          3D

 19 20  0  0  0  0  0  0  0  0999 V2000
   -2.3058   -0.3868   -0.3624 C   0  0  0  0  0  0  0  0  0  0  0  0
   -1.0800    0.3847   -0.0072 C   0  0  0  0  0  0  0  0  0  0  0  0
   -0.4737    0.8945   -1.1484 O   0  0  0  0  0  0  0  0  0  0  0  0
    0.6866    1.4771   -0.5872 C   0  0  0  0  0  0  0  0  0  0  0  0
    1.2304    0.4738    0.3882 C   0  0  0  0  0  0  0  0  0  0  0  0
    1.9163   -0.6715   -0.2834 C   0  0  0  0  0  0  0  0  0  0  0  0
    0.6410   -1.4526   -0.2423 C   0  0  0  0  0  0  0  0  0  0  0  0
    0.3417   -2.5170   -0.7513 O   0  0  0  0  0  0  0  0  0  0  0  0
    0.0123   -0.4353    0.6034 C   0  0  0  0  0  0  0  0  0  0  0  0
   -2.2032   -1.0070   -1.2785 H   0  0  0  0  0  0  0  0  0  0  0  0
   -3.1161    0.3688   -0.5783 H   0  0  0  0  0  0  0  0  0  0  0  0
   -2.6883   -0.9976    0.4656 H   0  0  0  0  0  0  0  0  0  0  0  0
   -1.3357    1.2211    0.6489 H   0  0  0  0  0  0  0  0  0  0  0  0
    1.4227    1.6482   -1.3896 H   0  0  0  0  0  0  0  0  0  0  0  0
    0.4248    2.4381   -0.1417 H   0  0  0  0  0  0  0  0  0  0  0  0
    1.6631    0.8426    1.3107 H   0  0  0  0  0  0  0  0  0  0  0  0
    2.7361   -1.1160    0.3285 H   0  0  0  0  0  0  0  0  0  0  0  0
    2.2522   -0.4125   -1.3096 H   0  0  0  0  0  0  0  0  0  0  0  0
   -0.1243   -0.7524    1.6516 H   0  0  0  0  0  0  0  0  0  0  0  0
  1  2  1  0
  2  3  1  0
  3  4  1  0
  4  5  1  0
  5  6  1  0
  6  7  1  0
  7  8  2  0
  7  9  1  0
  9  2  1  0
  9  5  1  0
  1 10  1  0
  1 11  1  0
  1 12  1  0
  2 13  1  0
  4 14  1  0
  4 15  1  0
  5 16  1  0
  6 17  1  0
  6 18  1  0
  9 19  1  0
M  END
