
     RDKit          3D

 21 21  0  0  0  0  0  0  0  0999 V2000
    2.3884    0.0218   -0.0779 C   0  0  0  0  0  0  0  0  0  0  0  0
    1.1516   -0.6701    0.4716 C   0  0  0  0  0  0  0  0  0  0  0  0
    0.5319    0.2001    1.3899 O   0  0  0  0  0  0  0  0  0  0  0  0
    0.0563    0.8791    0.2548 C   0  0  0  0  0  0  0  0  0  0  0  0
   -1.1989    1.6664    0.4603 C   0  0  0  0  0  0  0  0  0  0  0  0
   -0.0932   -0.4578   -0.3955 C   0  0  0  0  0  0  0  0  0  0  0  0
    0.1572   -0.5463   -1.7341 O   0  0  0  0  0  0  0  0  0  0  0  0
   -1.2364   -1.2767    0.1428 C   0  0  0  0  0  0  0  0  0  0  0  0
   -2.4438   -0.9454   -0.4389 O   0  0  0  0  0  0  0  0  0  0  0  0
    3.2341   -0.6990   -0.0721 H   0  0  0  0  0  0  0  0  0  0  0  0
    2.2580    0.3254   -1.1403 H   0  0  0  0  0  0  0  0  0  0  0  0
    2.7068    0.8685    0.5649 H   0  0  0  0  0  0  0  0  0  0  0  0
    1.2950   -1.6930    0.8161 H   0  0  0  0  0  0  0  0  0  0  0  0
    0.8251    1.4894   -0.2561 H   0  0  0  0  0  0  0  0  0  0  0  0
   -1.9154    1.2081    1.1410 H   0  0  0  0  0  0  0  0  0  0  0  0
   -1.6278    1.9098   -0.5165 H   0  0  0  0  0  0  0  0  0  0  0  0
   -0.8962    2.6448    0.9224 H   0  0  0  0  0  0  0  0  0  0  0  0
    0.1841    0.3591   -2.1604 H   0  0  0  0  0  0  0  0  0  0  0  0
   -1.0273   -2.3557   -0.1193 H   0  0  0  0  0  0  0  0  0  0  0  0
   -1.3414   -1.1535    1.2391 H   0  0  0  0  0  0  0  0  0  0  0  0
   -3.0084   -1.7750   -0.4919 H   0  0  0  0  0  0  0  0  0  0  0  0
  1  2  1  0
  2  3  1  0
  3  4  1  0
  4  5  1  0
  4  6  1  0
  6  7  1  0
  6  8  1  0
  8  9  1  0
  6  2  1  0
  1 10  1  0
  1 11  1  0
  1 12  1  0
  2 13  1  0
  4 14  1  0
  5 15  1  0
  5 16  1  0
  5 17  1  0
  7 18  1  0
  8 19  1  0
  8 20  1  0
  9 21  1  0
M  END
