
     RDKit          3D

 19 20  0  0  0  0  0  0  0  0999 V2000
    2.3371    0.2050    0.7504 C   0  0  0  0  0  0  0  0  0  0  0  0
    1.1869   -0.3729   -0.0842 C   0  0  0  0  0  0  0  0  0  0  0  0
    0.3709   -1.0989    0.7362 O   0  0  0  0  0  0  0  0  0  0  0  0
   -0.9026   -1.3029    0.2089 C   0  0  0  0  0  0  0  0  0  0  0  0
   -1.5807    0.0744    0.2336 C   0  0  0  0  0  0  0  0  0  0  0  0
   -2.9112   -0.0547   -0.0866 O   0  0  0  0  0  0  0  0  0  0  0  0
   -0.8543    0.8958   -0.8189 C   0  0  0  0  0  0  0  0  0  0  0  0
    0.0264    1.8140   -0.3000 O   0  0  0  0  0  0  0  0  0  0  0  0
    0.5184    0.6571   -0.9167 C   0  0  0  0  0  0  0  0  0  0  0  0
    1.9533    0.8860    1.5292 H   0  0  0  0  0  0  0  0  0  0  0  0
    3.0360    0.7903    0.1240 H   0  0  0  0  0  0  0  0  0  0  0  0
    2.8687   -0.6818    1.1747 H   0  0  0  0  0  0  0  0  0  0  0  0
    1.6899   -1.1038   -0.7819 H   0  0  0  0  0  0  0  0  0  0  0  0
   -1.4858   -1.9534    0.8604 H   0  0  0  0  0  0  0  0  0  0  0  0
   -0.8768   -1.6909   -0.8260 H   0  0  0  0  0  0  0  0  0  0  0  0
   -1.4696    0.5018    1.2422 H   0  0  0  0  0  0  0  0  0  0  0  0
   -3.5233    0.3700    0.5565 H   0  0  0  0  0  0  0  0  0  0  0  0
   -1.4569    1.1518   -1.7361 H   0  0  0  0  0  0  0  0  0  0  0  0
    1.0735    0.9130   -1.8657 H   0  0  0  0  0  0  0  0  0  0  0  0
  1  2  1  0
  2  3  1  0
  3  4  1  0
  4  5  1  0
  5  6  1  0
  5  7  1  0
  7  8  1  0
  8  9  1  0
  9  2  1  0
  9  7  1  0
  1 10  1  0
  1 11  1  0
  1 12  1  0
  2 13  1  0
  4 14  1  0
  4 15  1  0
  5 16  1  0
  6 17  1  0
  7 18  1  0
  9 19  1  0
M  END
