
     RDKit          3D

 19 20  0  0  0  0  0  0  0  0999 V2000
   -2.7239    0.5011    0.0104 C   0  0  0  0  0  0  0  0  0  0  0  0
   -1.3230    0.1751   -0.4704 C   0  0  0  0  0  0  0  0  0  0  0  0
   -1.1844   -1.1819   -0.7570 O   0  0  0  0  0  0  0  0  0  0  0  0
    0.2022   -1.3364   -0.6917 C   0  0  0  0  0  0  0  0  0  0  0  0
    0.4865   -0.5948    0.5984 C   0  0  0  0  0  0  0  0  0  0  0  0
    1.9294   -0.2134    0.7284 C   0  0  0  0  0  0  0  0  0  0  0  0
    2.2670    1.2342    0.5481 C   0  0  0  0  0  0  0  0  0  0  0  0
    2.3706    0.5659    1.7614 O   0  0  0  0  0  0  0  0  0  0  0  0
   -0.3625    0.4925    0.4779 O   0  0  0  0  0  0  0  0  0  0  0  0
   -2.7598    0.3773    1.1272 H   0  0  0  0  0  0  0  0  0  0  0  0
   -3.0263    1.5249   -0.2548 H   0  0  0  0  0  0  0  0  0  0  0  0
   -3.3913   -0.2854   -0.3952 H   0  0  0  0  0  0  0  0  0  0  0  0
   -1.0687    0.7236   -1.4079 H   0  0  0  0  0  0  0  0  0  0  0  0
    0.6559   -0.8017   -1.5516 H   0  0  0  0  0  0  0  0  0  0  0  0
    0.4983   -2.4033   -0.6365 H   0  0  0  0  0  0  0  0  0  0  0  0
    0.1309   -1.2127    1.4461 H   0  0  0  0  0  0  0  0  0  0  0  0
    2.6359   -0.9741    0.3656 H   0  0  0  0  0  0  0  0  0  0  0  0
    3.1739    1.4156   -0.0626 H   0  0  0  0  0  0  0  0  0  0  0  0
    1.4894    1.9935    0.5034 H   0  0  0  0  0  0  0  0  0  0  0  0
  1  2  1  0
  2  3  1  0
  3  4  1  0
  4  5  1  0
  5  6  1  0
  6  7  1  0
  7  8  1  0
  5  9  1  0
  9  2  1  0
  8  6  1  0
  1 10  1  0
  1 11  1  0
  1 12  1  0
  2 13  1  0
  4 14  1  0
  4 15  1  0
  5 16  1  0
  6 17  1  0
  7 18  1  0
  7 19  1  0
M  END
