
     RDKit          3D

 19 19  0  0  0  0  0  0  0  0999 V2000
   -3.4127    0.0010   -0.0087 C   0  0  0  0  0  0  0  0  0  0  0  0
   -1.9792   -0.3971    0.0791 C   0  0  0  0  0  0  0  0  0  0  0  0
   -1.5673   -0.3634    1.5281 O   0  0  0  0  0  0  0  0  0  0  0  0
   -0.8966    0.4259    0.4850 C   0  0  0  0  0  0  0  0  0  0  0  0
    0.4877   -0.0614    0.3154 C   0  0  0  0  0  0  0  0  0  0  0  0
    0.6802   -1.2463    0.1050 O   0  0  0  0  0  0  0  0  0  0  0  0
    1.6838    0.8188    0.3865 C   0  0  0  0  0  0  0  0  0  0  0  0
    2.9590    0.0332    0.1739 C   0  0  0  0  0  0  0  0  0  0  0  0
    2.9798   -0.5922   -1.0692 O   0  0  0  0  0  0  0  0  0  0  0  0
   -3.7308   -0.1175   -1.0732 H   0  0  0  0  0  0  0  0  0  0  0  0
   -3.6218    0.9985    0.3921 H   0  0  0  0  0  0  0  0  0  0  0  0
   -4.0029   -0.7660    0.5735 H   0  0  0  0  0  0  0  0  0  0  0  0
   -1.7655   -1.4081   -0.3533 H   0  0  0  0  0  0  0  0  0  0  0  0
   -1.0484    1.5042    0.6750 H   0  0  0  0  0  0  0  0  0  0  0  0
    1.7545    1.3767    1.3411 H   0  0  0  0  0  0  0  0  0  0  0  0
    1.6103    1.5366   -0.4795 H   0  0  0  0  0  0  0  0  0  0  0  0
    3.8573    0.6177    0.3927 H   0  0  0  0  0  0  0  0  0  0  0  0
    2.9366   -0.7865    0.9502 H   0  0  0  0  0  0  0  0  0  0  0  0
    3.0759   -1.5743   -0.9887 H   0  0  0  0  0  0  0  0  0  0  0  0
  1  2  1  0
  2  3  1  0
  3  4  1  0
  4  5  1  0
  5  6  2  0
  5  7  1  0
  7  8  1  0
  8  9  1  0
  4  2  1  0
  1 10  1  0
  1 11  1  0
  1 12  1  0
  2 13  1  0
  4 14  1  0
  7 15  1  0
  7 16  1  0
  8 17  1  0
  8 18  1  0
  9 19  1  0
M  END
