
     RDKit          3D

 21 21  0  0  0  0  0  0  0  0999 V2000
   -1.3258    1.6526   -0.2807 C   0  0  0  0  0  0  0  0  0  0  0  0
   -1.1063    0.3597    0.4390 C   0  0  0  0  0  0  0  0  0  0  0  0
   -1.7616   -0.6541   -0.2071 O   0  0  0  0  0  0  0  0  0  0  0  0
   -0.8832   -1.4171   -0.9070 C   0  0  0  0  0  0  0  0  0  0  0  0
    0.3916   -1.3671   -0.0582 C   0  0  0  0  0  0  0  0  0  0  0  0
    0.3094   -2.4245    0.8268 O   0  0  0  0  0  0  0  0  0  0  0  0
    0.3201   -0.0196    0.6221 C   0  0  0  0  0  0  0  0  0  0  0  0
    1.2798    0.9675   -0.0097 C   0  0  0  0  0  0  0  0  0  0  0  0
    2.5974    0.5687    0.1894 O   0  0  0  0  0  0  0  0  0  0  0  0
   -2.4259    1.7098   -0.5146 H   0  0  0  0  0  0  0  0  0  0  0  0
   -0.8027    1.7487   -1.2268 H   0  0  0  0  0  0  0  0  0  0  0  0
   -1.1326    2.5431    0.3797 H   0  0  0  0  0  0  0  0  0  0  0  0
   -1.5566    0.4654    1.4669 H   0  0  0  0  0  0  0  0  0  0  0  0
   -1.2560   -2.4591   -0.9548 H   0  0  0  0  0  0  0  0  0  0  0  0
   -0.6877   -1.1003   -1.9397 H   0  0  0  0  0  0  0  0  0  0  0  0
    1.2790   -1.3971   -0.7147 H   0  0  0  0  0  0  0  0  0  0  0  0
    0.7295   -3.2149    0.3685 H   0  0  0  0  0  0  0  0  0  0  0  0
    0.5995   -0.2018    1.6929 H   0  0  0  0  0  0  0  0  0  0  0  0
    1.0695    0.9485   -1.1097 H   0  0  0  0  0  0  0  0  0  0  0  0
    1.1710    1.9795    0.4260 H   0  0  0  0  0  0  0  0  0  0  0  0
    3.1919    1.3120    0.4468 H   0  0  0  0  0  0  0  0  0  0  0  0
  1  2  1  0
  2  3  1  0
  3  4  1  0
  4  5  1  0
  5  6  1  0
  5  7  1  0
  7  8  1  0
  8  9  1  0
  7  2  1  0
  1 10  1  0
  1 11  1  0
  1 12  1  0
  2 13  1  0
  4 14  1  0
  4 15  1  0
  5 16  1  0
  6 17  1  0
  7 18  1  0
  8 19  1  0
  8 20  1  0
  9 21  1  0
M  END
