
     RDKit          3D

 19 20  0  0  0  0  0  0  0  0999 V2000
    2.2196   -0.2234   -0.7009 C   0  0  0  0  0  0  0  0  0  0  0  0
    0.8191   -0.4856   -0.2408 C   0  0  0  0  0  0  0  0  0  0  0  0
   -0.0766   -0.5536   -1.3093 O   0  0  0  0  0  0  0  0  0  0  0  0
   -1.2384    0.0334   -0.8267 C   0  0  0  0  0  0  0  0  0  0  0  0
   -1.6497   -0.7110    0.4100 C   0  0  0  0  0  0  0  0  0  0  0  0
   -0.7749   -0.1694    1.5208 C   0  0  0  0  0  0  0  0  0  0  0  0
   -0.9161   -0.2802    2.7046 O   0  0  0  0  0  0  0  0  0  0  0  0
    0.2940    0.5295    0.7244 C   0  0  0  0  0  0  0  0  0  0  0  0
   -0.6466    1.3158   -0.2088 C   0  0  0  0  0  0  0  0  0  0  0  0
    2.4908   -1.0238   -1.4185 H   0  0  0  0  0  0  0  0  0  0  0  0
    2.8952   -0.3352    0.1790 H   0  0  0  0  0  0  0  0  0  0  0  0
    2.3471    0.7352   -1.2234 H   0  0  0  0  0  0  0  0  0  0  0  0
    0.7986   -1.4773    0.2477 H   0  0  0  0  0  0  0  0  0  0  0  0
   -2.0042    0.2238   -1.5466 H   0  0  0  0  0  0  0  0  0  0  0  0
   -2.7038   -0.6647    0.6510 H   0  0  0  0  0  0  0  0  0  0  0  0
   -1.3506   -1.7945    0.3326 H   0  0  0  0  0  0  0  0  0  0  0  0
    0.9753    1.1152    1.2719 H   0  0  0  0  0  0  0  0  0  0  0  0
   -1.3891    1.8669    0.3703 H   0  0  0  0  0  0  0  0  0  0  0  0
   -0.0897    1.8989   -0.9375 H   0  0  0  0  0  0  0  0  0  0  0  0
  1  2  1  0
  2  3  1  0
  3  4  1  0
  4  5  1  0
  5  6  1  0
  6  7  2  0
  6  8  1  0
  8  9  1  0
  8  2  1  0
  9  4  1  0
  1 10  1  0
  1 11  1  0
  1 12  1  0
  2 13  1  0
  4 14  1  0
  5 15  1  0
  5 16  1  0
  8 17  1  0
  9 18  1  0
  9 19  1  0
M  END
