
     RDKit          3D

 17 18  0  0  0  0  0  0  0  0999 V2000
   -2.4707    0.0716   -0.4901 C   0  0  0  0  0  0  0  0  0  0  0  0
   -1.3231    0.6858    0.2787 C   0  0  0  0  0  0  0  0  0  0  0  0
   -0.9862   -0.0653    1.4287 O   0  0  0  0  0  0  0  0  0  0  0  0
    0.4004   -0.0685    1.4598 C   0  0  0  0  0  0  0  0  0  0  0  0
    1.2124   -0.1712    2.4088 O   0  0  0  0  0  0  0  0  0  0  0  0
    0.8088    0.0848    0.0430 C   0  0  0  0  0  0  0  0  0  0  0  0
    2.2174    0.2986   -0.3285 C   0  0  0  0  0  0  0  0  0  0  0  0
    1.5118   -1.0463   -0.5865 C   0  0  0  0  0  0  0  0  0  0  0  0
   -0.2352    0.7292   -0.5457 O   0  0  0  0  0  0  0  0  0  0  0  0
   -2.1060   -0.9022   -0.8996 H   0  0  0  0  0  0  0  0  0  0  0  0
   -2.7077    0.7805   -1.3175 H   0  0  0  0  0  0  0  0  0  0  0  0
   -3.3390   -0.1472    0.1382 H   0  0  0  0  0  0  0  0  0  0  0  0
   -1.6449    1.6877    0.6531 H   0  0  0  0  0  0  0  0  0  0  0  0
    2.9543    0.3145    0.5040 H   0  0  0  0  0  0  0  0  0  0  0  0
    2.4463    0.9342   -1.1977 H   0  0  0  0  0  0  0  0  0  0  0  0
    1.8076   -1.8838    0.0921 H   0  0  0  0  0  0  0  0  0  0  0  0
    1.4539   -1.3024   -1.6408 H   0  0  0  0  0  0  0  0  0  0  0  0
  1  2  1  0
  2  3  1  0
  3  4  1  0
  4  5  2  0
  4  6  1  0
  6  7  1  0
  7  8  1  0
  6  9  1  0
  9  2  1  0
  8  6  1  0
  1 10  1  0
  1 11  1  0
  1 12  1  0
  2 13  1  0
  7 14  1  0
  7 15  1  0
  8 16  1  0
  8 17  1  0
M  END
