
     RDKit          3D

 19 19  0  0  0  0  0  0  0  0999 V2000
    0.0918    2.1157    0.1408 C   0  0  0  0  0  0  0  0  0  0  0  0
   -0.3767    0.7291    0.5076 C   0  0  0  0  0  0  0  0  0  0  0  0
   -1.3474    0.3330   -0.3791 O   0  0  0  0  0  0  0  0  0  0  0  0
   -1.7927   -0.9630   -0.1201 C   0  0  0  0  0  0  0  0  0  0  0  0
   -0.7595   -1.8521   -0.3036 O   0  0  0  0  0  0  0  0  0  0  0  0
    0.2342   -1.6586    0.6503 C   0  0  0  0  0  0  0  0  0  0  0  0
    0.7612   -0.2427    0.6479 C   0  0  0  0  0  0  0  0  0  0  0  0
    1.8035   -0.0783   -0.3911 C   0  0  0  0  0  0  0  0  0  0  0  0
    1.5651    0.3286   -1.5088 O   0  0  0  0  0  0  0  0  0  0  0  0
   -0.7525    2.8061    0.3573 H   0  0  0  0  0  0  0  0  0  0  0  0
    0.9956    2.4263    0.7014 H   0  0  0  0  0  0  0  0  0  0  0  0
    0.2541    2.1866   -0.9646 H   0  0  0  0  0  0  0  0  0  0  0  0
   -0.8619    0.8186    1.5135 H   0  0  0  0  0  0  0  0  0  0  0  0
   -2.6445   -1.1943   -0.7664 H   0  0  0  0  0  0  0  0  0  0  0  0
   -2.1394   -1.0771    0.9382 H   0  0  0  0  0  0  0  0  0  0  0  0
    1.0803   -2.3609    0.4526 H   0  0  0  0  0  0  0  0  0  0  0  0
   -0.1666   -1.9331    1.6377 H   0  0  0  0  0  0  0  0  0  0  0  0
    1.2327   -0.0529    1.6346 H   0  0  0  0  0  0  0  0  0  0  0  0
    2.8227   -0.3309   -0.1467 H   0  0  0  0  0  0  0  0  0  0  0  0
  1  2  1  0
  2  3  1  0
  3  4  1  0
  4  5  1  0
  5  6  1  0
  6  7  1  0
  7  8  1  0
  8  9  2  0
  7  2  1  0
  1 10  1  0
  1 11  1  0
  1 12  1  0
  2 13  1  0
  4 14  1  0
  4 15  1  0
  6 16  1  0
  6 17  1  0
  7 18  1  0
  8 19  1  0
M  END
