
     RDKit          3D

 19 21  0  0  0  0  0  0  0  0999 V2000
   -2.3665    0.5525   -0.1420 C   0  0  0  0  0  0  0  0  0  0  0  0
   -1.0897   -0.2096   -0.2041 C   0  0  0  0  0  0  0  0  0  0  0  0
   -0.4738   -0.1889   -1.4474 O   0  0  0  0  0  0  0  0  0  0  0  0
    0.7047   -0.9152   -1.1549 C   0  0  0  0  0  0  0  0  0  0  0  0
    1.2611   -0.3518    0.0935 C   0  0  0  0  0  0  0  0  0  0  0  0
    1.8540    1.0591   -0.0204 C   0  0  0  0  0  0  0  0  0  0  0  0
    0.5616    1.5278    0.2478 O   0  0  0  0  0  0  0  0  0  0  0  0
   -0.0026    0.3553    0.6868 C   0  0  0  0  0  0  0  0  0  0  0  0
    0.7714   -0.6650    1.4444 C   0  0  0  0  0  0  0  0  0  0  0  0
   -2.2436    1.5924    0.1757 H   0  0  0  0  0  0  0  0  0  0  0  0
   -3.0225    0.0584    0.6260 H   0  0  0  0  0  0  0  0  0  0  0  0
   -2.9357    0.4642   -1.0996 H   0  0  0  0  0  0  0  0  0  0  0  0
   -1.2966   -1.2844    0.0240 H   0  0  0  0  0  0  0  0  0  0  0  0
    0.4414   -1.9655   -1.0551 H   0  0  0  0  0  0  0  0  0  0  0  0
    1.3886   -0.7031   -2.0058 H   0  0  0  0  0  0  0  0  0  0  0  0
    2.2551    1.2794   -1.0056 H   0  0  0  0  0  0  0  0  0  0  0  0
    2.5070    1.3009    0.8567 H   0  0  0  0  0  0  0  0  0  0  0  0
    1.4619   -0.3319    2.2729 H   0  0  0  0  0  0  0  0  0  0  0  0
    0.2240   -1.5747    1.7071 H   0  0  0  0  0  0  0  0  0  0  0  0
  1  2  1  0
  2  3  1  0
  3  4  1  0
  4  5  1  0
  5  6  1  0
  6  7  1  0
  7  8  1  0
  8  9  1  0
  8  2  1  0
  8  5  1  0
  9  5  1  0
  1 10  1  0
  1 11  1  0
  1 12  1  0
  2 13  1  0
  4 14  1  0
  4 15  1  0
  6 16  1  0
  6 17  1  0
  9 18  1  0
  9 19  1  0
M  END
