
     RDKit          3D

 21 22  0  0  0  0  0  0  0  0999 V2000
    2.7924   -0.0251    0.4181 C   0  0  0  0  0  0  0  0  0  0  0  0
    1.3259   -0.3762    0.3939 C   0  0  0  0  0  0  0  0  0  0  0  0
    1.0170   -1.4915   -0.4021 O   0  0  0  0  0  0  0  0  0  0  0  0
   -0.1369   -0.8073   -0.8506 C   0  0  0  0  0  0  0  0  0  0  0  0
   -1.3132   -1.0875   -0.0008 C   0  0  0  0  0  0  0  0  0  0  0  0
   -1.9935    0.1425    0.5219 C   0  0  0  0  0  0  0  0  0  0  0  0
   -1.4928    1.4084   -0.1431 C   0  0  0  0  0  0  0  0  0  0  0  0
   -0.1288    1.5172   -0.1625 O   0  0  0  0  0  0  0  0  0  0  0  0
    0.5723    0.4623   -0.6057 C   0  0  0  0  0  0  0  0  0  0  0  0
    3.1261    0.0816   -0.6447 H   0  0  0  0  0  0  0  0  0  0  0  0
    2.8961    0.9828    0.8637 H   0  0  0  0  0  0  0  0  0  0  0  0
    3.3598   -0.7949    0.9587 H   0  0  0  0  0  0  0  0  0  0  0  0
    0.8674   -0.4968    1.3820 H   0  0  0  0  0  0  0  0  0  0  0  0
   -0.3166   -0.9871   -1.9414 H   0  0  0  0  0  0  0  0  0  0  0  0
   -1.0463   -1.7162    0.8706 H   0  0  0  0  0  0  0  0  0  0  0  0
   -2.0386   -1.7092   -0.5978 H   0  0  0  0  0  0  0  0  0  0  0  0
   -3.0862    0.1131    0.4144 H   0  0  0  0  0  0  0  0  0  0  0  0
   -1.7970    0.2744    1.6199 H   0  0  0  0  0  0  0  0  0  0  0  0
   -1.8815    2.2512    0.4963 H   0  0  0  0  0  0  0  0  0  0  0  0
   -1.9802    1.5499   -1.1286 H   0  0  0  0  0  0  0  0  0  0  0  0
    1.2548    0.7084   -1.4622 H   0  0  0  0  0  0  0  0  0  0  0  0
  1  2  1  0
  2  3  1  0
  3  4  1  0
  4  5  1  0
  5  6  1  0
  6  7  1  0
  7  8  1  0
  8  9  1  0
  9  2  1  0
  9  4  1  0
  1 10  1  0
  1 11  1  0
  1 12  1  0
  2 13  1  0
  4 14  1  0
  5 15  1  0
  5 16  1  0
  6 17  1  0
  6 18  1  0
  7 19  1  0
  7 20  1  0
  9 21  1  0
M  END
