
     RDKit          3D

 18 19  0  0  0  0  0  0  0  0999 V2000
    2.0380   -0.0220    0.5279 C   0  0  0  0  0  0  0  0  0  0  0  0
    1.0307    0.3853   -0.4658 C   0  0  0  0  0  0  0  0  0  0  0  0
    0.1990    1.4378   -0.0452 O   0  0  0  0  0  0  0  0  0  0  0  0
   -1.0849    1.1146   -0.4936 C   0  0  0  0  0  0  0  0  0  0  0  0
   -1.7413    0.1839    0.5102 C   0  0  0  0  0  0  0  0  0  0  0  0
   -0.8080   -1.0288    0.3586 C   0  0  0  0  0  0  0  0  0  0  0  0
    0.0196   -0.6577   -0.8357 C   0  0  0  0  0  0  0  0  0  0  0  0
   -0.8885    0.1771   -1.5393 O   0  0  0  0  0  0  0  0  0  0  0  0
    2.9893   -0.2802   -0.0263 H   0  0  0  0  0  0  0  0  0  0  0  0
    2.2960    0.8836    1.1528 H   0  0  0  0  0  0  0  0  0  0  0  0
    1.8070   -0.8916    1.1426 H   0  0  0  0  0  0  0  0  0  0  0  0
    1.5374    0.7819   -1.3875 H   0  0  0  0  0  0  0  0  0  0  0  0
   -1.6876    1.9563   -0.7846 H   0  0  0  0  0  0  0  0  0  0  0  0
   -2.7172   -0.1217    0.1043 H   0  0  0  0  0  0  0  0  0  0  0  0
   -1.7524    0.5741    1.5223 H   0  0  0  0  0  0  0  0  0  0  0  0
   -1.4020   -1.9501    0.2023 H   0  0  0  0  0  0  0  0  0  0  0  0
   -0.2197   -1.0633    1.2943 H   0  0  0  0  0  0  0  0  0  0  0  0
    0.3846   -1.4793   -1.4301 H   0  0  0  0  0  0  0  0  0  0  0  0
  1  2  1  0
  2  3  1  0
  3  4  1  0
  4  5  1  0
  5  6  1  0
  6  7  1  0
  7  8  1  0
  7  2  1  0
  8  4  1  0
  1  9  1  0
  1 10  1  0
  1 11  1  0
  2 12  1  0
  4 13  1  0
  5 14  1  0
  5 15  1  0
  6 16  1  0
  6 17  1  0
  7 18  1  0
M  END
