
     RDKit          3D

 19 19  0  0  0  0  0  0  0  0999 V2000
   -2.2758   -0.1238    0.1340 C   0  0  0  0  0  0  0  0  0  0  0  0
   -0.7960   -0.2317    0.4997 C   0  0  0  0  0  0  0  0  0  0  0  0
   -0.2732   -1.2656   -0.2422 O   0  0  0  0  0  0  0  0  0  0  0  0
    1.0358   -1.5637    0.0185 C   0  0  0  0  0  0  0  0  0  0  0  0
    1.9532   -0.3402   -0.0967 C   0  0  0  0  0  0  0  0  0  0  0  0
    1.1187    0.7721   -0.5723 C   0  0  0  0  0  0  0  0  0  0  0  0
    1.4444    1.3905   -1.5443 O   0  0  0  0  0  0  0  0  0  0  0  0
   -0.1080    1.0987    0.1674 C   0  0  0  0  0  0  0  0  0  0  0  0
   -0.9572    1.9378   -0.5449 O   0  0  0  0  0  0  0  0  0  0  0  0
   -2.4074    0.4701   -0.7902 H   0  0  0  0  0  0  0  0  0  0  0  0
   -2.6309   -1.1456   -0.0697 H   0  0  0  0  0  0  0  0  0  0  0  0
   -2.8689    0.2773    0.9784 H   0  0  0  0  0  0  0  0  0  0  0  0
   -0.7405   -0.4120    1.5906 H   0  0  0  0  0  0  0  0  0  0  0  0
    1.3740   -2.2972   -0.7540 H   0  0  0  0  0  0  0  0  0  0  0  0
    1.1668   -2.0488    0.9880 H   0  0  0  0  0  0  0  0  0  0  0  0
    2.3567   -0.1359    0.9204 H   0  0  0  0  0  0  0  0  0  0  0  0
    2.8069   -0.5567   -0.7700 H   0  0  0  0  0  0  0  0  0  0  0  0
    0.1805    1.6016    1.1330 H   0  0  0  0  0  0  0  0  0  0  0  0
   -0.3790    2.5732   -1.0456 H   0  0  0  0  0  0  0  0  0  0  0  0
  1  2  1  0
  2  3  1  0
  3  4  1  0
  4  5  1  0
  5  6  1  0
  6  7  2  0
  6  8  1  0
  8  9  1  0
  8  2  1  0
  1 10  1  0
  1 11  1  0
  1 12  1  0
  2 13  1  0
  4 14  1  0
  4 15  1  0
  5 16  1  0
  5 17  1  0
  8 18  1  0
  9 19  1  0
M  END
