
     RDKit          3D

 20 21  0  0  0  0  0  0  0  0999 V2000
    1.9419   -0.2515    0.9082 C   0  0  0  0  0  0  0  0  0  0  0  0
    1.1572   -0.1207   -0.3558 C   0  0  0  0  0  0  0  0  0  0  0  0
    0.7731    1.1671   -0.6593 O   0  0  0  0  0  0  0  0  0  0  0  0
   -0.6374    1.1725   -0.7492 C   0  0  0  0  0  0  0  0  0  0  0  0
   -1.1518    0.9249    0.6298 C   0  0  0  0  0  0  0  0  0  0  0  0
   -0.9884   -0.5908    0.8057 C   0  0  0  0  0  0  0  0  0  0  0  0
   -0.1009   -0.9598   -0.3617 C   0  0  0  0  0  0  0  0  0  0  0  0
   -0.8527   -0.1775   -1.4546 C   0  0  0  0  0  0  0  0  0  0  0  0
    2.9067    0.2684    0.7670 H   0  0  0  0  0  0  0  0  0  0  0  0
    2.1693   -1.3150    1.0665 H   0  0  0  0  0  0  0  0  0  0  0  0
    1.4653    0.1355    1.8029 H   0  0  0  0  0  0  0  0  0  0  0  0
    1.7897   -0.4922   -1.1889 H   0  0  0  0  0  0  0  0  0  0  0  0
   -1.0387    2.0047   -1.2820 H   0  0  0  0  0  0  0  0  0  0  0  0
   -0.4912    1.4554    1.3673 H   0  0  0  0  0  0  0  0  0  0  0  0
   -2.1802    1.2490    0.8017 H   0  0  0  0  0  0  0  0  0  0  0  0
   -0.5831   -0.8538    1.7766 H   0  0  0  0  0  0  0  0  0  0  0  0
   -1.9918   -1.0218    0.5867 H   0  0  0  0  0  0  0  0  0  0  0  0
    0.0160   -1.9963   -0.5656 H   0  0  0  0  0  0  0  0  0  0  0  0
   -1.9019   -0.4503   -1.5076 H   0  0  0  0  0  0  0  0  0  0  0  0
   -0.3009   -0.1478   -2.3877 H   0  0  0  0  0  0  0  0  0  0  0  0
  1  2  1  0
  2  3  1  0
  3  4  1  0
  4  5  1  0
  5  6  1  0
  6  7  1  0
  7  8  1  0
  7  2  1  0
  8  4  1  0
  1  9  1  0
  1 10  1  0
  1 11  1  0
  2 12  1  0
  4 13  1  0
  5 14  1  0
  5 15  1  0
  6 16  1  0
  6 17  1  0
  7 18  1  0
  8 19  1  0
  8 20  1  0
M  END
