
     RDKit          3D

 21 22  0  0  0  0  0  0  0  0999 V2000
    2.9817    0.5168    0.5114 C   0  0  0  0  0  0  0  0  0  0  0  0
    1.9291   -0.2342   -0.2678 C   0  0  0  0  0  0  0  0  0  0  0  0
    1.3623   -1.2873    0.6180 O   0  0  0  0  0  0  0  0  0  0  0  0
    0.6071   -0.3036    0.0367 C   0  0  0  0  0  0  0  0  0  0  0  0
   -0.4608   -0.7567   -0.9053 C   0  0  0  0  0  0  0  0  0  0  0  0
   -1.4012    0.2422   -0.2555 C   0  0  0  0  0  0  0  0  0  0  0  0
   -2.6221   -0.4337    0.3240 C   0  0  0  0  0  0  0  0  0  0  0  0
   -1.7179    1.3302   -1.0732 O   0  0  0  0  0  0  0  0  0  0  0  0
   -0.3211    0.5642    0.7831 C   0  0  0  0  0  0  0  0  0  0  0  0
    2.7105    0.6830    1.5668 H   0  0  0  0  0  0  0  0  0  0  0  0
    3.8858   -0.1598    0.5430 H   0  0  0  0  0  0  0  0  0  0  0  0
    3.2867    1.4283   -0.0270 H   0  0  0  0  0  0  0  0  0  0  0  0
    2.3492   -0.6797   -1.2153 H   0  0  0  0  0  0  0  0  0  0  0  0
   -0.7634   -1.8102   -0.6918 H   0  0  0  0  0  0  0  0  0  0  0  0
   -0.2851   -0.6253   -1.9696 H   0  0  0  0  0  0  0  0  0  0  0  0
   -3.5227   -0.2170   -0.2876 H   0  0  0  0  0  0  0  0  0  0  0  0
   -2.4894   -1.5553    0.2750 H   0  0  0  0  0  0  0  0  0  0  0  0
   -2.7689   -0.2103    1.3944 H   0  0  0  0  0  0  0  0  0  0  0  0
   -1.9668    1.0245   -1.9895 H   0  0  0  0  0  0  0  0  0  0  0  0
   -0.6560    0.1778    1.7874 H   0  0  0  0  0  0  0  0  0  0  0  0
   -0.1370    1.6334    0.8427 H   0  0  0  0  0  0  0  0  0  0  0  0
  1  2  1  0
  2  3  1  0
  3  4  1  0
  4  5  1  0
  5  6  1  0
  6  7  1  0
  6  8  1  0
  6  9  1  0
  4  2  1  0
  9  4  1  0
  1 10  1  0
  1 11  1  0
  1 12  1  0
  2 13  1  0
  5 14  1  0
  5 15  1  0
  7 16  1  0
  7 17  1  0
  7 18  1  0
  8 19  1  0
  9 20  1  0
  9 21  1  0
M  END
