
     RDKit          3D

 21 22  0  0  0  0  0  0  0  0999 V2000
    2.2182   -0.2811    0.2232 C   0  0  0  0  0  0  0  0  0  0  0  0
    1.0054    0.5320   -0.1013 C   0  0  0  0  0  0  0  0  0  0  0  0
    0.7814    1.5735    0.7788 O   0  0  0  0  0  0  0  0  0  0  0  0
   -0.4052    2.1053    0.2344 C   0  0  0  0  0  0  0  0  0  0  0  0
   -1.3043    0.8801    0.0788 C   0  0  0  0  0  0  0  0  0  0  0  0
   -0.2793   -0.2192   -0.0472 C   0  0  0  0  0  0  0  0  0  0  0  0
   -0.4831   -1.4349   -0.8128 C   0  0  0  0  0  0  0  0  0  0  0  0
   -0.5038   -1.4338    0.7126 C   0  0  0  0  0  0  0  0  0  0  0  0
   -1.7974   -1.6016    1.2562 O   0  0  0  0  0  0  0  0  0  0  0  0
    3.1038    0.3718    0.1154 H   0  0  0  0  0  0  0  0  0  0  0  0
    2.3102   -1.0716   -0.5468 H   0  0  0  0  0  0  0  0  0  0  0  0
    2.1322   -0.7028    1.2422 H   0  0  0  0  0  0  0  0  0  0  0  0
    1.1242    0.9778   -1.1264 H   0  0  0  0  0  0  0  0  0  0  0  0
   -0.8492    2.8713    0.8665 H   0  0  0  0  0  0  0  0  0  0  0  0
   -0.1387    2.4447   -0.7874 H   0  0  0  0  0  0  0  0  0  0  0  0
   -1.8925    0.7961    1.0157 H   0  0  0  0  0  0  0  0  0  0  0  0
   -1.9227    0.9931   -0.8255 H   0  0  0  0  0  0  0  0  0  0  0  0
   -1.3917   -1.7091   -1.3566 H   0  0  0  0  0  0  0  0  0  0  0  0
    0.4384   -1.9268   -1.2323 H   0  0  0  0  0  0  0  0  0  0  0  0
    0.2826   -1.9942    1.2511 H   0  0  0  0  0  0  0  0  0  0  0  0
   -2.4286   -1.1707    0.6139 H   0  0  0  0  0  0  0  0  0  0  0  0
  1  2  1  0
  2  3  1  0
  3  4  1  0
  4  5  1  0
  5  6  1  0
  6  7  1  0
  7  8  1  0
  8  9  1  0
  6  2  1  0
  8  6  1  0
  1 10  1  0
  1 11  1  0
  1 12  1  0
  2 13  1  0
  4 14  1  0
  4 15  1  0
  5 16  1  0
  5 17  1  0
  7 18  1  0
  7 19  1  0
  8 20  1  0
  9 21  1  0
M  END
