
     RDKit          3D

 19 21  0  0  0  0  0  0  0  0999 V2000
    2.3767   -0.6227   -0.0624 C   0  0  0  0  0  0  0  0  0  0  0  0
    0.9497   -0.2593   -0.3674 C   0  0  0  0  0  0  0  0  0  0  0  0
    0.8395    1.0385   -0.9058 O   0  0  0  0  0  0  0  0  0  0  0  0
   -0.5274    1.3305   -0.6876 C   0  0  0  0  0  0  0  0  0  0  0  0
   -1.2603    0.4353   -1.4054 O   0  0  0  0  0  0  0  0  0  0  0  0
   -1.8796   -0.4515   -0.5804 C   0  0  0  0  0  0  0  0  0  0  0  0
   -1.3531   -0.2660    0.8180 C   0  0  0  0  0  0  0  0  0  0  0  0
    0.1466   -0.2421    0.9171 C   0  0  0  0  0  0  0  0  0  0  0  0
   -0.6540    1.0189    0.7718 C   0  0  0  0  0  0  0  0  0  0  0  0
    2.5306   -1.6633   -0.4259 H   0  0  0  0  0  0  0  0  0  0  0  0
    3.0525    0.0960   -0.5820 H   0  0  0  0  0  0  0  0  0  0  0  0
    2.5448   -0.5500    1.0299 H   0  0  0  0  0  0  0  0  0  0  0  0
    0.5173   -0.9336   -1.1321 H   0  0  0  0  0  0  0  0  0  0  0  0
   -0.7441    2.3862   -0.9026 H   0  0  0  0  0  0  0  0  0  0  0  0
   -2.9801   -0.4418   -0.6375 H   0  0  0  0  0  0  0  0  0  0  0  0
   -1.5747   -1.4882   -0.9061 H   0  0  0  0  0  0  0  0  0  0  0  0
   -1.9133   -0.6584    1.6546 H   0  0  0  0  0  0  0  0  0  0  0  0
    0.6083   -0.5140    1.8671 H   0  0  0  0  0  0  0  0  0  0  0  0
   -0.6795    1.7853    1.5368 H   0  0  0  0  0  0  0  0  0  0  0  0
  1  2  1  0
  2  3  1  0
  3  4  1  0
  4  5  1  0
  5  6  1  0
  6  7  1  0
  7  8  1  0
  8  9  1  0
  8  2  1  0
  9  4  1  0
  9  7  1  0
  1 10  1  0
  1 11  1  0
  1 12  1  0
  2 13  1  0
  4 14  1  0
  6 15  1  0
  6 16  1  0
  7 17  1  0
  8 18  1  0
  9 19  1  0
M  END
