
     RDKit          3D

 19 21  0  0  0  0  0  0  0  0999 V2000
    2.3738    0.8728    0.6775 C   0  0  0  0  0  0  0  0  0  0  0  0
    1.3888   -0.2274    0.8992 C   0  0  0  0  0  0  0  0  0  0  0  0
    1.5178   -1.2425   -0.1760 O   0  0  0  0  0  0  0  0  0  0  0  0
    0.3662   -0.5278    0.0543 C   0  0  0  0  0  0  0  0  0  0  0  0
   -0.8546   -1.3471    0.2929 C   0  0  0  0  0  0  0  0  0  0  0  0
   -1.4897   -0.6579   -0.9183 C   0  0  0  0  0  0  0  0  0  0  0  0
   -1.6618    0.7922   -0.7830 C   0  0  0  0  0  0  0  0  0  0  0  0
   -1.9624    1.2381    0.5233 O   0  0  0  0  0  0  0  0  0  0  0  0
   -0.3196    0.2525   -0.9985 C   0  0  0  0  0  0  0  0  0  0  0  0
    1.9747    1.8808    0.8998 H   0  0  0  0  0  0  0  0  0  0  0  0
    2.7567    0.9247   -0.3711 H   0  0  0  0  0  0  0  0  0  0  0  0
    3.2979    0.7131    1.3034 H   0  0  0  0  0  0  0  0  0  0  0  0
    1.5026   -0.7271    1.9011 H   0  0  0  0  0  0  0  0  0  0  0  0
   -1.4567   -1.1364    1.1755 H   0  0  0  0  0  0  0  0  0  0  0  0
   -0.7676   -2.4292    0.0667 H   0  0  0  0  0  0  0  0  0  0  0  0
   -1.7924   -1.2504   -1.7771 H   0  0  0  0  0  0  0  0  0  0  0  0
   -2.1859    1.3611   -1.5493 H   0  0  0  0  0  0  0  0  0  0  0  0
   -2.9395    1.1176    0.7142 H   0  0  0  0  0  0  0  0  0  0  0  0
    0.2518    0.3932   -1.9344 H   0  0  0  0  0  0  0  0  0  0  0  0
  1  2  1  0
  2  3  1  0
  3  4  1  0
  4  5  1  0
  5  6  1  0
  6  7  1  0
  7  8  1  0
  7  9  1  0
  4  2  1  0
  9  6  1  0
  9  4  1  0
  1 10  1  0
  1 11  1  0
  1 12  1  0
  2 13  1  0
  5 14  1  0
  5 15  1  0
  6 16  1  0
  7 17  1  0
  8 18  1  0
  9 19  1  0
M  END
