
     RDKit          3D

 21 22  0  0  0  0  0  0  0  0999 V2000
   -2.5237   -0.5182   -0.1588 C   0  0  0  0  0  0  0  0  0  0  0  0
   -1.4557    0.5193   -0.0174 C   0  0  0  0  0  0  0  0  0  0  0  0
   -0.4674    0.4034   -1.0248 O   0  0  0  0  0  0  0  0  0  0  0  0
    0.5016    1.3526   -0.7016 C   0  0  0  0  0  0  0  0  0  0  0  0
    1.6609    0.7549    0.0439 C   0  0  0  0  0  0  0  0  0  0  0  0
    2.1263   -0.5765   -0.5318 C   0  0  0  0  0  0  0  0  0  0  0  0
    1.4157   -0.4925    0.7394 C   0  0  0  0  0  0  0  0  0  0  0  0
   -0.0137   -0.8993    0.9231 C   0  0  0  0  0  0  0  0  0  0  0  0
   -0.7421    0.2793    1.1819 O   0  0  0  0  0  0  0  0  0  0  0  0
   -2.6483   -1.0694    0.8083 H   0  0  0  0  0  0  0  0  0  0  0  0
   -3.5092   -0.0567   -0.4301 H   0  0  0  0  0  0  0  0  0  0  0  0
   -2.2015   -1.2753   -0.9141 H   0  0  0  0  0  0  0  0  0  0  0  0
   -1.8110    1.5560   -0.0688 H   0  0  0  0  0  0  0  0  0  0  0  0
    0.9136    1.7309   -1.6767 H   0  0  0  0  0  0  0  0  0  0  0  0
    0.0379    2.2125   -0.1536 H   0  0  0  0  0  0  0  0  0  0  0  0
    2.4147    1.4943    0.3640 H   0  0  0  0  0  0  0  0  0  0  0  0
    3.2208   -0.7515   -0.5299 H   0  0  0  0  0  0  0  0  0  0  0  0
    1.6305   -0.9768   -1.4311 H   0  0  0  0  0  0  0  0  0  0  0  0
    2.0427   -0.6820    1.6591 H   0  0  0  0  0  0  0  0  0  0  0  0
   -0.4189   -1.4699    0.0826 H   0  0  0  0  0  0  0  0  0  0  0  0
   -0.1730   -1.5349    1.8363 H   0  0  0  0  0  0  0  0  0  0  0  0
  1  2  1  0
  2  3  1  0
  3  4  1  0
  4  5  1  0
  5  6  1  0
  6  7  1  0
  7  8  1  0
  8  9  1  0
  9  2  1  0
  7  5  1  0
  1 10  1  0
  1 11  1  0
  1 12  1  0
  2 13  1  0
  4 14  1  0
  4 15  1  0
  5 16  1  0
  6 17  1  0
  6 18  1  0
  7 19  1  0
  8 20  1  0
  8 21  1  0
M  END
