
     RDKit          3D

 20 21  0  0  0  0  0  0  0  0999 V2000
    2.9476    0.4967    0.5258 C   0  0  0  0  0  0  0  0  0  0  0  0
    1.6538   -0.2398    0.3356 C   0  0  0  0  0  0  0  0  0  0  0  0
    1.2282    0.0284   -1.0876 O   0  0  0  0  0  0  0  0  0  0  0  0
    0.4536    0.4620    0.1023 C   0  0  0  0  0  0  0  0  0  0  0  0
   -0.8958   -0.1434    0.0673 C   0  0  0  0  0  0  0  0  0  0  0  0
   -1.1247   -1.2295   -0.9741 C   0  0  0  0  0  0  0  0  0  0  0  0
   -1.8349   -0.1164    1.2016 C   0  0  0  0  0  0  0  0  0  0  0  0
   -2.0525    0.8683    0.1120 C   0  0  0  0  0  0  0  0  0  0  0  0
    3.6078    0.2416   -0.3297 H   0  0  0  0  0  0  0  0  0  0  0  0
    2.7992    1.6091    0.4749 H   0  0  0  0  0  0  0  0  0  0  0  0
    3.4863    0.1861    1.4397 H   0  0  0  0  0  0  0  0  0  0  0  0
    1.6788   -1.3099    0.5490 H   0  0  0  0  0  0  0  0  0  0  0  0
    0.4758    1.5819    0.1264 H   0  0  0  0  0  0  0  0  0  0  0  0
   -2.2315   -1.3959   -1.0938 H   0  0  0  0  0  0  0  0  0  0  0  0
   -0.6988   -2.1878   -0.6210 H   0  0  0  0  0  0  0  0  0  0  0  0
   -0.6932   -0.8602   -1.9121 H   0  0  0  0  0  0  0  0  0  0  0  0
   -2.5729   -0.9418    1.2476 H   0  0  0  0  0  0  0  0  0  0  0  0
   -1.5570    0.2577    2.2066 H   0  0  0  0  0  0  0  0  0  0  0  0
   -2.8695    0.7781   -0.6051 H   0  0  0  0  0  0  0  0  0  0  0  0
   -1.7999    1.9150    0.3692 H   0  0  0  0  0  0  0  0  0  0  0  0
  1  2  1  0
  2  3  1  0
  3  4  1  0
  4  5  1  0
  5  6  1  0
  5  7  1  0
  7  8  1  0
  4  2  1  0
  8  5  1  0
  1  9  1  0
  1 10  1  0
  1 11  1  0
  2 12  1  0
  4 13  1  0
  6 14  1  0
  6 15  1  0
  6 16  1  0
  7 17  1  0
  7 18  1  0
  8 19  1  0
  8 20  1  0
M  END
