
     RDKit          3D

 21 22  0  0  0  0  0  0  0  0999 V2000
   -0.8862    2.1072    0.0534 C   0  0  0  0  0  0  0  0  0  0  0  0
   -0.0096    0.9264   -0.1750 C   0  0  0  0  0  0  0  0  0  0  0  0
    0.6485    0.6354    1.0324 O   0  0  0  0  0  0  0  0  0  0  0  0
    1.8063   -0.0384    0.6966 C   0  0  0  0  0  0  0  0  0  0  0  0
    1.6102   -1.2002   -0.2102 C   0  0  0  0  0  0  0  0  0  0  0  0
    0.7293   -2.1644    0.2487 O   0  0  0  0  0  0  0  0  0  0  0  0
    0.3427   -1.3892   -0.8292 C   0  0  0  0  0  0  0  0  0  0  0  0
   -0.7043   -0.3065   -0.6134 C   0  0  0  0  0  0  0  0  0  0  0  0
   -1.6579   -0.8345    0.4412 C   0  0  0  0  0  0  0  0  0  0  0  0
   -1.3864    2.4371   -0.8916 H   0  0  0  0  0  0  0  0  0  0  0  0
   -0.2387    2.9615    0.3525 H   0  0  0  0  0  0  0  0  0  0  0  0
   -1.6071    1.9693    0.8854 H   0  0  0  0  0  0  0  0  0  0  0  0
    0.7511    1.1954   -0.9304 H   0  0  0  0  0  0  0  0  0  0  0  0
    2.2974   -0.3235    1.6709 H   0  0  0  0  0  0  0  0  0  0  0  0
    2.5014    0.6861    0.1891 H   0  0  0  0  0  0  0  0  0  0  0  0
    2.5420   -1.5176   -0.7486 H   0  0  0  0  0  0  0  0  0  0  0  0
    0.2958   -1.9521   -1.7975 H   0  0  0  0  0  0  0  0  0  0  0  0
   -1.2930   -0.1979   -1.5428 H   0  0  0  0  0  0  0  0  0  0  0  0
   -1.1441   -1.4996    1.1697 H   0  0  0  0  0  0  0  0  0  0  0  0
   -2.4584   -1.4767   -0.0186 H   0  0  0  0  0  0  0  0  0  0  0  0
   -2.1389   -0.0179    1.0174 H   0  0  0  0  0  0  0  0  0  0  0  0
  1  2  1  0
  2  3  1  0
  3  4  1  0
  4  5  1  0
  5  6  1  0
  6  7  1  0
  7  8  1  0
  8  9  1  0
  8  2  1  0
  7  5  1  0
  1 10  1  0
  1 11  1  0
  1 12  1  0
  2 13  1  0
  4 14  1  0
  4 15  1  0
  5 16  1  0
  7 17  1  0
  8 18  1  0
  9 19  1  0
  9 20  1  0
  9 21  1  0
M  END
