
     RDKit          3D

 19 19  0  0  0  0  0  0  0  0999 V2000
   -2.0305   -1.0272    0.4181 C   0  0  0  0  0  0  0  0  0  0  0  0
   -0.7705   -0.6752   -0.3055 C   0  0  0  0  0  0  0  0  0  0  0  0
    0.3765   -1.1328    0.2851 O   0  0  0  0  0  0  0  0  0  0  0  0
    1.2352   -0.0732    0.4874 C   0  0  0  0  0  0  0  0  0  0  0  0
    2.6573   -0.4253    0.3758 C   0  0  0  0  0  0  0  0  0  0  0  0
    3.4852    0.4307    0.5357 O   0  0  0  0  0  0  0  0  0  0  0  0
    0.9126    0.8416   -0.7056 C   0  0  0  0  0  0  0  0  0  0  0  0
   -0.6170    0.8065   -0.5531 C   0  0  0  0  0  0  0  0  0  0  0  0
   -0.9289    1.5676    0.5564 O   0  0  0  0  0  0  0  0  0  0  0  0
   -2.4317   -1.9818    0.0183 H   0  0  0  0  0  0  0  0  0  0  0  0
   -1.8577   -1.1992    1.5017 H   0  0  0  0  0  0  0  0  0  0  0  0
   -2.7703   -0.2241    0.2331 H   0  0  0  0  0  0  0  0  0  0  0  0
   -0.8260   -1.1473   -1.3261 H   0  0  0  0  0  0  0  0  0  0  0  0
    1.0049    0.4969    1.4206 H   0  0  0  0  0  0  0  0  0  0  0  0
    2.9593   -1.4226    0.1566 H   0  0  0  0  0  0  0  0  0  0  0  0
    1.3204    1.8367   -0.5876 H   0  0  0  0  0  0  0  0  0  0  0  0
    1.1937    0.2972   -1.6066 H   0  0  0  0  0  0  0  0  0  0  0  0
   -1.0441    1.1530   -1.4844 H   0  0  0  0  0  0  0  0  0  0  0  0
   -1.8683    1.8785    0.5800 H   0  0  0  0  0  0  0  0  0  0  0  0
  1  2  1  0
  2  3  1  0
  3  4  1  0
  4  5  1  0
  5  6  2  0
  4  7  1  0
  7  8  1  0
  8  9  1  0
  8  2  1  0
  1 10  1  0
  1 11  1  0
  1 12  1  0
  2 13  1  0
  4 14  1  0
  5 15  1  0
  7 16  1  0
  7 17  1  0
  8 18  1  0
  9 19  1  0
M  END
