
     RDKit          3D

 21 22  0  0  0  0  0  0  0  0999 V2000
   -0.6197    2.1143    0.5842 C   0  0  0  0  0  0  0  0  0  0  0  0
   -0.3895    0.9624   -0.3986 C   0  0  0  0  0  0  0  0  0  0  0  0
    0.9317    1.0078   -0.7633 O   0  0  0  0  0  0  0  0  0  0  0  0
    1.4663   -0.2406   -0.7373 C   0  0  0  0  0  0  0  0  0  0  0  0
    2.2184   -0.6586    0.4930 C   0  0  0  0  0  0  0  0  0  0  0  0
    1.2533   -1.6211    0.8281 O   0  0  0  0  0  0  0  0  0  0  0  0
    0.4683   -1.2156   -0.2301 C   0  0  0  0  0  0  0  0  0  0  0  0
   -0.6714   -0.3579    0.2401 C   0  0  0  0  0  0  0  0  0  0  0  0
   -1.9542   -0.9971   -0.2356 C   0  0  0  0  0  0  0  0  0  0  0  0
   -0.0809    3.0062    0.1711 H   0  0  0  0  0  0  0  0  0  0  0  0
   -0.1080    1.8404    1.5165 H   0  0  0  0  0  0  0  0  0  0  0  0
   -1.6717    2.3787    0.6828 H   0  0  0  0  0  0  0  0  0  0  0  0
   -1.0325    1.1416   -1.2972 H   0  0  0  0  0  0  0  0  0  0  0  0
    1.9727   -0.4792   -1.6973 H   0  0  0  0  0  0  0  0  0  0  0  0
    3.1770   -1.2000    0.2904 H   0  0  0  0  0  0  0  0  0  0  0  0
    2.3482    0.1010    1.2786 H   0  0  0  0  0  0  0  0  0  0  0  0
    0.2313   -1.9780   -0.9923 H   0  0  0  0  0  0  0  0  0  0  0  0
   -0.6775   -0.2118    1.3425 H   0  0  0  0  0  0  0  0  0  0  0  0
   -2.6973   -1.0484    0.5916 H   0  0  0  0  0  0  0  0  0  0  0  0
   -2.3620   -0.4801   -1.1155 H   0  0  0  0  0  0  0  0  0  0  0  0
   -1.8026   -2.0640   -0.5519 H   0  0  0  0  0  0  0  0  0  0  0  0
  1  2  1  0
  2  3  1  0
  3  4  1  0
  4  5  1  0
  5  6  1  0
  6  7  1  0
  7  8  1  0
  8  9  1  0
  8  2  1  0
  7  4  1  0
  1 10  1  0
  1 11  1  0
  1 12  1  0
  2 13  1  0
  4 14  1  0
  5 15  1  0
  5 16  1  0
  7 17  1  0
  8 18  1  0
  9 19  1  0
  9 20  1  0
  9 21  1  0
M  END
