
     RDKit          3D

 21 21  0  0  0  0  0  0  0  0999 V2000
   -0.2533    2.1715   -0.2202 C   0  0  0  0  0  0  0  0  0  0  0  0
    0.2141    0.7665   -0.6271 C   0  0  0  0  0  0  0  0  0  0  0  0
    1.5654    0.7553   -0.6832 O   0  0  0  0  0  0  0  0  0  0  0  0
    2.2401   -0.1539    0.0761 C   0  0  0  0  0  0  0  0  0  0  0  0
    1.6178   -1.4685    0.2032 C   0  0  0  0  0  0  0  0  0  0  0  0
    0.2944   -1.5668    0.2630 C   0  0  0  0  0  0  0  0  0  0  0  0
   -0.4444   -0.2798    0.1918 C   0  0  0  0  0  0  0  0  0  0  0  0
   -1.8909   -0.5106   -0.2625 C   0  0  0  0  0  0  0  0  0  0  0  0
   -2.4307   -1.5016    0.5541 O   0  0  0  0  0  0  0  0  0  0  0  0
   -1.2800    2.1365    0.1795 H   0  0  0  0  0  0  0  0  0  0  0  0
    0.4961    2.5505    0.4976 H   0  0  0  0  0  0  0  0  0  0  0  0
   -0.2477    2.8465   -1.0969 H   0  0  0  0  0  0  0  0  0  0  0  0
   -0.1651    0.6544   -1.6757 H   0  0  0  0  0  0  0  0  0  0  0  0
    2.4386    0.2336    1.1187 H   0  0  0  0  0  0  0  0  0  0  0  0
    3.2507   -0.2889   -0.3671 H   0  0  0  0  0  0  0  0  0  0  0  0
    2.2185   -2.3576    0.2493 H   0  0  0  0  0  0  0  0  0  0  0  0
   -0.2158   -2.5284    0.3581 H   0  0  0  0  0  0  0  0  0  0  0  0
   -0.5015    0.0995    1.2516 H   0  0  0  0  0  0  0  0  0  0  0  0
   -2.4008    0.4515   -0.1705 H   0  0  0  0  0  0  0  0  0  0  0  0
   -1.8795   -0.8801   -1.3059 H   0  0  0  0  0  0  0  0  0  0  0  0
   -2.6263   -1.1296    1.4662 H   0  0  0  0  0  0  0  0  0  0  0  0
  1  2  1  0
  2  3  1  0
  3  4  1  0
  4  5  1  0
  5  6  2  0
  6  7  1  0
  7  8  1  0
  8  9  1  0
  7  2  1  0
  1 10  1  0
  1 11  1  0
  1 12  1  0
  2 13  1  0
  4 14  1  0
  4 15  1  0
  5 16  1  0
  6 17  1  0
  7 18  1  0
  8 19  1  0
  8 20  1  0
  9 21  1  0
M  END
