
     RDKit          3D

 21 22  0  0  0  0  0  0  0  0999 V2000
    2.3945    0.2938   -0.3194 C   0  0  0  0  0  0  0  0  0  0  0  0
    1.1155   -0.4985   -0.5100 C   0  0  0  0  0  0  0  0  0  0  0  0
    0.7809   -1.1362    0.6374 O   0  0  0  0  0  0  0  0  0  0  0  0
   -0.5287   -1.4361    0.8305 C   0  0  0  0  0  0  0  0  0  0  0  0
   -1.4993   -0.7608   -0.0694 C   0  0  0  0  0  0  0  0  0  0  0  0
   -1.7018    0.6629    0.4627 C   0  0  0  0  0  0  0  0  0  0  0  0
   -0.5149    1.3677   -0.1299 C   0  0  0  0  0  0  0  0  0  0  0  0
    0.0260    0.3585   -1.1039 C   0  0  0  0  0  0  0  0  0  0  0  0
   -1.0568   -0.5210   -1.3415 O   0  0  0  0  0  0  0  0  0  0  0  0
    3.2774   -0.2378   -0.7471 H   0  0  0  0  0  0  0  0  0  0  0  0
    2.6022    0.3757    0.7765 H   0  0  0  0  0  0  0  0  0  0  0  0
    2.3354    1.2977   -0.8073 H   0  0  0  0  0  0  0  0  0  0  0  0
    1.3516   -1.2795   -1.2858 H   0  0  0  0  0  0  0  0  0  0  0  0
   -0.7464   -2.5447    0.8360 H   0  0  0  0  0  0  0  0  0  0  0  0
   -0.7861   -1.1175    1.8854 H   0  0  0  0  0  0  0  0  0  0  0  0
   -2.4528   -1.3127   -0.1298 H   0  0  0  0  0  0  0  0  0  0  0  0
   -1.6102    0.6262    1.5650 H   0  0  0  0  0  0  0  0  0  0  0  0
   -2.6683    1.0787    0.1831 H   0  0  0  0  0  0  0  0  0  0  0  0
   -0.9142    2.2403   -0.7078 H   0  0  0  0  0  0  0  0  0  0  0  0
    0.2189    1.7117    0.6130 H   0  0  0  0  0  0  0  0  0  0  0  0
    0.3771    0.8317   -2.0172 H   0  0  0  0  0  0  0  0  0  0  0  0
  1  2  1  0
  2  3  1  0
  3  4  1  0
  4  5  1  0
  5  6  1  0
  6  7  1  0
  7  8  1  0
  8  9  1  0
  8  2  1  0
  9  5  1  0
  1 10  1  0
  1 11  1  0
  1 12  1  0
  2 13  1  0
  4 14  1  0
  4 15  1  0
  5 16  1  0
  6 17  1  0
  6 18  1  0
  7 19  1  0
  7 20  1  0
  8 21  1  0
M  END
