
     RDKit          3D

 17 18  0  0  0  0  0  0  0  0999 V2000
   -2.3614   -0.2836   -0.2228 C   0  0  0  0  0  0  0  0  0  0  0  0
   -1.3108    0.5646    0.4439 C   0  0  0  0  0  0  0  0  0  0  0  0
   -1.1565    1.8305   -0.2161 O   0  0  0  0  0  0  0  0  0  0  0  0
    0.1115    1.5602   -0.7002 C   0  0  0  0  0  0  0  0  0  0  0  0
    0.9043    2.2220   -1.3965 O   0  0  0  0  0  0  0  0  0  0  0  0
    0.0740    0.2673   -0.0695 C   0  0  0  0  0  0  0  0  0  0  0  0
    0.2502   -0.9197   -0.7245 O   0  0  0  0  0  0  0  0  0  0  0  0
    0.9737   -0.5479    0.5242 C   0  0  0  0  0  0  0  0  0  0  0  0
    2.4507   -0.5865    0.2333 C   0  0  0  0  0  0  0  0  0  0  0  0
   -3.1477    0.3345   -0.7201 H   0  0  0  0  0  0  0  0  0  0  0  0
   -1.9001   -0.9046   -1.0419 H   0  0  0  0  0  0  0  0  0  0  0  0
   -2.7782   -0.9996    0.5098 H   0  0  0  0  0  0  0  0  0  0  0  0
   -1.3326    0.6139    1.5364 H   0  0  0  0  0  0  0  0  0  0  0  0
    0.6934   -1.2394    1.3736 H   0  0  0  0  0  0  0  0  0  0  0  0
    3.0339    0.0422    0.9251 H   0  0  0  0  0  0  0  0  0  0  0  0
    2.8027   -1.6433    0.3540 H   0  0  0  0  0  0  0  0  0  0  0  0
    2.6928   -0.3105   -0.8088 H   0  0  0  0  0  0  0  0  0  0  0  0
  1  2  1  0
  2  3  1  0
  3  4  1  0
  4  5  2  0
  4  6  1  0
  6  7  1  0
  7  8  1  0
  8  9  1  0
  6  2  1  0
  8  6  1  0
  1 10  1  0
  1 11  1  0
  1 12  1  0
  2 13  1  0
  8 14  1  0
  9 15  1  0
  9 16  1  0
  9 17  1  0
M  END
