
     RDKit          3D

 18 19  0  0  0  0  0  0  0  0999 V2000
   -1.5761   -1.1837    0.3440 C   0  0  0  0  0  0  0  0  0  0  0  0
   -1.2877    0.0968   -0.4080 C   0  0  0  0  0  0  0  0  0  0  0  0
   -0.4282   -0.0853   -1.5084 O   0  0  0  0  0  0  0  0  0  0  0  0
    0.1314    0.6171   -0.4743 C   0  0  0  0  0  0  0  0  0  0  0  0
    0.3157    2.1039   -0.7248 C   0  0  0  0  0  0  0  0  0  0  0  0
    1.0831    0.0055    0.4856 C   0  0  0  0  0  0  0  0  0  0  0  0
    1.3803   -1.3903    0.6368 C   0  0  0  0  0  0  0  0  0  0  0  0
    2.2941   -0.5199   -0.0728 O   0  0  0  0  0  0  0  0  0  0  0  0
   -0.9911   -1.2789    1.2793 H   0  0  0  0  0  0  0  0  0  0  0  0
   -1.3354   -2.0743   -0.2913 H   0  0  0  0  0  0  0  0  0  0  0  0
   -2.6764   -1.2128    0.5346 H   0  0  0  0  0  0  0  0  0  0  0  0
   -2.1228    0.8195   -0.5274 H   0  0  0  0  0  0  0  0  0  0  0  0
   -0.3191    2.6203    0.0309 H   0  0  0  0  0  0  0  0  0  0  0  0
   -0.0074    2.3913   -1.7489 H   0  0  0  0  0  0  0  0  0  0  0  0
    1.3829    2.3534   -0.5266 H   0  0  0  0  0  0  0  0  0  0  0  0
    1.3469    0.6827    1.3466 H   0  0  0  0  0  0  0  0  0  0  0  0
    1.0387   -2.1987   -0.0026 H   0  0  0  0  0  0  0  0  0  0  0  0
    1.7711   -1.7466    1.6272 H   0  0  0  0  0  0  0  0  0  0  0  0
  1  2  1  0
  2  3  1  0
  3  4  1  0
  4  5  1  0
  4  6  1  0
  6  7  1  0
  7  8  1  0
  4  2  1  0
  8  6  1  0
  1  9  1  0
  1 10  1  0
  1 11  1  0
  2 12  1  0
  5 13  1  0
  5 14  1  0
  5 15  1  0
  6 16  1  0
  7 17  1  0
  7 18  1  0
M  END
