
     RDKit          3D

 18 18  0  0  0  0  0  0  0  0999 V2000
    1.9495   -0.5903   -0.1301 C   0  0  0  0  0  0  0  0  0  0  0  0
    0.8986    0.4371   -0.3794 C   0  0  0  0  0  0  0  0  0  0  0  0
    0.8766    1.3553    0.7291 O   0  0  0  0  0  0  0  0  0  0  0  0
    0.0856    0.3760    1.3688 C   0  0  0  0  0  0  0  0  0  0  0  0
    0.0443    0.0248    2.5585 O   0  0  0  0  0  0  0  0  0  0  0  0
   -0.4919    0.1266    0.0410 C   0  0  0  0  0  0  0  0  0  0  0  0
   -1.0383   -1.2219   -0.2319 C   0  0  0  0  0  0  0  0  0  0  0  0
   -1.4514    1.2231   -0.3355 C   0  0  0  0  0  0  0  0  0  0  0  0
    1.5937   -1.6066    0.0181 H   0  0  0  0  0  0  0  0  0  0  0  0
    2.6797   -0.6335   -0.9884 H   0  0  0  0  0  0  0  0  0  0  0  0
    2.6025   -0.3527    0.7593 H   0  0  0  0  0  0  0  0  0  0  0  0
    0.9723    0.9480   -1.3698 H   0  0  0  0  0  0  0  0  0  0  0  0
   -0.3949   -2.0604    0.0046 H   0  0  0  0  0  0  0  0  0  0  0  0
   -1.9784   -1.3413    0.3708 H   0  0  0  0  0  0  0  0  0  0  0  0
   -1.3337   -1.2884   -1.2862 H   0  0  0  0  0  0  0  0  0  0  0  0
   -1.8226    1.1345   -1.3678 H   0  0  0  0  0  0  0  0  0  0  0  0
   -0.8902    2.1887   -0.1653 H   0  0  0  0  0  0  0  0  0  0  0  0
   -2.3013    1.2810    0.4044 H   0  0  0  0  0  0  0  0  0  0  0  0
  1  2  1  0
  2  3  1  0
  3  4  1  0
  4  5  2  0
  4  6  1  0
  6  7  1  0
  6  8  1  0
  6  2  1  0
  1  9  1  0
  1 10  1  0
  1 11  1  0
  2 12  1  0
  7 13  1  0
  7 14  1  0
  7 15  1  0
  8 16  1  0
  8 17  1  0
  8 18  1  0
M  END
