
     RDKit          3D

 18 18  0  0  0  0  0  0  0  0999 V2000
   -2.6161    0.7681    0.1863 C   0  0  0  0  0  0  0  0  0  0  0  0
   -1.3875    0.0521   -0.2166 C   0  0  0  0  0  0  0  0  0  0  0  0
   -1.0153   -0.9817    0.6415 O   0  0  0  0  0  0  0  0  0  0  0  0
    0.2864   -1.2988    0.2433 C   0  0  0  0  0  0  0  0  0  0  0  0
    0.7238   -0.0901   -0.5415 C   0  0  0  0  0  0  0  0  0  0  0  0
    2.1309    0.3404   -0.2292 C   0  0  0  0  0  0  0  0  0  0  0  0
    2.2751    0.5533    1.1406 O   0  0  0  0  0  0  0  0  0  0  0  0
   -0.2263    0.8574   -0.1638 O   0  0  0  0  0  0  0  0  0  0  0  0
   -2.4988    1.8280    0.4227 H   0  0  0  0  0  0  0  0  0  0  0  0
   -3.1398    0.2861    1.0555 H   0  0  0  0  0  0  0  0  0  0  0  0
   -3.3490    0.7213   -0.6694 H   0  0  0  0  0  0  0  0  0  0  0  0
   -1.4342   -0.2998   -1.2838 H   0  0  0  0  0  0  0  0  0  0  0  0
    0.9278   -1.4599    1.1451 H   0  0  0  0  0  0  0  0  0  0  0  0
    0.3362   -2.2173   -0.3664 H   0  0  0  0  0  0  0  0  0  0  0  0
    0.6164   -0.2394   -1.6340 H   0  0  0  0  0  0  0  0  0  0  0  0
    2.8043   -0.4543   -0.6121 H   0  0  0  0  0  0  0  0  0  0  0  0
    2.3214    1.2725   -0.7935 H   0  0  0  0  0  0  0  0  0  0  0  0
    3.2449    0.3622    1.3399 H   0  0  0  0  0  0  0  0  0  0  0  0
  1  2  1  0
  2  3  1  0
  3  4  1  0
  4  5  1  0
  5  6  1  0
  6  7  1  0
  5  8  1  0
  8  2  1  0
  1  9  1  0
  1 10  1  0
  1 11  1  0
  2 12  1  0
  4 13  1  0
  4 14  1  0
  5 15  1  0
  6 16  1  0
  6 17  1  0
  7 18  1  0
M  END
