
     RDKit          3D

 14 15  0  0  0  0  0  0  0  0999 V2000
    1.6285   -0.2017    0.2243 C   0  0  0  0  0  0  0  0  0  0  0  0
    0.4794   -0.4662   -0.7034 C   0  0  0  0  0  0  0  0  0  0  0  0
    0.0655    0.8122   -1.2144 O   0  0  0  0  0  0  0  0  0  0  0  0
   -0.8022    1.3954   -0.2986 C   0  0  0  0  0  0  0  0  0  0  0  0
   -0.9630    2.6081   -0.0018 O   0  0  0  0  0  0  0  0  0  0  0  0
   -1.5433    0.2496    0.2944 C   0  0  0  0  0  0  0  0  0  0  0  0
   -0.8571   -0.4059    1.3640 O   0  0  0  0  0  0  0  0  0  0  0  0
   -0.7679   -0.9016    0.0712 C   0  0  0  0  0  0  0  0  0  0  0  0
    1.8618    0.8824    0.3385 H   0  0  0  0  0  0  0  0  0  0  0  0
    2.5727   -0.6776   -0.1145 H   0  0  0  0  0  0  0  0  0  0  0  0
    1.4387   -0.5730    1.2590 H   0  0  0  0  0  0  0  0  0  0  0  0
    0.7201   -1.1706   -1.5150 H   0  0  0  0  0  0  0  0  0  0  0  0
   -2.6246    0.3297    0.4800 H   0  0  0  0  0  0  0  0  0  0  0  0
   -1.2086   -1.8808   -0.1838 H   0  0  0  0  0  0  0  0  0  0  0  0
  1  2  1  0
  2  3  1  0
  3  4  1  0
  4  5  2  0
  4  6  1  0
  6  7  1  0
  7  8  1  0
  8  2  1  0
  8  6  1  0
  1  9  1  0
  1 10  1  0
  1 11  1  0
  2 12  1  0
  6 13  1  0
  8 14  1  0
M  END
