
     RDKit          3D

 21 23  0  0  0  0  0  0  0  0999 V2000
    2.5561    0.0897   -0.6909 C   0  0  0  0  0  0  0  0  0  0  0  0
    2.0590   -0.5825    0.5454 C   0  0  0  0  0  0  0  0  0  0  0  0
    1.0917   -1.6471    0.1555 O   0  0  0  0  0  0  0  0  0  0  0  0
    0.6648   -0.6001    0.9561 C   0  0  0  0  0  0  0  0  0  0  0  0
   -0.2327    0.4617    0.3895 C   0  0  0  0  0  0  0  0  0  0  0  0
   -1.6700    0.4190    0.8318 C   0  0  0  0  0  0  0  0  0  0  0  0
   -1.9638    1.1657   -0.4367 C   0  0  0  0  0  0  0  0  0  0  0  0
   -0.9746    0.0996   -0.8586 C   0  0  0  0  0  0  0  0  0  0  0  0
   -1.7940   -0.8238   -0.0051 C   0  0  0  0  0  0  0  0  0  0  0  0
    1.8816   -0.0074   -1.5646 H   0  0  0  0  0  0  0  0  0  0  0  0
    3.5109   -0.4111   -0.9847 H   0  0  0  0  0  0  0  0  0  0  0  0
    2.7911    1.1631   -0.5635 H   0  0  0  0  0  0  0  0  0  0  0  0
    2.8205   -0.9600    1.2420 H   0  0  0  0  0  0  0  0  0  0  0  0
    0.4398   -0.8775    1.9988 H   0  0  0  0  0  0  0  0  0  0  0  0
    0.1631    1.4818    0.3493 H   0  0  0  0  0  0  0  0  0  0  0  0
   -2.0356    0.5841    1.7443 H   0  0  0  0  0  0  0  0  0  0  0  0
   -2.9742    0.9547   -0.8052 H   0  0  0  0  0  0  0  0  0  0  0  0
   -1.5999    2.1912   -0.5127 H   0  0  0  0  0  0  0  0  0  0  0  0
   -0.6202   -0.0563   -1.7761 H   0  0  0  0  0  0  0  0  0  0  0  0
   -2.8149   -0.9221   -0.3921 H   0  0  0  0  0  0  0  0  0  0  0  0
   -1.2986   -1.7226    0.3777 H   0  0  0  0  0  0  0  0  0  0  0  0
  1  2  1  0
  2  3  1  0
  3  4  1  0
  4  5  1  0
  5  6  1  0
  6  7  1  0
  7  8  1  0
  8  9  1  0
  4  2  1  0
  8  5  1  0
  9  6  1  0
  1 10  1  0
  1 11  1  0
  1 12  1  0
  2 13  1  0
  4 14  1  0
  5 15  1  0
  6 16  1  0
  7 17  1  0
  7 18  1  0
  8 19  1  0
  9 20  1  0
  9 21  1  0
M  END
