
     RDKit          3D

 17 17  0  0  0  0  0  0  0  0999 V2000
    2.0776   -0.2808   -0.0693 C   0  0  0  0  0  0  0  0  0  0  0  0
    0.9986    0.3073    0.7830 C   0  0  0  0  0  0  0  0  0  0  0  0
   -0.0003   -0.5378    1.1414 O   0  0  0  0  0  0  0  0  0  0  0  0
   -0.7361   -1.1052    0.1523 C   0  0  0  0  0  0  0  0  0  0  0  0
   -2.0020   -0.3455   -0.1970 C   0  0  0  0  0  0  0  0  0  0  0  0
   -1.8019    1.0206   -0.3610 O   0  0  0  0  0  0  0  0  0  0  0  0
   -0.6518    1.8018   -0.4678 C   0  0  0  0  0  0  0  0  0  0  0  0
   -0.7116    2.8382   -1.1658 O   0  0  0  0  0  0  0  0  0  0  0  0
    0.5494    1.5023    0.1493 O   0  0  0  0  0  0  0  0  0  0  0  0
    2.7431    0.5762   -0.3823 H   0  0  0  0  0  0  0  0  0  0  0  0
    2.7656   -0.9424    0.5299 H   0  0  0  0  0  0  0  0  0  0  0  0
    1.7377   -0.7485   -0.9942 H   0  0  0  0  0  0  0  0  0  0  0  0
    1.4988    0.6477    1.7261 H   0  0  0  0  0  0  0  0  0  0  0  0
   -0.1869   -1.3828   -0.7614 H   0  0  0  0  0  0  0  0  0  0  0  0
   -1.1105   -2.0909    0.5674 H   0  0  0  0  0  0  0  0  0  0  0  0
   -2.3567   -0.7560   -1.1787 H   0  0  0  0  0  0  0  0  0  0  0  0
   -2.8129   -0.5041    0.5280 H   0  0  0  0  0  0  0  0  0  0  0  0
  1  2  1  0
  2  3  1  0
  3  4  1  0
  4  5  1  0
  5  6  1  0
  6  7  1  0
  7  8  2  0
  7  9  1  0
  9  2  1  0
  1 10  1  0
  1 11  1  0
  1 12  1  0
  2 13  1  0
  4 14  1  0
  4 15  1  0
  5 16  1  0
  5 17  1  0
M  END
