
     RDKit          3D

 17 17  0  0  0  0  0  0  0  0999 V2000
   -2.2819    0.5262    0.2158 C   0  0  0  0  0  0  0  0  0  0  0  0
   -1.0302    0.0063   -0.4202 C   0  0  0  0  0  0  0  0  0  0  0  0
   -0.2504    1.1165   -0.8209 O   0  0  0  0  0  0  0  0  0  0  0  0
    1.1017    1.2067   -0.6172 C   0  0  0  0  0  0  0  0  0  0  0  0
    1.6604    2.3156   -0.6637 O   0  0  0  0  0  0  0  0  0  0  0  0
    1.8919   -0.0017   -0.3442 C   0  0  0  0  0  0  0  0  0  0  0  0
    1.1976   -0.9803    0.5589 C   0  0  0  0  0  0  0  0  0  0  0  0
   -0.2679   -0.9183    0.4610 C   0  0  0  0  0  0  0  0  0  0  0  0
   -0.9236   -1.6797    1.1514 O   0  0  0  0  0  0  0  0  0  0  0  0
   -2.5843    1.4435   -0.3482 H   0  0  0  0  0  0  0  0  0  0  0  0
   -2.1051    0.8190    1.2705 H   0  0  0  0  0  0  0  0  0  0  0  0
   -3.0999   -0.2369    0.1845 H   0  0  0  0  0  0  0  0  0  0  0  0
   -1.3186   -0.5489   -1.3425 H   0  0  0  0  0  0  0  0  0  0  0  0
    2.8705    0.2618    0.1134 H   0  0  0  0  0  0  0  0  0  0  0  0
    2.0827   -0.5430   -1.3111 H   0  0  0  0  0  0  0  0  0  0  0  0
    1.5565   -2.0184    0.3114 H   0  0  0  0  0  0  0  0  0  0  0  0
    1.5007   -0.7684    1.6010 H   0  0  0  0  0  0  0  0  0  0  0  0
  1  2  1  0
  2  3  1  0
  3  4  1  0
  4  5  2  0
  4  6  1  0
  6  7  1  0
  7  8  1  0
  8  9  2  0
  8  2  1  0
  1 10  1  0
  1 11  1  0
  1 12  1  0
  2 13  1  0
  6 14  1  0
  6 15  1  0
  7 16  1  0
  7 17  1  0
M  END
