
     RDKit          3D

 21 22  0  0  0  0  0  0  0  0999 V2000
    2.3330   -0.3094   -0.0076 C   0  0  0  0  0  0  0  0  0  0  0  0
    0.9387   -0.5762    0.4889 C   0  0  0  0  0  0  0  0  0  0  0  0
    0.3260   -1.4154   -0.4570 O   0  0  0  0  0  0  0  0  0  0  0  0
   -0.7180   -0.7645   -1.1158 C   0  0  0  0  0  0  0  0  0  0  0  0
   -1.8463   -0.6352   -0.1016 C   0  0  0  0  0  0  0  0  0  0  0  0
   -1.2951    0.2179    1.0337 C   0  0  0  0  0  0  0  0  0  0  0  0
    0.1076    0.6561    0.6484 C   0  0  0  0  0  0  0  0  0  0  0  0
   -0.0340    1.4032   -0.6758 C   0  0  0  0  0  0  0  0  0  0  0  0
   -0.3292    0.4506   -1.6364 O   0  0  0  0  0  0  0  0  0  0  0  0
    2.3315   -0.2509   -1.1259 H   0  0  0  0  0  0  0  0  0  0  0  0
    2.8398    0.5209    0.4791 H   0  0  0  0  0  0  0  0  0  0  0  0
    2.9343   -1.2329    0.2388 H   0  0  0  0  0  0  0  0  0  0  0  0
    1.0281   -1.0573    1.4792 H   0  0  0  0  0  0  0  0  0  0  0  0
   -1.0193   -1.4099   -1.9618 H   0  0  0  0  0  0  0  0  0  0  0  0
   -2.0442   -1.6738    0.2696 H   0  0  0  0  0  0  0  0  0  0  0  0
   -2.7101   -0.1815   -0.5963 H   0  0  0  0  0  0  0  0  0  0  0  0
   -1.9147    1.1365    1.0511 H   0  0  0  0  0  0  0  0  0  0  0  0
   -1.3250   -0.2964    2.0013 H   0  0  0  0  0  0  0  0  0  0  0  0
    0.4702    1.3353    1.4148 H   0  0  0  0  0  0  0  0  0  0  0  0
    0.8464    2.0091   -0.8882 H   0  0  0  0  0  0  0  0  0  0  0  0
   -0.9199    2.0740   -0.5386 H   0  0  0  0  0  0  0  0  0  0  0  0
  1  2  1  0
  2  3  1  0
  3  4  1  0
  4  5  1  0
  5  6  1  0
  6  7  1  0
  7  8  1  0
  8  9  1  0
  7  2  1  0
  9  4  1  0
  1 10  1  0
  1 11  1  0
  1 12  1  0
  2 13  1  0
  4 14  1  0
  5 15  1  0
  5 16  1  0
  6 17  1  0
  6 18  1  0
  7 19  1  0
  8 20  1  0
  8 21  1  0
M  END
