
     RDKit          3D

 21 22  0  0  0  0  0  0  0  0999 V2000
    2.4926    0.1861   -0.1820 C   0  0  0  0  0  0  0  0  0  0  0  0
    1.0501    0.1238    0.3120 C   0  0  0  0  0  0  0  0  0  0  0  0
    0.6603   -1.1454    0.6391 O   0  0  0  0  0  0  0  0  0  0  0  0
   -0.5987   -1.3796    0.1274 C   0  0  0  0  0  0  0  0  0  0  0  0
   -1.6559   -0.6318    0.9503 C   0  0  0  0  0  0  0  0  0  0  0  0
   -1.2483    0.6497    1.2000 O   0  0  0  0  0  0  0  0  0  0  0  0
   -1.0022    1.4034    0.0577 C   0  0  0  0  0  0  0  0  0  0  0  0
    0.0844    0.6632   -0.7171 C   0  0  0  0  0  0  0  0  0  0  0  0
   -0.5618   -0.6246   -1.2097 C   0  0  0  0  0  0  0  0  0  0  0  0
    2.6753   -0.5086   -1.0189 H   0  0  0  0  0  0  0  0  0  0  0  0
    3.1239   -0.0578    0.6939 H   0  0  0  0  0  0  0  0  0  0  0  0
    2.6804    1.2457   -0.4411 H   0  0  0  0  0  0  0  0  0  0  0  0
    1.0230    0.7716    1.2226 H   0  0  0  0  0  0  0  0  0  0  0  0
   -0.8334   -2.4322    0.0063 H   0  0  0  0  0  0  0  0  0  0  0  0
   -2.5990   -0.6885    0.3356 H   0  0  0  0  0  0  0  0  0  0  0  0
   -1.8043   -1.1525    1.8943 H   0  0  0  0  0  0  0  0  0  0  0  0
   -0.5452    2.3618    0.3764 H   0  0  0  0  0  0  0  0  0  0  0  0
   -1.8907    1.5341   -0.5792 H   0  0  0  0  0  0  0  0  0  0  0  0
    0.5388    1.2541   -1.5010 H   0  0  0  0  0  0  0  0  0  0  0  0
    0.0269   -1.1421   -1.9630 H   0  0  0  0  0  0  0  0  0  0  0  0
   -1.6162   -0.4305   -1.4927 H   0  0  0  0  0  0  0  0  0  0  0  0
  1  2  1  0
  2  3  1  0
  3  4  1  0
  4  5  1  0
  5  6  1  0
  6  7  1  0
  7  8  1  0
  8  9  1  0
  8  2  1  0
  9  4  1  0
  1 10  1  0
  1 11  1  0
  1 12  1  0
  2 13  1  0
  4 14  1  0
  5 15  1  0
  5 16  1  0
  7 17  1  0
  7 18  1  0
  8 19  1  0
  9 20  1  0
  9 21  1  0
M  END
