
     RDKit          3D

 17 18  0  0  0  0  0  0  0  0999 V2000
   -1.9548    0.0884   -0.1796 C   0  0  0  0  0  0  0  0  0  0  0  0
   -0.7107    0.2242    0.6701 C   0  0  0  0  0  0  0  0  0  0  0  0
   -0.3675    1.6089    0.6603 O   0  0  0  0  0  0  0  0  0  0  0  0
    0.8188    1.8050   -0.0196 C   0  0  0  0  0  0  0  0  0  0  0  0
    1.4667    2.8817   -0.0640 O   0  0  0  0  0  0  0  0  0  0  0  0
    1.2111    0.5310   -0.6959 C   0  0  0  0  0  0  0  0  0  0  0  0
    0.4507   -0.4897    0.0904 C   0  0  0  0  0  0  0  0  0  0  0  0
    0.7124   -1.8438    0.0903 C   0  0  0  0  0  0  0  0  0  0  0  0
    1.3330   -1.0062    1.1728 O   0  0  0  0  0  0  0  0  0  0  0  0
   -2.7529    0.6770    0.3278 H   0  0  0  0  0  0  0  0  0  0  0  0
   -2.3061   -0.9685   -0.2217 H   0  0  0  0  0  0  0  0  0  0  0  0
   -1.7565    0.4801   -1.1929 H   0  0  0  0  0  0  0  0  0  0  0  0
   -0.9552   -0.0409    1.7032 H   0  0  0  0  0  0  0  0  0  0  0  0
    2.3121    0.3796   -0.6696 H   0  0  0  0  0  0  0  0  0  0  0  0
    0.9201    0.5559   -1.7741 H   0  0  0  0  0  0  0  0  0  0  0  0
    0.0697   -2.5814    0.6077 H   0  0  0  0  0  0  0  0  0  0  0  0
    1.5092   -2.3015   -0.5050 H   0  0  0  0  0  0  0  0  0  0  0  0
  1  2  1  0
  2  3  1  0
  3  4  1  0
  4  5  2  0
  4  6  1  0
  6  7  1  0
  7  8  1  0
  8  9  1  0
  7  2  1  0
  9  7  1  0
  1 10  1  0
  1 11  1  0
  1 12  1  0
  2 13  1  0
  6 14  1  0
  6 15  1  0
  8 16  1  0
  8 17  1  0
M  END
