
     RDKit          3D

 21 23  0  0  0  0  0  0  0  0999 V2000
    2.8050    0.0246   -0.2670 C   0  0  0  0  0  0  0  0  0  0  0  0
    1.4584    0.6792    0.0304 C   0  0  0  0  0  0  0  0  0  0  0  0
    1.1059    0.3405    1.4366 O   0  0  0  0  0  0  0  0  0  0  0  0
    0.3655   -0.0114    0.3568 C   0  0  0  0  0  0  0  0  0  0  0  0
   -0.1453   -1.3694    0.0851 C   0  0  0  0  0  0  0  0  0  0  0  0
   -1.2500   -1.0419    1.0668 C   0  0  0  0  0  0  0  0  0  0  0  0
   -1.1002    0.2122    0.2417 C   0  0  0  0  0  0  0  0  0  0  0  0
   -1.8143    1.3721    0.3534 C   0  0  0  0  0  0  0  0  0  0  0  0
   -1.0350   -0.7149   -0.9468 C   0  0  0  0  0  0  0  0  0  0  0  0
    3.0887    0.2612   -1.3145 H   0  0  0  0  0  0  0  0  0  0  0  0
    3.5420    0.5383    0.3854 H   0  0  0  0  0  0  0  0  0  0  0  0
    2.7889   -1.0523   -0.0577 H   0  0  0  0  0  0  0  0  0  0  0  0
    1.5046    1.7861   -0.1331 H   0  0  0  0  0  0  0  0  0  0  0  0
    0.3308   -2.2416   -0.0041 H   0  0  0  0  0  0  0  0  0  0  0  0
   -2.1794   -1.5961    0.9591 H   0  0  0  0  0  0  0  0  0  0  0  0
   -0.8291   -0.9159    2.0690 H   0  0  0  0  0  0  0  0  0  0  0  0
   -1.3132    2.1703    0.9510 H   0  0  0  0  0  0  0  0  0  0  0  0
   -2.8191    1.2465    0.8562 H   0  0  0  0  0  0  0  0  0  0  0  0
   -2.0757    1.8621   -0.6266 H   0  0  0  0  0  0  0  0  0  0  0  0
   -1.9506   -1.2546   -1.1981 H   0  0  0  0  0  0  0  0  0  0  0  0
   -0.4776   -0.2951   -1.7921 H   0  0  0  0  0  0  0  0  0  0  0  0
  1  2  1  0
  2  3  1  0
  3  4  1  0
  4  5  1  0
  5  6  1  0
  6  7  1  0
  7  8  1  0
  7  9  1  0
  4  2  1  0
  9  5  1  0
  7  4  1  0
  1 10  1  0
  1 11  1  0
  1 12  1  0
  2 13  1  0
  5 14  1  0
  6 15  1  0
  6 16  1  0
  8 17  1  0
  8 18  1  0
  8 19  1  0
  9 20  1  0
  9 21  1  0
M  END
