
     RDKit          3D

 19 20  0  0  0  0  0  0  0  0999 V2000
    2.4944   -0.3899   -0.1365 C   0  0  0  0  0  0  0  0  0  0  0  0
    1.3097   -0.5571    0.8148 C   0  0  0  0  0  0  0  0  0  0  0  0
    0.3527   -1.3647    0.1563 O   0  0  0  0  0  0  0  0  0  0  0  0
   -0.4948   -0.3369   -0.1701 C   0  0  0  0  0  0  0  0  0  0  0  0
   -1.9638   -0.5472    0.0292 C   0  0  0  0  0  0  0  0  0  0  0  0
   -2.3278   -0.8175    1.3282 O   0  0  0  0  0  0  0  0  0  0  0  0
   -0.0492    0.9717   -0.6591 C   0  0  0  0  0  0  0  0  0  0  0  0
   -1.0269    1.9298   -0.8510 O   0  0  0  0  0  0  0  0  0  0  0  0
    0.2919    0.5601    0.7274 C   0  0  0  0  0  0  0  0  0  0  0  0
    3.1808   -1.2440    0.1006 H   0  0  0  0  0  0  0  0  0  0  0  0
    3.0277    0.5671    0.0374 H   0  0  0  0  0  0  0  0  0  0  0  0
    2.1426   -0.4662   -1.2014 H   0  0  0  0  0  0  0  0  0  0  0  0
    1.5895   -0.8888    1.8117 H   0  0  0  0  0  0  0  0  0  0  0  0
   -2.2698   -1.4381   -0.5835 H   0  0  0  0  0  0  0  0  0  0  0  0
   -2.5253    0.3348   -0.3716 H   0  0  0  0  0  0  0  0  0  0  0  0
   -3.2346   -0.4005    1.4841 H   0  0  0  0  0  0  0  0  0  0  0  0
    0.8287    1.1013   -1.3308 H   0  0  0  0  0  0  0  0  0  0  0  0
   -1.1275    2.0366   -1.8427 H   0  0  0  0  0  0  0  0  0  0  0  0
   -0.1982    0.9495    1.6114 H   0  0  0  0  0  0  0  0  0  0  0  0
  1  2  1  0
  2  3  1  0
  3  4  1  0
  4  5  1  0
  5  6  1  0
  4  7  1  0
  7  8  1  0
  7  9  1  0
  9  2  1  0
  9  4  1  0
  1 10  1  0
  1 11  1  0
  1 12  1  0
  2 13  1  0
  5 14  1  0
  5 15  1  0
  6 16  1  0
  7 17  1  0
  8 18  1  0
  9 19  1  0
M  END
