
     RDKit          3D

 19 20  0  0  0  0  0  0  0  0999 V2000
   -2.3691    0.1607    0.6129 C   0  0  0  0  0  0  0  0  0  0  0  0
   -1.5394   -0.5604   -0.3936 C   0  0  0  0  0  0  0  0  0  0  0  0
   -1.0005    0.3250   -1.3710 O   0  0  0  0  0  0  0  0  0  0  0  0
    0.1688    0.6791   -0.7558 C   0  0  0  0  0  0  0  0  0  0  0  0
    1.5191    0.3174   -0.8661 C   0  0  0  0  0  0  0  0  0  0  0  0
    2.4956    0.6353    0.2730 C   0  0  0  0  0  0  0  0  0  0  0  0
    0.7055   -0.8140   -0.7178 C   0  0  0  0  0  0  0  0  0  0  0  0
   -0.3365   -1.2225    0.2035 C   0  0  0  0  0  0  0  0  0  0  0  0
   -0.2800   -1.9108    1.1944 O   0  0  0  0  0  0  0  0  0  0  0  0
   -1.8882    0.2657    1.6100 H   0  0  0  0  0  0  0  0  0  0  0  0
   -2.5267    1.2014    0.2372 H   0  0  0  0  0  0  0  0  0  0  0  0
   -3.4058   -0.2789    0.7023 H   0  0  0  0  0  0  0  0  0  0  0  0
   -2.1620   -1.2737   -0.9747 H   0  0  0  0  0  0  0  0  0  0  0  0
   -0.1127    1.1140    0.2553 H   0  0  0  0  0  0  0  0  0  0  0  0
    2.0403    0.5168   -1.8474 H   0  0  0  0  0  0  0  0  0  0  0  0
    2.1046    0.2800    1.2255 H   0  0  0  0  0  0  0  0  0  0  0  0
    3.4949    0.2184    0.0038 H   0  0  0  0  0  0  0  0  0  0  0  0
    2.5573    1.7433    0.3264 H   0  0  0  0  0  0  0  0  0  0  0  0
    0.5348   -1.3968   -1.6819 H   0  0  0  0  0  0  0  0  0  0  0  0
  1  2  1  0
  2  3  1  0
  3  4  1  0
  4  5  1  0
  5  6  1  0
  5  7  1  0
  7  8  1  0
  8  9  2  0
  8  2  1  0
  7  4  1  0
  1 10  1  0
  1 11  1  0
  1 12  1  0
  2 13  1  0
  4 14  1  0
  5 15  1  0
  6 16  1  0
  6 17  1  0
  6 18  1  0
  7 19  1  0
M  END
