
     RDKit          3D

 19 21  0  0  0  0  0  0  0  0999 V2000
    2.7007    0.1047    0.4416 C   0  0  0  0  0  0  0  0  0  0  0  0
    1.2839    0.2523   -0.0434 C   0  0  0  0  0  0  0  0  0  0  0  0
    0.6909   -1.0130   -0.1181 O   0  0  0  0  0  0  0  0  0  0  0  0
   -0.5150   -0.9162   -0.8033 C   0  0  0  0  0  0  0  0  0  0  0  0
   -1.6580   -1.1951    0.1410 C   0  0  0  0  0  0  0  0  0  0  0  0
   -1.8281    0.2613    0.3936 C   0  0  0  0  0  0  0  0  0  0  0  0
   -0.7309    1.2351    0.3200 C   0  0  0  0  0  0  0  0  0  0  0  0
    0.5235    0.9929    0.8627 O   0  0  0  0  0  0  0  0  0  0  0  0
   -1.0008    0.4986   -0.9140 C   0  0  0  0  0  0  0  0  0  0  0  0
    3.0303   -0.9227    0.2170 H   0  0  0  0  0  0  0  0  0  0  0  0
    3.3987    0.7884   -0.0858 H   0  0  0  0  0  0  0  0  0  0  0  0
    2.8170    0.2694    1.5247 H   0  0  0  0  0  0  0  0  0  0  0  0
    1.2047    0.7450   -1.0304 H   0  0  0  0  0  0  0  0  0  0  0  0
   -0.5318   -1.4290   -1.7651 H   0  0  0  0  0  0  0  0  0  0  0  0
   -2.5059   -1.6328   -0.4382 H   0  0  0  0  0  0  0  0  0  0  0  0
   -1.3995   -1.8132    1.0324 H   0  0  0  0  0  0  0  0  0  0  0  0
   -2.8600    0.6282    0.3885 H   0  0  0  0  0  0  0  0  0  0  0  0
   -1.0185    2.2999    0.3395 H   0  0  0  0  0  0  0  0  0  0  0  0
   -1.6013    0.8463   -1.7457 H   0  0  0  0  0  0  0  0  0  0  0  0
  1  2  1  0
  2  3  1  0
  3  4  1  0
  4  5  1  0
  5  6  1  0
  6  7  1  0
  7  8  1  0
  7  9  1  0
  8  2  1  0
  9  4  1  0
  9  6  1  0
  1 10  1  0
  1 11  1  0
  1 12  1  0
  2 13  1  0
  4 14  1  0
  5 15  1  0
  5 16  1  0
  6 17  1  0
  7 18  1  0
  9 19  1  0
M  END
