
     RDKit          3D

 21 21  0  0  0  0  0  0  0  0999 V2000
   -1.9747    1.3114    0.5241 C   0  0  0  0  0  0  0  0  0  0  0  0
   -0.8030    0.6005   -0.1700 C   0  0  0  0  0  0  0  0  0  0  0  0
    0.3392    1.2335    0.2224 O   0  0  0  0  0  0  0  0  0  0  0  0
    1.4653    0.9663   -0.4889 C   0  0  0  0  0  0  0  0  0  0  0  0
    2.2416   -0.1314    0.1940 C   0  0  0  0  0  0  0  0  0  0  0  0
    1.3448   -0.8595    0.9858 O   0  0  0  0  0  0  0  0  0  0  0  0
    0.4544   -1.4738    0.1183 C   0  0  0  0  0  0  0  0  0  0  0  0
   -0.8906   -0.8440    0.3093 C   0  0  0  0  0  0  0  0  0  0  0  0
   -1.8934   -1.5206   -0.3396 O   0  0  0  0  0  0  0  0  0  0  0  0
   -2.7970    0.6003    0.7435 H   0  0  0  0  0  0  0  0  0  0  0  0
   -2.2957    2.2029   -0.0361 H   0  0  0  0  0  0  0  0  0  0  0  0
   -1.5950    1.6418    1.5257 H   0  0  0  0  0  0  0  0  0  0  0  0
   -1.0025    0.6086   -1.2544 H   0  0  0  0  0  0  0  0  0  0  0  0
    2.1259    1.8783   -0.4547 H   0  0  0  0  0  0  0  0  0  0  0  0
    1.3235    0.7428   -1.5539 H   0  0  0  0  0  0  0  0  0  0  0  0
    2.5933   -0.8517   -0.5903 H   0  0  0  0  0  0  0  0  0  0  0  0
    3.0987    0.2423    0.7792 H   0  0  0  0  0  0  0  0  0  0  0  0
    0.4534   -2.5579    0.3528 H   0  0  0  0  0  0  0  0  0  0  0  0
    0.7326   -1.3380   -0.9554 H   0  0  0  0  0  0  0  0  0  0  0  0
   -1.1441   -0.8253    1.3917 H   0  0  0  0  0  0  0  0  0  0  0  0
   -1.7768   -1.6266   -1.3036 H   0  0  0  0  0  0  0  0  0  0  0  0
  1  2  1  0
  2  3  1  0
  3  4  1  0
  4  5  1  0
  5  6  1  0
  6  7  1  0
  7  8  1  0
  8  9  1  0
  8  2  1  0
  1 10  1  0
  1 11  1  0
  1 12  1  0
  2 13  1  0
  4 14  1  0
  4 15  1  0
  5 16  1  0
  5 17  1  0
  7 18  1  0
  7 19  1  0
  8 20  1  0
  9 21  1  0
M  END
