
     RDKit          3D

 19 21  0  0  0  0  0  0  0  0999 V2000
    2.4496    0.8341    0.2040 C   0  0  0  0  0  0  0  0  0  0  0  0
    1.5935   -0.1946   -0.5025 C   0  0  0  0  0  0  0  0  0  0  0  0
    1.2599   -1.2675    0.4669 O   0  0  0  0  0  0  0  0  0  0  0  0
    0.2716   -0.3606   -0.1639 C   0  0  0  0  0  0  0  0  0  0  0  0
   -0.8026   -1.1373   -0.8310 C   0  0  0  0  0  0  0  0  0  0  0  0
   -2.0626   -0.2720   -0.7894 C   0  0  0  0  0  0  0  0  0  0  0  0
   -1.8377    0.5926    0.4296 C   0  0  0  0  0  0  0  0  0  0  0  0
   -1.4533   -0.0974    1.5663 O   0  0  0  0  0  0  0  0  0  0  0  0
   -0.4429    0.4972    0.8313 C   0  0  0  0  0  0  0  0  0  0  0  0
    3.4987    0.4712    0.3498 H   0  0  0  0  0  0  0  0  0  0  0  0
    2.5128    1.7785   -0.3488 H   0  0  0  0  0  0  0  0  0  0  0  0
    2.0642    0.9977    1.2526 H   0  0  0  0  0  0  0  0  0  0  0  0
    2.0968   -0.6830   -1.3584 H   0  0  0  0  0  0  0  0  0  0  0  0
   -0.5746   -1.4952   -1.8413 H   0  0  0  0  0  0  0  0  0  0  0  0
   -1.0509   -2.0427   -0.2056 H   0  0  0  0  0  0  0  0  0  0  0  0
   -2.1634    0.3118   -1.7176 H   0  0  0  0  0  0  0  0  0  0  0  0
   -2.9642   -0.8778   -0.6015 H   0  0  0  0  0  0  0  0  0  0  0  0
   -2.4298    1.5323    0.5427 H   0  0  0  0  0  0  0  0  0  0  0  0
    0.0349    1.4127    1.2413 H   0  0  0  0  0  0  0  0  0  0  0  0
  1  2  1  0
  2  3  1  0
  3  4  1  0
  4  5  1  0
  5  6  1  0
  6  7  1  0
  7  8  1  0
  8  9  1  0
  4  2  1  0
  9  7  1  0
  9  4  1  0
  1 10  1  0
  1 11  1  0
  1 12  1  0
  2 13  1  0
  5 14  1  0
  5 15  1  0
  6 16  1  0
  6 17  1  0
  7 18  1  0
  9 19  1  0
M  END
