
     RDKit          3D

 19 20  0  0  0  0  0  0  0  0999 V2000
    0.1049    2.1254    0.1885 C   0  0  0  0  0  0  0  0  0  0  0  0
    0.3013    0.6503    0.3558 C   0  0  0  0  0  0  0  0  0  0  0  0
    1.6092    0.2982   -0.0493 O   0  0  0  0  0  0  0  0  0  0  0  0
    1.7866   -1.0133    0.4373 C   0  0  0  0  0  0  0  0  0  0  0  0
    0.9943   -1.9318   -0.1831 O   0  0  0  0  0  0  0  0  0  0  0  0
    0.0112   -1.4399   -0.9886 C   0  0  0  0  0  0  0  0  0  0  0  0
   -0.6386   -0.1897   -0.4433 C   0  0  0  0  0  0  0  0  0  0  0  0
   -2.0420   -0.2530    0.0688 C   0  0  0  0  0  0  0  0  0  0  0  0
   -1.6918    0.3447   -1.1312 O   0  0  0  0  0  0  0  0  0  0  0  0
    0.7611    2.6302    0.9404 H   0  0  0  0  0  0  0  0  0  0  0  0
   -0.9215    2.4084    0.4297 H   0  0  0  0  0  0  0  0  0  0  0  0
    0.4594    2.4789   -0.8021 H   0  0  0  0  0  0  0  0  0  0  0  0
    0.1538    0.3865    1.4310 H   0  0  0  0  0  0  0  0  0  0  0  0
    2.8605   -1.2178    0.4220 H   0  0  0  0  0  0  0  0  0  0  0  0
    1.4496   -0.9555    1.5149 H   0  0  0  0  0  0  0  0  0  0  0  0
   -0.7452   -2.2661   -1.1351 H   0  0  0  0  0  0  0  0  0  0  0  0
    0.3988   -1.2459   -2.0242 H   0  0  0  0  0  0  0  0  0  0  0  0
   -2.3421    0.4377    0.8760 H   0  0  0  0  0  0  0  0  0  0  0  0
   -2.5095   -1.2472    0.0925 H   0  0  0  0  0  0  0  0  0  0  0  0
  1  2  1  0
  2  3  1  0
  3  4  1  0
  4  5  1  0
  5  6  1  0
  6  7  1  0
  7  8  1  0
  8  9  1  0
  7  2  1  0
  9  7  1  0
  1 10  1  0
  1 11  1  0
  1 12  1  0
  2 13  1  0
  4 14  1  0
  4 15  1  0
  6 16  1  0
  6 17  1  0
  8 18  1  0
  8 19  1  0
M  END
