
     RDKit          3D

 21 22  0  0  0  0  0  0  0  0999 V2000
    2.2905   -1.0373    0.1923 C   0  0  0  0  0  0  0  0  0  0  0  0
    1.2083   -0.0475    0.5251 C   0  0  0  0  0  0  0  0  0  0  0  0
    0.2091   -0.5064    1.3728 O   0  0  0  0  0  0  0  0  0  0  0  0
   -0.7565   -0.2844    0.4067 C   0  0  0  0  0  0  0  0  0  0  0  0
   -1.5043   -1.5555    0.1096 C   0  0  0  0  0  0  0  0  0  0  0  0
   -1.6060    0.8992    0.5927 C   0  0  0  0  0  0  0  0  0  0  0  0
   -1.1910    1.9300   -0.1357 C   0  0  0  0  0  0  0  0  0  0  0  0
    0.0161    1.5748   -0.9255 C   0  0  0  0  0  0  0  0  0  0  0  0
    0.2502    0.1335   -0.6242 C   0  0  0  0  0  0  0  0  0  0  0  0
    2.4884   -0.9303   -0.9136 H   0  0  0  0  0  0  0  0  0  0  0  0
    3.2184   -0.6988    0.7229 H   0  0  0  0  0  0  0  0  0  0  0  0
    2.0242   -2.0745    0.3903 H   0  0  0  0  0  0  0  0  0  0  0  0
    1.6058    0.9273    0.9343 H   0  0  0  0  0  0  0  0  0  0  0  0
   -1.9625   -1.8935    1.0822 H   0  0  0  0  0  0  0  0  0  0  0  0
   -0.8210   -2.3396   -0.2670 H   0  0  0  0  0  0  0  0  0  0  0  0
   -2.3624   -1.3587   -0.5595 H   0  0  0  0  0  0  0  0  0  0  0  0
   -2.4775    0.9243    1.2547 H   0  0  0  0  0  0  0  0  0  0  0  0
   -1.6959    2.9064   -0.1333 H   0  0  0  0  0  0  0  0  0  0  0  0
    0.8536    2.2057   -0.5602 H   0  0  0  0  0  0  0  0  0  0  0  0
   -0.1615    1.7789   -1.9996 H   0  0  0  0  0  0  0  0  0  0  0  0
    0.3741   -0.5536   -1.4650 H   0  0  0  0  0  0  0  0  0  0  0  0
  1  2  1  0
  2  3  1  0
  3  4  1  0
  4  5  1  0
  4  6  1  0
  6  7  2  0
  7  8  1  0
  8  9  1  0
  9  2  1  0
  9  4  1  0
  1 10  1  0
  1 11  1  0
  1 12  1  0
  2 13  1  0
  5 14  1  0
  5 15  1  0
  5 16  1  0
  6 17  1  0
  7 18  1  0
  8 19  1  0
  8 20  1  0
  9 21  1  0
M  END
