
     RDKit          3D

 17 18  0  0  0  0  0  0  0  0999 V2000
   -2.2256   -0.3431   -0.6170 C   0  0  0  0  0  0  0  0  0  0  0  0
   -0.9124   -0.5073    0.1523 C   0  0  0  0  0  0  0  0  0  0  0  0
    0.1452   -0.6939   -0.7260 O   0  0  0  0  0  0  0  0  0  0  0  0
    1.2358   -0.3058    0.0130 C   0  0  0  0  0  0  0  0  0  0  0  0
    2.4877   -0.3933   -0.7218 C   0  0  0  0  0  0  0  0  0  0  0  0
    3.5674   -0.0999   -0.2600 O   0  0  0  0  0  0  0  0  0  0  0  0
    0.8628    1.0574    0.4952 C   0  0  0  0  0  0  0  0  0  0  0  0
   -0.1429    1.7866   -0.0742 O   0  0  0  0  0  0  0  0  0  0  0  0
   -0.6314    0.8468    0.7841 C   0  0  0  0  0  0  0  0  0  0  0  0
   -2.9287    0.1420    0.1012 H   0  0  0  0  0  0  0  0  0  0  0  0
   -2.6519   -1.3198   -0.8943 H   0  0  0  0  0  0  0  0  0  0  0  0
   -1.9956    0.3131   -1.4696 H   0  0  0  0  0  0  0  0  0  0  0  0
   -1.0196   -1.3013    0.8994 H   0  0  0  0  0  0  0  0  0  0  0  0
    1.3206   -0.9621    0.9272 H   0  0  0  0  0  0  0  0  0  0  0  0
    2.4622   -0.7402   -1.7428 H   0  0  0  0  0  0  0  0  0  0  0  0
    1.4271    1.4511    1.3510 H   0  0  0  0  0  0  0  0  0  0  0  0
   -1.0009    1.0697    1.7822 H   0  0  0  0  0  0  0  0  0  0  0  0
  1  2  1  0
  2  3  1  0
  3  4  1  0
  4  5  1  0
  5  6  2  0
  4  7  1  0
  7  8  1  0
  8  9  1  0
  9  2  1  0
  9  7  1  0
  1 10  1  0
  1 11  1  0
  1 12  1  0
  2 13  1  0
  4 14  1  0
  5 15  1  0
  7 16  1  0
  9 17  1  0
M  END
