
     RDKit          3D

 21 22  0  0  0  0  0  0  0  0999 V2000
   -0.3166   -1.8899    0.7624 C   0  0  0  0  0  0  0  0  0  0  0  0
   -0.7052   -0.4444    0.7972 C   0  0  0  0  0  0  0  0  0  0  0  0
   -1.9896   -0.3390    0.2832 O   0  0  0  0  0  0  0  0  0  0  0  0
   -2.1600    0.9116   -0.2350 C   0  0  0  0  0  0  0  0  0  0  0  0
   -0.8570    1.6692   -0.0869 C   0  0  0  0  0  0  0  0  0  0  0  0
    0.0961    0.4858    0.0229 C   0  0  0  0  0  0  0  0  0  0  0  0
    0.3000   -0.0292   -1.3603 O   0  0  0  0  0  0  0  0  0  0  0  0
    1.3486    0.5697   -0.4889 C   0  0  0  0  0  0  0  0  0  0  0  0
    2.5054   -0.3938   -0.4033 C   0  0  0  0  0  0  0  0  0  0  0  0
   -1.1917   -2.4670    1.1614 H   0  0  0  0  0  0  0  0  0  0  0  0
   -0.1791   -2.2607   -0.2813 H   0  0  0  0  0  0  0  0  0  0  0  0
    0.5336   -2.1407    1.4149 H   0  0  0  0  0  0  0  0  0  0  0  0
   -0.7603   -0.1386    1.8617 H   0  0  0  0  0  0  0  0  0  0  0  0
   -2.3426    0.8427   -1.3466 H   0  0  0  0  0  0  0  0  0  0  0  0
   -3.0229    1.4699    0.1651 H   0  0  0  0  0  0  0  0  0  0  0  0
   -0.8598    2.2387    0.8644 H   0  0  0  0  0  0  0  0  0  0  0  0
   -0.6313    2.3005   -0.9593 H   0  0  0  0  0  0  0  0  0  0  0  0
    1.6703    1.5197   -1.0109 H   0  0  0  0  0  0  0  0  0  0  0  0
    2.5938   -1.0330   -1.3251 H   0  0  0  0  0  0  0  0  0  0  0  0
    2.4733   -1.0140    0.5174 H   0  0  0  0  0  0  0  0  0  0  0  0
    3.4951    0.1425   -0.3531 H   0  0  0  0  0  0  0  0  0  0  0  0
  1  2  1  0
  2  3  1  0
  3  4  1  0
  4  5  1  0
  5  6  1  0
  6  7  1  0
  7  8  1  0
  8  9  1  0
  6  2  1  0
  8  6  1  0
  1 10  1  0
  1 11  1  0
  1 12  1  0
  2 13  1  0
  4 14  1  0
  4 15  1  0
  5 16  1  0
  5 17  1  0
  8 18  1  0
  9 19  1  0
  9 20  1  0
  9 21  1  0
M  END
