
     RDKit          3D

 17 18  0  0  0  0  0  0  0  0999 V2000
    1.8236   -0.6340   -0.1891 C   0  0  0  0  0  0  0  0  0  0  0  0
    0.8417    0.2870    0.4334 C   0  0  0  0  0  0  0  0  0  0  0  0
    0.9526    1.5498   -0.1839 O   0  0  0  0  0  0  0  0  0  0  0  0
   -0.2827    2.1172   -0.3934 C   0  0  0  0  0  0  0  0  0  0  0  0
   -0.5359    3.3139   -0.7065 O   0  0  0  0  0  0  0  0  0  0  0  0
   -1.3097    1.0739   -0.1886 C   0  0  0  0  0  0  0  0  0  0  0  0
   -1.4578    0.6541    1.1108 O   0  0  0  0  0  0  0  0  0  0  0  0
   -0.5860   -0.1028    0.2787 C   0  0  0  0  0  0  0  0  0  0  0  0
   -1.0398   -1.5025    0.1132 C   0  0  0  0  0  0  0  0  0  0  0  0
    1.5687   -1.6899   -0.0845 H   0  0  0  0  0  0  0  0  0  0  0  0
    1.9845   -0.3852   -1.2794 H   0  0  0  0  0  0  0  0  0  0  0  0
    2.8314   -0.4207    0.2768 H   0  0  0  0  0  0  0  0  0  0  0  0
    1.0508    0.3842    1.5289 H   0  0  0  0  0  0  0  0  0  0  0  0
   -2.1026    0.9193   -0.9362 H   0  0  0  0  0  0  0  0  0  0  0  0
   -1.2579   -1.9674    1.1188 H   0  0  0  0  0  0  0  0  0  0  0  0
   -2.0579   -1.4643   -0.3760 H   0  0  0  0  0  0  0  0  0  0  0  0
   -0.4229   -2.1325   -0.5228 H   0  0  0  0  0  0  0  0  0  0  0  0
  1  2  1  0
  2  3  1  0
  3  4  1  0
  4  5  2  0
  4  6  1  0
  6  7  1  0
  7  8  1  0
  8  9  1  0
  8  2  1  0
  8  6  1  0
  1 10  1  0
  1 11  1  0
  1 12  1  0
  2 13  1  0
  6 14  1  0
  9 15  1  0
  9 16  1  0
  9 17  1  0
M  END
