
     RDKit          3D

 16 18  0  0  0  0  0  0  0  0999 V2000
    2.1708    0.3765   -0.3341 C   0  0  0  0  0  0  0  0  0  0  0  0
    0.9288   -0.4589   -0.6783 C   0  0  0  0  0  0  0  0  0  0  0  0
    0.7954   -1.4417    0.4597 O   0  0  0  0  0  0  0  0  0  0  0  0
   -0.1427   -0.5247    0.1087 C   0  0  0  0  0  0  0  0  0  0  0  0
   -1.5803   -0.7815   -0.0137 C   0  0  0  0  0  0  0  0  0  0  0  0
   -1.7845    0.6997   -0.0544 C   0  0  0  0  0  0  0  0  0  0  0  0
   -0.8137    0.3964    1.0451 C   0  0  0  0  0  0  0  0  0  0  0  0
   -1.6420   -0.6668    1.3816 O   0  0  0  0  0  0  0  0  0  0  0  0
    3.0505   -0.3309   -0.3047 H   0  0  0  0  0  0  0  0  0  0  0  0
    2.3662    1.1376   -1.0865 H   0  0  0  0  0  0  0  0  0  0  0  0
    2.0866    0.7662    0.6991 H   0  0  0  0  0  0  0  0  0  0  0  0
    1.0699   -0.9937   -1.6463 H   0  0  0  0  0  0  0  0  0  0  0  0
   -2.0746   -1.4754   -0.5565 H   0  0  0  0  0  0  0  0  0  0  0  0
   -2.7586    1.0912    0.2152 H   0  0  0  0  0  0  0  0  0  0  0  0
   -1.2651    1.1456   -0.9228 H   0  0  0  0  0  0  0  0  0  0  0  0
   -0.4067    1.0602    1.6880 H   0  0  0  0  0  0  0  0  0  0  0  0
  1  2  1  0
  2  3  1  0
  3  4  1  0
  4  5  1  0
  5  6  1  0
  6  7  1  0
  7  8  1  0
  4  2  1  0
  8  5  1  0
  7  4  1  0
  1  9  1  0
  1 10  1  0
  1 11  1  0
  2 12  1  0
  5 13  1  0
  6 14  1  0
  6 15  1  0
  7 16  1  0
M  END
