
     RDKit          3D

 17 18  0  0  0  0  0  0  0  0999 V2000
    2.1760    0.2444   -0.8661 C   0  0  0  0  0  0  0  0  0  0  0  0
    1.4103   -0.3750    0.3096 C   0  0  0  0  0  0  0  0  0  0  0  0
    0.5849   -1.5113   -0.0506 O   0  0  0  0  0  0  0  0  0  0  0  0
    0.0063   -0.3212    0.3068 C   0  0  0  0  0  0  0  0  0  0  0  0
   -0.9219   -0.1999    1.4646 C   0  0  0  0  0  0  0  0  0  0  0  0
   -2.1818    0.0667    1.0182 O   0  0  0  0  0  0  0  0  0  0  0  0
   -2.1890    0.1961   -0.3394 C   0  0  0  0  0  0  0  0  0  0  0  0
   -0.7615    0.3707   -0.7833 C   0  0  0  0  0  0  0  0  0  0  0  0
   -0.3701    0.9313   -1.7720 O   0  0  0  0  0  0  0  0  0  0  0  0
    1.7969    1.2824   -0.9653 H   0  0  0  0  0  0  0  0  0  0  0  0
    2.0493   -0.3641   -1.7607 H   0  0  0  0  0  0  0  0  0  0  0  0
    3.2450    0.3473   -0.5495 H   0  0  0  0  0  0  0  0  0  0  0  0
    1.9801   -0.6161    1.2189 H   0  0  0  0  0  0  0  0  0  0  0  0
   -0.8649   -1.0531    2.1789 H   0  0  0  0  0  0  0  0  0  0  0  0
   -0.5781    0.6916    2.0690 H   0  0  0  0  0  0  0  0  0  0  0  0
   -2.5889   -0.7426   -0.7784 H   0  0  0  0  0  0  0  0  0  0  0  0
   -2.7926    1.0531   -0.7005 H   0  0  0  0  0  0  0  0  0  0  0  0
  1  2  1  0
  2  3  1  0
  3  4  1  0
  4  5  1  0
  5  6  1  0
  6  7  1  0
  7  8  1  0
  8  9  2  0
  4  2  1  0
  8  4  1  0
  1 10  1  0
  1 11  1  0
  1 12  1  0
  2 13  1  0
  5 14  1  0
  5 15  1  0
  7 16  1  0
  7 17  1  0
M  END
