
     RDKit          3D

 21 22  0  0  0  0  0  0  0  0999 V2000
   -2.4547    1.0143    0.1063 C   0  0  0  0  0  0  0  0  0  0  0  0
   -1.4462    0.0278    0.6529 C   0  0  0  0  0  0  0  0  0  0  0  0
   -1.8889   -1.2667    0.5391 O   0  0  0  0  0  0  0  0  0  0  0  0
   -1.2919   -1.3355   -0.7072 C   0  0  0  0  0  0  0  0  0  0  0  0
   -0.2922   -0.2704   -0.2744 C   0  0  0  0  0  0  0  0  0  0  0  0
    0.9165   -0.8173    0.4241 C   0  0  0  0  0  0  0  0  0  0  0  0
    1.4832    0.0762    1.4438 O   0  0  0  0  0  0  0  0  0  0  0  0
    2.2491   -0.3305    0.2359 C   0  0  0  0  0  0  0  0  0  0  0  0
    2.6027    0.8699   -0.5741 C   0  0  0  0  0  0  0  0  0  0  0  0
   -2.4997    1.8874    0.7791 H   0  0  0  0  0  0  0  0  0  0  0  0
   -3.4474    0.5383   -0.0301 H   0  0  0  0  0  0  0  0  0  0  0  0
   -2.1071    1.3451   -0.8910 H   0  0  0  0  0  0  0  0  0  0  0  0
   -1.0590    0.2817    1.6599 H   0  0  0  0  0  0  0  0  0  0  0  0
   -1.9552   -1.0511   -1.5261 H   0  0  0  0  0  0  0  0  0  0  0  0
   -0.7399   -2.2900   -0.8731 H   0  0  0  0  0  0  0  0  0  0  0  0
   -0.1363    0.4814   -1.0462 H   0  0  0  0  0  0  0  0  0  0  0  0
    0.7847   -1.8274    0.8681 H   0  0  0  0  0  0  0  0  0  0  0  0
    3.0978   -0.9428    0.5904 H   0  0  0  0  0  0  0  0  0  0  0  0
    1.8414    1.1223   -1.3475 H   0  0  0  0  0  0  0  0  0  0  0  0
    2.7603    1.7839    0.0696 H   0  0  0  0  0  0  0  0  0  0  0  0
    3.5828    0.7037   -1.0739 H   0  0  0  0  0  0  0  0  0  0  0  0
  1  2  1  0
  2  3  1  0
  3  4  1  0
  4  5  1  0
  5  6  1  0
  6  7  1  0
  7  8  1  0
  8  9  1  0
  5  2  1  0
  8  6  1  0
  1 10  1  0
  1 11  1  0
  1 12  1  0
  2 13  1  0
  4 14  1  0
  4 15  1  0
  5 16  1  0
  6 17  1  0
  8 18  1  0
  9 19  1  0
  9 20  1  0
  9 21  1  0
M  END
