
     RDKit          3D

 17 17  0  0  0  0  0  0  0  0999 V2000
    1.9597    0.1005   -0.1673 C   0  0  0  0  0  0  0  0  0  0  0  0
    0.7577   -0.2786    0.6170 C   0  0  0  0  0  0  0  0  0  0  0  0
    0.4074    0.5912    1.6895 O   0  0  0  0  0  0  0  0  0  0  0  0
   -0.9138    0.1437    1.4910 C   0  0  0  0  0  0  0  0  0  0  0  0
   -1.9211   -0.1145    2.1960 O   0  0  0  0  0  0  0  0  0  0  0  0
   -0.5812    0.1107    0.0390 C   0  0  0  0  0  0  0  0  0  0  0  0
   -1.1705   -1.0300   -0.7319 C   0  0  0  0  0  0  0  0  0  0  0  0
   -0.6855    1.4437   -0.5449 C   0  0  0  0  0  0  0  0  0  0  0  0
   -1.7829    1.9516   -0.6792 O   0  0  0  0  0  0  0  0  0  0  0  0
    2.5740   -0.8377   -0.3004 H   0  0  0  0  0  0  0  0  0  0  0  0
    2.5910    0.8215    0.3465 H   0  0  0  0  0  0  0  0  0  0  0  0
    1.7274    0.4194   -1.2190 H   0  0  0  0  0  0  0  0  0  0  0  0
    0.7082   -1.3204    1.0017 H   0  0  0  0  0  0  0  0  0  0  0  0
   -1.4551   -1.8803   -0.0895 H   0  0  0  0  0  0  0  0  0  0  0  0
   -0.3724   -1.4143   -1.4129 H   0  0  0  0  0  0  0  0  0  0  0  0
   -2.0109   -0.7261   -1.3633 H   0  0  0  0  0  0  0  0  0  0  0  0
    0.1680    2.0198   -0.8722 H   0  0  0  0  0  0  0  0  0  0  0  0
  1  2  1  0
  2  3  1  0
  3  4  1  0
  4  5  2  0
  4  6  1  0
  6  7  1  0
  6  8  1  0
  8  9  2  0
  6  2  1  0
  1 10  1  0
  1 11  1  0
  1 12  1  0
  2 13  1  0
  7 14  1  0
  7 15  1  0
  7 16  1  0
  8 17  1  0
M  END
