
     RDKit          3D

 17 18  0  0  0  0  0  0  0  0999 V2000
    2.1538   -0.0912   -0.1065 C   0  0  0  0  0  0  0  0  0  0  0  0
    0.7000    0.0089   -0.4712 C   0  0  0  0  0  0  0  0  0  0  0  0
    0.1586   -1.2436   -0.7431 O   0  0  0  0  0  0  0  0  0  0  0  0
   -1.1809   -1.2001   -0.4077 C   0  0  0  0  0  0  0  0  0  0  0  0
   -1.2617   -0.3359    0.8113 C   0  0  0  0  0  0  0  0  0  0  0  0
   -2.1192    0.7829    0.7233 O   0  0  0  0  0  0  0  0  0  0  0  0
   -1.1847    1.5289    0.0301 C   0  0  0  0  0  0  0  0  0  0  0  0
   -1.1518    2.5180   -0.7447 O   0  0  0  0  0  0  0  0  0  0  0  0
   -0.1350    0.6468    0.5916 C   0  0  0  0  0  0  0  0  0  0  0  0
    2.3956   -1.1254    0.1959 H   0  0  0  0  0  0  0  0  0  0  0  0
    2.4299    0.6575    0.6752 H   0  0  0  0  0  0  0  0  0  0  0  0
    2.7979    0.1316   -0.9864 H   0  0  0  0  0  0  0  0  0  0  0  0
    0.6355    0.5910   -1.4348 H   0  0  0  0  0  0  0  0  0  0  0  0
   -1.8126   -0.7154   -1.1967 H   0  0  0  0  0  0  0  0  0  0  0  0
   -1.5174   -2.2343   -0.1834 H   0  0  0  0  0  0  0  0  0  0  0  0
   -1.2586   -0.8913    1.7420 H   0  0  0  0  0  0  0  0  0  0  0  0
    0.3507    0.9715    1.5053 H   0  0  0  0  0  0  0  0  0  0  0  0
  1  2  1  0
  2  3  1  0
  3  4  1  0
  4  5  1  0
  5  6  1  0
  6  7  1  0
  7  8  2  0
  7  9  1  0
  9  2  1  0
  9  5  1  0
  1 10  1  0
  1 11  1  0
  1 12  1  0
  2 13  1  0
  4 14  1  0
  4 15  1  0
  5 16  1  0
  9 17  1  0
M  END
