
     RDKit          3D

 17 17  0  0  0  0  0  0  0  0999 V2000
   -0.8380   -1.7767   -0.0188 C   0  0  0  0  0  0  0  0  0  0  0  0
   -0.8868   -0.3062    0.2300 C   0  0  0  0  0  0  0  0  0  0  0  0
   -1.2358    0.4180   -0.9114 O   0  0  0  0  0  0  0  0  0  0  0  0
   -0.8435    1.7318   -0.7087 C   0  0  0  0  0  0  0  0  0  0  0  0
   -1.2767    2.7529   -1.2669 O   0  0  0  0  0  0  0  0  0  0  0  0
    0.2105    1.7406    0.3124 C   0  0  0  0  0  0  0  0  0  0  0  0
    0.8050    2.6901    0.8478 O   0  0  0  0  0  0  0  0  0  0  0  0
    0.4492    0.2885    0.6059 C   0  0  0  0  0  0  0  0  0  0  0  0
    1.5743   -0.1972   -0.2408 C   0  0  0  0  0  0  0  0  0  0  0  0
   -0.8728   -1.9794   -1.1189 H   0  0  0  0  0  0  0  0  0  0  0  0
    0.0149   -2.2910    0.4324 H   0  0  0  0  0  0  0  0  0  0  0  0
   -1.7910   -2.2103    0.4016 H   0  0  0  0  0  0  0  0  0  0  0  0
   -1.6056   -0.0446    1.0507 H   0  0  0  0  0  0  0  0  0  0  0  0
    0.6106    0.1457    1.6942 H   0  0  0  0  0  0  0  0  0  0  0  0
    2.1985    0.6872   -0.5500 H   0  0  0  0  0  0  0  0  0  0  0  0
    1.2659   -0.7655   -1.1351 H   0  0  0  0  0  0  0  0  0  0  0  0
    2.2212   -0.8839    0.3755 H   0  0  0  0  0  0  0  0  0  0  0  0
  1  2  1  0
  2  3  1  0
  3  4  1  0
  4  5  2  0
  4  6  1  0
  6  7  2  0
  6  8  1  0
  8  9  1  0
  8  2  1  0
  1 10  1  0
  1 11  1  0
  1 12  1  0
  2 13  1  0
  8 14  1  0
  9 15  1  0
  9 16  1  0
  9 17  1  0
M  END
