
     RDKit          3D

 19 20  0  0  0  0  0  0  0  0999 V2000
    2.5651   -0.4989   -0.4283 C   0  0  0  0  0  0  0  0  0  0  0  0
    1.4809    0.0739    0.4463 C   0  0  0  0  0  0  0  0  0  0  0  0
    1.6328    1.4748    0.5506 O   0  0  0  0  0  0  0  0  0  0  0  0
    0.2279    1.5026    0.6878 C   0  0  0  0  0  0  0  0  0  0  0  0
   -0.4492    2.2776    1.3932 O   0  0  0  0  0  0  0  0  0  0  0  0
    0.1797    0.3766   -0.2539 C   0  0  0  0  0  0  0  0  0  0  0  0
   -0.9281   -0.5800   -0.0076 C   0  0  0  0  0  0  0  0  0  0  0  0
   -2.2527   -0.4322   -0.6446 C   0  0  0  0  0  0  0  0  0  0  0  0
   -2.0534   -0.1144    0.8540 C   0  0  0  0  0  0  0  0  0  0  0  0
    2.8514    0.2673   -1.1921 H   0  0  0  0  0  0  0  0  0  0  0  0
    2.3400   -1.4783   -0.8440 H   0  0  0  0  0  0  0  0  0  0  0  0
    3.4680   -0.6119    0.2172 H   0  0  0  0  0  0  0  0  0  0  0  0
    1.3068   -0.4747    1.3723 H   0  0  0  0  0  0  0  0  0  0  0  0
    0.2754    0.7476   -1.2918 H   0  0  0  0  0  0  0  0  0  0  0  0
   -0.5964   -1.6479    0.1612 H   0  0  0  0  0  0  0  0  0  0  0  0
   -2.8505   -1.3524   -0.8480 H   0  0  0  0  0  0  0  0  0  0  0  0
   -2.4578    0.4089   -1.3279 H   0  0  0  0  0  0  0  0  0  0  0  0
   -2.4804   -0.8668    1.5660 H   0  0  0  0  0  0  0  0  0  0  0  0
   -2.2596    0.9280    1.0924 H   0  0  0  0  0  0  0  0  0  0  0  0
  1  2  1  0
  2  3  1  0
  3  4  1  0
  4  5  2  0
  4  6  1  0
  6  7  1  0
  7  8  1  0
  8  9  1  0
  6  2  1  0
  9  7  1  0
  1 10  1  0
  1 11  1  0
  1 12  1  0
  2 13  1  0
  6 14  1  0
  7 15  1  0
  8 16  1  0
  8 17  1  0
  9 18  1  0
  9 19  1  0
M  END
