
     RDKit          3D

 19 20  0  0  0  0  0  0  0  0999 V2000
    2.5331   -0.2217    0.1726 C   0  0  0  0  0  0  0  0  0  0  0  0
    1.1690   -0.3198   -0.4305 C   0  0  0  0  0  0  0  0  0  0  0  0
    0.4646   -1.3889    0.1526 O   0  0  0  0  0  0  0  0  0  0  0  0
   -0.4373   -0.5262    0.7500 C   0  0  0  0  0  0  0  0  0  0  0  0
   -1.8184   -0.7469    0.1890 C   0  0  0  0  0  0  0  0  0  0  0  0
   -2.1157    0.4395   -0.6741 C   0  0  0  0  0  0  0  0  0  0  0  0
   -3.2244    0.7316   -1.0345 O   0  0  0  0  0  0  0  0  0  0  0  0
   -0.8504    1.1255   -0.9679 C   0  0  0  0  0  0  0  0  0  0  0  0
    0.1441    0.6611    0.0641 C   0  0  0  0  0  0  0  0  0  0  0  0
    2.5552    0.4133    1.0789 H   0  0  0  0  0  0  0  0  0  0  0  0
    2.8552   -1.2448    0.5229 H   0  0  0  0  0  0  0  0  0  0  0  0
    3.2644    0.0832   -0.5921 H   0  0  0  0  0  0  0  0  0  0  0  0
    1.1888   -0.4824   -1.5299 H   0  0  0  0  0  0  0  0  0  0  0  0
   -0.3565   -0.5350    1.8503 H   0  0  0  0  0  0  0  0  0  0  0  0
   -2.5407   -0.8766    1.0019 H   0  0  0  0  0  0  0  0  0  0  0  0
   -1.8575   -1.6391   -0.4841 H   0  0  0  0  0  0  0  0  0  0  0  0
   -0.4354    0.8352   -1.9653 H   0  0  0  0  0  0  0  0  0  0  0  0
   -1.0369    2.2183   -0.9229 H   0  0  0  0  0  0  0  0  0  0  0  0
    0.4989    1.4736    0.7040 H   0  0  0  0  0  0  0  0  0  0  0  0
  1  2  1  0
  2  3  1  0
  3  4  1  0
  4  5  1  0
  5  6  1  0
  6  7  2  0
  6  8  1  0
  8  9  1  0
  9  2  1  0
  9  4  1  0
  1 10  1  0
  1 11  1  0
  1 12  1  0
  2 13  1  0
  4 14  1  0
  5 15  1  0
  5 16  1  0
  8 17  1  0
  8 18  1  0
  9 19  1  0
M  END
