
     RDKit          3D

 19 19  0  0  0  0  0  0  0  0999 V2000
    2.6000    0.1619   -0.2810 C   0  0  0  0  0  0  0  0  0  0  0  0
    1.1277    0.0028   -0.3926 C   0  0  0  0  0  0  0  0  0  0  0  0
    0.5984   -0.9144    0.5388 O   0  0  0  0  0  0  0  0  0  0  0  0
   -0.6142   -1.3953    0.0706 C   0  0  0  0  0  0  0  0  0  0  0  0
   -1.7987   -0.8108    0.7881 C   0  0  0  0  0  0  0  0  0  0  0  0
   -2.0052    0.5658    0.2841 C   0  0  0  0  0  0  0  0  0  0  0  0
   -1.0635    1.4068   -0.1102 C   0  0  0  0  0  0  0  0  0  0  0  0
    0.3955    1.2782   -0.1797 C   0  0  0  0  0  0  0  0  0  0  0  0
    1.0471    2.3426   -0.0458 O   0  0  0  0  0  0  0  0  0  0  0  0
    2.8935    0.8675    0.5096 H   0  0  0  0  0  0  0  0  0  0  0  0
    2.9816    0.4787   -1.2922 H   0  0  0  0  0  0  0  0  0  0  0  0
    3.0482   -0.8400   -0.0486 H   0  0  0  0  0  0  0  0  0  0  0  0
    0.8784   -0.4378   -1.3957 H   0  0  0  0  0  0  0  0  0  0  0  0
   -0.5982   -2.5049    0.2524 H   0  0  0  0  0  0  0  0  0  0  0  0
   -0.7644   -1.2494   -1.0054 H   0  0  0  0  0  0  0  0  0  0  0  0
   -2.6846   -1.4627    0.6464 H   0  0  0  0  0  0  0  0  0  0  0  0
   -1.5440   -0.8063    1.8803 H   0  0  0  0  0  0  0  0  0  0  0  0
   -3.0381    0.9439    0.2248 H   0  0  0  0  0  0  0  0  0  0  0  0
   -1.4596    2.3734   -0.4437 H   0  0  0  0  0  0  0  0  0  0  0  0
  1  2  1  0
  2  3  1  0
  3  4  1  0
  4  5  1  0
  5  6  1  0
  6  7  2  0
  7  8  1  0
  8  9  2  0
  8  2  1  0
  1 10  1  0
  1 11  1  0
  1 12  1  0
  2 13  1  0
  4 14  1  0
  4 15  1  0
  5 16  1  0
  5 17  1  0
  6 18  1  0
  7 19  1  0
M  END
