
     RDKit          3D

 23 24  0  0  0  0  0  0  0  0999 V2000
   -1.4236    1.7577   -0.1142 C   0  0  0  0  0  0  0  0  0  0  0  0
   -1.1132    0.3383   -0.6091 C   0  0  0  0  0  0  0  0  0  0  0  0
   -2.0962   -0.4784   -0.0989 O   0  0  0  0  0  0  0  0  0  0  0  0
   -1.5418   -1.6352    0.3530 C   0  0  0  0  0  0  0  0  0  0  0  0
   -0.0608   -1.5289    0.3442 C   0  0  0  0  0  0  0  0  0  0  0  0
    0.1997   -0.1343   -0.1266 C   0  0  0  0  0  0  0  0  0  0  0  0
    0.9441    0.7629    0.8371 C   0  0  0  0  0  0  0  0  0  0  0  0
    2.2317    0.2326    0.1876 C   0  0  0  0  0  0  0  0  0  0  0  0
    1.3704   -0.0315   -1.0559 C   0  0  0  0  0  0  0  0  0  0  0  0
   -1.1707    1.7943    0.9744 H   0  0  0  0  0  0  0  0  0  0  0  0
   -2.5365    1.8813   -0.1514 H   0  0  0  0  0  0  0  0  0  0  0  0
   -0.9064    2.5129   -0.7119 H   0  0  0  0  0  0  0  0  0  0  0  0
   -1.1577    0.3353   -1.7270 H   0  0  0  0  0  0  0  0  0  0  0  0
   -1.9096   -2.4709   -0.3043 H   0  0  0  0  0  0  0  0  0  0  0  0
   -1.8934   -1.8419    1.4008 H   0  0  0  0  0  0  0  0  0  0  0  0
    0.3306   -2.2470   -0.4269 H   0  0  0  0  0  0  0  0  0  0  0  0
    0.4383   -1.7712    1.2871 H   0  0  0  0  0  0  0  0  0  0  0  0
    0.8255    1.8355    0.5570 H   0  0  0  0  0  0  0  0  0  0  0  0
    0.8296    0.5152    1.8940 H   0  0  0  0  0  0  0  0  0  0  0  0
    2.9728    1.0276    0.0703 H   0  0  0  0  0  0  0  0  0  0  0  0
    2.5664   -0.6890    0.7033 H   0  0  0  0  0  0  0  0  0  0  0  0
    1.3788    0.8058   -1.7634 H   0  0  0  0  0  0  0  0  0  0  0  0
    1.7224   -0.9710   -1.5191 H   0  0  0  0  0  0  0  0  0  0  0  0
  1  2  1  0
  2  3  1  0
  3  4  1  0
  4  5  1  0
  5  6  1  0
  6  7  1  0
  7  8  1  0
  8  9  1  0
  6  2  1  0
  9  6  1  0
  1 10  1  0
  1 11  1  0
  1 12  1  0
  2 13  1  0
  4 14  1  0
  4 15  1  0
  5 16  1  0
  5 17  1  0
  7 18  1  0
  7 19  1  0
  8 20  1  0
  8 21  1  0
  9 22  1  0
  9 23  1  0
M  END
