
     RDKit          3D

 21 22  0  0  0  0  0  0  0  0999 V2000
   -1.6291   -1.6209    0.0773 C   0  0  0  0  0  0  0  0  0  0  0  0
   -0.9923   -0.2811   -0.0513 C   0  0  0  0  0  0  0  0  0  0  0  0
   -0.6299    0.2613    1.2093 O   0  0  0  0  0  0  0  0  0  0  0  0
    0.7012    0.5201    1.0425 C   0  0  0  0  0  0  0  0  0  0  0  0
    0.8148    1.1259   -0.3665 C   0  0  0  0  0  0  0  0  0  0  0  0
   -0.1594    2.2095   -0.6633 C   0  0  0  0  0  0  0  0  0  0  0  0
    0.3262   -0.2804   -0.7440 C   0  0  0  0  0  0  0  0  0  0  0  0
    1.2639   -0.7381    0.3568 C   0  0  0  0  0  0  0  0  0  0  0  0
    0.9326   -1.9159    0.9785 O   0  0  0  0  0  0  0  0  0  0  0  0
   -2.6662   -1.6277   -0.3472 H   0  0  0  0  0  0  0  0  0  0  0  0
   -1.0806   -2.4374   -0.4426 H   0  0  0  0  0  0  0  0  0  0  0  0
   -1.7541   -1.8367    1.1717 H   0  0  0  0  0  0  0  0  0  0  0  0
   -1.6696    0.4096   -0.5917 H   0  0  0  0  0  0  0  0  0  0  0  0
    1.2914    0.9575    1.8077 H   0  0  0  0  0  0  0  0  0  0  0  0
    1.8623    1.3206   -0.5865 H   0  0  0  0  0  0  0  0  0  0  0  0
   -0.5450    2.0999   -1.7191 H   0  0  0  0  0  0  0  0  0  0  0  0
   -1.0168    2.2744    0.0140 H   0  0  0  0  0  0  0  0  0  0  0  0
    0.3831    3.1825   -0.6004 H   0  0  0  0  0  0  0  0  0  0  0  0
    0.4584   -0.6130   -1.7285 H   0  0  0  0  0  0  0  0  0  0  0  0
    2.3135   -0.5900    0.0655 H   0  0  0  0  0  0  0  0  0  0  0  0
    1.7957   -2.4202    1.1179 H   0  0  0  0  0  0  0  0  0  0  0  0
  1  2  1  0
  2  3  1  0
  3  4  1  0
  4  5  1  0
  5  6  1  0
  5  7  1  0
  7  8  1  0
  8  9  1  0
  7  2  1  0
  8  4  1  0
  1 10  1  0
  1 11  1  0
  1 12  1  0
  2 13  1  0
  4 14  1  0
  5 15  1  0
  6 16  1  0
  6 17  1  0
  6 18  1  0
  7 19  1  0
  8 20  1  0
  9 21  1  0
M  END
