
     RDKit          3D

 14 14  0  0  0  0  0  0  0  0999 V2000
    1.9869    0.2900   -0.3480 C   0  0  0  0  0  0  0  0  0  0  0  0
    0.5543    0.3368    0.0982 C   0  0  0  0  0  0  0  0  0  0  0  0
   -0.2969    0.7455   -0.9458 O   0  0  0  0  0  0  0  0  0  0  0  0
   -1.5373    0.3755   -0.3774 C   0  0  0  0  0  0  0  0  0  0  0  0
   -1.2069   -1.0433    0.0668 C   0  0  0  0  0  0  0  0  0  0  0  0
    0.0892   -0.8932    0.5276 O   0  0  0  0  0  0  0  0  0  0  0  0
    2.0919   -0.2542   -1.3002 H   0  0  0  0  0  0  0  0  0  0  0  0
    2.4070    1.3190   -0.3782 H   0  0  0  0  0  0  0  0  0  0  0  0
    2.5503   -0.2833    0.4355 H   0  0  0  0  0  0  0  0  0  0  0  0
    0.4428    1.1224    0.8915 H   0  0  0  0  0  0  0  0  0  0  0  0
   -2.3591    0.4290   -1.0837 H   0  0  0  0  0  0  0  0  0  0  0  0
   -1.6455    0.9728    0.5368 H   0  0  0  0  0  0  0  0  0  0  0  0
   -1.9195   -1.3724    0.8412 H   0  0  0  0  0  0  0  0  0  0  0  0
   -1.1571   -1.7447   -0.8003 H   0  0  0  0  0  0  0  0  0  0  0  0
  1  2  1  0
  2  3  1  0
  3  4  1  0
  4  5  1  0
  5  6  1  0
  6  2  1  0
  1  7  1  0
  1  8  1  0
  1  9  1  0
  2 10  1  0
  4 11  1  0
  4 12  1  0
  5 13  1  0
  5 14  1  0
M  END
