
     RDKit          3D

 19 21  0  0  0  0  0  0  0  0999 V2000
    2.3468   -0.0601    0.4542 C   0  0  0  0  0  0  0  0  0  0  0  0
    0.8638   -0.1828    0.6235 C   0  0  0  0  0  0  0  0  0  0  0  0
    0.4180   -1.5139    0.3651 O   0  0  0  0  0  0  0  0  0  0  0  0
   -0.9452   -1.3192    0.1994 C   0  0  0  0  0  0  0  0  0  0  0  0
   -1.8532   -0.6818   -0.7283 C   0  0  0  0  0  0  0  0  0  0  0  0
   -2.2580    0.6858   -0.5959 O   0  0  0  0  0  0  0  0  0  0  0  0
   -1.1776    1.2595    0.1301 C   0  0  0  0  0  0  0  0  0  0  0  0
    0.0833    0.6346   -0.3911 C   0  0  0  0  0  0  0  0  0  0  0  0
   -0.5486   -0.5382   -1.1037 C   0  0  0  0  0  0  0  0  0  0  0  0
    2.5960    0.6565   -0.3516 H   0  0  0  0  0  0  0  0  0  0  0  0
    2.8588   -1.0264    0.3749 H   0  0  0  0  0  0  0  0  0  0  0  0
    2.7363    0.4173    1.4016 H   0  0  0  0  0  0  0  0  0  0  0  0
    0.5195    0.0137    1.6686 H   0  0  0  0  0  0  0  0  0  0  0  0
   -1.1917   -0.8142    1.1591 H   0  0  0  0  0  0  0  0  0  0  0  0
   -2.6031   -1.2610   -1.3109 H   0  0  0  0  0  0  0  0  0  0  0  0
   -1.1731    2.3354   -0.2146 H   0  0  0  0  0  0  0  0  0  0  0  0
   -1.3203    1.2161    1.2058 H   0  0  0  0  0  0  0  0  0  0  0  0
    0.6962    1.2690   -1.0169 H   0  0  0  0  0  0  0  0  0  0  0  0
   -0.0478   -1.0904   -1.8693 H   0  0  0  0  0  0  0  0  0  0  0  0
  1  2  1  0
  2  3  1  0
  3  4  1  0
  4  5  1  0
  5  6  1  0
  6  7  1  0
  7  8  1  0
  8  9  1  0
  8  2  1  0
  9  4  1  0
  9  5  1  0
  1 10  1  0
  1 11  1  0
  1 12  1  0
  2 13  1  0
  4 14  1  0
  5 15  1  0
  7 16  1  0
  7 17  1  0
  8 18  1  0
  9 19  1  0
M  END
