
     RDKit          3D

 19 20  0  0  0  0  0  0  0  0999 V2000
   -2.4539    0.0546    0.6171 C   0  0  0  0  0  0  0  0  0  0  0  0
   -1.4733    0.5548   -0.3843 C   0  0  0  0  0  0  0  0  0  0  0  0
   -0.6140    1.5155    0.1391 O   0  0  0  0  0  0  0  0  0  0  0  0
    0.4532    1.0154   -0.6040 C   0  0  0  0  0  0  0  0  0  0  0  0
    1.7186    0.9333    0.1957 C   0  0  0  0  0  0  0  0  0  0  0  0
    2.2038   -0.2352    0.5687 C   0  0  0  0  0  0  0  0  0  0  0  0
    1.4747   -1.4616    0.1825 C   0  0  0  0  0  0  0  0  0  0  0  0
    0.1030   -1.1622    0.3504 O   0  0  0  0  0  0  0  0  0  0  0  0
   -0.2713   -0.3100   -0.6497 C   0  0  0  0  0  0  0  0  0  0  0  0
   -3.1225    0.9224    0.8874 H   0  0  0  0  0  0  0  0  0  0  0  0
   -2.0045   -0.2735    1.5676 H   0  0  0  0  0  0  0  0  0  0  0  0
   -3.1285   -0.7038    0.1835 H   0  0  0  0  0  0  0  0  0  0  0  0
   -1.9772    0.8917   -1.3028 H   0  0  0  0  0  0  0  0  0  0  0  0
    0.5492    1.4701   -1.5948 H   0  0  0  0  0  0  0  0  0  0  0  0
    2.2165    1.8472    0.4551 H   0  0  0  0  0  0  0  0  0  0  0  0
    3.1049   -0.3048    1.1387 H   0  0  0  0  0  0  0  0  0  0  0  0
    1.7539   -2.3484    0.7988 H   0  0  0  0  0  0  0  0  0  0  0  0
    1.6747   -1.6372   -0.9084 H   0  0  0  0  0  0  0  0  0  0  0  0
   -0.2074   -0.7683   -1.6407 H   0  0  0  0  0  0  0  0  0  0  0  0
  1  2  1  0
  2  3  1  0
  3  4  1  0
  4  5  1  0
  5  6  2  0
  6  7  1  0
  7  8  1  0
  8  9  1  0
  9  2  1  0
  9  4  1  0
  1 10  1  0
  1 11  1  0
  1 12  1  0
  2 13  1  0
  4 14  1  0
  5 15  1  0
  6 16  1  0
  7 17  1  0
  7 18  1  0
  9 19  1  0
M  END
