
     RDKit          3D

 23 23  0  0  0  0  0  0  0  0999 V2000
    1.7075   -1.8894   -0.1253 C   0  0  0  0  0  0  0  0  0  0  0  0
    1.0167   -0.7824    0.6151 C   0  0  0  0  0  0  0  0  0  0  0  0
   -0.3091   -1.1134    0.9274 O   0  0  0  0  0  0  0  0  0  0  0  0
   -0.8647   -0.2165    0.0108 C   0  0  0  0  0  0  0  0  0  0  0  0
   -1.8908    0.6640    0.6285 C   0  0  0  0  0  0  0  0  0  0  0  0
   -1.3999   -0.9752   -1.1936 C   0  0  0  0  0  0  0  0  0  0  0  0
    0.4973    0.3522   -0.2017 C   0  0  0  0  0  0  0  0  0  0  0  0
    0.7858    1.6766    0.4387 C   0  0  0  0  0  0  0  0  0  0  0  0
    0.3157    2.7589   -0.2949 O   0  0  0  0  0  0  0  0  0  0  0  0
    1.7088   -1.7082   -1.2291 H   0  0  0  0  0  0  0  0  0  0  0  0
    1.1947   -2.8405    0.1415 H   0  0  0  0  0  0  0  0  0  0  0  0
    2.7869   -1.9947    0.1547 H   0  0  0  0  0  0  0  0  0  0  0  0
    1.5519   -0.5244    1.5364 H   0  0  0  0  0  0  0  0  0  0  0  0
   -2.1616    0.2934    1.6530 H   0  0  0  0  0  0  0  0  0  0  0  0
   -2.8168    0.6984   -0.0007 H   0  0  0  0  0  0  0  0  0  0  0  0
   -1.5762    1.7235    0.7458 H   0  0  0  0  0  0  0  0  0  0  0  0
   -0.6601   -1.6580   -1.6229 H   0  0  0  0  0  0  0  0  0  0  0  0
   -2.2699   -1.5827   -0.8384 H   0  0  0  0  0  0  0  0  0  0  0  0
   -1.7093   -0.2788   -2.0045 H   0  0  0  0  0  0  0  0  0  0  0  0
    0.8726    0.3097   -1.2315 H   0  0  0  0  0  0  0  0  0  0  0  0
    1.9059    1.7913    0.4731 H   0  0  0  0  0  0  0  0  0  0  0  0
    0.4397    1.7402    1.4775 H   0  0  0  0  0  0  0  0  0  0  0  0
    0.8749    3.5562   -0.0600 H   0  0  0  0  0  0  0  0  0  0  0  0
  1  2  1  0
  2  3  1  0
  3  4  1  0
  4  5  1  0
  4  6  1  0
  4  7  1  0
  7  8  1  0
  8  9  1  0
  7  2  1  0
  1 10  1  0
  1 11  1  0
  1 12  1  0
  2 13  1  0
  5 14  1  0
  5 15  1  0
  5 16  1  0
  6 17  1  0
  6 18  1  0
  6 19  1  0
  7 20  1  0
  8 21  1  0
  8 22  1  0
  9 23  1  0
M  END
