
     RDKit          3D

 21 23  0  0  0  0  0  0  0  0999 V2000
    2.4910    0.0784    1.1040 C   0  0  0  0  0  0  0  0  0  0  0  0
    1.3547    0.3828    0.1885 C   0  0  0  0  0  0  0  0  0  0  0  0
    0.2558    0.9322    0.7940 O   0  0  0  0  0  0  0  0  0  0  0  0
   -0.8925    0.4783    0.1812 C   0  0  0  0  0  0  0  0  0  0  0  0
   -1.9762    1.4655   -0.0514 C   0  0  0  0  0  0  0  0  0  0  0  0
   -1.3315   -0.8251    0.8666 C   0  0  0  0  0  0  0  0  0  0  0  0
   -0.3858   -1.5366   -0.0894 C   0  0  0  0  0  0  0  0  0  0  0  0
    0.8442   -0.8485   -0.5524 C   0  0  0  0  0  0  0  0  0  0  0  0
   -0.4903   -0.3857   -0.9678 C   0  0  0  0  0  0  0  0  0  0  0  0
    3.1669    0.9789    1.1695 H   0  0  0  0  0  0  0  0  0  0  0  0
    3.1372   -0.7325    0.7077 H   0  0  0  0  0  0  0  0  0  0  0  0
    2.1397   -0.1239    2.1372 H   0  0  0  0  0  0  0  0  0  0  0  0
    1.7284    1.1400   -0.5591 H   0  0  0  0  0  0  0  0  0  0  0  0
   -1.6854    2.1207   -0.9213 H   0  0  0  0  0  0  0  0  0  0  0  0
   -2.9411    0.9864   -0.2067 H   0  0  0  0  0  0  0  0  0  0  0  0
   -2.0306    2.1440    0.8277 H   0  0  0  0  0  0  0  0  0  0  0  0
   -1.0536   -0.9026    1.9165 H   0  0  0  0  0  0  0  0  0  0  0  0
   -2.3757   -1.0946    0.6008 H   0  0  0  0  0  0  0  0  0  0  0  0
   -0.5454   -2.5727   -0.3575 H   0  0  0  0  0  0  0  0  0  0  0  0
    1.4642   -1.3602   -1.2722 H   0  0  0  0  0  0  0  0  0  0  0  0
   -0.8740   -0.3250   -1.9552 H   0  0  0  0  0  0  0  0  0  0  0  0
  1  2  1  0
  2  3  1  0
  3  4  1  0
  4  5  1  0
  4  6  1  0
  6  7  1  0
  7  8  1  0
  8  9  1  0
  8  2  1  0
  9  4  1  0
  9  7  1  0
  1 10  1  0
  1 11  1  0
  1 12  1  0
  2 13  1  0
  5 14  1  0
  5 15  1  0
  5 16  1  0
  6 17  1  0
  6 18  1  0
  7 19  1  0
  8 20  1  0
  9 21  1  0
M  END
