
     RDKit          3D

 21 21  0  0  0  0  0  0  0  0999 V2000
   -1.2629   -1.6848   -0.0688 C   0  0  0  0  0  0  0  0  0  0  0  0
   -0.3485   -0.6785    0.5687 C   0  0  0  0  0  0  0  0  0  0  0  0
   -1.1744    0.2867    1.1797 O   0  0  0  0  0  0  0  0  0  0  0  0
   -1.5476    1.2443    0.2277 C   0  0  0  0  0  0  0  0  0  0  0  0
   -0.3466    2.0427   -0.2328 C   0  0  0  0  0  0  0  0  0  0  0  0
    0.7829    1.3017    0.0485 O   0  0  0  0  0  0  0  0  0  0  0  0
    0.5885   -0.0187   -0.3815 C   0  0  0  0  0  0  0  0  0  0  0  0
    1.9528   -0.6667   -0.4212 C   0  0  0  0  0  0  0  0  0  0  0  0
    2.5536   -0.6581    0.8354 O   0  0  0  0  0  0  0  0  0  0  0  0
   -0.7573   -2.5265   -0.5393 H   0  0  0  0  0  0  0  0  0  0  0  0
   -1.9010   -2.1016    0.7471 H   0  0  0  0  0  0  0  0  0  0  0  0
   -1.9663   -1.2407   -0.8004 H   0  0  0  0  0  0  0  0  0  0  0  0
    0.2285   -1.2131    1.3541 H   0  0  0  0  0  0  0  0  0  0  0  0
   -2.0396    0.8005   -0.6530 H   0  0  0  0  0  0  0  0  0  0  0  0
   -2.2452    1.9388    0.7572 H   0  0  0  0  0  0  0  0  0  0  0  0
   -0.3770    2.1854   -1.3441 H   0  0  0  0  0  0  0  0  0  0  0  0
   -0.2631    3.0144    0.2940 H   0  0  0  0  0  0  0  0  0  0  0  0
    0.1581    0.0317   -1.3864 H   0  0  0  0  0  0  0  0  0  0  0  0
    1.9128   -1.7291   -0.7412 H   0  0  0  0  0  0  0  0  0  0  0  0
    2.5978   -0.0691   -1.0973 H   0  0  0  0  0  0  0  0  0  0  0  0
    3.4544   -0.2593    0.8334 H   0  0  0  0  0  0  0  0  0  0  0  0
  1  2  1  0
  2  3  1  0
  3  4  1  0
  4  5  1  0
  5  6  1  0
  6  7  1  0
  7  8  1  0
  8  9  1  0
  7  2  1  0
  1 10  1  0
  1 11  1  0
  1 12  1  0
  2 13  1  0
  4 14  1  0
  4 15  1  0
  5 16  1  0
  5 17  1  0
  7 18  1  0
  8 19  1  0
  8 20  1  0
  9 21  1  0
M  END
