
     RDKit          3D

 20 20  0  0  0  0  0  0  0  0999 V2000
    1.6606    1.2670    0.1478 C   0  0  0  0  0  0  0  0  0  0  0  0
    0.6975    0.5618   -0.8206 C   0  0  0  0  0  0  0  0  0  0  0  0
   -0.4513    1.2667   -0.8605 O   0  0  0  0  0  0  0  0  0  0  0  0
   -1.4008    1.0189    0.0837 C   0  0  0  0  0  0  0  0  0  0  0  0
   -1.7724   -0.4334    0.2215 C   0  0  0  0  0  0  0  0  0  0  0  0
   -0.6196   -1.3679    0.1495 C   0  0  0  0  0  0  0  0  0  0  0  0
    0.5992   -0.8892   -0.5252 C   0  0  0  0  0  0  0  0  0  0  0  0
    1.7673   -1.2293    0.2073 O   0  0  0  0  0  0  0  0  0  0  0  0
    2.6911    1.2720   -0.2521 H   0  0  0  0  0  0  0  0  0  0  0  0
    1.7044    0.7095    1.1078 H   0  0  0  0  0  0  0  0  0  0  0  0
    1.3491    2.3302    0.2860 H   0  0  0  0  0  0  0  0  0  0  0  0
    1.1779    0.6925   -1.8197 H   0  0  0  0  0  0  0  0  0  0  0  0
   -1.1417    1.3946    1.0961 H   0  0  0  0  0  0  0  0  0  0  0  0
   -2.3145    1.5764   -0.2214 H   0  0  0  0  0  0  0  0  0  0  0  0
   -2.5644   -0.6533   -0.5521 H   0  0  0  0  0  0  0  0  0  0  0  0
   -2.2944   -0.5812    1.1932 H   0  0  0  0  0  0  0  0  0  0  0  0
   -1.0141   -2.3296   -0.3019 H   0  0  0  0  0  0  0  0  0  0  0  0
   -0.3299   -1.7055    1.1896 H   0  0  0  0  0  0  0  0  0  0  0  0
    0.7230   -1.4890   -1.4782 H   0  0  0  0  0  0  0  0  0  0  0  0
    1.5330   -1.4111    1.1490 H   0  0  0  0  0  0  0  0  0  0  0  0
  1  2  1  0
  2  3  1  0
  3  4  1  0
  4  5  1  0
  5  6  1  0
  6  7  1  0
  7  8  1  0
  7  2  1  0
  1  9  1  0
  1 10  1  0
  1 11  1  0
  2 12  1  0
  4 13  1  0
  4 14  1  0
  5 15  1  0
  5 16  1  0
  6 17  1  0
  6 18  1  0
  7 19  1  0
  8 20  1  0
M  END
