
     RDKit          3D

 21 22  0  0  0  0  0  0  0  0999 V2000
    2.3051    0.7724    0.0717 C   0  0  0  0  0  0  0  0  0  0  0  0
    0.8843    0.3799   -0.2212 C   0  0  0  0  0  0  0  0  0  0  0  0
    0.8887   -0.5023   -1.3008 O   0  0  0  0  0  0  0  0  0  0  0  0
   -0.4002   -1.0410   -1.1989 C   0  0  0  0  0  0  0  0  0  0  0  0
   -1.3492    0.1044   -1.2146 C   0  0  0  0  0  0  0  0  0  0  0  0
   -1.7021    0.7821   -0.1288 C   0  0  0  0  0  0  0  0  0  0  0  0
   -1.0807    0.5348    1.2154 C   0  0  0  0  0  0  0  0  0  0  0  0
    0.1850   -0.2806    0.9150 C   0  0  0  0  0  0  0  0  0  0  0  0
   -0.3522   -1.5555    0.2465 C   0  0  0  0  0  0  0  0  0  0  0  0
    2.7824    1.0279   -0.9129 H   0  0  0  0  0  0  0  0  0  0  0  0
    2.3291    1.7354    0.6553 H   0  0  0  0  0  0  0  0  0  0  0  0
    2.9111   -0.0170    0.5184 H   0  0  0  0  0  0  0  0  0  0  0  0
    0.3602    1.2960   -0.5729 H   0  0  0  0  0  0  0  0  0  0  0  0
   -0.6162   -1.8168   -1.9166 H   0  0  0  0  0  0  0  0  0  0  0  0
   -1.7714    0.3924   -2.1832 H   0  0  0  0  0  0  0  0  0  0  0  0
   -2.4614    1.5421   -0.1954 H   0  0  0  0  0  0  0  0  0  0  0  0
   -0.8595    1.4530    1.7579 H   0  0  0  0  0  0  0  0  0  0  0  0
   -1.7802   -0.1520    1.7567 H   0  0  0  0  0  0  0  0  0  0  0  0
    0.7769   -0.4836    1.7956 H   0  0  0  0  0  0  0  0  0  0  0  0
    0.3347   -2.3982    0.3564 H   0  0  0  0  0  0  0  0  0  0  0  0
   -1.3843   -1.7736    0.5561 H   0  0  0  0  0  0  0  0  0  0  0  0
  1  2  1  0
  2  3  1  0
  3  4  1  0
  4  5  1  0
  5  6  2  0
  6  7  1  0
  7  8  1  0
  8  9  1  0
  8  2  1  0
  9  4  1  0
  1 10  1  0
  1 11  1  0
  1 12  1  0
  2 13  1  0
  4 14  1  0
  5 15  1  0
  6 16  1  0
  7 17  1  0
  7 18  1  0
  8 19  1  0
  9 20  1  0
  9 21  1  0
M  END
