
     RDKit          3D

 18 18  0  0  0  0  0  0  0  0999 V2000
    2.0362   -0.7530   -0.0590 C   0  0  0  0  0  0  0  0  0  0  0  0
    0.6952   -0.2637    0.4708 C   0  0  0  0  0  0  0  0  0  0  0  0
    0.8765    1.1058    0.7354 O   0  0  0  0  0  0  0  0  0  0  0  0
   -0.4123    1.6128    0.7376 C   0  0  0  0  0  0  0  0  0  0  0  0
   -1.1344    0.9754   -0.4081 C   0  0  0  0  0  0  0  0  0  0  0  0
   -0.3682   -0.3088   -0.6036 C   0  0  0  0  0  0  0  0  0  0  0  0
   -1.3151   -1.4334   -0.4094 C   0  0  0  0  0  0  0  0  0  0  0  0
   -2.0633   -1.3754    0.5527 O   0  0  0  0  0  0  0  0  0  0  0  0
    2.1336   -0.3356   -1.0800 H   0  0  0  0  0  0  0  0  0  0  0  0
    2.8485   -0.3454    0.6058 H   0  0  0  0  0  0  0  0  0  0  0  0
    2.0491   -1.8630   -0.0888 H   0  0  0  0  0  0  0  0  0  0  0  0
    0.4374   -0.8392    1.3551 H   0  0  0  0  0  0  0  0  0  0  0  0
   -0.3414    2.7133    0.6621 H   0  0  0  0  0  0  0  0  0  0  0  0
   -0.9058    1.3017    1.6791 H   0  0  0  0  0  0  0  0  0  0  0  0
   -2.2100    0.7861   -0.1409 H   0  0  0  0  0  0  0  0  0  0  0  0
   -1.1623    1.6122   -1.3085 H   0  0  0  0  0  0  0  0  0  0  0  0
    0.1450   -0.3358   -1.5821 H   0  0  0  0  0  0  0  0  0  0  0  0
   -1.3088   -2.2538   -1.1182 H   0  0  0  0  0  0  0  0  0  0  0  0
  1  2  1  0
  2  3  1  0
  3  4  1  0
  4  5  1  0
  5  6  1  0
  6  7  1  0
  7  8  2  0
  6  2  1  0
  1  9  1  0
  1 10  1  0
  1 11  1  0
  2 12  1  0
  4 13  1  0
  4 14  1  0
  5 15  1  0
  5 16  1  0
  6 17  1  0
  7 18  1  0
M  END
