
     RDKit          3D

 19 20  0  0  0  0  0  0  0  0999 V2000
    2.6153    0.3165   -0.2510 C   0  0  0  0  0  0  0  0  0  0  0  0
    1.4856   -0.2617    0.5433 C   0  0  0  0  0  0  0  0  0  0  0  0
    0.9098   -1.4143   -0.2386 O   0  0  0  0  0  0  0  0  0  0  0  0
    0.1343   -0.3202    0.1150 C   0  0  0  0  0  0  0  0  0  0  0  0
   -0.5101    0.5171   -0.9394 C   0  0  0  0  0  0  0  0  0  0  0  0
   -2.0058    0.2284   -0.7809 C   0  0  0  0  0  0  0  0  0  0  0  0
   -2.1205    0.1698    0.7026 C   0  0  0  0  0  0  0  0  0  0  0  0
   -2.9474    0.6423    1.4616 O   0  0  0  0  0  0  0  0  0  0  0  0
   -0.9452   -0.6371    1.1259 C   0  0  0  0  0  0  0  0  0  0  0  0
    2.4982    0.1736   -1.3532 H   0  0  0  0  0  0  0  0  0  0  0  0
    3.5574   -0.2507    0.0011 H   0  0  0  0  0  0  0  0  0  0  0  0
    2.7660    1.4105   -0.0728 H   0  0  0  0  0  0  0  0  0  0  0  0
    1.7471   -0.5834    1.5805 H   0  0  0  0  0  0  0  0  0  0  0  0
   -0.1589    0.3403   -1.9578 H   0  0  0  0  0  0  0  0  0  0  0  0
   -0.3968    1.6042   -0.6772 H   0  0  0  0  0  0  0  0  0  0  0  0
   -2.6301    1.0094   -1.2218 H   0  0  0  0  0  0  0  0  0  0  0  0
   -2.1922   -0.7749   -1.2515 H   0  0  0  0  0  0  0  0  0  0  0  0
   -0.6069   -0.4357    2.1391 H   0  0  0  0  0  0  0  0  0  0  0  0
   -1.1999   -1.7341    1.0752 H   0  0  0  0  0  0  0  0  0  0  0  0
  1  2  1  0
  2  3  1  0
  3  4  1  0
  4  5  1  0
  5  6  1  0
  6  7  1  0
  7  8  2  0
  7  9  1  0
  4  2  1  0
  9  4  1  0
  1 10  1  0
  1 11  1  0
  1 12  1  0
  2 13  1  0
  5 14  1  0
  5 15  1  0
  6 16  1  0
  6 17  1  0
  9 18  1  0
  9 19  1  0
M  END
