
     RDKit          3D

 19 20  0  0  0  0  0  0  0  0999 V2000
    2.3868    0.1371   -0.3155 C   0  0  0  0  0  0  0  0  0  0  0  0
    0.9911    0.2823    0.1578 C   0  0  0  0  0  0  0  0  0  0  0  0
    0.1525    0.9555   -0.7398 O   0  0  0  0  0  0  0  0  0  0  0  0
   -0.9738    1.3224    0.0348 C   0  0  0  0  0  0  0  0  0  0  0  0
   -1.5878    0.0133    0.5028 C   0  0  0  0  0  0  0  0  0  0  0  0
   -1.5800   -0.9182   -0.6927 C   0  0  0  0  0  0  0  0  0  0  0  0
   -0.3825   -1.5778   -0.5417 O   0  0  0  0  0  0  0  0  0  0  0  0
    0.3079   -1.0147    0.5041 C   0  0  0  0  0  0  0  0  0  0  0  0
   -0.7455   -0.6701    1.3832 O   0  0  0  0  0  0  0  0  0  0  0  0
    2.5783    0.5539   -1.3203 H   0  0  0  0  0  0  0  0  0  0  0  0
    2.7595   -0.9180   -0.3383 H   0  0  0  0  0  0  0  0  0  0  0  0
    3.1158    0.6693    0.3642 H   0  0  0  0  0  0  0  0  0  0  0  0
    0.9936    0.9148    1.0859 H   0  0  0  0  0  0  0  0  0  0  0  0
   -1.7297    1.8374   -0.5744 H   0  0  0  0  0  0  0  0  0  0  0  0
   -0.6354    1.9276    0.9101 H   0  0  0  0  0  0  0  0  0  0  0  0
   -2.5975    0.1607    0.9262 H   0  0  0  0  0  0  0  0  0  0  0  0
   -2.4601   -1.5861   -0.7201 H   0  0  0  0  0  0  0  0  0  0  0  0
   -1.5721   -0.3546   -1.6484 H   0  0  0  0  0  0  0  0  0  0  0  0
    0.9788   -1.7348    1.0222 H   0  0  0  0  0  0  0  0  0  0  0  0
  1  2  1  0
  2  3  1  0
  3  4  1  0
  4  5  1  0
  5  6  1  0
  6  7  1  0
  7  8  1  0
  8  9  1  0
  8  2  1  0
  9  5  1  0
  1 10  1  0
  1 11  1  0
  1 12  1  0
  2 13  1  0
  4 14  1  0
  4 15  1  0
  5 16  1  0
  6 17  1  0
  6 18  1  0
  8 19  1  0
M  END
