
     RDKit          3D

 19 21  0  0  0  0  0  0  0  0999 V2000
    2.3702    0.0025   -0.0414 C   0  0  0  0  0  0  0  0  0  0  0  0
    0.9778   -0.0478   -0.6824 C   0  0  0  0  0  0  0  0  0  0  0  0
    0.6122   -1.3625   -0.7284 O   0  0  0  0  0  0  0  0  0  0  0  0
   -0.4827   -1.5857    0.0737 C   0  0  0  0  0  0  0  0  0  0  0  0
   -1.5983   -0.6191   -0.0828 C   0  0  0  0  0  0  0  0  0  0  0  0
   -1.3493    0.8477   -0.3050 C   0  0  0  0  0  0  0  0  0  0  0  0
   -1.4090    1.2585   -1.6099 O   0  0  0  0  0  0  0  0  0  0  0  0
    0.0246    0.6644    0.2833 C   0  0  0  0  0  0  0  0  0  0  0  0
   -0.5210   -0.5114    1.0368 C   0  0  0  0  0  0  0  0  0  0  0  0
    2.7397    1.0145    0.0820 H   0  0  0  0  0  0  0  0  0  0  0  0
    2.2703   -0.5732    0.9081 H   0  0  0  0  0  0  0  0  0  0  0  0
    3.0107   -0.6339   -0.7172 H   0  0  0  0  0  0  0  0  0  0  0  0
    0.9844    0.4607   -1.6669 H   0  0  0  0  0  0  0  0  0  0  0  0
   -0.7473   -2.6141    0.2705 H   0  0  0  0  0  0  0  0  0  0  0  0
   -2.5922   -0.9497    0.2022 H   0  0  0  0  0  0  0  0  0  0  0  0
   -1.9778    1.4469    0.3911 H   0  0  0  0  0  0  0  0  0  0  0  0
   -1.8078    2.1812   -1.6787 H   0  0  0  0  0  0  0  0  0  0  0  0
    0.4498    1.4872    0.8482 H   0  0  0  0  0  0  0  0  0  0  0  0
   -0.9542   -0.4660    2.0092 H   0  0  0  0  0  0  0  0  0  0  0  0
  1  2  1  0
  2  3  1  0
  3  4  1  0
  4  5  1  0
  5  6  1  0
  6  7  1  0
  6  8  1  0
  8  9  1  0
  8  2  1  0
  9  4  1  0
  9  5  1  0
  1 10  1  0
  1 11  1  0
  1 12  1  0
  2 13  1  0
  4 14  1  0
  5 15  1  0
  6 16  1  0
  7 17  1  0
  8 18  1  0
  9 19  1  0
M  END
