
     RDKit          3D

 23 23  0  0  0  0  0  0  0  0999 V2000
   -1.9864    0.4044   -1.2652 C   0  0  0  0  0  0  0  0  0  0  0  0
   -0.8243   -0.4112   -0.8059 C   0  0  0  0  0  0  0  0  0  0  0  0
    0.3264    0.3451   -0.9943 O   0  0  0  0  0  0  0  0  0  0  0  0
    1.1862    0.0831    0.0392 C   0  0  0  0  0  0  0  0  0  0  0  0
    1.9328    1.3533    0.4340 C   0  0  0  0  0  0  0  0  0  0  0  0
    2.2291   -0.9017   -0.4647 C   0  0  0  0  0  0  0  0  0  0  0  0
    0.4599   -0.4109    1.1051 O   0  0  0  0  0  0  0  0  0  0  0  0
   -0.8010   -0.7456    0.6287 C   0  0  0  0  0  0  0  0  0  0  0  0
   -1.8487   -0.0898    1.4684 C   0  0  0  0  0  0  0  0  0  0  0  0
   -1.7381    1.4904   -1.1326 H   0  0  0  0  0  0  0  0  0  0  0  0
   -2.0651    0.2580   -2.3827 H   0  0  0  0  0  0  0  0  0  0  0  0
   -2.9532    0.1212   -0.8553 H   0  0  0  0  0  0  0  0  0  0  0  0
   -0.7205   -1.3330   -1.4439 H   0  0  0  0  0  0  0  0  0  0  0  0
    2.4946    1.6991   -0.4674 H   0  0  0  0  0  0  0  0  0  0  0  0
    1.2728    2.1173    0.8594 H   0  0  0  0  0  0  0  0  0  0  0  0
    2.7214    1.0717    1.1748 H   0  0  0  0  0  0  0  0  0  0  0  0
    1.8146   -1.6147   -1.2021 H   0  0  0  0  0  0  0  0  0  0  0  0
    2.9859   -0.2888   -1.0235 H   0  0  0  0  0  0  0  0  0  0  0  0
    2.7556   -1.3993    0.3707 H   0  0  0  0  0  0  0  0  0  0  0  0
   -0.9024   -1.8534    0.7786 H   0  0  0  0  0  0  0  0  0  0  0  0
   -1.7636   -0.5482    2.4978 H   0  0  0  0  0  0  0  0  0  0  0  0
   -2.8691   -0.3581    1.1257 H   0  0  0  0  0  0  0  0  0  0  0  0
   -1.7071    1.0110    1.5552 H   0  0  0  0  0  0  0  0  0  0  0  0
  1  2  1  0
  2  3  1  0
  3  4  1  0
  4  5  1  0
  4  6  1  0
  4  7  1  0
  7  8  1  0
  8  9  1  0
  8  2  1  0
  1 10  1  0
  1 11  1  0
  1 12  1  0
  2 13  1  0
  5 14  1  0
  5 15  1  0
  5 16  1  0
  6 17  1  0
  6 18  1  0
  6 19  1  0
  8 20  1  0
  9 21  1  0
  9 22  1  0
  9 23  1  0
M  END
