
     RDKit          3D

 19 20  0  0  0  0  0  0  0  0999 V2000
   -1.5540   -1.5155   -0.0897 C   0  0  0  0  0  0  0  0  0  0  0  0
   -0.8936   -0.3065   -0.6968 C   0  0  0  0  0  0  0  0  0  0  0  0
    0.2114   -0.5776   -1.4454 O   0  0  0  0  0  0  0  0  0  0  0  0
    1.3116    0.0244   -0.8993 C   0  0  0  0  0  0  0  0  0  0  0  0
    1.7618   -0.5506    0.4143 C   0  0  0  0  0  0  0  0  0  0  0  0
    0.9426    0.6663    0.3894 C   0  0  0  0  0  0  0  0  0  0  0  0
    1.5458    1.8723    0.7669 O   0  0  0  0  0  0  0  0  0  0  0  0
   -0.5352    0.6912    0.3646 C   0  0  0  0  0  0  0  0  0  0  0  0
   -0.9414    1.9903   -0.0196 O   0  0  0  0  0  0  0  0  0  0  0  0
   -2.2609   -2.0202   -0.8050 H   0  0  0  0  0  0  0  0  0  0  0  0
   -2.1308   -1.1841    0.8154 H   0  0  0  0  0  0  0  0  0  0  0  0
   -0.8587   -2.2823    0.2509 H   0  0  0  0  0  0  0  0  0  0  0  0
   -1.6533    0.1711   -1.3623 H   0  0  0  0  0  0  0  0  0  0  0  0
    2.0114    0.6155   -1.5227 H   0  0  0  0  0  0  0  0  0  0  0  0
    1.3883   -1.5424    0.7032 H   0  0  0  0  0  0  0  0  0  0  0  0
    2.8381   -0.4080    0.6389 H   0  0  0  0  0  0  0  0  0  0  0  0
    1.5801    1.8950    1.7721 H   0  0  0  0  0  0  0  0  0  0  0  0
   -1.0305    0.5009    1.3314 H   0  0  0  0  0  0  0  0  0  0  0  0
   -1.7328    1.9604   -0.6062 H   0  0  0  0  0  0  0  0  0  0  0  0
  1  2  1  0
  2  3  1  0
  3  4  1  0
  4  5  1  0
  5  6  1  0
  6  7  1  0
  6  8  1  0
  8  9  1  0
  8  2  1  0
  6  4  1  0
  1 10  1  0
  1 11  1  0
  1 12  1  0
  2 13  1  0
  4 14  1  0
  5 15  1  0
  5 16  1  0
  7 17  1  0
  8 18  1  0
  9 19  1  0
M  END
