
     RDKit          3D

 21 23  0  0  0  0  0  0  0  0999 V2000
    2.7332   -0.1246    0.6588 C   0  0  0  0  0  0  0  0  0  0  0  0
    1.6961   -0.7339   -0.2687 C   0  0  0  0  0  0  0  0  0  0  0  0
    1.4619    0.1731   -1.4445 O   0  0  0  0  0  0  0  0  0  0  0  0
    0.4777   -0.1489   -0.5434 C   0  0  0  0  0  0  0  0  0  0  0  0
   -0.1443    1.0061    0.2599 C   0  0  0  0  0  0  0  0  0  0  0  0
   -1.4574    0.3925    0.5550 C   0  0  0  0  0  0  0  0  0  0  0  0
   -2.7298    0.4570   -0.0266 C   0  0  0  0  0  0  0  0  0  0  0  0
   -1.7669    0.0583   -0.9620 C   0  0  0  0  0  0  0  0  0  0  0  0
   -0.7248   -0.9933   -1.0204 C   0  0  0  0  0  0  0  0  0  0  0  0
    2.8207    0.9729    0.5084 H   0  0  0  0  0  0  0  0  0  0  0  0
    3.7566   -0.5290    0.4146 H   0  0  0  0  0  0  0  0  0  0  0  0
    2.5492   -0.3347    1.7137 H   0  0  0  0  0  0  0  0  0  0  0  0
    1.9925   -1.7023   -0.6710 H   0  0  0  0  0  0  0  0  0  0  0  0
   -0.2789    1.8557   -0.4382 H   0  0  0  0  0  0  0  0  0  0  0  0
    0.4317    1.2397    1.1551 H   0  0  0  0  0  0  0  0  0  0  0  0
   -1.2806   -0.5121    1.2193 H   0  0  0  0  0  0  0  0  0  0  0  0
   -3.2163    1.4742   -0.1192 H   0  0  0  0  0  0  0  0  0  0  0  0
   -3.5271   -0.2681    0.2857 H   0  0  0  0  0  0  0  0  0  0  0  0
   -1.4603    0.8649   -1.7036 H   0  0  0  0  0  0  0  0  0  0  0  0
   -0.4879   -1.3398   -2.0258 H   0  0  0  0  0  0  0  0  0  0  0  0
   -0.8456   -1.8076   -0.2758 H   0  0  0  0  0  0  0  0  0  0  0  0
  1  2  1  0
  2  3  1  0
  3  4  1  0
  4  5  1  0
  5  6  1  0
  6  7  1  0
  7  8  1  0
  8  9  1  0
  4  2  1  0
  8  6  1  0
  9  4  1  0
  1 10  1  0
  1 11  1  0
  1 12  1  0
  2 13  1  0
  5 14  1  0
  5 15  1  0
  6 16  1  0
  7 17  1  0
  7 18  1  0
  8 19  1  0
  9 20  1  0
  9 21  1  0
M  END
