
     RDKit          3D

 19 20  0  0  0  0  0  0  0  0999 V2000
   -1.1695    1.5655    0.6119 C   0  0  0  0  0  0  0  0  0  0  0  0
   -0.8285    0.5645   -0.4549 C   0  0  0  0  0  0  0  0  0  0  0  0
   -1.7858   -0.3920   -0.6595 O   0  0  0  0  0  0  0  0  0  0  0  0
   -1.4044   -1.5441    0.0277 C   0  0  0  0  0  0  0  0  0  0  0  0
    0.1279   -1.4778    0.1184 C   0  0  0  0  0  0  0  0  0  0  0  0
    0.5500   -0.7138    1.2026 O   0  0  0  0  0  0  0  0  0  0  0  0
    0.4570   -0.1392   -0.0742 C   0  0  0  0  0  0  0  0  0  0  0  0
    1.7202    0.4751   -0.5583 C   0  0  0  0  0  0  0  0  0  0  0  0
    2.7648   -0.4245   -0.6483 O   0  0  0  0  0  0  0  0  0  0  0  0
   -2.0010    2.2132    0.2546 H   0  0  0  0  0  0  0  0  0  0  0  0
   -0.2567    2.2082    0.7473 H   0  0  0  0  0  0  0  0  0  0  0  0
   -1.3766    1.0368    1.5406 H   0  0  0  0  0  0  0  0  0  0  0  0
   -0.6382    1.1022   -1.3956 H   0  0  0  0  0  0  0  0  0  0  0  0
   -1.8510   -1.4560    1.0400 H   0  0  0  0  0  0  0  0  0  0  0  0
   -1.7282   -2.4726   -0.4772 H   0  0  0  0  0  0  0  0  0  0  0  0
    0.7160   -2.3276   -0.2270 H   0  0  0  0  0  0  0  0  0  0  0  0
    2.0230    1.2608    0.1934 H   0  0  0  0  0  0  0  0  0  0  0  0
    1.5158    1.0190   -1.5004 H   0  0  0  0  0  0  0  0  0  0  0  0
    3.1652   -0.4977    0.2590 H   0  0  0  0  0  0  0  0  0  0  0  0
  1  2  1  0
  2  3  1  0
  3  4  1  0
  4  5  1  0
  5  6  1  0
  6  7  1  0
  7  8  1  0
  8  9  1  0
  7  2  1  0
  7  5  1  0
  1 10  1  0
  1 11  1  0
  1 12  1  0
  2 13  1  0
  4 14  1  0
  4 15  1  0
  5 16  1  0
  8 17  1  0
  8 18  1  0
  9 19  1  0
M  END
