
     RDKit          3D

 21 23  0  0  0  0  0  0  0  0999 V2000
    2.8448    0.1888   -0.5704 C   0  0  0  0  0  0  0  0  0  0  0  0
    1.6179    0.3096    0.3212 C   0  0  0  0  0  0  0  0  0  0  0  0
    0.8466    1.5686    0.0318 O   0  0  0  0  0  0  0  0  0  0  0  0
    0.3539    0.3087   -0.1714 C   0  0  0  0  0  0  0  0  0  0  0  0
   -0.1462   -0.1576   -1.4914 C   0  0  0  0  0  0  0  0  0  0  0  0
   -1.2996   -0.8794   -0.8785 C   0  0  0  0  0  0  0  0  0  0  0  0
   -1.2154   -1.5721    0.4175 C   0  0  0  0  0  0  0  0  0  0  0  0
   -0.9470   -0.1226    0.4323 C   0  0  0  0  0  0  0  0  0  0  0  0
   -1.9682    0.8912    0.8268 C   0  0  0  0  0  0  0  0  0  0  0  0
    3.7870    0.1804    0.0127 H   0  0  0  0  0  0  0  0  0  0  0  0
    2.7873   -0.7060   -1.2259 H   0  0  0  0  0  0  0  0  0  0  0  0
    2.9279    1.0627   -1.2695 H   0  0  0  0  0  0  0  0  0  0  0  0
    1.8729    0.2469    1.4107 H   0  0  0  0  0  0  0  0  0  0  0  0
    0.5697   -0.7544   -2.0817 H   0  0  0  0  0  0  0  0  0  0  0  0
   -0.5155    0.7280   -2.0879 H   0  0  0  0  0  0  0  0  0  0  0  0
   -2.2952   -0.7220   -1.2994 H   0  0  0  0  0  0  0  0  0  0  0  0
   -0.3183   -2.2177    0.6190 H   0  0  0  0  0  0  0  0  0  0  0  0
   -2.1371   -1.9159    0.8760 H   0  0  0  0  0  0  0  0  0  0  0  0
   -2.3522    0.7893    1.8507 H   0  0  0  0  0  0  0  0  0  0  0  0
   -2.8778    0.8645    0.1564 H   0  0  0  0  0  0  0  0  0  0  0  0
   -1.5357    1.9090    0.6538 H   0  0  0  0  0  0  0  0  0  0  0  0
  1  2  1  0
  2  3  1  0
  3  4  1  0
  4  5  1  0
  5  6  1  0
  6  7  1  0
  7  8  1  0
  8  9  1  0
  4  2  1  0
  8  6  1  0
  8  4  1  0
  1 10  1  0
  1 11  1  0
  1 12  1  0
  2 13  1  0
  5 14  1  0
  5 15  1  0
  6 16  1  0
  7 17  1  0
  7 18  1  0
  9 19  1  0
  9 20  1  0
  9 21  1  0
M  END
