
     RDKit          3D

 19 22  0  0  0  0  0  0  0  0999 V2000
   -2.3606    0.1365    0.6937 C   0  0  0  0  0  0  0  0  0  0  0  0
   -1.1209    0.3629   -0.1837 C   0  0  0  0  0  0  0  0  0  0  0  0
   -0.4641    1.4280    0.3280 O   0  0  0  0  0  0  0  0  0  0  0  0
    0.8906    1.3531    0.4084 C   0  0  0  0  0  0  0  0  0  0  0  0
    1.6052    0.5479   -0.5571 C   0  0  0  0  0  0  0  0  0  0  0  0
    1.4827    0.1333    0.9366 C   0  0  0  0  0  0  0  0  0  0  0  0
    0.7614   -1.1124    0.5770 C   0  0  0  0  0  0  0  0  0  0  0  0
   -0.3664   -0.8940   -0.3321 C   0  0  0  0  0  0  0  0  0  0  0  0
    0.9746   -0.7417   -0.9072 C   0  0  0  0  0  0  0  0  0  0  0  0
   -3.2340    0.6858    0.3133 H   0  0  0  0  0  0  0  0  0  0  0  0
   -2.5150   -0.9457    0.8063 H   0  0  0  0  0  0  0  0  0  0  0  0
   -2.1540    0.5243    1.7334 H   0  0  0  0  0  0  0  0  0  0  0  0
   -1.5475    0.6333   -1.1949 H   0  0  0  0  0  0  0  0  0  0  0  0
    1.3766    2.3134    0.7252 H   0  0  0  0  0  0  0  0  0  0  0  0
    2.6081    0.8294   -0.9135 H   0  0  0  0  0  0  0  0  0  0  0  0
    2.4393    0.1274    1.4680 H   0  0  0  0  0  0  0  0  0  0  0  0
    1.1027   -2.0890    0.9022 H   0  0  0  0  0  0  0  0  0  0  0  0
   -0.9517   -1.7799   -0.6218 H   0  0  0  0  0  0  0  0  0  0  0  0
    1.4729   -1.5125   -1.4909 H   0  0  0  0  0  0  0  0  0  0  0  0
  1  2  1  0
  2  3  1  0
  3  4  1  0
  4  5  1  0
  5  6  1  0
  6  7  1  0
  7  8  1  0
  8  9  1  0
  8  2  1  0
  6  4  1  0
  9  7  1  0
  9  5  1  0
  1 10  1  0
  1 11  1  0
  1 12  1  0
  2 13  1  0
  4 14  1  0
  5 15  1  0
  6 16  1  0
  7 17  1  0
  8 18  1  0
  9 19  1  0
M  END
