
     RDKit          3D

 19 21  0  0  0  0  0  0  0  0999 V2000
    2.5339   -0.2612    0.5710 C   0  0  0  0  0  0  0  0  0  0  0  0
    1.5051    0.7335    0.0906 C   0  0  0  0  0  0  0  0  0  0  0  0
    1.0620    0.4162   -1.2614 O   0  0  0  0  0  0  0  0  0  0  0  0
    0.2225    0.3619   -0.1858 C   0  0  0  0  0  0  0  0  0  0  0  0
   -1.0334    1.2521   -0.1618 C   0  0  0  0  0  0  0  0  0  0  0  0
   -1.9992    0.1852    0.3468 C   0  0  0  0  0  0  0  0  0  0  0  0
   -1.7424   -1.0013   -0.5332 C   0  0  0  0  0  0  0  0  0  0  0  0
   -0.4457   -0.9205    0.2325 C   0  0  0  0  0  0  0  0  0  0  0  0
   -1.2327   -0.4676    1.3193 O   0  0  0  0  0  0  0  0  0  0  0  0
    2.0513   -1.0894    1.1668 H   0  0  0  0  0  0  0  0  0  0  0  0
    3.0283   -0.8011   -0.2862 H   0  0  0  0  0  0  0  0  0  0  0  0
    3.2917    0.1918    1.2416 H   0  0  0  0  0  0  0  0  0  0  0  0
    1.8233    1.8124    0.1986 H   0  0  0  0  0  0  0  0  0  0  0  0
   -1.3191    1.5137   -1.1983 H   0  0  0  0  0  0  0  0  0  0  0  0
   -0.9301    2.0931    0.5168 H   0  0  0  0  0  0  0  0  0  0  0  0
   -2.9922    0.4758    0.5823 H   0  0  0  0  0  0  0  0  0  0  0  0
   -2.2859   -1.9040   -0.2711 H   0  0  0  0  0  0  0  0  0  0  0  0
   -1.6721   -0.7909   -1.6137 H   0  0  0  0  0  0  0  0  0  0  0  0
    0.1346   -1.7996    0.3795 H   0  0  0  0  0  0  0  0  0  0  0  0
  1  2  1  0
  2  3  1  0
  3  4  1  0
  4  5  1  0
  5  6  1  0
  6  7  1  0
  7  8  1  0
  8  9  1  0
  4  2  1  0
  9  6  1  0
  8  4  1  0
  1 10  1  0
  1 11  1  0
  1 12  1  0
  2 13  1  0
  5 14  1  0
  5 15  1  0
  6 16  1  0
  7 17  1  0
  7 18  1  0
  8 19  1  0
M  END
