
     RDKit          3D

 19 19  0  0  0  0  0  0  0  0999 V2000
    2.4847   -0.3273    0.0795 C   0  0  0  0  0  0  0  0  0  0  0  0
    1.0225   -0.0064   -0.0927 C   0  0  0  0  0  0  0  0  0  0  0  0
    0.4655    0.6253    0.9934 O   0  0  0  0  0  0  0  0  0  0  0  0
   -0.4429    1.6065    0.7070 C   0  0  0  0  0  0  0  0  0  0  0  0
   -1.6322    1.1242   -0.0749 C   0  0  0  0  0  0  0  0  0  0  0  0
   -1.9633   -0.0945   -0.4316 C   0  0  0  0  0  0  0  0  0  0  0  0
   -1.2550   -1.3574   -0.1647 C   0  0  0  0  0  0  0  0  0  0  0  0
    0.2155   -1.2297   -0.3541 C   0  0  0  0  0  0  0  0  0  0  0  0
    0.7841   -2.2264   -0.7589 O   0  0  0  0  0  0  0  0  0  0  0  0
    2.7274   -1.2744   -0.4170 H   0  0  0  0  0  0  0  0  0  0  0  0
    2.7136   -0.4151    1.1733 H   0  0  0  0  0  0  0  0  0  0  0  0
    3.0930    0.4845   -0.3713 H   0  0  0  0  0  0  0  0  0  0  0  0
    0.9211    0.6961   -0.9685 H   0  0  0  0  0  0  0  0  0  0  0  0
   -0.8547    1.9770    1.6705 H   0  0  0  0  0  0  0  0  0  0  0  0
   -0.0124    2.4924    0.1999 H   0  0  0  0  0  0  0  0  0  0  0  0
   -2.3243    1.9287   -0.3913 H   0  0  0  0  0  0  0  0  0  0  0  0
   -2.8717   -0.1651   -0.9906 H   0  0  0  0  0  0  0  0  0  0  0  0
   -1.6799   -2.2095   -0.7290 H   0  0  0  0  0  0  0  0  0  0  0  0
   -1.3908   -1.6286    0.9209 H   0  0  0  0  0  0  0  0  0  0  0  0
  1  2  1  0
  2  3  1  0
  3  4  1  0
  4  5  1  0
  5  6  2  0
  6  7  1  0
  7  8  1  0
  8  9  2  0
  8  2  1  0
  1 10  1  0
  1 11  1  0
  1 12  1  0
  2 13  1  0
  4 14  1  0
  4 15  1  0
  5 16  1  0
  6 17  1  0
  7 18  1  0
  7 19  1  0
M  END
