
     RDKit          3D

 17 17  0  0  0  0  0  0  0  0999 V2000
   -2.4950    0.0168   -0.2809 C   0  0  0  0  0  0  0  0  0  0  0  0
   -1.2224   -0.6477    0.2017 C   0  0  0  0  0  0  0  0  0  0  0  0
   -0.1843   -0.4531   -0.7189 O   0  0  0  0  0  0  0  0  0  0  0  0
    0.9558   -0.2270    0.0203 C   0  0  0  0  0  0  0  0  0  0  0  0
    2.0059    0.5396   -0.7512 C   0  0  0  0  0  0  0  0  0  0  0  0
    3.1363    0.7464    0.0284 O   0  0  0  0  0  0  0  0  0  0  0  0
    0.5162    0.4892    1.1600 O   0  0  0  0  0  0  0  0  0  0  0  0
   -0.7515    0.0128    1.4431 C   0  0  0  0  0  0  0  0  0  0  0  0
   -1.4261    0.0844    2.4990 O   0  0  0  0  0  0  0  0  0  0  0  0
   -3.2080   -0.7502   -0.6470 H   0  0  0  0  0  0  0  0  0  0  0  0
   -2.2949    0.6779   -1.1689 H   0  0  0  0  0  0  0  0  0  0  0  0
   -2.9272    0.6411    0.5253 H   0  0  0  0  0  0  0  0  0  0  0  0
   -1.3306   -1.7427    0.3261 H   0  0  0  0  0  0  0  0  0  0  0  0
    1.3374   -1.2049    0.3621 H   0  0  0  0  0  0  0  0  0  0  0  0
    1.6137    1.4407   -1.2289 H   0  0  0  0  0  0  0  0  0  0  0  0
    2.3218   -0.1422   -1.5909 H   0  0  0  0  0  0  0  0  0  0  0  0
    3.9531    0.5188   -0.4510 H   0  0  0  0  0  0  0  0  0  0  0  0
  1  2  1  0
  2  3  1  0
  3  4  1  0
  4  5  1  0
  5  6  1  0
  4  7  1  0
  7  8  1  0
  8  9  2  0
  8  2  1  0
  1 10  1  0
  1 11  1  0
  1 12  1  0
  2 13  1  0
  4 14  1  0
  5 15  1  0
  5 16  1  0
  6 17  1  0
M  END
