
     RDKit          3D

 19 20  0  0  0  0  0  0  0  0999 V2000
    1.4398   -1.1712   -0.5279 C   0  0  0  0  0  0  0  0  0  0  0  0
    0.8347   -0.4403    0.6209 C   0  0  0  0  0  0  0  0  0  0  0  0
    1.3758    0.8612    0.7629 O   0  0  0  0  0  0  0  0  0  0  0  0
    0.4258    1.7613    0.2424 C   0  0  0  0  0  0  0  0  0  0  0  0
   -0.3578    0.8892   -0.6663 C   0  0  0  0  0  0  0  0  0  0  0  0
   -1.4991    0.0807   -0.5420 C   0  0  0  0  0  0  0  0  0  0  0  0
   -1.7275   -0.9876   -1.4437 O   0  0  0  0  0  0  0  0  0  0  0  0
   -0.6084   -0.1486    0.5082 C   0  0  0  0  0  0  0  0  0  0  0  0
   -1.0027    0.4404    1.7465 O   0  0  0  0  0  0  0  0  0  0  0  0
    2.2450   -0.5179   -0.9563 H   0  0  0  0  0  0  0  0  0  0  0  0
    1.9828   -2.0895   -0.1785 H   0  0  0  0  0  0  0  0  0  0  0  0
    0.7036   -1.4868   -1.2929 H   0  0  0  0  0  0  0  0  0  0  0  0
    1.0634   -0.9770    1.5705 H   0  0  0  0  0  0  0  0  0  0  0  0
    0.9761    2.5432   -0.2713 H   0  0  0  0  0  0  0  0  0  0  0  0
   -0.2461    2.1541    1.0253 H   0  0  0  0  0  0  0  0  0  0  0  0
    0.3581    0.5352   -1.4754 H   0  0  0  0  0  0  0  0  0  0  0  0
   -2.4864    0.5977   -0.3634 H   0  0  0  0  0  0  0  0  0  0  0  0
   -1.9793   -1.8086   -0.9920 H   0  0  0  0  0  0  0  0  0  0  0  0
   -1.4977   -0.2355    2.2329 H   0  0  0  0  0  0  0  0  0  0  0  0
  1  2  1  0
  2  3  1  0
  3  4  1  0
  4  5  1  0
  5  6  1  0
  6  7  1  0
  6  8  1  0
  8  9  1  0
  8  2  1  0
  8  5  1  0
  1 10  1  0
  1 11  1  0
  1 12  1  0
  2 13  1  0
  4 14  1  0
  4 15  1  0
  5 16  1  0
  6 17  1  0
  7 18  1  0
  9 19  1  0
M  END
