
     RDKit          3D

 21 21  0  0  0  0  0  0  0  0999 V2000
    2.4624    0.7764    0.1842 C   0  0  0  0  0  0  0  0  0  0  0  0
    1.0796    0.2779    0.4432 C   0  0  0  0  0  0  0  0  0  0  0  0
    0.1031    1.2892    0.6115 O   0  0  0  0  0  0  0  0  0  0  0  0
   -0.8143    0.3178    0.1469 C   0  0  0  0  0  0  0  0  0  0  0  0
   -1.1662   -0.6006    1.2768 C   0  0  0  0  0  0  0  0  0  0  0  0
   -1.9860    0.8686   -0.5997 C   0  0  0  0  0  0  0  0  0  0  0  0
    0.2956   -0.1611   -0.7660 C   0  0  0  0  0  0  0  0  0  0  0  0
    0.3116   -1.5852   -1.0817 C   0  0  0  0  0  0  0  0  0  0  0  0
   -0.0170   -1.9577   -2.1941 O   0  0  0  0  0  0  0  0  0  0  0  0
    2.7697    0.3927   -0.8231 H   0  0  0  0  0  0  0  0  0  0  0  0
    3.1873    0.2956    0.8976 H   0  0  0  0  0  0  0  0  0  0  0  0
    2.5403    1.8745    0.2488 H   0  0  0  0  0  0  0  0  0  0  0  0
    1.0403   -0.5078    1.2245 H   0  0  0  0  0  0  0  0  0  0  0  0
   -0.8986   -0.1531    2.2789 H   0  0  0  0  0  0  0  0  0  0  0  0
   -2.2858   -0.7039    1.3071 H   0  0  0  0  0  0  0  0  0  0  0  0
   -0.7333   -1.5963    1.1927 H   0  0  0  0  0  0  0  0  0  0  0  0
   -2.1737    1.9396   -0.4273 H   0  0  0  0  0  0  0  0  0  0  0  0
   -1.8802    0.7332   -1.6948 H   0  0  0  0  0  0  0  0  0  0  0  0
   -2.8839    0.2617   -0.2952 H   0  0  0  0  0  0  0  0  0  0  0  0
    0.4354    0.5543   -1.5956 H   0  0  0  0  0  0  0  0  0  0  0  0
    0.6136   -2.3158   -0.3346 H   0  0  0  0  0  0  0  0  0  0  0  0
  1  2  1  0
  2  3  1  0
  3  4  1  0
  4  5  1  0
  4  6  1  0
  4  7  1  0
  7  8  1  0
  8  9  2  0
  7  2  1  0
  1 10  1  0
  1 11  1  0
  1 12  1  0
  2 13  1  0
  5 14  1  0
  5 15  1  0
  5 16  1  0
  6 17  1  0
  6 18  1  0
  6 19  1  0
  7 20  1  0
  8 21  1  0
M  END
