
     RDKit          3D

 19 21  0  0  0  0  0  0  0  0999 V2000
    2.7165    0.2936    0.1667 C   0  0  0  0  0  0  0  0  0  0  0  0
    1.6735   -0.6813   -0.4016 C   0  0  0  0  0  0  0  0  0  0  0  0
    0.7739    0.0370   -1.2955 O   0  0  0  0  0  0  0  0  0  0  0  0
    0.4025   -0.6306    0.0059 C   0  0  0  0  0  0  0  0  0  0  0  0
   -0.2204    0.3829    0.8903 C   0  0  0  0  0  0  0  0  0  0  0  0
   -1.5731   -0.1492    0.4583 C   0  0  0  0  0  0  0  0  0  0  0  0
   -2.4858    0.6696   -0.3565 C   0  0  0  0  0  0  0  0  0  0  0  0
   -1.8241   -1.4353    0.8341 O   0  0  0  0  0  0  0  0  0  0  0  0
   -0.8522   -1.3501   -0.1669 C   0  0  0  0  0  0  0  0  0  0  0  0
    3.2928    0.7851   -0.6150 H   0  0  0  0  0  0  0  0  0  0  0  0
    2.1619    1.0854    0.7489 H   0  0  0  0  0  0  0  0  0  0  0  0
    3.3328   -0.2419    0.9060 H   0  0  0  0  0  0  0  0  0  0  0  0
    2.1577   -1.4850   -0.9913 H   0  0  0  0  0  0  0  0  0  0  0  0
   -0.1120    1.4371    0.6437 H   0  0  0  0  0  0  0  0  0  0  0  0
   -0.0906    0.1789    1.9752 H   0  0  0  0  0  0  0  0  0  0  0  0
   -1.9138    1.5547   -0.7634 H   0  0  0  0  0  0  0  0  0  0  0  0
   -2.9452    0.1882   -1.2201 H   0  0  0  0  0  0  0  0  0  0  0  0
   -3.2825    1.0892    0.3210 H   0  0  0  0  0  0  0  0  0  0  0  0
   -1.2119   -1.7284   -1.1400 H   0  0  0  0  0  0  0  0  0  0  0  0
  1  2  1  0
  2  3  1  0
  3  4  1  0
  4  5  1  0
  5  6  1  0
  6  7  1  0
  6  8  1  0
  8  9  1  0
  4  2  1  0
  9  6  1  0
  9  4  1  0
  1 10  1  0
  1 11  1  0
  1 12  1  0
  2 13  1  0
  5 14  1  0
  5 15  1  0
  7 16  1  0
  7 17  1  0
  7 18  1  0
  9 19  1  0
M  END
