
     RDKit          3D

 19 21  0  0  0  0  0  0  0  0999 V2000
    2.4932   -0.1139   -0.0228 C   0  0  0  0  0  0  0  0  0  0  0  0
    1.2257    0.3124    0.6161 C   0  0  0  0  0  0  0  0  0  0  0  0
    0.3748    1.0332   -0.2933 O   0  0  0  0  0  0  0  0  0  0  0  0
   -0.8260    1.1364    0.3265 C   0  0  0  0  0  0  0  0  0  0  0  0
   -2.0527    0.8615   -0.4735 C   0  0  0  0  0  0  0  0  0  0  0  0
   -1.9787   -0.4260   -0.7872 C   0  0  0  0  0  0  0  0  0  0  0  0
   -0.7865   -1.0708   -0.2757 C   0  0  0  0  0  0  0  0  0  0  0  0
    0.2525   -0.9041    0.7535 C   0  0  0  0  0  0  0  0  0  0  0  0
   -0.8899   -0.2365    1.0062 C   0  0  0  0  0  0  0  0  0  0  0  0
    3.3561   -0.0823    0.6869 H   0  0  0  0  0  0  0  0  0  0  0  0
    2.4583   -1.1603   -0.4084 H   0  0  0  0  0  0  0  0  0  0  0  0
    2.7718    0.5225   -0.9091 H   0  0  0  0  0  0  0  0  0  0  0  0
    1.2938    0.8470    1.5596 H   0  0  0  0  0  0  0  0  0  0  0  0
   -0.9424    1.9548    1.0416 H   0  0  0  0  0  0  0  0  0  0  0  0
   -2.8380    1.5453   -0.7469 H   0  0  0  0  0  0  0  0  0  0  0  0
   -2.7268   -0.9965   -1.3758 H   0  0  0  0  0  0  0  0  0  0  0  0
   -0.1320   -0.9370   -1.1617 H   0  0  0  0  0  0  0  0  0  0  0  0
    0.6410   -1.8025    1.2221 H   0  0  0  0  0  0  0  0  0  0  0  0
   -1.6942   -0.4832    1.6648 H   0  0  0  0  0  0  0  0  0  0  0  0
  1  2  1  0
  2  3  1  0
  3  4  1  0
  4  5  1  0
  5  6  2  0
  6  7  1  0
  7  8  1  0
  8  9  1  0
  8  2  1  0
  9  4  1  0
  9  7  1  0
  1 10  1  0
  1 11  1  0
  1 12  1  0
  2 13  1  0
  4 14  1  0
  5 15  1  0
  6 16  1  0
  7 17  1  0
  8 18  1  0
  9 19  1  0
M  END
