
     RDKit          3D

 18 19  0  0  0  0  0  0  0  0999 V2000
    1.9006    0.7561    0.3131 C   0  0  0  0  0  0  0  0  0  0  0  0
    0.6148    0.5424   -0.4350 C   0  0  0  0  0  0  0  0  0  0  0  0
    0.8580   -0.4925   -1.3607 O   0  0  0  0  0  0  0  0  0  0  0  0
    0.3843   -1.6515   -0.8093 C   0  0  0  0  0  0  0  0  0  0  0  0
   -0.1348   -1.3901    0.4330 O   0  0  0  0  0  0  0  0  0  0  0  0
   -0.4650   -0.0663    0.3871 C   0  0  0  0  0  0  0  0  0  0  0  0
   -1.8783    0.1867   -0.1815 C   0  0  0  0  0  0  0  0  0  0  0  0
   -1.4411    0.6257    1.1768 C   0  0  0  0  0  0  0  0  0  0  0  0
    2.6536   -0.0583    0.1154 H   0  0  0  0  0  0  0  0  0  0  0  0
    2.3717    1.6832   -0.0712 H   0  0  0  0  0  0  0  0  0  0  0  0
    1.7808    0.8423    1.3962 H   0  0  0  0  0  0  0  0  0  0  0  0
    0.2602    1.4249   -0.9695 H   0  0  0  0  0  0  0  0  0  0  0  0
   -0.3683   -2.1421   -1.4826 H   0  0  0  0  0  0  0  0  0  0  0  0
    1.2006   -2.4013   -0.6873 H   0  0  0  0  0  0  0  0  0  0  0  0
   -2.5444   -0.6677   -0.3125 H   0  0  0  0  0  0  0  0  0  0  0  0
   -1.9906    1.0031   -0.9175 H   0  0  0  0  0  0  0  0  0  0  0  0
   -1.9128    0.0943    2.0287 H   0  0  0  0  0  0  0  0  0  0  0  0
   -1.2894    1.7110    1.3770 H   0  0  0  0  0  0  0  0  0  0  0  0
  1  2  1  0
  2  3  1  0
  3  4  1  0
  4  5  1  0
  5  6  1  0
  6  7  1  0
  7  8  1  0
  6  2  1  0
  8  6  1  0
  1  9  1  0
  1 10  1  0
  1 11  1  0
  2 12  1  0
  4 13  1  0
  4 14  1  0
  7 15  1  0
  7 16  1  0
  8 17  1  0
  8 18  1  0
M  END
