
     RDKit          3D

 19 19  0  0  0  0  0  0  0  0999 V2000
    2.3821    0.2514   -0.2120 C   0  0  0  0  0  0  0  0  0  0  0  0
    1.0356    0.3003    0.4332 C   0  0  0  0  0  0  0  0  0  0  0  0
    0.6691   -1.0204    0.7384 O   0  0  0  0  0  0  0  0  0  0  0  0
   -0.1855   -1.5323   -0.2485 C   0  0  0  0  0  0  0  0  0  0  0  0
   -1.5469   -0.8953    0.0445 C   0  0  0  0  0  0  0  0  0  0  0  0
   -1.4161    0.5568   -0.4352 C   0  0  0  0  0  0  0  0  0  0  0  0
   -2.2184    1.3151    0.4096 O   0  0  0  0  0  0  0  0  0  0  0  0
    0.0052    0.9848   -0.3696 C   0  0  0  0  0  0  0  0  0  0  0  0
    0.3396    1.9576   -1.0164 O   0  0  0  0  0  0  0  0  0  0  0  0
    2.4029   -0.6198   -0.9030 H   0  0  0  0  0  0  0  0  0  0  0  0
    2.6865    1.1949   -0.7023 H   0  0  0  0  0  0  0  0  0  0  0  0
    3.1218   -0.0057    0.5998 H   0  0  0  0  0  0  0  0  0  0  0  0
    1.1298    0.8803    1.3977 H   0  0  0  0  0  0  0  0  0  0  0  0
    0.0963   -1.2171   -1.2589 H   0  0  0  0  0  0  0  0  0  0  0  0
   -0.2328   -2.6268   -0.1491 H   0  0  0  0  0  0  0  0  0  0  0  0
   -2.3318   -1.4232   -0.4930 H   0  0  0  0  0  0  0  0  0  0  0  0
   -1.6851   -0.8676    1.1480 H   0  0  0  0  0  0  0  0  0  0  0  0
   -1.8092    0.5558   -1.4863 H   0  0  0  0  0  0  0  0  0  0  0  0
   -2.4430    2.2113    0.0059 H   0  0  0  0  0  0  0  0  0  0  0  0
  1  2  1  0
  2  3  1  0
  3  4  1  0
  4  5  1  0
  5  6  1  0
  6  7  1  0
  6  8  1  0
  8  9  2  0
  8  2  1  0
  1 10  1  0
  1 11  1  0
  1 12  1  0
  2 13  1  0
  4 14  1  0
  4 15  1  0
  5 16  1  0
  5 17  1  0
  6 18  1  0
  7 19  1  0
M  END
