
     RDKit          3D

 19 20  0  0  0  0  0  0  0  0999 V2000
   -2.3308    0.5535   -0.0503 C   0  0  0  0  0  0  0  0  0  0  0  0
   -0.9294    0.7935   -0.4964 C   0  0  0  0  0  0  0  0  0  0  0  0
   -0.6881    0.0937   -1.7770 O   0  0  0  0  0  0  0  0  0  0  0  0
    0.1155   -0.1718   -0.5637 C   0  0  0  0  0  0  0  0  0  0  0  0
   -0.0647   -1.6075   -0.1004 C   0  0  0  0  0  0  0  0  0  0  0  0
    0.6717   -1.8790    1.0253 O   0  0  0  0  0  0  0  0  0  0  0  0
    1.5426    0.3049   -0.7036 C   0  0  0  0  0  0  0  0  0  0  0  0
    2.1993    1.0711    0.3145 C   0  0  0  0  0  0  0  0  0  0  0  0
    1.7236    1.7019   -0.9447 O   0  0  0  0  0  0  0  0  0  0  0  0
   -3.0749    0.6468   -0.8931 H   0  0  0  0  0  0  0  0  0  0  0  0
   -2.5111   -0.4367    0.3944 H   0  0  0  0  0  0  0  0  0  0  0  0
   -2.6598    1.3513    0.6788 H   0  0  0  0  0  0  0  0  0  0  0  0
   -0.6519    1.8770   -0.5436 H   0  0  0  0  0  0  0  0  0  0  0  0
    0.3538   -2.2395   -0.9381 H   0  0  0  0  0  0  0  0  0  0  0  0
   -1.1306   -1.8801   -0.0187 H   0  0  0  0  0  0  0  0  0  0  0  0
    0.3041   -2.5700    1.6085 H   0  0  0  0  0  0  0  0  0  0  0  0
    2.1521   -0.2905   -1.4077 H   0  0  0  0  0  0  0  0  0  0  0  0
    3.3026    1.1415    0.3113 H   0  0  0  0  0  0  0  0  0  0  0  0
    1.6761    1.5398    1.1491 H   0  0  0  0  0  0  0  0  0  0  0  0
  1  2  1  0
  2  3  1  0
  3  4  1  0
  4  5  1  0
  5  6  1  0
  4  7  1  0
  7  8  1  0
  8  9  1  0
  4  2  1  0
  9  7  1  0
  1 10  1  0
  1 11  1  0
  1 12  1  0
  2 13  1  0
  5 14  1  0
  5 15  1  0
  6 16  1  0
  7 17  1  0
  8 18  1  0
  8 19  1  0
M  END
