
     RDKit          3D

 21 22  0  0  0  0  0  0  0  0999 V2000
   -1.7167   -1.4896    0.7600 C   0  0  0  0  0  0  0  0  0  0  0  0
   -0.8519   -1.1127   -0.4025 C   0  0  0  0  0  0  0  0  0  0  0  0
    0.4130   -1.7327   -0.4283 O   0  0  0  0  0  0  0  0  0  0  0  0
    1.0350   -0.5133   -0.7884 C   0  0  0  0  0  0  0  0  0  0  0  0
    2.2974   -0.3634    0.0184 C   0  0  0  0  0  0  0  0  0  0  0  0
   -0.1625    0.1949   -0.3583 C   0  0  0  0  0  0  0  0  0  0  0  0
   -0.6854    1.4490   -0.8619 C   0  0  0  0  0  0  0  0  0  0  0  0
   -0.3143    1.2233    0.6244 C   0  0  0  0  0  0  0  0  0  0  0  0
    0.7069    2.0412    1.0910 O   0  0  0  0  0  0  0  0  0  0  0  0
   -2.4231   -2.2835    0.3939 H   0  0  0  0  0  0  0  0  0  0  0  0
   -2.3097   -0.5933    1.0587 H   0  0  0  0  0  0  0  0  0  0  0  0
   -1.0923   -1.8287    1.5982 H   0  0  0  0  0  0  0  0  0  0  0  0
   -1.3553   -1.2658   -1.3838 H   0  0  0  0  0  0  0  0  0  0  0  0
    1.2596   -0.4310   -1.8700 H   0  0  0  0  0  0  0  0  0  0  0  0
    2.8697   -1.3215   -0.1223 H   0  0  0  0  0  0  0  0  0  0  0  0
    2.9680    0.4237   -0.4132 H   0  0  0  0  0  0  0  0  0  0  0  0
    2.1193   -0.2256    1.0984 H   0  0  0  0  0  0  0  0  0  0  0  0
   -1.7890    1.4719   -1.0900 H   0  0  0  0  0  0  0  0  0  0  0  0
   -0.0945    2.2157   -1.4014 H   0  0  0  0  0  0  0  0  0  0  0  0
   -1.1990    1.1793    1.3078 H   0  0  0  0  0  0  0  0  0  0  0  0
    0.3249    2.9620    1.1693 H   0  0  0  0  0  0  0  0  0  0  0  0
  1  2  1  0
  2  3  1  0
  3  4  1  0
  4  5  1  0
  4  6  1  0
  6  7  1  0
  7  8  1  0
  8  9  1  0
  6  2  1  0
  8  6  1  0
  1 10  1  0
  1 11  1  0
  1 12  1  0
  2 13  1  0
  4 14  1  0
  5 15  1  0
  5 16  1  0
  5 17  1  0
  7 18  1  0
  7 19  1  0
  8 20  1  0
  9 21  1  0
M  END
