
     RDKit          3D

 19 19  0  0  0  0  0  0  0  0999 V2000
   -0.5129    1.7548    0.1727 C   0  0  0  0  0  0  0  0  0  0  0  0
   -0.5568    0.4615   -0.6266 C   0  0  0  0  0  0  0  0  0  0  0  0
   -1.7530   -0.1465   -0.3804 O   0  0  0  0  0  0  0  0  0  0  0  0
   -1.6958   -1.4241    0.0910 C   0  0  0  0  0  0  0  0  0  0  0  0
   -0.8849   -1.5456    1.2716 O   0  0  0  0  0  0  0  0  0  0  0  0
    0.3679   -0.9177    1.1178 C   0  0  0  0  0  0  0  0  0  0  0  0
    1.1797   -0.7797    2.0405 O   0  0  0  0  0  0  0  0  0  0  0  0
    0.6089   -0.4357   -0.2851 C   0  0  0  0  0  0  0  0  0  0  0  0
    1.9283    0.2257   -0.3921 C   0  0  0  0  0  0  0  0  0  0  0  0
   -1.2575    1.6963    1.0162 H   0  0  0  0  0  0  0  0  0  0  0  0
    0.4742    1.9425    0.6170 H   0  0  0  0  0  0  0  0  0  0  0  0
   -0.8496    2.6275   -0.4383 H   0  0  0  0  0  0  0  0  0  0  0  0
   -0.4224    0.7656   -1.6950 H   0  0  0  0  0  0  0  0  0  0  0  0
   -1.3804   -2.1549   -0.6801 H   0  0  0  0  0  0  0  0  0  0  0  0
   -2.7161   -1.7269    0.4082 H   0  0  0  0  0  0  0  0  0  0  0  0
    0.5060   -1.3411   -0.9281 H   0  0  0  0  0  0  0  0  0  0  0  0
    1.9243    1.2591   -0.7337 H   0  0  0  0  0  0  0  0  0  0  0  0
    2.5401   -0.3503   -1.1464 H   0  0  0  0  0  0  0  0  0  0  0  0
    2.4998    0.0894    0.5706 H   0  0  0  0  0  0  0  0  0  0  0  0
  1  2  1  0
  2  3  1  0
  3  4  1  0
  4  5  1  0
  5  6  1  0
  6  7  2  0
  6  8  1  0
  8  9  1  0
  8  2  1  0
  1 10  1  0
  1 11  1  0
  1 12  1  0
  2 13  1  0
  4 14  1  0
  4 15  1  0
  8 16  1  0
  9 17  1  0
  9 18  1  0
  9 19  1  0
M  END
