
     RDKit          3D

 17 18  0  0  0  0  0  0  0  0999 V2000
    1.9516    0.2024    0.1249 C   0  0  0  0  0  0  0  0  0  0  0  0
    0.7320   -0.5170   -0.4325 C   0  0  0  0  0  0  0  0  0  0  0  0
    0.2330   -1.3025    0.6173 O   0  0  0  0  0  0  0  0  0  0  0  0
   -1.0108   -0.7858    0.9532 C   0  0  0  0  0  0  0  0  0  0  0  0
   -1.5706   -0.4836   -0.4527 C   0  0  0  0  0  0  0  0  0  0  0  0
   -0.3781    0.4364   -0.7870 C   0  0  0  0  0  0  0  0  0  0  0  0
   -0.5004    1.3826    0.3539 C   0  0  0  0  0  0  0  0  0  0  0  0
   -0.2974    2.6125    0.3157 O   0  0  0  0  0  0  0  0  0  0  0  0
   -0.8846    0.5645    1.4274 O   0  0  0  0  0  0  0  0  0  0  0  0
    2.5868   -0.6139    0.5790 H   0  0  0  0  0  0  0  0  0  0  0  0
    2.5503    0.6543   -0.6763 H   0  0  0  0  0  0  0  0  0  0  0  0
    1.6651    0.8973    0.9219 H   0  0  0  0  0  0  0  0  0  0  0  0
    1.0270   -1.1851   -1.2428 H   0  0  0  0  0  0  0  0  0  0  0  0
   -1.6328   -1.4154    1.5389 H   0  0  0  0  0  0  0  0  0  0  0  0
   -2.5010    0.0817   -0.4000 H   0  0  0  0  0  0  0  0  0  0  0  0
   -1.5793   -1.3732   -1.0804 H   0  0  0  0  0  0  0  0  0  0  0  0
   -0.3907    0.8449   -1.7606 H   0  0  0  0  0  0  0  0  0  0  0  0
  1  2  1  0
  2  3  1  0
  3  4  1  0
  4  5  1  0
  5  6  1  0
  6  7  1  0
  7  8  2  0
  7  9  1  0
  6  2  1  0
  9  4  1  0
  1 10  1  0
  1 11  1  0
  1 12  1  0
  2 13  1  0
  4 14  1  0
  5 15  1  0
  5 16  1  0
  6 17  1  0
M  END
