
     RDKit          3D

 19 20  0  0  0  0  0  0  0  0999 V2000
   -2.5353   -0.1119    0.4646 C   0  0  0  0  0  0  0  0  0  0  0  0
   -1.4732    0.4499   -0.4410 C   0  0  0  0  0  0  0  0  0  0  0  0
   -0.7352    1.4872    0.3631 O   0  0  0  0  0  0  0  0  0  0  0  0
   -0.0632    0.3638   -0.1134 C   0  0  0  0  0  0  0  0  0  0  0  0
    0.3749   -0.6693    0.8734 C   0  0  0  0  0  0  0  0  0  0  0  0
    1.4030   -1.4661    0.4319 O   0  0  0  0  0  0  0  0  0  0  0  0
    2.3919   -0.6820   -0.1505 C   0  0  0  0  0  0  0  0  0  0  0  0
    1.8654   -0.3025   -1.4064 O   0  0  0  0  0  0  0  0  0  0  0  0
    0.9600    0.7045   -1.1478 C   0  0  0  0  0  0  0  0  0  0  0  0
   -2.1455   -0.2398    1.5025 H   0  0  0  0  0  0  0  0  0  0  0  0
   -3.3230    0.6920    0.5598 H   0  0  0  0  0  0  0  0  0  0  0  0
   -3.0070   -1.0179    0.0794 H   0  0  0  0  0  0  0  0  0  0  0  0
   -1.7705    0.8205   -1.4177 H   0  0  0  0  0  0  0  0  0  0  0  0
    0.6804   -0.2433    1.8552 H   0  0  0  0  0  0  0  0  0  0  0  0
   -0.4845   -1.3582    1.1133 H   0  0  0  0  0  0  0  0  0  0  0  0
    2.4878    0.2318    0.5019 H   0  0  0  0  0  0  0  0  0  0  0  0
    3.3637   -1.1565   -0.2250 H   0  0  0  0  0  0  0  0  0  0  0  0
    1.5644    1.5808   -0.7692 H   0  0  0  0  0  0  0  0  0  0  0  0
    0.4460    1.0636   -2.0740 H   0  0  0  0  0  0  0  0  0  0  0  0
  1  2  1  0
  2  3  1  0
  3  4  1  0
  4  5  1  0
  5  6  1  0
  6  7  1  0
  7  8  1  0
  8  9  1  0
  4  2  1  0
  9  4  1  0
  1 10  1  0
  1 11  1  0
  1 12  1  0
  2 13  1  0
  5 14  1  0
  5 15  1  0
  7 16  1  0
  7 17  1  0
  9 18  1  0
  9 19  1  0
M  END
