
     RDKit          3D

 19 19  0  0  0  0  0  0  0  0999 V2000
    2.0552    0.9279   -0.9210 C   0  0  0  0  0  0  0  0  0  0  0  0
    1.3636   -0.3952   -0.6434 C   0  0  0  0  0  0  0  0  0  0  0  0
    1.9897   -1.1948    0.2772 O   0  0  0  0  0  0  0  0  0  0  0  0
    0.8496   -1.2473    1.0774 C   0  0  0  0  0  0  0  0  0  0  0  0
    0.1203   -0.2434    0.2253 C   0  0  0  0  0  0  0  0  0  0  0  0
   -0.9760   -0.7249   -0.4398 O   0  0  0  0  0  0  0  0  0  0  0  0
   -2.0641    0.1101   -0.4395 C   0  0  0  0  0  0  0  0  0  0  0  0
   -2.5882    0.4433    0.8812 C   0  0  0  0  0  0  0  0  0  0  0  0
   -3.5479    1.1721    1.0234 O   0  0  0  0  0  0  0  0  0  0  0  0
    1.3720    1.6362   -1.4095 H   0  0  0  0  0  0  0  0  0  0  0  0
    2.9010    0.7158   -1.5814 H   0  0  0  0  0  0  0  0  0  0  0  0
    2.4752    1.3511    0.0229 H   0  0  0  0  0  0  0  0  0  0  0  0
    1.1952   -0.9177   -1.6037 H   0  0  0  0  0  0  0  0  0  0  0  0
    0.4390   -2.2688    1.0756 H   0  0  0  0  0  0  0  0  0  0  0  0
    1.1123   -0.8801    2.1018 H   0  0  0  0  0  0  0  0  0  0  0  0
    0.0191    0.7575    0.6897 H   0  0  0  0  0  0  0  0  0  0  0  0
   -1.7436    1.0462   -0.9869 H   0  0  0  0  0  0  0  0  0  0  0  0
   -2.8400   -0.3349   -1.1228 H   0  0  0  0  0  0  0  0  0  0  0  0
   -2.1323    0.0468    1.7738 H   0  0  0  0  0  0  0  0  0  0  0  0
  1  2  1  0
  2  3  1  0
  3  4  1  0
  4  5  1  0
  5  6  1  0
  6  7  1  0
  7  8  1  0
  8  9  2  0
  5  2  1  0
  1 10  1  0
  1 11  1  0
  1 12  1  0
  2 13  1  0
  4 14  1  0
  4 15  1  0
  5 16  1  0
  7 17  1  0
  7 18  1  0
  8 19  1  0
M  END
