
     RDKit          3D

 21 22  0  0  0  0  0  0  0  0999 V2000
   -2.5990    0.1760    0.2573 C   0  0  0  0  0  0  0  0  0  0  0  0
   -1.4576   -0.2309   -0.5410 C   0  0  0  0  0  0  0  0  0  0  0  0
   -0.8001    0.8225   -1.2228 O   0  0  0  0  0  0  0  0  0  0  0  0
    0.3772    0.8981   -0.5818 C   0  0  0  0  0  0  0  0  0  0  0  0
    1.6850    0.3951   -0.8138 C   0  0  0  0  0  0  0  0  0  0  0  0
    2.7451    0.4842    0.2745 C   0  0  0  0  0  0  0  0  0  0  0  0
    0.7419   -0.6355   -0.7425 C   0  0  0  0  0  0  0  0  0  0  0  0
   -0.3597   -1.0030    0.1968 C   0  0  0  0  0  0  0  0  0  0  0  0
   -0.0779   -0.5084    1.4312 O   0  0  0  0  0  0  0  0  0  0  0  0
   -2.4270    0.4019    1.3220 H   0  0  0  0  0  0  0  0  0  0  0  0
   -3.4149   -0.5917    0.1918 H   0  0  0  0  0  0  0  0  0  0  0  0
   -3.0457    1.0988   -0.1852 H   0  0  0  0  0  0  0  0  0  0  0  0
   -1.7852   -0.9108   -1.3583 H   0  0  0  0  0  0  0  0  0  0  0  0
    0.2140    1.2556    0.4797 H   0  0  0  0  0  0  0  0  0  0  0  0
    2.1357    0.6844   -1.8100 H   0  0  0  0  0  0  0  0  0  0  0  0
    2.7156   -0.4641    0.8895 H   0  0  0  0  0  0  0  0  0  0  0  0
    2.4829    1.2942    0.9866 H   0  0  0  0  0  0  0  0  0  0  0  0
    3.7632    0.5648   -0.1015 H   0  0  0  0  0  0  0  0  0  0  0  0
    0.4486   -1.0823   -1.7494 H   0  0  0  0  0  0  0  0  0  0  0  0
   -0.5433   -2.0924    0.1685 H   0  0  0  0  0  0  0  0  0  0  0  0
   -0.7987   -0.5565    2.0938 H   0  0  0  0  0  0  0  0  0  0  0  0
  1  2  1  0
  2  3  1  0
  3  4  1  0
  4  5  1  0
  5  6  1  0
  5  7  1  0
  7  8  1  0
  8  9  1  0
  8  2  1  0
  7  4  1  0
  1 10  1  0
  1 11  1  0
  1 12  1  0
  2 13  1  0
  4 14  1  0
  5 15  1  0
  6 16  1  0
  6 17  1  0
  6 18  1  0
  7 19  1  0
  8 20  1  0
  9 21  1  0
M  END
