
     RDKit          3D

 19 20  0  0  0  0  0  0  0  0999 V2000
    2.3664    0.4384    0.3853 C   0  0  0  0  0  0  0  0  0  0  0  0
    1.0553   -0.2292    0.1684 C   0  0  0  0  0  0  0  0  0  0  0  0
    0.8817   -0.6868   -1.1523 O   0  0  0  0  0  0  0  0  0  0  0  0
   -0.5070   -0.6327   -1.4265 C   0  0  0  0  0  0  0  0  0  0  0  0
   -1.0859   -0.5412   -0.0705 C   0  0  0  0  0  0  0  0  0  0  0  0
   -0.8107   -1.7670    0.6043 O   0  0  0  0  0  0  0  0  0  0  0  0
   -1.4447    0.5126    0.7781 C   0  0  0  0  0  0  0  0  0  0  0  0
   -2.4747    1.3736    0.3287 O   0  0  0  0  0  0  0  0  0  0  0  0
   -0.1260    0.6595    0.3260 C   0  0  0  0  0  0  0  0  0  0  0  0
    3.1012    0.1851   -0.3994 H   0  0  0  0  0  0  0  0  0  0  0  0
    2.2415    1.5441    0.4379 H   0  0  0  0  0  0  0  0  0  0  0  0
    2.7846    0.1385    1.3787 H   0  0  0  0  0  0  0  0  0  0  0  0
    1.0094   -1.1410    0.8085 H   0  0  0  0  0  0  0  0  0  0  0  0
   -0.7351   -1.6224   -1.9004 H   0  0  0  0  0  0  0  0  0  0  0  0
   -0.7612    0.1664   -2.1180 H   0  0  0  0  0  0  0  0  0  0  0  0
   -1.6917   -2.1462    0.8415 H   0  0  0  0  0  0  0  0  0  0  0  0
   -1.6030    0.3340    1.8820 H   0  0  0  0  0  0  0  0  0  0  0  0
   -2.1834    1.9443   -0.4082 H   0  0  0  0  0  0  0  0  0  0  0  0
   -0.0168    1.4702   -0.4641 H   0  0  0  0  0  0  0  0  0  0  0  0
  1  2  1  0
  2  3  1  0
  3  4  1  0
  4  5  1  0
  5  6  1  0
  5  7  1  0
  7  8  1  0
  7  9  1  0
  9  2  1  0
  9  5  1  0
  1 10  1  0
  1 11  1  0
  1 12  1  0
  2 13  1  0
  4 14  1  0
  4 15  1  0
  6 16  1  0
  7 17  1  0
  8 18  1  0
  9 19  1  0
M  END
