
     RDKit          3D

 19 19  0  0  0  0  0  0  0  0999 V2000
   -2.5503   -0.5393    0.2772 C   0  0  0  0  0  0  0  0  0  0  0  0
   -1.1634   -0.0037    0.5166 C   0  0  0  0  0  0  0  0  0  0  0  0
   -0.1519   -0.9602    0.5556 O   0  0  0  0  0  0  0  0  0  0  0  0
    0.5425   -0.4479   -0.5380 C   0  0  0  0  0  0  0  0  0  0  0  0
    1.8084    0.2891   -0.1994 C   0  0  0  0  0  0  0  0  0  0  0  0
    2.7761   -0.5939    0.5103 C   0  0  0  0  0  0  0  0  0  0  0  0
    2.5134   -1.7548    0.7542 O   0  0  0  0  0  0  0  0  0  0  0  0
   -0.5801    0.5136   -0.7877 C   0  0  0  0  0  0  0  0  0  0  0  0
   -0.2433    1.8571   -0.7562 O   0  0  0  0  0  0  0  0  0  0  0  0
   -2.5082   -1.3156   -0.5291 H   0  0  0  0  0  0  0  0  0  0  0  0
   -3.1403    0.3132   -0.1655 H   0  0  0  0  0  0  0  0  0  0  0  0
   -3.0621   -0.8747    1.1757 H   0  0  0  0  0  0  0  0  0  0  0  0
   -1.0947    0.7045    1.3438 H   0  0  0  0  0  0  0  0  0  0  0  0
    0.7239   -1.2045   -1.3293 H   0  0  0  0  0  0  0  0  0  0  0  0
    1.5645    1.1824    0.4229 H   0  0  0  0  0  0  0  0  0  0  0  0
    2.2643    0.6153   -1.1576 H   0  0  0  0  0  0  0  0  0  0  0  0
    3.7209   -0.1432    0.7939 H   0  0  0  0  0  0  0  0  0  0  0  0
   -1.1474    0.2034   -1.7002 H   0  0  0  0  0  0  0  0  0  0  0  0
   -0.2723    2.1593    0.1760 H   0  0  0  0  0  0  0  0  0  0  0  0
  1  2  1  0
  2  3  1  0
  3  4  1  0
  4  5  1  0
  5  6  1  0
  6  7  2  0
  4  8  1  0
  8  9  1  0
  8  2  1  0
  1 10  1  0
  1 11  1  0
  1 12  1  0
  2 13  1  0
  4 14  1  0
  5 15  1  0
  5 16  1  0
  6 17  1  0
  8 18  1  0
  9 19  1  0
M  END
