
     RDKit          3D

 21 22  0  0  0  0  0  0  0  0999 V2000
    2.4180   -0.2886    0.5853 C   0  0  0  0  0  0  0  0  0  0  0  0
    1.2310   -0.0841   -0.3701 C   0  0  0  0  0  0  0  0  0  0  0  0
    1.0688    1.2170   -0.5732 O   0  0  0  0  0  0  0  0  0  0  0  0
   -0.1145    1.8235   -0.4581 C   0  0  0  0  0  0  0  0  0  0  0  0
   -1.3332    0.9873   -0.4123 C   0  0  0  0  0  0  0  0  0  0  0  0
   -1.1255   -0.1663    0.5061 C   0  0  0  0  0  0  0  0  0  0  0  0
   -1.7487   -1.4605   -0.0111 C   0  0  0  0  0  0  0  0  0  0  0  0
   -0.6300   -1.5838   -0.8428 O   0  0  0  0  0  0  0  0  0  0  0  0
    0.1044   -0.8927    0.1487 C   0  0  0  0  0  0  0  0  0  0  0  0
    2.5915   -1.3683    0.7764 H   0  0  0  0  0  0  0  0  0  0  0  0
    3.3215    0.0620    0.0227 H   0  0  0  0  0  0  0  0  0  0  0  0
    2.2832    0.2750    1.5190 H   0  0  0  0  0  0  0  0  0  0  0  0
    1.5743   -0.5726   -1.3311 H   0  0  0  0  0  0  0  0  0  0  0  0
   -0.1156    2.4943    0.4511 H   0  0  0  0  0  0  0  0  0  0  0  0
   -0.2385    2.5518   -1.3153 H   0  0  0  0  0  0  0  0  0  0  0  0
   -1.6646    0.6732   -1.4332 H   0  0  0  0  0  0  0  0  0  0  0  0
   -2.1886    1.5939   -0.0119 H   0  0  0  0  0  0  0  0  0  0  0  0
   -1.3736   -0.0309    1.5675 H   0  0  0  0  0  0  0  0  0  0  0  0
   -1.7383   -2.2439    0.7894 H   0  0  0  0  0  0  0  0  0  0  0  0
   -2.7084   -1.3374   -0.5323 H   0  0  0  0  0  0  0  0  0  0  0  0
    0.3868   -1.6486    0.9253 H   0  0  0  0  0  0  0  0  0  0  0  0
  1  2  1  0
  2  3  1  0
  3  4  1  0
  4  5  1  0
  5  6  1  0
  6  7  1  0
  7  8  1  0
  8  9  1  0
  9  2  1  0
  9  6  1  0
  1 10  1  0
  1 11  1  0
  1 12  1  0
  2 13  1  0
  4 14  1  0
  4 15  1  0
  5 16  1  0
  5 17  1  0
  6 18  1  0
  7 19  1  0
  7 20  1  0
  9 21  1  0
M  END
