
     RDKit          3D

 18 19  0  0  0  0  0  0  0  0999 V2000
    2.6424    0.2012    0.1514 C   0  0  0  0  0  0  0  0  0  0  0  0
    1.3787   -0.6184   -0.0140 C   0  0  0  0  0  0  0  0  0  0  0  0
    0.8409   -0.2976   -1.3661 O   0  0  0  0  0  0  0  0  0  0  0  0
    0.1237   -0.1441   -0.2104 C   0  0  0  0  0  0  0  0  0  0  0  0
   -0.5807    1.0943    0.1601 C   0  0  0  0  0  0  0  0  0  0  0  0
   -1.9075    0.3755   -0.0430 C   0  0  0  0  0  0  0  0  0  0  0  0
   -2.7408    0.3641    1.0607 O   0  0  0  0  0  0  0  0  0  0  0  0
   -1.1235   -0.9302   -0.0962 C   0  0  0  0  0  0  0  0  0  0  0  0
    3.2741    0.1249   -0.7804 H   0  0  0  0  0  0  0  0  0  0  0  0
    3.2605   -0.1709    0.9975 H   0  0  0  0  0  0  0  0  0  0  0  0
    2.4550    1.2656    0.3063 H   0  0  0  0  0  0  0  0  0  0  0  0
    1.6064   -1.7168    0.0577 H   0  0  0  0  0  0  0  0  0  0  0  0
   -0.5197    1.4295    1.2150 H   0  0  0  0  0  0  0  0  0  0  0  0
   -0.4983    1.9576   -0.5476 H   0  0  0  0  0  0  0  0  0  0  0  0
   -2.3942    0.6495   -0.9940 H   0  0  0  0  0  0  0  0  0  0  0  0
   -3.2043   -0.5329    1.0523 H   0  0  0  0  0  0  0  0  0  0  0  0
   -1.1754   -1.5489    0.7998 H   0  0  0  0  0  0  0  0  0  0  0  0
   -1.4374   -1.5025   -0.9889 H   0  0  0  0  0  0  0  0  0  0  0  0
  1  2  1  0
  2  3  1  0
  3  4  1  0
  4  5  1  0
  5  6  1  0
  6  7  1  0
  6  8  1  0
  4  2  1  0
  8  4  1  0
  1  9  1  0
  1 10  1  0
  1 11  1  0
  2 12  1  0
  5 13  1  0
  5 14  1  0
  6 15  1  0
  7 16  1  0
  8 17  1  0
  8 18  1  0
M  END
