
     RDKit          3D

 19 19  0  0  0  0  0  0  0  0999 V2000
   -3.0997    0.1196   -0.4054 C   0  0  0  0  0  0  0  0  0  0  0  0
   -2.0304   -0.4327    0.4823 C   0  0  0  0  0  0  0  0  0  0  0  0
   -1.3064    0.3959    1.3227 O   0  0  0  0  0  0  0  0  0  0  0  0
   -0.6381    0.0684    0.1578 C   0  0  0  0  0  0  0  0  0  0  0  0
    0.4250   -0.9834    0.1469 C   0  0  0  0  0  0  0  0  0  0  0  0
    1.7751   -0.3549   -0.1913 C   0  0  0  0  0  0  0  0  0  0  0  0
    2.0284    0.6084    0.8178 O   0  0  0  0  0  0  0  0  0  0  0  0
    3.1801    1.3643    0.8080 C   0  0  0  0  0  0  0  0  0  0  0  0
    3.9947    1.1655   -0.1294 O   0  0  0  0  0  0  0  0  0  0  0  0
   -2.7165    0.9182   -1.0881 H   0  0  0  0  0  0  0  0  0  0  0  0
   -3.9872    0.4799    0.1498 H   0  0  0  0  0  0  0  0  0  0  0  0
   -3.4247   -0.7050   -1.0880 H   0  0  0  0  0  0  0  0  0  0  0  0
   -2.1299   -1.4666    0.8424 H   0  0  0  0  0  0  0  0  0  0  0  0
   -0.5071    0.8917   -0.5511 H   0  0  0  0  0  0  0  0  0  0  0  0
    0.5114   -1.5229    1.0909 H   0  0  0  0  0  0  0  0  0  0  0  0
    0.2242   -1.7166   -0.6797 H   0  0  0  0  0  0  0  0  0  0  0  0
    1.7369    0.1865   -1.1530 H   0  0  0  0  0  0  0  0  0  0  0  0
    2.5503   -1.1195   -0.2584 H   0  0  0  0  0  0  0  0  0  0  0  0
    3.4140    2.1032    1.5487 H   0  0  0  0  0  0  0  0  0  0  0  0
  1  2  1  0
  2  3  1  0
  3  4  1  0
  4  5  1  0
  5  6  1  0
  6  7  1  0
  7  8  1  0
  8  9  2  0
  4  2  1  0
  1 10  1  0
  1 11  1  0
  1 12  1  0
  2 13  1  0
  4 14  1  0
  5 15  1  0
  5 16  1  0
  6 17  1  0
  6 18  1  0
  8 19  1  0
M  END
