
     RDKit          3D

 19 20  0  0  0  0  0  0  0  0999 V2000
   -2.6367   -0.3487    0.2570 C   0  0  0  0  0  0  0  0  0  0  0  0
   -1.2212   -0.2363   -0.2094 C   0  0  0  0  0  0  0  0  0  0  0  0
   -0.2968   -0.6611    0.7597 O   0  0  0  0  0  0  0  0  0  0  0  0
    0.8832    0.0683    0.5667 C   0  0  0  0  0  0  0  0  0  0  0  0
    2.0933   -0.8229    0.5181 C   0  0  0  0  0  0  0  0  0  0  0  0
    3.2048   -0.0029    0.3243 O   0  0  0  0  0  0  0  0  0  0  0  0
    0.6736    0.6839   -0.7706 C   0  0  0  0  0  0  0  0  0  0  0  0
    0.0768    1.7616   -1.1932 O   0  0  0  0  0  0  0  0  0  0  0  0
   -0.7699    1.1704   -0.4041 C   0  0  0  0  0  0  0  0  0  0  0  0
   -3.2578    0.2887   -0.4322 H   0  0  0  0  0  0  0  0  0  0  0  0
   -3.0085   -1.3734    0.1750 H   0  0  0  0  0  0  0  0  0  0  0  0
   -2.7797   -0.0249    1.3034 H   0  0  0  0  0  0  0  0  0  0  0  0
   -1.0896   -0.8489   -1.1281 H   0  0  0  0  0  0  0  0  0  0  0  0
    1.0230    0.8616    1.3096 H   0  0  0  0  0  0  0  0  0  0  0  0
    2.1863   -1.4611    1.4222 H   0  0  0  0  0  0  0  0  0  0  0  0
    2.0408   -1.5167   -0.3493 H   0  0  0  0  0  0  0  0  0  0  0  0
    3.0131    0.8691    0.7681 H   0  0  0  0  0  0  0  0  0  0  0  0
    0.7204   -0.1125   -1.5768 H   0  0  0  0  0  0  0  0  0  0  0  0
   -0.8551    1.7059    0.5956 H   0  0  0  0  0  0  0  0  0  0  0  0
  1  2  1  0
  2  3  1  0
  3  4  1  0
  4  5  1  0
  5  6  1  0
  4  7  1  0
  7  8  1  0
  8  9  1  0
  9  2  1  0
  9  7  1  0
  1 10  1  0
  1 11  1  0
  1 12  1  0
  2 13  1  0
  4 14  1  0
  5 15  1  0
  5 16  1  0
  6 17  1  0
  7 18  1  0
  9 19  1  0
M  END
