
     RDKit          3D

 19 20  0  0  0  0  0  0  0  0999 V2000
    2.6986    0.4374    0.3624 C   0  0  0  0  0  0  0  0  0  0  0  0
    1.6399   -0.5474    0.0595 C   0  0  0  0  0  0  0  0  0  0  0  0
    0.7248   -0.0893   -0.9229 O   0  0  0  0  0  0  0  0  0  0  0  0
   -0.3476   -0.8530   -0.5717 C   0  0  0  0  0  0  0  0  0  0  0  0
   -1.4920   -0.6475    0.2114 C   0  0  0  0  0  0  0  0  0  0  0  0
   -2.4591    0.4385   -0.2779 C   0  0  0  0  0  0  0  0  0  0  0  0
   -1.7641    1.6376   -0.3075 O   0  0  0  0  0  0  0  0  0  0  0  0
   -0.3241   -0.3030    0.9151 C   0  0  0  0  0  0  0  0  0  0  0  0
    0.8636   -0.9000    1.1872 O   0  0  0  0  0  0  0  0  0  0  0  0
    2.4195    1.2114    1.0995 H   0  0  0  0  0  0  0  0  0  0  0  0
    3.5770   -0.1205    0.7954 H   0  0  0  0  0  0  0  0  0  0  0  0
    3.0529    0.8984   -0.5625 H   0  0  0  0  0  0  0  0  0  0  0  0
    2.0735   -1.4760   -0.3449 H   0  0  0  0  0  0  0  0  0  0  0  0
   -0.0323   -1.9398   -0.6809 H   0  0  0  0  0  0  0  0  0  0  0  0
   -2.0874   -1.5295    0.5842 H   0  0  0  0  0  0  0  0  0  0  0  0
   -3.3326    0.5211    0.3865 H   0  0  0  0  0  0  0  0  0  0  0  0
   -2.8666    0.1733   -1.2871 H   0  0  0  0  0  0  0  0  0  0  0  0
   -2.1750    2.2702    0.3520 H   0  0  0  0  0  0  0  0  0  0  0  0
   -0.1688    0.8180    1.0119 H   0  0  0  0  0  0  0  0  0  0  0  0
  1  2  1  0
  2  3  1  0
  3  4  1  0
  4  5  1  0
  5  6  1  0
  6  7  1  0
  5  8  1  0
  8  9  1  0
  9  2  1  0
  8  4  1  0
  1 10  1  0
  1 11  1  0
  1 12  1  0
  2 13  1  0
  4 14  1  0
  5 15  1  0
  6 16  1  0
  6 17  1  0
  7 18  1  0
  8 19  1  0
M  END
