
     RDKit          3D

 21 23  0  0  0  0  0  0  0  0999 V2000
    2.2507    0.9528   -0.6672 C   0  0  0  0  0  0  0  0  0  0  0  0
    1.5270   -0.1512    0.0280 C   0  0  0  0  0  0  0  0  0  0  0  0
    1.3480   -1.2814   -0.7170 O   0  0  0  0  0  0  0  0  0  0  0  0
    0.1609   -1.9048   -0.3005 C   0  0  0  0  0  0  0  0  0  0  0  0
   -1.0582   -1.1004   -0.5631 C   0  0  0  0  0  0  0  0  0  0  0  0
   -0.8378    0.4107   -0.6556 C   0  0  0  0  0  0  0  0  0  0  0  0
   -2.1101    1.1066   -0.2702 C   0  0  0  0  0  0  0  0  0  0  0  0
    0.1392    0.2709    0.5018 C   0  0  0  0  0  0  0  0  0  0  0  0
   -0.4502   -1.0837    0.7537 C   0  0  0  0  0  0  0  0  0  0  0  0
    1.8518    1.2166   -1.6476 H   0  0  0  0  0  0  0  0  0  0  0  0
    2.2627    1.8308    0.0394 H   0  0  0  0  0  0  0  0  0  0  0  0
    3.3055    0.6574   -0.7832 H   0  0  0  0  0  0  0  0  0  0  0  0
    2.1086   -0.4229    0.9417 H   0  0  0  0  0  0  0  0  0  0  0  0
    0.0912   -2.9983   -0.3264 H   0  0  0  0  0  0  0  0  0  0  0  0
   -2.0250   -1.5254   -0.8089 H   0  0  0  0  0  0  0  0  0  0  0  0
   -0.4086    0.7538   -1.5988 H   0  0  0  0  0  0  0  0  0  0  0  0
   -2.8757    0.8545   -1.0586 H   0  0  0  0  0  0  0  0  0  0  0  0
   -2.4808    0.6229    0.6610 H   0  0  0  0  0  0  0  0  0  0  0  0
   -2.0456    2.1893   -0.2231 H   0  0  0  0  0  0  0  0  0  0  0  0
    0.0950    1.0138    1.2792 H   0  0  0  0  0  0  0  0  0  0  0  0
   -0.8484   -1.4120    1.6844 H   0  0  0  0  0  0  0  0  0  0  0  0
  1  2  1  0
  2  3  1  0
  3  4  1  0
  4  5  1  0
  5  6  1  0
  6  7  1  0
  6  8  1  0
  8  9  1  0
  8  2  1  0
  9  4  1  0
  9  5  1  0
  1 10  1  0
  1 11  1  0
  1 12  1  0
  2 13  1  0
  4 14  1  0
  5 15  1  0
  6 16  1  0
  7 17  1  0
  7 18  1  0
  7 19  1  0
  8 20  1  0
  9 21  1  0
M  END
