
     RDKit          3D

 18 19  0  0  0  0  0  0  0  0999 V2000
   -2.0490   -0.7112    0.3730 C   0  0  0  0  0  0  0  0  0  0  0  0
   -0.9270   -0.6161   -0.6258 C   0  0  0  0  0  0  0  0  0  0  0  0
    0.1379   -1.4888   -0.3485 O   0  0  0  0  0  0  0  0  0  0  0  0
    1.0427   -0.4218   -0.5250 C   0  0  0  0  0  0  0  0  0  0  0  0
    2.1245   -0.4269    0.4974 C   0  0  0  0  0  0  0  0  0  0  0  0
   -0.0526    0.5489   -0.4043 C   0  0  0  0  0  0  0  0  0  0  0  0
   -0.1982    1.7330    0.2377 C   0  0  0  0  0  0  0  0  0  0  0  0
   -0.0386    1.6568   -1.2027 O   0  0  0  0  0  0  0  0  0  0  0  0
   -2.9364   -0.2039   -0.0988 H   0  0  0  0  0  0  0  0  0  0  0  0
   -2.2546   -1.7649    0.6210 H   0  0  0  0  0  0  0  0  0  0  0  0
   -1.8201   -0.0981    1.2757 H   0  0  0  0  0  0  0  0  0  0  0  0
   -1.2458   -0.7656   -1.6931 H   0  0  0  0  0  0  0  0  0  0  0  0
    1.4113   -0.4721   -1.5906 H   0  0  0  0  0  0  0  0  0  0  0  0
    1.9407   -1.1535    1.3336 H   0  0  0  0  0  0  0  0  0  0  0  0
    3.0535   -0.8265   -0.0065 H   0  0  0  0  0  0  0  0  0  0  0  0
    2.3745    0.5634    0.9109 H   0  0  0  0  0  0  0  0  0  0  0  0
    0.6256    2.2686    0.7690 H   0  0  0  0  0  0  0  0  0  0  0  0
   -1.1884    2.1788    0.4770 H   0  0  0  0  0  0  0  0  0  0  0  0
  1  2  1  0
  2  3  1  0
  3  4  1  0
  4  5  1  0
  4  6  1  0
  6  7  1  0
  7  8  1  0
  6  2  1  0
  8  6  1  0
  1  9  1  0
  1 10  1  0
  1 11  1  0
  2 12  1  0
  4 13  1  0
  5 14  1  0
  5 15  1  0
  5 16  1  0
  7 17  1  0
  7 18  1  0
M  END
