
     RDKit          3D

 21 23  0  0  0  0  0  0  0  0999 V2000
    2.1953    1.4006    0.0143 C   0  0  0  0  0  0  0  0  0  0  0  0
    1.6301    0.1054   -0.5101 C   0  0  0  0  0  0  0  0  0  0  0  0
    1.7594   -0.9312    0.4436 O   0  0  0  0  0  0  0  0  0  0  0  0
    0.4639   -1.3055    0.6671 C   0  0  0  0  0  0  0  0  0  0  0  0
   -0.2910   -0.0243    0.8204 C   0  0  0  0  0  0  0  0  0  0  0  0
   -1.4692   -0.7451    0.2225 C   0  0  0  0  0  0  0  0  0  0  0  0
   -2.4555    0.1735   -0.4605 C   0  0  0  0  0  0  0  0  0  0  0  0
   -0.3028   -1.1832   -0.6243 C   0  0  0  0  0  0  0  0  0  0  0  0
    0.1460    0.2298   -0.5884 C   0  0  0  0  0  0  0  0  0  0  0  0
    1.6060    1.7743    0.8655 H   0  0  0  0  0  0  0  0  0  0  0  0
    3.2683    1.2586    0.2801 H   0  0  0  0  0  0  0  0  0  0  0  0
    2.0894    2.1401   -0.8063 H   0  0  0  0  0  0  0  0  0  0  0  0
    2.1307   -0.2122   -1.4165 H   0  0  0  0  0  0  0  0  0  0  0  0
    0.2405   -2.1298    1.3179 H   0  0  0  0  0  0  0  0  0  0  0  0
   -0.2927    0.6096    1.5929 H   0  0  0  0  0  0  0  0  0  0  0  0
   -1.9190   -1.5421    0.8355 H   0  0  0  0  0  0  0  0  0  0  0  0
   -3.4933   -0.2309   -0.4175 H   0  0  0  0  0  0  0  0  0  0  0  0
   -2.2177    0.2889   -1.5404 H   0  0  0  0  0  0  0  0  0  0  0  0
   -2.4564    1.1748    0.0337 H   0  0  0  0  0  0  0  0  0  0  0  0
   -0.3149   -1.8332   -1.3819 H   0  0  0  0  0  0  0  0  0  0  0  0
   -0.3171    0.9820   -1.1732 H   0  0  0  0  0  0  0  0  0  0  0  0
  1  2  1  0
  2  3  1  0
  3  4  1  0
  4  5  1  0
  5  6  1  0
  6  7  1  0
  6  8  1  0
  8  9  1  0
  9  2  1  0
  8  4  1  0
  9  5  1  0
  1 10  1  0
  1 11  1  0
  1 12  1  0
  2 13  1  0
  4 14  1  0
  5 15  1  0
  6 16  1  0
  7 17  1  0
  7 18  1  0
  7 19  1  0
  8 20  1  0
  9 21  1  0
M  END
