
     RDKit          3D

 23 24  0  0  0  0  0  0  0  0999 V2000
   -1.7471    1.6945   -0.0367 C   0  0  0  0  0  0  0  0  0  0  0  0
   -0.4553    1.0089    0.4164 C   0  0  0  0  0  0  0  0  0  0  0  0
    0.4825    1.3667   -0.5781 O   0  0  0  0  0  0  0  0  0  0  0  0
    1.6899    0.7667   -0.5024 C   0  0  0  0  0  0  0  0  0  0  0  0
    1.6617   -0.7442   -0.2126 C   0  0  0  0  0  0  0  0  0  0  0  0
    0.8180   -0.8750    0.9762 C   0  0  0  0  0  0  0  0  0  0  0  0
   -0.4077   -1.5020    1.2757 C   0  0  0  0  0  0  0  0  0  0  0  0
   -0.5666   -0.4549    0.3524 C   0  0  0  0  0  0  0  0  0  0  0  0
   -0.8200   -0.8966   -1.1008 C   0  0  0  0  0  0  0  0  0  0  0  0
   -1.5228    2.7502   -0.3587 H   0  0  0  0  0  0  0  0  0  0  0  0
   -2.4398    1.6419    0.8001 H   0  0  0  0  0  0  0  0  0  0  0  0
   -2.0839    1.1788   -0.9566 H   0  0  0  0  0  0  0  0  0  0  0  0
   -0.1009    1.3926    1.3831 H   0  0  0  0  0  0  0  0  0  0  0  0
    2.2340    0.9682   -1.4397 H   0  0  0  0  0  0  0  0  0  0  0  0
    2.2386    1.1999    0.3853 H   0  0  0  0  0  0  0  0  0  0  0  0
    1.3330   -1.2241   -1.1300 H   0  0  0  0  0  0  0  0  0  0  0  0
    2.6961   -1.0478   -0.0115 H   0  0  0  0  0  0  0  0  0  0  0  0
    1.2160   -0.1993    1.7952 H   0  0  0  0  0  0  0  0  0  0  0  0
   -0.8564   -1.4066    2.2886 H   0  0  0  0  0  0  0  0  0  0  0  0
   -0.5361   -2.5690    0.9351 H   0  0  0  0  0  0  0  0  0  0  0  0
   -1.9231   -0.8408   -1.2172 H   0  0  0  0  0  0  0  0  0  0  0  0
   -0.3491   -0.2362   -1.8236 H   0  0  0  0  0  0  0  0  0  0  0  0
   -0.5610   -1.9719   -1.2401 H   0  0  0  0  0  0  0  0  0  0  0  0
  1  2  1  0
  2  3  1  0
  3  4  1  0
  4  5  1  0
  5  6  1  0
  6  7  1  0
  7  8  1  0
  8  9  1  0
  8  2  1  0
  8  6  1  0
  1 10  1  0
  1 11  1  0
  1 12  1  0
  2 13  1  0
  4 14  1  0
  4 15  1  0
  5 16  1  0
  5 17  1  0
  6 18  1  0
  7 19  1  0
  7 20  1  0
  9 21  1  0
  9 22  1  0
  9 23  1  0
M  END
