
     RDKit          3D

 17 18  0  0  0  0  0  0  0  0999 V2000
    2.3016   -0.2234    0.1494 C   0  0  0  0  0  0  0  0  0  0  0  0
    0.8764   -0.2829   -0.3518 C   0  0  0  0  0  0  0  0  0  0  0  0
    0.1757   -1.1373    0.4706 O   0  0  0  0  0  0  0  0  0  0  0  0
   -1.1743   -1.1926    0.2055 C   0  0  0  0  0  0  0  0  0  0  0  0
   -1.8902    0.1128    0.3677 C   0  0  0  0  0  0  0  0  0  0  0  0
   -2.1816    0.7465   -0.8450 O   0  0  0  0  0  0  0  0  0  0  0  0
   -1.1838    1.3018   -0.0568 C   0  0  0  0  0  0  0  0  0  0  0  0
    0.2369    1.0620   -0.3966 C   0  0  0  0  0  0  0  0  0  0  0  0
    0.9201    2.0157   -0.7311 O   0  0  0  0  0  0  0  0  0  0  0  0
    3.0205   -0.6121   -0.6233 H   0  0  0  0  0  0  0  0  0  0  0  0
    2.4585   -0.8681    1.0469 H   0  0  0  0  0  0  0  0  0  0  0  0
    2.5603    0.8086    0.4614 H   0  0  0  0  0  0  0  0  0  0  0  0
    0.9032   -0.6418   -1.4204 H   0  0  0  0  0  0  0  0  0  0  0  0
   -1.6150   -1.9324    0.9198 H   0  0  0  0  0  0  0  0  0  0  0  0
   -1.3218   -1.6282   -0.8016 H   0  0  0  0  0  0  0  0  0  0  0  0
   -2.6130    0.2043    1.2043 H   0  0  0  0  0  0  0  0  0  0  0  0
   -1.4734    2.2673    0.4010 H   0  0  0  0  0  0  0  0  0  0  0  0
  1  2  1  0
  2  3  1  0
  3  4  1  0
  4  5  1  0
  5  6  1  0
  6  7  1  0
  7  8  1  0
  8  9  2  0
  8  2  1  0
  7  5  1  0
  1 10  1  0
  1 11  1  0
  1 12  1  0
  2 13  1  0
  4 14  1  0
  4 15  1  0
  5 16  1  0
  7 17  1  0
M  END
