
     RDKit          3D

 19 20  0  0  0  0  0  0  0  0999 V2000
   -2.0854   -1.0251    0.4843 C   0  0  0  0  0  0  0  0  0  0  0  0
   -1.5431    0.0719   -0.3912 C   0  0  0  0  0  0  0  0  0  0  0  0
   -0.5141   -0.2901   -1.2413 O   0  0  0  0  0  0  0  0  0  0  0  0
    0.4882    0.4093   -0.5342 C   0  0  0  0  0  0  0  0  0  0  0  0
    1.4565   -0.5665    0.0495 C   0  0  0  0  0  0  0  0  0  0  0  0
    2.8693   -0.4516   -0.5247 C   0  0  0  0  0  0  0  0  0  0  0  0
    2.5370   -0.1591    0.7909 O   0  0  0  0  0  0  0  0  0  0  0  0
   -0.5732    0.9449    0.3710 C   0  0  0  0  0  0  0  0  0  0  0  0
   -0.7611    2.3135    0.1899 O   0  0  0  0  0  0  0  0  0  0  0  0
   -2.1905   -0.6504    1.5436 H   0  0  0  0  0  0  0  0  0  0  0  0
   -1.3631   -1.8691    0.4964 H   0  0  0  0  0  0  0  0  0  0  0  0
   -3.0758   -1.3609    0.1009 H   0  0  0  0  0  0  0  0  0  0  0  0
   -2.3365    0.6028   -0.9329 H   0  0  0  0  0  0  0  0  0  0  0  0
    0.9281    1.1799   -1.2230 H   0  0  0  0  0  0  0  0  0  0  0  0
    1.1045   -1.5928    0.2659 H   0  0  0  0  0  0  0  0  0  0  0  0
    3.1119    0.4565   -1.1226 H   0  0  0  0  0  0  0  0  0  0  0  0
    3.3479   -1.3946   -0.7888 H   0  0  0  0  0  0  0  0  0  0  0  0
   -0.3921    0.6380    1.4215 H   0  0  0  0  0  0  0  0  0  0  0  0
   -1.0085    2.7433    1.0448 H   0  0  0  0  0  0  0  0  0  0  0  0
  1  2  1  0
  2  3  1  0
  3  4  1  0
  4  5  1  0
  5  6  1  0
  6  7  1  0
  4  8  1  0
  8  9  1  0
  8  2  1  0
  7  5  1  0
  1 10  1  0
  1 11  1  0
  1 12  1  0
  2 13  1  0
  4 14  1  0
  5 15  1  0
  6 16  1  0
  6 17  1  0
  8 18  1  0
  9 19  1  0
M  END
