
     RDKit          3D

 19 20  0  0  0  0  0  0  0  0999 V2000
    2.3552    0.3375    0.4921 C   0  0  0  0  0  0  0  0  0  0  0  0
    1.2444    0.1523   -0.5197 C   0  0  0  0  0  0  0  0  0  0  0  0
    1.1979   -1.1903   -0.8534 O   0  0  0  0  0  0  0  0  0  0  0  0
   -0.1122   -1.6242   -0.8930 C   0  0  0  0  0  0  0  0  0  0  0  0
   -1.0033   -0.4453   -0.7237 C   0  0  0  0  0  0  0  0  0  0  0  0
   -2.0952   -0.5909    0.0850 O   0  0  0  0  0  0  0  0  0  0  0  0
   -2.2531    0.6540    0.7269 C   0  0  0  0  0  0  0  0  0  0  0  0
   -0.8542    1.1066    0.9157 C   0  0  0  0  0  0  0  0  0  0  0  0
   -0.0930    0.4541    0.0715 C   0  0  0  0  0  0  0  0  0  0  0  0
    3.2081    0.8837    0.0515 H   0  0  0  0  0  0  0  0  0  0  0  0
    2.7550   -0.6373    0.8610 H   0  0  0  0  0  0  0  0  0  0  0  0
    2.0248    0.8849    1.3966 H   0  0  0  0  0  0  0  0  0  0  0  0
    1.4021    0.8122   -1.3963 H   0  0  0  0  0  0  0  0  0  0  0  0
   -0.2716   -2.4077   -0.1249 H   0  0  0  0  0  0  0  0  0  0  0  0
   -0.2832   -2.0534   -1.9040 H   0  0  0  0  0  0  0  0  0  0  0  0
   -1.2414    0.0700   -1.6870 H   0  0  0  0  0  0  0  0  0  0  0  0
   -2.8687    1.3474    0.1565 H   0  0  0  0  0  0  0  0  0  0  0  0
   -2.6554    0.4026    1.7349 H   0  0  0  0  0  0  0  0  0  0  0  0
   -0.4560    1.8437    1.6102 H   0  0  0  0  0  0  0  0  0  0  0  0
  1  2  1  0
  2  3  1  0
  3  4  1  0
  4  5  1  0
  5  6  1  0
  6  7  1  0
  7  8  1  0
  8  9  2  0
  9  2  1  0
  9  5  1  0
  1 10  1  0
  1 11  1  0
  1 12  1  0
  2 13  1  0
  4 14  1  0
  4 15  1  0
  5 16  1  0
  7 17  1  0
  7 18  1  0
  8 19  1  0
M  END
