
     RDKit          3D

 19 19  0  0  0  0  0  0  0  0999 V2000
    2.1451   -0.3239    0.4404 C   0  0  0  0  0  0  0  0  0  0  0  0
    1.2677   -0.1704   -0.7840 C   0  0  0  0  0  0  0  0  0  0  0  0
    1.0515    1.1363   -1.1250 O   0  0  0  0  0  0  0  0  0  0  0  0
    0.0294    1.7620   -0.4746 C   0  0  0  0  0  0  0  0  0  0  0  0
   -1.2008    1.0849   -0.5846 O   0  0  0  0  0  0  0  0  0  0  0  0
   -1.0431   -0.0733    0.2088 C   0  0  0  0  0  0  0  0  0  0  0  0
   -2.3227   -0.7659    0.4577 C   0  0  0  0  0  0  0  0  0  0  0  0
   -0.0181   -0.9020   -0.4802 C   0  0  0  0  0  0  0  0  0  0  0  0
   -0.1831   -2.0690   -0.7808 O   0  0  0  0  0  0  0  0  0  0  0  0
    1.5095   -0.3950    1.3336 H   0  0  0  0  0  0  0  0  0  0  0  0
    2.7396   -1.2576    0.3872 H   0  0  0  0  0  0  0  0  0  0  0  0
    2.8557    0.5243    0.4627 H   0  0  0  0  0  0  0  0  0  0  0  0
    1.8003   -0.6575   -1.6415 H   0  0  0  0  0  0  0  0  0  0  0  0
   -0.0996    2.7709   -0.9336 H   0  0  0  0  0  0  0  0  0  0  0  0
    0.1829    1.8552    0.6359 H   0  0  0  0  0  0  0  0  0  0  0  0
   -0.6016    0.2418    1.1735 H   0  0  0  0  0  0  0  0  0  0  0  0
   -3.1286    0.0178    0.5530 H   0  0  0  0  0  0  0  0  0  0  0  0
   -2.6440   -1.4844   -0.2958 H   0  0  0  0  0  0  0  0  0  0  0  0
   -2.3402   -1.2943    1.4473 H   0  0  0  0  0  0  0  0  0  0  0  0
  1  2  1  0
  2  3  1  0
  3  4  1  0
  4  5  1  0
  5  6  1  0
  6  7  1  0
  6  8  1  0
  8  9  2  0
  8  2  1  0
  1 10  1  0
  1 11  1  0
  1 12  1  0
  2 13  1  0
  4 14  1  0
  4 15  1  0
  6 16  1  0
  7 17  1  0
  7 18  1  0
  7 19  1  0
M  END
