
     RDKit          3D

 19 20  0  0  0  0  0  0  0  0999 V2000
    3.0946    0.0878    0.1712 C   0  0  0  0  0  0  0  0  0  0  0  0
    1.7089    0.3213    0.6587 C   0  0  0  0  0  0  0  0  0  0  0  0
    1.1870    1.5977    0.1953 O   0  0  0  0  0  0  0  0  0  0  0  0
    0.5224    0.3209   -0.1878 C   0  0  0  0  0  0  0  0  0  0  0  0
   -0.8128    0.2473    0.5078 C   0  0  0  0  0  0  0  0  0  0  0  0
   -1.6925    1.3045    0.1786 O   0  0  0  0  0  0  0  0  0  0  0  0
   -2.7329    0.3898    0.4638 C   0  0  0  0  0  0  0  0  0  0  0  0
   -1.8101   -0.6873   -0.1257 C   0  0  0  0  0  0  0  0  0  0  0  0
   -1.9598   -1.9126    0.4697 O   0  0  0  0  0  0  0  0  0  0  0  0
    3.6482    1.0492    0.0293 H   0  0  0  0  0  0  0  0  0  0  0  0
    3.1615   -0.4647   -0.7745 H   0  0  0  0  0  0  0  0  0  0  0  0
    3.7051   -0.4714    0.9373 H   0  0  0  0  0  0  0  0  0  0  0  0
    1.5703    0.1924    1.7606 H   0  0  0  0  0  0  0  0  0  0  0  0
    0.5726    0.1110   -1.2548 H   0  0  0  0  0  0  0  0  0  0  0  0
   -0.7823    0.1394    1.5913 H   0  0  0  0  0  0  0  0  0  0  0  0
   -2.7974    0.2809    1.5656 H   0  0  0  0  0  0  0  0  0  0  0  0
   -3.6591    0.5529   -0.0810 H   0  0  0  0  0  0  0  0  0  0  0  0
   -1.7960   -0.6402   -1.2169 H   0  0  0  0  0  0  0  0  0  0  0  0
   -1.1276   -2.4187    0.4130 H   0  0  0  0  0  0  0  0  0  0  0  0
  1  2  1  0
  2  3  1  0
  3  4  1  0
  4  5  1  0
  5  6  1  0
  6  7  1  0
  7  8  1  0
  8  9  1  0
  4  2  1  0
  8  5  1  0
  1 10  1  0
  1 11  1  0
  1 12  1  0
  2 13  1  0
  4 14  1  0
  5 15  1  0
  7 16  1  0
  7 17  1  0
  8 18  1  0
  9 19  1  0
M  END
