
     RDKit          3D

 16 16  0  0  0  0  0  0  0  0999 V2000
    1.6010   -0.0264    0.4043 C   0  0  0  0  0  0  0  0  0  0  0  0
    0.6742   -0.2041   -0.7566 C   0  0  0  0  0  0  0  0  0  0  0  0
    0.3214    1.1099   -1.2037 O   0  0  0  0  0  0  0  0  0  0  0  0
   -0.6593    1.5289   -0.3055 C   0  0  0  0  0  0  0  0  0  0  0  0
   -0.9366    2.7080    0.0663 O   0  0  0  0  0  0  0  0  0  0  0  0
   -1.4087    0.3371    0.2129 C   0  0  0  0  0  0  0  0  0  0  0  0
   -0.6523   -0.7933   -0.4012 C   0  0  0  0  0  0  0  0  0  0  0  0
   -0.5814   -1.9258    0.3808 O   0  0  0  0  0  0  0  0  0  0  0  0
    2.1998   -0.9440    0.6138 H   0  0  0  0  0  0  0  0  0  0  0  0
    2.3609    0.7534    0.1284 H   0  0  0  0  0  0  0  0  0  0  0  0
    1.0609    0.3393    1.3107 H   0  0  0  0  0  0  0  0  0  0  0  0
    1.1885   -0.7827   -1.5426 H   0  0  0  0  0  0  0  0  0  0  0  0
   -1.3825    0.3418    1.3299 H   0  0  0  0  0  0  0  0  0  0  0  0
   -2.4379    0.4065   -0.1657 H   0  0  0  0  0  0  0  0  0  0  0  0
   -1.1652   -1.0743   -1.3446 H   0  0  0  0  0  0  0  0  0  0  0  0
   -0.1828   -1.7743    1.2728 H   0  0  0  0  0  0  0  0  0  0  0  0
  1  2  1  0
  2  3  1  0
  3  4  1  0
  4  5  2  0
  4  6  1  0
  6  7  1  0
  7  8  1  0
  7  2  1  0
  1  9  1  0
  1 10  1  0
  1 11  1  0
  2 12  1  0
  6 13  1  0
  6 14  1  0
  7 15  1  0
  8 16  1  0
M  END
