
     RDKit          3D

 21 23  0  0  0  0  0  0  0  0999 V2000
   -2.0286    1.4739   -0.0230 C   0  0  0  0  0  0  0  0  0  0  0  0
   -0.6740    1.0060   -0.4254 C   0  0  0  0  0  0  0  0  0  0  0  0
    0.3891    1.5369    0.3430 O   0  0  0  0  0  0  0  0  0  0  0  0
    1.0189    0.2973    0.1725 C   0  0  0  0  0  0  0  0  0  0  0  0
    2.2170   -0.1007    0.8552 C   0  0  0  0  0  0  0  0  0  0  0  0
    2.2129    0.1410   -0.6513 C   0  0  0  0  0  0  0  0  0  0  0  0
   -0.2508   -0.3486    0.0208 C   0  0  0  0  0  0  0  0  0  0  0  0
   -0.6239   -1.5778   -0.6189 C   0  0  0  0  0  0  0  0  0  0  0  0
   -0.9784   -1.2535    0.8509 C   0  0  0  0  0  0  0  0  0  0  0  0
   -2.1559    1.5063    1.0652 H   0  0  0  0  0  0  0  0  0  0  0  0
   -2.1450    2.5251   -0.3886 H   0  0  0  0  0  0  0  0  0  0  0  0
   -2.7800    0.8371   -0.5103 H   0  0  0  0  0  0  0  0  0  0  0  0
   -0.4362    1.1730   -1.4891 H   0  0  0  0  0  0  0  0  0  0  0  0
    2.3970   -1.1297    1.2033 H   0  0  0  0  0  0  0  0  0  0  0  0
    2.8588    0.6445    1.4041 H   0  0  0  0  0  0  0  0  0  0  0  0
    2.6772    1.0731   -1.0388 H   0  0  0  0  0  0  0  0  0  0  0  0
    2.2730   -0.7654   -1.2999 H   0  0  0  0  0  0  0  0  0  0  0  0
   -1.5074   -1.5502   -1.3194 H   0  0  0  0  0  0  0  0  0  0  0  0
    0.0573   -2.4073   -0.8141 H   0  0  0  0  0  0  0  0  0  0  0  0
   -0.4547   -1.9278    1.5755 H   0  0  0  0  0  0  0  0  0  0  0  0
   -2.0664   -1.1531    1.0882 H   0  0  0  0  0  0  0  0  0  0  0  0
  1  2  1  0
  2  3  1  0
  3  4  1  0
  4  5  1  0
  5  6  1  0
  4  7  1  0
  7  8  1  0
  8  9  1  0
  7  2  1  0
  6  4  1  0
  9  7  1  0
  1 10  1  0
  1 11  1  0
  1 12  1  0
  2 13  1  0
  5 14  1  0
  5 15  1  0
  6 16  1  0
  6 17  1  0
  8 18  1  0
  8 19  1  0
  9 20  1  0
  9 21  1  0
M  END
