
     RDKit          3D

 18 19  0  0  0  0  0  0  0  0999 V2000
    2.1414   -0.5093    0.2136 C   0  0  0  0  0  0  0  0  0  0  0  0
    1.0198   -0.0458   -0.7154 C   0  0  0  0  0  0  0  0  0  0  0  0
    0.4259   -1.0520   -1.4509 O   0  0  0  0  0  0  0  0  0  0  0  0
   -0.8001   -0.6901   -0.9242 C   0  0  0  0  0  0  0  0  0  0  0  0
   -0.9996   -0.9746    0.5306 C   0  0  0  0  0  0  0  0  0  0  0  0
   -2.2889   -0.8708    1.0106 O   0  0  0  0  0  0  0  0  0  0  0  0
   -0.2193    0.1845    0.0975 C   0  0  0  0  0  0  0  0  0  0  0  0
   -0.6526    1.5985    0.3137 C   0  0  0  0  0  0  0  0  0  0  0  0
    2.2657    0.1991    1.0525 H   0  0  0  0  0  0  0  0  0  0  0  0
    3.0408   -0.6047   -0.3978 H   0  0  0  0  0  0  0  0  0  0  0  0
    1.8200   -1.5006    0.6145 H   0  0  0  0  0  0  0  0  0  0  0  0
    1.2914    0.8136   -1.3418 H   0  0  0  0  0  0  0  0  0  0  0  0
   -1.6357   -0.3929   -1.5707 H   0  0  0  0  0  0  0  0  0  0  0  0
   -0.4552   -1.8653    0.9095 H   0  0  0  0  0  0  0  0  0  0  0  0
   -2.8285   -0.1919    0.5569 H   0  0  0  0  0  0  0  0  0  0  0  0
    0.2440    2.2561    0.1636 H   0  0  0  0  0  0  0  0  0  0  0  0
   -0.9695    1.7081    1.3621 H   0  0  0  0  0  0  0  0  0  0  0  0
   -1.3997    1.9381   -0.4243 H   0  0  0  0  0  0  0  0  0  0  0  0
  1  2  1  0
  2  3  1  0
  3  4  1  0
  4  5  1  0
  5  6  1  0
  5  7  1  0
  7  8  1  0
  7  2  1  0
  7  4  1  0
  1  9  1  0
  1 10  1  0
  1 11  1  0
  2 12  1  0
  4 13  1  0
  5 14  1  0
  6 15  1  0
  8 16  1  0
  8 17  1  0
  8 18  1  0
M  END
