
     RDKit          3D

 18 19  0  0  0  0  0  0  0  0999 V2000
   -1.9795    0.6727   -0.0538 C   0  0  0  0  0  0  0  0  0  0  0  0
   -0.7637   -0.0809   -0.4866 C   0  0  0  0  0  0  0  0  0  0  0  0
   -0.8575   -1.4268   -0.2544 O   0  0  0  0  0  0  0  0  0  0  0  0
    0.3237   -1.8935    0.2475 C   0  0  0  0  0  0  0  0  0  0  0  0
    1.3865   -0.8347   -0.0180 C   0  0  0  0  0  0  0  0  0  0  0  0
    0.5114    0.4233    0.1073 C   0  0  0  0  0  0  0  0  0  0  0  0
    1.0737    1.6878    0.0535 C   0  0  0  0  0  0  0  0  0  0  0  0
    0.5376    1.1361    1.2772 O   0  0  0  0  0  0  0  0  0  0  0  0
   -2.7350   -0.0875    0.2980 H   0  0  0  0  0  0  0  0  0  0  0  0
   -2.4873    1.1972   -0.9012 H   0  0  0  0  0  0  0  0  0  0  0  0
   -1.8127    1.3764    0.7723 H   0  0  0  0  0  0  0  0  0  0  0  0
   -0.6757    0.0533   -1.6034 H   0  0  0  0  0  0  0  0  0  0  0  0
    0.5978   -2.8663   -0.2009 H   0  0  0  0  0  0  0  0  0  0  0  0
    0.2709   -1.9912    1.3683 H   0  0  0  0  0  0  0  0  0  0  0  0
    2.1956   -0.8468    0.7146 H   0  0  0  0  0  0  0  0  0  0  0  0
    1.7110   -0.9783   -1.0664 H   0  0  0  0  0  0  0  0  0  0  0  0
    2.1738    1.8528    0.0482 H   0  0  0  0  0  0  0  0  0  0  0  0
    0.5296    2.6064   -0.3021 H   0  0  0  0  0  0  0  0  0  0  0  0
  1  2  1  0
  2  3  1  0
  3  4  1  0
  4  5  1  0
  5  6  1  0
  6  7  1  0
  7  8  1  0
  6  2  1  0
  8  6  1  0
  1  9  1  0
  1 10  1  0
  1 11  1  0
  2 12  1  0
  4 13  1  0
  4 14  1  0
  5 15  1  0
  5 16  1  0
  7 17  1  0
  7 18  1  0
M  END
