
     RDKit          3D

 21 22  0  0  0  0  0  0  0  0999 V2000
   -0.1577   -2.0767    0.0929 C   0  0  0  0  0  0  0  0  0  0  0  0
    0.3540   -0.7023    0.3812 C   0  0  0  0  0  0  0  0  0  0  0  0
    1.5684   -0.4445   -0.2742 O   0  0  0  0  0  0  0  0  0  0  0  0
    2.1790    0.5922    0.4572 C   0  0  0  0  0  0  0  0  0  0  0  0
    1.1822    1.6691    0.8288 C   0  0  0  0  0  0  0  0  0  0  0  0
    0.0386    1.6055    0.0222 O   0  0  0  0  0  0  0  0  0  0  0  0
   -0.6241    0.3908    0.1435 C   0  0  0  0  0  0  0  0  0  0  0  0
   -1.9576    0.2138   -0.4051 C   0  0  0  0  0  0  0  0  0  0  0  0
   -1.8511    0.3326    1.0592 C   0  0  0  0  0  0  0  0  0  0  0  0
    0.4700   -2.7904    0.6984 H   0  0  0  0  0  0  0  0  0  0  0  0
   -0.1827   -2.3492   -0.9641 H   0  0  0  0  0  0  0  0  0  0  0  0
   -1.1849   -2.1492    0.4927 H   0  0  0  0  0  0  0  0  0  0  0  0
    0.6142   -0.6791    1.4803 H   0  0  0  0  0  0  0  0  0  0  0  0
    2.6510    0.1258    1.3374 H   0  0  0  0  0  0  0  0  0  0  0  0
    3.0040    1.0018   -0.1682 H   0  0  0  0  0  0  0  0  0  0  0  0
    0.9271    1.6326    1.9140 H   0  0  0  0  0  0  0  0  0  0  0  0
    1.6620    2.6537    0.5802 H   0  0  0  0  0  0  0  0  0  0  0  0
   -2.2879   -0.7814   -0.8059 H   0  0  0  0  0  0  0  0  0  0  0  0
   -2.3758    1.0851   -0.9838 H   0  0  0  0  0  0  0  0  0  0  0  0
   -2.0194    1.2598    1.6141 H   0  0  0  0  0  0  0  0  0  0  0  0
   -2.0095   -0.5900    1.6581 H   0  0  0  0  0  0  0  0  0  0  0  0
  1  2  1  0
  2  3  1  0
  3  4  1  0
  4  5  1  0
  5  6  1  0
  6  7  1  0
  7  8  1  0
  8  9  1  0
  7  2  1  0
  9  7  1  0
  1 10  1  0
  1 11  1  0
  1 12  1  0
  2 13  1  0
  4 14  1  0
  4 15  1  0
  5 16  1  0
  5 17  1  0
  8 18  1  0
  8 19  1  0
  9 20  1  0
  9 21  1  0
M  END
