
     RDKit          3D

 16 16  0  0  0  0  0  0  0  0999 V2000
   -1.0412   -1.4225    0.0022 C   0  0  0  0  0  0  0  0  0  0  0  0
   -0.1812   -0.4654   -0.7983 C   0  0  0  0  0  0  0  0  0  0  0  0
   -0.9894    0.5825   -1.2051 O   0  0  0  0  0  0  0  0  0  0  0  0
   -1.0418    1.4759   -0.1229 C   0  0  0  0  0  0  0  0  0  0  0  0
    0.3493    1.3238    0.4392 C   0  0  0  0  0  0  0  0  0  0  0  0
    0.8626    0.1753    0.0415 C   0  0  0  0  0  0  0  0  0  0  0  0
    2.1837   -0.3380    0.3707 C   0  0  0  0  0  0  0  0  0  0  0  0
    2.9182    0.3692    1.1034 O   0  0  0  0  0  0  0  0  0  0  0  0
   -0.8194   -1.3615    1.0977 H   0  0  0  0  0  0  0  0  0  0  0  0
   -0.7923   -2.4582   -0.3001 H   0  0  0  0  0  0  0  0  0  0  0  0
   -2.1215   -1.2357   -0.1757 H   0  0  0  0  0  0  0  0  0  0  0  0
    0.2690   -0.9801   -1.6682 H   0  0  0  0  0  0  0  0  0  0  0  0
   -1.2315    2.5139   -0.4531 H   0  0  0  0  0  0  0  0  0  0  0  0
   -1.7743    1.0816    0.5882 H   0  0  0  0  0  0  0  0  0  0  0  0
    0.8720    2.0440    1.0810 H   0  0  0  0  0  0  0  0  0  0  0  0
    2.5378   -1.3048   -0.0004 H   0  0  0  0  0  0  0  0  0  0  0  0
  1  2  1  0
  2  3  1  0
  3  4  1  0
  4  5  1  0
  5  6  2  0
  6  7  1  0
  7  8  2  0
  6  2  1  0
  1  9  1  0
  1 10  1  0
  1 11  1  0
  2 12  1  0
  4 13  1  0
  4 14  1  0
  5 15  1  0
  7 16  1  0
M  END
