
     RDKit          3D

 17 17  0  0  0  0  0  0  0  0999 V2000
    2.4932   -0.3898   -0.1201 C   0  0  0  0  0  0  0  0  0  0  0  0
    1.1048    0.0145    0.3057 C   0  0  0  0  0  0  0  0  0  0  0  0
    0.2952   -1.0836    0.2271 O   0  0  0  0  0  0  0  0  0  0  0  0
   -0.9364   -0.8640   -0.3449 C   0  0  0  0  0  0  0  0  0  0  0  0
   -1.5209    0.3724    0.3564 C   0  0  0  0  0  0  0  0  0  0  0  0
   -2.8495    0.4904    0.0215 O   0  0  0  0  0  0  0  0  0  0  0  0
   -0.6954    1.5037   -0.1840 C   0  0  0  0  0  0  0  0  0  0  0  0
   -1.1292    2.6479   -0.3653 O   0  0  0  0  0  0  0  0  0  0  0  0
    0.6283    1.1217   -0.4629 O   0  0  0  0  0  0  0  0  0  0  0  0
    2.4181   -1.1751   -0.9281 H   0  0  0  0  0  0  0  0  0  0  0  0
    2.9374   -0.9429    0.7534 H   0  0  0  0  0  0  0  0  0  0  0  0
    3.1109    0.4397   -0.4658 H   0  0  0  0  0  0  0  0  0  0  0  0
    1.1623    0.3501    1.3778 H   0  0  0  0  0  0  0  0  0  0  0  0
   -0.8144   -0.6112   -1.4274 H   0  0  0  0  0  0  0  0  0  0  0  0
   -1.5962   -1.7158   -0.2010 H   0  0  0  0  0  0  0  0  0  0  0  0
   -1.3289    0.2251    1.4259 H   0  0  0  0  0  0  0  0  0  0  0  0
   -3.2794   -0.3831    0.1959 H   0  0  0  0  0  0  0  0  0  0  0  0
  1  2  1  0
  2  3  1  0
  3  4  1  0
  4  5  1  0
  5  6  1  0
  5  7  1  0
  7  8  2  0
  7  9  1  0
  9  2  1  0
  1 10  1  0
  1 11  1  0
  1 12  1  0
  2 13  1  0
  4 14  1  0
  4 15  1  0
  5 16  1  0
  6 17  1  0
M  END
