
     RDKit          3D

 19 20  0  0  0  0  0  0  0  0999 V2000
   -2.0232    1.1627   -0.2997 C   0  0  0  0  0  0  0  0  0  0  0  0
   -1.0306    0.0417   -0.4371 C   0  0  0  0  0  0  0  0  0  0  0  0
   -0.1085    0.2665   -1.4587 O   0  0  0  0  0  0  0  0  0  0  0  0
    0.8606   -0.7184   -1.1531 C   0  0  0  0  0  0  0  0  0  0  0  0
    1.1727   -0.3004    0.2921 C   0  0  0  0  0  0  0  0  0  0  0  0
    2.3164    0.4366    0.5813 C   0  0  0  0  0  0  0  0  0  0  0  0
    2.1636   -0.9488    0.9752 O   0  0  0  0  0  0  0  0  0  0  0  0
   -0.2089   -0.1481    0.8363 C   0  0  0  0  0  0  0  0  0  0  0  0
   -0.6799   -1.3215    1.4555 O   0  0  0  0  0  0  0  0  0  0  0  0
   -1.5839    2.1541   -0.4868 H   0  0  0  0  0  0  0  0  0  0  0  0
   -2.4642    1.1128    0.7055 H   0  0  0  0  0  0  0  0  0  0  0  0
   -2.8448    0.9609   -1.0291 H   0  0  0  0  0  0  0  0  0  0  0  0
   -1.5515   -0.9134   -0.7050 H   0  0  0  0  0  0  0  0  0  0  0  0
    0.3364   -1.6929   -1.1480 H   0  0  0  0  0  0  0  0  0  0  0  0
    1.7337   -0.6648   -1.7968 H   0  0  0  0  0  0  0  0  0  0  0  0
    2.4295    1.1437    1.4385 H   0  0  0  0  0  0  0  0  0  0  0  0
    3.1156    0.6036   -0.1833 H   0  0  0  0  0  0  0  0  0  0  0  0
   -0.3452    0.6587    1.5550 H   0  0  0  0  0  0  0  0  0  0  0  0
   -1.2880   -1.8332    0.8580 H   0  0  0  0  0  0  0  0  0  0  0  0
  1  2  1  0
  2  3  1  0
  3  4  1  0
  4  5  1  0
  5  6  1  0
  6  7  1  0
  5  8  1  0
  8  9  1  0
  8  2  1  0
  7  5  1  0
  1 10  1  0
  1 11  1  0
  1 12  1  0
  2 13  1  0
  4 14  1  0
  4 15  1  0
  6 16  1  0
  6 17  1  0
  8 18  1  0
  9 19  1  0
M  END
