
     RDKit          3D

 15 16  0  0  0  0  0  0  0  0999 V2000
    2.2284    0.1366    0.2391 C   0  0  0  0  0  0  0  0  0  0  0  0
    0.7257    0.1315    0.3196 C   0  0  0  0  0  0  0  0  0  0  0  0
    0.2158    0.9349   -0.6904 O   0  0  0  0  0  0  0  0  0  0  0  0
   -1.0954    0.5059   -0.8005 C   0  0  0  0  0  0  0  0  0  0  0  0
   -1.8888    0.0806    0.3576 C   0  0  0  0  0  0  0  0  0  0  0  0
   -1.0591   -0.9047   -0.3685 C   0  0  0  0  0  0  0  0  0  0  0  0
    0.2161   -1.1544    0.1022 O   0  0  0  0  0  0  0  0  0  0  0  0
    2.7143    0.1289    1.2479 H   0  0  0  0  0  0  0  0  0  0  0  0
    2.5767   -0.7812   -0.2839 H   0  0  0  0  0  0  0  0  0  0  0  0
    2.6335    0.9993   -0.3059 H   0  0  0  0  0  0  0  0  0  0  0  0
    0.4244    0.5412    1.2879 H   0  0  0  0  0  0  0  0  0  0  0  0
   -1.6177    0.7255   -1.7485 H   0  0  0  0  0  0  0  0  0  0  0  0
   -2.9970    0.0861    0.2227 H   0  0  0  0  0  0  0  0  0  0  0  0
   -1.5965    0.2764    1.4049 H   0  0  0  0  0  0  0  0  0  0  0  0
   -1.4805   -1.7067   -0.9840 H   0  0  0  0  0  0  0  0  0  0  0  0
  1  2  1  0
  2  3  1  0
  3  4  1  0
  4  5  1  0
  5  6  1  0
  6  7  1  0
  7  2  1  0
  6  4  1  0
  1  8  1  0
  1  9  1  0
  1 10  1  0
  2 11  1  0
  4 12  1  0
  5 13  1  0
  5 14  1  0
  6 15  1  0
M  END
