
     RDKit          3D

 18 19  0  0  0  0  0  0  0  0999 V2000
   -2.3067   -0.3732   -0.0382 C   0  0  0  0  0  0  0  0  0  0  0  0
   -0.8517   -0.4897    0.1734 C   0  0  0  0  0  0  0  0  0  0  0  0
   -0.1533   -1.1404   -0.8196 O   0  0  0  0  0  0  0  0  0  0  0  0
    1.1637   -1.0193   -0.4295 C   0  0  0  0  0  0  0  0  0  0  0  0
    2.0635    0.0205   -0.9733 C   0  0  0  0  0  0  0  0  0  0  0  0
    1.2831    0.3828    0.2108 C   0  0  0  0  0  0  0  0  0  0  0  0
   -0.1273    0.8649    0.1337 C   0  0  0  0  0  0  0  0  0  0  0  0
   -0.5143    1.6861    1.1569 O   0  0  0  0  0  0  0  0  0  0  0  0
   -2.6495    0.7011   -0.1168 H   0  0  0  0  0  0  0  0  0  0  0  0
   -2.8260   -0.7533    0.8903 H   0  0  0  0  0  0  0  0  0  0  0  0
   -2.7300   -0.9407   -0.8690 H   0  0  0  0  0  0  0  0  0  0  0  0
   -0.5499   -0.9541    1.1430 H   0  0  0  0  0  0  0  0  0  0  0  0
    1.5571   -1.8733    0.1426 H   0  0  0  0  0  0  0  0  0  0  0  0
    3.1470   -0.1547   -0.8153 H   0  0  0  0  0  0  0  0  0  0  0  0
    1.8159    0.5418   -1.9212 H   0  0  0  0  0  0  0  0  0  0  0  0
    1.6997    0.3546    1.2379 H   0  0  0  0  0  0  0  0  0  0  0  0
   -0.2601    1.3267   -0.8857 H   0  0  0  0  0  0  0  0  0  0  0  0
    0.2388    1.8201    1.7801 H   0  0  0  0  0  0  0  0  0  0  0  0
  1  2  1  0
  2  3  1  0
  3  4  1  0
  4  5  1  0
  5  6  1  0
  6  7  1  0
  7  8  1  0
  7  2  1  0
  6  4  1  0
  1  9  1  0
  1 10  1  0
  1 11  1  0
  2 12  1  0
  4 13  1  0
  5 14  1  0
  5 15  1  0
  6 16  1  0
  7 17  1  0
  8 18  1  0
M  END
