
     RDKit          3D

 17 18  0  0  0  0  0  0  0  0999 V2000
    2.6846    0.1697    0.1058 C   0  0  0  0  0  0  0  0  0  0  0  0
    1.3083   -0.2762   -0.2636 C   0  0  0  0  0  0  0  0  0  0  0  0
    0.4136    0.7667   -0.5988 O   0  0  0  0  0  0  0  0  0  0  0  0
   -0.5552    0.0559    0.0542 C   0  0  0  0  0  0  0  0  0  0  0  0
   -1.6105   -0.7123   -0.5881 C   0  0  0  0  0  0  0  0  0  0  0  0
   -1.8827    0.4754    0.3726 C   0  0  0  0  0  0  0  0  0  0  0  0
   -2.3628    1.6452   -0.2573 O   0  0  0  0  0  0  0  0  0  0  0  0
    0.4317   -0.5668    0.9050 C   0  0  0  0  0  0  0  0  0  0  0  0
    0.6449   -1.0911    1.9775 O   0  0  0  0  0  0  0  0  0  0  0  0
    2.7495    0.3871    1.1993 H   0  0  0  0  0  0  0  0  0  0  0  0
    3.3914   -0.6337   -0.1805 H   0  0  0  0  0  0  0  0  0  0  0  0
    2.9372    1.0808   -0.4722 H   0  0  0  0  0  0  0  0  0  0  0  0
    1.2407   -1.0401   -1.0723 H   0  0  0  0  0  0  0  0  0  0  0  0
   -1.8579   -1.6985   -0.1377 H   0  0  0  0  0  0  0  0  0  0  0  0
   -1.7951   -0.5283   -1.6606 H   0  0  0  0  0  0  0  0  0  0  0  0
   -2.4025    0.2460    1.3146 H   0  0  0  0  0  0  0  0  0  0  0  0
   -3.3352    1.7201   -0.1768 H   0  0  0  0  0  0  0  0  0  0  0  0
  1  2  1  0
  2  3  1  0
  3  4  1  0
  4  5  1  0
  5  6  1  0
  6  7  1  0
  4  8  1  0
  8  9  2  0
  8  2  1  0
  6  4  1  0
  1 10  1  0
  1 11  1  0
  1 12  1  0
  2 13  1  0
  5 14  1  0
  5 15  1  0
  6 16  1  0
  7 17  1  0
M  END
