
     RDKit          3D

 23 24  0  0  0  0  0  0  0  0999 V2000
    3.0138    0.5674    0.2033 C   0  0  0  0  0  0  0  0  0  0  0  0
    2.0752   -0.3517   -0.5927 C   0  0  0  0  0  0  0  0  0  0  0  0
    1.3969    0.4391   -1.6736 O   0  0  0  0  0  0  0  0  0  0  0  0
    0.7447   -0.1152   -0.6077 C   0  0  0  0  0  0  0  0  0  0  0  0
    0.0341    0.7470    0.4084 C   0  0  0  0  0  0  0  0  0  0  0  0
   -1.2028   -0.0923    0.1639 C   0  0  0  0  0  0  0  0  0  0  0  0
   -1.6178   -0.9725    1.3053 C   0  0  0  0  0  0  0  0  0  0  0  0
   -2.3429    0.6995   -0.4052 C   0  0  0  0  0  0  0  0  0  0  0  0
   -0.4531   -0.9328   -0.8791 C   0  0  0  0  0  0  0  0  0  0  0  0
    4.0199    0.5124   -0.2114 H   0  0  0  0  0  0  0  0  0  0  0  0
    2.6873    1.6378    0.1055 H   0  0  0  0  0  0  0  0  0  0  0  0
    2.9467    0.3409    1.2882 H   0  0  0  0  0  0  0  0  0  0  0  0
    2.6078   -1.2226   -1.0340 H   0  0  0  0  0  0  0  0  0  0  0  0
    0.4621    0.5606    1.4322 H   0  0  0  0  0  0  0  0  0  0  0  0
   -0.0251    1.7965    0.1323 H   0  0  0  0  0  0  0  0  0  0  0  0
   -2.4052   -1.6622    0.9143 H   0  0  0  0  0  0  0  0  0  0  0  0
   -0.7879   -1.5926    1.6712 H   0  0  0  0  0  0  0  0  0  0  0  0
   -2.0027   -0.3146    2.1174 H   0  0  0  0  0  0  0  0  0  0  0  0
   -3.2032    0.7869    0.2762 H   0  0  0  0  0  0  0  0  0  0  0  0
   -2.6625    0.1753   -1.3434 H   0  0  0  0  0  0  0  0  0  0  0  0
   -1.9792    1.7165   -0.6857 H   0  0  0  0  0  0  0  0  0  0  0  0
   -0.4322   -2.0005   -0.6860 H   0  0  0  0  0  0  0  0  0  0  0  0
   -0.8740   -0.7231   -1.8992 H   0  0  0  0  0  0  0  0  0  0  0  0
  1  2  1  0
  2  3  1  0
  3  4  1  0
  4  5  1  0
  5  6  1  0
  6  7  1  0
  6  8  1  0
  6  9  1  0
  4  2  1  0
  9  4  1  0
  1 10  1  0
  1 11  1  0
  1 12  1  0
  2 13  1  0
  5 14  1  0
  5 15  1  0
  7 16  1  0
  7 17  1  0
  7 18  1  0
  8 19  1  0
  8 20  1  0
  8 21  1  0
  9 22  1  0
  9 23  1  0
M  END
