
     RDKit          3D

 19 20  0  0  0  0  0  0  0  0999 V2000
   -1.5572   -1.2702    0.2296 C   0  0  0  0  0  0  0  0  0  0  0  0
   -0.6052   -0.2245    0.7424 C   0  0  0  0  0  0  0  0  0  0  0  0
   -1.2792    0.9333    1.1771 O   0  0  0  0  0  0  0  0  0  0  0  0
   -1.3774    1.7307    0.0564 C   0  0  0  0  0  0  0  0  0  0  0  0
   -0.1555    1.4456   -0.7326 C   0  0  0  0  0  0  0  0  0  0  0  0
    0.3026    0.2787   -0.3220 C   0  0  0  0  0  0  0  0  0  0  0  0
    1.4945   -0.4279   -0.8077 C   0  0  0  0  0  0  0  0  0  0  0  0
    2.5416   -0.6866    0.2769 C   0  0  0  0  0  0  0  0  0  0  0  0
    2.7364    0.1919   -0.7920 O   0  0  0  0  0  0  0  0  0  0  0  0
   -2.5436   -1.1403    0.7266 H   0  0  0  0  0  0  0  0  0  0  0  0
   -1.2085   -2.2854    0.5126 H   0  0  0  0  0  0  0  0  0  0  0  0
   -1.7288   -1.1862   -0.8600 H   0  0  0  0  0  0  0  0  0  0  0  0
   -0.0403   -0.6255    1.6109 H   0  0  0  0  0  0  0  0  0  0  0  0
   -2.2774    1.4234   -0.5141 H   0  0  0  0  0  0  0  0  0  0  0  0
   -1.3890    2.8135    0.2881 H   0  0  0  0  0  0  0  0  0  0  0  0
    0.2924    2.0917   -1.5217 H   0  0  0  0  0  0  0  0  0  0  0  0
    1.3904   -1.2104   -1.5843 H   0  0  0  0  0  0  0  0  0  0  0  0
    2.4207   -0.1717    1.2478 H   0  0  0  0  0  0  0  0  0  0  0  0
    2.9835   -1.6799    0.2662 H   0  0  0  0  0  0  0  0  0  0  0  0
  1  2  1  0
  2  3  1  0
  3  4  1  0
  4  5  1  0
  5  6  2  0
  6  7  1  0
  7  8  1  0
  8  9  1  0
  6  2  1  0
  9  7  1  0
  1 10  1  0
  1 11  1  0
  1 12  1  0
  2 13  1  0
  4 14  1  0
  4 15  1  0
  5 16  1  0
  7 17  1  0
  8 18  1  0
  8 19  1  0
M  END
