
     RDKit          3D

 21 21  0  0  0  0  0  0  0  0999 V2000
    1.5190   -1.4457   -0.0341 C   0  0  0  0  0  0  0  0  0  0  0  0
    1.0608   -0.0668   -0.4161 C   0  0  0  0  0  0  0  0  0  0  0  0
    1.7123    0.8695    0.3706 O   0  0  0  0  0  0  0  0  0  0  0  0
    0.9226    1.9867    0.2265 C   0  0  0  0  0  0  0  0  0  0  0  0
   -0.3840    1.5961    0.0816 O   0  0  0  0  0  0  0  0  0  0  0  0
   -0.3746    0.2020   -0.1477 C   0  0  0  0  0  0  0  0  0  0  0  0
   -1.2882   -0.0435   -1.3105 C   0  0  0  0  0  0  0  0  0  0  0  0
   -0.8869   -0.4333    1.1220 C   0  0  0  0  0  0  0  0  0  0  0  0
   -2.1839    0.0441    1.3596 O   0  0  0  0  0  0  0  0  0  0  0  0
    1.5954   -1.5928    1.0514 H   0  0  0  0  0  0  0  0  0  0  0  0
    0.9061   -2.2387   -0.5132 H   0  0  0  0  0  0  0  0  0  0  0  0
    2.5481   -1.5758   -0.4479 H   0  0  0  0  0  0  0  0  0  0  0  0
    1.2465    0.0642   -1.5014 H   0  0  0  0  0  0  0  0  0  0  0  0
    1.3139    2.5499   -0.6628 H   0  0  0  0  0  0  0  0  0  0  0  0
    0.9841    2.6163    1.1453 H   0  0  0  0  0  0  0  0  0  0  0  0
   -2.2223    0.5458   -1.1506 H   0  0  0  0  0  0  0  0  0  0  0  0
   -0.8035    0.3608   -2.2145 H   0  0  0  0  0  0  0  0  0  0  0  0
   -1.5954   -1.0972   -1.4113 H   0  0  0  0  0  0  0  0  0  0  0  0
   -0.9455   -1.5239    1.0839 H   0  0  0  0  0  0  0  0  0  0  0  0
   -0.2733   -0.1209    1.9908 H   0  0  0  0  0  0  0  0  0  0  0  0
   -2.8511   -0.6967    1.3784 H   0  0  0  0  0  0  0  0  0  0  0  0
  1  2  1  0
  2  3  1  0
  3  4  1  0
  4  5  1  0
  5  6  1  0
  6  7  1  0
  6  8  1  0
  8  9  1  0
  6  2  1  0
  1 10  1  0
  1 11  1  0
  1 12  1  0
  2 13  1  0
  4 14  1  0
  4 15  1  0
  7 16  1  0
  7 17  1  0
  7 18  1  0
  8 19  1  0
  8 20  1  0
  9 21  1  0
M  END
