
     RDKit          3D

 19 21  0  0  0  0  0  0  0  0999 V2000
    2.3222    0.3560    0.0288 C   0  0  0  0  0  0  0  0  0  0  0  0
    1.1052   -0.4770   -0.0053 C   0  0  0  0  0  0  0  0  0  0  0  0
    0.4339   -0.5676    1.2092 O   0  0  0  0  0  0  0  0  0  0  0  0
   -0.7956   -1.1384    0.9102 C   0  0  0  0  0  0  0  0  0  0  0  0
   -1.8842   -0.2241    0.5300 C   0  0  0  0  0  0  0  0  0  0  0  0
   -1.5621    1.2264    0.3447 C   0  0  0  0  0  0  0  0  0  0  0  0
   -0.5097    1.3576   -0.4545 C   0  0  0  0  0  0  0  0  0  0  0  0
    0.0204    0.0703   -0.9140 C   0  0  0  0  0  0  0  0  0  0  0  0
   -1.1046   -0.8813   -0.5189 C   0  0  0  0  0  0  0  0  0  0  0  0
    2.5313    0.6219    1.1047 H   0  0  0  0  0  0  0  0  0  0  0  0
    3.2396   -0.2049   -0.2947 H   0  0  0  0  0  0  0  0  0  0  0  0
    2.2867    1.2783   -0.5719 H   0  0  0  0  0  0  0  0  0  0  0  0
    1.3403   -1.5043   -0.3250 H   0  0  0  0  0  0  0  0  0  0  0  0
   -1.0678   -2.1193    1.3679 H   0  0  0  0  0  0  0  0  0  0  0  0
   -2.9302   -0.5246    0.6815 H   0  0  0  0  0  0  0  0  0  0  0  0
   -2.1226    2.0195    0.8067 H   0  0  0  0  0  0  0  0  0  0  0  0
   -0.1093    2.3277   -0.7200 H   0  0  0  0  0  0  0  0  0  0  0  0
    0.2698    0.0170   -1.9702 H   0  0  0  0  0  0  0  0  0  0  0  0
   -1.4635   -1.6333   -1.2093 H   0  0  0  0  0  0  0  0  0  0  0  0
  1  2  1  0
  2  3  1  0
  3  4  1  0
  4  5  1  0
  5  6  1  0
  6  7  2  0
  7  8  1  0
  8  9  1  0
  8  2  1  0
  9  4  1  0
  9  5  1  0
  1 10  1  0
  1 11  1  0
  1 12  1  0
  2 13  1  0
  4 14  1  0
  5 15  1  0
  6 16  1  0
  7 17  1  0
  8 18  1  0
  9 19  1  0
M  END
