
     RDKit          3D

 23 24  0  0  0  0  0  0  0  0999 V2000
   -2.7660   -0.8759    0.1140 C   0  0  0  0  0  0  0  0  0  0  0  0
   -1.3261   -0.4708    0.1200 C   0  0  0  0  0  0  0  0  0  0  0  0
   -0.6254   -1.2085   -0.8607 O   0  0  0  0  0  0  0  0  0  0  0  0
    0.2167   -0.1179   -0.9864 C   0  0  0  0  0  0  0  0  0  0  0  0
    1.3154   -0.1574    0.0287 C   0  0  0  0  0  0  0  0  0  0  0  0
    2.2387   -1.3542   -0.0084 C   0  0  0  0  0  0  0  0  0  0  0  0
    2.7374   -0.0098   -0.4315 C   0  0  0  0  0  0  0  0  0  0  0  0
   -0.9581    0.7677   -0.6100 C   0  0  0  0  0  0  0  0  0  0  0  0
   -0.4994    1.9414    0.1805 C   0  0  0  0  0  0  0  0  0  0  0  0
   -3.2477   -0.8322   -0.8743 H   0  0  0  0  0  0  0  0  0  0  0  0
   -3.3456   -0.3313    0.8958 H   0  0  0  0  0  0  0  0  0  0  0  0
   -2.8164   -1.9577    0.4321 H   0  0  0  0  0  0  0  0  0  0  0  0
   -0.9040   -0.5369    1.1274 H   0  0  0  0  0  0  0  0  0  0  0  0
    0.5470    0.1354   -2.0063 H   0  0  0  0  0  0  0  0  0  0  0  0
    1.0753    0.1561    1.0885 H   0  0  0  0  0  0  0  0  0  0  0  0
    2.1345   -2.0964   -0.8213 H   0  0  0  0  0  0  0  0  0  0  0  0
    2.6015   -1.8004    0.9389 H   0  0  0  0  0  0  0  0  0  0  0  0
    2.9340    0.1751   -1.4963 H   0  0  0  0  0  0  0  0  0  0  0  0
    3.3758    0.5916    0.2511 H   0  0  0  0  0  0  0  0  0  0  0  0
   -1.5939    1.0525   -1.4657 H   0  0  0  0  0  0  0  0  0  0  0  0
   -0.7388    2.8917   -0.3821 H   0  0  0  0  0  0  0  0  0  0  0  0
    0.6218    1.9778    0.2907 H   0  0  0  0  0  0  0  0  0  0  0  0
   -0.9767    2.0601    1.1641 H   0  0  0  0  0  0  0  0  0  0  0  0
  1  2  1  0
  2  3  1  0
  3  4  1  0
  4  5  1  0
  5  6  1  0
  6  7  1  0
  4  8  1  0
  8  9  1  0
  8  2  1  0
  7  5  1  0
  1 10  1  0
  1 11  1  0
  1 12  1  0
  2 13  1  0
  4 14  1  0
  5 15  1  0
  6 16  1  0
  6 17  1  0
  7 18  1  0
  7 19  1  0
  8 20  1  0
  9 21  1  0
  9 22  1  0
  9 23  1  0
M  END
