
     RDKit          3D

 19 21  0  0  0  0  0  0  0  0999 V2000
   -3.1158    0.3450   -0.3811 C   0  0  0  0  0  0  0  0  0  0  0  0
   -1.7657   -0.3356   -0.3637 C   0  0  0  0  0  0  0  0  0  0  0  0
   -0.8838    0.3693   -1.3292 O   0  0  0  0  0  0  0  0  0  0  0  0
   -0.6032    0.3866    0.1111 C   0  0  0  0  0  0  0  0  0  0  0  0
    0.6474   -0.3390    0.4563 C   0  0  0  0  0  0  0  0  0  0  0  0
    1.5514   -0.7487   -0.6523 C   0  0  0  0  0  0  0  0  0  0  0  0
    2.7690   -0.2030    0.0769 C   0  0  0  0  0  0  0  0  0  0  0  0
    1.8224    0.4492    1.0494 C   0  0  0  0  0  0  0  0  0  0  0  0
    1.0546   -0.4169    1.7792 O   0  0  0  0  0  0  0  0  0  0  0  0
   -3.0103    1.4104   -0.1349 H   0  0  0  0  0  0  0  0  0  0  0  0
   -3.5012    0.2740   -1.4358 H   0  0  0  0  0  0  0  0  0  0  0  0
   -3.8268   -0.2025    0.2634 H   0  0  0  0  0  0  0  0  0  0  0  0
   -1.7289   -1.4001   -0.6113 H   0  0  0  0  0  0  0  0  0  0  0  0
   -0.7326    1.4131    0.4904 H   0  0  0  0  0  0  0  0  0  0  0  0
    1.3708   -0.1212   -1.5704 H   0  0  0  0  0  0  0  0  0  0  0  0
    1.5934   -1.8045   -0.9262 H   0  0  0  0  0  0  0  0  0  0  0  0
    3.2929   -1.0505    0.5899 H   0  0  0  0  0  0  0  0  0  0  0  0
    3.4152    0.4490   -0.5064 H   0  0  0  0  0  0  0  0  0  0  0  0
    1.6511    1.5255    1.0351 H   0  0  0  0  0  0  0  0  0  0  0  0
  1  2  1  0
  2  3  1  0
  3  4  1  0
  4  5  1  0
  5  6  1  0
  6  7  1  0
  7  8  1  0
  8  9  1  0
  4  2  1  0
  8  5  1  0
  9  5  1  0
  1 10  1  0
  1 11  1  0
  1 12  1  0
  2 13  1  0
  4 14  1  0
  6 15  1  0
  6 16  1  0
  7 17  1  0
  7 18  1  0
  8 19  1  0
M  END
