
     RDKit          3D

 19 20  0  0  0  0  0  0  0  0999 V2000
   -2.2921    0.8715    0.2942 C   0  0  0  0  0  0  0  0  0  0  0  0
   -1.3576   -0.3042    0.3069 C   0  0  0  0  0  0  0  0  0  0  0  0
   -0.2647   -0.0261    1.1203 O   0  0  0  0  0  0  0  0  0  0  0  0
    0.6419    0.1121    0.1083 C   0  0  0  0  0  0  0  0  0  0  0  0
    1.9343   -0.6150    0.2764 C   0  0  0  0  0  0  0  0  0  0  0  0
    2.5362   -0.1183    1.4570 O   0  0  0  0  0  0  0  0  0  0  0  0
    0.3648    0.8282   -1.1525 C   0  0  0  0  0  0  0  0  0  0  0  0
   -0.4062   -0.3999   -0.8538 C   0  0  0  0  0  0  0  0  0  0  0  0
   -0.1172   -1.6014   -1.4431 O   0  0  0  0  0  0  0  0  0  0  0  0
   -2.5747    1.2176   -0.7038 H   0  0  0  0  0  0  0  0  0  0  0  0
   -1.8660    1.7641    0.8315 H   0  0  0  0  0  0  0  0  0  0  0  0
   -3.1857    0.5835    0.9092 H   0  0  0  0  0  0  0  0  0  0  0  0
   -1.8713   -1.2608    0.5051 H   0  0  0  0  0  0  0  0  0  0  0  0
    2.5885   -0.3742   -0.5818 H   0  0  0  0  0  0  0  0  0  0  0  0
    1.8025   -1.7090    0.4187 H   0  0  0  0  0  0  0  0  0  0  0  0
    2.9161    0.7736    1.2325 H   0  0  0  0  0  0  0  0  0  0  0  0
    1.1440    0.7153   -1.9369 H   0  0  0  0  0  0  0  0  0  0  0  0
   -0.1204    1.8201   -1.1808 H   0  0  0  0  0  0  0  0  0  0  0  0
    0.1277   -2.2768   -0.7595 H   0  0  0  0  0  0  0  0  0  0  0  0
  1  2  1  0
  2  3  1  0
  3  4  1  0
  4  5  1  0
  5  6  1  0
  4  7  1  0
  7  8  1  0
  8  9  1  0
  8  2  1  0
  8  4  1  0
  1 10  1  0
  1 11  1  0
  1 12  1  0
  2 13  1  0
  5 14  1  0
  5 15  1  0
  6 16  1  0
  7 17  1  0
  7 18  1  0
  9 19  1  0
M  END
