
     RDKit          3D

 20 20  0  0  0  0  0  0  0  0999 V2000
    3.0641    0.4535   -0.6422 C   0  0  0  0  0  0  0  0  0  0  0  0
    1.6697    0.4965   -0.1131 C   0  0  0  0  0  0  0  0  0  0  0  0
    1.7384    0.4400    1.3929 O   0  0  0  0  0  0  0  0  0  0  0  0
    1.0137   -0.5626    0.5673 C   0  0  0  0  0  0  0  0  0  0  0  0
   -0.4334   -0.4937    0.8839 C   0  0  0  0  0  0  0  0  0  0  0  0
   -1.3136   -0.3603   -0.3386 C   0  0  0  0  0  0  0  0  0  0  0  0
   -2.7493   -0.3066    0.2011 C   0  0  0  0  0  0  0  0  0  0  0  0
   -2.8859    0.7753    1.0413 O   0  0  0  0  0  0  0  0  0  0  0  0
    3.7507    1.0211    0.0211 H   0  0  0  0  0  0  0  0  0  0  0  0
    3.1061    0.9944   -1.6326 H   0  0  0  0  0  0  0  0  0  0  0  0
    3.4306   -0.6034   -0.7690 H   0  0  0  0  0  0  0  0  0  0  0  0
    1.0838    1.3967   -0.4299 H   0  0  0  0  0  0  0  0  0  0  0  0
    1.4651   -1.5715    0.6658 H   0  0  0  0  0  0  0  0  0  0  0  0
   -0.7066    0.3505    1.5455 H   0  0  0  0  0  0  0  0  0  0  0  0
   -0.8123   -1.4088    1.4231 H   0  0  0  0  0  0  0  0  0  0  0  0
   -1.0752    0.5611   -0.8981 H   0  0  0  0  0  0  0  0  0  0  0  0
   -1.2390   -1.2681   -0.9642 H   0  0  0  0  0  0  0  0  0  0  0  0
   -2.9019   -1.2230    0.8156 H   0  0  0  0  0  0  0  0  0  0  0  0
   -3.4735   -0.3358   -0.6295 H   0  0  0  0  0  0  0  0  0  0  0  0
   -2.7316    1.6447    0.5940 H   0  0  0  0  0  0  0  0  0  0  0  0
  1  2  1  0
  2  3  1  0
  3  4  1  0
  4  5  1  0
  5  6  1  0
  6  7  1  0
  7  8  1  0
  4  2  1  0
  1  9  1  0
  1 10  1  0
  1 11  1  0
  2 12  1  0
  4 13  1  0
  5 14  1  0
  5 15  1  0
  6 16  1  0
  6 17  1  0
  7 18  1  0
  7 19  1  0
  8 20  1  0
M  END
