
     RDKit          3D

 21 22  0  0  0  0  0  0  0  0999 V2000
   -2.4587    0.4232   -0.3622 C   0  0  0  0  0  0  0  0  0  0  0  0
   -1.5328   -0.3446    0.5371 C   0  0  0  0  0  0  0  0  0  0  0  0
   -0.6488    0.4528    1.2911 O   0  0  0  0  0  0  0  0  0  0  0  0
    0.3461    0.0928    0.4427 C   0  0  0  0  0  0  0  0  0  0  0  0
    1.6573   -0.3273    1.0140 C   0  0  0  0  0  0  0  0  0  0  0  0
    2.3361    0.6262    0.0538 C   0  0  0  0  0  0  0  0  0  0  0  0
    0.9691    1.1202   -0.4238 C   0  0  0  0  0  0  0  0  0  0  0  0
   -0.3930   -1.0238   -0.1754 C   0  0  0  0  0  0  0  0  0  0  0  0
   -0.4685   -1.0458   -1.5569 O   0  0  0  0  0  0  0  0  0  0  0  0
   -2.2507    0.1117   -1.4096 H   0  0  0  0  0  0  0  0  0  0  0  0
   -2.3054    1.5043   -0.2310 H   0  0  0  0  0  0  0  0  0  0  0  0
   -3.5132    0.1791   -0.1595 H   0  0  0  0  0  0  0  0  0  0  0  0
   -2.0881   -0.9963    1.2486 H   0  0  0  0  0  0  0  0  0  0  0  0
    1.9676   -1.3763    0.7684 H   0  0  0  0  0  0  0  0  0  0  0  0
    1.7323   -0.0853    2.0743 H   0  0  0  0  0  0  0  0  0  0  0  0
    2.8517    0.1374   -0.8061 H   0  0  0  0  0  0  0  0  0  0  0  0
    2.9532    1.3825    0.5511 H   0  0  0  0  0  0  0  0  0  0  0  0
    0.8012    1.0351   -1.5061 H   0  0  0  0  0  0  0  0  0  0  0  0
    0.7991    2.1520   -0.0532 H   0  0  0  0  0  0  0  0  0  0  0  0
   -0.1935   -2.0225    0.2846 H   0  0  0  0  0  0  0  0  0  0  0  0
   -0.5609   -1.9953   -1.8338 H   0  0  0  0  0  0  0  0  0  0  0  0
  1  2  1  0
  2  3  1  0
  3  4  1  0
  4  5  1  0
  5  6  1  0
  6  7  1  0
  4  8  1  0
  8  9  1  0
  8  2  1  0
  7  4  1  0
  1 10  1  0
  1 11  1  0
  1 12  1  0
  2 13  1  0
  5 14  1  0
  5 15  1  0
  6 16  1  0
  6 17  1  0
  7 18  1  0
  7 19  1  0
  8 20  1  0
  9 21  1  0
M  END
