
     RDKit          3D

 21 22  0  0  0  0  0  0  0  0999 V2000
   -2.6314    0.8191    0.2881 C   0  0  0  0  0  0  0  0  0  0  0  0
   -1.8009   -0.4429    0.5028 C   0  0  0  0  0  0  0  0  0  0  0  0
   -0.7358   -0.2708    1.3969 O   0  0  0  0  0  0  0  0  0  0  0  0
    0.2371   -0.5015    0.4466 C   0  0  0  0  0  0  0  0  0  0  0  0
    1.3884    0.4413    0.4515 C   0  0  0  0  0  0  0  0  0  0  0  0
    2.4264    0.0901   -0.5946 C   0  0  0  0  0  0  0  0  0  0  0  0
    1.0244    1.7640    0.2355 O   0  0  0  0  0  0  0  0  0  0  0  0
    0.1856   -1.6756   -0.4523 C   0  0  0  0  0  0  0  0  0  0  0  0
   -0.7799   -0.5545   -0.6013 C   0  0  0  0  0  0  0  0  0  0  0  0
   -1.9173    1.5877   -0.0766 H   0  0  0  0  0  0  0  0  0  0  0  0
   -3.3058    0.5978   -0.5585 H   0  0  0  0  0  0  0  0  0  0  0  0
   -3.1456    1.1126    1.2048 H   0  0  0  0  0  0  0  0  0  0  0  0
   -2.3947   -1.3469    0.6987 H   0  0  0  0  0  0  0  0  0  0  0  0
    1.8897    0.3788    1.4411 H   0  0  0  0  0  0  0  0  0  0  0  0
    1.9533    0.0007   -1.5990 H   0  0  0  0  0  0  0  0  0  0  0  0
    3.1596    0.9194   -0.6216 H   0  0  0  0  0  0  0  0  0  0  0  0
    2.9108   -0.8448   -0.2716 H   0  0  0  0  0  0  0  0  0  0  0  0
    1.6032    2.2145   -0.4329 H   0  0  0  0  0  0  0  0  0  0  0  0
   -0.2011   -2.6294    0.0079 H   0  0  0  0  0  0  0  0  0  0  0  0
    0.9573   -1.7399   -1.2216 H   0  0  0  0  0  0  0  0  0  0  0  0
   -0.8230    0.0803   -1.4803 H   0  0  0  0  0  0  0  0  0  0  0  0
  1  2  1  0
  2  3  1  0
  3  4  1  0
  4  5  1  0
  5  6  1  0
  5  7  1  0
  4  8  1  0
  8  9  1  0
  9  2  1  0
  9  4  1  0
  1 10  1  0
  1 11  1  0
  1 12  1  0
  2 13  1  0
  5 14  1  0
  6 15  1  0
  6 16  1  0
  6 17  1  0
  7 18  1  0
  8 19  1  0
  8 20  1  0
  9 21  1  0
M  END
