
     RDKit          3D

 23 24  0  0  0  0  0  0  0  0999 V2000
   -2.2165    0.9764    0.1727 C   0  0  0  0  0  0  0  0  0  0  0  0
   -1.4468   -0.2272   -0.2279 C   0  0  0  0  0  0  0  0  0  0  0  0
   -1.0045   -1.0061    0.8064 O   0  0  0  0  0  0  0  0  0  0  0  0
    0.2643   -1.4561    0.5316 C   0  0  0  0  0  0  0  0  0  0  0  0
    1.2421   -0.5333    1.2344 C   0  0  0  0  0  0  0  0  0  0  0  0
    1.7833    0.5372    0.3413 C   0  0  0  0  0  0  0  0  0  0  0  0
    0.6219    1.1513   -0.4271 C   0  0  0  0  0  0  0  0  0  0  0  0
   -0.2284    0.1099   -1.0912 C   0  0  0  0  0  0  0  0  0  0  0  0
    0.4733   -1.2530   -0.9762 C   0  0  0  0  0  0  0  0  0  0  0  0
   -3.3068    0.7124    0.2094 H   0  0  0  0  0  0  0  0  0  0  0  0
   -2.0405    1.8461   -0.4984 H   0  0  0  0  0  0  0  0  0  0  0  0
   -1.9561    1.2706    1.2113 H   0  0  0  0  0  0  0  0  0  0  0  0
   -2.1000   -0.8693   -0.8854 H   0  0  0  0  0  0  0  0  0  0  0  0
    0.4338   -2.5035    0.8248 H   0  0  0  0  0  0  0  0  0  0  0  0
    0.7172   -0.0098    2.0848 H   0  0  0  0  0  0  0  0  0  0  0  0
    2.0731   -1.1285    1.6822 H   0  0  0  0  0  0  0  0  0  0  0  0
    2.6099    0.2296   -0.3037 H   0  0  0  0  0  0  0  0  0  0  0  0
    2.1976    1.3404    1.0138 H   0  0  0  0  0  0  0  0  0  0  0  0
    0.0168    1.7001    0.3479 H   0  0  0  0  0  0  0  0  0  0  0  0
    0.9824    1.9395   -1.1197 H   0  0  0  0  0  0  0  0  0  0  0  0
   -0.5054    0.3442   -2.1205 H   0  0  0  0  0  0  0  0  0  0  0  0
    1.5192   -1.2093   -1.2529 H   0  0  0  0  0  0  0  0  0  0  0  0
   -0.1299   -1.9617   -1.5578 H   0  0  0  0  0  0  0  0  0  0  0  0
  1  2  1  0
  2  3  1  0
  3  4  1  0
  4  5  1  0
  5  6  1  0
  6  7  1  0
  7  8  1  0
  8  9  1  0
  8  2  1  0
  9  4  1  0
  1 10  1  0
  1 11  1  0
  1 12  1  0
  2 13  1  0
  4 14  1  0
  5 15  1  0
  5 16  1  0
  6 17  1  0
  6 18  1  0
  7 19  1  0
  7 20  1  0
  8 21  1  0
  9 22  1  0
  9 23  1  0
M  END
