
     RDKit          3D

 21 23  0  0  0  0  0  0  0  0999 V2000
    2.1666    0.5170   -1.0307 C   0  0  0  0  0  0  0  0  0  0  0  0
    1.6771   -0.2126    0.1580 C   0  0  0  0  0  0  0  0  0  0  0  0
    1.8379   -1.6153    0.1341 O   0  0  0  0  0  0  0  0  0  0  0  0
    0.6693   -1.7242    0.9242 C   0  0  0  0  0  0  0  0  0  0  0  0
    0.2546   -0.4185    0.3689 C   0  0  0  0  0  0  0  0  0  0  0  0
   -0.7429    0.4290    0.8736 C   0  0  0  0  0  0  0  0  0  0  0  0
   -1.6792    1.3699    0.1016 C   0  0  0  0  0  0  0  0  0  0  0  0
   -2.2746   -0.0061   -0.2795 C   0  0  0  0  0  0  0  0  0  0  0  0
   -0.8027   -0.2576   -0.5619 C   0  0  0  0  0  0  0  0  0  0  0  0
    3.0469    1.1831   -0.7903 H   0  0  0  0  0  0  0  0  0  0  0  0
    1.3656    1.2484   -1.3463 H   0  0  0  0  0  0  0  0  0  0  0  0
    2.4823   -0.0990   -1.8784 H   0  0  0  0  0  0  0  0  0  0  0  0
    2.1971    0.1556    1.0854 H   0  0  0  0  0  0  0  0  0  0  0  0
    0.8494   -1.6776    2.0058 H   0  0  0  0  0  0  0  0  0  0  0  0
   -0.0015   -2.5370    0.6368 H   0  0  0  0  0  0  0  0  0  0  0  0
   -1.4134   -0.0875    1.6364 H   0  0  0  0  0  0  0  0  0  0  0  0
   -2.3149    1.9690    0.7488 H   0  0  0  0  0  0  0  0  0  0  0  0
   -1.2528    1.8247   -0.7859 H   0  0  0  0  0  0  0  0  0  0  0  0
   -2.8816    0.0445   -1.1775 H   0  0  0  0  0  0  0  0  0  0  0  0
   -2.6717   -0.5573    0.5807 H   0  0  0  0  0  0  0  0  0  0  0  0
   -0.5115    0.4514   -1.4038 H   0  0  0  0  0  0  0  0  0  0  0  0
  1  2  1  0
  2  3  1  0
  3  4  1  0
  4  5  1  0
  5  6  1  0
  6  7  1  0
  7  8  1  0
  8  9  1  0
  5  2  1  0
  9  6  1  0
  9  5  1  0
  1 10  1  0
  1 11  1  0
  1 12  1  0
  2 13  1  0
  4 14  1  0
  4 15  1  0
  6 16  1  0
  7 17  1  0
  7 18  1  0
  8 19  1  0
  8 20  1  0
  9 21  1  0
M  END
