
     RDKit          3D

 21 21  0  0  0  0  0  0  0  0999 V2000
    3.1122    0.6803    0.2614 C   0  0  0  0  0  0  0  0  0  0  0  0
    2.1075   -0.3788   -0.0709 C   0  0  0  0  0  0  0  0  0  0  0  0
    1.6098   -0.4315   -1.3999 O   0  0  0  0  0  0  0  0  0  0  0  0
    0.6860    0.0339   -0.4744 C   0  0  0  0  0  0  0  0  0  0  0  0
   -0.3570   -0.8580    0.0878 C   0  0  0  0  0  0  0  0  0  0  0  0
   -1.7640   -0.5561   -0.2365 C   0  0  0  0  0  0  0  0  0  0  0  0
   -2.5782   -1.5291    0.3987 O   0  0  0  0  0  0  0  0  0  0  0  0
   -2.2833    0.7606    0.2344 C   0  0  0  0  0  0  0  0  0  0  0  0
   -1.6573    1.8729   -0.2487 O   0  0  0  0  0  0  0  0  0  0  0  0
    3.0056    1.0436    1.3183 H   0  0  0  0  0  0  0  0  0  0  0  0
    4.1210    0.1896    0.2205 H   0  0  0  0  0  0  0  0  0  0  0  0
    3.1414    1.4964   -0.4660 H   0  0  0  0  0  0  0  0  0  0  0  0
    2.2626   -1.4033    0.3274 H   0  0  0  0  0  0  0  0  0  0  0  0
    0.5372    1.1238   -0.3448 H   0  0  0  0  0  0  0  0  0  0  0  0
   -0.1863   -1.9455   -0.1670 H   0  0  0  0  0  0  0  0  0  0  0  0
   -0.2329   -0.8411    1.2121 H   0  0  0  0  0  0  0  0  0  0  0  0
   -1.9900   -0.6633   -1.3167 H   0  0  0  0  0  0  0  0  0  0  0  0
   -2.0520   -2.3463    0.5146 H   0  0  0  0  0  0  0  0  0  0  0  0
   -2.2575    0.8376    1.3627 H   0  0  0  0  0  0  0  0  0  0  0  0
   -3.3687    0.8512   -0.0120 H   0  0  0  0  0  0  0  0  0  0  0  0
   -1.8560    2.0629   -1.2010 H   0  0  0  0  0  0  0  0  0  0  0  0
  1  2  1  0
  2  3  1  0
  3  4  1  0
  4  5  1  0
  5  6  1  0
  6  7  1  0
  6  8  1  0
  8  9  1  0
  4  2  1  0
  1 10  1  0
  1 11  1  0
  1 12  1  0
  2 13  1  0
  4 14  1  0
  5 15  1  0
  5 16  1  0
  6 17  1  0
  7 18  1  0
  8 19  1  0
  8 20  1  0
  9 21  1  0
M  END
