
     RDKit          3D

 19 19  0  0  0  0  0  0  0  0999 V2000
    2.0025   -1.3851    0.3255 C   0  0  0  0  0  0  0  0  0  0  0  0
    1.3917    0.0035    0.2729 C   0  0  0  0  0  0  0  0  0  0  0  0
    2.0054    1.1385    0.3859 O   0  0  0  0  0  0  0  0  0  0  0  0
    1.1964    2.1607    0.2878 C   0  0  0  0  0  0  0  0  0  0  0  0
   -0.0718    1.6140    0.0849 C   0  0  0  0  0  0  0  0  0  0  0  0
    0.0414    0.2387    0.0849 C   0  0  0  0  0  0  0  0  0  0  0  0
   -0.9962   -0.7704   -0.0320 C   0  0  0  0  0  0  0  0  0  0  0  0
   -2.0036   -0.1753   -1.0273 C   0  0  0  0  0  0  0  0  0  0  0  0
   -1.6891   -0.9949    1.1565 O   0  0  0  0  0  0  0  0  0  0  0  0
    3.0399   -1.2749   -0.0775 H   0  0  0  0  0  0  0  0  0  0  0  0
    2.0056   -1.8310    1.3294 H   0  0  0  0  0  0  0  0  0  0  0  0
    1.5008   -2.0387   -0.4061 H   0  0  0  0  0  0  0  0  0  0  0  0
    1.4375    3.2384    0.3473 H   0  0  0  0  0  0  0  0  0  0  0  0
   -1.0035    2.1005   -0.0524 H   0  0  0  0  0  0  0  0  0  0  0  0
   -0.6597   -1.7322   -0.4220 H   0  0  0  0  0  0  0  0  0  0  0  0
   -1.3522    0.2590   -1.8764 H   0  0  0  0  0  0  0  0  0  0  0  0
   -2.6026   -0.9406   -1.5265 H   0  0  0  0  0  0  0  0  0  0  0  0
   -2.5487    0.6535   -0.6436 H   0  0  0  0  0  0  0  0  0  0  0  0
   -1.6938   -0.2636    1.7890 H   0  0  0  0  0  0  0  0  0  0  0  0
  1  2  1  0
  2  3  1  0
  3  4  1  0
  4  5  2  0
  5  6  1  0
  6  7  1  0
  7  8  1  0
  7  9  1  0
  6  2  2  0
  1 10  1  0
  1 11  1  0
  1 12  1  0
  4 13  1  0
  5 14  1  0
  7 15  1  0
  8 16  1  0
  8 17  1  0
  8 18  1  0
  9 19  1  0
M  END
