
     RDKit          3D

 21 22  0  0  0  0  0  0  0  0999 V2000
    2.4087    0.4803   -0.0745 C   0  0  0  0  0  0  0  0  0  0  0  0
    1.2828   -0.4775    0.1130 C   0  0  0  0  0  0  0  0  0  0  0  0
    0.9230   -1.1300   -1.0468 O   0  0  0  0  0  0  0  0  0  0  0  0
   -0.3422   -1.6816   -0.7731 C   0  0  0  0  0  0  0  0  0  0  0  0
   -1.0529   -0.6917    0.0919 C   0  0  0  0  0  0  0  0  0  0  0  0
   -2.4177   -0.1937   -0.2597 C   0  0  0  0  0  0  0  0  0  0  0  0
   -0.7406   -0.5854    1.4463 O   0  0  0  0  0  0  0  0  0  0  0  0
    0.0206    0.1934    0.5804 C   0  0  0  0  0  0  0  0  0  0  0  0
   -0.0849    1.6778    0.5902 C   0  0  0  0  0  0  0  0  0  0  0  0
    2.9223    0.6013    0.9225 H   0  0  0  0  0  0  0  0  0  0  0  0
    2.0743    1.4721   -0.4722 H   0  0  0  0  0  0  0  0  0  0  0  0
    3.1757    0.1194   -0.7863 H   0  0  0  0  0  0  0  0  0  0  0  0
    1.6094   -1.2576    0.8587 H   0  0  0  0  0  0  0  0  0  0  0  0
   -0.9392   -1.7747   -1.7240 H   0  0  0  0  0  0  0  0  0  0  0  0
   -0.2771   -2.6961   -0.3551 H   0  0  0  0  0  0  0  0  0  0  0  0
   -2.6143    0.7129    0.3792 H   0  0  0  0  0  0  0  0  0  0  0  0
   -3.1478   -0.9866    0.0789 H   0  0  0  0  0  0  0  0  0  0  0  0
   -2.5754    0.0322   -1.3120 H   0  0  0  0  0  0  0  0  0  0  0  0
    0.0944    2.1042   -0.4391 H   0  0  0  0  0  0  0  0  0  0  0  0
   -1.0577    1.9879    0.9668 H   0  0  0  0  0  0  0  0  0  0  0  0
    0.7386    2.0934    1.2148 H   0  0  0  0  0  0  0  0  0  0  0  0
  1  2  1  0
  2  3  1  0
  3  4  1  0
  4  5  1  0
  5  6  1  0
  5  7  1  0
  7  8  1  0
  8  9  1  0
  8  2  1  0
  8  5  1  0
  1 10  1  0
  1 11  1  0
  1 12  1  0
  2 13  1  0
  4 14  1  0
  4 15  1  0
  6 16  1  0
  6 17  1  0
  6 18  1  0
  9 19  1  0
  9 20  1  0
  9 21  1  0
M  END
