
     RDKit          3D

 14 14  0  0  0  0  0  0  0  0999 V2000
   -2.6708   -0.3627    0.3461 C   0  0  0  0  0  0  0  0  0  0  0  0
   -1.2380    0.1193    0.4344 C   0  0  0  0  0  0  0  0  0  0  0  0
   -0.9648    1.1230   -0.5289 O   0  0  0  0  0  0  0  0  0  0  0  0
   -0.3122   -0.2285   -0.5516 C   0  0  0  0  0  0  0  0  0  0  0  0
    1.1315   -0.0382   -0.3941 C   0  0  0  0  0  0  0  0  0  0  0  0
    2.3239    0.1146   -0.2434 C   0  0  0  0  0  0  0  0  0  0  0  0
    3.7495    0.2878   -0.0818 C   0  0  0  0  0  0  0  0  0  0  0  0
    4.3092    1.4141   -0.1903 O   0  0  0  0  0  0  0  0  0  0  0  0
   -2.8179   -1.3115    0.9201 H   0  0  0  0  0  0  0  0  0  0  0  0
   -3.3421    0.3813    0.8443 H   0  0  0  0  0  0  0  0  0  0  0  0
   -2.9957   -0.5277   -0.7026 H   0  0  0  0  0  0  0  0  0  0  0  0
   -0.9260    0.3357    1.4806 H   0  0  0  0  0  0  0  0  0  0  0  0
   -0.6408   -0.7548   -1.4876 H   0  0  0  0  0  0  0  0  0  0  0  0
    4.3943   -0.5524    0.1405 H   0  0  0  0  0  0  0  0  0  0  0  0
  1  2  1  0
  2  3  1  0
  3  4  1  0
  4  5  1  0
  5  6  3  0
  6  7  1  0
  7  8  2  0
  4  2  1  0
  1  9  1  0
  1 10  1  0
  1 11  1  0
  2 12  1  0
  4 13  1  0
  7 14  1  0
M  END
