
     RDKit          3D

 19 20  0  0  0  0  0  0  0  0999 V2000
    2.8713    0.0939   -0.2364 C   0  0  0  0  0  0  0  0  0  0  0  0
    1.3954    0.3484   -0.3318 C   0  0  0  0  0  0  0  0  0  0  0  0
    0.6624   -0.6625   -0.9842 O   0  0  0  0  0  0  0  0  0  0  0  0
   -0.3584   -0.3108   -0.1495 C   0  0  0  0  0  0  0  0  0  0  0  0
   -1.4835   -1.1948    0.1145 C   0  0  0  0  0  0  0  0  0  0  0  0
   -2.3128    0.0822    0.3213 C   0  0  0  0  0  0  0  0  0  0  0  0
   -1.3084    0.7501   -0.6151 C   0  0  0  0  0  0  0  0  0  0  0  0
    0.6005    0.0251    0.8768 C   0  0  0  0  0  0  0  0  0  0  0  0
    0.6521    0.0180    2.0812 O   0  0  0  0  0  0  0  0  0  0  0  0
    3.2845    0.8292    0.4852 H   0  0  0  0  0  0  0  0  0  0  0  0
    3.0155   -0.9408    0.1034 H   0  0  0  0  0  0  0  0  0  0  0  0
    3.3168    0.3121   -1.2168 H   0  0  0  0  0  0  0  0  0  0  0  0
    1.1231    1.3500   -0.7057 H   0  0  0  0  0  0  0  0  0  0  0  0
   -1.4429   -1.8244    1.0091 H   0  0  0  0  0  0  0  0  0  0  0  0
   -1.8551   -1.7247   -0.8092 H   0  0  0  0  0  0  0  0  0  0  0  0
   -2.1748    0.4685    1.3397 H   0  0  0  0  0  0  0  0  0  0  0  0
   -3.3310    0.0288   -0.0633 H   0  0  0  0  0  0  0  0  0  0  0  0
   -1.0161    1.7660   -0.3342 H   0  0  0  0  0  0  0  0  0  0  0  0
   -1.6388    0.5856   -1.6578 H   0  0  0  0  0  0  0  0  0  0  0  0
  1  2  1  0
  2  3  1  0
  3  4  1  0
  4  5  1  0
  5  6  1  0
  6  7  1  0
  4  8  1  0
  8  9  2  0
  8  2  1  0
  7  4  1  0
  1 10  1  0
  1 11  1  0
  1 12  1  0
  2 13  1  0
  5 14  1  0
  5 15  1  0
  6 16  1  0
  6 17  1  0
  7 18  1  0
  7 19  1  0
M  END
