
     RDKit          3D

 21 22  0  0  0  0  0  0  0  0999 V2000
    2.3305   -0.9839   -0.5833 C   0  0  0  0  0  0  0  0  0  0  0  0
    0.8163   -0.7661   -0.5593 C   0  0  0  0  0  0  0  0  0  0  0  0
    0.3155   -0.7978    0.8304 O   0  0  0  0  0  0  0  0  0  0  0  0
    0.3270    0.4252    0.0392 C   0  0  0  0  0  0  0  0  0  0  0  0
    1.3939    1.3855    0.6006 C   0  0  0  0  0  0  0  0  0  0  0  0
   -1.0223    1.0334   -0.0498 C   0  0  0  0  0  0  0  0  0  0  0  0
   -2.1663    0.2224    0.4403 C   0  0  0  0  0  0  0  0  0  0  0  0
   -2.5216   -1.1082   -0.1520 C   0  0  0  0  0  0  0  0  0  0  0  0
   -1.8143   -0.9892    1.0397 O   0  0  0  0  0  0  0  0  0  0  0  0
    2.7618   -0.0926   -1.0810 H   0  0  0  0  0  0  0  0  0  0  0  0
    2.7635   -1.0825    0.4235 H   0  0  0  0  0  0  0  0  0  0  0  0
    2.6244   -1.8574   -1.1968 H   0  0  0  0  0  0  0  0  0  0  0  0
    0.3054   -1.4255   -1.2587 H   0  0  0  0  0  0  0  0  0  0  0  0
    1.5915    2.1065   -0.2121 H   0  0  0  0  0  0  0  0  0  0  0  0
    0.8894    1.8799    1.4782 H   0  0  0  0  0  0  0  0  0  0  0  0
    2.2889    0.8330    0.9377 H   0  0  0  0  0  0  0  0  0  0  0  0
   -1.1871    1.3919   -1.1124 H   0  0  0  0  0  0  0  0  0  0  0  0
   -1.0503    2.0027    0.5356 H   0  0  0  0  0  0  0  0  0  0  0  0
   -3.0355    0.7625    0.9252 H   0  0  0  0  0  0  0  0  0  0  0  0
   -3.5613   -1.4849    0.0335 H   0  0  0  0  0  0  0  0  0  0  0  0
   -2.0492   -1.4547   -1.0787 H   0  0  0  0  0  0  0  0  0  0  0  0
  1  2  1  0
  2  3  1  0
  3  4  1  0
  4  5  1  0
  4  6  1  0
  6  7  1  0
  7  8  1  0
  8  9  1  0
  4  2  1  0
  9  7  1  0
  1 10  1  0
  1 11  1  0
  1 12  1  0
  2 13  1  0
  5 14  1  0
  5 15  1  0
  5 16  1  0
  6 17  1  0
  6 18  1  0
  7 19  1  0
  8 20  1  0
  8 21  1  0
M  END
