
     RDKit          3D

 18 19  0  0  0  0  0  0  0  0999 V2000
    2.0981   -0.0378   -0.3972 C   0  0  0  0  0  0  0  0  0  0  0  0
    0.8530   -0.6885    0.1398 C   0  0  0  0  0  0  0  0  0  0  0  0
   -0.0246   -1.0929   -0.8408 O   0  0  0  0  0  0  0  0  0  0  0  0
   -1.2502   -0.4836   -0.6067 C   0  0  0  0  0  0  0  0  0  0  0  0
   -1.0635    0.9940   -0.8465 C   0  0  0  0  0  0  0  0  0  0  0  0
   -0.1671    1.4093    0.1382 O   0  0  0  0  0  0  0  0  0  0  0  0
    0.0786    0.3216    0.9604 C   0  0  0  0  0  0  0  0  0  0  0  0
   -1.2729   -0.4157    0.9346 C   0  0  0  0  0  0  0  0  0  0  0  0
    2.5800   -0.6109   -1.1932 H   0  0  0  0  0  0  0  0  0  0  0  0
    2.8264    0.0126    0.4585 H   0  0  0  0  0  0  0  0  0  0  0  0
    1.8922    1.0165   -0.6834 H   0  0  0  0  0  0  0  0  0  0  0  0
    1.1416   -1.5147    0.8426 H   0  0  0  0  0  0  0  0  0  0  0  0
   -2.1067   -0.9383   -1.0343 H   0  0  0  0  0  0  0  0  0  0  0  0
   -0.7278    1.2311   -1.8604 H   0  0  0  0  0  0  0  0  0  0  0  0
   -2.0644    1.4685   -0.6262 H   0  0  0  0  0  0  0  0  0  0  0  0
    0.4465    0.5250    1.9339 H   0  0  0  0  0  0  0  0  0  0  0  0
   -2.0879    0.1995    1.2941 H   0  0  0  0  0  0  0  0  0  0  0  0
   -1.1513   -1.3956    1.3865 H   0  0  0  0  0  0  0  0  0  0  0  0
  1  2  1  0
  2  3  1  0
  3  4  1  0
  4  5  1  0
  5  6  1  0
  6  7  1  0
  7  8  1  0
  7  2  1  0
  8  4  1  0
  1  9  1  0
  1 10  1  0
  1 11  1  0
  2 12  1  0
  4 13  1  0
  5 14  1  0
  5 15  1  0
  7 16  1  0
  8 17  1  0
  8 18  1  0
M  END
