
     RDKit          3D

 23 24  0  0  0  0  0  0  0  0999 V2000
   -2.2317   -1.4631    0.1189 C   0  0  0  0  0  0  0  0  0  0  0  0
   -1.1987   -0.5171   -0.4521 C   0  0  0  0  0  0  0  0  0  0  0  0
    0.0634   -1.0284   -0.4938 O   0  0  0  0  0  0  0  0  0  0  0  0
    0.9617   -0.1030   -0.0463 C   0  0  0  0  0  0  0  0  0  0  0  0
    1.7175   -0.7426    1.1264 C   0  0  0  0  0  0  0  0  0  0  0  0
    1.9445    0.2162   -1.1431 C   0  0  0  0  0  0  0  0  0  0  0  0
    0.2495    1.0863    0.4723 C   0  0  0  0  0  0  0  0  0  0  0  0
   -0.6332    1.9363   -0.3388 C   0  0  0  0  0  0  0  0  0  0  0  0
   -1.1858    0.7429    0.3696 C   0  0  0  0  0  0  0  0  0  0  0  0
   -1.8038   -2.1229    0.8954 H   0  0  0  0  0  0  0  0  0  0  0  0
   -3.0939   -0.8770    0.5034 H   0  0  0  0  0  0  0  0  0  0  0  0
   -2.6449   -2.0940   -0.7039 H   0  0  0  0  0  0  0  0  0  0  0  0
   -1.5084   -0.2923   -1.5092 H   0  0  0  0  0  0  0  0  0  0  0  0
    2.1798   -1.6781    0.7487 H   0  0  0  0  0  0  0  0  0  0  0  0
    2.4139   -0.0508    1.5987 H   0  0  0  0  0  0  0  0  0  0  0  0
    0.9058   -1.0741    1.8336 H   0  0  0  0  0  0  0  0  0  0  0  0
    2.6465    1.0327   -0.8439 H   0  0  0  0  0  0  0  0  0  0  0  0
    1.3666    0.5214   -2.0453 H   0  0  0  0  0  0  0  0  0  0  0  0
    2.5056   -0.7031   -1.4037 H   0  0  0  0  0  0  0  0  0  0  0  0
    0.6683    1.5556    1.4083 H   0  0  0  0  0  0  0  0  0  0  0  0
   -0.6109    1.9215   -1.4535 H   0  0  0  0  0  0  0  0  0  0  0  0
   -0.9362    2.9036    0.0701 H   0  0  0  0  0  0  0  0  0  0  0  0
   -1.7756    0.8300    1.2880 H   0  0  0  0  0  0  0  0  0  0  0  0
  1  2  1  0
  2  3  1  0
  3  4  1  0
  4  5  1  0
  4  6  1  0
  4  7  1  0
  7  8  1  0
  8  9  1  0
  9  2  1  0
  9  7  1  0
  1 10  1  0
  1 11  1  0
  1 12  1  0
  2 13  1  0
  5 14  1  0
  5 15  1  0
  5 16  1  0
  6 17  1  0
  6 18  1  0
  6 19  1  0
  7 20  1  0
  8 21  1  0
  8 22  1  0
  9 23  1  0
M  END
