
     RDKit          3D

 12 12  0  0  0  0  0  0  0  0999 V2000
   -1.3975    0.1375    0.3890 C   0  0  0  0  0  0  0  0  0  0  0  0
   -0.5244   -0.6404   -0.5864 C   0  0  0  0  0  0  0  0  0  0  0  0
    0.2340    0.3114   -1.3079 O   0  0  0  0  0  0  0  0  0  0  0  0
    1.2995    0.7176   -0.5268 C   0  0  0  0  0  0  0  0  0  0  0  0
    1.9856    1.7933   -0.6329 O   0  0  0  0  0  0  0  0  0  0  0  0
    1.4917   -0.3383    0.4587 C   0  0  0  0  0  0  0  0  0  0  0  0
    2.3542   -0.3493    1.3446 O   0  0  0  0  0  0  0  0  0  0  0  0
    0.4997   -1.2963    0.1657 O   0  0  0  0  0  0  0  0  0  0  0  0
   -1.1082    1.2154    0.4301 H   0  0  0  0  0  0  0  0  0  0  0  0
   -1.2926   -0.2415    1.4219 H   0  0  0  0  0  0  0  0  0  0  0  0
   -2.4502    0.0182    0.0608 H   0  0  0  0  0  0  0  0  0  0  0  0
   -1.0917   -1.3274   -1.2168 H   0  0  0  0  0  0  0  0  0  0  0  0
  1  2  1  0
  2  3  1  0
  3  4  1  0
  4  5  2  0
  4  6  1  0
  6  7  2  0
  6  8  1  0
  8  2  1  0
  1  9  1  0
  1 10  1  0
  1 11  1  0
  2 12  1  0
M  END
