
     RDKit          3D

 21 22  0  0  0  0  0  0  0  0999 V2000
   -2.8918   -0.3003    0.5190 C   0  0  0  0  0  0  0  0  0  0  0  0
   -1.9688   -0.0955   -0.6859 C   0  0  0  0  0  0  0  0  0  0  0  0
   -1.2992   -1.2565   -1.1508 O   0  0  0  0  0  0  0  0  0  0  0  0
   -0.6181   -0.2119   -0.5821 C   0  0  0  0  0  0  0  0  0  0  0  0
    0.2818   -0.4177    0.5746 C   0  0  0  0  0  0  0  0  0  0  0  0
    1.4676   -0.2056   -0.3793 C   0  0  0  0  0  0  0  0  0  0  0  0
    2.4829    0.6740    0.2731 C   0  0  0  0  0  0  0  0  0  0  0  0
    2.8940    0.0043    1.4504 O   0  0  0  0  0  0  0  0  0  0  0  0
    0.4968    0.4765   -1.3144 C   0  0  0  0  0  0  0  0  0  0  0  0
   -3.8260    0.2700    0.4267 H   0  0  0  0  0  0  0  0  0  0  0  0
   -2.3667    0.0742    1.4233 H   0  0  0  0  0  0  0  0  0  0  0  0
   -3.1631   -1.3662    0.6409 H   0  0  0  0  0  0  0  0  0  0  0  0
   -2.4747    0.4369   -1.5141 H   0  0  0  0  0  0  0  0  0  0  0  0
    0.2157    0.3800    1.3489 H   0  0  0  0  0  0  0  0  0  0  0  0
    0.3481   -1.4371    1.0068 H   0  0  0  0  0  0  0  0  0  0  0  0
    1.8727   -1.1269   -0.7988 H   0  0  0  0  0  0  0  0  0  0  0  0
    3.3907    0.8288   -0.3157 H   0  0  0  0  0  0  0  0  0  0  0  0
    2.0177    1.6199    0.6248 H   0  0  0  0  0  0  0  0  0  0  0  0
    2.1287   -0.0911    2.0408 H   0  0  0  0  0  0  0  0  0  0  0  0
    0.4837    1.5927   -1.2218 H   0  0  0  0  0  0  0  0  0  0  0  0
    0.5280    0.1513   -2.3663 H   0  0  0  0  0  0  0  0  0  0  0  0
  1  2  1  0
  2  3  1  0
  3  4  1  0
  4  5  1  0
  5  6  1  0
  6  7  1  0
  7  8  1  0
  6  9  1  0
  4  2  1  0
  9  4  1  0
  1 10  1  0
  1 11  1  0
  1 12  1  0
  2 13  1  0
  5 14  1  0
  5 15  1  0
  6 16  1  0
  7 17  1  0
  7 18  1  0
  8 19  1  0
  9 20  1  0
  9 21  1  0
M  END
