
     RDKit          3D

 15 15  0  0  0  0  0  0  0  0999 V2000
   -2.0973    0.0355   -0.0386 C   0  0  0  0  0  0  0  0  0  0  0  0
   -0.6730   -0.2490   -0.4550 C   0  0  0  0  0  0  0  0  0  0  0  0
   -0.0579    0.8658   -1.0632 O   0  0  0  0  0  0  0  0  0  0  0  0
    1.1126    1.2138   -0.4518 C   0  0  0  0  0  0  0  0  0  0  0  0
    1.7943    2.2656   -0.6528 O   0  0  0  0  0  0  0  0  0  0  0  0
    1.4570    0.1287    0.5068 C   0  0  0  0  0  0  0  0  0  0  0  0
    2.4691   -0.6245   -0.0732 O   0  0  0  0  0  0  0  0  0  0  0  0
    0.2021   -0.5978    0.6743 C   0  0  0  0  0  0  0  0  0  0  0  0
   -0.0702   -1.3530    1.5810 O   0  0  0  0  0  0  0  0  0  0  0  0
   -2.3536   -0.5087    0.8913 H   0  0  0  0  0  0  0  0  0  0  0  0
   -2.8385   -0.3006   -0.8079 H   0  0  0  0  0  0  0  0  0  0  0  0
   -2.2134    1.1397    0.0720 H   0  0  0  0  0  0  0  0  0  0  0  0
   -0.7435   -1.0934   -1.2020 H   0  0  0  0  0  0  0  0  0  0  0  0
    1.8238    0.6133    1.4522 H   0  0  0  0  0  0  0  0  0  0  0  0
    2.1886   -1.5352   -0.3123 H   0  0  0  0  0  0  0  0  0  0  0  0
  1  2  1  0
  2  3  1  0
  3  4  1  0
  4  5  2  0
  4  6  1  0
  6  7  1  0
  6  8  1  0
  8  9  2  0
  8  2  1  0
  1 10  1  0
  1 11  1  0
  1 12  1  0
  2 13  1  0
  6 14  1  0
  7 15  1  0
M  END
