
     RDKit          3D

 19 20  0  0  0  0  0  0  0  0999 V2000
   -2.6726    0.1371    0.1688 C   0  0  0  0  0  0  0  0  0  0  0  0
   -1.5683   -0.8815    0.0398 C   0  0  0  0  0  0  0  0  0  0  0  0
   -0.8083   -1.2245    1.1394 O   0  0  0  0  0  0  0  0  0  0  0  0
   -0.2094   -0.4370    0.1643 C   0  0  0  0  0  0  0  0  0  0  0  0
    0.1958    0.9151    0.6104 C   0  0  0  0  0  0  0  0  0  0  0  0
    1.4705    1.2442    0.4782 C   0  0  0  0  0  0  0  0  0  0  0  0
    2.5048    0.3492   -0.0837 C   0  0  0  0  0  0  0  0  0  0  0  0
    2.1135   -0.9591   -0.1935 O   0  0  0  0  0  0  0  0  0  0  0  0
    0.8309   -1.0188   -0.7437 C   0  0  0  0  0  0  0  0  0  0  0  0
   -3.5574   -0.3548    0.6496 H   0  0  0  0  0  0  0  0  0  0  0  0
   -2.3991    1.0275    0.7345 H   0  0  0  0  0  0  0  0  0  0  0  0
   -2.9981    0.4156   -0.8676 H   0  0  0  0  0  0  0  0  0  0  0  0
   -1.8029   -1.6962   -0.6698 H   0  0  0  0  0  0  0  0  0  0  0  0
   -0.4739    1.6507    1.0352 H   0  0  0  0  0  0  0  0  0  0  0  0
    1.8186    2.2415    0.7971 H   0  0  0  0  0  0  0  0  0  0  0  0
    2.7483    0.7230   -1.0970 H   0  0  0  0  0  0  0  0  0  0  0  0
    3.4578    0.4143    0.5041 H   0  0  0  0  0  0  0  0  0  0  0  0
    0.7941   -0.4741   -1.7078 H   0  0  0  0  0  0  0  0  0  0  0  0
    0.5558   -2.0720   -0.9584 H   0  0  0  0  0  0  0  0  0  0  0  0
  1  2  1  0
  2  3  1  0
  3  4  1  0
  4  5  1  0
  5  6  2  0
  6  7  1  0
  7  8  1  0
  8  9  1  0
  4  2  1  0
  9  4  1  0
  1 10  1  0
  1 11  1  0
  1 12  1  0
  2 13  1  0
  5 14  1  0
  6 15  1  0
  7 16  1  0
  7 17  1  0
  9 18  1  0
  9 19  1  0
M  END
