
     RDKit          3D

 19 19  0  0  0  0  0  0  0  0999 V2000
    2.6048    0.3967    0.2004 C   0  0  0  0  0  0  0  0  0  0  0  0
    1.1839    0.4200   -0.2357 C   0  0  0  0  0  0  0  0  0  0  0  0
    0.2838    0.1463    0.8205 O   0  0  0  0  0  0  0  0  0  0  0  0
   -0.9025   -0.1708    0.1865 C   0  0  0  0  0  0  0  0  0  0  0  0
   -1.6735   -1.2588    0.9368 C   0  0  0  0  0  0  0  0  0  0  0  0
   -1.7212    1.0836    0.0610 C   0  0  0  0  0  0  0  0  0  0  0  0
   -0.5665   -0.7333   -1.0721 O   0  0  0  0  0  0  0  0  0  0  0  0
    0.8348   -0.7050   -1.1591 C   0  0  0  0  0  0  0  0  0  0  0  0
    1.5946   -1.4371   -1.8383 O   0  0  0  0  0  0  0  0  0  0  0  0
    2.9454    1.4675    0.2868 H   0  0  0  0  0  0  0  0  0  0  0  0
    2.6428   -0.0202    1.2285 H   0  0  0  0  0  0  0  0  0  0  0  0
    3.2729   -0.1574   -0.4948 H   0  0  0  0  0  0  0  0  0  0  0  0
    0.8572    1.3528   -0.7079 H   0  0  0  0  0  0  0  0  0  0  0  0
   -1.0497   -1.7525    1.6821 H   0  0  0  0  0  0  0  0  0  0  0  0
   -2.5429   -0.8062    1.4247 H   0  0  0  0  0  0  0  0  0  0  0  0
   -2.0520   -2.0366    0.2472 H   0  0  0  0  0  0  0  0  0  0  0  0
   -2.3660    1.0853   -0.8152 H   0  0  0  0  0  0  0  0  0  0  0  0
   -1.0256    1.9545   -0.0274 H   0  0  0  0  0  0  0  0  0  0  0  0
   -2.3203    1.1710    1.0132 H   0  0  0  0  0  0  0  0  0  0  0  0
  1  2  1  0
  2  3  1  0
  3  4  1  0
  4  5  1  0
  4  6  1  0
  4  7  1  0
  7  8  1  0
  8  9  2  0
  8  2  1  0
  1 10  1  0
  1 11  1  0
  1 12  1  0
  2 13  1  0
  5 14  1  0
  5 15  1  0
  5 16  1  0
  6 17  1  0
  6 18  1  0
  6 19  1  0
M  END
