
     RDKit          3D

 23 23  0  0  0  0  0  0  0  0999 V2000
    3.3884    0.4400    0.1155 C   0  0  0  0  0  0  0  0  0  0  0  0
    1.8865    0.5524    0.0298 C   0  0  0  0  0  0  0  0  0  0  0  0
    1.1635   -0.0881    1.1358 O   0  0  0  0  0  0  0  0  0  0  0  0
    1.0874   -0.6535   -0.1404 C   0  0  0  0  0  0  0  0  0  0  0  0
   -0.2537   -0.6786   -0.7897 C   0  0  0  0  0  0  0  0  0  0  0  0
   -1.2859    0.1763   -0.1141 C   0  0  0  0  0  0  0  0  0  0  0  0
   -2.5690    0.0002   -0.9396 C   0  0  0  0  0  0  0  0  0  0  0  0
   -1.6234   -0.3616    1.2735 C   0  0  0  0  0  0  0  0  0  0  0  0
   -0.9282    1.4972    0.0066 O   0  0  0  0  0  0  0  0  0  0  0  0
    3.8480    1.2279    0.7259 H   0  0  0  0  0  0  0  0  0  0  0  0
    3.7862    0.4035   -0.9181 H   0  0  0  0  0  0  0  0  0  0  0  0
    3.6091   -0.5575    0.5761 H   0  0  0  0  0  0  0  0  0  0  0  0
    1.5176    1.5781   -0.0688 H   0  0  0  0  0  0  0  0  0  0  0  0
    1.6792   -1.5935   -0.3025 H   0  0  0  0  0  0  0  0  0  0  0  0
   -0.2304   -0.3692   -1.8640 H   0  0  0  0  0  0  0  0  0  0  0  0
   -0.6491   -1.7220   -0.7979 H   0  0  0  0  0  0  0  0  0  0  0  0
   -2.2941   -0.1973   -2.0118 H   0  0  0  0  0  0  0  0  0  0  0  0
   -3.1108   -0.8954   -0.5963 H   0  0  0  0  0  0  0  0  0  0  0  0
   -3.1824    0.9042   -0.9403 H   0  0  0  0  0  0  0  0  0  0  0  0
   -2.6977   -0.2291    1.4998 H   0  0  0  0  0  0  0  0  0  0  0  0
   -0.9920    0.0728    2.0566 H   0  0  0  0  0  0  0  0  0  0  0  0
   -1.3890   -1.4489    1.2403 H   0  0  0  0  0  0  0  0  0  0  0  0
   -0.7601    1.9420   -0.8397 H   0  0  0  0  0  0  0  0  0  0  0  0
  1  2  1  0
  2  3  1  0
  3  4  1  0
  4  5  1  0
  5  6  1  0
  6  7  1  0
  6  8  1  0
  6  9  1  0
  4  2  1  0
  1 10  1  0
  1 11  1  0
  1 12  1  0
  2 13  1  0
  4 14  1  0
  5 15  1  0
  5 16  1  0
  7 17  1  0
  7 18  1  0
  7 19  1  0
  8 20  1  0
  8 21  1  0
  8 22  1  0
  9 23  1  0
M  END
