
     RDKit          3D

 19 20  0  0  0  0  0  0  0  0999 V2000
    2.5221   -0.2009   -0.1555 C   0  0  0  0  0  0  0  0  0  0  0  0
    1.2020    0.3927    0.2781 C   0  0  0  0  0  0  0  0  0  0  0  0
    0.5208   -0.3137    1.2412 O   0  0  0  0  0  0  0  0  0  0  0  0
   -0.1719   -1.0187    0.2646 C   0  0  0  0  0  0  0  0  0  0  0  0
   -1.6315   -1.0043    0.3655 C   0  0  0  0  0  0  0  0  0  0  0  0
   -2.3070   -1.8831    0.8573 O   0  0  0  0  0  0  0  0  0  0  0  0
   -2.2090    0.2355   -0.2148 C   0  0  0  0  0  0  0  0  0  0  0  0
   -1.0277    1.0806   -0.6248 C   0  0  0  0  0  0  0  0  0  0  0  0
    0.1022    0.1118   -0.6965 C   0  0  0  0  0  0  0  0  0  0  0  0
    2.3898   -1.1696   -0.6823 H   0  0  0  0  0  0  0  0  0  0  0  0
    3.2615   -0.2649    0.6588 H   0  0  0  0  0  0  0  0  0  0  0  0
    2.9524    0.5022   -0.9158 H   0  0  0  0  0  0  0  0  0  0  0  0
    1.3559    1.4787    0.5047 H   0  0  0  0  0  0  0  0  0  0  0  0
    0.3216   -1.9601    0.0150 H   0  0  0  0  0  0  0  0  0  0  0  0
   -2.8332    0.0340   -1.1177 H   0  0  0  0  0  0  0  0  0  0  0  0
   -2.8134    0.7818    0.5082 H   0  0  0  0  0  0  0  0  0  0  0  0
   -1.2089    1.5908   -1.5936 H   0  0  0  0  0  0  0  0  0  0  0  0
   -0.8393    1.8324    0.1678 H   0  0  0  0  0  0  0  0  0  0  0  0
    0.4136   -0.2253   -1.6932 H   0  0  0  0  0  0  0  0  0  0  0  0
  1  2  1  0
  2  3  1  0
  3  4  1  0
  4  5  1  0
  5  6  2  0
  5  7  1  0
  7  8  1  0
  8  9  1  0
  9  2  1  0
  9  4  1  0
  1 10  1  0
  1 11  1  0
  1 12  1  0
  2 13  1  0
  4 14  1  0
  7 15  1  0
  7 16  1  0
  8 17  1  0
  8 18  1  0
  9 19  1  0
M  END
