
     RDKit          3D

 19 19  0  0  0  0  0  0  0  0999 V2000
   -2.8462    0.0400    0.3419 C   0  0  0  0  0  0  0  0  0  0  0  0
   -1.5669   -0.4748   -0.2350 C   0  0  0  0  0  0  0  0  0  0  0  0
   -0.4689   -0.4647    0.6558 O   0  0  0  0  0  0  0  0  0  0  0  0
    0.3172   -0.2987   -0.4897 C   0  0  0  0  0  0  0  0  0  0  0  0
    1.6182    0.4097   -0.2755 C   0  0  0  0  0  0  0  0  0  0  0  0
    2.4880   -0.4702    0.5898 C   0  0  0  0  0  0  0  0  0  0  0  0
    1.4771    1.6924    0.2230 O   0  0  0  0  0  0  0  0  0  0  0  0
   -0.7868    0.4624   -1.0597 C   0  0  0  0  0  0  0  0  0  0  0  0
   -1.0067    1.3656   -1.7987 O   0  0  0  0  0  0  0  0  0  0  0  0
   -3.4099    0.7073   -0.3616 H   0  0  0  0  0  0  0  0  0  0  0  0
   -3.5124   -0.8552    0.5044 H   0  0  0  0  0  0  0  0  0  0  0  0
   -2.7284    0.5352    1.3022 H   0  0  0  0  0  0  0  0  0  0  0  0
   -1.6304   -1.4993   -0.6802 H   0  0  0  0  0  0  0  0  0  0  0  0
    0.4880   -1.2362   -1.0604 H   0  0  0  0  0  0  0  0  0  0  0  0
    2.1160    0.4955   -1.2621 H   0  0  0  0  0  0  0  0  0  0  0  0
    1.9872   -1.4339    0.8526 H   0  0  0  0  0  0  0  0  0  0  0  0
    3.4288   -0.7697    0.0654 H   0  0  0  0  0  0  0  0  0  0  0  0
    2.7871    0.0427    1.5258 H   0  0  0  0  0  0  0  0  0  0  0  0
    1.2488    1.7518    1.1621 H   0  0  0  0  0  0  0  0  0  0  0  0
  1  2  1  0
  2  3  1  0
  3  4  1  0
  4  5  1  0
  5  6  1  0
  5  7  1  0
  4  8  1  0
  8  9  2  0
  8  2  1  0
  1 10  1  0
  1 11  1  0
  1 12  1  0
  2 13  1  0
  4 14  1  0
  5 15  1  0
  6 16  1  0
  6 17  1  0
  6 18  1  0
  7 19  1  0
M  END
