
     RDKit          3D

 18 19  0  0  0  0  0  0  0  0999 V2000
    2.2361    0.6105   -0.3357 C   0  0  0  0  0  0  0  0  0  0  0  0
    0.9205   -0.1543   -0.3023 C   0  0  0  0  0  0  0  0  0  0  0  0
    0.0688    0.4215   -1.2144 O   0  0  0  0  0  0  0  0  0  0  0  0
   -1.1154   -0.3162   -1.2355 C   0  0  0  0  0  0  0  0  0  0  0  0
   -1.8746    0.0550    0.0333 C   0  0  0  0  0  0  0  0  0  0  0  0
   -1.0395   -0.1906    1.2682 C   0  0  0  0  0  0  0  0  0  0  0  0
   -0.2267    0.9264    1.6429 O   0  0  0  0  0  0  0  0  0  0  0  0
    0.3780   -0.1819    1.1008 C   0  0  0  0  0  0  0  0  0  0  0  0
    2.0981    1.5793   -0.8386 H   0  0  0  0  0  0  0  0  0  0  0  0
    3.0097   -0.0299   -0.8347 H   0  0  0  0  0  0  0  0  0  0  0  0
    2.5518    0.8316    0.7145 H   0  0  0  0  0  0  0  0  0  0  0  0
    1.1074   -1.2298   -0.5904 H   0  0  0  0  0  0  0  0  0  0  0  0
   -1.7752   -0.0393   -2.0826 H   0  0  0  0  0  0  0  0  0  0  0  0
   -0.9046   -1.3960   -1.2964 H   0  0  0  0  0  0  0  0  0  0  0  0
   -2.1296    1.1356   -0.0742 H   0  0  0  0  0  0  0  0  0  0  0  0
   -2.8286   -0.4988    0.1243 H   0  0  0  0  0  0  0  0  0  0  0  0
   -1.4901   -0.7718    2.1121 H   0  0  0  0  0  0  0  0  0  0  0  0
    1.0139   -0.7514    1.8088 H   0  0  0  0  0  0  0  0  0  0  0  0
  1  2  1  0
  2  3  1  0
  3  4  1  0
  4  5  1  0
  5  6  1  0
  6  7  1  0
  7  8  1  0
  8  2  1  0
  8  6  1  0
  1  9  1  0
  1 10  1  0
  1 11  1  0
  2 12  1  0
  4 13  1  0
  4 14  1  0
  5 15  1  0
  5 16  1  0
  6 17  1  0
  8 18  1  0
M  END
