
     RDKit          3D

 17 18  0  0  0  0  0  0  0  0999 V2000
   -2.0790   -0.1758    0.1137 C   0  0  0  0  0  0  0  0  0  0  0  0
   -0.7294   -0.4573   -0.5205 C   0  0  0  0  0  0  0  0  0  0  0  0
   -0.0239   -1.2674    0.3678 O   0  0  0  0  0  0  0  0  0  0  0  0
    1.1918   -0.6341    0.6209 C   0  0  0  0  0  0  0  0  0  0  0  0
    0.6767    0.8157    0.7786 C   0  0  0  0  0  0  0  0  0  0  0  0
    0.0666    0.8115   -0.6353 C   0  0  0  0  0  0  0  0  0  0  0  0
    1.2456    0.4731   -1.3795 O   0  0  0  0  0  0  0  0  0  0  0  0
    1.9573   -0.4509   -0.6314 C   0  0  0  0  0  0  0  0  0  0  0  0
    3.0189   -1.0036   -0.9582 O   0  0  0  0  0  0  0  0  0  0  0  0
   -2.7890   -0.9783   -0.1157 H   0  0  0  0  0  0  0  0  0  0  0  0
   -2.4512    0.7850   -0.3041 H   0  0  0  0  0  0  0  0  0  0  0  0
   -1.9500   -0.0678    1.2186 H   0  0  0  0  0  0  0  0  0  0  0  0
   -0.8721   -0.9330   -1.5111 H   0  0  0  0  0  0  0  0  0  0  0  0
    1.7247   -0.9909    1.4682 H   0  0  0  0  0  0  0  0  0  0  0  0
    1.5280    1.4841    0.8574 H   0  0  0  0  0  0  0  0  0  0  0  0
   -0.0853    0.8918    1.5479 H   0  0  0  0  0  0  0  0  0  0  0  0
   -0.4296    1.6980   -0.9174 H   0  0  0  0  0  0  0  0  0  0  0  0
  1  2  1  0
  2  3  1  0
  3  4  1  0
  4  5  1  0
  5  6  1  0
  6  7  1  0
  7  8  1  0
  8  9  2  0
  6  2  1  0
  8  4  1  0
  1 10  1  0
  1 11  1  0
  1 12  1  0
  2 13  1  0
  4 14  1  0
  5 15  1  0
  5 16  1  0
  6 17  1  0
M  END
