
     RDKit          3D

 17 18  0  0  0  0  0  0  0  0999 V2000
   -1.9519   -0.8570   -0.2172 C   0  0  0  0  0  0  0  0  0  0  0  0
   -1.3540    0.4459    0.2274 C   0  0  0  0  0  0  0  0  0  0  0  0
   -0.8950    0.4391    1.5852 O   0  0  0  0  0  0  0  0  0  0  0  0
    0.0383    1.3631    1.1810 C   0  0  0  0  0  0  0  0  0  0  0  0
    0.5785    2.3441    1.6968 O   0  0  0  0  0  0  0  0  0  0  0  0
    0.0913    0.6612   -0.1098 C   0  0  0  0  0  0  0  0  0  0  0  0
    0.9716   -0.5523   -0.0279 C   0  0  0  0  0  0  0  0  0  0  0  0
    2.3963   -0.3607   -0.3560 C   0  0  0  0  0  0  0  0  0  0  0  0
    1.9655   -0.5843    0.9938 O   0  0  0  0  0  0  0  0  0  0  0  0
   -1.9550   -0.9195   -1.3175 H   0  0  0  0  0  0  0  0  0  0  0  0
   -1.4606   -1.7000    0.2799 H   0  0  0  0  0  0  0  0  0  0  0  0
   -3.0407   -0.8110    0.0815 H   0  0  0  0  0  0  0  0  0  0  0  0
   -1.9466    1.3510    0.0665 H   0  0  0  0  0  0  0  0  0  0  0  0
    0.2969    1.2874   -0.9982 H   0  0  0  0  0  0  0  0  0  0  0  0
    0.5263   -1.5705   -0.1667 H   0  0  0  0  0  0  0  0  0  0  0  0
    2.7455    0.6724   -0.5676 H   0  0  0  0  0  0  0  0  0  0  0  0
    2.9935   -1.2090   -0.7631 H   0  0  0  0  0  0  0  0  0  0  0  0
  1  2  1  0
  2  3  1  0
  3  4  1  0
  4  5  2  0
  4  6  1  0
  6  7  1  0
  7  8  1  0
  8  9  1  0
  6  2  1  0
  9  7  1  0
  1 10  1  0
  1 11  1  0
  1 12  1  0
  2 13  1  0
  6 14  1  0
  7 15  1  0
  8 16  1  0
  8 17  1  0
M  END
