
     RDKit          3D

 17 18  0  0  0  0  0  0  0  0999 V2000
    2.4794   -0.0261    0.3341 C   0  0  0  0  0  0  0  0  0  0  0  0
    1.1549   -0.5213   -0.1302 C   0  0  0  0  0  0  0  0  0  0  0  0
    0.2372   -0.5114    0.9478 O   0  0  0  0  0  0  0  0  0  0  0  0
   -0.6725    0.0156    0.0793 C   0  0  0  0  0  0  0  0  0  0  0  0
   -1.7083    0.9359    0.5669 C   0  0  0  0  0  0  0  0  0  0  0  0
   -2.5662   -0.1782    0.7189 O   0  0  0  0  0  0  0  0  0  0  0  0
   -1.8416   -0.7864   -0.3245 C   0  0  0  0  0  0  0  0  0  0  0  0
    0.3076    0.4336   -0.8773 C   0  0  0  0  0  0  0  0  0  0  0  0
    0.3967    1.1821   -1.8141 O   0  0  0  0  0  0  0  0  0  0  0  0
    2.5903   -0.0247    1.4329 H   0  0  0  0  0  0  0  0  0  0  0  0
    3.3085   -0.6662   -0.0864 H   0  0  0  0  0  0  0  0  0  0  0  0
    2.6346    1.0082   -0.0410 H   0  0  0  0  0  0  0  0  0  0  0  0
    1.1689   -1.5082   -0.6481 H   0  0  0  0  0  0  0  0  0  0  0  0
   -1.4477    1.4445    1.4973 H   0  0  0  0  0  0  0  0  0  0  0  0
   -2.0534    1.6375   -0.2253 H   0  0  0  0  0  0  0  0  0  0  0  0
   -2.2626   -0.5497   -1.3080 H   0  0  0  0  0  0  0  0  0  0  0  0
   -1.7259   -1.8850   -0.1223 H   0  0  0  0  0  0  0  0  0  0  0  0
  1  2  1  0
  2  3  1  0
  3  4  1  0
  4  5  1  0
  5  6  1  0
  6  7  1  0
  4  8  1  0
  8  9  2  0
  8  2  1  0
  7  4  1  0
  1 10  1  0
  1 11  1  0
  1 12  1  0
  2 13  1  0
  5 14  1  0
  5 15  1  0
  7 16  1  0
  7 17  1  0
M  END
