
     RDKit          3D

 17 18  0  0  0  0  0  0  0  0999 V2000
    2.3789   -0.3521    0.0477 C   0  0  0  0  0  0  0  0  0  0  0  0
    1.0311    0.2999    0.0085 C   0  0  0  0  0  0  0  0  0  0  0  0
    0.3694    0.2467    1.2276 O   0  0  0  0  0  0  0  0  0  0  0  0
   -0.9547    0.5610    0.9325 C   0  0  0  0  0  0  0  0  0  0  0  0
   -1.8549   -0.6193    0.7985 C   0  0  0  0  0  0  0  0  0  0  0  0
   -1.2715   -0.0314   -0.4119 C   0  0  0  0  0  0  0  0  0  0  0  0
   -2.1169    0.6570   -1.2749 O   0  0  0  0  0  0  0  0  0  0  0  0
    0.0830   -0.3923   -0.8994 C   0  0  0  0  0  0  0  0  0  0  0  0
    0.3846   -1.0991   -1.8363 O   0  0  0  0  0  0  0  0  0  0  0  0
    2.6151   -0.8356   -0.9234 H   0  0  0  0  0  0  0  0  0  0  0  0
    2.4940   -1.0710    0.8556 H   0  0  0  0  0  0  0  0  0  0  0  0
    3.1468    0.4554    0.2240 H   0  0  0  0  0  0  0  0  0  0  0  0
    1.0864    1.3672   -0.2801 H   0  0  0  0  0  0  0  0  0  0  0  0
   -1.3516    1.5487    1.1951 H   0  0  0  0  0  0  0  0  0  0  0  0
   -2.9250   -0.4535    0.9635 H   0  0  0  0  0  0  0  0  0  0  0  0
   -1.4974   -1.5954    1.2128 H   0  0  0  0  0  0  0  0  0  0  0  0
   -1.6172    1.3138   -1.8398 H   0  0  0  0  0  0  0  0  0  0  0  0
  1  2  1  0
  2  3  1  0
  3  4  1  0
  4  5  1  0
  5  6  1  0
  6  7  1  0
  6  8  1  0
  8  9  2  0
  8  2  1  0
  6  4  1  0
  1 10  1  0
  1 11  1  0
  1 12  1  0
  2 13  1  0
  4 14  1  0
  5 15  1  0
  5 16  1  0
  7 17  1  0
M  END
