
     RDKit          3D

 17 18  0  0  0  0  0  0  0  0999 V2000
    2.7283    0.3768    0.1230 C   0  0  0  0  0  0  0  0  0  0  0  0
    1.4299   -0.3335   -0.0100 C   0  0  0  0  0  0  0  0  0  0  0  0
    1.2716   -1.5772   -0.3211 O   0  0  0  0  0  0  0  0  0  0  0  0
   -0.0133   -1.9016   -0.3563 C   0  0  0  0  0  0  0  0  0  0  0  0
   -0.7206   -0.7715   -0.0422 C   0  0  0  0  0  0  0  0  0  0  0  0
    0.1938    0.2489    0.1840 C   0  0  0  0  0  0  0  0  0  0  0  0
   -0.4796    1.4261    0.5089 O   0  0  0  0  0  0  0  0  0  0  0  0
   -1.7815    1.3097   -0.0858 C   0  0  0  0  0  0  0  0  0  0  0  0
   -2.0594   -0.1655    0.1616 C   0  0  0  0  0  0  0  0  0  0  0  0
    3.2918    0.2491   -0.8426 H   0  0  0  0  0  0  0  0  0  0  0  0
    2.5971    1.4519    0.3464 H   0  0  0  0  0  0  0  0  0  0  0  0
    3.3471   -0.1308    0.8937 H   0  0  0  0  0  0  0  0  0  0  0  0
   -0.4681   -2.8556   -0.5826 H   0  0  0  0  0  0  0  0  0  0  0  0
   -1.6534    1.5351   -1.1527 H   0  0  0  0  0  0  0  0  0  0  0  0
   -2.5162    1.9531    0.4316 H   0  0  0  0  0  0  0  0  0  0  0  0
   -2.8246   -0.5686   -0.5029 H   0  0  0  0  0  0  0  0  0  0  0  0
   -2.3431   -0.2463    1.2469 H   0  0  0  0  0  0  0  0  0  0  0  0
  1  2  1  0
  2  3  1  0
  3  4  1  0
  4  5  2  0
  5  6  1  0
  6  7  1  0
  7  8  1  0
  8  9  1  0
  6  2  2  0
  9  5  1  0
  1 10  1  0
  1 11  1  0
  1 12  1  0
  4 13  1  0
  8 14  1  0
  8 15  1  0
  9 16  1  0
  9 17  1  0
M  END
