
     RDKit          3D

 15 15  0  0  0  0  0  0  0  0999 V2000
    2.0701    0.0015    0.5087 C   0  0  0  0  0  0  0  0  0  0  0  0
    0.8506   -0.3443   -0.3565 C   0  0  0  0  0  0  0  0  0  0  0  0
   -0.0224   -1.0990    0.3457 O   0  0  0  0  0  0  0  0  0  0  0  0
   -1.3469   -0.9772    0.0794 C   0  0  0  0  0  0  0  0  0  0  0  0
   -1.8205    0.4348    0.0410 C   0  0  0  0  0  0  0  0  0  0  0  0
   -2.9672    0.7910    0.4159 O   0  0  0  0  0  0  0  0  0  0  0  0
   -0.8310    1.3766   -0.4733 C   0  0  0  0  0  0  0  0  0  0  0  0
   -1.0855    2.5976   -0.4812 O   0  0  0  0  0  0  0  0  0  0  0  0
    0.3627    0.8231   -0.9319 O   0  0  0  0  0  0  0  0  0  0  0  0
    2.3033   -0.8383    1.1881 H   0  0  0  0  0  0  0  0  0  0  0  0
    1.8625    0.9234    1.1117 H   0  0  0  0  0  0  0  0  0  0  0  0
    2.9199    0.2205   -0.1740 H   0  0  0  0  0  0  0  0  0  0  0  0
    1.2818   -0.9835   -1.1792 H   0  0  0  0  0  0  0  0  0  0  0  0
   -1.9380   -1.5135    0.8257 H   0  0  0  0  0  0  0  0  0  0  0  0
   -1.6394   -1.4127   -0.9200 H   0  0  0  0  0  0  0  0  0  0  0  0
  1  2  1  0
  2  3  1  0
  3  4  1  0
  4  5  1  0
  5  6  2  0
  5  7  1  0
  7  8  2  0
  7  9  1  0
  9  2  1  0
  1 10  1  0
  1 11  1  0
  1 12  1  0
  2 13  1  0
  4 14  1  0
  4 15  1  0
M  END
