
     RDKit          3D

 21 22  0  0  0  0  0  0  0  0999 V2000
    2.5866    0.3938    0.2279 C   0  0  0  0  0  0  0  0  0  0  0  0
    1.2401   -0.1330    0.6541 C   0  0  0  0  0  0  0  0  0  0  0  0
    0.3088    0.8397    1.0170 O   0  0  0  0  0  0  0  0  0  0  0  0
   -0.6254    0.4757    0.0630 C   0  0  0  0  0  0  0  0  0  0  0  0
   -1.0260    1.6512   -0.7907 C   0  0  0  0  0  0  0  0  0  0  0  0
   -1.7145   -0.4401    0.4908 C   0  0  0  0  0  0  0  0  0  0  0  0
   -1.1555   -1.8126    0.2526 C   0  0  0  0  0  0  0  0  0  0  0  0
   -0.0602   -1.6973   -0.5661 O   0  0  0  0  0  0  0  0  0  0  0  0
    0.3929   -0.4198   -0.5629 C   0  0  0  0  0  0  0  0  0  0  0  0
    2.6985    0.4294   -0.8818 H   0  0  0  0  0  0  0  0  0  0  0  0
    3.3701   -0.3222    0.5769 H   0  0  0  0  0  0  0  0  0  0  0  0
    2.7719    1.4160    0.6022 H   0  0  0  0  0  0  0  0  0  0  0  0
    1.2450   -0.9317    1.4100 H   0  0  0  0  0  0  0  0  0  0  0  0
   -2.0949    1.5559   -1.0977 H   0  0  0  0  0  0  0  0  0  0  0  0
   -0.3870    1.6798   -1.7127 H   0  0  0  0  0  0  0  0  0  0  0  0
   -0.9249    2.5991   -0.2337 H   0  0  0  0  0  0  0  0  0  0  0  0
   -2.5802   -0.2917   -0.2007 H   0  0  0  0  0  0  0  0  0  0  0  0
   -2.0488   -0.2876    1.5406 H   0  0  0  0  0  0  0  0  0  0  0  0
   -0.8644   -2.2403    1.2437 H   0  0  0  0  0  0  0  0  0  0  0  0
   -1.8898   -2.4795   -0.2762 H   0  0  0  0  0  0  0  0  0  0  0  0
    0.7578    0.0151   -1.5137 H   0  0  0  0  0  0  0  0  0  0  0  0
  1  2  1  0
  2  3  1  0
  3  4  1  0
  4  5  1  0
  4  6  1  0
  6  7  1  0
  7  8  1  0
  8  9  1  0
  9  2  1  0
  9  4  1  0
  1 10  1  0
  1 11  1  0
  1 12  1  0
  2 13  1  0
  5 14  1  0
  5 15  1  0
  5 16  1  0
  6 17  1  0
  6 18  1  0
  7 19  1  0
  7 20  1  0
  9 21  1  0
M  END
