
     RDKit          3D

 19 21  0  0  0  0  0  0  0  0999 V2000
    2.2615    0.4965    0.2052 C   0  0  0  0  0  0  0  0  0  0  0  0
    1.1013   -0.3738    0.6953 C   0  0  0  0  0  0  0  0  0  0  0  0
    0.9237   -1.4428   -0.2205 O   0  0  0  0  0  0  0  0  0  0  0  0
   -0.2650   -1.1266   -0.8155 C   0  0  0  0  0  0  0  0  0  0  0  0
   -1.1835   -0.7172    0.3440 C   0  0  0  0  0  0  0  0  0  0  0  0
   -2.3051   -0.0183   -0.3324 C   0  0  0  0  0  0  0  0  0  0  0  0
   -1.6717    0.7257   -1.2510 C   0  0  0  0  0  0  0  0  0  0  0  0
   -0.2606    0.3920   -1.0439 C   0  0  0  0  0  0  0  0  0  0  0  0
   -0.1641    0.3885    0.4758 C   0  0  0  0  0  0  0  0  0  0  0  0
    1.9459    1.5521    0.0782 H   0  0  0  0  0  0  0  0  0  0  0  0
    3.0924    0.4471    0.9274 H   0  0  0  0  0  0  0  0  0  0  0  0
    2.5777    0.1440   -0.8042 H   0  0  0  0  0  0  0  0  0  0  0  0
    1.2735   -0.7200    1.7105 H   0  0  0  0  0  0  0  0  0  0  0  0
   -0.6875   -1.7311   -1.5806 H   0  0  0  0  0  0  0  0  0  0  0  0
   -1.3498   -1.3978    1.1248 H   0  0  0  0  0  0  0  0  0  0  0  0
   -3.3591   -0.1151   -0.1073 H   0  0  0  0  0  0  0  0  0  0  0  0
   -2.0523    1.4182   -1.9888 H   0  0  0  0  0  0  0  0  0  0  0  0
    0.5153    0.8119   -1.6118 H   0  0  0  0  0  0  0  0  0  0  0  0
   -0.3925    1.2668    1.0109 H   0  0  0  0  0  0  0  0  0  0  0  0
  1  2  1  0
  2  3  1  0
  3  4  1  0
  4  5  1  0
  5  6  1  0
  6  7  2  0
  7  8  1  0
  8  9  1  0
  9  2  1  0
  8  4  1  0
  9  5  1  0
  1 10  1  0
  1 11  1  0
  1 12  1  0
  2 13  1  0
  4 14  1  0
  5 15  1  0
  6 16  1  0
  7 17  1  0
  8 18  1  0
  9 19  1  0
M  END
