
     RDKit          3D

 21 22  0  0  0  0  0  0  0  0999 V2000
    2.4814   -0.0971    0.9832 C   0  0  0  0  0  0  0  0  0  0  0  0
    1.3394   -0.6507    0.2177 C   0  0  0  0  0  0  0  0  0  0  0  0
    1.3411   -0.2489   -1.1411 O   0  0  0  0  0  0  0  0  0  0  0  0
    0.0940    0.3522   -1.3032 C   0  0  0  0  0  0  0  0  0  0  0  0
    0.0500    1.2341   -0.0644 C   0  0  0  0  0  0  0  0  0  0  0  0
   -0.0034   -0.1084    0.6284 C   0  0  0  0  0  0  0  0  0  0  0  0
   -0.8125   -0.5770   -0.5760 C   0  0  0  0  0  0  0  0  0  0  0  0
   -2.2616   -0.3827   -0.5732 C   0  0  0  0  0  0  0  0  0  0  0  0
   -2.7739    0.7717   -0.0644 O   0  0  0  0  0  0  0  0  0  0  0  0
    2.7715   -0.8525    1.7661 H   0  0  0  0  0  0  0  0  0  0  0  0
    2.1997    0.8136    1.5731 H   0  0  0  0  0  0  0  0  0  0  0  0
    3.4008    0.0693    0.3850 H   0  0  0  0  0  0  0  0  0  0  0  0
    1.2739   -1.7556    0.2161 H   0  0  0  0  0  0  0  0  0  0  0  0
   -0.1696    0.7699   -2.2359 H   0  0  0  0  0  0  0  0  0  0  0  0
    1.0181    1.7643    0.0161 H   0  0  0  0  0  0  0  0  0  0  0  0
   -0.7749    1.9154    0.0511 H   0  0  0  0  0  0  0  0  0  0  0  0
   -0.3828   -0.2136    1.5962 H   0  0  0  0  0  0  0  0  0  0  0  0
   -0.5141   -1.6461   -0.7762 H   0  0  0  0  0  0  0  0  0  0  0  0
   -2.7167   -1.2314    0.0195 H   0  0  0  0  0  0  0  0  0  0  0  0
   -2.6272   -0.5857   -1.6231 H   0  0  0  0  0  0  0  0  0  0  0  0
   -2.9331    0.6591    0.9048 H   0  0  0  0  0  0  0  0  0  0  0  0
  1  2  1  0
  2  3  1  0
  3  4  1  0
  4  5  1  0
  5  6  1  0
  6  7  1  0
  7  8  1  0
  8  9  1  0
  6  2  1  0
  7  4  1  0
  1 10  1  0
  1 11  1  0
  1 12  1  0
  2 13  1  0
  4 14  1  0
  5 15  1  0
  5 16  1  0
  6 17  1  0
  7 18  1  0
  8 19  1  0
  8 20  1  0
  9 21  1  0
M  END
