
     RDKit          3D

 21 21  0  0  0  0  0  0  0  0999 V2000
    2.7645   -0.4644    0.6264 C   0  0  0  0  0  0  0  0  0  0  0  0
    1.4397   -0.2565   -0.0212 C   0  0  0  0  0  0  0  0  0  0  0  0
    1.3875    0.8972   -0.8073 O   0  0  0  0  0  0  0  0  0  0  0  0
    0.0164    1.0667   -1.0400 C   0  0  0  0  0  0  0  0  0  0  0  0
   -0.6657    0.2110    0.0008 C   0  0  0  0  0  0  0  0  0  0  0  0
   -1.7144    1.0551    0.6810 C   0  0  0  0  0  0  0  0  0  0  0  0
   -1.3512   -0.9916   -0.5935 C   0  0  0  0  0  0  0  0  0  0  0  0
   -1.8573   -1.7585    0.4355 O   0  0  0  0  0  0  0  0  0  0  0  0
    0.3812   -0.1356    0.8471 O   0  0  0  0  0  0  0  0  0  0  0  0
    2.9026    0.0274    1.5894 H   0  0  0  0  0  0  0  0  0  0  0  0
    3.5508   -0.1585   -0.1249 H   0  0  0  0  0  0  0  0  0  0  0  0
    2.9213   -1.5776    0.7293 H   0  0  0  0  0  0  0  0  0  0  0  0
    1.2660   -1.1111   -0.7361 H   0  0  0  0  0  0  0  0  0  0  0  0
   -0.1833    2.1554   -0.8461 H   0  0  0  0  0  0  0  0  0  0  0  0
   -0.2820    0.8253   -2.0604 H   0  0  0  0  0  0  0  0  0  0  0  0
   -2.1071    1.7797   -0.0722 H   0  0  0  0  0  0  0  0  0  0  0  0
   -2.6005    0.4481    0.9927 H   0  0  0  0  0  0  0  0  0  0  0  0
   -1.3221    1.6155    1.5386 H   0  0  0  0  0  0  0  0  0  0  0  0
   -2.1348   -0.6090   -1.2811 H   0  0  0  0  0  0  0  0  0  0  0  0
   -0.6685   -1.6314   -1.1835 H   0  0  0  0  0  0  0  0  0  0  0  0
   -1.7430   -1.3872    1.3254 H   0  0  0  0  0  0  0  0  0  0  0  0
  1  2  1  0
  2  3  1  0
  3  4  1  0
  4  5  1  0
  5  6  1  0
  5  7  1  0
  7  8  1  0
  5  9  1  0
  9  2  1  0
  1 10  1  0
  1 11  1  0
  1 12  1  0
  2 13  1  0
  4 14  1  0
  4 15  1  0
  6 16  1  0
  6 17  1  0
  6 18  1  0
  7 19  1  0
  7 20  1  0
  8 21  1  0
M  END
