
     RDKit          3D

 19 20  0  0  0  0  0  0  0  0999 V2000
    2.4563    0.5380    0.6771 C   0  0  0  0  0  0  0  0  0  0  0  0
    1.4898    0.4650   -0.4636 C   0  0  0  0  0  0  0  0  0  0  0  0
    1.6233   -0.6819   -1.2770 O   0  0  0  0  0  0  0  0  0  0  0  0
    0.4625   -1.3005   -0.7587 C   0  0  0  0  0  0  0  0  0  0  0  0
    0.1393   -0.0161   -0.0830 C   0  0  0  0  0  0  0  0  0  0  0  0
   -0.3631    0.0635    1.1763 O   0  0  0  0  0  0  0  0  0  0  0  0
   -1.0520    0.6289    0.0716 C   0  0  0  0  0  0  0  0  0  0  0  0
   -2.3732   -0.0277   -0.3085 C   0  0  0  0  0  0  0  0  0  0  0  0
   -3.2831    0.0206    0.7394 O   0  0  0  0  0  0  0  0  0  0  0  0
    3.1536    1.3977    0.5487 H   0  0  0  0  0  0  0  0  0  0  0  0
    3.0315   -0.4179    0.7631 H   0  0  0  0  0  0  0  0  0  0  0  0
    1.8917    0.6593    1.6352 H   0  0  0  0  0  0  0  0  0  0  0  0
    1.4095    1.4163   -1.0554 H   0  0  0  0  0  0  0  0  0  0  0  0
   -0.3012   -1.5302   -1.5273 H   0  0  0  0  0  0  0  0  0  0  0  0
    0.7136   -2.1646   -0.1331 H   0  0  0  0  0  0  0  0  0  0  0  0
   -1.1497    1.7392    0.1472 H   0  0  0  0  0  0  0  0  0  0  0  0
   -2.2472   -1.0840   -0.6028 H   0  0  0  0  0  0  0  0  0  0  0  0
   -2.7592    0.5167   -1.1815 H   0  0  0  0  0  0  0  0  0  0  0  0
   -2.8425   -0.2225    1.5884 H   0  0  0  0  0  0  0  0  0  0  0  0
  1  2  1  0
  2  3  1  0
  3  4  1  0
  4  5  1  0
  5  6  1  0
  6  7  1  0
  7  8  1  0
  8  9  1  0
  5  2  1  0
  7  5  1  0
  1 10  1  0
  1 11  1  0
  1 12  1  0
  2 13  1  0
  4 14  1  0
  4 15  1  0
  7 16  1  0
  8 17  1  0
  8 18  1  0
  9 19  1  0
M  END
