
     RDKit          3D

 19 21  0  0  0  0  0  0  0  0999 V2000
   -2.4972    0.1965   -0.2999 C   0  0  0  0  0  0  0  0  0  0  0  0
   -1.1967    0.1636    0.4187 C   0  0  0  0  0  0  0  0  0  0  0  0
   -0.7158   -1.0933    0.6747 O   0  0  0  0  0  0  0  0  0  0  0  0
    0.6714   -1.0103    0.7969 C   0  0  0  0  0  0  0  0  0  0  0  0
    1.2780   -1.3097   -0.5820 C   0  0  0  0  0  0  0  0  0  0  0  0
    1.0305    0.1439   -0.9191 C   0  0  0  0  0  0  0  0  0  0  0  0
    1.9352    0.8535   -1.6654 O   0  0  0  0  0  0  0  0  0  0  0  0
   -0.0797    0.8965   -0.2589 C   0  0  0  0  0  0  0  0  0  0  0  0
    1.0548    0.4076    0.5411 C   0  0  0  0  0  0  0  0  0  0  0  0
   -2.5621   -0.4529   -1.1725 H   0  0  0  0  0  0  0  0  0  0  0  0
   -2.6626    1.2490   -0.6607 H   0  0  0  0  0  0  0  0  0  0  0  0
   -3.3058    0.0214    0.4527 H   0  0  0  0  0  0  0  0  0  0  0  0
   -1.3514    0.6670    1.4178 H   0  0  0  0  0  0  0  0  0  0  0  0
    1.1301   -1.5355    1.6220 H   0  0  0  0  0  0  0  0  0  0  0  0
    0.7418   -2.0479   -1.1712 H   0  0  0  0  0  0  0  0  0  0  0  0
    2.3759   -1.4691   -0.4484 H   0  0  0  0  0  0  0  0  0  0  0  0
    2.5505    1.4087   -1.1184 H   0  0  0  0  0  0  0  0  0  0  0  0
   -0.1719    1.9412   -0.5453 H   0  0  0  0  0  0  0  0  0  0  0  0
    1.7751    0.9700    1.0683 H   0  0  0  0  0  0  0  0  0  0  0  0
  1  2  1  0
  2  3  1  0
  3  4  1  0
  4  5  1  0
  5  6  1  0
  6  7  1  0
  6  8  1  0
  8  9  1  0
  8  2  1  0
  9  4  1  0
  9  6  1  0
  1 10  1  0
  1 11  1  0
  1 12  1  0
  2 13  1  0
  4 14  1  0
  5 15  1  0
  5 16  1  0
  7 17  1  0
  8 18  1  0
  9 19  1  0
M  END
