
     RDKit          3D

 21 21  0  0  0  0  0  0  0  0999 V2000
   -1.3367   -1.5450    0.3044 C   0  0  0  0  0  0  0  0  0  0  0  0
   -0.9217   -0.1192    0.5711 C   0  0  0  0  0  0  0  0  0  0  0  0
   -1.7837    0.7281   -0.0728 O   0  0  0  0  0  0  0  0  0  0  0  0
   -1.0911    1.6037   -0.8611 C   0  0  0  0  0  0  0  0  0  0  0  0
    0.3284    1.5214   -0.4615 C   0  0  0  0  0  0  0  0  0  0  0  0
    1.1769    2.3638   -0.5947 O   0  0  0  0  0  0  0  0  0  0  0  0
    0.4766    0.1781    0.1372 C   0  0  0  0  0  0  0  0  0  0  0  0
    1.4774    0.1429    1.2626 C   0  0  0  0  0  0  0  0  0  0  0  0
    0.9763   -0.7601   -0.9422 C   0  0  0  0  0  0  0  0  0  0  0  0
   -1.6024   -1.6324   -0.7665 H   0  0  0  0  0  0  0  0  0  0  0  0
   -0.4233   -2.1732    0.4947 H   0  0  0  0  0  0  0  0  0  0  0  0
   -2.1571   -1.8286    0.9879 H   0  0  0  0  0  0  0  0  0  0  0  0
   -1.0274    0.0582    1.6799 H   0  0  0  0  0  0  0  0  0  0  0  0
   -1.1953    1.3665   -1.9571 H   0  0  0  0  0  0  0  0  0  0  0  0
   -1.5196    2.6301   -0.6792 H   0  0  0  0  0  0  0  0  0  0  0  0
    1.4189   -0.8632    1.7204 H   0  0  0  0  0  0  0  0  0  0  0  0
    2.4826    0.2578    0.8133 H   0  0  0  0  0  0  0  0  0  0  0  0
    1.3367    0.9653    1.9789 H   0  0  0  0  0  0  0  0  0  0  0  0
    1.8535   -0.2550   -1.4091 H   0  0  0  0  0  0  0  0  0  0  0  0
    0.1971   -0.9242   -1.7102 H   0  0  0  0  0  0  0  0  0  0  0  0
    1.3339   -1.7149   -0.4960 H   0  0  0  0  0  0  0  0  0  0  0  0
  1  2  1  0
  2  3  1  0
  3  4  1  0
  4  5  1  0
  5  6  2  0
  5  7  1  0
  7  8  1  0
  7  9  1  0
  7  2  1  0
  1 10  1  0
  1 11  1  0
  1 12  1  0
  2 13  1  0
  4 14  1  0
  4 15  1  0
  8 16  1  0
  8 17  1  0
  8 18  1  0
  9 19  1  0
  9 20  1  0
  9 21  1  0
M  END
