
     RDKit          3D

 19 20  0  0  0  0  0  0  0  0999 V2000
    2.3066   -0.5331    0.3179 C   0  0  0  0  0  0  0  0  0  0  0  0
    1.3402    0.5572   -0.0260 C   0  0  0  0  0  0  0  0  0  0  0  0
    1.2447    0.8655   -1.3923 O   0  0  0  0  0  0  0  0  0  0  0  0
   -0.0690    1.2551   -1.1228 C   0  0  0  0  0  0  0  0  0  0  0  0
   -0.1021    0.1849   -0.0888 C   0  0  0  0  0  0  0  0  0  0  0  0
   -0.9217    0.3685    1.0920 C   0  0  0  0  0  0  0  0  0  0  0  0
   -1.9524   -0.4486    0.9671 C   0  0  0  0  0  0  0  0  0  0  0  0
   -1.7688   -1.1714   -0.3453 C   0  0  0  0  0  0  0  0  0  0  0  0
   -0.4088   -1.0564   -0.6183 O   0  0  0  0  0  0  0  0  0  0  0  0
    2.9275   -0.2664    1.2144 H   0  0  0  0  0  0  0  0  0  0  0  0
    1.7568   -1.4445    0.5584 H   0  0  0  0  0  0  0  0  0  0  0  0
    2.9639   -0.7384   -0.5673 H   0  0  0  0  0  0  0  0  0  0  0  0
    1.4708    1.5057    0.5294 H   0  0  0  0  0  0  0  0  0  0  0  0
   -0.7391    1.1155   -1.9866 H   0  0  0  0  0  0  0  0  0  0  0  0
   -0.0727    2.3026   -0.7082 H   0  0  0  0  0  0  0  0  0  0  0  0
   -0.7479    1.0274    1.9135 H   0  0  0  0  0  0  0  0  0  0  0  0
   -2.7945   -0.6184    1.6300 H   0  0  0  0  0  0  0  0  0  0  0  0
   -2.3845   -0.6648   -1.1301 H   0  0  0  0  0  0  0  0  0  0  0  0
   -2.0492   -2.2403   -0.2369 H   0  0  0  0  0  0  0  0  0  0  0  0
  1  2  1  0
  2  3  1  0
  3  4  1  0
  4  5  1  0
  5  6  1  0
  6  7  2  0
  7  8  1  0
  8  9  1  0
  5  2  1  0
  9  5  1  0
  1 10  1  0
  1 11  1  0
  1 12  1  0
  2 13  1  0
  4 14  1  0
  4 15  1  0
  6 16  1  0
  7 17  1  0
  8 18  1  0
  8 19  1  0
M  END
