
     RDKit          3D

 17 17  0  0  0  0  0  0  0  0999 V2000
   -2.5800   -0.2323   -0.4617 C   0  0  0  0  0  0  0  0  0  0  0  0
   -1.2972   -0.5858    0.2173 C   0  0  0  0  0  0  0  0  0  0  0  0
   -0.1675   -0.6353   -0.6332 O   0  0  0  0  0  0  0  0  0  0  0  0
    0.5721   -0.1684    0.4495 C   0  0  0  0  0  0  0  0  0  0  0  0
    1.7457    0.6963    0.0998 C   0  0  0  0  0  0  0  0  0  0  0  0
    2.6789   -0.0664   -0.7478 C   0  0  0  0  0  0  0  0  0  0  0  0
    3.6999    0.4372   -1.1498 O   0  0  0  0  0  0  0  0  0  0  0  0
   -0.6407    0.5425    0.9072 C   0  0  0  0  0  0  0  0  0  0  0  0
   -0.8821    1.5399    1.5287 O   0  0  0  0  0  0  0  0  0  0  0  0
   -3.1868   -1.1798   -0.5364 H   0  0  0  0  0  0  0  0  0  0  0  0
   -2.4707    0.2330   -1.4472 H   0  0  0  0  0  0  0  0  0  0  0  0
   -3.2046    0.4567    0.1700 H   0  0  0  0  0  0  0  0  0  0  0  0
   -1.3518   -1.5292    0.8310 H   0  0  0  0  0  0  0  0  0  0  0  0
    0.8736   -1.0332    1.0764 H   0  0  0  0  0  0  0  0  0  0  0  0
    2.2927    0.9328    1.0483 H   0  0  0  0  0  0  0  0  0  0  0  0
    1.4547    1.6707   -0.3335 H   0  0  0  0  0  0  0  0  0  0  0  0
    2.4639   -1.0787   -1.0189 H   0  0  0  0  0  0  0  0  0  0  0  0
  1  2  1  0
  2  3  1  0
  3  4  1  0
  4  5  1  0
  5  6  1  0
  6  7  2  0
  4  8  1  0
  8  9  2  0
  8  2  1  0
  1 10  1  0
  1 11  1  0
  1 12  1  0
  2 13  1  0
  4 14  1  0
  5 15  1  0
  5 16  1  0
  6 17  1  0
M  END
