
     RDKit          3D

 21 23  0  0  0  0  0  0  0  0999 V2000
    3.1709    0.1351    0.1327 C   0  0  0  0  0  0  0  0  0  0  0  0
    1.8423   -0.3774   -0.2789 C   0  0  0  0  0  0  0  0  0  0  0  0
    1.3594   -1.3063    0.6849 O   0  0  0  0  0  0  0  0  0  0  0  0
    0.1554   -1.0496    0.0344 C   0  0  0  0  0  0  0  0  0  0  0  0
    0.6542    0.4333    0.2714 C   0  0  0  0  0  0  0  0  0  0  0  0
   -0.7283    0.0437    0.1855 C   0  0  0  0  0  0  0  0  0  0  0  0
   -1.7369    0.1595    1.2737 C   0  0  0  0  0  0  0  0  0  0  0  0
   -2.8163    0.2011    0.1992 C   0  0  0  0  0  0  0  0  0  0  0  0
   -1.7052    0.4702   -0.8255 C   0  0  0  0  0  0  0  0  0  0  0  0
    3.9361   -0.3059   -0.5644 H   0  0  0  0  0  0  0  0  0  0  0  0
    3.4817   -0.1871    1.1473 H   0  0  0  0  0  0  0  0  0  0  0  0
    3.2814    1.2282    0.0338 H   0  0  0  0  0  0  0  0  0  0  0  0
    1.7625   -0.6845   -1.3139 H   0  0  0  0  0  0  0  0  0  0  0  0
    0.2781   -1.4016   -1.0389 H   0  0  0  0  0  0  0  0  0  0  0  0
    0.9365    0.6543    1.3501 H   0  0  0  0  0  0  0  0  0  0  0  0
   -1.7502   -0.7629    1.8936 H   0  0  0  0  0  0  0  0  0  0  0  0
   -1.6638    1.0593    1.8899 H   0  0  0  0  0  0  0  0  0  0  0  0
   -3.3650   -0.7218    0.0374 H   0  0  0  0  0  0  0  0  0  0  0  0
   -3.5031    1.0480    0.3550 H   0  0  0  0  0  0  0  0  0  0  0  0
   -1.8683   -0.1861   -1.7020 H   0  0  0  0  0  0  0  0  0  0  0  0
   -1.7214    1.5505   -1.0844 H   0  0  0  0  0  0  0  0  0  0  0  0
  1  2  1  0
  2  3  1  0
  3  4  1  0
  4  5  1  0
  5  6  1  0
  6  7  1  0
  7  8  1  0
  8  9  1  0
  5  2  1  0
  9  6  1  0
  6  4  1  0
  1 10  1  0
  1 11  1  0
  1 12  1  0
  2 13  1  0
  4 14  1  0
  5 15  1  0
  7 16  1  0
  7 17  1  0
  8 18  1  0
  8 19  1  0
  9 20  1  0
  9 21  1  0
M  END
