
     RDKit          3D

 21 21  0  0  0  0  0  0  0  0999 V2000
    2.4267    0.5965   -0.4782 C   0  0  0  0  0  0  0  0  0  0  0  0
    1.0366    0.4307    0.1333 C   0  0  0  0  0  0  0  0  0  0  0  0
    0.2522    1.4423   -0.3673 O   0  0  0  0  0  0  0  0  0  0  0  0
   -1.0546    1.4214    0.0753 C   0  0  0  0  0  0  0  0  0  0  0  0
   -1.7189    0.1167   -0.3396 C   0  0  0  0  0  0  0  0  0  0  0  0
   -3.0466    0.1014   -0.0108 O   0  0  0  0  0  0  0  0  0  0  0  0
   -0.9243   -0.9915    0.3598 C   0  0  0  0  0  0  0  0  0  0  0  0
    0.4729   -0.9146   -0.2330 C   0  0  0  0  0  0  0  0  0  0  0  0
    1.2697   -1.9659    0.1016 O   0  0  0  0  0  0  0  0  0  0  0  0
    2.6997    1.6678   -0.2924 H   0  0  0  0  0  0  0  0  0  0  0  0
    3.1668   -0.0760   -0.0195 H   0  0  0  0  0  0  0  0  0  0  0  0
    2.3184    0.4827   -1.5672 H   0  0  0  0  0  0  0  0  0  0  0  0
    1.1665    0.4738    1.2437 H   0  0  0  0  0  0  0  0  0  0  0  0
   -1.5940    2.2334   -0.4733 H   0  0  0  0  0  0  0  0  0  0  0  0
   -1.1074    1.5760    1.1607 H   0  0  0  0  0  0  0  0  0  0  0  0
   -1.5194   -0.0159   -1.4343 H   0  0  0  0  0  0  0  0  0  0  0  0
   -3.2713   -0.6346    0.5903 H   0  0  0  0  0  0  0  0  0  0  0  0
   -1.3571   -1.9889    0.1638 H   0  0  0  0  0  0  0  0  0  0  0  0
   -0.8707   -0.8378    1.4443 H   0  0  0  0  0  0  0  0  0  0  0  0
    0.3320   -0.9238   -1.3403 H   0  0  0  0  0  0  0  0  0  0  0  0
    1.3226   -2.1935    1.0482 H   0  0  0  0  0  0  0  0  0  0  0  0
  1  2  1  0
  2  3  1  0
  3  4  1  0
  4  5  1  0
  5  6  1  0
  5  7  1  0
  7  8  1  0
  8  9  1  0
  8  2  1  0
  1 10  1  0
  1 11  1  0
  1 12  1  0
  2 13  1  0
  4 14  1  0
  4 15  1  0
  5 16  1  0
  6 17  1  0
  7 18  1  0
  7 19  1  0
  8 20  1  0
  9 21  1  0
M  END
