
     RDKit          3D

 19 19  0  0  0  0  0  0  0  0999 V2000
    2.0357   -0.8788    0.0069 C   0  0  0  0  0  0  0  0  0  0  0  0
    0.5484   -0.8055   -0.2599 C   0  0  0  0  0  0  0  0  0  0  0  0
   -0.2409   -1.5983    0.5300 O   0  0  0  0  0  0  0  0  0  0  0  0
   -1.1676   -0.5314    0.5876 C   0  0  0  0  0  0  0  0  0  0  0  0
   -2.1430   -0.6344   -0.4964 C   0  0  0  0  0  0  0  0  0  0  0  0
   -3.0149    0.2073   -0.5935 O   0  0  0  0  0  0  0  0  0  0  0  0
   -0.0322    0.4093    0.4280 C   0  0  0  0  0  0  0  0  0  0  0  0
   -0.1839    1.5380   -0.5331 C   0  0  0  0  0  0  0  0  0  0  0  0
    0.5599    0.7036    1.6474 O   0  0  0  0  0  0  0  0  0  0  0  0
    2.5424   -0.0201   -0.4595 H   0  0  0  0  0  0  0  0  0  0  0  0
    2.4183   -1.7994   -0.5055 H   0  0  0  0  0  0  0  0  0  0  0  0
    2.1713   -0.8997    1.0935 H   0  0  0  0  0  0  0  0  0  0  0  0
    0.3547   -0.8126   -1.3456 H   0  0  0  0  0  0  0  0  0  0  0  0
   -1.5962   -0.5284    1.6184 H   0  0  0  0  0  0  0  0  0  0  0  0
   -2.1359   -1.4274   -1.2296 H   0  0  0  0  0  0  0  0  0  0  0  0
   -0.7077    1.1770   -1.4232 H   0  0  0  0  0  0  0  0  0  0  0  0
   -0.6101    2.4540   -0.0979 H   0  0  0  0  0  0  0  0  0  0  0  0
    0.8552    1.8135   -0.8817 H   0  0  0  0  0  0  0  0  0  0  0  0
    0.3466    1.6332    1.9142 H   0  0  0  0  0  0  0  0  0  0  0  0
  1  2  1  0
  2  3  1  0
  3  4  1  0
  4  5  1  0
  5  6  2  0
  4  7  1  0
  7  8  1  0
  7  9  1  0
  7  2  1  0
  1 10  1  0
  1 11  1  0
  1 12  1  0
  2 13  1  0
  4 14  1  0
  5 15  1  0
  8 16  1  0
  8 17  1  0
  8 18  1  0
  9 19  1  0
M  END
