
     RDKit          3D

 19 20  0  0  0  0  0  0  0  0999 V2000
    3.0071    0.3941    0.1789 C   0  0  0  0  0  0  0  0  0  0  0  0
    1.6681   -0.2261    0.0111 C   0  0  0  0  0  0  0  0  0  0  0  0
    0.8716    0.4534   -0.9407 O   0  0  0  0  0  0  0  0  0  0  0  0
   -0.3029   -0.2761   -0.8185 C   0  0  0  0  0  0  0  0  0  0  0  0
   -0.3739   -0.5842    0.6994 C   0  0  0  0  0  0  0  0  0  0  0  0
    0.8570   -0.1632    1.1258 O   0  0  0  0  0  0  0  0  0  0  0  0
   -1.3389    0.3235    0.0869 C   0  0  0  0  0  0  0  0  0  0  0  0
   -2.7343   -0.2113   -0.1809 C   0  0  0  0  0  0  0  0  0  0  0  0
   -1.2858    1.6966    0.2082 O   0  0  0  0  0  0  0  0  0  0  0  0
    3.2472    0.9360   -0.7832 H   0  0  0  0  0  0  0  0  0  0  0  0
    3.0479    1.1482    0.9647 H   0  0  0  0  0  0  0  0  0  0  0  0
    3.7999   -0.3691    0.3331 H   0  0  0  0  0  0  0  0  0  0  0  0
    1.7524   -1.2703   -0.4049 H   0  0  0  0  0  0  0  0  0  0  0  0
   -0.5106   -1.1374   -1.4472 H   0  0  0  0  0  0  0  0  0  0  0  0
   -0.6820   -1.6043    0.9893 H   0  0  0  0  0  0  0  0  0  0  0  0
   -3.4811    0.1690    0.5115 H   0  0  0  0  0  0  0  0  0  0  0  0
   -3.0196    0.1236   -1.2216 H   0  0  0  0  0  0  0  0  0  0  0  0
   -2.6516   -1.3059   -0.2411 H   0  0  0  0  0  0  0  0  0  0  0  0
   -1.8704    2.0017    0.9292 H   0  0  0  0  0  0  0  0  0  0  0  0
  1  2  1  0
  2  3  1  0
  3  4  1  0
  4  5  1  0
  5  6  1  0
  5  7  1  0
  7  8  1  0
  7  9  1  0
  6  2  1  0
  7  4  1  0
  1 10  1  0
  1 11  1  0
  1 12  1  0
  2 13  1  0
  4 14  1  0
  5 15  1  0
  8 16  1  0
  8 17  1  0
  8 18  1  0
  9 19  1  0
M  END
