
     RDKit          3D

 16 17  0  0  0  0  0  0  0  0999 V2000
    2.1108    0.8797    0.0490 C   0  0  0  0  0  0  0  0  0  0  0  0
    1.2073   -0.2951    0.2227 C   0  0  0  0  0  0  0  0  0  0  0  0
    0.4668   -0.5774   -0.9547 O   0  0  0  0  0  0  0  0  0  0  0  0
   -0.6790   -1.0596   -0.4038 C   0  0  0  0  0  0  0  0  0  0  0  0
   -1.9184   -0.5033   -0.0483 C   0  0  0  0  0  0  0  0  0  0  0  0
   -2.6951    0.0550   -1.0935 O   0  0  0  0  0  0  0  0  0  0  0  0
   -0.8547    0.2227    0.5113 C   0  0  0  0  0  0  0  0  0  0  0  0
    0.2481   -0.0778    1.2445 O   0  0  0  0  0  0  0  0  0  0  0  0
    1.8901    1.4086   -0.9034 H   0  0  0  0  0  0  0  0  0  0  0  0
    3.1566    0.4823   -0.0542 H   0  0  0  0  0  0  0  0  0  0  0  0
    2.0356    1.6142    0.8836 H   0  0  0  0  0  0  0  0  0  0  0  0
    1.7271   -1.2409    0.4656 H   0  0  0  0  0  0  0  0  0  0  0  0
   -0.4097   -2.0115    0.1562 H   0  0  0  0  0  0  0  0  0  0  0  0
   -2.6081   -1.0547    0.6465 H   0  0  0  0  0  0  0  0  0  0  0  0
   -3.0256    0.9432   -0.8731 H   0  0  0  0  0  0  0  0  0  0  0  0
   -0.6518    1.2146   -0.0059 H   0  0  0  0  0  0  0  0  0  0  0  0
  1  2  1  0
  2  3  1  0
  3  4  1  0
  4  5  1  0
  5  6  1  0
  5  7  1  0
  7  8  1  0
  8  2  1  0
  7  4  1  0
  1  9  1  0
  1 10  1  0
  1 11  1  0
  2 12  1  0
  4 13  1  0
  5 14  1  0
  6 15  1  0
  7 16  1  0
M  END
