
     RDKit          3D

 19 19  0  0  0  0  0  0  0  0999 V2000
   -2.4715   -0.1614   -0.0818 C   0  0  0  0  0  0  0  0  0  0  0  0
   -1.0831    0.1537    0.4497 C   0  0  0  0  0  0  0  0  0  0  0  0
   -0.3962    0.8900   -0.4937 O   0  0  0  0  0  0  0  0  0  0  0  0
    0.7152    1.5343    0.0440 C   0  0  0  0  0  0  0  0  0  0  0  0
    1.9364    0.6606    0.0071 C   0  0  0  0  0  0  0  0  0  0  0  0
    1.6035   -0.7608   -0.3387 C   0  0  0  0  0  0  0  0  0  0  0  0
    2.5151   -1.4001   -0.8586 O   0  0  0  0  0  0  0  0  0  0  0  0
    0.3581   -1.5509   -0.1667 C   0  0  0  0  0  0  0  0  0  0  0  0
   -0.4748   -1.0220    0.8059 O   0  0  0  0  0  0  0  0  0  0  0  0
   -3.2713    0.2820    0.5634 H   0  0  0  0  0  0  0  0  0  0  0  0
   -2.5719    0.1665   -1.1443 H   0  0  0  0  0  0  0  0  0  0  0  0
   -2.6706   -1.2661   -0.0550 H   0  0  0  0  0  0  0  0  0  0  0  0
   -1.2270    0.7504    1.3928 H   0  0  0  0  0  0  0  0  0  0  0  0
    0.5088    1.9363    1.0699 H   0  0  0  0  0  0  0  0  0  0  0  0
    0.9577    2.4515   -0.5691 H   0  0  0  0  0  0  0  0  0  0  0  0
    2.3657    0.6521    1.0402 H   0  0  0  0  0  0  0  0  0  0  0  0
    2.6822    0.9858   -0.7507 H   0  0  0  0  0  0  0  0  0  0  0  0
    0.6809   -2.5591    0.2124 H   0  0  0  0  0  0  0  0  0  0  0  0
   -0.1572   -1.7430   -1.1268 H   0  0  0  0  0  0  0  0  0  0  0  0
  1  2  1  0
  2  3  1  0
  3  4  1  0
  4  5  1  0
  5  6  1  0
  6  7  2  0
  6  8  1  0
  8  9  1  0
  9  2  1  0
  1 10  1  0
  1 11  1  0
  1 12  1  0
  2 13  1  0
  4 14  1  0
  4 15  1  0
  5 16  1  0
  5 17  1  0
  8 18  1  0
  8 19  1  0
M  END
