
     RDKit          3D

 19 20  0  0  0  0  0  0  0  0999 V2000
    2.1680   -0.4875    0.5613 C   0  0  0  0  0  0  0  0  0  0  0  0
    1.0962    0.1297   -0.3233 C   0  0  0  0  0  0  0  0  0  0  0  0
    0.6165    1.2375    0.2955 O   0  0  0  0  0  0  0  0  0  0  0  0
   -0.6638    1.5922    0.0645 C   0  0  0  0  0  0  0  0  0  0  0  0
   -1.5278    0.5647   -0.6050 C   0  0  0  0  0  0  0  0  0  0  0  0
   -1.8518   -0.4776    0.4042 C   0  0  0  0  0  0  0  0  0  0  0  0
   -0.8066   -1.2790    0.4206 C   0  0  0  0  0  0  0  0  0  0  0  0
    0.0432   -0.8804   -0.7105 C   0  0  0  0  0  0  0  0  0  0  0  0
   -0.8466   -0.1766   -1.5622 O   0  0  0  0  0  0  0  0  0  0  0  0
    2.2086   -1.5729    0.4505 H   0  0  0  0  0  0  0  0  0  0  0  0
    1.9597   -0.1951    1.6326 H   0  0  0  0  0  0  0  0  0  0  0  0
    3.1460    0.0125    0.3331 H   0  0  0  0  0  0  0  0  0  0  0  0
    1.6154    0.4144   -1.2803 H   0  0  0  0  0  0  0  0  0  0  0  0
   -1.1536    1.8348    1.0490 H   0  0  0  0  0  0  0  0  0  0  0  0
   -0.6813    2.5215   -0.5592 H   0  0  0  0  0  0  0  0  0  0  0  0
   -2.4366    1.0436   -0.9742 H   0  0  0  0  0  0  0  0  0  0  0  0
   -2.7506   -0.5222    0.9667 H   0  0  0  0  0  0  0  0  0  0  0  0
   -0.6123   -2.0680    1.1211 H   0  0  0  0  0  0  0  0  0  0  0  0
    0.4772   -1.6914   -1.2842 H   0  0  0  0  0  0  0  0  0  0  0  0
  1  2  1  0
  2  3  1  0
  3  4  1  0
  4  5  1  0
  5  6  1  0
  6  7  2  0
  7  8  1  0
  8  9  1  0
  8  2  1  0
  9  5  1  0
  1 10  1  0
  1 11  1  0
  1 12  1  0
  2 13  1  0
  4 14  1  0
  4 15  1  0
  5 16  1  0
  6 17  1  0
  7 18  1  0
  8 19  1  0
M  END
