
     RDKit          3D

 18 19  0  0  0  0  0  0  0  0999 V2000
    2.6189   -0.2631    0.2316 C   0  0  0  0  0  0  0  0  0  0  0  0
    1.1117   -0.1429    0.1860 C   0  0  0  0  0  0  0  0  0  0  0  0
    0.6708    1.1639    0.1821 O   0  0  0  0  0  0  0  0  0  0  0  0
   -0.6317    1.0818   -0.2694 C   0  0  0  0  0  0  0  0  0  0  0  0
   -1.5899    0.3129    0.5928 C   0  0  0  0  0  0  0  0  0  0  0  0
   -1.8183   -0.6261   -0.5696 C   0  0  0  0  0  0  0  0  0  0  0  0
   -0.5889   -0.0712   -1.2340 C   0  0  0  0  0  0  0  0  0  0  0  0
    0.5977   -0.7262   -0.9728 O   0  0  0  0  0  0  0  0  0  0  0  0
    2.9297   -0.0477    1.2866 H   0  0  0  0  0  0  0  0  0  0  0  0
    2.8574   -1.3440    0.0785 H   0  0  0  0  0  0  0  0  0  0  0  0
    3.1297    0.3773   -0.4986 H   0  0  0  0  0  0  0  0  0  0  0  0
    0.7300   -0.7113    1.0715 H   0  0  0  0  0  0  0  0  0  0  0  0
   -1.0883    2.0032   -0.6522 H   0  0  0  0  0  0  0  0  0  0  0  0
   -2.5219    0.8758    0.8712 H   0  0  0  0  0  0  0  0  0  0  0  0
   -1.1810   -0.1417    1.5063 H   0  0  0  0  0  0  0  0  0  0  0  0
   -2.7246   -0.3038   -1.1490 H   0  0  0  0  0  0  0  0  0  0  0  0
   -1.8051   -1.6998   -0.3344 H   0  0  0  0  0  0  0  0  0  0  0  0
   -0.6962    0.2629   -2.2751 H   0  0  0  0  0  0  0  0  0  0  0  0
  1  2  1  0
  2  3  1  0
  3  4  1  0
  4  5  1  0
  5  6  1  0
  6  7  1  0
  7  8  1  0
  8  2  1  0
  7  4  1  0
  1  9  1  0
  1 10  1  0
  1 11  1  0
  2 12  1  0
  4 13  1  0
  5 14  1  0
  5 15  1  0
  6 16  1  0
  6 17  1  0
  7 18  1  0
M  END
