
     RDKit          3D

 21 22  0  0  0  0  0  0  0  0999 V2000
   -1.3091   -1.9837    0.0526 C   0  0  0  0  0  0  0  0  0  0  0  0
   -0.8368   -0.7243   -0.6282 C   0  0  0  0  0  0  0  0  0  0  0  0
   -1.7105    0.3312   -0.2731 O   0  0  0  0  0  0  0  0  0  0  0  0
   -0.5829    1.1743   -0.3808 C   0  0  0  0  0  0  0  0  0  0  0  0
   -0.7002    2.3147    0.5740 C   0  0  0  0  0  0  0  0  0  0  0  0
    0.2613    0.0245   -0.0040 C   0  0  0  0  0  0  0  0  0  0  0  0
    1.6334   -0.0811   -0.5066 C   0  0  0  0  0  0  0  0  0  0  0  0
    1.8397   -0.6479    0.8811 C   0  0  0  0  0  0  0  0  0  0  0  0
    0.5750   -0.1826    1.3010 O   0  0  0  0  0  0  0  0  0  0  0  0
   -0.9998   -2.8966   -0.5129 H   0  0  0  0  0  0  0  0  0  0  0  0
   -2.4325   -1.9782    0.0216 H   0  0  0  0  0  0  0  0  0  0  0  0
   -0.9483   -2.0613    1.0840 H   0  0  0  0  0  0  0  0  0  0  0  0
   -0.7241   -0.7980   -1.7346 H   0  0  0  0  0  0  0  0  0  0  0  0
   -0.4423    1.4698   -1.4526 H   0  0  0  0  0  0  0  0  0  0  0  0
    0.2191    2.4326    1.1884 H   0  0  0  0  0  0  0  0  0  0  0  0
   -0.8889    3.2388   -0.0339 H   0  0  0  0  0  0  0  0  0  0  0  0
   -1.5772    2.2414    1.2591 H   0  0  0  0  0  0  0  0  0  0  0  0
    2.1917    0.8767   -0.7006 H   0  0  0  0  0  0  0  0  0  0  0  0
    1.8563   -0.7754   -1.3306 H   0  0  0  0  0  0  0  0  0  0  0  0
    1.9180   -1.7505    0.8172 H   0  0  0  0  0  0  0  0  0  0  0  0
    2.6582   -0.2246    1.4639 H   0  0  0  0  0  0  0  0  0  0  0  0
  1  2  1  0
  2  3  1  0
  3  4  1  0
  4  5  1  0
  4  6  1  0
  6  7  1  0
  7  8  1  0
  8  9  1  0
  6  2  1  0
  9  6  1  0
  1 10  1  0
  1 11  1  0
  1 12  1  0
  2 13  1  0
  4 14  1  0
  5 15  1  0
  5 16  1  0
  5 17  1  0
  7 18  1  0
  7 19  1  0
  8 20  1  0
  8 21  1  0
M  END
