
     RDKit          3D

 21 22  0  0  0  0  0  0  0  0999 V2000
    2.8348   -0.0531    0.2940 C   0  0  0  0  0  0  0  0  0  0  0  0
    1.3912    0.1337   -0.0438 C   0  0  0  0  0  0  0  0  0  0  0  0
    0.8752    1.3586    0.3496 O   0  0  0  0  0  0  0  0  0  0  0  0
   -0.4683    1.3764   -0.0933 C   0  0  0  0  0  0  0  0  0  0  0  0
   -1.1195    0.0854    0.2980 C   0  0  0  0  0  0  0  0  0  0  0  0
   -2.6046    0.1677    0.3615 C   0  0  0  0  0  0  0  0  0  0  0  0
   -0.6587   -1.0954   -0.4876 C   0  0  0  0  0  0  0  0  0  0  0  0
    0.4998   -0.9427    0.5088 C   0  0  0  0  0  0  0  0  0  0  0  0
   -0.4643   -0.4178    1.4018 O   0  0  0  0  0  0  0  0  0  0  0  0
    3.4566    0.4952   -0.4465 H   0  0  0  0  0  0  0  0  0  0  0  0
    3.0370   -1.1596    0.2644 H   0  0  0  0  0  0  0  0  0  0  0  0
    3.0134    0.3352    1.2997 H   0  0  0  0  0  0  0  0  0  0  0  0
    1.3191    0.1200   -1.1706 H   0  0  0  0  0  0  0  0  0  0  0  0
   -0.5432    1.6172   -1.1648 H   0  0  0  0  0  0  0  0  0  0  0  0
   -0.9521    2.1801    0.5205 H   0  0  0  0  0  0  0  0  0  0  0  0
   -2.9202    1.0184    0.9680 H   0  0  0  0  0  0  0  0  0  0  0  0
   -2.9659    0.3852   -0.6866 H   0  0  0  0  0  0  0  0  0  0  0  0
   -3.0700   -0.7961    0.6300 H   0  0  0  0  0  0  0  0  0  0  0  0
   -0.3645   -0.9487   -1.5241 H   0  0  0  0  0  0  0  0  0  0  0  0
   -1.2611   -1.9866   -0.2447 H   0  0  0  0  0  0  0  0  0  0  0  0
    0.9654   -1.8731    0.8227 H   0  0  0  0  0  0  0  0  0  0  0  0
  1  2  1  0
  2  3  1  0
  3  4  1  0
  4  5  1  0
  5  6  1  0
  5  7  1  0
  7  8  1  0
  8  9  1  0
  8  2  1  0
  9  5  1  0
  1 10  1  0
  1 11  1  0
  1 12  1  0
  2 13  1  0
  4 14  1  0
  4 15  1  0
  6 16  1  0
  6 17  1  0
  6 18  1  0
  7 19  1  0
  7 20  1  0
  8 21  1  0
M  END
