
     RDKit          3D

 19 20  0  0  0  0  0  0  0  0999 V2000
   -2.3323   -0.6383    0.1638 C   0  0  0  0  0  0  0  0  0  0  0  0
   -1.0044   -0.0421   -0.3011 C   0  0  0  0  0  0  0  0  0  0  0  0
   -0.6904    1.0121    0.5354 O   0  0  0  0  0  0  0  0  0  0  0  0
    0.2428    1.7963   -0.1428 C   0  0  0  0  0  0  0  0  0  0  0  0
    1.4704    1.3804    0.2895 O   0  0  0  0  0  0  0  0  0  0  0  0
    2.0460    0.3579   -0.3830 C   0  0  0  0  0  0  0  0  0  0  0  0
    1.3425   -0.9147   -0.4970 C   0  0  0  0  0  0  0  0  0  0  0  0
    0.8225   -1.3285    0.8362 O   0  0  0  0  0  0  0  0  0  0  0  0
    0.0133   -1.1381   -0.3145 C   0  0  0  0  0  0  0  0  0  0  0  0
   -3.0700    0.1546    0.3828 H   0  0  0  0  0  0  0  0  0  0  0  0
   -2.6973   -1.3765   -0.5808 H   0  0  0  0  0  0  0  0  0  0  0  0
   -2.1097   -1.2283    1.0860 H   0  0  0  0  0  0  0  0  0  0  0  0
   -1.1509    0.3345   -1.3167 H   0  0  0  0  0  0  0  0  0  0  0  0
    0.0581    2.8438    0.1778 H   0  0  0  0  0  0  0  0  0  0  0  0
    0.1005    1.7730   -1.2363 H   0  0  0  0  0  0  0  0  0  0  0  0
    3.0362    0.1584    0.1305 H   0  0  0  0  0  0  0  0  0  0  0  0
    2.3601    0.6920   -1.4169 H   0  0  0  0  0  0  0  0  0  0  0  0
    1.9948   -1.7243   -0.9466 H   0  0  0  0  0  0  0  0  0  0  0  0
   -0.4323   -2.1122   -0.6336 H   0  0  0  0  0  0  0  0  0  0  0  0
  1  2  1  0
  2  3  1  0
  3  4  1  0
  4  5  1  0
  5  6  1  0
  6  7  1  0
  7  8  1  0
  8  9  1  0
  9  2  1  0
  9  7  1  0
  1 10  1  0
  1 11  1  0
  1 12  1  0
  2 13  1  0
  4 14  1  0
  4 15  1  0
  6 16  1  0
  6 17  1  0
  7 18  1  0
  9 19  1  0
M  END
