
     RDKit          3D

 17 18  0  0  0  0  0  0  0  0999 V2000
    2.0429    0.1931   -0.0746 C   0  0  0  0  0  0  0  0  0  0  0  0
    0.8555   -0.6826    0.1237 C   0  0  0  0  0  0  0  0  0  0  0  0
    0.3382   -1.3077   -0.9857 O   0  0  0  0  0  0  0  0  0  0  0  0
   -0.9844   -0.9483   -0.8105 C   0  0  0  0  0  0  0  0  0  0  0  0
   -1.6068   -0.9642    0.5398 C   0  0  0  0  0  0  0  0  0  0  0  0
   -0.4659   -0.0161    0.3350 C   0  0  0  0  0  0  0  0  0  0  0  0
   -0.6766    1.4274    0.0732 C   0  0  0  0  0  0  0  0  0  0  0  0
    2.8780   -0.4649   -0.4556 H   0  0  0  0  0  0  0  0  0  0  0  0
    2.3947    0.5180    0.9373 H   0  0  0  0  0  0  0  0  0  0  0  0
    1.9117    1.0209   -0.7592 H   0  0  0  0  0  0  0  0  0  0  0  0
    1.0674   -1.4263    0.9415 H   0  0  0  0  0  0  0  0  0  0  0  0
   -1.5327   -0.4758   -1.6217 H   0  0  0  0  0  0  0  0  0  0  0  0
   -2.5821   -0.5010    0.6594 H   0  0  0  0  0  0  0  0  0  0  0  0
   -1.3582   -1.8543    1.1650 H   0  0  0  0  0  0  0  0  0  0  0  0
    0.0676    1.8828   -0.6284 H   0  0  0  0  0  0  0  0  0  0  0  0
   -0.6801    2.0144    1.0028 H   0  0  0  0  0  0  0  0  0  0  0  0
   -1.6692    1.5845   -0.4420 H   0  0  0  0  0  0  0  0  0  0  0  0
  1  2  1  0
  2  3  1  0
  3  4  1  0
  4  5  1  0
  5  6  1  0
  6  7  1  0
  6  2  1  0
  6  4  1  0
  1  8  1  0
  1  9  1  0
  1 10  1  0
  2 11  1  0
  4 12  1  0
  5 13  1  0
  5 14  1  0
  7 15  1  0
  7 16  1  0
  7 17  1  0
M  END
