
     RDKit          3D

 23 23  0  0  0  0  0  0  0  0999 V2000
    2.5370   -1.3230   -0.3350 C   0  0  0  0  0  0  0  0  0  0  0  0
    1.3439   -0.4505   -0.3757 C   0  0  0  0  0  0  0  0  0  0  0  0
    1.6627    0.7369    0.3270 O   0  0  0  0  0  0  0  0  0  0  0  0
    0.8162    1.6975   -0.2283 C   0  0  0  0  0  0  0  0  0  0  0  0
   -0.5957    1.2482   -0.1725 C   0  0  0  0  0  0  0  0  0  0  0  0
   -0.8295   -0.1357    0.2886 C   0  0  0  0  0  0  0  0  0  0  0  0
   -1.4854   -0.1552    1.6740 C   0  0  0  0  0  0  0  0  0  0  0  0
   -1.8886   -0.7463   -0.6441 C   0  0  0  0  0  0  0  0  0  0  0  0
    0.2422   -0.9761    0.2861 O   0  0  0  0  0  0  0  0  0  0  0  0
    2.9073   -1.4613   -1.3922 H   0  0  0  0  0  0  0  0  0  0  0  0
    3.4146   -0.8460    0.1919 H   0  0  0  0  0  0  0  0  0  0  0  0
    2.4098   -2.3085    0.1038 H   0  0  0  0  0  0  0  0  0  0  0  0
    1.0265   -0.2162   -1.4189 H   0  0  0  0  0  0  0  0  0  0  0  0
    1.0211    2.6750    0.2381 H   0  0  0  0  0  0  0  0  0  0  0  0
    1.1633    1.8049   -1.2987 H   0  0  0  0  0  0  0  0  0  0  0  0
   -1.1443    1.9472    0.5253 H   0  0  0  0  0  0  0  0  0  0  0  0
   -1.0624    1.4656   -1.1780 H   0  0  0  0  0  0  0  0  0  0  0  0
   -2.0301    0.8174    1.8177 H   0  0  0  0  0  0  0  0  0  0  0  0
   -0.7615   -0.3629    2.4705 H   0  0  0  0  0  0  0  0  0  0  0  0
   -2.2696   -0.9382    1.7380 H   0  0  0  0  0  0  0  0  0  0  0  0
   -1.5665   -0.6668   -1.7030 H   0  0  0  0  0  0  0  0  0  0  0  0
   -2.7661   -0.0404   -0.5572 H   0  0  0  0  0  0  0  0  0  0  0  0
   -2.1450   -1.7658   -0.3573 H   0  0  0  0  0  0  0  0  0  0  0  0
  1  2  1  0
  2  3  1  0
  3  4  1  0
  4  5  1  0
  5  6  1  0
  6  7  1  0
  6  8  1  0
  6  9  1  0
  9  2  1  0
  1 10  1  0
  1 11  1  0
  1 12  1  0
  2 13  1  0
  4 14  1  0
  4 15  1  0
  5 16  1  0
  5 17  1  0
  7 18  1  0
  7 19  1  0
  7 20  1  0
  8 21  1  0
  8 22  1  0
  8 23  1  0
M  END
