
     RDKit          3D

 17 18  0  0  0  0  0  0  0  0999 V2000
    2.3282    0.0115    0.0702 C   0  0  0  0  0  0  0  0  0  0  0  0
    0.8715   -0.0663    0.4683 C   0  0  0  0  0  0  0  0  0  0  0  0
    0.3407   -1.2902    0.1066 O   0  0  0  0  0  0  0  0  0  0  0  0
   -0.7157   -0.7577   -0.6477 C   0  0  0  0  0  0  0  0  0  0  0  0
   -1.9685   -0.7533    0.1744 C   0  0  0  0  0  0  0  0  0  0  0  0
   -2.3401    0.6046    0.1759 O   0  0  0  0  0  0  0  0  0  0  0  0
   -1.1827    1.3717    0.1557 C   0  0  0  0  0  0  0  0  0  0  0  0
   -1.1578    2.5562    0.6303 O   0  0  0  0  0  0  0  0  0  0  0  0
   -0.0881    0.6025   -0.4713 C   0  0  0  0  0  0  0  0  0  0  0  0
    2.6578   -0.9118   -0.4815 H   0  0  0  0  0  0  0  0  0  0  0  0
    2.9759    0.0535    0.9772 H   0  0  0  0  0  0  0  0  0  0  0  0
    2.5579    0.8541   -0.5933 H   0  0  0  0  0  0  0  0  0  0  0  0
    0.7107    0.2538    1.5097 H   0  0  0  0  0  0  0  0  0  0  0  0
   -0.7852   -1.1316   -1.6731 H   0  0  0  0  0  0  0  0  0  0  0  0
   -2.7777   -1.3683   -0.2651 H   0  0  0  0  0  0  0  0  0  0  0  0
   -1.8022   -1.0717    1.2282 H   0  0  0  0  0  0  0  0  0  0  0  0
    0.3754    1.0431   -1.3647 H   0  0  0  0  0  0  0  0  0  0  0  0
  1  2  1  0
  2  3  1  0
  3  4  1  0
  4  5  1  0
  5  6  1  0
  6  7  1  0
  7  8  2  0
  7  9  1  0
  9  2  1  0
  9  4  1  0
  1 10  1  0
  1 11  1  0
  1 12  1  0
  2 13  1  0
  4 14  1  0
  5 15  1  0
  5 16  1  0
  9 17  1  0
M  END
