
     RDKit          3D

 19 20  0  0  0  0  0  0  0  0999 V2000
    2.5172   -0.0708   -0.0389 C   0  0  0  0  0  0  0  0  0  0  0  0
    1.2826    0.6603   -0.5429 C   0  0  0  0  0  0  0  0  0  0  0  0
    0.6768    0.1984   -1.7143 O   0  0  0  0  0  0  0  0  0  0  0  0
    0.0414    0.1173   -0.5113 C   0  0  0  0  0  0  0  0  0  0  0  0
   -0.5187   -1.1318    0.0408 C   0  0  0  0  0  0  0  0  0  0  0  0
   -0.2648   -1.4151    1.3785 O   0  0  0  0  0  0  0  0  0  0  0  0
   -1.9166   -0.5496   -0.1475 C   0  0  0  0  0  0  0  0  0  0  0  0
   -1.2391    0.8248   -0.2227 C   0  0  0  0  0  0  0  0  0  0  0  0
   -1.2152    1.3915    1.0587 O   0  0  0  0  0  0  0  0  0  0  0  0
    3.2529   -0.2606   -0.8340 H   0  0  0  0  0  0  0  0  0  0  0  0
    2.2539   -1.0416    0.4391 H   0  0  0  0  0  0  0  0  0  0  0  0
    3.0066    0.5382    0.7284 H   0  0  0  0  0  0  0  0  0  0  0  0
    1.4466    1.7754   -0.5585 H   0  0  0  0  0  0  0  0  0  0  0  0
   -0.4046   -2.0600   -0.5535 H   0  0  0  0  0  0  0  0  0  0  0  0
   -1.1213   -1.4055    1.8828 H   0  0  0  0  0  0  0  0  0  0  0  0
   -2.3269   -0.7800   -1.1453 H   0  0  0  0  0  0  0  0  0  0  0  0
   -2.5848   -0.6410    0.7109 H   0  0  0  0  0  0  0  0  0  0  0  0
   -1.6460    1.4761   -1.0133 H   0  0  0  0  0  0  0  0  0  0  0  0
   -1.2397    2.3740    1.0428 H   0  0  0  0  0  0  0  0  0  0  0  0
  1  2  1  0
  2  3  1  0
  3  4  1  0
  4  5  1  0
  5  6  1  0
  5  7  1  0
  7  8  1  0
  8  9  1  0
  4  2  1  0
  8  4  1  0
  1 10  1  0
  1 11  1  0
  1 12  1  0
  2 13  1  0
  5 14  1  0
  6 15  1  0
  7 16  1  0
  7 17  1  0
  8 18  1  0
  9 19  1  0
M  END
