
     RDKit          3D

 19 20  0  0  0  0  0  0  0  0999 V2000
    2.3392    0.0569   -0.7723 C   0  0  0  0  0  0  0  0  0  0  0  0
    1.3106    0.9394   -0.1056 C   0  0  0  0  0  0  0  0  0  0  0  0
    1.0264    0.5369    1.1871 O   0  0  0  0  0  0  0  0  0  0  0  0
    0.1614   -0.5527    1.0519 C   0  0  0  0  0  0  0  0  0  0  0  0
   -0.8109   -0.0979   -0.0041 C   0  0  0  0  0  0  0  0  0  0  0  0
   -2.1686    0.3483    0.3034 C   0  0  0  0  0  0  0  0  0  0  0  0
   -1.8749   -0.9621   -0.4915 C   0  0  0  0  0  0  0  0  0  0  0  0
    0.0174    0.7590   -0.8632 C   0  0  0  0  0  0  0  0  0  0  0  0
   -0.2877    1.2109   -1.9385 O   0  0  0  0  0  0  0  0  0  0  0  0
    2.7856   -0.5948    0.0008 H   0  0  0  0  0  0  0  0  0  0  0  0
    1.8845   -0.6203   -1.5343 H   0  0  0  0  0  0  0  0  0  0  0  0
    3.0902    0.7049   -1.2683 H   0  0  0  0  0  0  0  0  0  0  0  0
    1.6140    2.0195   -0.1153 H   0  0  0  0  0  0  0  0  0  0  0  0
   -0.2944   -0.8422    1.9937 H   0  0  0  0  0  0  0  0  0  0  0  0
    0.7128   -1.4284    0.6239 H   0  0  0  0  0  0  0  0  0  0  0  0
   -2.5902    0.2318    1.3036 H   0  0  0  0  0  0  0  0  0  0  0  0
   -2.5964    1.1754   -0.3272 H   0  0  0  0  0  0  0  0  0  0  0  0
   -2.2450   -0.9905   -1.5220 H   0  0  0  0  0  0  0  0  0  0  0  0
   -2.0740   -1.8941    0.1057 H   0  0  0  0  0  0  0  0  0  0  0  0
  1  2  1  0
  2  3  1  0
  3  4  1  0
  4  5  1  0
  5  6  1  0
  6  7  1  0
  5  8  1  0
  8  9  2  0
  8  2  1  0
  7  5  1  0
  1 10  1  0
  1 11  1  0
  1 12  1  0
  2 13  1  0
  4 14  1  0
  4 15  1  0
  6 16  1  0
  6 17  1  0
  7 18  1  0
  7 19  1  0
M  END
