
     RDKit          3D

 19 19  0  0  0  0  0  0  0  0999 V2000
   -2.5066    0.3836    0.1629 C   0  0  0  0  0  0  0  0  0  0  0  0
   -1.1604   -0.3464    0.2849 C   0  0  0  0  0  0  0  0  0  0  0  0
   -0.4009    0.4096    1.1245 O   0  0  0  0  0  0  0  0  0  0  0  0
    0.9110    0.0349    1.2383 C   0  0  0  0  0  0  0  0  0  0  0  0
    1.6724    0.7260    0.1026 C   0  0  0  0  0  0  0  0  0  0  0  0
    1.8428   -0.2910   -0.9764 C   0  0  0  0  0  0  0  0  0  0  0  0
    0.6162   -0.4706   -1.6391 O   0  0  0  0  0  0  0  0  0  0  0  0
   -0.6238   -0.5940   -1.0409 C   0  0  0  0  0  0  0  0  0  0  0  0
   -1.5050   -1.0322   -1.8587 O   0  0  0  0  0  0  0  0  0  0  0  0
   -2.2383    1.4064   -0.2176 H   0  0  0  0  0  0  0  0  0  0  0  0
   -3.2007   -0.1446   -0.4974 H   0  0  0  0  0  0  0  0  0  0  0  0
   -2.8719    0.5113    1.2009 H   0  0  0  0  0  0  0  0  0  0  0  0
   -1.3620   -1.3502    0.7629 H   0  0  0  0  0  0  0  0  0  0  0  0
    0.9570   -1.0711    1.1364 H   0  0  0  0  0  0  0  0  0  0  0  0
    1.3534    0.3553    2.2157 H   0  0  0  0  0  0  0  0  0  0  0  0
    2.6135    1.1534    0.4858 H   0  0  0  0  0  0  0  0  0  0  0  0
    1.0753    1.5660   -0.3164 H   0  0  0  0  0  0  0  0  0  0  0  0
    2.6646   -0.0065   -1.6710 H   0  0  0  0  0  0  0  0  0  0  0  0
    2.1634   -1.2400   -0.4974 H   0  0  0  0  0  0  0  0  0  0  0  0
  1  2  1  0
  2  3  1  0
  3  4  1  0
  4  5  1  0
  5  6  1  0
  6  7  1  0
  7  8  1  0
  8  9  2  0
  8  2  1  0
  1 10  1  0
  1 11  1  0
  1 12  1  0
  2 13  1  0
  4 14  1  0
  4 15  1  0
  5 16  1  0
  5 17  1  0
  6 18  1  0
  6 19  1  0
M  END
