
     RDKit          3D

 19 21  0  0  0  0  0  0  0  0999 V2000
    2.5817    0.6149   -0.0613 C   0  0  0  0  0  0  0  0  0  0  0  0
    1.4395   -0.1538    0.6149 C   0  0  0  0  0  0  0  0  0  0  0  0
    1.0670   -1.3353   -0.2421 O   0  0  0  0  0  0  0  0  0  0  0  0
    0.2353   -0.3009    0.0559 C   0  0  0  0  0  0  0  0  0  0  0  0
   -0.5547    0.4517   -0.9433 C   0  0  0  0  0  0  0  0  0  0  0  0
   -1.5208   -0.7046   -0.9052 C   0  0  0  0  0  0  0  0  0  0  0  0
   -1.1530   -0.4707    0.5556 C   0  0  0  0  0  0  0  0  0  0  0  0
   -1.5883   -1.0971    1.5450 O   0  0  0  0  0  0  0  0  0  0  0  0
   -1.3434    0.9928    0.2305 C   0  0  0  0  0  0  0  0  0  0  0  0
    3.3547   -0.1662   -0.2909 H   0  0  0  0  0  0  0  0  0  0  0  0
    2.2457    1.1637   -0.9406 H   0  0  0  0  0  0  0  0  0  0  0  0
    3.0145    1.2790    0.6990 H   0  0  0  0  0  0  0  0  0  0  0  0
    1.7272   -0.4774    1.6391 H   0  0  0  0  0  0  0  0  0  0  0  0
   -0.2607    0.9665   -1.7479 H   0  0  0  0  0  0  0  0  0  0  0  0
   -1.1137   -1.6213   -1.3502 H   0  0  0  0  0  0  0  0  0  0  0  0
   -2.5497   -0.4846   -1.1739 H   0  0  0  0  0  0  0  0  0  0  0  0
   -2.4398   -1.5615    1.4608 H   0  0  0  0  0  0  0  0  0  0  0  0
   -0.7994    1.6128    0.9370 H   0  0  0  0  0  0  0  0  0  0  0  0
   -2.3421    1.2923   -0.0825 H   0  0  0  0  0  0  0  0  0  0  0  0
  1  2  1  0
  2  3  1  0
  3  4  1  0
  4  5  1  0
  5  6  1  0
  6  7  1  0
  7  8  1  0
  7  9  1  0
  4  2  1  0
  9  5  1  0
  7  4  1  0
  1 10  1  0
  1 11  1  0
  1 12  1  0
  2 13  1  0
  5 14  1  0
  6 15  1  0
  6 16  1  0
  8 17  1  0
  9 18  1  0
  9 19  1  0
M  END
