
     RDKit          3D

 19 20  0  0  0  0  0  0  0  0999 V2000
    2.0631   -0.7207    0.6364 C   0  0  0  0  0  0  0  0  0  0  0  0
    1.0698   -0.4398   -0.4791 C   0  0  0  0  0  0  0  0  0  0  0  0
    1.1401    0.8935   -0.8891 O   0  0  0  0  0  0  0  0  0  0  0  0
    0.1203    1.1847    0.0172 C   0  0  0  0  0  0  0  0  0  0  0  0
   -0.8705    2.1640   -0.4267 C   0  0  0  0  0  0  0  0  0  0  0  0
   -0.7925    2.6782   -1.5160 O   0  0  0  0  0  0  0  0  0  0  0  0
   -0.3215   -0.2204   -0.0938 C   0  0  0  0  0  0  0  0  0  0  0  0
   -1.1683   -0.9624    0.7726 C   0  0  0  0  0  0  0  0  0  0  0  0
   -1.5123   -0.7102   -0.7304 C   0  0  0  0  0  0  0  0  0  0  0  0
    2.3098   -1.8130    0.5794 H   0  0  0  0  0  0  0  0  0  0  0  0
    2.9969   -0.1731    0.3954 H   0  0  0  0  0  0  0  0  0  0  0  0
    1.6206   -0.4427    1.6015 H   0  0  0  0  0  0  0  0  0  0  0  0
    1.1685   -1.1455   -1.3447 H   0  0  0  0  0  0  0  0  0  0  0  0
    0.5518    1.4975    1.0030 H   0  0  0  0  0  0  0  0  0  0  0  0
   -1.6822    2.4362    0.2180 H   0  0  0  0  0  0  0  0  0  0  0  0
   -1.8392   -0.4360    1.5021 H   0  0  0  0  0  0  0  0  0  0  0  0
   -0.9888   -2.0100    1.0541 H   0  0  0  0  0  0  0  0  0  0  0  0
   -1.4228   -1.6217   -1.3857 H   0  0  0  0  0  0  0  0  0  0  0  0
   -2.4428   -0.1587   -0.9143 H   0  0  0  0  0  0  0  0  0  0  0  0
  1  2  1  0
  2  3  1  0
  3  4  1  0
  4  5  1  0
  5  6  2  0
  4  7  1  0
  7  8  1  0
  8  9  1  0
  7  2  1  0
  9  7  1  0
  1 10  1  0
  1 11  1  0
  1 12  1  0
  2 13  1  0
  4 14  1  0
  5 15  1  0
  8 16  1  0
  8 17  1  0
  9 18  1  0
  9 19  1  0
M  END
