
     RDKit          3D

 17 18  0  0  0  0  0  0  0  0999 V2000
    1.7459   -0.6772    0.1876 C   0  0  0  0  0  0  0  0  0  0  0  0
    0.8607    0.5411    0.1617 C   0  0  0  0  0  0  0  0  0  0  0  0
    0.3732    0.7350    1.4750 O   0  0  0  0  0  0  0  0  0  0  0  0
   -0.9501    0.3712    1.5681 C   0  0  0  0  0  0  0  0  0  0  0  0
   -1.5706    0.2532    2.6541 O   0  0  0  0  0  0  0  0  0  0  0  0
   -1.5319    0.1424    0.2476 C   0  0  0  0  0  0  0  0  0  0  0  0
   -1.0363   -0.9092   -0.6673 C   0  0  0  0  0  0  0  0  0  0  0  0
   -0.3467    0.3907   -0.6887 C   0  0  0  0  0  0  0  0  0  0  0  0
   -0.5956    1.3434   -1.6506 O   0  0  0  0  0  0  0  0  0  0  0  0
    2.1351   -0.9593   -0.7874 H   0  0  0  0  0  0  0  0  0  0  0  0
    1.2696   -1.5441    0.6955 H   0  0  0  0  0  0  0  0  0  0  0  0
    2.6246   -0.4119    0.8442 H   0  0  0  0  0  0  0  0  0  0  0  0
    1.5119    1.4006   -0.1328 H   0  0  0  0  0  0  0  0  0  0  0  0
   -2.5049    0.6167   -0.0041 H   0  0  0  0  0  0  0  0  0  0  0  0
   -0.5234   -1.7993   -0.2462 H   0  0  0  0  0  0  0  0  0  0  0  0
   -1.6643   -1.1503   -1.5384 H   0  0  0  0  0  0  0  0  0  0  0  0
    0.2028    1.6569   -2.1183 H   0  0  0  0  0  0  0  0  0  0  0  0
  1  2  1  0
  2  3  1  0
  3  4  1  0
  4  5  2  0
  4  6  1  0
  6  7  1  0
  7  8  1  0
  8  9  1  0
  8  2  1  0
  8  6  1  0
  1 10  1  0
  1 11  1  0
  1 12  1  0
  2 13  1  0
  6 14  1  0
  7 15  1  0
  7 16  1  0
  9 17  1  0
M  END
