
     RDKit          3D

 19 20  0  0  0  0  0  0  0  0999 V2000
   -1.2572   -1.3662    0.1304 C   0  0  0  0  0  0  0  0  0  0  0  0
   -0.8311   -0.1289   -0.5815 C   0  0  0  0  0  0  0  0  0  0  0  0
   -1.6843    0.9564   -0.3053 O   0  0  0  0  0  0  0  0  0  0  0  0
   -0.9144    2.0882   -0.2888 C   0  0  0  0  0  0  0  0  0  0  0  0
    0.4037    1.7482   -0.4621 O   0  0  0  0  0  0  0  0  0  0  0  0
    0.4887    0.4237   -0.1144 C   0  0  0  0  0  0  0  0  0  0  0  0
    0.9648   -0.0179    1.2126 C   0  0  0  0  0  0  0  0  0  0  0  0
    1.7146   -0.3494   -0.0587 C   0  0  0  0  0  0  0  0  0  0  0  0
    1.7899   -1.6914   -0.3436 O   0  0  0  0  0  0  0  0  0  0  0  0
   -1.9446   -1.1259    0.9644 H   0  0  0  0  0  0  0  0  0  0  0  0
   -1.8773   -1.9731   -0.5924 H   0  0  0  0  0  0  0  0  0  0  0  0
   -0.4266   -2.0385    0.4233 H   0  0  0  0  0  0  0  0  0  0  0  0
   -0.8739   -0.2712   -1.6853 H   0  0  0  0  0  0  0  0  0  0  0  0
   -1.2245    2.7222   -1.1511 H   0  0  0  0  0  0  0  0  0  0  0  0
   -1.0260    2.6981    0.6365 H   0  0  0  0  0  0  0  0  0  0  0  0
    1.3506    0.8027    1.8688 H   0  0  0  0  0  0  0  0  0  0  0  0
    0.4750   -0.8186    1.7871 H   0  0  0  0  0  0  0  0  0  0  0  0
    2.6761    0.2212   -0.2070 H   0  0  0  0  0  0  0  0  0  0  0  0
    2.1967   -1.8795   -1.2330 H   0  0  0  0  0  0  0  0  0  0  0  0
  1  2  1  0
  2  3  1  0
  3  4  1  0
  4  5  1  0
  5  6  1  0
  6  7  1  0
  7  8  1  0
  8  9  1  0
  6  2  1  0
  8  6  1  0
  1 10  1  0
  1 11  1  0
  1 12  1  0
  2 13  1  0
  4 14  1  0
  4 15  1  0
  7 16  1  0
  7 17  1  0
  8 18  1  0
  9 19  1  0
M  END
