
     RDKit          3D

 21 22  0  0  0  0  0  0  0  0999 V2000
   -2.0425    0.9658    1.0421 C   0  0  0  0  0  0  0  0  0  0  0  0
   -1.2262    0.5957   -0.1632 C   0  0  0  0  0  0  0  0  0  0  0  0
   -1.8754   -0.2031   -1.0996 O   0  0  0  0  0  0  0  0  0  0  0  0
   -1.2285   -1.3723   -0.6817 C   0  0  0  0  0  0  0  0  0  0  0  0
   -0.2773   -0.5623    0.1152 C   0  0  0  0  0  0  0  0  0  0  0  0
    1.0771   -0.3104   -0.4892 C   0  0  0  0  0  0  0  0  0  0  0  0
    1.1107   -0.1393   -1.8724 O   0  0  0  0  0  0  0  0  0  0  0  0
    2.3261   -0.7115    0.1647 C   0  0  0  0  0  0  0  0  0  0  0  0
    1.9132    0.7049    0.3200 C   0  0  0  0  0  0  0  0  0  0  0  0
   -1.6060    1.8951    1.4706 H   0  0  0  0  0  0  0  0  0  0  0  0
   -3.0987    1.1382    0.7857 H   0  0  0  0  0  0  0  0  0  0  0  0
   -1.9138    0.1803    1.8239 H   0  0  0  0  0  0  0  0  0  0  0  0
   -0.7111    1.4698   -0.6054 H   0  0  0  0  0  0  0  0  0  0  0  0
   -0.8157   -1.9846   -1.5049 H   0  0  0  0  0  0  0  0  0  0  0  0
   -1.9396   -1.9463   -0.0291 H   0  0  0  0  0  0  0  0  0  0  0  0
   -0.2526   -0.8229    1.1885 H   0  0  0  0  0  0  0  0  0  0  0  0
    1.0431    0.8335   -2.1236 H   0  0  0  0  0  0  0  0  0  0  0  0
    3.2115   -0.8800   -0.4778 H   0  0  0  0  0  0  0  0  0  0  0  0
    2.3354   -1.3603    1.0763 H   0  0  0  0  0  0  0  0  0  0  0  0
    2.4123    1.5150   -0.2523 H   0  0  0  0  0  0  0  0  0  0  0  0
    1.5579    0.9949    1.3123 H   0  0  0  0  0  0  0  0  0  0  0  0
  1  2  1  0
  2  3  1  0
  3  4  1  0
  4  5  1  0
  5  6  1  0
  6  7  1  0
  6  8  1  0
  8  9  1  0
  5  2  1  0
  9  6  1  0
  1 10  1  0
  1 11  1  0
  1 12  1  0
  2 13  1  0
  4 14  1  0
  4 15  1  0
  5 16  1  0
  7 17  1  0
  8 18  1  0
  8 19  1  0
  9 20  1  0
  9 21  1  0
M  END
