
     RDKit          3D

 20 20  0  0  0  0  0  0  0  0999 V2000
    2.6626   -0.0267    0.0633 C   0  0  0  0  0  0  0  0  0  0  0  0
    1.1415   -0.0346   -0.0507 C   0  0  0  0  0  0  0  0  0  0  0  0
    0.7504    1.3144    0.0817 O   0  0  0  0  0  0  0  0  0  0  0  0
   -0.4604    1.4244   -0.6051 C   0  0  0  0  0  0  0  0  0  0  0  0
   -1.5344    0.8271    0.2606 C   0  0  0  0  0  0  0  0  0  0  0  0
   -1.7095   -0.6514    0.0636 C   0  0  0  0  0  0  0  0  0  0  0  0
   -0.5597   -1.4741    0.5146 C   0  0  0  0  0  0  0  0  0  0  0  0
    0.5357   -0.7507    0.9504 O   0  0  0  0  0  0  0  0  0  0  0  0
    3.1022   -0.9935   -0.1988 H   0  0  0  0  0  0  0  0  0  0  0  0
    3.0050    0.7323   -0.6954 H   0  0  0  0  0  0  0  0  0  0  0  0
    2.8835    0.3087    1.0997 H   0  0  0  0  0  0  0  0  0  0  0  0
    0.8301   -0.3536   -1.0701 H   0  0  0  0  0  0  0  0  0  0  0  0
   -0.6378    2.4996   -0.7630 H   0  0  0  0  0  0  0  0  0  0  0  0
   -0.4149    0.8553   -1.5549 H   0  0  0  0  0  0  0  0  0  0  0  0
   -2.4985    1.3046   -0.0810 H   0  0  0  0  0  0  0  0  0  0  0  0
   -1.4186    1.1244    1.3123 H   0  0  0  0  0  0  0  0  0  0  0  0
   -2.6375   -0.9472    0.6037 H   0  0  0  0  0  0  0  0  0  0  0  0
   -1.9134   -0.8292   -1.0105 H   0  0  0  0  0  0  0  0  0  0  0  0
   -0.8690   -2.1321    1.3714 H   0  0  0  0  0  0  0  0  0  0  0  0
   -0.2572   -2.1976   -0.2917 H   0  0  0  0  0  0  0  0  0  0  0  0
  1  2  1  0
  2  3  1  0
  3  4  1  0
  4  5  1  0
  5  6  1  0
  6  7  1  0
  7  8  1  0
  8  2  1  0
  1  9  1  0
  1 10  1  0
  1 11  1  0
  2 12  1  0
  4 13  1  0
  4 14  1  0
  5 15  1  0
  5 16  1  0
  6 17  1  0
  6 18  1  0
  7 19  1  0
  7 20  1  0
M  END
