
     RDKit          3D

 18 19  0  0  0  0  0  0  0  0999 V2000
    2.5402   -0.4491    0.0394 C   0  0  0  0  0  0  0  0  0  0  0  0
    1.4613    0.5703    0.3630 C   0  0  0  0  0  0  0  0  0  0  0  0
    0.6909    0.2827    1.5583 O   0  0  0  0  0  0  0  0  0  0  0  0
    0.1095    0.3283    0.1811 C   0  0  0  0  0  0  0  0  0  0  0  0
   -0.8819    1.4039    0.0166 C   0  0  0  0  0  0  0  0  0  0  0  0
   -2.0870    0.8922    0.0341 C   0  0  0  0  0  0  0  0  0  0  0  0
   -2.0310   -0.5633    0.2096 C   0  0  0  0  0  0  0  0  0  0  0  0
   -0.5888   -0.9401   -0.1439 C   0  0  0  0  0  0  0  0  0  0  0  0
    2.6225   -1.2405    0.7899 H   0  0  0  0  0  0  0  0  0  0  0  0
    2.3337   -0.8993   -0.9761 H   0  0  0  0  0  0  0  0  0  0  0  0
    3.5436    0.0142   -0.0574 H   0  0  0  0  0  0  0  0  0  0  0  0
    1.8477    1.6101    0.3860 H   0  0  0  0  0  0  0  0  0  0  0  0
   -0.6737    2.4906   -0.1058 H   0  0  0  0  0  0  0  0  0  0  0  0
   -3.0569    1.4313   -0.0653 H   0  0  0  0  0  0  0  0  0  0  0  0
   -2.2311   -0.8408    1.2463 H   0  0  0  0  0  0  0  0  0  0  0  0
   -2.7529   -1.0669   -0.4568 H   0  0  0  0  0  0  0  0  0  0  0  0
   -0.2754   -1.8099    0.4876 H   0  0  0  0  0  0  0  0  0  0  0  0
   -0.5707   -1.2137   -1.2133 H   0  0  0  0  0  0  0  0  0  0  0  0
  1  2  1  0
  2  3  1  0
  3  4  1  0
  4  5  1  0
  5  6  2  0
  6  7  1  0
  7  8  1  0
  4  2  1  0
  8  4  1  0
  1  9  1  0
  1 10  1  0
  1 11  1  0
  2 12  1  0
  5 13  1  0
  6 14  1  0
  7 15  1  0
  7 16  1  0
  8 17  1  0
  8 18  1  0
M  END
