
     RDKit          3D

 18 19  0  0  0  0  0  0  0  0999 V2000
    2.8667    0.0622   -0.1570 C   0  0  0  0  0  0  0  0  0  0  0  0
    1.5275   -0.2411   -0.7297 C   0  0  0  0  0  0  0  0  0  0  0  0
    0.8250   -1.2417    0.0013 O   0  0  0  0  0  0  0  0  0  0  0  0
    0.3445    0.1421   -0.0211 C   0  0  0  0  0  0  0  0  0  0  0  0
   -1.0371    0.1539   -0.6461 C   0  0  0  0  0  0  0  0  0  0  0  0
   -1.1488   -0.3243   -1.9667 O   0  0  0  0  0  0  0  0  0  0  0  0
   -2.1166   -0.4073    0.2862 C   0  0  0  0  0  0  0  0  0  0  0  0
   -2.0762    1.0356   -0.0992 C   0  0  0  0  0  0  0  0  0  0  0  0
    3.6266   -0.5985   -0.6639 H   0  0  0  0  0  0  0  0  0  0  0  0
    2.9480   -0.2195    0.9288 H   0  0  0  0  0  0  0  0  0  0  0  0
    3.1261    1.1132   -0.3385 H   0  0  0  0  0  0  0  0  0  0  0  0
    1.4944   -0.3156   -1.8409 H   0  0  0  0  0  0  0  0  0  0  0  0
    0.4248    0.6744    0.9334 H   0  0  0  0  0  0  0  0  0  0  0  0
   -1.3868   -1.2903   -1.9754 H   0  0  0  0  0  0  0  0  0  0  0  0
   -2.9270   -1.0124   -0.1585 H   0  0  0  0  0  0  0  0  0  0  0  0
   -1.8351   -0.7165    1.2986 H   0  0  0  0  0  0  0  0  0  0  0  0
   -2.8996    1.4298   -0.7038 H   0  0  0  0  0  0  0  0  0  0  0  0
   -1.7566    1.7559    0.7089 H   0  0  0  0  0  0  0  0  0  0  0  0
  1  2  1  0
  2  3  1  0
  3  4  1  0
  4  5  1  0
  5  6  1  0
  5  7  1  0
  7  8  1  0
  4  2  1  0
  8  5  1  0
  1  9  1  0
  1 10  1  0
  1 11  1  0
  2 12  1  0
  4 13  1  0
  6 14  1  0
  7 15  1  0
  7 16  1  0
  8 17  1  0
  8 18  1  0
M  END
