
     RDKit          3D

 23 24  0  0  0  0  0  0  0  0999 V2000
    2.5470    0.5213    0.0127 C   0  0  0  0  0  0  0  0  0  0  0  0
    1.0997    0.3696   -0.4924 C   0  0  0  0  0  0  0  0  0  0  0  0
    0.4660    1.5049   -0.2904 O   0  0  0  0  0  0  0  0  0  0  0  0
   -0.8140    1.6352    0.0119 C   0  0  0  0  0  0  0  0  0  0  0  0
   -1.7655    0.5559   -0.3437 C   0  0  0  0  0  0  0  0  0  0  0  0
   -1.4758   -0.7724    0.2557 C   0  0  0  0  0  0  0  0  0  0  0  0
   -0.3385   -0.7428    1.2428 C   0  0  0  0  0  0  0  0  0  0  0  0
    0.5966   -0.8895    0.1037 C   0  0  0  0  0  0  0  0  0  0  0  0
   -0.5257   -1.4893   -0.7136 C   0  0  0  0  0  0  0  0  0  0  0  0
    3.0849    1.3055   -0.5268 H   0  0  0  0  0  0  0  0  0  0  0  0
    2.9942   -0.4852   -0.0628 H   0  0  0  0  0  0  0  0  0  0  0  0
    2.4688    0.7926    1.1052 H   0  0  0  0  0  0  0  0  0  0  0  0
    1.2258    0.1876   -1.6025 H   0  0  0  0  0  0  0  0  0  0  0  0
   -1.2067    2.5742   -0.4891 H   0  0  0  0  0  0  0  0  0  0  0  0
   -0.9726    1.8756    1.1056 H   0  0  0  0  0  0  0  0  0  0  0  0
   -2.7862    0.8716    0.0254 H   0  0  0  0  0  0  0  0  0  0  0  0
   -1.9040    0.4348   -1.4477 H   0  0  0  0  0  0  0  0  0  0  0  0
   -2.3305   -1.3983    0.5618 H   0  0  0  0  0  0  0  0  0  0  0  0
   -0.3550   -1.6650    1.8886 H   0  0  0  0  0  0  0  0  0  0  0  0
   -0.2595    0.1317    1.8873 H   0  0  0  0  0  0  0  0  0  0  0  0
    1.4060   -1.6555    0.2056 H   0  0  0  0  0  0  0  0  0  0  0  0
   -0.5529   -1.0856   -1.7399 H   0  0  0  0  0  0  0  0  0  0  0  0
   -0.6022   -2.5768   -0.6975 H   0  0  0  0  0  0  0  0  0  0  0  0
  1  2  1  0
  2  3  1  0
  3  4  1  0
  4  5  1  0
  5  6  1  0
  6  7  1  0
  7  8  1  0
  8  9  1  0
  8  2  1  0
  9  6  1  0
  1 10  1  0
  1 11  1  0
  1 12  1  0
  2 13  1  0
  4 14  1  0
  4 15  1  0
  5 16  1  0
  5 17  1  0
  6 18  1  0
  7 19  1  0
  7 20  1  0
  8 21  1  0
  9 22  1  0
  9 23  1  0
M  END
