
     RDKit          3D

 20 20  0  0  0  0  0  0  0  0999 V2000
    2.7480   -0.4866   -0.0846 C   0  0  0  0  0  0  0  0  0  0  0  0
    1.3594   -0.0131    0.1584 C   0  0  0  0  0  0  0  0  0  0  0  0
    1.0541    1.1867   -0.4924 O   0  0  0  0  0  0  0  0  0  0  0  0
   -0.2842    1.3535   -0.0635 C   0  0  0  0  0  0  0  0  0  0  0  0
   -0.7722   -0.0870   -0.1358 C   0  0  0  0  0  0  0  0  0  0  0  0
   -1.7658   -0.1900   -1.2556 C   0  0  0  0  0  0  0  0  0  0  0  0
   -1.3977   -0.4836    1.1698 C   0  0  0  0  0  0  0  0  0  0  0  0
    0.3777   -0.8573   -0.3645 O   0  0  0  0  0  0  0  0  0  0  0  0
    2.8798   -1.1061   -0.9840 H   0  0  0  0  0  0  0  0  0  0  0  0
    3.0324   -1.1438    0.7893 H   0  0  0  0  0  0  0  0  0  0  0  0
    3.4546    0.3713   -0.0276 H   0  0  0  0  0  0  0  0  0  0  0  0
    1.1565    0.1346    1.2267 H   0  0  0  0  0  0  0  0  0  0  0  0
   -0.8571    2.0039   -0.7147 H   0  0  0  0  0  0  0  0  0  0  0  0
   -0.2187    1.6644    0.9901 H   0  0  0  0  0  0  0  0  0  0  0  0
   -2.5027    0.6375   -1.1125 H   0  0  0  0  0  0  0  0  0  0  0  0
   -2.2717   -1.1817   -1.2525 H   0  0  0  0  0  0  0  0  0  0  0  0
   -1.2860    0.0005   -2.2324 H   0  0  0  0  0  0  0  0  0  0  0  0
   -0.7205   -0.3370    2.0167 H   0  0  0  0  0  0  0  0  0  0  0  0
   -1.6566   -1.5704    1.0858 H   0  0  0  0  0  0  0  0  0  0  0  0
   -2.3294    0.1045    1.2834 H   0  0  0  0  0  0  0  0  0  0  0  0
  1  2  1  0
  2  3  1  0
  3  4  1  0
  4  5  1  0
  5  6  1  0
  5  7  1  0
  5  8  1  0
  8  2  1  0
  1  9  1  0
  1 10  1  0
  1 11  1  0
  2 12  1  0
  4 13  1  0
  4 14  1  0
  6 15  1  0
  6 16  1  0
  6 17  1  0
  7 18  1  0
  7 19  1  0
  7 20  1  0
M  END
