
     RDKit          3D

 17 18  0  0  0  0  0  0  0  0999 V2000
   -2.0694   -0.2500   -0.2210 C   0  0  0  0  0  0  0  0  0  0  0  0
   -0.8862    0.6007   -0.6720 C   0  0  0  0  0  0  0  0  0  0  0  0
   -0.2592   -0.0802   -1.7354 O   0  0  0  0  0  0  0  0  0  0  0  0
    0.6639   -0.5446   -0.7883 C   0  0  0  0  0  0  0  0  0  0  0  0
    1.7017    0.4344   -0.4021 C   0  0  0  0  0  0  0  0  0  0  0  0
    2.7134   -0.0821    0.4189 O   0  0  0  0  0  0  0  0  0  0  0  0
    0.3281    0.5151    0.1742 C   0  0  0  0  0  0  0  0  0  0  0  0
    0.2370    0.2792    1.6266 C   0  0  0  0  0  0  0  0  0  0  0  0
    0.2107   -0.8169    2.1435 O   0  0  0  0  0  0  0  0  0  0  0  0
   -2.5481    0.1661    0.6733 H   0  0  0  0  0  0  0  0  0  0  0  0
   -1.7884   -1.3151   -0.1306 H   0  0  0  0  0  0  0  0  0  0  0  0
   -2.7953   -0.1999   -1.0854 H   0  0  0  0  0  0  0  0  0  0  0  0
   -1.2236    1.6075   -0.8861 H   0  0  0  0  0  0  0  0  0  0  0  0
    0.6784   -1.5946   -0.5021 H   0  0  0  0  0  0  0  0  0  0  0  0
    2.0532    1.1840   -1.1477 H   0  0  0  0  0  0  0  0  0  0  0  0
    2.7930   -1.0591    0.2623 H   0  0  0  0  0  0  0  0  0  0  0  0
    0.1906    1.1554    2.2720 H   0  0  0  0  0  0  0  0  0  0  0  0
  1  2  1  0
  2  3  1  0
  3  4  1  0
  4  5  1  0
  5  6  1  0
  5  7  1  0
  7  8  1  0
  8  9  2  0
  7  2  1  0
  7  4  1  0
  1 10  1  0
  1 11  1  0
  1 12  1  0
  2 13  1  0
  4 14  1  0
  5 15  1  0
  6 16  1  0
  8 17  1  0
M  END
