
     RDKit          3D

 19 20  0  0  0  0  0  0  0  0999 V2000
    2.3028   -0.6975   -0.0704 C   0  0  0  0  0  0  0  0  0  0  0  0
    1.1531    0.0271   -0.7075 C   0  0  0  0  0  0  0  0  0  0  0  0
    0.1826   -0.9078   -1.1123 O   0  0  0  0  0  0  0  0  0  0  0  0
   -0.7115   -0.3837   -0.2369 C   0  0  0  0  0  0  0  0  0  0  0  0
   -1.5095   -1.1373    0.7177 C   0  0  0  0  0  0  0  0  0  0  0  0
   -2.1412   -0.2838   -0.4184 C   0  0  0  0  0  0  0  0  0  0  0  0
    0.1857    0.6877    0.2498 C   0  0  0  0  0  0  0  0  0  0  0  0
   -0.1583    2.0807   -0.0990 C   0  0  0  0  0  0  0  0  0  0  0  0
    0.6953    2.9406    0.0598 O   0  0  0  0  0  0  0  0  0  0  0  0
    2.2791   -0.6799    1.0369 H   0  0  0  0  0  0  0  0  0  0  0  0
    3.2375   -0.2666   -0.4846 H   0  0  0  0  0  0  0  0  0  0  0  0
    2.3277   -1.7858   -0.3487 H   0  0  0  0  0  0  0  0  0  0  0  0
    1.4364    0.7272   -1.5284 H   0  0  0  0  0  0  0  0  0  0  0  0
   -1.6422   -0.6805    1.7315 H   0  0  0  0  0  0  0  0  0  0  0  0
   -1.6802   -2.2226    0.6789 H   0  0  0  0  0  0  0  0  0  0  0  0
   -2.6950    0.6058   -0.1230 H   0  0  0  0  0  0  0  0  0  0  0  0
   -2.5892   -0.8948   -1.2535 H   0  0  0  0  0  0  0  0  0  0  0  0
    0.4678    0.5397    1.3147 H   0  0  0  0  0  0  0  0  0  0  0  0
   -1.1410    2.3317   -0.4850 H   0  0  0  0  0  0  0  0  0  0  0  0
  1  2  1  0
  2  3  1  0
  3  4  1  0
  4  5  1  0
  5  6  1  0
  4  7  1  0
  7  8  1  0
  8  9  2  0
  7  2  1  0
  6  4  1  0
  1 10  1  0
  1 11  1  0
  1 12  1  0
  2 13  1  0
  5 14  1  0
  5 15  1  0
  6 16  1  0
  6 17  1  0
  7 18  1  0
  8 19  1  0
M  END
