
     RDKit          3D

 16 16  0  0  0  0  0  0  0  0999 V2000
    2.1243    0.1459   -0.1730 C   0  0  0  0  0  0  0  0  0  0  0  0
    0.7589    0.7320   -0.1508 C   0  0  0  0  0  0  0  0  0  0  0  0
    0.0903    0.4510   -1.4434 O   0  0  0  0  0  0  0  0  0  0  0  0
   -0.4750    0.0231   -0.1759 C   0  0  0  0  0  0  0  0  0  0  0  0
   -1.7516    0.7949    0.1013 C   0  0  0  0  0  0  0  0  0  0  0  0
   -0.6252   -1.4613   -0.0547 C   0  0  0  0  0  0  0  0  0  0  0  0
    2.8063    0.6982    0.5337 H   0  0  0  0  0  0  0  0  0  0  0  0
    2.6002    0.2751   -1.1874 H   0  0  0  0  0  0  0  0  0  0  0  0
    2.1780   -0.9226    0.0496 H   0  0  0  0  0  0  0  0  0  0  0  0
    0.7394    1.8247    0.1046 H   0  0  0  0  0  0  0  0  0  0  0  0
   -1.5425    1.8712    0.3116 H   0  0  0  0  0  0  0  0  0  0  0  0
   -2.3774    0.3209    0.8679 H   0  0  0  0  0  0  0  0  0  0  0  0
   -2.3491    0.7628   -0.8555 H   0  0  0  0  0  0  0  0  0  0  0  0
   -1.5261   -1.7766   -0.6573 H   0  0  0  0  0  0  0  0  0  0  0  0
   -0.8759   -1.7011    0.9924 H   0  0  0  0  0  0  0  0  0  0  0  0
    0.2256   -2.0383   -0.4199 H   0  0  0  0  0  0  0  0  0  0  0  0
  1  2  1  0
  2  3  1  0
  3  4  1  0
  4  5  1  0
  4  6  1  0
  4  2  1  0
  1  7  1  0
  1  8  1  0
  1  9  1  0
  2 10  1  0
  5 11  1  0
  5 12  1  0
  5 13  1  0
  6 14  1  0
  6 15  1  0
  6 16  1  0
M  END
