
     RDKit          3D

 23 23  0  0  0  0  0  0  0  0999 V2000
    2.4663   -0.3660    0.0007 C   0  0  0  0  0  0  0  0  0  0  0  0
    1.2184   -0.0035   -0.7128 C   0  0  0  0  0  0  0  0  0  0  0  0
    0.3219   -1.0353   -0.9817 O   0  0  0  0  0  0  0  0  0  0  0  0
   -0.6529   -0.5755   -0.0769 C   0  0  0  0  0  0  0  0  0  0  0  0
   -2.0370   -0.4672   -0.6303 C   0  0  0  0  0  0  0  0  0  0  0  0
   -0.6501   -1.4903    1.1492 C   0  0  0  0  0  0  0  0  0  0  0  0
    0.1341    0.6627    0.0860 C   0  0  0  0  0  0  0  0  0  0  0  0
   -0.3458    1.9043   -0.5949 C   0  0  0  0  0  0  0  0  0  0  0  0
    0.4290    0.9113    1.4202 O   0  0  0  0  0  0  0  0  0  0  0  0
    2.6117   -1.4686   -0.0880 H   0  0  0  0  0  0  0  0  0  0  0  0
    2.4997   -0.0706    1.0643 H   0  0  0  0  0  0  0  0  0  0  0  0
    3.3764    0.0849   -0.4817 H   0  0  0  0  0  0  0  0  0  0  0  0
    1.4634    0.5008   -1.6890 H   0  0  0  0  0  0  0  0  0  0  0  0
   -2.1042   -0.7070   -1.7063 H   0  0  0  0  0  0  0  0  0  0  0  0
   -2.4378    0.5502   -0.4047 H   0  0  0  0  0  0  0  0  0  0  0  0
   -2.7543   -1.1707   -0.1243 H   0  0  0  0  0  0  0  0  0  0  0  0
    0.4143   -1.7956    1.3130 H   0  0  0  0  0  0  0  0  0  0  0  0
   -1.0761   -0.9949    2.0355 H   0  0  0  0  0  0  0  0  0  0  0  0
   -1.2439   -2.4048    0.9223 H   0  0  0  0  0  0  0  0  0  0  0  0
    0.5495    2.3468   -1.1241 H   0  0  0  0  0  0  0  0  0  0  0  0
   -1.0980    1.7449   -1.3737 H   0  0  0  0  0  0  0  0  0  0  0  0
   -0.6337    2.6793    0.1522 H   0  0  0  0  0  0  0  0  0  0  0  0
   -0.4508    1.1649    1.8450 H   0  0  0  0  0  0  0  0  0  0  0  0
  1  2  1  0
  2  3  1  0
  3  4  1  0
  4  5  1  0
  4  6  1  0
  4  7  1  0
  7  8  1  0
  7  9  1  0
  7  2  1  0
  1 10  1  0
  1 11  1  0
  1 12  1  0
  2 13  1  0
  5 14  1  0
  5 15  1  0
  5 16  1  0
  6 17  1  0
  6 18  1  0
  6 19  1  0
  8 20  1  0
  8 21  1  0
  8 22  1  0
  9 23  1  0
M  END
