
     RDKit          3D

 21 22  0  0  0  0  0  0  0  0999 V2000
   -2.0968   -0.6193    0.7849 C   0  0  0  0  0  0  0  0  0  0  0  0
   -0.8198   -0.9101    0.0418 C   0  0  0  0  0  0  0  0  0  0  0  0
    0.1798   -1.4176    0.8294 O   0  0  0  0  0  0  0  0  0  0  0  0
    1.3998   -1.0859    0.2595 C   0  0  0  0  0  0  0  0  0  0  0  0
    1.9594    0.2320    0.7185 C   0  0  0  0  0  0  0  0  0  0  0  0
    1.2153    0.1653   -0.5361 C   0  0  0  0  0  0  0  0  0  0  0  0
    1.9349    0.3300   -1.7390 O   0  0  0  0  0  0  0  0  0  0  0  0
   -0.2681    0.3071   -0.6236 C   0  0  0  0  0  0  0  0  0  0  0  0
   -0.8034    1.5984   -0.1069 C   0  0  0  0  0  0  0  0  0  0  0  0
   -2.0019    0.1202    1.5776 H   0  0  0  0  0  0  0  0  0  0  0  0
   -2.5427   -1.5896    1.1213 H   0  0  0  0  0  0  0  0  0  0  0  0
   -2.8239   -0.2342    0.0134 H   0  0  0  0  0  0  0  0  0  0  0  0
   -1.0798   -1.7135   -0.7095 H   0  0  0  0  0  0  0  0  0  0  0  0
    2.0342   -1.8459   -0.2049 H   0  0  0  0  0  0  0  0  0  0  0  0
    3.0614    0.3806    0.6303 H   0  0  0  0  0  0  0  0  0  0  0  0
    1.5585    0.6547    1.6588 H   0  0  0  0  0  0  0  0  0  0  0  0
    2.4630   -0.4879   -1.8656 H   0  0  0  0  0  0  0  0  0  0  0  0
   -0.5671    0.2403   -1.7110 H   0  0  0  0  0  0  0  0  0  0  0  0
   -1.7999    1.7651   -0.5900 H   0  0  0  0  0  0  0  0  0  0  0  0
   -0.1490    2.4159   -0.5227 H   0  0  0  0  0  0  0  0  0  0  0  0
   -0.8538    1.6945    0.9739 H   0  0  0  0  0  0  0  0  0  0  0  0
  1  2  1  0
  2  3  1  0
  3  4  1  0
  4  5  1  0
  5  6  1  0
  6  7  1  0
  6  8  1  0
  8  9  1  0
  8  2  1  0
  6  4  1  0
  1 10  1  0
  1 11  1  0
  1 12  1  0
  2 13  1  0
  4 14  1  0
  5 15  1  0
  5 16  1  0
  7 17  1  0
  8 18  1  0
  9 19  1  0
  9 20  1  0
  9 21  1  0
M  END
