
     RDKit          3D

 19 20  0  0  0  0  0  0  0  0999 V2000
    2.2064    0.2964    0.3995 C   0  0  0  0  0  0  0  0  0  0  0  0
    1.2230   -0.5220   -0.3527 C   0  0  0  0  0  0  0  0  0  0  0  0
    0.3930   -1.3008    0.4360 O   0  0  0  0  0  0  0  0  0  0  0  0
   -0.8650   -1.2940   -0.1275 C   0  0  0  0  0  0  0  0  0  0  0  0
   -1.8701   -0.4938    0.6886 C   0  0  0  0  0  0  0  0  0  0  0  0
   -1.5959    0.9656    0.4500 C   0  0  0  0  0  0  0  0  0  0  0  0
   -0.4521    1.2768   -0.1688 C   0  0  0  0  0  0  0  0  0  0  0  0
    0.1934    0.3197   -1.1053 C   0  0  0  0  0  0  0  0  0  0  0  0
   -0.7750   -0.6764   -1.3680 O   0  0  0  0  0  0  0  0  0  0  0  0
    2.1636    0.2153    1.4844 H   0  0  0  0  0  0  0  0  0  0  0  0
    2.1058    1.3754    0.1208 H   0  0  0  0  0  0  0  0  0  0  0  0
    3.2538   -0.0033    0.1043 H   0  0  0  0  0  0  0  0  0  0  0  0
    1.6860   -1.1828   -1.1010 H   0  0  0  0  0  0  0  0  0  0  0  0
   -1.2700   -2.3066   -0.2786 H   0  0  0  0  0  0  0  0  0  0  0  0
   -1.8279   -0.7334    1.7636 H   0  0  0  0  0  0  0  0  0  0  0  0
   -2.8653   -0.7025    0.2711 H   0  0  0  0  0  0  0  0  0  0  0  0
   -2.2829    1.7454    0.7587 H   0  0  0  0  0  0  0  0  0  0  0  0
   -0.0106    2.2478    0.0335 H   0  0  0  0  0  0  0  0  0  0  0  0
    0.5898    0.7732   -2.0087 H   0  0  0  0  0  0  0  0  0  0  0  0
  1  2  1  0
  2  3  1  0
  3  4  1  0
  4  5  1  0
  5  6  1  0
  6  7  2  0
  7  8  1  0
  8  9  1  0
  8  2  1  0
  9  4  1  0
  1 10  1  0
  1 11  1  0
  1 12  1  0
  2 13  1  0
  4 14  1  0
  5 15  1  0
  5 16  1  0
  6 17  1  0
  7 18  1  0
  8 19  1  0
M  END
