
     RDKit          3D

 19 20  0  0  0  0  0  0  0  0999 V2000
   -2.4895    0.3729   -0.3316 C   0  0  0  0  0  0  0  0  0  0  0  0
   -1.2105   -0.2357    0.1725 C   0  0  0  0  0  0  0  0  0  0  0  0
   -0.6862   -1.0698   -0.7786 O   0  0  0  0  0  0  0  0  0  0  0  0
    0.6831   -1.3160   -0.6813 C   0  0  0  0  0  0  0  0  0  0  0  0
    1.3866   -0.0344   -0.6097 C   0  0  0  0  0  0  0  0  0  0  0  0
    2.3167    0.5820    0.2437 C   0  0  0  0  0  0  0  0  0  0  0  0
    1.0828    0.3573    0.8909 C   0  0  0  0  0  0  0  0  0  0  0  0
   -0.2765    0.7732    0.7318 C   0  0  0  0  0  0  0  0  0  0  0  0
   -0.6928    1.8599    1.0166 O   0  0  0  0  0  0  0  0  0  0  0  0
   -2.2754    1.4670   -0.5056 H   0  0  0  0  0  0  0  0  0  0  0  0
   -3.2458    0.3499    0.4806 H   0  0  0  0  0  0  0  0  0  0  0  0
   -2.8674   -0.0798   -1.2553 H   0  0  0  0  0  0  0  0  0  0  0  0
   -1.4609   -0.9045    1.0536 H   0  0  0  0  0  0  0  0  0  0  0  0
    0.8118   -1.9571    0.2396 H   0  0  0  0  0  0  0  0  0  0  0  0
    0.9789   -1.9414   -1.5236 H   0  0  0  0  0  0  0  0  0  0  0  0
    0.9623    0.6629   -1.3978 H   0  0  0  0  0  0  0  0  0  0  0  0
    3.2230   -0.0141    0.5405 H   0  0  0  0  0  0  0  0  0  0  0  0
    2.6420    1.6345    0.0795 H   0  0  0  0  0  0  0  0  0  0  0  0
    1.1177   -0.5070    1.6343 H   0  0  0  0  0  0  0  0  0  0  0  0
  1  2  1  0
  2  3  1  0
  3  4  1  0
  4  5  1  0
  5  6  1  0
  6  7  1  0
  7  8  1  0
  8  9  2  0
  8  2  1  0
  7  5  1  0
  1 10  1  0
  1 11  1  0
  1 12  1  0
  2 13  1  0
  4 14  1  0
  4 15  1  0
  5 16  1  0
  6 17  1  0
  6 18  1  0
  7 19  1  0
M  END
