
     RDKit          3D

 23 23  0  0  0  0  0  0  0  0999 V2000
   -3.0840    0.9349   -0.0529 C   0  0  0  0  0  0  0  0  0  0  0  0
   -2.2139   -0.1145   -0.6809 C   0  0  0  0  0  0  0  0  0  0  0  0
   -2.5977   -1.4501   -0.6387 O   0  0  0  0  0  0  0  0  0  0  0  0
   -1.6216   -1.0979    0.2738 C   0  0  0  0  0  0  0  0  0  0  0  0
   -0.1862   -1.4469    0.0456 C   0  0  0  0  0  0  0  0  0  0  0  0
    0.6064   -0.1480    0.1644 C   0  0  0  0  0  0  0  0  0  0  0  0
    2.0501   -0.4959   -0.0647 C   0  0  0  0  0  0  0  0  0  0  0  0
    2.9470    0.7206    0.0281 C   0  0  0  0  0  0  0  0  0  0  0  0
    2.5996    1.6819   -0.9196 O   0  0  0  0  0  0  0  0  0  0  0  0
   -2.4816    1.7137    0.4745 H   0  0  0  0  0  0  0  0  0  0  0  0
   -3.7782    0.4903    0.6917 H   0  0  0  0  0  0  0  0  0  0  0  0
   -3.6862    1.4470   -0.8341 H   0  0  0  0  0  0  0  0  0  0  0  0
   -1.6755    0.1677   -1.6004 H   0  0  0  0  0  0  0  0  0  0  0  0
   -1.9461   -1.0752    1.3229 H   0  0  0  0  0  0  0  0  0  0  0  0
    0.0038   -1.9516   -0.9178 H   0  0  0  0  0  0  0  0  0  0  0  0
    0.1368   -2.1307    0.8690 H   0  0  0  0  0  0  0  0  0  0  0  0
    0.4673    0.2260    1.1808 H   0  0  0  0  0  0  0  0  0  0  0  0
    0.2251    0.5757   -0.5637 H   0  0  0  0  0  0  0  0  0  0  0  0
    2.3554   -1.2052    0.7153 H   0  0  0  0  0  0  0  0  0  0  0  0
    2.2059   -0.9317   -1.0736 H   0  0  0  0  0  0  0  0  0  0  0  0
    3.9844    0.3569   -0.1963 H   0  0  0  0  0  0  0  0  0  0  0  0
    2.9352    1.1486    1.0687 H   0  0  0  0  0  0  0  0  0  0  0  0
    2.7541    2.5847   -0.5221 H   0  0  0  0  0  0  0  0  0  0  0  0
  1  2  1  0
  2  3  1  0
  3  4  1  0
  4  5  1  0
  5  6  1  0
  6  7  1  0
  7  8  1  0
  8  9  1  0
  4  2  1  0
  1 10  1  0
  1 11  1  0
  1 12  1  0
  2 13  1  0
  4 14  1  0
  5 15  1  0
  5 16  1  0
  6 17  1  0
  6 18  1  0
  7 19  1  0
  7 20  1  0
  8 21  1  0
  8 22  1  0
  9 23  1  0
M  END
