
     RDKit          3D

 23 24  0  0  0  0  0  0  0  0999 V2000
    3.4509    0.1165    0.6367 C   0  0  0  0  0  0  0  0  0  0  0  0
    2.1375    0.4963   -0.0282 C   0  0  0  0  0  0  0  0  0  0  0  0
    1.9958   -0.1854   -1.3006 O   0  0  0  0  0  0  0  0  0  0  0  0
    1.1085   -0.4662   -0.1769 C   0  0  0  0  0  0  0  0  0  0  0  0
   -0.2981   -0.0652   -0.4505 C   0  0  0  0  0  0  0  0  0  0  0  0
   -0.8871    0.8224    0.6481 C   0  0  0  0  0  0  0  0  0  0  0  0
   -2.3437    0.8836    0.1686 C   0  0  0  0  0  0  0  0  0  0  0  0
   -2.6095   -0.5715   -0.1545 C   0  0  0  0  0  0  0  0  0  0  0  0
   -1.2777   -1.2064   -0.4582 C   0  0  0  0  0  0  0  0  0  0  0  0
    4.2691    0.1251   -0.1019 H   0  0  0  0  0  0  0  0  0  0  0  0
    3.7091    0.8755    1.4036 H   0  0  0  0  0  0  0  0  0  0  0  0
    3.3371   -0.8754    1.1367 H   0  0  0  0  0  0  0  0  0  0  0  0
    1.9118    1.5761   -0.1309 H   0  0  0  0  0  0  0  0  0  0  0  0
    1.2343   -1.5276    0.1314 H   0  0  0  0  0  0  0  0  0  0  0  0
   -0.4097    0.5199   -1.3913 H   0  0  0  0  0  0  0  0  0  0  0  0
   -0.4211    1.8061    0.6926 H   0  0  0  0  0  0  0  0  0  0  0  0
   -0.8891    0.2612    1.6010 H   0  0  0  0  0  0  0  0  0  0  0  0
   -2.3068    1.4721   -0.7825 H   0  0  0  0  0  0  0  0  0  0  0  0
   -3.0136    1.2952    0.9200 H   0  0  0  0  0  0  0  0  0  0  0  0
   -3.3373   -0.6772   -0.9761 H   0  0  0  0  0  0  0  0  0  0  0  0
   -3.0414   -1.0466    0.7510 H   0  0  0  0  0  0  0  0  0  0  0  0
   -1.3403   -1.7085   -1.4348 H   0  0  0  0  0  0  0  0  0  0  0  0
   -0.9787   -1.9202    0.3651 H   0  0  0  0  0  0  0  0  0  0  0  0
  1  2  1  0
  2  3  1  0
  3  4  1  0
  4  5  1  0
  5  6  1  0
  6  7  1  0
  7  8  1  0
  8  9  1  0
  4  2  1  0
  9  5  1  0
  1 10  1  0
  1 11  1  0
  1 12  1  0
  2 13  1  0
  4 14  1  0
  5 15  1  0
  6 16  1  0
  6 17  1  0
  7 18  1  0
  7 19  1  0
  8 20  1  0
  8 21  1  0
  9 22  1  0
  9 23  1  0
M  END
