
     RDKit          3D

 18 18  0  0  0  0  0  0  0  0999 V2000
    1.8776   -1.1483    0.0099 C   0  0  0  0  0  0  0  0  0  0  0  0
    1.0585    0.0416    0.3815 C   0  0  0  0  0  0  0  0  0  0  0  0
    0.2415   -0.0046    1.5111 O   0  0  0  0  0  0  0  0  0  0  0  0
   -0.3463    0.2100    0.2513 C   0  0  0  0  0  0  0  0  0  0  0  0
   -0.8664    1.6420    0.0118 C   0  0  0  0  0  0  0  0  0  0  0  0
    0.2011    2.5400    0.1212 O   0  0  0  0  0  0  0  0  0  0  0  0
   -1.3752   -0.8115   -0.0819 C   0  0  0  0  0  0  0  0  0  0  0  0
   -0.9621   -2.1129   -0.1322 O   0  0  0  0  0  0  0  0  0  0  0  0
    2.5851   -1.4523    0.8305 H   0  0  0  0  0  0  0  0  0  0  0  0
    2.5650   -0.8332   -0.8288 H   0  0  0  0  0  0  0  0  0  0  0  0
    1.3459   -2.0199   -0.3587 H   0  0  0  0  0  0  0  0  0  0  0  0
    1.6895    0.9817    0.4013 H   0  0  0  0  0  0  0  0  0  0  0  0
   -1.2559    1.7076   -1.0191 H   0  0  0  0  0  0  0  0  0  0  0  0
   -1.6133    1.8924    0.7862 H   0  0  0  0  0  0  0  0  0  0  0  0
    0.1276    3.2254   -0.5921 H   0  0  0  0  0  0  0  0  0  0  0  0
   -1.9271   -0.5311   -1.0259 H   0  0  0  0  0  0  0  0  0  0  0  0
   -2.1725   -0.7497    0.7149 H   0  0  0  0  0  0  0  0  0  0  0  0
   -1.1729   -2.5772   -0.9810 H   0  0  0  0  0  0  0  0  0  0  0  0
  1  2  1  0
  2  3  1  0
  3  4  1  0
  4  5  1  0
  5  6  1  0
  4  7  1  0
  7  8  1  0
  4  2  1  0
  1  9  1  0
  1 10  1  0
  1 11  1  0
  2 12  1  0
  5 13  1  0
  5 14  1  0
  6 15  1  0
  7 16  1  0
  7 17  1  0
  8 18  1  0
M  END
