
     RDKit          3D

 21 22  0  0  0  0  0  0  0  0999 V2000
    2.2383    0.2988   -0.9758 C   0  0  0  0  0  0  0  0  0  0  0  0
    1.5450    0.7472    0.2977 C   0  0  0  0  0  0  0  0  0  0  0  0
    1.5123   -0.2928    1.1553 O   0  0  0  0  0  0  0  0  0  0  0  0
    0.5444   -1.2499    1.0139 C   0  0  0  0  0  0  0  0  0  0  0  0
   -0.4865   -0.7062    0.1006 C   0  0  0  0  0  0  0  0  0  0  0  0
   -1.7327   -0.0768    0.2970 C   0  0  0  0  0  0  0  0  0  0  0  0
   -2.5806    0.2393   -0.9433 C   0  0  0  0  0  0  0  0  0  0  0  0
   -0.6405    0.7349    0.6640 C   0  0  0  0  0  0  0  0  0  0  0  0
    0.3419    1.3717   -0.0080 O   0  0  0  0  0  0  0  0  0  0  0  0
    2.4650   -0.7917   -0.9571 H   0  0  0  0  0  0  0  0  0  0  0  0
    3.2108    0.8062   -1.1416 H   0  0  0  0  0  0  0  0  0  0  0  0
    1.6154    0.5636   -1.8744 H   0  0  0  0  0  0  0  0  0  0  0  0
    2.1986    1.5366    0.7301 H   0  0  0  0  0  0  0  0  0  0  0  0
    1.0112   -2.1843    0.6393 H   0  0  0  0  0  0  0  0  0  0  0  0
    0.1165   -1.4985    2.0164 H   0  0  0  0  0  0  0  0  0  0  0  0
   -0.1353   -0.8119   -0.9697 H   0  0  0  0  0  0  0  0  0  0  0  0
   -2.4116   -0.4758    1.1043 H   0  0  0  0  0  0  0  0  0  0  0  0
   -3.2396    1.1156   -0.7233 H   0  0  0  0  0  0  0  0  0  0  0  0
   -3.2085   -0.6607   -1.1564 H   0  0  0  0  0  0  0  0  0  0  0  0
   -1.8825    0.4534   -1.7776 H   0  0  0  0  0  0  0  0  0  0  0  0
   -0.4817    0.8814    1.7760 H   0  0  0  0  0  0  0  0  0  0  0  0
  1  2  1  0
  2  3  1  0
  3  4  1  0
  4  5  1  0
  5  6  1  0
  6  7  1  0
  6  8  1  0
  8  9  1  0
  9  2  1  0
  8  5  1  0
  1 10  1  0
  1 11  1  0
  1 12  1  0
  2 13  1  0
  4 14  1  0
  4 15  1  0
  5 16  1  0
  6 17  1  0
  7 18  1  0
  7 19  1  0
  7 20  1  0
  8 21  1  0
M  END
