
     RDKit          3D

 17 18  0  0  0  0  0  0  0  0999 V2000
   -1.9164    0.8218   -0.1628 C   0  0  0  0  0  0  0  0  0  0  0  0
   -0.8635    0.1416    0.6919 C   0  0  0  0  0  0  0  0  0  0  0  0
   -1.2352   -1.2387    0.8390 O   0  0  0  0  0  0  0  0  0  0  0  0
   -0.6560   -1.4508   -0.4015 C   0  0  0  0  0  0  0  0  0  0  0  0
   -0.8858   -2.2764   -1.3137 O   0  0  0  0  0  0  0  0  0  0  0  0
    0.2490   -0.3668   -0.1549 C   0  0  0  0  0  0  0  0  0  0  0  0
    1.5641   -0.6061    0.4593 C   0  0  0  0  0  0  0  0  0  0  0  0
    1.8567    0.6650   -0.3486 C   0  0  0  0  0  0  0  0  0  0  0  0
    0.7263    0.4043   -1.1554 O   0  0  0  0  0  0  0  0  0  0  0  0
   -1.6697    0.7729   -1.2498 H   0  0  0  0  0  0  0  0  0  0  0  0
   -2.0384    1.8813    0.0839 H   0  0  0  0  0  0  0  0  0  0  0  0
   -2.9022    0.3330    0.0262 H   0  0  0  0  0  0  0  0  0  0  0  0
   -0.6012    0.6465    1.6220 H   0  0  0  0  0  0  0  0  0  0  0  0
    2.1878   -1.4251    0.0707 H   0  0  0  0  0  0  0  0  0  0  0  0
    1.6582   -0.4817    1.5439 H   0  0  0  0  0  0  0  0  0  0  0  0
    2.8143    0.6439   -0.8819 H   0  0  0  0  0  0  0  0  0  0  0  0
    1.7120    1.5352    0.3315 H   0  0  0  0  0  0  0  0  0  0  0  0
  1  2  1  0
  2  3  1  0
  3  4  1  0
  4  5  2  0
  4  6  1  0
  6  7  1  0
  7  8  1  0
  8  9  1  0
  6  2  1  0
  9  6  1  0
  1 10  1  0
  1 11  1  0
  1 12  1  0
  2 13  1  0
  7 14  1  0
  7 15  1  0
  8 16  1  0
  8 17  1  0
M  END
