
     RDKit          3D

 19 21  0  0  0  0  0  0  0  0999 V2000
    2.7472   -0.0277   -0.1879 C   0  0  0  0  0  0  0  0  0  0  0  0
    1.3280    0.4706   -0.4911 C   0  0  0  0  0  0  0  0  0  0  0  0
    0.7443    1.2225    0.6544 O   0  0  0  0  0  0  0  0  0  0  0  0
    0.2468    0.0556    0.1610 C   0  0  0  0  0  0  0  0  0  0  0  0
   -0.1912   -1.0896    0.9490 C   0  0  0  0  0  0  0  0  0  0  0  0
   -1.4313   -0.3080    1.3067 C   0  0  0  0  0  0  0  0  0  0  0  0
   -1.1864   -0.1509   -0.1707 C   0  0  0  0  0  0  0  0  0  0  0  0
   -1.9691    0.5149   -1.0767 C   0  0  0  0  0  0  0  0  0  0  0  0
   -0.9049   -1.5305   -0.1660 O   0  0  0  0  0  0  0  0  0  0  0  0
    3.4909    0.7756   -0.3367 H   0  0  0  0  0  0  0  0  0  0  0  0
    2.7978   -0.4434    0.8349 H   0  0  0  0  0  0  0  0  0  0  0  0
    2.9450   -0.8223   -0.9226 H   0  0  0  0  0  0  0  0  0  0  0  0
    1.3266    1.0893   -1.4322 H   0  0  0  0  0  0  0  0  0  0  0  0
    0.3207   -1.6882    1.5851 H   0  0  0  0  0  0  0  0  0  0  0  0
   -2.3257   -0.8857    1.5432 H   0  0  0  0  0  0  0  0  0  0  0  0
   -1.2086    0.5719    1.9340 H   0  0  0  0  0  0  0  0  0  0  0  0
   -2.4838   -0.1399   -1.8403 H   0  0  0  0  0  0  0  0  0  0  0  0
   -2.8197    1.1105   -0.6313 H   0  0  0  0  0  0  0  0  0  0  0  0
   -1.4264    1.2755   -1.7126 H   0  0  0  0  0  0  0  0  0  0  0  0
  1  2  1  0
  2  3  1  0
  3  4  1  0
  4  5  1  0
  5  6  1  0
  6  7  1  0
  7  8  1  0
  7  9  1  0
  4  2  1  0
  9  5  1  0
  7  4  1  0
  1 10  1  0
  1 11  1  0
  1 12  1  0
  2 13  1  0
  5 14  1  0
  6 15  1  0
  6 16  1  0
  8 17  1  0
  8 18  1  0
  8 19  1  0
M  END
