
     RDKit          3D

 18 19  0  0  0  0  0  0  0  0999 V2000
    2.7658   -0.2811   -0.3337 C   0  0  0  0  0  0  0  0  0  0  0  0
    1.2989   -0.6641   -0.4766 C   0  0  0  0  0  0  0  0  0  0  0  0
    0.5358   -0.0136   -1.4433 O   0  0  0  0  0  0  0  0  0  0  0  0
    0.3577    0.4750   -0.1555 C   0  0  0  0  0  0  0  0  0  0  0  0
   -0.9768    0.1740    0.4581 C   0  0  0  0  0  0  0  0  0  0  0  0
   -1.7437   -1.0216   -0.0749 C   0  0  0  0  0  0  0  0  0  0  0  0
   -1.8122    1.4198    0.7320 C   0  0  0  0  0  0  0  0  0  0  0  0
   -1.2822    0.6018    1.7315 O   0  0  0  0  0  0  0  0  0  0  0  0
    3.4468   -1.0485   -0.6958 H   0  0  0  0  0  0  0  0  0  0  0  0
    2.9054   -0.0047    0.7336 H   0  0  0  0  0  0  0  0  0  0  0  0
    2.8772    0.6873   -0.8984 H   0  0  0  0  0  0  0  0  0  0  0  0
    0.9599   -1.6469   -0.1093 H   0  0  0  0  0  0  0  0  0  0  0  0
    0.7700    1.4941   -0.0145 H   0  0  0  0  0  0  0  0  0  0  0  0
   -2.5938   -0.6456   -0.6957 H   0  0  0  0  0  0  0  0  0  0  0  0
   -2.1586   -1.5958    0.7984 H   0  0  0  0  0  0  0  0  0  0  0  0
   -1.1311   -1.6973   -0.6791 H   0  0  0  0  0  0  0  0  0  0  0  0
   -2.8856    1.3523    0.5010 H   0  0  0  0  0  0  0  0  0  0  0  0
   -1.3334    2.4150    0.6224 H   0  0  0  0  0  0  0  0  0  0  0  0
  1  2  1  0
  2  3  1  0
  3  4  1  0
  4  5  1  0
  5  6  1  0
  5  7  1  0
  7  8  1  0
  4  2  1  0
  8  5  1  0
  1  9  1  0
  1 10  1  0
  1 11  1  0
  2 12  1  0
  4 13  1  0
  6 14  1  0
  6 15  1  0
  6 16  1  0
  7 17  1  0
  7 18  1  0
M  END
