
     RDKit          3D

 21 22  0  0  0  0  0  0  0  0999 V2000
   -2.3527   -0.1716   -0.6619 C   0  0  0  0  0  0  0  0  0  0  0  0
   -0.8955   -0.5603   -0.8733 C   0  0  0  0  0  0  0  0  0  0  0  0
   -0.6862   -1.8181   -0.2555 O   0  0  0  0  0  0  0  0  0  0  0  0
    0.0386   -1.2656    0.8274 C   0  0  0  0  0  0  0  0  0  0  0  0
   -0.0211    0.0278    0.1372 C   0  0  0  0  0  0  0  0  0  0  0  0
   -0.3796    1.2541    0.8507 C   0  0  0  0  0  0  0  0  0  0  0  0
    1.0023    1.5504    0.9438 O   0  0  0  0  0  0  0  0  0  0  0  0
    1.1909    0.7621   -0.2154 C   0  0  0  0  0  0  0  0  0  0  0  0
    2.5042    0.0060   -0.1625 C   0  0  0  0  0  0  0  0  0  0  0  0
   -2.5785   -0.1596    0.4349 H   0  0  0  0  0  0  0  0  0  0  0  0
   -2.9981   -0.9737   -1.0823 H   0  0  0  0  0  0  0  0  0  0  0  0
   -2.6167    0.7706   -1.1636 H   0  0  0  0  0  0  0  0  0  0  0  0
   -0.6180   -0.5243   -1.9349 H   0  0  0  0  0  0  0  0  0  0  0  0
    1.0392   -1.7622    0.8341 H   0  0  0  0  0  0  0  0  0  0  0  0
   -0.5182   -1.3216    1.7894 H   0  0  0  0  0  0  0  0  0  0  0  0
   -0.8291    2.0379    0.1851 H   0  0  0  0  0  0  0  0  0  0  0  0
   -0.8932    1.1711    1.8163 H   0  0  0  0  0  0  0  0  0  0  0  0
    1.0999    1.4008   -1.1231 H   0  0  0  0  0  0  0  0  0  0  0  0
    2.6665   -0.2828    0.9064 H   0  0  0  0  0  0  0  0  0  0  0  0
    3.3315    0.7130   -0.4101 H   0  0  0  0  0  0  0  0  0  0  0  0
    2.5138   -0.8542   -0.8425 H   0  0  0  0  0  0  0  0  0  0  0  0
  1  2  1  0
  2  3  1  0
  3  4  1  0
  4  5  1  0
  5  6  1  0
  6  7  1  0
  7  8  1  0
  8  9  1  0
  5  2  1  0
  8  5  1  0
  1 10  1  0
  1 11  1  0
  1 12  1  0
  2 13  1  0
  4 14  1  0
  4 15  1  0
  6 16  1  0
  6 17  1  0
  8 18  1  0
  9 19  1  0
  9 20  1  0
  9 21  1  0
M  END
