
     RDKit          3D

 16 16  0  0  0  0  0  0  0  0999 V2000
    1.9034   -0.5647    0.4574 C   0  0  0  0  0  0  0  0  0  0  0  0
    0.5147   -0.6315   -0.0873 C   0  0  0  0  0  0  0  0  0  0  0  0
    0.4516   -0.3326   -1.4889 O   0  0  0  0  0  0  0  0  0  0  0  0
    0.3818    1.0119   -1.1266 C   0  0  0  0  0  0  0  0  0  0  0  0
    0.7932    2.0758   -1.6754 O   0  0  0  0  0  0  0  0  0  0  0  0
   -0.3390    0.5923    0.0897 C   0  0  0  0  0  0  0  0  0  0  0  0
   -1.8028    0.2307   -0.1599 C   0  0  0  0  0  0  0  0  0  0  0  0
   -2.1149   -0.7541    0.7908 O   0  0  0  0  0  0  0  0  0  0  0  0
    2.0495    0.1384    1.2802 H   0  0  0  0  0  0  0  0  0  0  0  0
    2.2010   -1.6155    0.7421 H   0  0  0  0  0  0  0  0  0  0  0  0
    2.6035   -0.2869   -0.3625 H   0  0  0  0  0  0  0  0  0  0  0  0
   -0.0460   -1.5662    0.1428 H   0  0  0  0  0  0  0  0  0  0  0  0
   -0.1582    1.1828    1.0007 H   0  0  0  0  0  0  0  0  0  0  0  0
   -2.4656    1.0918   -0.1186 H   0  0  0  0  0  0  0  0  0  0  0  0
   -1.8067   -0.3001   -1.1446 H   0  0  0  0  0  0  0  0  0  0  0  0
   -2.1655   -0.2722    1.6601 H   0  0  0  0  0  0  0  0  0  0  0  0
  1  2  1  0
  2  3  1  0
  3  4  1  0
  4  5  2  0
  4  6  1  0
  6  7  1  0
  7  8  1  0
  6  2  1  0
  1  9  1  0
  1 10  1  0
  1 11  1  0
  2 12  1  0
  6 13  1  0
  7 14  1  0
  7 15  1  0
  8 16  1  0
M  END
