
     RDKit          3D

 21 22  0  0  0  0  0  0  0  0999 V2000
    2.6504    0.0324    0.4414 C   0  0  0  0  0  0  0  0  0  0  0  0
    1.3122   -0.6280    0.4296 C   0  0  0  0  0  0  0  0  0  0  0  0
    0.4574   -0.3237    1.4781 O   0  0  0  0  0  0  0  0  0  0  0  0
   -0.0816    0.6810    0.7019 C   0  0  0  0  0  0  0  0  0  0  0  0
   -1.5567    0.8776    0.7647 C   0  0  0  0  0  0  0  0  0  0  0  0
   -2.3290   -0.0766   -0.1016 C   0  0  0  0  0  0  0  0  0  0  0  0
   -1.6235   -1.2730   -0.3209 O   0  0  0  0  0  0  0  0  0  0  0  0
   -0.5572   -0.9459   -1.1541 C   0  0  0  0  0  0  0  0  0  0  0  0
    0.3777    0.0577   -0.5650 C   0  0  0  0  0  0  0  0  0  0  0  0
    2.5709    1.1158    0.1671 H   0  0  0  0  0  0  0  0  0  0  0  0
    3.1283   -0.0553    1.4486 H   0  0  0  0  0  0  0  0  0  0  0  0
    3.2910   -0.5119   -0.3091 H   0  0  0  0  0  0  0  0  0  0  0  0
    1.4086   -1.7189    0.2943 H   0  0  0  0  0  0  0  0  0  0  0  0
    0.4704    1.6364    0.9041 H   0  0  0  0  0  0  0  0  0  0  0  0
   -1.7677    1.9250    0.4140 H   0  0  0  0  0  0  0  0  0  0  0  0
   -1.9839    0.8199    1.7860 H   0  0  0  0  0  0  0  0  0  0  0  0
   -3.3466   -0.2568    0.2847 H   0  0  0  0  0  0  0  0  0  0  0  0
   -2.4228    0.3918   -1.1114 H   0  0  0  0  0  0  0  0  0  0  0  0
    0.0300   -1.9039   -1.2760 H   0  0  0  0  0  0  0  0  0  0  0  0
   -0.8835   -0.6147   -2.1520 H   0  0  0  0  0  0  0  0  0  0  0  0
    0.8558    0.7710   -1.2413 H   0  0  0  0  0  0  0  0  0  0  0  0
  1  2  1  0
  2  3  1  0
  3  4  1  0
  4  5  1  0
  5  6  1  0
  6  7  1  0
  7  8  1  0
  8  9  1  0
  9  2  1  0
  9  4  1  0
  1 10  1  0
  1 11  1  0
  1 12  1  0
  2 13  1  0
  4 14  1  0
  5 15  1  0
  5 16  1  0
  6 17  1  0
  6 18  1  0
  8 19  1  0
  8 20  1  0
  9 21  1  0
M  END
