
     RDKit          3D

 19 20  0  0  0  0  0  0  0  0999 V2000
   -2.3482   -0.5347    0.0546 C   0  0  0  0  0  0  0  0  0  0  0  0
   -0.8390   -0.7239   -0.0207 C   0  0  0  0  0  0  0  0  0  0  0  0
   -0.3878   -0.5864    1.3094 O   0  0  0  0  0  0  0  0  0  0  0  0
    0.3907    0.5748    1.3157 C   0  0  0  0  0  0  0  0  0  0  0  0
    1.7823    0.1504    1.0145 C   0  0  0  0  0  0  0  0  0  0  0  0
    2.0404   -0.2047   -0.2354 C   0  0  0  0  0  0  0  0  0  0  0  0
    1.0963    0.2439   -1.2824 C   0  0  0  0  0  0  0  0  0  0  0  0
   -0.2693    0.4627   -0.7294 C   0  0  0  0  0  0  0  0  0  0  0  0
   -0.1393    1.3930    0.3271 O   0  0  0  0  0  0  0  0  0  0  0  0
   -2.7560   -1.0549    0.9429 H   0  0  0  0  0  0  0  0  0  0  0  0
   -2.4944    0.5621    0.2639 H   0  0  0  0  0  0  0  0  0  0  0  0
   -2.8578   -0.7487   -0.8806 H   0  0  0  0  0  0  0  0  0  0  0  0
   -0.5587   -1.6835   -0.4610 H   0  0  0  0  0  0  0  0  0  0  0  0
    0.3028    1.0960    2.2887 H   0  0  0  0  0  0  0  0  0  0  0  0
    2.4946    0.1565    1.8266 H   0  0  0  0  0  0  0  0  0  0  0  0
    2.9294   -0.8046   -0.4245 H   0  0  0  0  0  0  0  0  0  0  0  0
    1.0996   -0.4311   -2.1705 H   0  0  0  0  0  0  0  0  0  0  0  0
    1.4608    1.2300   -1.6716 H   0  0  0  0  0  0  0  0  0  0  0  0
   -0.9465    0.9032   -1.4673 H   0  0  0  0  0  0  0  0  0  0  0  0
  1  2  1  0
  2  3  1  0
  3  4  1  0
  4  5  1  0
  5  6  2  0
  6  7  1  0
  7  8  1  0
  8  9  1  0
  8  2  1  0
  9  4  1  0
  1 10  1  0
  1 11  1  0
  1 12  1  0
  2 13  1  0
  4 14  1  0
  5 15  1  0
  6 16  1  0
  7 17  1  0
  7 18  1  0
  8 19  1  0
M  END
