
     RDKit          3D

 17 18  0  0  0  0  0  0  0  0999 V2000
   -0.1419    1.9936    0.0568 C   0  0  0  0  0  0  0  0  0  0  0  0
   -0.5133    0.6177    0.4966 C   0  0  0  0  0  0  0  0  0  0  0  0
   -1.4449    0.0304   -0.3604 O   0  0  0  0  0  0  0  0  0  0  0  0
   -1.4546   -1.2931    0.0521 C   0  0  0  0  0  0  0  0  0  0  0  0
    0.0033   -1.6539    0.2232 C   0  0  0  0  0  0  0  0  0  0  0  0
    0.5577   -1.3979    1.4777 O   0  0  0  0  0  0  0  0  0  0  0  0
    0.6316   -0.3293    0.6044 C   0  0  0  0  0  0  0  0  0  0  0  0
    1.9286   -0.0504   -0.0209 C   0  0  0  0  0  0  0  0  0  0  0  0
    2.8919   -0.7520    0.2386 O   0  0  0  0  0  0  0  0  0  0  0  0
    0.3510    1.9785   -0.9311 H   0  0  0  0  0  0  0  0  0  0  0  0
    0.5532    2.4300    0.7947 H   0  0  0  0  0  0  0  0  0  0  0  0
   -1.0455    2.6072   -0.0061 H   0  0  0  0  0  0  0  0  0  0  0  0
   -1.0079    0.6752    1.5004 H   0  0  0  0  0  0  0  0  0  0  0  0
   -1.9726   -1.9550   -0.6640 H   0  0  0  0  0  0  0  0  0  0  0  0
   -1.9402   -1.3378    1.0480 H   0  0  0  0  0  0  0  0  0  0  0  0
    0.5049   -2.3228   -0.4748 H   0  0  0  0  0  0  0  0  0  0  0  0
    2.0987    0.7598   -0.7190 H   0  0  0  0  0  0  0  0  0  0  0  0
  1  2  1  0
  2  3  1  0
  3  4  1  0
  4  5  1  0
  5  6  1  0
  6  7  1  0
  7  8  1  0
  8  9  2  0
  7  2  1  0
  7  5  1  0
  1 10  1  0
  1 11  1  0
  1 12  1  0
  2 13  1  0
  4 14  1  0
  4 15  1  0
  5 16  1  0
  8 17  1  0
M  END
