
     RDKit          3D

 21 22  0  0  0  0  0  0  0  0999 V2000
    2.5473   -0.0858    0.3717 C   0  0  0  0  0  0  0  0  0  0  0  0
    1.1702   -0.2551   -0.1811 C   0  0  0  0  0  0  0  0  0  0  0  0
    0.7501   -1.5653   -0.2492 O   0  0  0  0  0  0  0  0  0  0  0  0
   -0.6162   -1.3956   -0.5772 C   0  0  0  0  0  0  0  0  0  0  0  0
   -1.0722   -0.4647    0.4975 C   0  0  0  0  0  0  0  0  0  0  0  0
   -1.6252   -1.1282    1.5786 O   0  0  0  0  0  0  0  0  0  0  0  0
   -1.7325    0.8022    0.0754 C   0  0  0  0  0  0  0  0  0  0  0  0
   -0.4277    1.5885    0.2231 C   0  0  0  0  0  0  0  0  0  0  0  0
    0.1780    0.3360    0.7960 C   0  0  0  0  0  0  0  0  0  0  0  0
    2.7862    1.0023    0.3468 H   0  0  0  0  0  0  0  0  0  0  0  0
    3.3198   -0.5738   -0.2623 H   0  0  0  0  0  0  0  0  0  0  0  0
    2.5980   -0.3853    1.4325 H   0  0  0  0  0  0  0  0  0  0  0  0
    1.0924    0.1789   -1.1892 H   0  0  0  0  0  0  0  0  0  0  0  0
   -1.1698   -2.3359   -0.5546 H   0  0  0  0  0  0  0  0  0  0  0  0
   -0.6276   -0.9432   -1.5864 H   0  0  0  0  0  0  0  0  0  0  0  0
   -2.5122   -1.4446    1.3193 H   0  0  0  0  0  0  0  0  0  0  0  0
   -2.4776    1.1887    0.8172 H   0  0  0  0  0  0  0  0  0  0  0  0
   -2.1575    0.8508   -0.9281 H   0  0  0  0  0  0  0  0  0  0  0  0
   -0.0398    1.8974   -0.7756 H   0  0  0  0  0  0  0  0  0  0  0  0
   -0.4546    2.3798    0.9869 H   0  0  0  0  0  0  0  0  0  0  0  0
    0.4708    0.3529    1.8399 H   0  0  0  0  0  0  0  0  0  0  0  0
  1  2  1  0
  2  3  1  0
  3  4  1  0
  4  5  1  0
  5  6  1  0
  5  7  1  0
  7  8  1  0
  8  9  1  0
  9  2  1  0
  9  5  1  0
  1 10  1  0
  1 11  1  0
  1 12  1  0
  2 13  1  0
  4 14  1  0
  4 15  1  0
  6 16  1  0
  7 17  1  0
  7 18  1  0
  8 19  1  0
  8 20  1  0
  9 21  1  0
M  END
