
     RDKit          3D

 17 17  0  0  0  0  0  0  0  0999 V2000
    1.8509    0.3778    0.5034 C   0  0  0  0  0  0  0  0  0  0  0  0
    0.7991    0.1890   -0.5008 C   0  0  0  0  0  0  0  0  0  0  0  0
    0.7824   -1.1152   -0.9979 O   0  0  0  0  0  0  0  0  0  0  0  0
   -0.4139   -1.4575   -0.4180 C   0  0  0  0  0  0  0  0  0  0  0  0
   -0.6174    0.0245   -0.0799 C   0  0  0  0  0  0  0  0  0  0  0  0
   -1.5397    0.6557   -1.0569 C   0  0  0  0  0  0  0  0  0  0  0  0
   -1.6872    1.8584   -1.0199 O   0  0  0  0  0  0  0  0  0  0  0  0
   -0.9704    0.2901    1.3097 C   0  0  0  0  0  0  0  0  0  0  0  0
   -0.5504   -0.3485    2.2550 O   0  0  0  0  0  0  0  0  0  0  0  0
    1.6029    0.2170    1.5415 H   0  0  0  0  0  0  0  0  0  0  0  0
    2.2952    1.4084    0.4176 H   0  0  0  0  0  0  0  0  0  0  0  0
    2.7105   -0.3119    0.2625 H   0  0  0  0  0  0  0  0  0  0  0  0
    0.9497    0.8834   -1.3779 H   0  0  0  0  0  0  0  0  0  0  0  0
   -0.3117   -2.0096    0.5335 H   0  0  0  0  0  0  0  0  0  0  0  0
   -1.1691   -1.8546   -1.1230 H   0  0  0  0  0  0  0  0  0  0  0  0
   -2.0845    0.0931   -1.7982 H   0  0  0  0  0  0  0  0  0  0  0  0
   -1.6464    1.0998    1.5493 H   0  0  0  0  0  0  0  0  0  0  0  0
  1  2  1  0
  2  3  1  0
  3  4  1  0
  4  5  1  0
  5  6  1  0
  6  7  2  0
  5  8  1  0
  8  9  2  0
  5  2  1  0
  1 10  1  0
  1 11  1  0
  1 12  1  0
  2 13  1  0
  4 14  1  0
  4 15  1  0
  6 16  1  0
  8 17  1  0
M  END
