
     RDKit          3D

 21 22  0  0  0  0  0  0  0  0999 V2000
   -2.2155    1.2565   -0.3797 C   0  0  0  0  0  0  0  0  0  0  0  0
   -0.8456    0.9474    0.1174 C   0  0  0  0  0  0  0  0  0  0  0  0
    0.2124    1.5531   -0.5503 O   0  0  0  0  0  0  0  0  0  0  0  0
    0.8520    0.3240   -0.5589 C   0  0  0  0  0  0  0  0  0  0  0  0
    2.1032    0.1229    0.2419 C   0  0  0  0  0  0  0  0  0  0  0  0
    1.8094    0.3573    1.5866 O   0  0  0  0  0  0  0  0  0  0  0  0
    0.3684   -0.6564   -1.5423 C   0  0  0  0  0  0  0  0  0  0  0  0
   -0.3673   -0.4222   -0.2630 C   0  0  0  0  0  0  0  0  0  0  0  0
   -0.4536   -1.5197    0.7400 C   0  0  0  0  0  0  0  0  0  0  0  0
   -2.2675    2.0431   -1.1353 H   0  0  0  0  0  0  0  0  0  0  0  0
   -2.6672    0.3394   -0.8400 H   0  0  0  0  0  0  0  0  0  0  0  0
   -2.9236    1.5498    0.4398 H   0  0  0  0  0  0  0  0  0  0  0  0
   -0.7569    1.1871    1.2145 H   0  0  0  0  0  0  0  0  0  0  0  0
    2.9358    0.7391   -0.1037 H   0  0  0  0  0  0  0  0  0  0  0  0
    2.4076   -0.9530    0.0907 H   0  0  0  0  0  0  0  0  0  0  0  0
    2.6328    0.4639    2.1411 H   0  0  0  0  0  0  0  0  0  0  0  0
    0.8549   -1.6247   -1.6550 H   0  0  0  0  0  0  0  0  0  0  0  0
   -0.1318   -0.2661   -2.4583 H   0  0  0  0  0  0  0  0  0  0  0  0
    0.4358   -1.5768    1.4114 H   0  0  0  0  0  0  0  0  0  0  0  0
   -0.5981   -2.4823    0.1747 H   0  0  0  0  0  0  0  0  0  0  0  0
   -1.3850   -1.3825    1.3283 H   0  0  0  0  0  0  0  0  0  0  0  0
  1  2  1  0
  2  3  1  0
  3  4  1  0
  4  5  1  0
  5  6  1  0
  4  7  1  0
  7  8  1  0
  8  9  1  0
  8  2  1  0
  8  4  1  0
  1 10  1  0
  1 11  1  0
  1 12  1  0
  2 13  1  0
  5 14  1  0
  5 15  1  0
  6 16  1  0
  7 17  1  0
  7 18  1  0
  9 19  1  0
  9 20  1  0
  9 21  1  0
M  END
