
     RDKit          3D

 19 20  0  0  0  0  0  0  0  0999 V2000
    2.3494    0.3354   -0.2828 C   0  0  0  0  0  0  0  0  0  0  0  0
    1.1354   -0.3222    0.2580 C   0  0  0  0  0  0  0  0  0  0  0  0
    0.6480   -1.3635   -0.5190 O   0  0  0  0  0  0  0  0  0  0  0  0
   -0.5161   -1.7116    0.1859 C   0  0  0  0  0  0  0  0  0  0  0  0
   -1.1846   -0.4328    0.5845 C   0  0  0  0  0  0  0  0  0  0  0  0
   -2.2015   -0.0450   -0.2639 O   0  0  0  0  0  0  0  0  0  0  0  0
   -1.8359    1.2307   -0.7144 C   0  0  0  0  0  0  0  0  0  0  0  0
   -0.4427    1.0974   -0.8948 O   0  0  0  0  0  0  0  0  0  0  0  0
   -0.0687    0.5879    0.3428 C   0  0  0  0  0  0  0  0  0  0  0  0
    3.2623   -0.2073    0.0430 H   0  0  0  0  0  0  0  0  0  0  0  0
    2.4281    1.3508    0.2082 H   0  0  0  0  0  0  0  0  0  0  0  0
    2.3763    0.4550   -1.3734 H   0  0  0  0  0  0  0  0  0  0  0  0
    1.3219   -0.7179    1.2665 H   0  0  0  0  0  0  0  0  0  0  0  0
   -1.1681   -2.3840   -0.3999 H   0  0  0  0  0  0  0  0  0  0  0  0
   -0.1507   -2.2026    1.1247 H   0  0  0  0  0  0  0  0  0  0  0  0
   -1.5363   -0.4143    1.6259 H   0  0  0  0  0  0  0  0  0  0  0  0
   -2.3405    1.4521   -1.6738 H   0  0  0  0  0  0  0  0  0  0  0  0
   -2.0765    1.9586    0.0849 H   0  0  0  0  0  0  0  0  0  0  0  0
   -0.0000    1.3333    1.1292 H   0  0  0  0  0  0  0  0  0  0  0  0
  1  2  1  0
  2  3  1  0
  3  4  1  0
  4  5  1  0
  5  6  1  0
  6  7  1  0
  7  8  1  0
  8  9  1  0
  9  2  1  0
  9  5  1  0
  1 10  1  0
  1 11  1  0
  1 12  1  0
  2 13  1  0
  4 14  1  0
  4 15  1  0
  5 16  1  0
  7 17  1  0
  7 18  1  0
  9 19  1  0
M  END
