
     RDKit          3D

 23 24  0  0  0  0  0  0  0  0999 V2000
   -1.5753    1.6026    0.6879 C   0  0  0  0  0  0  0  0  0  0  0  0
   -0.8987    0.8745   -0.4339 C   0  0  0  0  0  0  0  0  0  0  0  0
    0.4231    1.3776   -0.5637 O   0  0  0  0  0  0  0  0  0  0  0  0
    1.2055    0.2932   -0.2629 C   0  0  0  0  0  0  0  0  0  0  0  0
    2.6461    0.3714   -0.2520 C   0  0  0  0  0  0  0  0  0  0  0  0
    0.5115   -0.4014    0.9224 C   0  0  0  0  0  0  0  0  0  0  0  0
   -0.5931   -0.5583   -0.1336 C   0  0  0  0  0  0  0  0  0  0  0  0
   -1.6220   -1.5334    0.0714 C   0  0  0  0  0  0  0  0  0  0  0  0
    0.5501   -0.8271   -1.0890 C   0  0  0  0  0  0  0  0  0  0  0  0
   -2.3103    0.8996    1.1461 H   0  0  0  0  0  0  0  0  0  0  0  0
   -0.8607    2.0219    1.3984 H   0  0  0  0  0  0  0  0  0  0  0  0
   -2.1649    2.4663    0.2803 H   0  0  0  0  0  0  0  0  0  0  0  0
   -1.4550    1.0183   -1.3765 H   0  0  0  0  0  0  0  0  0  0  0  0
    3.0014    1.3776   -0.5802 H   0  0  0  0  0  0  0  0  0  0  0  0
    3.0365    0.2519    0.7951 H   0  0  0  0  0  0  0  0  0  0  0  0
    3.1879   -0.3730   -0.9003 H   0  0  0  0  0  0  0  0  0  0  0  0
    0.2653    0.2612    1.7506 H   0  0  0  0  0  0  0  0  0  0  0  0
    0.9661   -1.3712    1.1462 H   0  0  0  0  0  0  0  0  0  0  0  0
   -2.5587   -1.0466    0.4279 H   0  0  0  0  0  0  0  0  0  0  0  0
   -1.8348   -2.1154   -0.8456 H   0  0  0  0  0  0  0  0  0  0  0  0
   -1.3327   -2.2501    0.8870 H   0  0  0  0  0  0  0  0  0  0  0  0
    1.0134   -1.8070   -0.9495 H   0  0  0  0  0  0  0  0  0  0  0  0
    0.3991   -0.5325   -2.1262 H   0  0  0  0  0  0  0  0  0  0  0  0
  1  2  1  0
  2  3  1  0
  3  4  1  0
  4  5  1  0
  4  6  1  0
  6  7  1  0
  7  8  1  0
  7  9  1  0
  7  2  1  0
  9  4  1  0
  1 10  1  0
  1 11  1  0
  1 12  1  0
  2 13  1  0
  5 14  1  0
  5 15  1  0
  5 16  1  0
  6 17  1  0
  6 18  1  0
  8 19  1  0
  8 20  1  0
  8 21  1  0
  9 22  1  0
  9 23  1  0
M  END
