
     RDKit          3D

 20 21  0  0  0  0  0  0  0  0999 V2000
   -2.0939   -0.7682    0.3379 C   0  0  0  0  0  0  0  0  0  0  0  0
   -1.0818   -0.0285    1.1570 C   0  0  0  0  0  0  0  0  0  0  0  0
   -0.1229   -0.9422    1.6461 O   0  0  0  0  0  0  0  0  0  0  0  0
    0.8681   -0.3450    0.8954 C   0  0  0  0  0  0  0  0  0  0  0  0
    1.6488   -1.2098   -0.0412 C   0  0  0  0  0  0  0  0  0  0  0  0
    1.2441    1.0408    1.2098 C   0  0  0  0  0  0  0  0  0  0  0  0
   -0.0282    0.7222    0.4570 C   0  0  0  0  0  0  0  0  0  0  0  0
   -0.1259    1.2443   -0.9168 C   0  0  0  0  0  0  0  0  0  0  0  0
   -2.1241   -1.8503    0.6334 H   0  0  0  0  0  0  0  0  0  0  0  0
   -1.9156   -0.7499   -0.7400 H   0  0  0  0  0  0  0  0  0  0  0  0
   -3.0992   -0.3692    0.6062 H   0  0  0  0  0  0  0  0  0  0  0  0
   -1.5298    0.4783    2.0593 H   0  0  0  0  0  0  0  0  0  0  0  0
    1.9224   -2.1420    0.5302 H   0  0  0  0  0  0  0  0  0  0  0  0
    1.0616   -1.5474   -0.9269 H   0  0  0  0  0  0  0  0  0  0  0  0
    2.5371   -0.6963   -0.4384 H   0  0  0  0  0  0  0  0  0  0  0  0
    2.0875    1.5163    0.6934 H   0  0  0  0  0  0  0  0  0  0  0  0
    1.0461    1.4208    2.2439 H   0  0  0  0  0  0  0  0  0  0  0  0
   -0.9009    0.8237   -1.5533 H   0  0  0  0  0  0  0  0  0  0  0  0
   -0.2497    2.3572   -0.9037 H   0  0  0  0  0  0  0  0  0  0  0  0
    0.8562    1.0454   -1.4377 H   0  0  0  0  0  0  0  0  0  0  0  0
  1  2  1  0
  2  3  1  0
  3  4  1  0
  4  5  1  0
  4  6  1  0
  6  7  1  0
  7  8  1  0
  7  2  1  0
  7  4  1  0
  1  9  1  0
  1 10  1  0
  1 11  1  0
  2 12  1  0
  5 13  1  0
  5 14  1  0
  5 15  1  0
  6 16  1  0
  6 17  1  0
  8 18  1  0
  8 19  1  0
  8 20  1  0
M  END
