
     RDKit          3D

 21 22  0  0  0  0  0  0  0  0999 V2000
   -3.4521    0.1094    0.1804 C   0  0  0  0  0  0  0  0  0  0  0  0
   -2.0479   -0.3561    0.4097 C   0  0  0  0  0  0  0  0  0  0  0  0
   -1.4094   -0.7567   -0.8118 O   0  0  0  0  0  0  0  0  0  0  0  0
   -0.9128    0.3819   -0.1887 C   0  0  0  0  0  0  0  0  0  0  0  0
    0.4687    0.2632    0.4728 C   0  0  0  0  0  0  0  0  0  0  0  0
    0.3542   -0.7336    1.4460 O   0  0  0  0  0  0  0  0  0  0  0  0
    1.4220   -0.1823   -0.6039 C   0  0  0  0  0  0  0  0  0  0  0  0
    2.8721   -0.3942   -0.2776 C   0  0  0  0  0  0  0  0  0  0  0  0
    2.4440    0.7359   -1.1441 C   0  0  0  0  0  0  0  0  0  0  0  0
   -3.5194    1.1576   -0.1823 H   0  0  0  0  0  0  0  0  0  0  0  0
   -4.0028   -0.5643   -0.5336 H   0  0  0  0  0  0  0  0  0  0  0  0
   -4.0218    0.0191    1.1397 H   0  0  0  0  0  0  0  0  0  0  0  0
   -1.8265   -0.9625    1.3043 H   0  0  0  0  0  0  0  0  0  0  0  0
   -1.0588    1.3778   -0.6803 H   0  0  0  0  0  0  0  0  0  0  0  0
    0.7512    1.2190    0.9401 H   0  0  0  0  0  0  0  0  0  0  0  0
    1.0690   -1.4126    1.3535 H   0  0  0  0  0  0  0  0  0  0  0  0
    0.9605   -0.9055   -1.3263 H   0  0  0  0  0  0  0  0  0  0  0  0
    3.2490   -0.1690    0.7319 H   0  0  0  0  0  0  0  0  0  0  0  0
    3.3403   -1.3028   -0.7236 H   0  0  0  0  0  0  0  0  0  0  0  0
    2.7571    0.7067   -2.2094 H   0  0  0  0  0  0  0  0  0  0  0  0
    2.5632    1.7693   -0.7083 H   0  0  0  0  0  0  0  0  0  0  0  0
  1  2  1  0
  2  3  1  0
  3  4  1  0
  4  5  1  0
  5  6  1  0
  5  7  1  0
  7  8  1  0
  8  9  1  0
  4  2  1  0
  9  7  1  0
  1 10  1  0
  1 11  1  0
  1 12  1  0
  2 13  1  0
  4 14  1  0
  5 15  1  0
  6 16  1  0
  7 17  1  0
  8 18  1  0
  8 19  1  0
  9 20  1  0
  9 21  1  0
M  END
