
     RDKit          3D

 19 20  0  0  0  0  0  0  0  0999 V2000
    2.1749   -0.2420    0.5698 C   0  0  0  0  0  0  0  0  0  0  0  0
    1.1680    0.4332   -0.3285 C   0  0  0  0  0  0  0  0  0  0  0  0
    0.5025    1.4939    0.3222 O   0  0  0  0  0  0  0  0  0  0  0  0
   -0.6414    1.7585   -0.4066 C   0  0  0  0  0  0  0  0  0  0  0  0
   -1.1359    2.9045   -0.5575 O   0  0  0  0  0  0  0  0  0  0  0  0
   -1.1098    0.4534   -0.9296 C   0  0  0  0  0  0  0  0  0  0  0  0
   -1.9090   -0.2828    0.1315 C   0  0  0  0  0  0  0  0  0  0  0  0
   -0.6897   -1.2007    0.2925 C   0  0  0  0  0  0  0  0  0  0  0  0
    0.0594   -0.4607   -0.7602 C   0  0  0  0  0  0  0  0  0  0  0  0
    1.7321   -0.8785    1.3334 H   0  0  0  0  0  0  0  0  0  0  0  0
    2.8559   -0.8263   -0.0843 H   0  0  0  0  0  0  0  0  0  0  0  0
    2.7905    0.5639    1.0226 H   0  0  0  0  0  0  0  0  0  0  0  0
    1.6754    0.8275   -1.2147 H   0  0  0  0  0  0  0  0  0  0  0  0
   -1.5767    0.4789   -1.9294 H   0  0  0  0  0  0  0  0  0  0  0  0
   -2.1263    0.3203    1.0181 H   0  0  0  0  0  0  0  0  0  0  0  0
   -2.8136   -0.7959   -0.2365 H   0  0  0  0  0  0  0  0  0  0  0  0
   -0.2859   -1.2164    1.3056 H   0  0  0  0  0  0  0  0  0  0  0  0
   -0.9811   -2.2450   -0.0217 H   0  0  0  0  0  0  0  0  0  0  0  0
    0.3108   -1.0860   -1.6650 H   0  0  0  0  0  0  0  0  0  0  0  0
  1  2  1  0
  2  3  1  0
  3  4  1  0
  4  5  2  0
  4  6  1  0
  6  7  1  0
  7  8  1  0
  8  9  1  0
  9  2  1  0
  9  6  1  0
  1 10  1  0
  1 11  1  0
  1 12  1  0
  2 13  1  0
  6 14  1  0
  7 15  1  0
  7 16  1  0
  8 17  1  0
  8 18  1  0
  9 19  1  0
M  END
