
     RDKit          3D

 20 21  0  0  0  0  0  0  0  0999 V2000
    2.4885   -1.0160   -0.3423 C   0  0  0  0  0  0  0  0  0  0  0  0
    0.9841   -1.0932   -0.2925 C   0  0  0  0  0  0  0  0  0  0  0  0
    0.2606   -0.4915   -1.3399 O   0  0  0  0  0  0  0  0  0  0  0  0
    0.2078    0.0483    0.0126 C   0  0  0  0  0  0  0  0  0  0  0  0
    0.8570    1.4230    0.0278 C   0  0  0  0  0  0  0  0  0  0  0  0
   -1.1673    0.0333    0.6216 C   0  0  0  0  0  0  0  0  0  0  0  0
   -2.3129   -0.6185   -0.0088 C   0  0  0  0  0  0  0  0  0  0  0  0
   -2.1887    0.8647   -0.1635 C   0  0  0  0  0  0  0  0  0  0  0  0
    2.8517   -0.2065   -1.0294 H   0  0  0  0  0  0  0  0  0  0  0  0
    2.8866   -0.8979    0.6881 H   0  0  0  0  0  0  0  0  0  0  0  0
    2.9247   -1.9595   -0.7823 H   0  0  0  0  0  0  0  0  0  0  0  0
    0.6078   -2.1151   -0.0707 H   0  0  0  0  0  0  0  0  0  0  0  0
    0.9431    1.7947    1.0734 H   0  0  0  0  0  0  0  0  0  0  0  0
    1.7963    1.4647   -0.5236 H   0  0  0  0  0  0  0  0  0  0  0  0
    0.1320    2.1114   -0.4699 H   0  0  0  0  0  0  0  0  0  0  0  0
   -1.1935    0.2086    1.7058 H   0  0  0  0  0  0  0  0  0  0  0  0
   -3.1324   -0.9736    0.6824 H   0  0  0  0  0  0  0  0  0  0  0  0
   -2.1546   -1.2936   -0.8814 H   0  0  0  0  0  0  0  0  0  0  0  0
   -1.9017    1.2214   -1.1737 H   0  0  0  0  0  0  0  0  0  0  0  0
   -2.8889    1.4951    0.4206 H   0  0  0  0  0  0  0  0  0  0  0  0
  1  2  1  0
  2  3  1  0
  3  4  1  0
  4  5  1  0
  4  6  1  0
  6  7  1  0
  7  8  1  0
  4  2  1  0
  8  6  1  0
  1  9  1  0
  1 10  1  0
  1 11  1  0
  2 12  1  0
  5 13  1  0
  5 14  1  0
  5 15  1  0
  6 16  1  0
  7 17  1  0
  7 18  1  0
  8 19  1  0
  8 20  1  0
M  END
