
     RDKit          3D

 17 18  0  0  0  0  0  0  0  0999 V2000
   -2.2455   -0.2042    0.2373 C   0  0  0  0  0  0  0  0  0  0  0  0
   -0.9092   -0.0338   -0.4080 C   0  0  0  0  0  0  0  0  0  0  0  0
   -0.2601   -1.1916   -0.8048 O   0  0  0  0  0  0  0  0  0  0  0  0
    0.7307   -1.0421    0.1504 C   0  0  0  0  0  0  0  0  0  0  0  0
    2.0809   -0.7592   -0.3586 C   0  0  0  0  0  0  0  0  0  0  0  0
    3.0683   -1.5252   -0.3368 O   0  0  0  0  0  0  0  0  0  0  0  0
    2.0902    0.5231   -0.8807 O   0  0  0  0  0  0  0  0  0  0  0  0
    1.1494    1.3100   -0.1638 C   0  0  0  0  0  0  0  0  0  0  0  0
    0.2296    0.3449    0.4888 C   0  0  0  0  0  0  0  0  0  0  0  0
   -2.1740   -0.5851    1.2542 H   0  0  0  0  0  0  0  0  0  0  0  0
   -2.7785    0.7734    0.1660 H   0  0  0  0  0  0  0  0  0  0  0  0
   -2.8685   -0.9154   -0.3782 H   0  0  0  0  0  0  0  0  0  0  0  0
   -1.0078    0.6498   -1.3021 H   0  0  0  0  0  0  0  0  0  0  0  0
    0.6533   -1.7711    0.9647 H   0  0  0  0  0  0  0  0  0  0  0  0
    0.6032    1.9203   -0.9126 H   0  0  0  0  0  0  0  0  0  0  0  0
    1.6452    2.0152    0.5276 H   0  0  0  0  0  0  0  0  0  0  0  0
   -0.0074    0.4911    1.5498 H   0  0  0  0  0  0  0  0  0  0  0  0
  1  2  1  0
  2  3  1  0
  3  4  1  0
  4  5  1  0
  5  6  2  0
  5  7  1  0
  7  8  1  0
  8  9  1  0
  9  2  1  0
  9  4  1  0
  1 10  1  0
  1 11  1  0
  1 12  1  0
  2 13  1  0
  4 14  1  0
  8 15  1  0
  8 16  1  0
  9 17  1  0
M  END
