
     RDKit          3D

 19 20  0  0  0  0  0  0  0  0999 V2000
   -1.9498    0.6128   -0.9747 C   0  0  0  0  0  0  0  0  0  0  0  0
   -1.0206    0.3605    0.1729 C   0  0  0  0  0  0  0  0  0  0  0  0
   -0.0868    1.3774    0.3595 O   0  0  0  0  0  0  0  0  0  0  0  0
    1.2084    0.8929    0.5065 C   0  0  0  0  0  0  0  0  0  0  0  0
    1.6828    0.1791   -0.7570 C   0  0  0  0  0  0  0  0  0  0  0  0
    0.7064   -0.7552   -1.0840 O   0  0  0  0  0  0  0  0  0  0  0  0
   -0.2096   -0.9190   -0.0527 C   0  0  0  0  0  0  0  0  0  0  0  0
    0.4930   -1.1668    1.2865 C   0  0  0  0  0  0  0  0  0  0  0  0
    1.2935   -0.0645    1.5333 O   0  0  0  0  0  0  0  0  0  0  0  0
   -1.5746    0.1713   -1.9253 H   0  0  0  0  0  0  0  0  0  0  0  0
   -2.9250    0.0937   -0.7801 H   0  0  0  0  0  0  0  0  0  0  0  0
   -2.2067    1.6875   -1.0705 H   0  0  0  0  0  0  0  0  0  0  0  0
   -1.5996    0.1975    1.1166 H   0  0  0  0  0  0  0  0  0  0  0  0
    1.8672    1.7245    0.7493 H   0  0  0  0  0  0  0  0  0  0  0  0
    2.6531   -0.2909   -0.5078 H   0  0  0  0  0  0  0  0  0  0  0  0
    1.8585    0.9292   -1.5379 H   0  0  0  0  0  0  0  0  0  0  0  0
   -0.8829   -1.7519   -0.3185 H   0  0  0  0  0  0  0  0  0  0  0  0
   -0.3351   -1.1608    2.0450 H   0  0  0  0  0  0  0  0  0  0  0  0
    1.0277   -2.1172    1.2389 H   0  0  0  0  0  0  0  0  0  0  0  0
  1  2  1  0
  2  3  1  0
  3  4  1  0
  4  5  1  0
  5  6  1  0
  6  7  1  0
  7  8  1  0
  8  9  1  0
  7  2  1  0
  9  4  1  0
  1 10  1  0
  1 11  1  0
  1 12  1  0
  2 13  1  0
  4 14  1  0
  5 15  1  0
  5 16  1  0
  7 17  1  0
  8 18  1  0
  8 19  1  0
M  END
