
     RDKit          3D

 17 18  0  0  0  0  0  0  0  0999 V2000
   -2.0359    0.5034    0.6950 C   0  0  0  0  0  0  0  0  0  0  0  0
   -0.9945    0.4983   -0.3803 C   0  0  0  0  0  0  0  0  0  0  0  0
    0.0503    1.3636   -0.0185 O   0  0  0  0  0  0  0  0  0  0  0  0
    0.9929    0.4020    0.2302 C   0  0  0  0  0  0  0  0  0  0  0  0
    2.3017    0.5665   -0.4120 C   0  0  0  0  0  0  0  0  0  0  0  0
    2.5091    1.5133   -1.1200 O   0  0  0  0  0  0  0  0  0  0  0  0
    0.6997   -0.8768    0.8995 C   0  0  0  0  0  0  0  0  0  0  0  0
   -0.0011   -0.6127   -0.3618 C   0  0  0  0  0  0  0  0  0  0  0  0
    0.4264   -1.1254   -1.5753 O   0  0  0  0  0  0  0  0  0  0  0  0
   -1.6370    0.5985    1.7165 H   0  0  0  0  0  0  0  0  0  0  0  0
   -2.7161   -0.3745    0.6535 H   0  0  0  0  0  0  0  0  0  0  0  0
   -2.6833    1.3937    0.5260 H   0  0  0  0  0  0  0  0  0  0  0  0
   -1.4293    0.6941   -1.3723 H   0  0  0  0  0  0  0  0  0  0  0  0
    3.0772   -0.1591   -0.2505 H   0  0  0  0  0  0  0  0  0  0  0  0
    0.0587   -0.9275    1.8126 H   0  0  0  0  0  0  0  0  0  0  0  0
    1.5092   -1.6232    0.8957 H   0  0  0  0  0  0  0  0  0  0  0  0
   -0.1279   -1.8342   -1.9381 H   0  0  0  0  0  0  0  0  0  0  0  0
  1  2  1  0
  2  3  1  0
  3  4  1  0
  4  5  1  0
  5  6  2  0
  4  7  1  0
  7  8  1  0
  8  9  1  0
  8  2  1  0
  8  4  1  0
  1 10  1  0
  1 11  1  0
  1 12  1  0
  2 13  1  0
  5 14  1  0
  7 15  1  0
  7 16  1  0
  9 17  1  0
M  END
