
     RDKit          3D

 23 24  0  0  0  0  0  0  0  0999 V2000
   -1.9604    1.4622    0.5647 C   0  0  0  0  0  0  0  0  0  0  0  0
   -0.6822    0.8481    0.1130 C   0  0  0  0  0  0  0  0  0  0  0  0
    0.3498    0.9337    1.0210 O   0  0  0  0  0  0  0  0  0  0  0  0
    1.3362    0.1298    0.4755 C   0  0  0  0  0  0  0  0  0  0  0  0
    2.5462    0.8040   -0.1384 C   0  0  0  0  0  0  0  0  0  0  0  0
    1.4892   -1.2890    0.9153 C   0  0  0  0  0  0  0  0  0  0  0  0
    0.6632   -0.9960   -0.2520 C   0  0  0  0  0  0  0  0  0  0  0  0
   -0.8156   -0.6770   -0.0006 C   0  0  0  0  0  0  0  0  0  0  0  0
   -1.6893   -1.0901   -1.1298 C   0  0  0  0  0  0  0  0  0  0  0  0
   -2.6612    1.4585   -0.3012 H   0  0  0  0  0  0  0  0  0  0  0  0
   -1.7613    2.5192    0.8340 H   0  0  0  0  0  0  0  0  0  0  0  0
   -2.3742    0.8614    1.3852 H   0  0  0  0  0  0  0  0  0  0  0  0
   -0.3031    1.2714   -0.8509 H   0  0  0  0  0  0  0  0  0  0  0  0
    2.3171    1.3024   -1.0958 H   0  0  0  0  0  0  0  0  0  0  0  0
    3.3984    0.1045   -0.1914 H   0  0  0  0  0  0  0  0  0  0  0  0
    2.8126    1.6413    0.5717 H   0  0  0  0  0  0  0  0  0  0  0  0
    2.4909   -1.7499    0.7146 H   0  0  0  0  0  0  0  0  0  0  0  0
    0.9422   -1.6456    1.8263 H   0  0  0  0  0  0  0  0  0  0  0  0
    0.9583   -1.2154   -1.2942 H   0  0  0  0  0  0  0  0  0  0  0  0
   -1.1177   -1.0395    0.9890 H   0  0  0  0  0  0  0  0  0  0  0  0
   -2.7011   -1.3389   -0.6918 H   0  0  0  0  0  0  0  0  0  0  0  0
   -1.3379   -2.0192   -1.6008 H   0  0  0  0  0  0  0  0  0  0  0  0
   -1.9002   -0.2760   -1.8634 H   0  0  0  0  0  0  0  0  0  0  0  0
  1  2  1  0
  2  3  1  0
  3  4  1  0
  4  5  1  0
  4  6  1  0
  6  7  1  0
  7  8  1  0
  8  9  1  0
  8  2  1  0
  7  4  1  0
  1 10  1  0
  1 11  1  0
  1 12  1  0
  2 13  1  0
  5 14  1  0
  5 15  1  0
  5 16  1  0
  6 17  1  0
  6 18  1  0
  7 19  1  0
  8 20  1  0
  9 21  1  0
  9 22  1  0
  9 23  1  0
M  END
