
     RDKit          3D

 21 22  0  0  0  0  0  0  0  0999 V2000
    3.4308   -0.0653    0.5285 C   0  0  0  0  0  0  0  0  0  0  0  0
    1.9646   -0.3453    0.4514 C   0  0  0  0  0  0  0  0  0  0  0  0
    1.6108   -1.5045   -0.4026 O   0  0  0  0  0  0  0  0  0  0  0  0
    1.1359   -0.1667   -0.6862 C   0  0  0  0  0  0  0  0  0  0  0  0
   -0.3499   -0.0113   -0.4735 C   0  0  0  0  0  0  0  0  0  0  0  0
   -1.0558    1.0397   -0.8328 C   0  0  0  0  0  0  0  0  0  0  0  0
   -2.4903    0.9273   -0.5037 C   0  0  0  0  0  0  0  0  0  0  0  0
   -2.5305   -0.2032    0.4945 C   0  0  0  0  0  0  0  0  0  0  0  0
   -1.2622   -0.9726    0.1553 C   0  0  0  0  0  0  0  0  0  0  0  0
    3.9702   -1.0406    0.5148 H   0  0  0  0  0  0  0  0  0  0  0  0
    3.7936    0.6244   -0.2554 H   0  0  0  0  0  0  0  0  0  0  0  0
    3.6426    0.4221    1.5029 H   0  0  0  0  0  0  0  0  0  0  0  0
    1.4675   -0.5376    1.4438 H   0  0  0  0  0  0  0  0  0  0  0  0
    1.5145    0.1457   -1.6699 H   0  0  0  0  0  0  0  0  0  0  0  0
   -0.6163    1.9068   -1.3261 H   0  0  0  0  0  0  0  0  0  0  0  0
   -3.1371    0.7617   -1.3814 H   0  0  0  0  0  0  0  0  0  0  0  0
   -2.7782    1.9065   -0.0193 H   0  0  0  0  0  0  0  0  0  0  0  0
   -2.5123    0.2101    1.5156 H   0  0  0  0  0  0  0  0  0  0  0  0
   -3.4088   -0.8363    0.3021 H   0  0  0  0  0  0  0  0  0  0  0  0
   -0.8809   -1.3661    1.1293 H   0  0  0  0  0  0  0  0  0  0  0  0
   -1.5082   -1.8345   -0.4876 H   0  0  0  0  0  0  0  0  0  0  0  0
  1  2  1  0
  2  3  1  0
  3  4  1  0
  4  5  1  0
  5  6  2  0
  6  7  1  0
  7  8  1  0
  8  9  1  0
  4  2  1  0
  9  5  1  0
  1 10  1  0
  1 11  1  0
  1 12  1  0
  2 13  1  0
  4 14  1  0
  6 15  1  0
  7 16  1  0
  7 17  1  0
  8 18  1  0
  8 19  1  0
  9 20  1  0
  9 21  1  0
M  END
