
     RDKit          3D

 21 21  0  0  0  0  0  0  0  0999 V2000
   -1.2846   -1.3007    0.2021 C   0  0  0  0  0  0  0  0  0  0  0  0
   -0.3444   -0.6743   -0.7728 C   0  0  0  0  0  0  0  0  0  0  0  0
   -0.9749    0.3373   -1.4672 O   0  0  0  0  0  0  0  0  0  0  0  0
   -1.3344    1.4239   -0.7252 C   0  0  0  0  0  0  0  0  0  0  0  0
   -0.6952    1.5445    0.5879 C   0  0  0  0  0  0  0  0  0  0  0  0
    0.3802    0.8440    0.9324 C   0  0  0  0  0  0  0  0  0  0  0  0
    0.8859   -0.0774   -0.1272 C   0  0  0  0  0  0  0  0  0  0  0  0
    1.8360   -1.1069    0.3961 C   0  0  0  0  0  0  0  0  0  0  0  0
    1.5172    0.7138   -1.0870 O   0  0  0  0  0  0  0  0  0  0  0  0
   -1.0098   -2.3408    0.4664 H   0  0  0  0  0  0  0  0  0  0  0  0
   -1.4089   -0.7497    1.1359 H   0  0  0  0  0  0  0  0  0  0  0  0
   -2.2876   -1.3668   -0.2860 H   0  0  0  0  0  0  0  0  0  0  0  0
   -0.0736   -1.4583   -1.5231 H   0  0  0  0  0  0  0  0  0  0  0  0
   -1.0462    2.3411   -1.3152 H   0  0  0  0  0  0  0  0  0  0  0  0
   -2.4329    1.4762   -0.5933 H   0  0  0  0  0  0  0  0  0  0  0  0
   -1.1147    2.2325    1.3093 H   0  0  0  0  0  0  0  0  0  0  0  0
    0.8509    0.9349    1.9036 H   0  0  0  0  0  0  0  0  0  0  0  0
    2.4184   -0.6414    1.2231 H   0  0  0  0  0  0  0  0  0  0  0  0
    1.3321   -2.0188    0.7695 H   0  0  0  0  0  0  0  0  0  0  0  0
    2.5656   -1.3307   -0.4176 H   0  0  0  0  0  0  0  0  0  0  0  0
    2.2212    1.2176   -0.6116 H   0  0  0  0  0  0  0  0  0  0  0  0
  1  2  1  0
  2  3  1  0
  3  4  1  0
  4  5  1  0
  5  6  2  0
  6  7  1  0
  7  8  1  0
  7  9  1  0
  7  2  1  0
  1 10  1  0
  1 11  1  0
  1 12  1  0
  2 13  1  0
  4 14  1  0
  4 15  1  0
  5 16  1  0
  6 17  1  0
  8 18  1  0
  8 19  1  0
  8 20  1  0
  9 21  1  0
M  END
