
     RDKit          3D

 21 21  0  0  0  0  0  0  0  0999 V2000
    2.0683    1.0498   -0.5962 C   0  0  0  0  0  0  0  0  0  0  0  0
    2.3139    0.0543    0.4780 C   0  0  0  0  0  0  0  0  0  0  0  0
    1.6138    0.4223    1.7064 O   0  0  0  0  0  0  0  0  0  0  0  0
    1.3011   -0.7970    1.0618 C   0  0  0  0  0  0  0  0  0  0  0  0
   -0.1027   -0.9629    0.6022 C   0  0  0  0  0  0  0  0  0  0  0  0
   -0.9046    0.3165    0.6253 C   0  0  0  0  0  0  0  0  0  0  0  0
   -2.3194    0.0894    0.1315 C   0  0  0  0  0  0  0  0  0  0  0  0
   -2.3968   -0.4024   -1.2482 C   0  0  0  0  0  0  0  0  0  0  0  0
   -1.8218    0.2464   -2.1406 O   0  0  0  0  0  0  0  0  0  0  0  0
    1.3836    0.6821   -1.3800 H   0  0  0  0  0  0  0  0  0  0  0  0
    3.0415    1.2492   -1.1419 H   0  0  0  0  0  0  0  0  0  0  0  0
    1.7686    2.0288   -0.1843 H   0  0  0  0  0  0  0  0  0  0  0  0
    3.3737   -0.1701    0.7173 H   0  0  0  0  0  0  0  0  0  0  0  0
    1.6680   -1.6597    1.6914 H   0  0  0  0  0  0  0  0  0  0  0  0
   -0.6681   -1.6512    1.2993 H   0  0  0  0  0  0  0  0  0  0  0  0
   -0.1887   -1.4683   -0.3852 H   0  0  0  0  0  0  0  0  0  0  0  0
   -0.4503    1.0998    0.0461 H   0  0  0  0  0  0  0  0  0  0  0  0
   -1.0190    0.5963    1.7191 H   0  0  0  0  0  0  0  0  0  0  0  0
   -2.7896    1.1123    0.1371 H   0  0  0  0  0  0  0  0  0  0  0  0
   -2.9290   -0.5263    0.7896 H   0  0  0  0  0  0  0  0  0  0  0  0
   -2.9427   -1.3094   -1.4742 H   0  0  0  0  0  0  0  0  0  0  0  0
  1  2  1  0
  2  3  1  0
  3  4  1  0
  4  5  1  0
  5  6  1  0
  6  7  1  0
  7  8  1  0
  8  9  2  0
  4  2  1  0
  1 10  1  0
  1 11  1  0
  1 12  1  0
  2 13  1  0
  4 14  1  0
  5 15  1  0
  5 16  1  0
  6 17  1  0
  6 18  1  0
  7 19  1  0
  7 20  1  0
  8 21  1  0
M  END
