
     RDKit          3D

 17 19  0  0  0  0  0  0  0  0999 V2000
    2.4330   -0.0549   -0.3725 C   0  0  0  0  0  0  0  0  0  0  0  0
    1.1262   -0.7529   -0.0580 C   0  0  0  0  0  0  0  0  0  0  0  0
    0.9279   -0.6597    1.4354 O   0  0  0  0  0  0  0  0  0  0  0  0
    0.0889   -0.1505    0.5032 C   0  0  0  0  0  0  0  0  0  0  0  0
   -0.4022    1.2513    0.5233 C   0  0  0  0  0  0  0  0  0  0  0  0
   -0.2752    2.3276    1.0196 O   0  0  0  0  0  0  0  0  0  0  0  0
   -1.3045    0.6815   -0.5358 C   0  0  0  0  0  0  0  0  0  0  0  0
   -2.4079   -0.1911   -0.3842 C   0  0  0  0  0  0  0  0  0  0  0  0
   -1.3847   -0.4380    0.5897 C   0  0  0  0  0  0  0  0  0  0  0  0
    2.5463    0.1034   -1.4456 H   0  0  0  0  0  0  0  0  0  0  0  0
    3.2544   -0.7690   -0.0718 H   0  0  0  0  0  0  0  0  0  0  0  0
    2.5690    0.8566    0.2308 H   0  0  0  0  0  0  0  0  0  0  0  0
    1.1395   -1.8237   -0.3887 H   0  0  0  0  0  0  0  0  0  0  0  0
   -0.6074    0.4025   -1.3922 H   0  0  0  0  0  0  0  0  0  0  0  0
   -3.4081    0.2851   -0.1443 H   0  0  0  0  0  0  0  0  0  0  0  0
   -2.5955   -1.0317   -1.1180 H   0  0  0  0  0  0  0  0  0  0  0  0
   -1.6998   -0.0367    1.6091 H   0  0  0  0  0  0  0  0  0  0  0  0
  1  2  1  0
  2  3  1  0
  3  4  1  0
  4  5  1  0
  5  6  2  0
  5  7  1  0
  7  8  1  0
  8  9  1  0
  4  2  1  0
  9  7  1  0
  9  4  1  0
  1 10  1  0
  1 11  1  0
  1 12  1  0
  2 13  1  0
  7 14  1  0
  8 15  1  0
  8 16  1  0
  9 17  1  0
M  END
