
     RDKit          3D

 21 23  0  0  0  0  0  0  0  0999 V2000
    2.4892    0.6646    0.5692 C   0  0  0  0  0  0  0  0  0  0  0  0
    1.0250    0.6375    0.9496 C   0  0  0  0  0  0  0  0  0  0  0  0
    0.7090   -0.6190    1.5331 O   0  0  0  0  0  0  0  0  0  0  0  0
   -0.1326   -1.2137    0.6163 C   0  0  0  0  0  0  0  0  0  0  0  0
    0.6175   -0.9260   -0.7018 C   0  0  0  0  0  0  0  0  0  0  0  0
    0.2137    0.5123   -0.3222 C   0  0  0  0  0  0  0  0  0  0  0  0
   -1.0300   -0.1196    0.1646 C   0  0  0  0  0  0  0  0  0  0  0  0
   -2.1351    0.4646    0.8263 C   0  0  0  0  0  0  0  0  0  0  0  0
   -2.2732   -0.2609   -0.5438 C   0  0  0  0  0  0  0  0  0  0  0  0
    2.9483   -0.3185    0.8215 H   0  0  0  0  0  0  0  0  0  0  0  0
    2.6131    0.7784   -0.5305 H   0  0  0  0  0  0  0  0  0  0  0  0
    3.0242    1.4969    1.0424 H   0  0  0  0  0  0  0  0  0  0  0  0
    0.7192    1.4713    1.5866 H   0  0  0  0  0  0  0  0  0  0  0  0
   -0.4816   -2.2009    0.7632 H   0  0  0  0  0  0  0  0  0  0  0  0
    0.0619   -1.2261   -1.5998 H   0  0  0  0  0  0  0  0  0  0  0  0
    1.6871   -1.1220   -0.6623 H   0  0  0  0  0  0  0  0  0  0  0  0
    0.2495    1.2512   -1.0627 H   0  0  0  0  0  0  0  0  0  0  0  0
   -2.3174    1.5460    0.7895 H   0  0  0  0  0  0  0  0  0  0  0  0
   -2.6832   -0.0361    1.6688 H   0  0  0  0  0  0  0  0  0  0  0  0
   -2.8597   -1.1841   -0.5618 H   0  0  0  0  0  0  0  0  0  0  0  0
   -2.4447    0.4040   -1.4252 H   0  0  0  0  0  0  0  0  0  0  0  0
  1  2  1  0
  2  3  1  0
  3  4  1  0
  4  5  1  0
  5  6  1  0
  6  7  1  0
  7  8  1  0
  8  9  1  0
  6  2  1  0
  9  7  1  0
  7  4  1  0
  1 10  1  0
  1 11  1  0
  1 12  1  0
  2 13  1  0
  4 14  1  0
  5 15  1  0
  5 16  1  0
  6 17  1  0
  8 18  1  0
  8 19  1  0
  9 20  1  0
  9 21  1  0
M  END
