
     RDKit          3D

 19 21  0  0  0  0  0  0  0  0999 V2000
    2.7093   -0.6252   -0.3559 C   0  0  0  0  0  0  0  0  0  0  0  0
    1.5681    0.3501   -0.4758 C   0  0  0  0  0  0  0  0  0  0  0  0
    1.1109    0.8168    0.8716 O   0  0  0  0  0  0  0  0  0  0  0  0
    0.2782    0.1001    0.0140 C   0  0  0  0  0  0  0  0  0  0  0  0
   -0.2855   -1.1739    0.4678 C   0  0  0  0  0  0  0  0  0  0  0  0
   -1.6098   -1.2104    0.3704 C   0  0  0  0  0  0  0  0  0  0  0  0
   -2.1209    0.0773   -0.1795 C   0  0  0  0  0  0  0  0  0  0  0  0
   -1.8386    1.3546    0.5923 C   0  0  0  0  0  0  0  0  0  0  0  0
   -0.9233    0.8831   -0.4643 C   0  0  0  0  0  0  0  0  0  0  0  0
    3.4786   -0.4532   -1.1521 H   0  0  0  0  0  0  0  0  0  0  0  0
    2.4010   -1.6768   -0.3626 H   0  0  0  0  0  0  0  0  0  0  0  0
    3.2676   -0.4622    0.6114 H   0  0  0  0  0  0  0  0  0  0  0  0
    1.7650    1.2015   -1.1596 H   0  0  0  0  0  0  0  0  0  0  0  0
    0.2942   -2.0086    0.8451 H   0  0  0  0  0  0  0  0  0  0  0  0
   -2.2720   -2.0284    0.6365 H   0  0  0  0  0  0  0  0  0  0  0  0
   -2.9109    0.0650   -0.9336 H   0  0  0  0  0  0  0  0  0  0  0  0
   -1.5129    1.2435    1.6625 H   0  0  0  0  0  0  0  0  0  0  0  0
   -2.5828    2.1390    0.4421 H   0  0  0  0  0  0  0  0  0  0  0  0
   -0.8159    1.4078   -1.4302 H   0  0  0  0  0  0  0  0  0  0  0  0
  1  2  1  0
  2  3  1  0
  3  4  1  0
  4  5  1  0
  5  6  2  0
  6  7  1  0
  7  8  1  0
  8  9  1  0
  4  2  1  0
  9  7  1  0
  9  4  1  0
  1 10  1  0
  1 11  1  0
  1 12  1  0
  2 13  1  0
  5 14  1  0
  6 15  1  0
  7 16  1  0
  8 17  1  0
  8 18  1  0
  9 19  1  0
M  END
