
     RDKit          3D

 18 19  0  0  0  0  0  0  0  0999 V2000
    2.4874    0.6664   -0.2060 C   0  0  0  0  0  0  0  0  0  0  0  0
    1.8032   -0.6100   -0.5320 C   0  0  0  0  0  0  0  0  0  0  0  0
    1.1977   -0.4557   -1.8991 O   0  0  0  0  0  0  0  0  0  0  0  0
    0.3976   -0.7658   -0.7835 C   0  0  0  0  0  0  0  0  0  0  0  0
   -0.6150    0.2577   -0.3308 C   0  0  0  0  0  0  0  0  0  0  0  0
   -1.6742   -0.3001    0.5722 C   0  0  0  0  0  0  0  0  0  0  0  0
   -2.5992    0.2549   -0.4636 C   0  0  0  0  0  0  0  0  0  0  0  0
   -1.5443    0.5496   -1.3244 O   0  0  0  0  0  0  0  0  0  0  0  0
    2.7082    0.8283    0.8539 H   0  0  0  0  0  0  0  0  0  0  0  0
    3.4775    0.6694   -0.7487 H   0  0  0  0  0  0  0  0  0  0  0  0
    1.9546    1.5691   -0.5692 H   0  0  0  0  0  0  0  0  0  0  0  0
    2.4385   -1.5188   -0.4776 H   0  0  0  0  0  0  0  0  0  0  0  0
   -0.0145   -1.7922   -0.8355 H   0  0  0  0  0  0  0  0  0  0  0  0
   -0.1395    1.1563    0.0727 H   0  0  0  0  0  0  0  0  0  0  0  0
   -1.6667   -1.4086    0.6415 H   0  0  0  0  0  0  0  0  0  0  0  0
   -1.7576    0.1626    1.5729 H   0  0  0  0  0  0  0  0  0  0  0  0
   -3.3549   -0.4442   -0.8694 H   0  0  0  0  0  0  0  0  0  0  0  0
   -3.0988    1.1810   -0.1379 H   0  0  0  0  0  0  0  0  0  0  0  0
  1  2  1  0
  2  3  1  0
  3  4  1  0
  4  5  1  0
  5  6  1  0
  6  7  1  0
  7  8  1  0
  4  2  1  0
  8  5  1  0
  1  9  1  0
  1 10  1  0
  1 11  1  0
  2 12  1  0
  4 13  1  0
  5 14  1  0
  6 15  1  0
  6 16  1  0
  7 17  1  0
  7 18  1  0
M  END
