
     RDKit          3D

 19 20  0  0  0  0  0  0  0  0999 V2000
    2.1516   -0.0116    0.3692 C   0  0  0  0  0  0  0  0  0  0  0  0
    0.8837   -0.4219   -0.2951 C   0  0  0  0  0  0  0  0  0  0  0  0
    0.1927   -1.4130    0.4020 O   0  0  0  0  0  0  0  0  0  0  0  0
   -1.1703   -1.0366    0.3305 C   0  0  0  0  0  0  0  0  0  0  0  0
   -1.6020   -0.9441   -0.9757 O   0  0  0  0  0  0  0  0  0  0  0  0
   -1.0659    0.1892   -1.5572 C   0  0  0  0  0  0  0  0  0  0  0  0
   -0.0958    0.6969   -0.5035 C   0  0  0  0  0  0  0  0  0  0  0  0
   -0.9979    0.4491    0.7198 C   0  0  0  0  0  0  0  0  0  0  0  0
   -0.2889    0.5941    1.8801 O   0  0  0  0  0  0  0  0  0  0  0  0
    1.9752    0.5447    1.3031 H   0  0  0  0  0  0  0  0  0  0  0  0
    2.6929    0.6701   -0.3139 H   0  0  0  0  0  0  0  0  0  0  0  0
    2.7821   -0.9012    0.4994 H   0  0  0  0  0  0  0  0  0  0  0  0
    1.1249   -0.8654   -1.2937 H   0  0  0  0  0  0  0  0  0  0  0  0
   -1.8014   -1.5738    1.0082 H   0  0  0  0  0  0  0  0  0  0  0  0
   -1.7921    0.9548   -1.8287 H   0  0  0  0  0  0  0  0  0  0  0  0
   -0.4166   -0.1323   -2.4226 H   0  0  0  0  0  0  0  0  0  0  0  0
    0.2661    1.6800   -0.6103 H   0  0  0  0  0  0  0  0  0  0  0  0
   -1.9322    0.9966    0.6516 H   0  0  0  0  0  0  0  0  0  0  0  0
   -0.9059    0.5241    2.6368 H   0  0  0  0  0  0  0  0  0  0  0  0
  1  2  1  0
  2  3  1  0
  3  4  1  0
  4  5  1  0
  5  6  1  0
  6  7  1  0
  7  8  1  0
  8  9  1  0
  7  2  1  0
  8  4  1  0
  1 10  1  0
  1 11  1  0
  1 12  1  0
  2 13  1  0
  4 14  1  0
  6 15  1  0
  6 16  1  0
  7 17  1  0
  8 18  1  0
  9 19  1  0
M  END
