
     RDKit          3D

 17 17  0  0  0  0  0  0  0  0999 V2000
   -2.2184   -0.3810   -0.3483 C   0  0  0  0  0  0  0  0  0  0  0  0
   -1.0848    0.0026    0.5557 C   0  0  0  0  0  0  0  0  0  0  0  0
   -0.0438   -0.8668    0.4084 O   0  0  0  0  0  0  0  0  0  0  0  0
    0.9478   -0.2826   -0.3430 C   0  0  0  0  0  0  0  0  0  0  0  0
    2.2829   -0.6996    0.2658 C   0  0  0  0  0  0  0  0  0  0  0  0
    0.7451    1.1666   -0.3146 C   0  0  0  0  0  0  0  0  0  0  0  0
    1.5292    2.0504   -0.6889 O   0  0  0  0  0  0  0  0  0  0  0  0
   -0.5812    1.3670    0.2496 C   0  0  0  0  0  0  0  0  0  0  0  0
   -1.2196    2.4184    0.4602 O   0  0  0  0  0  0  0  0  0  0  0  0
   -2.9935    0.4229   -0.3354 H   0  0  0  0  0  0  0  0  0  0  0  0
   -1.8340   -0.5725   -1.3703 H   0  0  0  0  0  0  0  0  0  0  0  0
   -2.6366   -1.3476    0.0196 H   0  0  0  0  0  0  0  0  0  0  0  0
   -1.4555   -0.0649    1.6098 H   0  0  0  0  0  0  0  0  0  0  0  0
    0.8583   -0.6886   -1.3905 H   0  0  0  0  0  0  0  0  0  0  0  0
    3.1337   -0.2841   -0.2999 H   0  0  0  0  0  0  0  0  0  0  0  0
    2.2946   -1.8158    0.1982 H   0  0  0  0  0  0  0  0  0  0  0  0
    2.2760   -0.4244    1.3236 H   0  0  0  0  0  0  0  0  0  0  0  0
  1  2  1  0
  2  3  1  0
  3  4  1  0
  4  5  1  0
  4  6  1  0
  6  7  2  0
  6  8  1  0
  8  9  2  0
  8  2  1  0
  1 10  1  0
  1 11  1  0
  1 12  1  0
  2 13  1  0
  4 14  1  0
  5 15  1  0
  5 16  1  0
  5 17  1  0
M  END
