
     RDKit          3D

 21 22  0  0  0  0  0  0  0  0999 V2000
   -1.5351   -1.0052    0.9640 C   0  0  0  0  0  0  0  0  0  0  0  0
   -1.1945   -0.3212   -0.2873 C   0  0  0  0  0  0  0  0  0  0  0  0
   -1.7571    0.9485   -0.4377 O   0  0  0  0  0  0  0  0  0  0  0  0
   -0.8932    1.6713   -1.2583 C   0  0  0  0  0  0  0  0  0  0  0  0
    0.1109    0.7916   -1.6670 O   0  0  0  0  0  0  0  0  0  0  0  0
    0.2428    0.0035   -0.5048 C   0  0  0  0  0  0  0  0  0  0  0  0
    1.2650   -1.0218   -0.4848 C   0  0  0  0  0  0  0  0  0  0  0  0
    1.8447   -0.3989    0.7927 C   0  0  0  0  0  0  0  0  0  0  0  0
    0.9366    0.7814    0.5558 C   0  0  0  0  0  0  0  0  0  0  0  0
   -2.2317   -0.4050    1.6148 H   0  0  0  0  0  0  0  0  0  0  0  0
   -0.7194   -1.3285    1.6043 H   0  0  0  0  0  0  0  0  0  0  0  0
   -2.1316   -1.9318    0.7202 H   0  0  0  0  0  0  0  0  0  0  0  0
   -1.5431   -0.8940   -1.1936 H   0  0  0  0  0  0  0  0  0  0  0  0
   -0.3870    2.4455   -0.6372 H   0  0  0  0  0  0  0  0  0  0  0  0
   -1.4547    2.1055   -2.0959 H   0  0  0  0  0  0  0  0  0  0  0  0
    1.0106   -2.0803   -0.3387 H   0  0  0  0  0  0  0  0  0  0  0  0
    2.0104   -0.9166   -1.3028 H   0  0  0  0  0  0  0  0  0  0  0  0
    1.6529   -0.9777    1.7068 H   0  0  0  0  0  0  0  0  0  0  0  0
    2.9307   -0.1775    0.7241 H   0  0  0  0  0  0  0  0  0  0  0  0
    0.2882    1.0781    1.3786 H   0  0  0  0  0  0  0  0  0  0  0  0
    1.5548    1.6332    0.1468 H   0  0  0  0  0  0  0  0  0  0  0  0
  1  2  1  0
  2  3  1  0
  3  4  1  0
  4  5  1  0
  5  6  1  0
  6  7  1  0
  7  8  1  0
  8  9  1  0
  6  2  1  0
  9  6  1  0
  1 10  1  0
  1 11  1  0
  1 12  1  0
  2 13  1  0
  4 14  1  0
  4 15  1  0
  7 16  1  0
  7 17  1  0
  8 18  1  0
  8 19  1  0
  9 20  1  0
  9 21  1  0
M  END
