
     RDKit          3D

 21 22  0  0  0  0  0  0  0  0999 V2000
   -2.4169    1.2205   -0.1174 C   0  0  0  0  0  0  0  0  0  0  0  0
   -1.3755    0.3316   -0.7989 C   0  0  0  0  0  0  0  0  0  0  0  0
   -0.2508    1.0620   -1.0694 O   0  0  0  0  0  0  0  0  0  0  0  0
    0.4690    0.4296   -0.0336 C   0  0  0  0  0  0  0  0  0  0  0  0
    1.7790   -0.0599   -0.5737 C   0  0  0  0  0  0  0  0  0  0  0  0
    2.9883    0.6317    0.0174 C   0  0  0  0  0  0  0  0  0  0  0  0
    2.6822   -0.7163    0.2244 O   0  0  0  0  0  0  0  0  0  0  0  0
   -0.6190   -0.5716    0.1291 C   0  0  0  0  0  0  0  0  0  0  0  0
   -0.3700   -1.9592   -0.3423 C   0  0  0  0  0  0  0  0  0  0  0  0
   -2.2472    2.2917   -0.3909 H   0  0  0  0  0  0  0  0  0  0  0  0
   -3.4430    0.9598   -0.4481 H   0  0  0  0  0  0  0  0  0  0  0  0
   -2.2981    1.1829    0.9904 H   0  0  0  0  0  0  0  0  0  0  0  0
   -1.8093   -0.1381   -1.7022 H   0  0  0  0  0  0  0  0  0  0  0  0
    0.5419    1.1354    0.8201 H   0  0  0  0  0  0  0  0  0  0  0  0
    1.8399   -0.2877   -1.6552 H   0  0  0  0  0  0  0  0  0  0  0  0
    2.8525    1.2480    0.9359 H   0  0  0  0  0  0  0  0  0  0  0  0
    3.8266    0.9017   -0.6561 H   0  0  0  0  0  0  0  0  0  0  0  0
   -1.0972   -0.5846    1.1396 H   0  0  0  0  0  0  0  0  0  0  0  0
    0.5707   -2.1061   -0.8952 H   0  0  0  0  0  0  0  0  0  0  0  0
   -1.2188   -2.2702   -1.0145 H   0  0  0  0  0  0  0  0  0  0  0  0
   -0.4044   -2.7013    0.5036 H   0  0  0  0  0  0  0  0  0  0  0  0
  1  2  1  0
  2  3  1  0
  3  4  1  0
  4  5  1  0
  5  6  1  0
  6  7  1  0
  4  8  1  0
  8  9  1  0
  8  2  1  0
  7  5  1  0
  1 10  1  0
  1 11  1  0
  1 12  1  0
  2 13  1  0
  4 14  1  0
  5 15  1  0
  6 16  1  0
  6 17  1  0
  8 18  1  0
  9 19  1  0
  9 20  1  0
  9 21  1  0
M  END
