
     RDKit          3D

 19 20  0  0  0  0  0  0  0  0999 V2000
    2.1650   -0.5877   -0.1796 C   0  0  0  0  0  0  0  0  0  0  0  0
    0.9946    0.3374   -0.1520 C   0  0  0  0  0  0  0  0  0  0  0  0
    0.2795    0.3406   -1.3657 O   0  0  0  0  0  0  0  0  0  0  0  0
   -1.0536    0.3229   -1.0010 C   0  0  0  0  0  0  0  0  0  0  0  0
   -1.3372    1.4930   -0.0992 C   0  0  0  0  0  0  0  0  0  0  0  0
   -0.8222    1.2548    1.1184 C   0  0  0  0  0  0  0  0  0  0  0  0
   -0.0091    0.0149    0.9267 C   0  0  0  0  0  0  0  0  0  0  0  0
   -1.0232   -0.7770    0.0778 C   0  0  0  0  0  0  0  0  0  0  0  0
   -0.5186   -1.9503   -0.3831 O   0  0  0  0  0  0  0  0  0  0  0  0
    3.0839    0.0477   -0.3134 H   0  0  0  0  0  0  0  0  0  0  0  0
    2.1177   -1.2185   -1.0899 H   0  0  0  0  0  0  0  0  0  0  0  0
    2.3072   -1.1712    0.7402 H   0  0  0  0  0  0  0  0  0  0  0  0
    1.3119    1.4124   -0.0132 H   0  0  0  0  0  0  0  0  0  0  0  0
   -1.7641    0.1576   -1.7709 H   0  0  0  0  0  0  0  0  0  0  0  0
   -1.8650    2.4095   -0.3293 H   0  0  0  0  0  0  0  0  0  0  0  0
   -0.9232    1.7748    2.0380 H   0  0  0  0  0  0  0  0  0  0  0  0
    0.3325   -0.4761    1.7922 H   0  0  0  0  0  0  0  0  0  0  0  0
   -2.0040   -0.8049    0.5411 H   0  0  0  0  0  0  0  0  0  0  0  0
   -1.2723   -2.5800   -0.5371 H   0  0  0  0  0  0  0  0  0  0  0  0
  1  2  1  0
  2  3  1  0
  3  4  1  0
  4  5  1  0
  5  6  2  0
  6  7  1  0
  7  8  1  0
  8  9  1  0
  7  2  1  0
  8  4  1  0
  1 10  1  0
  1 11  1  0
  1 12  1  0
  2 13  1  0
  4 14  1  0
  5 15  1  0
  6 16  1  0
  7 17  1  0
  8 18  1  0
  9 19  1  0
M  END
