
     RDKit          3D

 21 22  0  0  0  0  0  0  0  0999 V2000
    2.9018    0.3659    0.1415 C   0  0  0  0  0  0  0  0  0  0  0  0
    1.7384   -0.5719   -0.1519 C   0  0  0  0  0  0  0  0  0  0  0  0
    1.0754   -0.3018   -1.4228 O   0  0  0  0  0  0  0  0  0  0  0  0
    0.3943   -0.2623   -0.1265 C   0  0  0  0  0  0  0  0  0  0  0  0
   -0.6319   -1.3711    0.0700 C   0  0  0  0  0  0  0  0  0  0  0  0
   -1.9643   -0.7048    0.1759 C   0  0  0  0  0  0  0  0  0  0  0  0
   -1.6026    0.6035    0.8671 C   0  0  0  0  0  0  0  0  0  0  0  0
   -2.5989    1.5421    0.7452 O   0  0  0  0  0  0  0  0  0  0  0  0
   -0.3427    0.9877    0.0854 C   0  0  0  0  0  0  0  0  0  0  0  0
    3.6082    0.4057   -0.7375 H   0  0  0  0  0  0  0  0  0  0  0  0
    2.5791    1.3656    0.4417 H   0  0  0  0  0  0  0  0  0  0  0  0
    3.4892   -0.1080    0.9543 H   0  0  0  0  0  0  0  0  0  0  0  0
    2.0569   -1.6376   -0.1544 H   0  0  0  0  0  0  0  0  0  0  0  0
   -0.5603   -2.1373   -0.7111 H   0  0  0  0  0  0  0  0  0  0  0  0
   -0.3989   -1.7939    1.0906 H   0  0  0  0  0  0  0  0  0  0  0  0
   -2.6848   -1.2636    0.7959 H   0  0  0  0  0  0  0  0  0  0  0  0
   -2.3401   -0.4752   -0.8351 H   0  0  0  0  0  0  0  0  0  0  0  0
   -1.3506    0.4340    1.9174 H   0  0  0  0  0  0  0  0  0  0  0  0
   -2.8251    1.7247   -0.1930 H   0  0  0  0  0  0  0  0  0  0  0  0
    0.1979    1.8046    0.5643 H   0  0  0  0  0  0  0  0  0  0  0  0
   -0.7410    1.3938   -0.8857 H   0  0  0  0  0  0  0  0  0  0  0  0
  1  2  1  0
  2  3  1  0
  3  4  1  0
  4  5  1  0
  5  6  1  0
  6  7  1  0
  7  8  1  0
  7  9  1  0
  4  2  1  0
  9  4  1  0
  1 10  1  0
  1 11  1  0
  1 12  1  0
  2 13  1  0
  5 14  1  0
  5 15  1  0
  6 16  1  0
  6 17  1  0
  7 18  1  0
  8 19  1  0
  9 20  1  0
  9 21  1  0
M  END
