
     RDKit          3D

 21 23  0  0  0  0  0  0  0  0999 V2000
    3.1002   -0.0347    0.5330 C   0  0  0  0  0  0  0  0  0  0  0  0
    1.9393   -0.8337   -0.0049 C   0  0  0  0  0  0  0  0  0  0  0  0
    1.3255   -0.2547   -1.2243 O   0  0  0  0  0  0  0  0  0  0  0  0
    0.6583   -0.3984   -0.0075 C   0  0  0  0  0  0  0  0  0  0  0  0
   -0.0123    0.8190    0.4893 C   0  0  0  0  0  0  0  0  0  0  0  0
   -1.3274    0.1626    0.2099 C   0  0  0  0  0  0  0  0  0  0  0  0
   -2.3723    0.6963   -0.6217 C   0  0  0  0  0  0  0  0  0  0  0  0
   -2.5551    0.4190    0.9077 C   0  0  0  0  0  0  0  0  0  0  0  0
   -0.6449   -1.1381    0.0501 C   0  0  0  0  0  0  0  0  0  0  0  0
    3.9754   -0.6739    0.7915 H   0  0  0  0  0  0  0  0  0  0  0  0
    2.7508    0.5421    1.4098 H   0  0  0  0  0  0  0  0  0  0  0  0
    3.4641    0.6473   -0.2848 H   0  0  0  0  0  0  0  0  0  0  0  0
    2.2120   -1.8842   -0.2324 H   0  0  0  0  0  0  0  0  0  0  0  0
    0.1110    1.7495   -0.1041 H   0  0  0  0  0  0  0  0  0  0  0  0
    0.1624    1.0772    1.5698 H   0  0  0  0  0  0  0  0  0  0  0  0
   -2.9154   -0.0104   -1.2971 H   0  0  0  0  0  0  0  0  0  0  0  0
   -2.3887    1.7440   -0.9325 H   0  0  0  0  0  0  0  0  0  0  0  0
   -2.7030    1.3431    1.5017 H   0  0  0  0  0  0  0  0  0  0  0  0
   -3.2442   -0.4456    1.1367 H   0  0  0  0  0  0  0  0  0  0  0  0
   -0.8081   -1.6965   -0.8966 H   0  0  0  0  0  0  0  0  0  0  0  0
   -0.7277   -1.8300    0.9267 H   0  0  0  0  0  0  0  0  0  0  0  0
  1  2  1  0
  2  3  1  0
  3  4  1  0
  4  5  1  0
  5  6  1  0
  6  7  1  0
  7  8  1  0
  6  9  1  0
  4  2  1  0
  8  6  1  0
  9  4  1  0
  1 10  1  0
  1 11  1  0
  1 12  1  0
  2 13  1  0
  5 14  1  0
  5 15  1  0
  7 16  1  0
  7 17  1  0
  8 18  1  0
  8 19  1  0
  9 20  1  0
  9 21  1  0
M  END
