
     RDKit          3D

 23 23  0  0  0  0  0  0  0  0999 V2000
   -2.4349    1.2843   -1.1432 C   0  0  0  0  0  0  0  0  0  0  0  0
   -1.8582    0.3676   -0.0960 C   0  0  0  0  0  0  0  0  0  0  0  0
   -2.4974   -0.8610   -0.1457 O   0  0  0  0  0  0  0  0  0  0  0  0
   -1.2944   -1.5105   -0.3292 C   0  0  0  0  0  0  0  0  0  0  0  0
   -0.5189   -0.2127   -0.3845 C   0  0  0  0  0  0  0  0  0  0  0  0
    0.4765   -0.0368    0.7494 C   0  0  0  0  0  0  0  0  0  0  0  0
    1.8136   -0.6281    0.4350 C   0  0  0  0  0  0  0  0  0  0  0  0
    2.4646   -0.0233   -0.7765 C   0  0  0  0  0  0  0  0  0  0  0  0
    2.6718    1.3508   -0.6186 O   0  0  0  0  0  0  0  0  0  0  0  0
   -2.6814    0.7095   -2.0635 H   0  0  0  0  0  0  0  0  0  0  0  0
   -3.4236    1.6412   -0.7350 H   0  0  0  0  0  0  0  0  0  0  0  0
   -1.8408    2.1795   -1.3300 H   0  0  0  0  0  0  0  0  0  0  0  0
   -1.9526    0.7870    0.9382 H   0  0  0  0  0  0  0  0  0  0  0  0
   -1.3217   -2.0814   -1.2851 H   0  0  0  0  0  0  0  0  0  0  0  0
   -1.0580   -2.1228    0.5752 H   0  0  0  0  0  0  0  0  0  0  0  0
   -0.0639    0.0222   -1.3547 H   0  0  0  0  0  0  0  0  0  0  0  0
    0.0586   -0.5844    1.6182 H   0  0  0  0  0  0  0  0  0  0  0  0
    0.5879    1.0265    0.9462 H   0  0  0  0  0  0  0  0  0  0  0  0
    1.7766   -1.7188    0.3140 H   0  0  0  0  0  0  0  0  0  0  0  0
    2.4773   -0.4246    1.3011 H   0  0  0  0  0  0  0  0  0  0  0  0
    3.4896   -0.4757   -0.8489 H   0  0  0  0  0  0  0  0  0  0  0  0
    1.9384   -0.1923   -1.7130 H   0  0  0  0  0  0  0  0  0  0  0  0
    3.1910    1.5035    0.2253 H   0  0  0  0  0  0  0  0  0  0  0  0
  1  2  1  0
  2  3  1  0
  3  4  1  0
  4  5  1  0
  5  6  1  0
  6  7  1  0
  7  8  1  0
  8  9  1  0
  5  2  1  0
  1 10  1  0
  1 11  1  0
  1 12  1  0
  2 13  1  0
  4 14  1  0
  4 15  1  0
  5 16  1  0
  6 17  1  0
  6 18  1  0
  7 19  1  0
  7 20  1  0
  8 21  1  0
  8 22  1  0
  9 23  1  0
M  END
