
     RDKit          3D

 19 20  0  0  0  0  0  0  0  0999 V2000
    2.0318   -0.6633   -0.4462 C   0  0  0  0  0  0  0  0  0  0  0  0
    0.9293    0.3021   -0.2595 C   0  0  0  0  0  0  0  0  0  0  0  0
   -0.0443    0.2411   -1.2895 O   0  0  0  0  0  0  0  0  0  0  0  0
   -1.2100    0.1914   -0.5776 C   0  0  0  0  0  0  0  0  0  0  0  0
   -0.9381   -0.9037    0.4681 C   0  0  0  0  0  0  0  0  0  0  0  0
   -0.4554   -2.0766   -0.0372 O   0  0  0  0  0  0  0  0  0  0  0  0
    0.0812    0.1082    0.9387 C   0  0  0  0  0  0  0  0  0  0  0  0
   -1.0229    1.1328    0.6238 C   0  0  0  0  0  0  0  0  0  0  0  0
   -0.4561    2.3397    0.3199 O   0  0  0  0  0  0  0  0  0  0  0  0
    2.2756   -0.6979   -1.5491 H   0  0  0  0  0  0  0  0  0  0  0  0
    2.9475   -0.2596    0.0311 H   0  0  0  0  0  0  0  0  0  0  0  0
    1.8477   -1.6872   -0.1214 H   0  0  0  0  0  0  0  0  0  0  0  0
    1.3500    1.3350   -0.2522 H   0  0  0  0  0  0  0  0  0  0  0  0
   -2.1583    0.1871   -1.0484 H   0  0  0  0  0  0  0  0  0  0  0  0
   -1.8163   -0.9826    1.1497 H   0  0  0  0  0  0  0  0  0  0  0  0
   -1.1608   -2.4685   -0.6292 H   0  0  0  0  0  0  0  0  0  0  0  0
    0.4586    0.0717    1.9177 H   0  0  0  0  0  0  0  0  0  0  0  0
   -1.8732    1.0987    1.2941 H   0  0  0  0  0  0  0  0  0  0  0  0
   -0.7863    2.7317   -0.5328 H   0  0  0  0  0  0  0  0  0  0  0  0
  1  2  1  0
  2  3  1  0
  3  4  1  0
  4  5  1  0
  5  6  1  0
  5  7  1  0
  7  8  1  0
  8  9  1  0
  7  2  1  0
  8  4  1  0
  1 10  1  0
  1 11  1  0
  1 12  1  0
  2 13  1  0
  4 14  1  0
  5 15  1  0
  6 16  1  0
  7 17  1  0
  8 18  1  0
  9 19  1  0
M  END
