
     RDKit          3D

 19 20  0  0  0  0  0  0  0  0999 V2000
    1.9239    0.7589   -0.3934 C   0  0  0  0  0  0  0  0  0  0  0  0
    1.2195   -0.4637    0.0267 C   0  0  0  0  0  0  0  0  0  0  0  0
    1.0417   -0.6051    1.4242 O   0  0  0  0  0  0  0  0  0  0  0  0
   -0.2944   -0.9303    1.3311 C   0  0  0  0  0  0  0  0  0  0  0  0
   -0.7960   -1.9266    0.3634 C   0  0  0  0  0  0  0  0  0  0  0  0
   -0.2296   -0.5953   -0.1332 C   0  0  0  0  0  0  0  0  0  0  0  0
   -1.1473    0.3846   -0.7403 C   0  0  0  0  0  0  0  0  0  0  0  0
   -1.1953    1.7030   -0.0964 C   0  0  0  0  0  0  0  0  0  0  0  0
   -1.9450    2.5396   -0.5732 O   0  0  0  0  0  0  0  0  0  0  0  0
    2.7265    0.5412   -1.1404 H   0  0  0  0  0  0  0  0  0  0  0  0
    2.4841    1.1612    0.5019 H   0  0  0  0  0  0  0  0  0  0  0  0
    1.2841    1.5805   -0.7479 H   0  0  0  0  0  0  0  0  0  0  0  0
    1.7496   -1.3952   -0.3244 H   0  0  0  0  0  0  0  0  0  0  0  0
   -1.0245   -0.3598    1.9125 H   0  0  0  0  0  0  0  0  0  0  0  0
   -0.1884   -2.7805    0.0227 H   0  0  0  0  0  0  0  0  0  0  0  0
   -1.8727   -2.0563    0.2938 H   0  0  0  0  0  0  0  0  0  0  0  0
   -0.9276    0.4773   -1.8163 H   0  0  0  0  0  0  0  0  0  0  0  0
   -2.1873   -0.0394   -0.6823 H   0  0  0  0  0  0  0  0  0  0  0  0
   -0.6213    2.0057    0.7717 H   0  0  0  0  0  0  0  0  0  0  0  0
  1  2  1  0
  2  3  1  0
  3  4  1  0
  4  5  1  0
  5  6  1  0
  6  7  1  0
  7  8  1  0
  8  9  2  0
  6  2  1  0
  6  4  1  0
  1 10  1  0
  1 11  1  0
  1 12  1  0
  2 13  1  0
  4 14  1  0
  5 15  1  0
  5 16  1  0
  7 17  1  0
  7 18  1  0
  8 19  1  0
M  END
