
     RDKit          3D

 21 22  0  0  0  0  0  0  0  0999 V2000
    2.3141   -1.2539   -0.2257 C   0  0  0  0  0  0  0  0  0  0  0  0
    1.2408   -0.2216   -0.3226 C   0  0  0  0  0  0  0  0  0  0  0  0
    1.6222    1.0236    0.1865 O   0  0  0  0  0  0  0  0  0  0  0  0
    0.4167    1.7451    0.1247 C   0  0  0  0  0  0  0  0  0  0  0  0
   -0.6321    0.8140    0.6301 C   0  0  0  0  0  0  0  0  0  0  0  0
   -1.7585    0.6142   -0.3943 C   0  0  0  0  0  0  0  0  0  0  0  0
   -2.0832   -0.8389   -0.0724 C   0  0  0  0  0  0  0  0  0  0  0  0
   -0.7819   -1.3899   -0.1201 O   0  0  0  0  0  0  0  0  0  0  0  0
    0.0390   -0.5362    0.5640 C   0  0  0  0  0  0  0  0  0  0  0  0
    2.9595   -0.9852    0.6525 H   0  0  0  0  0  0  0  0  0  0  0  0
    1.9482   -2.2721   -0.0431 H   0  0  0  0  0  0  0  0  0  0  0  0
    2.9081   -1.2030   -1.1780 H   0  0  0  0  0  0  0  0  0  0  0  0
    0.8332   -0.0838   -1.3437 H   0  0  0  0  0  0  0  0  0  0  0  0
    0.4987    2.6417    0.7925 H   0  0  0  0  0  0  0  0  0  0  0  0
    0.2482    2.0626   -0.9364 H   0  0  0  0  0  0  0  0  0  0  0  0
   -1.0378    1.0528    1.6144 H   0  0  0  0  0  0  0  0  0  0  0  0
   -2.5916    1.2910   -0.2269 H   0  0  0  0  0  0  0  0  0  0  0  0
   -1.3177    0.6543   -1.4106 H   0  0  0  0  0  0  0  0  0  0  0  0
   -2.4173   -0.8716    0.9702 H   0  0  0  0  0  0  0  0  0  0  0  0
   -2.7374   -1.3067   -0.8012 H   0  0  0  0  0  0  0  0  0  0  0  0
    0.3286   -0.9365    1.5415 H   0  0  0  0  0  0  0  0  0  0  0  0
  1  2  1  0
  2  3  1  0
  3  4  1  0
  4  5  1  0
  5  6  1  0
  6  7  1  0
  7  8  1  0
  8  9  1  0
  9  2  1  0
  9  5  1  0
  1 10  1  0
  1 11  1  0
  1 12  1  0
  2 13  1  0
  4 14  1  0
  4 15  1  0
  5 16  1  0
  6 17  1  0
  6 18  1  0
  7 19  1  0
  7 20  1  0
  9 21  1  0
M  END
