
     RDKit          3D

 21 23  0  0  0  0  0  0  0  0999 V2000
    3.1030    0.0124   -0.4636 C   0  0  0  0  0  0  0  0  0  0  0  0
    1.7718    0.4694    0.0585 C   0  0  0  0  0  0  0  0  0  0  0  0
    1.4499    0.1207    1.3514 O   0  0  0  0  0  0  0  0  0  0  0  0
    0.7092   -0.5606    0.3883 C   0  0  0  0  0  0  0  0  0  0  0  0
   -0.6118   -0.2580    0.1850 C   0  0  0  0  0  0  0  0  0  0  0  0
   -1.2888    0.1167   -1.1102 C   0  0  0  0  0  0  0  0  0  0  0  0
   -2.3840    0.2112   -0.0865 C   0  0  0  0  0  0  0  0  0  0  0  0
   -1.8262   -1.0674    0.4775 C   0  0  0  0  0  0  0  0  0  0  0  0
   -1.3645    0.9097    0.7783 C   0  0  0  0  0  0  0  0  0  0  0  0
    3.4873    0.7658   -1.1656 H   0  0  0  0  0  0  0  0  0  0  0  0
    3.0104   -1.0018   -0.9029 H   0  0  0  0  0  0  0  0  0  0  0  0
    3.7957   -0.0720    0.4076 H   0  0  0  0  0  0  0  0  0  0  0  0
    1.4003    1.4630   -0.2825 H   0  0  0  0  0  0  0  0  0  0  0  0
    1.0616   -1.6143    0.1812 H   0  0  0  0  0  0  0  0  0  0  0  0
   -1.3693   -0.6792   -1.8571 H   0  0  0  0  0  0  0  0  0  0  0  0
   -0.9327    1.1053   -1.4647 H   0  0  0  0  0  0  0  0  0  0  0  0
   -3.3398    0.4585   -0.2225 H   0  0  0  0  0  0  0  0  0  0  0  0
   -2.0275   -1.1217    1.5627 H   0  0  0  0  0  0  0  0  0  0  0  0
   -1.9827   -1.9776   -0.1052 H   0  0  0  0  0  0  0  0  0  0  0  0
   -1.6231    0.8243    1.8478 H   0  0  0  0  0  0  0  0  0  0  0  0
   -1.0387    1.8953    0.4226 H   0  0  0  0  0  0  0  0  0  0  0  0
  1  2  1  0
  2  3  1  0
  3  4  1  0
  4  5  1  0
  5  6  1  0
  6  7  1  0
  7  8  1  0
  7  9  1  0
  4  2  1  0
  8  5  1  0
  9  5  1  0
  1 10  1  0
  1 11  1  0
  1 12  1  0
  2 13  1  0
  4 14  1  0
  6 15  1  0
  6 16  1  0
  7 17  1  0
  8 18  1  0
  8 19  1  0
  9 20  1  0
  9 21  1  0
M  END
