
     RDKit          3D

 19 19  0  0  0  0  0  0  0  0999 V2000
    2.2890    0.6597   -1.3126 C   0  0  0  0  0  0  0  0  0  0  0  0
    1.6690   -0.3175   -0.3447 C   0  0  0  0  0  0  0  0  0  0  0  0
    2.5161   -0.5414    0.7507 O   0  0  0  0  0  0  0  0  0  0  0  0
    1.3930   -0.5850    1.5841 C   0  0  0  0  0  0  0  0  0  0  0  0
    0.7121    0.3514    0.6074 C   0  0  0  0  0  0  0  0  0  0  0  0
   -0.6694    0.0425    0.3108 C   0  0  0  0  0  0  0  0  0  0  0  0
   -1.8323   -0.1967    0.0649 C   0  0  0  0  0  0  0  0  0  0  0  0
   -3.2426   -0.4754   -0.2230 C   0  0  0  0  0  0  0  0  0  0  0  0
   -4.0480    0.5977    0.1672 O   0  0  0  0  0  0  0  0  0  0  0  0
    1.9455    1.7092   -1.0842 H   0  0  0  0  0  0  0  0  0  0  0  0
    3.3934    0.5894   -1.2895 H   0  0  0  0  0  0  0  0  0  0  0  0
    1.9828    0.4745   -2.3598 H   0  0  0  0  0  0  0  0  0  0  0  0
    1.2968   -1.2515   -0.7654 H   0  0  0  0  0  0  0  0  0  0  0  0
    1.5999   -0.1091    2.5865 H   0  0  0  0  0  0  0  0  0  0  0  0
    0.9573   -1.5967    1.6591 H   0  0  0  0  0  0  0  0  0  0  0  0
    0.9497    1.3969    0.8484 H   0  0  0  0  0  0  0  0  0  0  0  0
   -3.6077   -1.3600    0.3573 H   0  0  0  0  0  0  0  0  0  0  0  0
   -3.3944   -0.7023   -1.2833 H   0  0  0  0  0  0  0  0  0  0  0  0
   -3.9101    1.3142   -0.5219 H   0  0  0  0  0  0  0  0  0  0  0  0
  1  2  1  0
  2  3  1  0
  3  4  1  0
  4  5  1  0
  5  6  1  0
  6  7  3  0
  7  8  1  0
  8  9  1  0
  5  2  1  0
  1 10  1  0
  1 11  1  0
  1 12  1  0
  2 13  1  0
  4 14  1  0
  4 15  1  0
  5 16  1  0
  8 17  1  0
  8 18  1  0
  9 19  1  0
M  END
