
     RDKit          3D

 21 22  0  0  0  0  0  0  0  0999 V2000
    2.3575    0.7511   -0.8236 C   0  0  0  0  0  0  0  0  0  0  0  0
    1.2962    0.7936    0.2764 C   0  0  0  0  0  0  0  0  0  0  0  0
    1.7064   -0.0654    1.3228 O   0  0  0  0  0  0  0  0  0  0  0  0
    1.1164   -1.1354    0.6088 C   0  0  0  0  0  0  0  0  0  0  0  0
    0.2097   -0.1632   -0.0190 C   0  0  0  0  0  0  0  0  0  0  0  0
   -0.2354   -0.2499   -1.3080 O   0  0  0  0  0  0  0  0  0  0  0  0
   -1.1084   -0.0859   -0.2553 C   0  0  0  0  0  0  0  0  0  0  0  0
   -1.8850    1.2304   -0.1365 C   0  0  0  0  0  0  0  0  0  0  0  0
   -2.0103   -1.2974    0.0289 C   0  0  0  0  0  0  0  0  0  0  0  0
    3.0814   -0.0686   -0.6670 H   0  0  0  0  0  0  0  0  0  0  0  0
    1.8192    0.5070   -1.7792 H   0  0  0  0  0  0  0  0  0  0  0  0
    2.9199    1.6852   -0.8769 H   0  0  0  0  0  0  0  0  0  0  0  0
    1.0240    1.8085    0.6040 H   0  0  0  0  0  0  0  0  0  0  0  0
    1.8598   -1.6011   -0.0620 H   0  0  0  0  0  0  0  0  0  0  0  0
    0.5581   -1.8456    1.2678 H   0  0  0  0  0  0  0  0  0  0  0  0
   -2.5971    1.3719   -0.9466 H   0  0  0  0  0  0  0  0  0  0  0  0
   -2.4320    1.1421    0.8462 H   0  0  0  0  0  0  0  0  0  0  0  0
   -1.1332    2.0414   -0.0804 H   0  0  0  0  0  0  0  0  0  0  0  0
   -1.8209   -2.1096   -0.7110 H   0  0  0  0  0  0  0  0  0  0  0  0
   -1.6610   -1.6643    1.0382 H   0  0  0  0  0  0  0  0  0  0  0  0
   -3.0654   -1.0447    0.0099 H   0  0  0  0  0  0  0  0  0  0  0  0
  1  2  1  0
  2  3  1  0
  3  4  1  0
  4  5  1  0
  5  6  1  0
  6  7  1  0
  7  8  1  0
  7  9  1  0
  5  2  1  0
  7  5  1  0
  1 10  1  0
  1 11  1  0
  1 12  1  0
  2 13  1  0
  4 14  1  0
  4 15  1  0
  8 16  1  0
  8 17  1  0
  8 18  1  0
  9 19  1  0
  9 20  1  0
  9 21  1  0
M  END
