
     RDKit          3D

 18 19  0  0  0  0  0  0  0  0999 V2000
    2.1859   -0.2873   -0.2739 C   0  0  0  0  0  0  0  0  0  0  0  0
    0.7433    0.0994   -0.3091 C   0  0  0  0  0  0  0  0  0  0  0  0
    0.5885    1.3545    0.3297 O   0  0  0  0  0  0  0  0  0  0  0  0
   -0.6649    1.7992   -0.1440 C   0  0  0  0  0  0  0  0  0  0  0  0
   -1.6953    1.0066    0.2685 O   0  0  0  0  0  0  0  0  0  0  0  0
   -1.3781   -0.1723    0.8504 C   0  0  0  0  0  0  0  0  0  0  0  0
   -1.3931   -1.3701   -0.1140 C   0  0  0  0  0  0  0  0  0  0  0  0
   -0.1513   -0.8451    0.4613 C   0  0  0  0  0  0  0  0  0  0  0  0
    2.4068   -0.8353   -1.2271 H   0  0  0  0  0  0  0  0  0  0  0  0
    2.7810    0.6617   -0.2224 H   0  0  0  0  0  0  0  0  0  0  0  0
    2.4436   -0.9104    0.6198 H   0  0  0  0  0  0  0  0  0  0  0  0
    0.3272    0.1492   -1.3437 H   0  0  0  0  0  0  0  0  0  0  0  0
   -0.8686    2.8359    0.1516 H   0  0  0  0  0  0  0  0  0  0  0  0
   -0.5420    1.7782   -1.2672 H   0  0  0  0  0  0  0  0  0  0  0  0
   -1.7626   -0.3570    1.8893 H   0  0  0  0  0  0  0  0  0  0  0  0
   -1.8370   -2.2720    0.3049 H   0  0  0  0  0  0  0  0  0  0  0  0
   -1.5666   -1.1745   -1.1837 H   0  0  0  0  0  0  0  0  0  0  0  0
    0.3834   -1.4606    1.2095 H   0  0  0  0  0  0  0  0  0  0  0  0
  1  2  1  0
  2  3  1  0
  3  4  1  0
  4  5  1  0
  5  6  1  0
  6  7  1  0
  7  8  1  0
  8  2  1  0
  8  6  1  0
  1  9  1  0
  1 10  1  0
  1 11  1  0
  2 12  1  0
  4 13  1  0
  4 14  1  0
  6 15  1  0
  7 16  1  0
  7 17  1  0
  8 18  1  0
M  END
