
     RDKit          3D

 23 23  0  0  0  0  0  0  0  0999 V2000
    3.2074    0.0256    0.2180 C   0  0  0  0  0  0  0  0  0  0  0  0
    1.8384   -0.3247   -0.3077 C   0  0  0  0  0  0  0  0  0  0  0  0
    1.2786    0.8458   -1.0039 O   0  0  0  0  0  0  0  0  0  0  0  0
    0.6985    0.3779    0.2237 C   0  0  0  0  0  0  0  0  0  0  0  0
   -0.7229   -0.0397    0.0383 C   0  0  0  0  0  0  0  0  0  0  0  0
   -0.9169   -1.4216    0.6280 C   0  0  0  0  0  0  0  0  0  0  0  0
   -1.1518   -0.0975   -1.4016 C   0  0  0  0  0  0  0  0  0  0  0  0
   -1.6403    0.9705    0.7303 C   0  0  0  0  0  0  0  0  0  0  0  0
   -2.9642    0.6354    0.5917 O   0  0  0  0  0  0  0  0  0  0  0  0
    3.0946    0.6943    1.0894 H   0  0  0  0  0  0  0  0  0  0  0  0
    3.7986   -0.8697    0.4867 H   0  0  0  0  0  0  0  0  0  0  0  0
    3.8156    0.5825   -0.5288 H   0  0  0  0  0  0  0  0  0  0  0  0
    1.7862   -1.2533   -0.8955 H   0  0  0  0  0  0  0  0  0  0  0  0
    0.8747    1.0494    1.1113 H   0  0  0  0  0  0  0  0  0  0  0  0
   -0.6653   -2.1496   -0.1602 H   0  0  0  0  0  0  0  0  0  0  0  0
   -0.2344   -1.5566    1.4886 H   0  0  0  0  0  0  0  0  0  0  0  0
   -1.9441   -1.5582    1.0223 H   0  0  0  0  0  0  0  0  0  0  0  0
   -2.2631   -0.2268   -1.4094 H   0  0  0  0  0  0  0  0  0  0  0  0
   -0.9711    0.8713   -1.9307 H   0  0  0  0  0  0  0  0  0  0  0  0
   -0.7086   -0.9460   -1.9520 H   0  0  0  0  0  0  0  0  0  0  0  0
   -1.3160    1.0468    1.7932 H   0  0  0  0  0  0  0  0  0  0  0  0
   -1.4188    1.9569    0.2739 H   0  0  0  0  0  0  0  0  0  0  0  0
   -3.4752    1.3875    0.1973 H   0  0  0  0  0  0  0  0  0  0  0  0
  1  2  1  0
  2  3  1  0
  3  4  1  0
  4  5  1  0
  5  6  1  0
  5  7  1  0
  5  8  1  0
  8  9  1  0
  4  2  1  0
  1 10  1  0
  1 11  1  0
  1 12  1  0
  2 13  1  0
  4 14  1  0
  6 15  1  0
  6 16  1  0
  6 17  1  0
  7 18  1  0
  7 19  1  0
  7 20  1  0
  8 21  1  0
  8 22  1  0
  9 23  1  0
M  END
