
     RDKit          3D

 18 18  0  0  0  0  0  0  0  0999 V2000
    1.8635   -0.2694   -0.5592 C   0  0  0  0  0  0  0  0  0  0  0  0
    0.9270    0.2764    0.4991 C   0  0  0  0  0  0  0  0  0  0  0  0
    0.4721   -0.7755    1.2462 O   0  0  0  0  0  0  0  0  0  0  0  0
   -0.8925   -0.8058    1.2338 C   0  0  0  0  0  0  0  0  0  0  0  0
   -1.3078   -0.1244   -0.0519 C   0  0  0  0  0  0  0  0  0  0  0  0
   -1.0741   -0.9250   -1.1569 O   0  0  0  0  0  0  0  0  0  0  0  0
   -0.2542    0.9922   -0.0956 C   0  0  0  0  0  0  0  0  0  0  0  0
   -0.0521    1.4747   -1.3563 O   0  0  0  0  0  0  0  0  0  0  0  0
    2.5720    0.4900   -0.9348 H   0  0  0  0  0  0  0  0  0  0  0  0
    1.2632   -0.7252   -1.3831 H   0  0  0  0  0  0  0  0  0  0  0  0
    2.4728   -1.0999   -0.1141 H   0  0  0  0  0  0  0  0  0  0  0  0
    1.5143    0.9418    1.1798 H   0  0  0  0  0  0  0  0  0  0  0  0
   -1.2672   -1.8282    1.3319 H   0  0  0  0  0  0  0  0  0  0  0  0
   -1.2572   -0.1549    2.0622 H   0  0  0  0  0  0  0  0  0  0  0  0
   -2.3019    0.3242   -0.0149 H   0  0  0  0  0  0  0  0  0  0  0  0
   -1.3924   -1.8562   -0.9743 H   0  0  0  0  0  0  0  0  0  0  0  0
   -0.6020    1.8141    0.5786 H   0  0  0  0  0  0  0  0  0  0  0  0
   -0.6836    2.2511   -1.4908 H   0  0  0  0  0  0  0  0  0  0  0  0
  1  2  1  0
  2  3  1  0
  3  4  1  0
  4  5  1  0
  5  6  1  0
  5  7  1  0
  7  8  1  0
  7  2  1  0
  1  9  1  0
  1 10  1  0
  1 11  1  0
  2 12  1  0
  4 13  1  0
  4 14  1  0
  5 15  1  0
  6 16  1  0
  7 17  1  0
  8 18  1  0
M  END
