
     RDKit          3D

 21 22  0  0  0  0  0  0  0  0999 V2000
   -2.3066   -0.8686   -0.0412 C   0  0  0  0  0  0  0  0  0  0  0  0
   -1.0314   -0.3384    0.6073 C   0  0  0  0  0  0  0  0  0  0  0  0
   -0.1913   -1.4269    0.8019 O   0  0  0  0  0  0  0  0  0  0  0  0
    1.0996   -0.9792    0.8371 C   0  0  0  0  0  0  0  0  0  0  0  0
    1.9070   -0.7712   -0.3861 C   0  0  0  0  0  0  0  0  0  0  0  0
    3.2832   -0.6871   -0.2508 O   0  0  0  0  0  0  0  0  0  0  0  0
    1.1548    0.3776    0.1902 C   0  0  0  0  0  0  0  0  0  0  0  0
   -0.2491    0.5443   -0.3304 C   0  0  0  0  0  0  0  0  0  0  0  0
   -0.6382    1.9822   -0.2696 C   0  0  0  0  0  0  0  0  0  0  0  0
   -2.1685   -1.9201   -0.4033 H   0  0  0  0  0  0  0  0  0  0  0  0
   -2.5906   -0.2525   -0.9137 H   0  0  0  0  0  0  0  0  0  0  0  0
   -3.1192   -0.9161    0.7147 H   0  0  0  0  0  0  0  0  0  0  0  0
   -1.2710    0.2004    1.5397 H   0  0  0  0  0  0  0  0  0  0  0  0
    1.6632   -1.1669    1.7728 H   0  0  0  0  0  0  0  0  0  0  0  0
    1.5685   -1.1852   -1.3653 H   0  0  0  0  0  0  0  0  0  0  0  0
    3.7916   -1.0242   -1.0040 H   0  0  0  0  0  0  0  0  0  0  0  0
    1.6288    1.1507    0.7991 H   0  0  0  0  0  0  0  0  0  0  0  0
   -0.3863    0.1743   -1.3481 H   0  0  0  0  0  0  0  0  0  0  0  0
    0.1694    2.5661   -0.7886 H   0  0  0  0  0  0  0  0  0  0  0  0
   -1.5503    2.1537   -0.8982 H   0  0  0  0  0  0  0  0  0  0  0  0
   -0.7634    2.3872    0.7365 H   0  0  0  0  0  0  0  0  0  0  0  0
  1  2  1  0
  2  3  1  0
  3  4  1  0
  4  5  1  0
  5  6  1  0
  5  7  1  0
  7  8  1  0
  8  9  1  0
  8  2  1  0
  7  4  1  0
  1 10  1  0
  1 11  1  0
  1 12  1  0
  2 13  1  0
  4 14  1  0
  5 15  1  0
  6 16  1  0
  7 17  1  0
  8 18  1  0
  9 19  1  0
  9 20  1  0
  9 21  1  0
M  END
