
     RDKit          3D

 14 14  0  0  0  0  0  0  0  0999 V2000
    1.6859   -0.4776   -0.3747 C   0  0  0  0  0  0  0  0  0  0  0  0
    0.2710   -0.6579    0.1065 C   0  0  0  0  0  0  0  0  0  0  0  0
    0.1173   -0.0801    1.3934 O   0  0  0  0  0  0  0  0  0  0  0  0
    0.0002    1.1351    0.7568 C   0  0  0  0  0  0  0  0  0  0  0  0
    0.3313    2.2989    0.9930 O   0  0  0  0  0  0  0  0  0  0  0  0
   -0.6964    0.4208   -0.3291 C   0  0  0  0  0  0  0  0  0  0  0  0
   -2.0706   -0.0184   -0.0191 C   0  0  0  0  0  0  0  0  0  0  0  0
   -2.3987   -0.1520    1.1296 O   0  0  0  0  0  0  0  0  0  0  0  0
    2.1181   -1.4953   -0.5265 H   0  0  0  0  0  0  0  0  0  0  0  0
    2.3393    0.0114    0.3918 H   0  0  0  0  0  0  0  0  0  0  0  0
    1.7586    0.0633   -1.3281 H   0  0  0  0  0  0  0  0  0  0  0  0
   -0.1679   -1.6500   -0.0376 H   0  0  0  0  0  0  0  0  0  0  0  0
   -0.5281    0.8155   -1.3489 H   0  0  0  0  0  0  0  0  0  0  0  0
   -2.7600   -0.2136   -0.8073 H   0  0  0  0  0  0  0  0  0  0  0  0
  1  2  1  0
  2  3  1  0
  3  4  1  0
  4  5  2  0
  4  6  1  0
  6  7  1  0
  7  8  2  0
  6  2  1  0
  1  9  1  0
  1 10  1  0
  1 11  1  0
  2 12  1  0
  6 13  1  0
  7 14  1  0
M  END
