
     RDKit          3D

 19 21  0  0  0  0  0  0  0  0999 V2000
    1.9092   -0.2954    0.1598 C   0  0  0  0  0  0  0  0  0  0  0  0
    0.7505    0.3342    0.8772 C   0  0  0  0  0  0  0  0  0  0  0  0
    0.5247    1.5886    0.3212 O   0  0  0  0  0  0  0  0  0  0  0  0
   -0.0440    1.3457   -0.9370 C   0  0  0  0  0  0  0  0  0  0  0  0
   -1.0681    0.2657   -0.6045 C   0  0  0  0  0  0  0  0  0  0  0  0
   -1.8422    0.4685    0.6303 C   0  0  0  0  0  0  0  0  0  0  0  0
   -0.5418   -0.3646    0.7100 C   0  0  0  0  0  0  0  0  0  0  0  0
   -0.6650   -1.6692   -0.0098 C   0  0  0  0  0  0  0  0  0  0  0  0
   -0.8907   -0.9704   -1.1830 O   0  0  0  0  0  0  0  0  0  0  0  0
    2.6953    0.4968    0.0487 H   0  0  0  0  0  0  0  0  0  0  0  0
    2.3879   -1.0858    0.7854 H   0  0  0  0  0  0  0  0  0  0  0  0
    1.5922   -0.6731   -0.8286 H   0  0  0  0  0  0  0  0  0  0  0  0
    1.0424    0.5177    1.9427 H   0  0  0  0  0  0  0  0  0  0  0  0
   -0.5862    2.2736   -1.2641 H   0  0  0  0  0  0  0  0  0  0  0  0
    0.6866    1.0290   -1.6797 H   0  0  0  0  0  0  0  0  0  0  0  0
   -2.7417   -0.1614    0.8143 H   0  0  0  0  0  0  0  0  0  0  0  0
   -1.7672    1.4347    1.1259 H   0  0  0  0  0  0  0  0  0  0  0  0
   -1.6186   -2.1796    0.2927 H   0  0  0  0  0  0  0  0  0  0  0  0
    0.1768   -2.3552    0.0182 H   0  0  0  0  0  0  0  0  0  0  0  0
  1  2  1  0
  2  3  1  0
  3  4  1  0
  4  5  1  0
  5  6  1  0
  6  7  1  0
  7  8  1  0
  8  9  1  0
  7  2  1  0
  7  5  1  0
  9  5  1  0
  1 10  1  0
  1 11  1  0
  1 12  1  0
  2 13  1  0
  4 14  1  0
  4 15  1  0
  6 16  1  0
  6 17  1  0
  8 18  1  0
  8 19  1  0
M  END
