
     RDKit          3D

 21 22  0  0  0  0  0  0  0  0999 V2000
   -2.6865   -0.0162   -0.2098 C   0  0  0  0  0  0  0  0  0  0  0  0
   -1.3797   -0.3936    0.4420 C   0  0  0  0  0  0  0  0  0  0  0  0
   -0.9267   -1.5491   -0.1256 O   0  0  0  0  0  0  0  0  0  0  0  0
    0.3356   -1.3742   -0.6150 C   0  0  0  0  0  0  0  0  0  0  0  0
    0.8885   -0.0918   -0.0558 C   0  0  0  0  0  0  0  0  0  0  0  0
    2.1364   -0.0088    0.6689 C   0  0  0  0  0  0  0  0  0  0  0  0
    2.0422    0.5413   -0.7054 C   0  0  0  0  0  0  0  0  0  0  0  0
   -0.3499    0.6805    0.2609 C   0  0  0  0  0  0  0  0  0  0  0  0
   -0.2417    1.5493    1.3102 O   0  0  0  0  0  0  0  0  0  0  0  0
   -3.1148    0.9253    0.1890 H   0  0  0  0  0  0  0  0  0  0  0  0
   -2.4892    0.1511   -1.2824 H   0  0  0  0  0  0  0  0  0  0  0  0
   -3.4316   -0.8038   -0.0425 H   0  0  0  0  0  0  0  0  0  0  0  0
   -1.5236   -0.5943    1.5382 H   0  0  0  0  0  0  0  0  0  0  0  0
    0.9865   -2.2404   -0.4920 H   0  0  0  0  0  0  0  0  0  0  0  0
    0.2403   -1.2128   -1.7281 H   0  0  0  0  0  0  0  0  0  0  0  0
    2.7183   -0.9716    0.7767 H   0  0  0  0  0  0  0  0  0  0  0  0
    2.3111    0.6544    1.5390 H   0  0  0  0  0  0  0  0  0  0  0  0
    2.4774   -0.0029   -1.5697 H   0  0  0  0  0  0  0  0  0  0  0  0
    2.0164    1.6351   -0.8083 H   0  0  0  0  0  0  0  0  0  0  0  0
   -0.6585    1.2846   -0.6417 H   0  0  0  0  0  0  0  0  0  0  0  0
    0.6497    1.8379    1.5513 H   0  0  0  0  0  0  0  0  0  0  0  0
  1  2  1  0
  2  3  1  0
  3  4  1  0
  4  5  1  0
  5  6  1  0
  6  7  1  0
  5  8  1  0
  8  9  1  0
  8  2  1  0
  7  5  1  0
  1 10  1  0
  1 11  1  0
  1 12  1  0
  2 13  1  0
  4 14  1  0
  4 15  1  0
  6 16  1  0
  6 17  1  0
  7 18  1  0
  7 19  1  0
  8 20  1  0
  9 21  1  0
M  END
