
     RDKit          3D

 21 21  0  0  0  0  0  0  0  0999 V2000
   -2.6854    0.7037   -0.5993 C   0  0  0  0  0  0  0  0  0  0  0  0
   -1.7008   -0.2996   -0.1126 C   0  0  0  0  0  0  0  0  0  0  0  0
   -0.6835   -0.6413   -1.0301 O   0  0  0  0  0  0  0  0  0  0  0  0
    0.1064   -0.8895    0.0913 C   0  0  0  0  0  0  0  0  0  0  0  0
    1.5851   -0.7939   -0.1201 C   0  0  0  0  0  0  0  0  0  0  0  0
    2.0468    0.5483   -0.5834 C   0  0  0  0  0  0  0  0  0  0  0  0
    3.4419    0.4818   -0.7354 O   0  0  0  0  0  0  0  0  0  0  0  0
   -0.5632    0.2735    0.7453 C   0  0  0  0  0  0  0  0  0  0  0  0
   -0.9002    0.1329    2.0773 O   0  0  0  0  0  0  0  0  0  0  0  0
   -2.7451    1.5998    0.0848 H   0  0  0  0  0  0  0  0  0  0  0  0
   -3.7027    0.2161   -0.5944 H   0  0  0  0  0  0  0  0  0  0  0  0
   -2.5109    1.0782   -1.6099 H   0  0  0  0  0  0  0  0  0  0  0  0
   -2.0831   -1.2105    0.3644 H   0  0  0  0  0  0  0  0  0  0  0  0
   -0.1853   -1.8357    0.5516 H   0  0  0  0  0  0  0  0  0  0  0  0
    1.8681   -1.5382   -0.8870 H   0  0  0  0  0  0  0  0  0  0  0  0
    2.1010   -1.0705    0.8092 H   0  0  0  0  0  0  0  0  0  0  0  0
    1.6415    0.7190   -1.6157 H   0  0  0  0  0  0  0  0  0  0  0  0
    1.7733    1.3719    0.1026 H   0  0  0  0  0  0  0  0  0  0  0  0
    3.9027    0.5159    0.1311 H   0  0  0  0  0  0  0  0  0  0  0  0
   -0.2410    1.2617    0.4085 H   0  0  0  0  0  0  0  0  0  0  0  0
   -0.4657   -0.6237    2.5220 H   0  0  0  0  0  0  0  0  0  0  0  0
  1  2  1  0
  2  3  1  0
  3  4  1  0
  4  5  1  0
  5  6  1  0
  6  7  1  0
  4  8  1  0
  8  9  1  0
  8  2  1  0
  1 10  1  0
  1 11  1  0
  1 12  1  0
  2 13  1  0
  4 14  1  0
  5 15  1  0
  5 16  1  0
  6 17  1  0
  6 18  1  0
  7 19  1  0
  8 20  1  0
  9 21  1  0
M  END
