
     RDKit          3D

 18 19  0  0  0  0  0  0  0  0999 V2000
   -2.0738    0.1997   -0.4117 C   0  0  0  0  0  0  0  0  0  0  0  0
   -0.7179    0.6482    0.0114 C   0  0  0  0  0  0  0  0  0  0  0  0
   -0.4072    0.3792    1.3253 O   0  0  0  0  0  0  0  0  0  0  0  0
    0.2360   -0.8451    1.3713 C   0  0  0  0  0  0  0  0  0  0  0  0
    1.0110   -0.9902    0.0794 C   0  0  0  0  0  0  0  0  0  0  0  0
    2.2612   -0.3889    0.0836 O   0  0  0  0  0  0  0  0  0  0  0  0
    1.7056    0.7677   -0.4506 C   0  0  0  0  0  0  0  0  0  0  0  0
    0.4071    0.0631   -0.7873 C   0  0  0  0  0  0  0  0  0  0  0  0
   -2.3784   -0.7871   -0.0168 H   0  0  0  0  0  0  0  0  0  0  0  0
   -2.8104    0.9732   -0.0485 H   0  0  0  0  0  0  0  0  0  0  0  0
   -2.1214    0.2141   -1.5228 H   0  0  0  0  0  0  0  0  0  0  0  0
   -0.6745    1.7650   -0.1428 H   0  0  0  0  0  0  0  0  0  0  0  0
    0.9540   -0.9122    2.2172 H   0  0  0  0  0  0  0  0  0  0  0  0
   -0.4950   -1.6633    1.4329 H   0  0  0  0  0  0  0  0  0  0  0  0
    1.0411   -2.0051   -0.3447 H   0  0  0  0  0  0  0  0  0  0  0  0
    2.2185    1.1967   -1.3131 H   0  0  0  0  0  0  0  0  0  0  0  0
    1.6167    1.5494    0.3469 H   0  0  0  0  0  0  0  0  0  0  0  0
    0.2273   -0.1644   -1.8298 H   0  0  0  0  0  0  0  0  0  0  0  0
  1  2  1  0
  2  3  1  0
  3  4  1  0
  4  5  1  0
  5  6  1  0
  6  7  1  0
  7  8  1  0
  8  2  1  0
  8  5  1  0
  1  9  1  0
  1 10  1  0
  1 11  1  0
  2 12  1  0
  4 13  1  0
  4 14  1  0
  5 15  1  0
  7 16  1  0
  7 17  1  0
  8 18  1  0
M  END
