
     RDKit          3D

 17 18  0  0  0  0  0  0  0  0999 V2000
    2.2978   -0.2951    0.2490 C   0  0  0  0  0  0  0  0  0  0  0  0
    0.8182   -0.1881    0.5198 C   0  0  0  0  0  0  0  0  0  0  0  0
    0.1193   -1.3735    0.5689 O   0  0  0  0  0  0  0  0  0  0  0  0
   -0.7471   -1.0510   -0.4542 C   0  0  0  0  0  0  0  0  0  0  0  0
   -2.0464   -0.4806   -0.0751 C   0  0  0  0  0  0  0  0  0  0  0  0
   -2.0536    0.8409   -0.1402 C   0  0  0  0  0  0  0  0  0  0  0  0
   -0.7579    1.3300   -0.5721 C   0  0  0  0  0  0  0  0  0  0  0  0
   -0.4522    2.5170   -0.7444 O   0  0  0  0  0  0  0  0  0  0  0  0
    0.0953    0.1650   -0.7589 C   0  0  0  0  0  0  0  0  0  0  0  0
    2.6284    0.7074   -0.1443 H   0  0  0  0  0  0  0  0  0  0  0  0
    2.4416   -1.0025   -0.5700 H   0  0  0  0  0  0  0  0  0  0  0  0
    2.8963   -0.4802    1.1432 H   0  0  0  0  0  0  0  0  0  0  0  0
    0.6016    0.5043    1.3741 H   0  0  0  0  0  0  0  0  0  0  0  0
   -0.7526   -1.7307   -1.3228 H   0  0  0  0  0  0  0  0  0  0  0  0
   -2.9044   -1.0575    0.2238 H   0  0  0  0  0  0  0  0  0  0  0  0
   -2.8880    1.4880    0.0890 H   0  0  0  0  0  0  0  0  0  0  0  0
    0.7039    0.1066   -1.6732 H   0  0  0  0  0  0  0  0  0  0  0  0
  1  2  1  0
  2  3  1  0
  3  4  1  0
  4  5  1  0
  5  6  2  0
  6  7  1  0
  7  8  2  0
  7  9  1  0
  9  2  1  0
  9  4  1  0
  1 10  1  0
  1 11  1  0
  1 12  1  0
  2 13  1  0
  4 14  1  0
  5 15  1  0
  6 16  1  0
  9 17  1  0
M  END
