
     RDKit          3D

 21 21  0  0  0  0  0  0  0  0999 V2000
    2.8381   -0.2585   -0.8674 C   0  0  0  0  0  0  0  0  0  0  0  0
    1.7555   -0.7122    0.0970 C   0  0  0  0  0  0  0  0  0  0  0  0
    1.6551    0.2282    1.0913 O   0  0  0  0  0  0  0  0  0  0  0  0
    0.3484    0.7221    1.0809 C   0  0  0  0  0  0  0  0  0  0  0  0
   -0.0493    0.4483   -0.3312 C   0  0  0  0  0  0  0  0  0  0  0  0
   -1.5190    0.4426   -0.5851 C   0  0  0  0  0  0  0  0  0  0  0  0
   -2.2740   -0.5861    0.2084 C   0  0  0  0  0  0  0  0  0  0  0  0
   -3.6365   -0.5282   -0.0839 O   0  0  0  0  0  0  0  0  0  0  0  0
    0.5458   -0.7906   -0.5620 O   0  0  0  0  0  0  0  0  0  0  0  0
    3.1033    0.8077   -0.7014 H   0  0  0  0  0  0  0  0  0  0  0  0
    2.4841   -0.3541   -1.9004 H   0  0  0  0  0  0  0  0  0  0  0  0
    3.7360   -0.8603   -0.6439 H   0  0  0  0  0  0  0  0  0  0  0  0
    1.9670   -1.7046    0.5297 H   0  0  0  0  0  0  0  0  0  0  0  0
   -0.2019    0.1617    1.8327 H   0  0  0  0  0  0  0  0  0  0  0  0
    0.3714    1.8152    1.2429 H   0  0  0  0  0  0  0  0  0  0  0  0
    0.4558    1.1704   -0.9931 H   0  0  0  0  0  0  0  0  0  0  0  0
   -1.9827    1.4265   -0.3734 H   0  0  0  0  0  0  0  0  0  0  0  0
   -1.6721    0.2274   -1.6630 H   0  0  0  0  0  0  0  0  0  0  0  0
   -1.9177   -1.6186   -0.0337 H   0  0  0  0  0  0  0  0  0  0  0  0
   -2.1710   -0.4667    1.2918 H   0  0  0  0  0  0  0  0  0  0  0  0
   -3.8363    0.4299   -0.2569 H   0  0  0  0  0  0  0  0  0  0  0  0
  1  2  1  0
  2  3  1  0
  3  4  1  0
  4  5  1  0
  5  6  1  0
  6  7  1  0
  7  8  1  0
  5  9  1  0
  9  2  1  0
  1 10  1  0
  1 11  1  0
  1 12  1  0
  2 13  1  0
  4 14  1  0
  4 15  1  0
  5 16  1  0
  6 17  1  0
  6 18  1  0
  7 19  1  0
  7 20  1  0
  8 21  1  0
M  END
