
     RDKit          3D

 19 19  0  0  0  0  0  0  0  0999 V2000
   -2.0994   -0.7421    0.6330 C   0  0  0  0  0  0  0  0  0  0  0  0
   -1.6007    0.4192   -0.1855 C   0  0  0  0  0  0  0  0  0  0  0  0
   -1.1611    1.5408    0.5690 O   0  0  0  0  0  0  0  0  0  0  0  0
   -0.2231    1.7552   -0.4146 C   0  0  0  0  0  0  0  0  0  0  0  0
    0.3003    2.7721   -0.8823 O   0  0  0  0  0  0  0  0  0  0  0  0
   -0.1525    0.3071   -0.6210 C   0  0  0  0  0  0  0  0  0  0  0  0
    0.6241   -0.4757    0.4026 C   0  0  0  0  0  0  0  0  0  0  0  0
    2.0868   -0.6171    0.0116 C   0  0  0  0  0  0  0  0  0  0  0  0
    2.7150    0.5933   -0.1177 O   0  0  0  0  0  0  0  0  0  0  0  0
   -1.8739   -1.6669    0.0561 H   0  0  0  0  0  0  0  0  0  0  0  0
   -3.1780   -0.5869    0.8035 H   0  0  0  0  0  0  0  0  0  0  0  0
   -1.5333   -0.8416    1.5883 H   0  0  0  0  0  0  0  0  0  0  0  0
   -2.2648    0.6439   -1.0221 H   0  0  0  0  0  0  0  0  0  0  0  0
   -0.1031   -0.0548   -1.6540 H   0  0  0  0  0  0  0  0  0  0  0  0
    0.5660    0.0328    1.3631 H   0  0  0  0  0  0  0  0  0  0  0  0
    0.1484   -1.4727    0.4971 H   0  0  0  0  0  0  0  0  0  0  0  0
    2.2165   -1.2866   -0.8662 H   0  0  0  0  0  0  0  0  0  0  0  0
    2.5711   -1.1643    0.8698 H   0  0  0  0  0  0  0  0  0  0  0  0
    2.9617    0.8442   -1.0307 H   0  0  0  0  0  0  0  0  0  0  0  0
  1  2  1  0
  2  3  1  0
  3  4  1  0
  4  5  2  0
  4  6  1  0
  6  7  1  0
  7  8  1  0
  8  9  1  0
  6  2  1  0
  1 10  1  0
  1 11  1  0
  1 12  1  0
  2 13  1  0
  6 14  1  0
  7 15  1  0
  7 16  1  0
  8 17  1  0
  8 18  1  0
  9 19  1  0
M  END
