
     RDKit          3D

 19 20  0  0  0  0  0  0  0  0999 V2000
   -1.9556    0.5636   -0.9043 C   0  0  0  0  0  0  0  0  0  0  0  0
   -1.2482    0.4223    0.3799 C   0  0  0  0  0  0  0  0  0  0  0  0
   -0.2235    1.3417    0.5907 O   0  0  0  0  0  0  0  0  0  0  0  0
    0.8222    0.6289    1.1962 C   0  0  0  0  0  0  0  0  0  0  0  0
    0.2070   -0.5246    1.7458 O   0  0  0  0  0  0  0  0  0  0  0  0
   -0.5153   -0.8721    0.5723 C   0  0  0  0  0  0  0  0  0  0  0  0
    0.6034   -1.0348   -0.4187 C   0  0  0  0  0  0  0  0  0  0  0  0
    1.6597   -0.0743    0.1429 C   0  0  0  0  0  0  0  0  0  0  0  0
    2.1550    0.7734   -0.8123 O   0  0  0  0  0  0  0  0  0  0  0  0
   -2.1618    1.6181   -1.1348 H   0  0  0  0  0  0  0  0  0  0  0  0
   -2.9498    0.0484   -0.8154 H   0  0  0  0  0  0  0  0  0  0  0  0
   -1.4684    0.1281   -1.7844 H   0  0  0  0  0  0  0  0  0  0  0  0
   -1.9858    0.5308    1.2101 H   0  0  0  0  0  0  0  0  0  0  0  0
    1.3880    1.1927    1.9152 H   0  0  0  0  0  0  0  0  0  0  0  0
   -1.1389   -1.7424    0.7088 H   0  0  0  0  0  0  0  0  0  0  0  0
    0.3747   -0.6677   -1.4230 H   0  0  0  0  0  0  0  0  0  0  0  0
    0.9724   -2.0627   -0.4698 H   0  0  0  0  0  0  0  0  0  0  0  0
    2.4208   -0.6812    0.6638 H   0  0  0  0  0  0  0  0  0  0  0  0
    3.0441    0.4121   -1.1033 H   0  0  0  0  0  0  0  0  0  0  0  0
  1  2  1  0
  2  3  1  0
  3  4  1  0
  4  5  1  0
  5  6  1  0
  6  7  1  0
  7  8  1  0
  8  9  1  0
  6  2  1  0
  8  4  1  0
  1 10  1  0
  1 11  1  0
  1 12  1  0
  2 13  1  0
  4 14  1  0
  6 15  1  0
  7 16  1  0
  7 17  1  0
  8 18  1  0
  9 19  1  0
M  END
