
     RDKit          3D

 19 20  0  0  0  0  0  0  0  0999 V2000
   -2.0936    0.8144   -0.1527 C   0  0  0  0  0  0  0  0  0  0  0  0
   -1.8641   -0.6620   -0.0907 C   0  0  0  0  0  0  0  0  0  0  0  0
   -0.9814   -1.2597   -0.9913 O   0  0  0  0  0  0  0  0  0  0  0  0
   -0.6091   -1.2651    0.3295 C   0  0  0  0  0  0  0  0  0  0  0  0
    0.5520   -0.4200    0.7921 C   0  0  0  0  0  0  0  0  0  0  0  0
    1.8251   -0.7453    0.0462 C   0  0  0  0  0  0  0  0  0  0  0  0
    1.9933    0.3967   -0.7641 O   0  0  0  0  0  0  0  0  0  0  0  0
    1.6468    1.3822    0.1892 C   0  0  0  0  0  0  0  0  0  0  0  0
    0.3836    0.9242    0.5706 O   0  0  0  0  0  0  0  0  0  0  0  0
   -1.9943    1.3103    0.8480 H   0  0  0  0  0  0  0  0  0  0  0  0
   -3.1209    1.0204   -0.5374 H   0  0  0  0  0  0  0  0  0  0  0  0
   -1.4093    1.3314   -0.8728 H   0  0  0  0  0  0  0  0  0  0  0  0
   -2.8145   -1.2543    0.0564 H   0  0  0  0  0  0  0  0  0  0  0  0
   -0.6728   -2.2456    0.8805 H   0  0  0  0  0  0  0  0  0  0  0  0
    0.7389   -0.5826    1.8705 H   0  0  0  0  0  0  0  0  0  0  0  0
    1.7459   -1.6543   -0.5523 H   0  0  0  0  0  0  0  0  0  0  0  0
    2.6927   -0.7396    0.7427 H   0  0  0  0  0  0  0  0  0  0  0  0
    1.6210    2.3850   -0.2477 H   0  0  0  0  0  0  0  0  0  0  0  0
    2.3606    1.2642    1.0150 H   0  0  0  0  0  0  0  0  0  0  0  0
  1  2  1  0
  2  3  1  0
  3  4  1  0
  4  5  1  0
  5  6  1  0
  6  7  1  0
  7  8  1  0
  8  9  1  0
  4  2  1  0
  9  5  1  0
  1 10  1  0
  1 11  1  0
  1 12  1  0
  2 13  1  0
  4 14  1  0
  5 15  1  0
  6 16  1  0
  6 17  1  0
  8 18  1  0
  8 19  1  0
M  END
