
     RDKit          3D

 19 21  0  0  0  0  0  0  0  0999 V2000
    2.3741    0.0822   -0.1037 C   0  0  0  0  0  0  0  0  0  0  0  0
    0.9586    0.4934   -0.1517 C   0  0  0  0  0  0  0  0  0  0  0  0
    0.3430    0.2297   -1.4034 O   0  0  0  0  0  0  0  0  0  0  0  0
   -0.7924   -0.4801   -1.0561 C   0  0  0  0  0  0  0  0  0  0  0  0
   -0.1967   -1.5302   -0.1034 C   0  0  0  0  0  0  0  0  0  0  0  0
    0.0349   -0.2687    0.7458 C   0  0  0  0  0  0  0  0  0  0  0  0
   -1.2848    0.1818    0.1812 C   0  0  0  0  0  0  0  0  0  0  0  0
   -1.9775    1.3099    0.4249 C   0  0  0  0  0  0  0  0  0  0  0  0
   -2.4697   -0.0716    0.7719 O   0  0  0  0  0  0  0  0  0  0  0  0
    2.9881    0.9877    0.1798 H   0  0  0  0  0  0  0  0  0  0  0  0
    2.7493   -0.2249   -1.0899 H   0  0  0  0  0  0  0  0  0  0  0  0
    2.5740   -0.6558    0.6969 H   0  0  0  0  0  0  0  0  0  0  0  0
    0.7945    1.5855    0.0111 H   0  0  0  0  0  0  0  0  0  0  0  0
   -1.4585   -0.8259   -1.8032 H   0  0  0  0  0  0  0  0  0  0  0  0
    0.7092   -2.0081   -0.4623 H   0  0  0  0  0  0  0  0  0  0  0  0
   -1.0071   -2.1513    0.2810 H   0  0  0  0  0  0  0  0  0  0  0  0
    0.1924   -0.3708    1.7738 H   0  0  0  0  0  0  0  0  0  0  0  0
   -2.6903    1.7981   -0.2602 H   0  0  0  0  0  0  0  0  0  0  0  0
   -1.8410    1.9192    1.3676 H   0  0  0  0  0  0  0  0  0  0  0  0
  1  2  1  0
  2  3  1  0
  3  4  1  0
  4  5  1  0
  5  6  1  0
  6  7  1  0
  7  8  1  0
  8  9  1  0
  6  2  1  0
  9  7  1  0
  7  4  1  0
  1 10  1  0
  1 11  1  0
  1 12  1  0
  2 13  1  0
  4 14  1  0
  5 15  1  0
  5 16  1  0
  6 17  1  0
  8 18  1  0
  8 19  1  0
M  END
