
     RDKit          3D

 19 19  0  0  0  0  0  0  0  0999 V2000
    2.6782   -0.4056    0.4002 C   0  0  0  0  0  0  0  0  0  0  0  0
    1.4851   -0.4804   -0.4860 C   0  0  0  0  0  0  0  0  0  0  0  0
    0.7092   -1.6241   -0.5665 O   0  0  0  0  0  0  0  0  0  0  0  0
    0.1791   -0.6588    0.2562 C   0  0  0  0  0  0  0  0  0  0  0  0
   -0.9289    0.2283   -0.1512 C   0  0  0  0  0  0  0  0  0  0  0  0
   -2.1951   -0.5103   -0.5392 C   0  0  0  0  0  0  0  0  0  0  0  0
   -0.5494    0.9678   -1.2658 O   0  0  0  0  0  0  0  0  0  0  0  0
   -1.2827    1.1370    0.9670 C   0  0  0  0  0  0  0  0  0  0  0  0
   -1.2039    2.3374    0.7869 O   0  0  0  0  0  0  0  0  0  0  0  0
    2.9024    0.6904    0.5642 H   0  0  0  0  0  0  0  0  0  0  0  0
    2.4781   -0.8519    1.3819 H   0  0  0  0  0  0  0  0  0  0  0  0
    3.5830   -0.8129   -0.0941 H   0  0  0  0  0  0  0  0  0  0  0  0
    1.4995    0.1953   -1.3581 H   0  0  0  0  0  0  0  0  0  0  0  0
    0.2148   -0.9268    1.3375 H   0  0  0  0  0  0  0  0  0  0  0  0
   -2.8955    0.2858   -0.9291 H   0  0  0  0  0  0  0  0  0  0  0  0
   -2.7092   -0.9551    0.3237 H   0  0  0  0  0  0  0  0  0  0  0  0
   -2.0363   -1.2044   -1.3791 H   0  0  0  0  0  0  0  0  0  0  0  0
   -0.3285    1.9029   -1.0575 H   0  0  0  0  0  0  0  0  0  0  0  0
   -1.5996    0.6855    1.9065 H   0  0  0  0  0  0  0  0  0  0  0  0
  1  2  1  0
  2  3  1  0
  3  4  1  0
  4  5  1  0
  5  6  1  0
  5  7  1  0
  5  8  1  0
  8  9  2  0
  4  2  1  0
  1 10  1  0
  1 11  1  0
  1 12  1  0
  2 13  1  0
  4 14  1  0
  6 15  1  0
  6 16  1  0
  6 17  1  0
  7 18  1  0
  8 19  1  0
M  END
