
     RDKit          3D

 17 17  0  0  0  0  0  0  0  0999 V2000
    1.8419   -0.6263    0.6633 C   0  0  0  0  0  0  0  0  0  0  0  0
    1.0337    0.2264   -0.2745 C   0  0  0  0  0  0  0  0  0  0  0  0
    0.5419   -0.5426   -1.3538 O   0  0  0  0  0  0  0  0  0  0  0  0
   -0.7932   -0.9005   -1.1234 C   0  0  0  0  0  0  0  0  0  0  0  0
   -1.4855   -1.6300   -1.8764 O   0  0  0  0  0  0  0  0  0  0  0  0
   -1.2670   -0.2889    0.1431 C   0  0  0  0  0  0  0  0  0  0  0  0
   -2.5120    0.3419   -0.0725 O   0  0  0  0  0  0  0  0  0  0  0  0
   -0.2045    0.7973    0.3502 C   0  0  0  0  0  0  0  0  0  0  0  0
   -0.6231    1.8613   -0.4710 O   0  0  0  0  0  0  0  0  0  0  0  0
    1.2074   -1.1849    1.3920 H   0  0  0  0  0  0  0  0  0  0  0  0
    2.6360   -0.0428    1.1976 H   0  0  0  0  0  0  0  0  0  0  0  0
    2.3990   -1.3594    0.0159 H   0  0  0  0  0  0  0  0  0  0  0  0
    1.6393    1.0625   -0.6517 H   0  0  0  0  0  0  0  0  0  0  0  0
   -1.2983   -0.9825    0.9788 H   0  0  0  0  0  0  0  0  0  0  0  0
   -3.1969   -0.2860    0.2119 H   0  0  0  0  0  0  0  0  0  0  0  0
   -0.0938    1.0818    1.3929 H   0  0  0  0  0  0  0  0  0  0  0  0
    0.1752    2.4726   -0.5225 H   0  0  0  0  0  0  0  0  0  0  0  0
  1  2  1  0
  2  3  1  0
  3  4  1  0
  4  5  2  0
  4  6  1  0
  6  7  1  0
  6  8  1  0
  8  9  1  0
  8  2  1  0
  1 10  1  0
  1 11  1  0
  1 12  1  0
  2 13  1  0
  6 14  1  0
  7 15  1  0
  8 16  1  0
  9 17  1  0
M  END
