
     RDKit          3D

 19 19  0  0  0  0  0  0  0  0999 V2000
    2.0492   -0.6159   -0.9436 C   0  0  0  0  0  0  0  0  0  0  0  0
    1.0984   -0.6056    0.1978 C   0  0  0  0  0  0  0  0  0  0  0  0
    0.2099   -1.6792    0.2807 O   0  0  0  0  0  0  0  0  0  0  0  0
   -0.7066   -0.7465    0.8276 C   0  0  0  0  0  0  0  0  0  0  0  0
   -2.1403   -1.0897    0.6384 C   0  0  0  0  0  0  0  0  0  0  0  0
   -0.1137    0.2725   -0.0975 C   0  0  0  0  0  0  0  0  0  0  0  0
    0.0725    1.5586    0.3696 O   0  0  0  0  0  0  0  0  0  0  0  0
   -0.1164    2.7198   -0.3610 C   0  0  0  0  0  0  0  0  0  0  0  0
   -0.4892    2.5959   -1.5510 O   0  0  0  0  0  0  0  0  0  0  0  0
    1.6672   -1.1992   -1.8137 H   0  0  0  0  0  0  0  0  0  0  0  0
    2.2264    0.4319   -1.2852 H   0  0  0  0  0  0  0  0  0  0  0  0
    3.0676   -0.9901   -0.6414 H   0  0  0  0  0  0  0  0  0  0  0  0
    1.5992   -0.3961    1.1594 H   0  0  0  0  0  0  0  0  0  0  0  0
   -0.4053   -0.6020    1.8955 H   0  0  0  0  0  0  0  0  0  0  0  0
   -2.5921   -0.5348   -0.2304 H   0  0  0  0  0  0  0  0  0  0  0  0
   -2.3380   -2.1784    0.5659 H   0  0  0  0  0  0  0  0  0  0  0  0
   -2.7133   -0.7430    1.5387 H   0  0  0  0  0  0  0  0  0  0  0  0
   -0.4379    0.1432   -1.1305 H   0  0  0  0  0  0  0  0  0  0  0  0
    0.0624    3.6586    0.1185 H   0  0  0  0  0  0  0  0  0  0  0  0
  1  2  1  0
  2  3  1  0
  3  4  1  0
  4  5  1  0
  4  6  1  0
  6  7  1  0
  7  8  1  0
  8  9  2  0
  6  2  1  0
  1 10  1  0
  1 11  1  0
  1 12  1  0
  2 13  1  0
  4 14  1  0
  5 15  1  0
  5 16  1  0
  5 17  1  0
  6 18  1  0
  8 19  1  0
M  END
