
     RDKit          3D

 19 19  0  0  0  0  0  0  0  0999 V2000
   -1.7592   -0.5325   -1.0189 C   0  0  0  0  0  0  0  0  0  0  0  0
   -0.8358   -1.4616   -1.7133 C   0  0  0  0  0  0  0  0  0  0  0  0
    0.3139   -1.7934   -0.8291 O   0  0  0  0  0  0  0  0  0  0  0  0
    0.5541   -1.1494   -2.0457 C   0  0  0  0  0  0  0  0  0  0  0  0
    1.0281    0.2876   -1.9919 C   0  0  0  0  0  0  0  0  0  0  0  0
    0.8344    0.7380   -0.5882 C   0  0  0  0  0  0  0  0  0  0  0  0
    0.7013    1.0990    0.5176 C   0  0  0  0  0  0  0  0  0  0  0  0
    0.5065    1.5517    1.9348 C   0  0  0  0  0  0  0  0  0  0  0  0
    0.3653    0.4109    2.6880 O   0  0  0  0  0  0  0  0  0  0  0  0
   -1.6584   -0.5516    0.0763 H   0  0  0  0  0  0  0  0  0  0  0  0
   -1.6794    0.4999   -1.4249 H   0  0  0  0  0  0  0  0  0  0  0  0
   -2.8160   -0.8466   -1.2433 H   0  0  0  0  0  0  0  0  0  0  0  0
   -1.2865   -2.4147   -2.0857 H   0  0  0  0  0  0  0  0  0  0  0  0
    1.0534   -1.7626   -2.8015 H   0  0  0  0  0  0  0  0  0  0  0  0
    2.1028    0.3068   -2.2324 H   0  0  0  0  0  0  0  0  0  0  0  0
    0.4812    0.9280   -2.6845 H   0  0  0  0  0  0  0  0  0  0  0  0
    1.4282    2.0827    2.2960 H   0  0  0  0  0  0  0  0  0  0  0  0
   -0.3260    2.2702    2.0071 H   0  0  0  0  0  0  0  0  0  0  0  0
    0.9919    0.3376    3.4492 H   0  0  0  0  0  0  0  0  0  0  0  0
  1  2  1  0
  2  3  1  0
  3  4  1  0
  4  5  1  0
  5  6  1  0
  6  7  3  0
  7  8  1  0
  8  9  1  0
  4  2  1  0
  1 10  1  0
  1 11  1  0
  1 12  1  0
  2 13  1  0
  4 14  1  0
  5 15  1  0
  5 16  1  0
  8 17  1  0
  8 18  1  0
  9 19  1  0
M  END
