
     RDKit          3D

 21 22  0  0  0  0  0  0  0  0999 V2000
   -0.4334    2.1112   -0.0129 C   0  0  0  0  0  0  0  0  0  0  0  0
   -0.7759    0.7366   -0.4587 C   0  0  0  0  0  0  0  0  0  0  0  0
   -1.8195    0.2582    0.3245 O   0  0  0  0  0  0  0  0  0  0  0  0
   -1.8906   -1.1094    0.1244 C   0  0  0  0  0  0  0  0  0  0  0  0
   -0.5217   -1.5838   -0.2819 C   0  0  0  0  0  0  0  0  0  0  0  0
    0.2883   -0.2813   -0.2560 C   0  0  0  0  0  0  0  0  0  0  0  0
    1.1717   -0.1642    0.9239 C   0  0  0  0  0  0  0  0  0  0  0  0
    2.2382   -0.2242   -0.1395 C   0  0  0  0  0  0  0  0  0  0  0  0
    1.3140   -0.2768   -1.1647 O   0  0  0  0  0  0  0  0  0  0  0  0
   -0.4347    2.2101    1.0857 H   0  0  0  0  0  0  0  0  0  0  0  0
   -1.2341    2.7997   -0.4108 H   0  0  0  0  0  0  0  0  0  0  0  0
    0.5114    2.4999   -0.4702 H   0  0  0  0  0  0  0  0  0  0  0  0
   -1.0461    0.7802   -1.5391 H   0  0  0  0  0  0  0  0  0  0  0  0
   -2.2206   -1.5609    1.0826 H   0  0  0  0  0  0  0  0  0  0  0  0
   -2.6552   -1.2850   -0.6583 H   0  0  0  0  0  0  0  0  0  0  0  0
   -0.5811   -1.8848   -1.3451 H   0  0  0  0  0  0  0  0  0  0  0  0
   -0.1174   -2.3404    0.3885 H   0  0  0  0  0  0  0  0  0  0  0  0
    1.2223    0.7945    1.4549 H   0  0  0  0  0  0  0  0  0  0  0  0
    1.2327   -1.0339    1.6148 H   0  0  0  0  0  0  0  0  0  0  0  0
    2.8757    0.6921   -0.2060 H   0  0  0  0  0  0  0  0  0  0  0  0
    2.8763   -1.1378   -0.0559 H   0  0  0  0  0  0  0  0  0  0  0  0
  1  2  1  0
  2  3  1  0
  3  4  1  0
  4  5  1  0
  5  6  1  0
  6  7  1  0
  7  8  1  0
  8  9  1  0
  6  2  1  0
  9  6  1  0
  1 10  1  0
  1 11  1  0
  1 12  1  0
  2 13  1  0
  4 14  1  0
  4 15  1  0
  5 16  1  0
  5 17  1  0
  7 18  1  0
  7 19  1  0
  8 20  1  0
  8 21  1  0
M  END
