
     RDKit          3D

 23 24  0  0  0  0  0  0  0  0999 V2000
    2.4196    0.5498    0.2958 C   0  0  0  0  0  0  0  0  0  0  0  0
    1.2215   -0.2692    0.7548 C   0  0  0  0  0  0  0  0  0  0  0  0
    0.2278    0.6590    1.0621 O   0  0  0  0  0  0  0  0  0  0  0  0
   -0.7820    0.5530    0.1300 C   0  0  0  0  0  0  0  0  0  0  0  0
   -1.5208    1.7857   -0.1689 C   0  0  0  0  0  0  0  0  0  0  0  0
   -1.5997   -0.6512    0.4385 C   0  0  0  0  0  0  0  0  0  0  0  0
   -0.5889   -1.7837    0.1953 C   0  0  0  0  0  0  0  0  0  0  0  0
    0.6383   -1.0881   -0.3617 C   0  0  0  0  0  0  0  0  0  0  0  0
   -0.0522    0.0534   -1.1334 C   0  0  0  0  0  0  0  0  0  0  0  0
    3.1225    0.7451    1.1186 H   0  0  0  0  0  0  0  0  0  0  0  0
    2.1190    1.5266   -0.1340 H   0  0  0  0  0  0  0  0  0  0  0  0
    2.9231   -0.0360   -0.4919 H   0  0  0  0  0  0  0  0  0  0  0  0
    1.5206   -0.8620    1.6337 H   0  0  0  0  0  0  0  0  0  0  0  0
   -2.2716    2.0195    0.6092 H   0  0  0  0  0  0  0  0  0  0  0  0
   -0.8228    2.6368   -0.2062 H   0  0  0  0  0  0  0  0  0  0  0  0
   -2.0047    1.6929   -1.1680 H   0  0  0  0  0  0  0  0  0  0  0  0
   -2.4561   -0.8137   -0.2441 H   0  0  0  0  0  0  0  0  0  0  0  0
   -1.9756   -0.7125    1.4659 H   0  0  0  0  0  0  0  0  0  0  0  0
   -0.9588   -2.4606   -0.6189 H   0  0  0  0  0  0  0  0  0  0  0  0
   -0.3708   -2.3234    1.1320 H   0  0  0  0  0  0  0  0  0  0  0  0
    1.2999   -1.6786   -0.9429 H   0  0  0  0  0  0  0  0  0  0  0  0
    0.6677    0.7859   -1.4900 H   0  0  0  0  0  0  0  0  0  0  0  0
   -0.7559   -0.3285   -1.8760 H   0  0  0  0  0  0  0  0  0  0  0  0
  1  2  1  0
  2  3  1  0
  3  4  1  0
  4  5  1  0
  4  6  1  0
  6  7  1  0
  7  8  1  0
  8  9  1  0
  8  2  1  0
  9  4  1  0
  1 10  1  0
  1 11  1  0
  1 12  1  0
  2 13  1  0
  5 14  1  0
  5 15  1  0
  5 16  1  0
  6 17  1  0
  6 18  1  0
  7 19  1  0
  7 20  1  0
  8 21  1  0
  9 22  1  0
  9 23  1  0
M  END
