
     RDKit          3D

 19 21  0  0  0  0  0  0  0  0999 V2000
    2.1450    0.3372    0.4141 C   0  0  0  0  0  0  0  0  0  0  0  0
    1.0954   -0.4297   -0.3577 C   0  0  0  0  0  0  0  0  0  0  0  0
    0.6360   -1.4848    0.3687 O   0  0  0  0  0  0  0  0  0  0  0  0
   -0.7229   -1.5150    0.3675 C   0  0  0  0  0  0  0  0  0  0  0  0
   -1.2529   -0.4914   -0.5736 C   0  0  0  0  0  0  0  0  0  0  0  0
   -1.8205    0.7209    0.1013 C   0  0  0  0  0  0  0  0  0  0  0  0
   -1.0718    0.9827    1.3452 O   0  0  0  0  0  0  0  0  0  0  0  0
   -0.6392    1.3826    0.1080 C   0  0  0  0  0  0  0  0  0  0  0  0
   -0.0268    0.3921   -0.8488 C   0  0  0  0  0  0  0  0  0  0  0  0
    1.7464    1.1107    1.0643 H   0  0  0  0  0  0  0  0  0  0  0  0
    2.9481    0.7044   -0.2849 H   0  0  0  0  0  0  0  0  0  0  0  0
    2.6699   -0.4244    1.0541 H   0  0  0  0  0  0  0  0  0  0  0  0
    1.6338   -0.8530   -1.2526 H   0  0  0  0  0  0  0  0  0  0  0  0
   -1.0688   -1.2453    1.4078 H   0  0  0  0  0  0  0  0  0  0  0  0
   -1.1631   -2.5202    0.1810 H   0  0  0  0  0  0  0  0  0  0  0  0
   -1.7831   -0.8324   -1.4592 H   0  0  0  0  0  0  0  0  0  0  0  0
   -2.8628    0.9001    0.2378 H   0  0  0  0  0  0  0  0  0  0  0  0
   -0.4795    2.4552   -0.0138 H   0  0  0  0  0  0  0  0  0  0  0  0
    0.0167    0.8101   -1.8593 H   0  0  0  0  0  0  0  0  0  0  0  0
  1  2  1  0
  2  3  1  0
  3  4  1  0
  4  5  1  0
  5  6  1  0
  6  7  1  0
  7  8  1  0
  8  9  1  0
  9  2  1  0
  9  5  1  0
  8  6  1  0
  1 10  1  0
  1 11  1  0
  1 12  1  0
  2 13  1  0
  4 14  1  0
  4 15  1  0
  5 16  1  0
  6 17  1  0
  8 18  1  0
  9 19  1  0
M  END
