
     RDKit          3D

 21 23  0  0  0  0  0  0  0  0999 V2000
    1.9778   -0.9653   -0.0034 C   0  0  0  0  0  0  0  0  0  0  0  0
    0.8177   -0.4576    0.7795 C   0  0  0  0  0  0  0  0  0  0  0  0
   -0.1274   -1.3880    1.1030 O   0  0  0  0  0  0  0  0  0  0  0  0
   -1.3874   -0.8859    0.8579 C   0  0  0  0  0  0  0  0  0  0  0  0
   -1.7193   -1.1114   -0.6270 C   0  0  0  0  0  0  0  0  0  0  0  0
   -1.0427    0.2264   -0.8852 C   0  0  0  0  0  0  0  0  0  0  0  0
   -1.2411    0.5600    0.5146 C   0  0  0  0  0  0  0  0  0  0  0  0
    0.1159    0.6239   -0.0488 C   0  0  0  0  0  0  0  0  0  0  0  0
    0.8010    1.8993   -0.3299 C   0  0  0  0  0  0  0  0  0  0  0  0
    2.9513   -0.5444    0.3800 H   0  0  0  0  0  0  0  0  0  0  0  0
    2.1041   -2.0549    0.0041 H   0  0  0  0  0  0  0  0  0  0  0  0
    1.9596   -0.6512   -1.0845 H   0  0  0  0  0  0  0  0  0  0  0  0
    1.2058    0.0714    1.6971 H   0  0  0  0  0  0  0  0  0  0  0  0
   -2.1851   -1.1704    1.5468 H   0  0  0  0  0  0  0  0  0  0  0  0
   -1.2385   -1.9841   -1.0676 H   0  0  0  0  0  0  0  0  0  0  0  0
   -2.8293   -1.0909   -0.7816 H   0  0  0  0  0  0  0  0  0  0  0  0
   -1.3415    0.8413   -1.7325 H   0  0  0  0  0  0  0  0  0  0  0  0
   -1.8024    1.3541    0.9417 H   0  0  0  0  0  0  0  0  0  0  0  0
    1.9184    1.7841   -0.2953 H   0  0  0  0  0  0  0  0  0  0  0  0
    0.5492    2.7129    0.3961 H   0  0  0  0  0  0  0  0  0  0  0  0
    0.5139    2.2307   -1.3651 H   0  0  0  0  0  0  0  0  0  0  0  0
  1  2  1  0
  2  3  1  0
  3  4  1  0
  4  5  1  0
  5  6  1  0
  6  7  1  0
  7  8  1  0
  8  9  1  0
  8  2  1  0
  7  4  1  0
  8  6  1  0
  1 10  1  0
  1 11  1  0
  1 12  1  0
  2 13  1  0
  4 14  1  0
  5 15  1  0
  5 16  1  0
  6 17  1  0
  7 18  1  0
  9 19  1  0
  9 20  1  0
  9 21  1  0
M  END
