
     RDKit          3D

 21 22  0  0  0  0  0  0  0  0999 V2000
   -2.5549   -0.9540    0.2679 C   0  0  0  0  0  0  0  0  0  0  0  0
   -1.2293   -0.3041    0.3637 C   0  0  0  0  0  0  0  0  0  0  0  0
   -0.1563   -1.2213    0.3592 O   0  0  0  0  0  0  0  0  0  0  0  0
    0.9036   -0.3110    0.4654 C   0  0  0  0  0  0  0  0  0  0  0  0
    2.2453   -0.9747    0.2781 C   0  0  0  0  0  0  0  0  0  0  0  0
    3.2034    0.0407    0.4082 O   0  0  0  0  0  0  0  0  0  0  0  0
    0.6820    0.6532   -0.6514 C   0  0  0  0  0  0  0  0  0  0  0  0
   -0.1973    1.8262   -0.5252 C   0  0  0  0  0  0  0  0  0  0  0  0
   -0.8707    0.5610   -0.8179 C   0  0  0  0  0  0  0  0  0  0  0  0
   -2.6331   -1.8083   -0.4006 H   0  0  0  0  0  0  0  0  0  0  0  0
   -2.9140   -1.1739    1.3041 H   0  0  0  0  0  0  0  0  0  0  0  0
   -3.2841   -0.1841   -0.1214 H   0  0  0  0  0  0  0  0  0  0  0  0
   -1.1661    0.2727    1.2980 H   0  0  0  0  0  0  0  0  0  0  0  0
    0.8768    0.1261    1.4701 H   0  0  0  0  0  0  0  0  0  0  0  0
    2.3455   -1.3271   -0.7906 H   0  0  0  0  0  0  0  0  0  0  0  0
    2.4254   -1.8026    0.9904 H   0  0  0  0  0  0  0  0  0  0  0  0
    2.8135    0.9390    0.3757 H   0  0  0  0  0  0  0  0  0  0  0  0
    1.2728    0.5378   -1.5805 H   0  0  0  0  0  0  0  0  0  0  0  0
   -0.4225    2.2867    0.4758 H   0  0  0  0  0  0  0  0  0  0  0  0
   -0.1503    2.5668   -1.3389 H   0  0  0  0  0  0  0  0  0  0  0  0
   -1.1899    0.2507   -1.8300 H   0  0  0  0  0  0  0  0  0  0  0  0
  1  2  1  0
  2  3  1  0
  3  4  1  0
  4  5  1  0
  5  6  1  0
  4  7  1  0
  7  8  1  0
  8  9  1  0
  9  2  1  0
  9  7  1  0
  1 10  1  0
  1 11  1  0
  1 12  1  0
  2 13  1  0
  4 14  1  0
  5 15  1  0
  5 16  1  0
  6 17  1  0
  7 18  1  0
  8 19  1  0
  8 20  1  0
  9 21  1  0
M  END
