
     RDKit          3D

 15 16  0  0  0  0  0  0  0  0999 V2000
   -2.0004    0.1000    0.7165 C   0  0  0  0  0  0  0  0  0  0  0  0
   -1.5025   -0.1806   -0.6920 C   0  0  0  0  0  0  0  0  0  0  0  0
   -0.5934    0.8310   -1.0218 O   0  0  0  0  0  0  0  0  0  0  0  0
    0.6525    0.4655   -0.5342 C   0  0  0  0  0  0  0  0  0  0  0  0
    1.9348    0.8450   -0.1791 C   0  0  0  0  0  0  0  0  0  0  0  0
    2.5508   -0.2978    0.2490 C   0  0  0  0  0  0  0  0  0  0  0  0
    1.7257   -1.2865    0.1652 O   0  0  0  0  0  0  0  0  0  0  0  0
    0.5790   -0.8905   -0.2952 C   0  0  0  0  0  0  0  0  0  0  0  0
   -0.7014   -1.3337   -0.6373 O   0  0  0  0  0  0  0  0  0  0  0  0
   -1.1181    0.4644    1.3196 H   0  0  0  0  0  0  0  0  0  0  0  0
   -2.3131   -0.8509    1.2182 H   0  0  0  0  0  0  0  0  0  0  0  0
   -2.8003    0.8424    0.7494 H   0  0  0  0  0  0  0  0  0  0  0  0
   -2.3321   -0.2573   -1.4126 H   0  0  0  0  0  0  0  0  0  0  0  0
    2.3300    1.8697   -0.2461 H   0  0  0  0  0  0  0  0  0  0  0  0
    3.5884   -0.3206    0.6004 H   0  0  0  0  0  0  0  0  0  0  0  0
  1  2  1  0
  2  3  1  0
  3  4  1  0
  4  5  1  0
  5  6  2  0
  6  7  1  0
  7  8  1  0
  8  9  1  0
  9  2  1  0
  8  4  2  0
  1 10  1  0
  1 11  1  0
  1 12  1  0
  2 13  1  0
  5 14  1  0
  6 15  1  0
M  END
