
     RDKit          3D

 16 16  0  0  0  0  0  0  0  0999 V2000
    2.2006    0.8734    0.0545 C   0  0  0  0  0  0  0  0  0  0  0  0
    1.4637   -0.4207    0.1372 C   0  0  0  0  0  0  0  0  0  0  0  0
    1.0094   -1.0779   -0.9715 O   0  0  0  0  0  0  0  0  0  0  0  0
    0.0101   -0.3776   -0.3468 C   0  0  0  0  0  0  0  0  0  0  0  0
   -0.9270   -1.0105    0.6225 C   0  0  0  0  0  0  0  0  0  0  0  0
   -1.8290   -0.0187    1.0673 O   0  0  0  0  0  0  0  0  0  0  0  0
   -2.6460    0.5846    0.1273 C   0  0  0  0  0  0  0  0  0  0  0  0
   -2.5798    0.2496   -1.0791 O   0  0  0  0  0  0  0  0  0  0  0  0
    2.2412    1.3093   -0.9565 H   0  0  0  0  0  0  0  0  0  0  0  0
    1.6921    1.5879    0.7608 H   0  0  0  0  0  0  0  0  0  0  0  0
    3.2188    0.7273    0.5011 H   0  0  0  0  0  0  0  0  0  0  0  0
    1.7313   -1.0673    0.9846 H   0  0  0  0  0  0  0  0  0  0  0  0
   -0.3106    0.5601   -0.8345 H   0  0  0  0  0  0  0  0  0  0  0  0
   -0.4298   -1.4071    1.5506 H   0  0  0  0  0  0  0  0  0  0  0  0
   -1.4752   -1.8795    0.2002 H   0  0  0  0  0  0  0  0  0  0  0  0
   -3.3698    1.3672    0.4073 H   0  0  0  0  0  0  0  0  0  0  0  0
  1  2  1  0
  2  3  1  0
  3  4  1  0
  4  5  1  0
  5  6  1  0
  6  7  1  0
  7  8  2  0
  4  2  1  0
  1  9  1  0
  1 10  1  0
  1 11  1  0
  2 12  1  0
  4 13  1  0
  5 14  1  0
  5 15  1  0
  7 16  1  0
M  END
