
     RDKit          3D

 18 19  0  0  0  0  0  0  0  0999 V2000
   -1.9824   -0.8310    0.2125 C   0  0  0  0  0  0  0  0  0  0  0  0
   -1.3224    0.5091    0.5611 C   0  0  0  0  0  0  0  0  0  0  0  0
   -1.4073    1.4137   -0.5144 O   0  0  0  0  0  0  0  0  0  0  0  0
   -0.0250    1.6596   -0.3955 C   0  0  0  0  0  0  0  0  0  0  0  0
    0.1364    0.4172    0.3427 C   0  0  0  0  0  0  0  0  0  0  0  0
    1.0603    0.3287    1.3263 O   0  0  0  0  0  0  0  0  0  0  0  0
    0.9642   -0.6505    0.3183 C   0  0  0  0  0  0  0  0  0  0  0  0
    2.1360   -0.7619   -0.6548 C   0  0  0  0  0  0  0  0  0  0  0  0
   -1.3089   -1.4416   -0.4364 H   0  0  0  0  0  0  0  0  0  0  0  0
   -2.1714   -1.3348    1.1646 H   0  0  0  0  0  0  0  0  0  0  0  0
   -2.8785   -0.6127   -0.3860 H   0  0  0  0  0  0  0  0  0  0  0  0
   -1.6795    0.9563    1.4870 H   0  0  0  0  0  0  0  0  0  0  0  0
    0.5018    1.8445   -1.3257 H   0  0  0  0  0  0  0  0  0  0  0  0
    0.0841    2.5620    0.2756 H   0  0  0  0  0  0  0  0  0  0  0  0
    0.6959   -1.6431    0.7472 H   0  0  0  0  0  0  0  0  0  0  0  0
    3.0941   -0.8064   -0.1049 H   0  0  0  0  0  0  0  0  0  0  0  0
    1.9877   -1.6861   -1.2392 H   0  0  0  0  0  0  0  0  0  0  0  0
    2.1149    0.0769   -1.3786 H   0  0  0  0  0  0  0  0  0  0  0  0
  1  2  1  0
  2  3  1  0
  3  4  1  0
  4  5  1  0
  5  6  1  0
  6  7  1  0
  7  8  1  0
  5  2  1  0
  7  5  1  0
  1  9  1  0
  1 10  1  0
  1 11  1  0
  2 12  1  0
  4 13  1  0
  4 14  1  0
  7 15  1  0
  8 16  1  0
  8 17  1  0
  8 18  1  0
M  END
