
     RDKit          3D

 17 18  0  0  0  0  0  0  0  0999 V2000
    2.0291   -0.7777    0.3084 C   0  0  0  0  0  0  0  0  0  0  0  0
    1.0934    0.3859    0.1792 C   0  0  0  0  0  0  0  0  0  0  0  0
    1.1520    1.0403   -1.0734 O   0  0  0  0  0  0  0  0  0  0  0  0
   -0.2145    1.3438   -0.8719 C   0  0  0  0  0  0  0  0  0  0  0  0
   -0.3086    0.0981   -0.0850 C   0  0  0  0  0  0  0  0  0  0  0  0
   -0.6938   -1.0540   -0.7037 O   0  0  0  0  0  0  0  0  0  0  0  0
   -1.9720   -0.8401   -0.1303 C   0  0  0  0  0  0  0  0  0  0  0  0
   -1.2791   -0.0768    0.9387 C   0  0  0  0  0  0  0  0  0  0  0  0
   -1.5627    0.1722    2.0843 O   0  0  0  0  0  0  0  0  0  0  0  0
    2.2944   -1.1085   -0.7151 H   0  0  0  0  0  0  0  0  0  0  0  0
    2.9243   -0.4384    0.8893 H   0  0  0  0  0  0  0  0  0  0  0  0
    1.5037   -1.5886    0.8246 H   0  0  0  0  0  0  0  0  0  0  0  0
    1.2328    1.1574    0.9682 H   0  0  0  0  0  0  0  0  0  0  0  0
   -0.2680    2.2603   -0.2544 H   0  0  0  0  0  0  0  0  0  0  0  0
   -0.8192    1.3391   -1.7950 H   0  0  0  0  0  0  0  0  0  0  0  0
   -2.6131   -0.1701   -0.7369 H   0  0  0  0  0  0  0  0  0  0  0  0
   -2.4986   -1.7429    0.1730 H   0  0  0  0  0  0  0  0  0  0  0  0
  1  2  1  0
  2  3  1  0
  3  4  1  0
  4  5  1  0
  5  6  1  0
  6  7  1  0
  7  8  1  0
  8  9  2  0
  5  2  1  0
  8  5  1  0
  1 10  1  0
  1 11  1  0
  1 12  1  0
  2 13  1  0
  4 14  1  0
  4 15  1  0
  7 16  1  0
  7 17  1  0
M  END
