
     RDKit          3D

 19 20  0  0  0  0  0  0  0  0999 V2000
    1.9903    0.4953   -0.4043 C   0  0  0  0  0  0  0  0  0  0  0  0
    0.9753   -0.4693    0.1041 C   0  0  0  0  0  0  0  0  0  0  0  0
    0.5372   -1.3694   -0.9018 O   0  0  0  0  0  0  0  0  0  0  0  0
   -0.8181   -1.2081   -0.8902 C   0  0  0  0  0  0  0  0  0  0  0  0
   -1.2336   -1.0183    0.5792 C   0  0  0  0  0  0  0  0  0  0  0  0
   -0.3252    0.1855    0.4482 C   0  0  0  0  0  0  0  0  0  0  0  0
   -0.4129    1.2581    1.3542 C   0  0  0  0  0  0  0  0  0  0  0  0
   -1.4257    1.5068    1.9828 O   0  0  0  0  0  0  0  0  0  0  0  0
   -0.9443    0.3243   -0.9527 C   0  0  0  0  0  0  0  0  0  0  0  0
    1.8583    1.4896    0.0776 H   0  0  0  0  0  0  0  0  0  0  0  0
    1.9265    0.6680   -1.5019 H   0  0  0  0  0  0  0  0  0  0  0  0
    3.0117    0.1407   -0.1051 H   0  0  0  0  0  0  0  0  0  0  0  0
    1.3321   -1.0806    0.9349 H   0  0  0  0  0  0  0  0  0  0  0  0
   -1.4642   -1.7741   -1.5096 H   0  0  0  0  0  0  0  0  0  0  0  0
   -2.2764   -0.6954    0.6431 H   0  0  0  0  0  0  0  0  0  0  0  0
   -0.8970   -1.8103    1.2518 H   0  0  0  0  0  0  0  0  0  0  0  0
    0.4323    1.9152    1.5300 H   0  0  0  0  0  0  0  0  0  0  0  0
   -1.9911    0.6680   -0.9438 H   0  0  0  0  0  0  0  0  0  0  0  0
   -0.2752    0.7738   -1.6964 H   0  0  0  0  0  0  0  0  0  0  0  0
  1  2  1  0
  2  3  1  0
  3  4  1  0
  4  5  1  0
  5  6  1  0
  6  7  1  0
  7  8  2  0
  6  9  1  0
  6  2  1  0
  9  4  1  0
  1 10  1  0
  1 11  1  0
  1 12  1  0
  2 13  1  0
  4 14  1  0
  5 15  1  0
  5 16  1  0
  7 17  1  0
  9 18  1  0
  9 19  1  0
M  END
