
     RDKit          3D

 23 23  0  0  0  0  0  0  0  0999 V2000
    2.4731    0.7530    0.5188 C   0  0  0  0  0  0  0  0  0  0  0  0
    1.3296    0.4748   -0.4250 C   0  0  0  0  0  0  0  0  0  0  0  0
    0.4515    1.5591   -0.4873 O   0  0  0  0  0  0  0  0  0  0  0  0
   -0.7080    0.9279   -0.9986 C   0  0  0  0  0  0  0  0  0  0  0  0
   -0.8819   -0.1531    0.0492 C   0  0  0  0  0  0  0  0  0  0  0  0
   -1.2928    0.5201    1.3274 C   0  0  0  0  0  0  0  0  0  0  0  0
   -1.7880   -1.2509   -0.3655 C   0  0  0  0  0  0  0  0  0  0  0  0
    0.5498   -0.6872    0.1339 C   0  0  0  0  0  0  0  0  0  0  0  0
    0.6371   -1.7778   -0.7420 O   0  0  0  0  0  0  0  0  0  0  0  0
    2.2351    0.3517    1.5347 H   0  0  0  0  0  0  0  0  0  0  0  0
    2.6508    1.8243    0.6398 H   0  0  0  0  0  0  0  0  0  0  0  0
    3.3470    0.1791    0.1519 H   0  0  0  0  0  0  0  0  0  0  0  0
    1.6900    0.2514   -1.4601 H   0  0  0  0  0  0  0  0  0  0  0  0
   -1.5584    1.6058   -1.0615 H   0  0  0  0  0  0  0  0  0  0  0  0
   -0.4006    0.5207   -1.9836 H   0  0  0  0  0  0  0  0  0  0  0  0
   -2.0854    1.2572    1.0779 H   0  0  0  0  0  0  0  0  0  0  0  0
   -1.7288   -0.2160    2.0411 H   0  0  0  0  0  0  0  0  0  0  0  0
   -0.4618    1.0126    1.8575 H   0  0  0  0  0  0  0  0  0  0  0  0
   -2.4537   -1.4875    0.5163 H   0  0  0  0  0  0  0  0  0  0  0  0
   -2.4140   -1.0220   -1.2558 H   0  0  0  0  0  0  0  0  0  0  0  0
   -1.2561   -2.2227   -0.5634 H   0  0  0  0  0  0  0  0  0  0  0  0
    0.8018   -0.9443    1.1622 H   0  0  0  0  0  0  0  0  0  0  0  0
    0.8637   -1.4758   -1.6677 H   0  0  0  0  0  0  0  0  0  0  0  0
  1  2  1  0
  2  3  1  0
  3  4  1  0
  4  5  1  0
  5  6  1  0
  5  7  1  0
  5  8  1  0
  8  9  1  0
  8  2  1  0
  1 10  1  0
  1 11  1  0
  1 12  1  0
  2 13  1  0
  4 14  1  0
  4 15  1  0
  6 16  1  0
  6 17  1  0
  6 18  1  0
  7 19  1  0
  7 20  1  0
  7 21  1  0
  8 22  1  0
  9 23  1  0
M  END
