
     RDKit          3D

 19 20  0  0  0  0  0  0  0  0999 V2000
    2.5395    0.6539    0.5336 C   0  0  0  0  0  0  0  0  0  0  0  0
    1.5487   -0.0566   -0.3925 C   0  0  0  0  0  0  0  0  0  0  0  0
    0.9586   -1.1444    0.2157 O   0  0  0  0  0  0  0  0  0  0  0  0
   -0.3578   -1.2077   -0.1859 C   0  0  0  0  0  0  0  0  0  0  0  0
   -1.3880   -0.8750    0.8724 C   0  0  0  0  0  0  0  0  0  0  0  0
   -1.6195    0.4348    0.1698 C   0  0  0  0  0  0  0  0  0  0  0  0
   -2.8661    0.5430   -0.4748 O   0  0  0  0  0  0  0  0  0  0  0  0
   -0.5675    0.1092   -0.8683 C   0  0  0  0  0  0  0  0  0  0  0  0
    0.5605    0.8663   -0.6796 O   0  0  0  0  0  0  0  0  0  0  0  0
    2.7985    1.6122    0.0191 H   0  0  0  0  0  0  0  0  0  0  0  0
    1.9480    0.9158    1.4431 H   0  0  0  0  0  0  0  0  0  0  0  0
    3.4078    0.0325    0.7657 H   0  0  0  0  0  0  0  0  0  0  0  0
    2.0357   -0.3159   -1.3656 H   0  0  0  0  0  0  0  0  0  0  0  0
   -0.6702   -2.0981   -0.7516 H   0  0  0  0  0  0  0  0  0  0  0  0
   -0.8924   -0.7813    1.8726 H   0  0  0  0  0  0  0  0  0  0  0  0
   -2.2901   -1.5321    0.8706 H   0  0  0  0  0  0  0  0  0  0  0  0
   -1.4098    1.3144    0.7963 H   0  0  0  0  0  0  0  0  0  0  0  0
   -2.8348    1.4367   -0.9311 H   0  0  0  0  0  0  0  0  0  0  0  0
   -0.9012    0.0923   -1.9097 H   0  0  0  0  0  0  0  0  0  0  0  0
  1  2  1  0
  2  3  1  0
  3  4  1  0
  4  5  1  0
  5  6  1  0
  6  7  1  0
  6  8  1  0
  8  9  1  0
  9  2  1  0
  8  4  1  0
  1 10  1  0
  1 11  1  0
  1 12  1  0
  2 13  1  0
  4 14  1  0
  5 15  1  0
  5 16  1  0
  6 17  1  0
  7 18  1  0
  8 19  1  0
M  END
