
     RDKit          3D

 21 22  0  0  0  0  0  0  0  0999 V2000
    2.0941   -0.3430    1.0493 C   0  0  0  0  0  0  0  0  0  0  0  0
    1.2880   -0.7403   -0.1443 C   0  0  0  0  0  0  0  0  0  0  0  0
    1.6628    0.0651   -1.2468 O   0  0  0  0  0  0  0  0  0  0  0  0
    0.7421    1.0149   -0.7547 C   0  0  0  0  0  0  0  0  0  0  0  0
   -0.0379   -0.1350   -0.1978 C   0  0  0  0  0  0  0  0  0  0  0  0
   -1.0527   -0.6766   -1.1609 C   0  0  0  0  0  0  0  0  0  0  0  0
   -2.2350    0.1838   -0.7888 C   0  0  0  0  0  0  0  0  0  0  0  0
   -2.1050    0.6199    0.4543 C   0  0  0  0  0  0  0  0  0  0  0  0
   -0.8317    0.0933    1.0223 C   0  0  0  0  0  0  0  0  0  0  0  0
    2.6848    0.5997    0.8807 H   0  0  0  0  0  0  0  0  0  0  0  0
    2.8561   -1.1076    1.3267 H   0  0  0  0  0  0  0  0  0  0  0  0
    1.4739   -0.1939    1.9662 H   0  0  0  0  0  0  0  0  0  0  0  0
    1.3943   -1.8123   -0.4495 H   0  0  0  0  0  0  0  0  0  0  0  0
    0.1548    1.5136   -1.5590 H   0  0  0  0  0  0  0  0  0  0  0  0
    1.2187    1.6818   -0.0387 H   0  0  0  0  0  0  0  0  0  0  0  0
   -1.2587   -1.7317   -0.8808 H   0  0  0  0  0  0  0  0  0  0  0  0
   -0.7425   -0.5344   -2.1957 H   0  0  0  0  0  0  0  0  0  0  0  0
   -3.0327    0.3695   -1.4929 H   0  0  0  0  0  0  0  0  0  0  0  0
   -2.8117    1.2576    0.9749 H   0  0  0  0  0  0  0  0  0  0  0  0
   -1.0850   -0.9010    1.4729 H   0  0  0  0  0  0  0  0  0  0  0  0
   -0.3769    0.7769    1.7625 H   0  0  0  0  0  0  0  0  0  0  0  0
  1  2  1  0
  2  3  1  0
  3  4  1  0
  4  5  1  0
  5  6  1  0
  6  7  1  0
  7  8  2  0
  8  9  1  0
  5  2  1  0
  9  5  1  0
  1 10  1  0
  1 11  1  0
  1 12  1  0
  2 13  1  0
  4 14  1  0
  4 15  1  0
  6 16  1  0
  6 17  1  0
  7 18  1  0
  8 19  1  0
  9 20  1  0
  9 21  1  0
M  END
