
     RDKit          3D

 21 22  0  0  0  0  0  0  0  0999 V2000
    2.6090    0.3495   -0.2845 C   0  0  0  0  0  0  0  0  0  0  0  0
    1.2701   -0.1576   -0.6636 C   0  0  0  0  0  0  0  0  0  0  0  0
    0.5038    0.7427   -1.4013 O   0  0  0  0  0  0  0  0  0  0  0  0
   -0.8145    0.6531   -0.9626 C   0  0  0  0  0  0  0  0  0  0  0  0
   -0.8743    1.4159    0.3149 C   0  0  0  0  0  0  0  0  0  0  0  0
   -0.1061    0.7413    1.1650 C   0  0  0  0  0  0  0  0  0  0  0  0
    0.3725   -0.5005    0.4872 C   0  0  0  0  0  0  0  0  0  0  0  0
   -0.8866   -0.7714   -0.3704 C   0  0  0  0  0  0  0  0  0  0  0  0
   -2.0969   -0.9669    0.4681 C   0  0  0  0  0  0  0  0  0  0  0  0
    3.3561   -0.4710   -0.4908 H   0  0  0  0  0  0  0  0  0  0  0  0
    2.6521    0.5199    0.8113 H   0  0  0  0  0  0  0  0  0  0  0  0
    2.8916    1.2883   -0.7743 H   0  0  0  0  0  0  0  0  0  0  0  0
    1.3309   -1.0871   -1.2972 H   0  0  0  0  0  0  0  0  0  0  0  0
   -1.5734    0.8635   -1.6750 H   0  0  0  0  0  0  0  0  0  0  0  0
   -1.4196    2.3200    0.5162 H   0  0  0  0  0  0  0  0  0  0  0  0
    0.1277    1.0461    2.1731 H   0  0  0  0  0  0  0  0  0  0  0  0
    0.6501   -1.3062    1.1138 H   0  0  0  0  0  0  0  0  0  0  0  0
   -0.6987   -1.5330   -1.1271 H   0  0  0  0  0  0  0  0  0  0  0  0
   -2.4124   -2.0416    0.4053 H   0  0  0  0  0  0  0  0  0  0  0  0
   -2.9574   -0.3799    0.0764 H   0  0  0  0  0  0  0  0  0  0  0  0
   -1.9240   -0.7251    1.5153 H   0  0  0  0  0  0  0  0  0  0  0  0
  1  2  1  0
  2  3  1  0
  3  4  1  0
  4  5  1  0
  5  6  2  0
  6  7  1  0
  7  8  1  0
  8  9  1  0
  7  2  1  0
  8  4  1  0
  1 10  1  0
  1 11  1  0
  1 12  1  0
  2 13  1  0
  4 14  1  0
  5 15  1  0
  6 16  1  0
  7 17  1  0
  8 18  1  0
  9 19  1  0
  9 20  1  0
  9 21  1  0
M  END
