
     RDKit          3D

 19 20  0  0  0  0  0  0  0  0999 V2000
   -2.4125   -0.1747    0.0173 C   0  0  0  0  0  0  0  0  0  0  0  0
   -0.9082   -0.1154   -0.1989 C   0  0  0  0  0  0  0  0  0  0  0  0
   -0.3419   -1.0451    0.6769 O   0  0  0  0  0  0  0  0  0  0  0  0
    0.7339   -1.6747    0.0709 C   0  0  0  0  0  0  0  0  0  0  0  0
    1.9252   -0.7907    0.0885 C   0  0  0  0  0  0  0  0  0  0  0  0
    1.9484    0.5224    0.1478 C   0  0  0  0  0  0  0  0  0  0  0  0
    0.9271    1.5523    0.2141 C   0  0  0  0  0  0  0  0  0  0  0  0
    0.3213    1.8960   -1.0633 O   0  0  0  0  0  0  0  0  0  0  0  0
   -0.4381    1.2718    0.0477 C   0  0  0  0  0  0  0  0  0  0  0  0
   -2.7817    0.7616    0.5283 H   0  0  0  0  0  0  0  0  0  0  0  0
   -2.9620   -0.2119   -0.9492 H   0  0  0  0  0  0  0  0  0  0  0  0
   -2.7258   -1.0433    0.6087 H   0  0  0  0  0  0  0  0  0  0  0  0
   -0.7099   -0.4802   -1.2296 H   0  0  0  0  0  0  0  0  0  0  0  0
    0.9976   -2.6011    0.6184 H   0  0  0  0  0  0  0  0  0  0  0  0
    0.5013   -1.9577   -0.9929 H   0  0  0  0  0  0  0  0  0  0  0  0
    2.9074   -1.2940    0.0469 H   0  0  0  0  0  0  0  0  0  0  0  0
    2.9842    0.9095    0.1454 H   0  0  0  0  0  0  0  0  0  0  0  0
    1.2223    2.4535    0.8287 H   0  0  0  0  0  0  0  0  0  0  0  0
   -1.1883    2.0217    0.3942 H   0  0  0  0  0  0  0  0  0  0  0  0
  1  2  1  0
  2  3  1  0
  3  4  1  0
  4  5  1  0
  5  6  2  0
  6  7  1  0
  7  8  1  0
  8  9  1  0
  9  2  1  0
  9  7  1  0
  1 10  1  0
  1 11  1  0
  1 12  1  0
  2 13  1  0
  4 14  1  0
  4 15  1  0
  5 16  1  0
  6 17  1  0
  7 18  1  0
  9 19  1  0
M  END
