
     RDKit          3D

 14 14  0  0  0  0  0  0  0  0999 V2000
   -1.6516    0.2455    0.2996 C   0  0  0  0  0  0  0  0  0  0  0  0
   -0.4480   -0.3581    0.9047 C   0  0  0  0  0  0  0  0  0  0  0  0
    0.5920    0.3134    1.4993 O   0  0  0  0  0  0  0  0  0  0  0  0
    0.8991    0.0771    0.2170 C   0  0  0  0  0  0  0  0  0  0  0  0
    1.5204   -1.1319   -0.3546 C   0  0  0  0  0  0  0  0  0  0  0  0
    1.8338   -2.1223    0.3773 O   0  0  0  0  0  0  0  0  0  0  0  0
    0.6516    1.1543   -0.7727 C   0  0  0  0  0  0  0  0  0  0  0  0
    1.1604    2.2667   -0.3578 O   0  0  0  0  0  0  0  0  0  0  0  0
   -1.5474    1.3019   -0.0305 H   0  0  0  0  0  0  0  0  0  0  0  0
   -2.5737    0.1419    0.8547 H   0  0  0  0  0  0  0  0  0  0  0  0
   -1.8076   -0.2952   -0.6865 H   0  0  0  0  0  0  0  0  0  0  0  0
   -0.5189   -1.4375    1.1366 H   0  0  0  0  0  0  0  0  0  0  0  0
    1.7529   -1.2565   -1.4015 H   0  0  0  0  0  0  0  0  0  0  0  0
    0.1370    1.1007   -1.6855 H   0  0  0  0  0  0  0  0  0  0  0  0
  1  2  1  0
  2  3  1  0
  3  4  1  0
  4  5  1  0
  5  6  2  0
  4  7  1  0
  7  8  2  0
  4  2  1  0
  1  9  1  0
  1 10  1  0
  1 11  1  0
  2 12  1  0
  5 13  1  0
  7 14  1  0
M  END
