
     RDKit          3D

 21 22  0  0  0  0  0  0  0  0999 V2000
    2.4611   -0.1206    0.1260 C   0  0  0  0  0  0  0  0  0  0  0  0
    1.2177    0.2256   -0.6630 C   0  0  0  0  0  0  0  0  0  0  0  0
    0.5978   -0.9399   -1.0250 O   0  0  0  0  0  0  0  0  0  0  0  0
   -0.4410   -1.1983   -0.1869 C   0  0  0  0  0  0  0  0  0  0  0  0
   -1.7725   -0.9276   -0.8523 C   0  0  0  0  0  0  0  0  0  0  0  0
   -2.1133    0.0288    0.2852 C   0  0  0  0  0  0  0  0  0  0  0  0
   -0.6777   -0.0255    0.6976 C   0  0  0  0  0  0  0  0  0  0  0  0
    0.2297    1.0250    0.1452 C   0  0  0  0  0  0  0  0  0  0  0  0
    0.8627    1.6815    1.1827 O   0  0  0  0  0  0  0  0  0  0  0  0
    2.1631   -0.4673    1.1284 H   0  0  0  0  0  0  0  0  0  0  0  0
    3.2093    0.6907    0.1344 H   0  0  0  0  0  0  0  0  0  0  0  0
    2.9459   -1.0010   -0.3717 H   0  0  0  0  0  0  0  0  0  0  0  0
    1.4630    0.8145   -1.5761 H   0  0  0  0  0  0  0  0  0  0  0  0
   -0.3938   -2.1367    0.3883 H   0  0  0  0  0  0  0  0  0  0  0  0
   -2.4371   -1.8064   -0.9066 H   0  0  0  0  0  0  0  0  0  0  0  0
   -1.7118   -0.4498   -1.8436 H   0  0  0  0  0  0  0  0  0  0  0  0
   -2.4845    0.9693   -0.1377 H   0  0  0  0  0  0  0  0  0  0  0  0
   -2.7804   -0.4584    1.0312 H   0  0  0  0  0  0  0  0  0  0  0  0
   -0.5175   -0.2042    1.7807 H   0  0  0  0  0  0  0  0  0  0  0  0
   -0.3624    1.6826   -0.5102 H   0  0  0  0  0  0  0  0  0  0  0  0
    0.5417    2.6177    1.1734 H   0  0  0  0  0  0  0  0  0  0  0  0
  1  2  1  0
  2  3  1  0
  3  4  1  0
  4  5  1  0
  5  6  1  0
  6  7  1  0
  7  8  1  0
  8  9  1  0
  8  2  1  0
  7  4  1  0
  1 10  1  0
  1 11  1  0
  1 12  1  0
  2 13  1  0
  4 14  1  0
  5 15  1  0
  5 16  1  0
  6 17  1  0
  6 18  1  0
  7 19  1  0
  8 20  1  0
  9 21  1  0
M  END
