
     RDKit          3D

 21 21  0  0  0  0  0  0  0  0999 V2000
    1.8526   -1.1220    0.2217 C   0  0  0  0  0  0  0  0  0  0  0  0
    1.1349    0.1715    0.4089 C   0  0  0  0  0  0  0  0  0  0  0  0
    0.5225    0.3468    1.6390 O   0  0  0  0  0  0  0  0  0  0  0  0
   -0.3941    1.1666    0.9976 C   0  0  0  0  0  0  0  0  0  0  0  0
   -0.1454    0.3884   -0.2732 C   0  0  0  0  0  0  0  0  0  0  0  0
   -0.0981    1.3671   -1.4557 C   0  0  0  0  0  0  0  0  0  0  0  0
   -1.1074   -0.7078   -0.4719 C   0  0  0  0  0  0  0  0  0  0  0  0
   -1.6143   -1.3526    0.7454 C   0  0  0  0  0  0  0  0  0  0  0  0
   -2.3888   -2.2765    0.6659 O   0  0  0  0  0  0  0  0  0  0  0  0
    2.5770   -1.0035   -0.6343 H   0  0  0  0  0  0  0  0  0  0  0  0
    2.5026   -1.2738    1.1220 H   0  0  0  0  0  0  0  0  0  0  0  0
    1.1819   -1.9702    0.0958 H   0  0  0  0  0  0  0  0  0  0  0  0
    1.8436    1.0218    0.2065 H   0  0  0  0  0  0  0  0  0  0  0  0
    0.0263    2.2079    0.9606 H   0  0  0  0  0  0  0  0  0  0  0  0
   -1.4275    1.1311    1.3824 H   0  0  0  0  0  0  0  0  0  0  0  0
    0.1957    0.8036   -2.3504 H   0  0  0  0  0  0  0  0  0  0  0  0
    0.5401    2.2265   -1.2280 H   0  0  0  0  0  0  0  0  0  0  0  0
   -1.1463    1.7026   -1.5945 H   0  0  0  0  0  0  0  0  0  0  0  0
   -1.9978   -0.2761   -1.0227 H   0  0  0  0  0  0  0  0  0  0  0  0
   -0.7434   -1.5271   -1.1386 H   0  0  0  0  0  0  0  0  0  0  0  0
   -1.3139   -1.0243    1.7235 H   0  0  0  0  0  0  0  0  0  0  0  0
  1  2  1  0
  2  3  1  0
  3  4  1  0
  4  5  1  0
  5  6  1  0
  5  7  1  0
  7  8  1  0
  8  9  2  0
  5  2  1  0
  1 10  1  0
  1 11  1  0
  1 12  1  0
  2 13  1  0
  4 14  1  0
  4 15  1  0
  6 16  1  0
  6 17  1  0
  6 18  1  0
  7 19  1  0
  7 20  1  0
  8 21  1  0
M  END
