
     RDKit          3D

 21 22  0  0  0  0  0  0  0  0999 V2000
   -2.0996    0.9294    0.2206 C   0  0  0  0  0  0  0  0  0  0  0  0
   -1.3546   -0.1401   -0.4712 C   0  0  0  0  0  0  0  0  0  0  0  0
   -1.7624   -1.4631   -0.1754 O   0  0  0  0  0  0  0  0  0  0  0  0
   -0.4642   -1.8641    0.2247 C   0  0  0  0  0  0  0  0  0  0  0  0
   -0.0039   -0.4960   -0.0780 C   0  0  0  0  0  0  0  0  0  0  0  0
    1.1189   -0.3323   -1.0614 C   0  0  0  0  0  0  0  0  0  0  0  0
    1.4722    0.9393   -0.2726 C   0  0  0  0  0  0  0  0  0  0  0  0
    2.8113    1.1582   -0.0993 O   0  0  0  0  0  0  0  0  0  0  0  0
    0.7640    0.2642    0.9112 C   0  0  0  0  0  0  0  0  0  0  0  0
   -1.6932    1.2786    1.1694 H   0  0  0  0  0  0  0  0  0  0  0  0
   -2.1650    1.8382   -0.4451 H   0  0  0  0  0  0  0  0  0  0  0  0
   -3.1579    0.5999    0.4367 H   0  0  0  0  0  0  0  0  0  0  0  0
   -1.4521   -0.0246   -1.5905 H   0  0  0  0  0  0  0  0  0  0  0  0
   -0.4718   -2.0282    1.3421 H   0  0  0  0  0  0  0  0  0  0  0  0
   -0.0519   -2.7011   -0.3508 H   0  0  0  0  0  0  0  0  0  0  0  0
    1.9432   -1.0683   -0.9139 H   0  0  0  0  0  0  0  0  0  0  0  0
    0.8517   -0.1213   -2.0993 H   0  0  0  0  0  0  0  0  0  0  0  0
    0.8486    1.7987   -0.5880 H   0  0  0  0  0  0  0  0  0  0  0  0
    3.0672    0.8885    0.8171 H   0  0  0  0  0  0  0  0  0  0  0  0
    0.2715    0.9369    1.6016 H   0  0  0  0  0  0  0  0  0  0  0  0
    1.5281   -0.3928    1.4220 H   0  0  0  0  0  0  0  0  0  0  0  0
  1  2  1  0
  2  3  1  0
  3  4  1  0
  4  5  1  0
  5  6  1  0
  6  7  1  0
  7  8  1  0
  7  9  1  0
  5  2  1  0
  9  5  1  0
  1 10  1  0
  1 11  1  0
  1 12  1  0
  2 13  1  0
  4 14  1  0
  4 15  1  0
  6 16  1  0
  6 17  1  0
  7 18  1  0
  8 19  1  0
  9 20  1  0
  9 21  1  0
M  END
