
     RDKit          3D

 18 19  0  0  0  0  0  0  0  0999 V2000
    2.4451   -0.2337   -1.0610 C   0  0  0  0  0  0  0  0  0  0  0  0
    1.3614   -0.0571   -0.0424 C   0  0  0  0  0  0  0  0  0  0  0  0
    0.9031    1.2399    0.0733 O   0  0  0  0  0  0  0  0  0  0  0  0
   -0.4443    1.1560    0.4155 C   0  0  0  0  0  0  0  0  0  0  0  0
   -1.3499    1.0093   -0.8070 C   0  0  0  0  0  0  0  0  0  0  0  0
   -0.8642   -0.1748   -0.0193 C   0  0  0  0  0  0  0  0  0  0  0  0
   -1.8458   -1.0207    0.7342 C   0  0  0  0  0  0  0  0  0  0  0  0
    0.2859   -0.8464   -0.4120 O   0  0  0  0  0  0  0  0  0  0  0  0
    3.0750    0.6390   -1.2179 H   0  0  0  0  0  0  0  0  0  0  0  0
    3.0675   -1.1113   -0.7142 H   0  0  0  0  0  0  0  0  0  0  0  0
    2.0522   -0.5621   -2.0589 H   0  0  0  0  0  0  0  0  0  0  0  0
    1.7725   -0.3381    0.9656 H   0  0  0  0  0  0  0  0  0  0  0  0
   -0.8329    1.6803    1.2945 H   0  0  0  0  0  0  0  0  0  0  0  0
   -0.9278    1.1860   -1.8062 H   0  0  0  0  0  0  0  0  0  0  0  0
   -2.4418    1.2125   -0.6604 H   0  0  0  0  0  0  0  0  0  0  0  0
   -1.8410   -2.0317    0.2476 H   0  0  0  0  0  0  0  0  0  0  0  0
   -1.5654   -1.1842    1.7985 H   0  0  0  0  0  0  0  0  0  0  0  0
   -2.8497   -0.5629    0.6217 H   0  0  0  0  0  0  0  0  0  0  0  0
  1  2  1  0
  2  3  1  0
  3  4  1  0
  4  5  1  0
  5  6  1  0
  6  7  1  0
  6  8  1  0
  8  2  1  0
  6  4  1  0
  1  9  1  0
  1 10  1  0
  1 11  1  0
  2 12  1  0
  4 13  1  0
  5 14  1  0
  5 15  1  0
  7 16  1  0
  7 17  1  0
  7 18  1  0
M  END
