
     RDKit          3D

 19 19  0  0  0  0  0  0  0  0999 V2000
   -1.6838   -1.4215   -0.4563 C   0  0  0  0  0  0  0  0  0  0  0  0
   -1.1779   -0.2167    0.2730 C   0  0  0  0  0  0  0  0  0  0  0  0
   -1.7513    0.9325   -0.3178 O   0  0  0  0  0  0  0  0  0  0  0  0
   -0.9943    1.9239    0.3110 C   0  0  0  0  0  0  0  0  0  0  0  0
    0.3862    1.3608    0.1234 C   0  0  0  0  0  0  0  0  0  0  0  0
    0.2515    0.0417    0.1035 C   0  0  0  0  0  0  0  0  0  0  0  0
    1.3967   -0.9028   -0.0644 C   0  0  0  0  0  0  0  0  0  0  0  0
    2.6769   -0.1691   -0.2032 C   0  0  0  0  0  0  0  0  0  0  0  0
    3.5155   -0.2213    0.6434 O   0  0  0  0  0  0  0  0  0  0  0  0
   -1.0241   -2.2750   -0.2769 H   0  0  0  0  0  0  0  0  0  0  0  0
   -1.8510   -1.2698   -1.5199 H   0  0  0  0  0  0  0  0  0  0  0  0
   -2.6736   -1.6740    0.0194 H   0  0  0  0  0  0  0  0  0  0  0  0
   -1.5185   -0.2196    1.3212 H   0  0  0  0  0  0  0  0  0  0  0  0
   -1.2398    1.9172    1.3813 H   0  0  0  0  0  0  0  0  0  0  0  0
   -1.1112    2.9172   -0.1660 H   0  0  0  0  0  0  0  0  0  0  0  0
    1.2540    1.9732    0.0327 H   0  0  0  0  0  0  0  0  0  0  0  0
    1.2906   -1.5514   -0.9663 H   0  0  0  0  0  0  0  0  0  0  0  0
    1.4230   -1.5611    0.8553 H   0  0  0  0  0  0  0  0  0  0  0  0
    2.8310    0.4161   -1.0935 H   0  0  0  0  0  0  0  0  0  0  0  0
  1  2  1  0
  2  3  1  0
  3  4  1  0
  4  5  1  0
  5  6  2  0
  6  7  1  0
  7  8  1  0
  8  9  2  0
  6  2  1  0
  1 10  1  0
  1 11  1  0
  1 12  1  0
  2 13  1  0
  4 14  1  0
  4 15  1  0
  5 16  1  0
  7 17  1  0
  7 18  1  0
  8 19  1  0
M  END
