
     RDKit          3D

 21 21  0  0  0  0  0  0  0  0999 V2000
   -1.8398    1.6300   -0.0499 C   0  0  0  0  0  0  0  0  0  0  0  0
   -1.0639    0.5043    0.6356 C   0  0  0  0  0  0  0  0  0  0  0  0
    0.2678    0.8270    0.5277 O   0  0  0  0  0  0  0  0  0  0  0  0
    0.9687   -0.3276    0.2656 C   0  0  0  0  0  0  0  0  0  0  0  0
    2.2617    0.0254   -0.4229 C   0  0  0  0  0  0  0  0  0  0  0  0
    2.9665    0.8606    0.4704 O   0  0  0  0  0  0  0  0  0  0  0  0
    0.1016   -1.2538   -0.5042 C   0  0  0  0  0  0  0  0  0  0  0  0
   -1.2978   -0.7381   -0.1833 C   0  0  0  0  0  0  0  0  0  0  0  0
   -2.0542   -1.6739    0.4964 O   0  0  0  0  0  0  0  0  0  0  0  0
   -1.3873    2.6167    0.1630 H   0  0  0  0  0  0  0  0  0  0  0  0
   -2.8788    1.5437    0.2789 H   0  0  0  0  0  0  0  0  0  0  0  0
   -1.7286    1.4389   -1.1487 H   0  0  0  0  0  0  0  0  0  0  0  0
   -1.4105    0.4056    1.6809 H   0  0  0  0  0  0  0  0  0  0  0  0
    1.2575   -0.7681    1.2610 H   0  0  0  0  0  0  0  0  0  0  0  0
    2.8740   -0.8647   -0.6687 H   0  0  0  0  0  0  0  0  0  0  0  0
    2.1016    0.6492   -1.3326 H   0  0  0  0  0  0  0  0  0  0  0  0
    3.7567    1.2554    0.0723 H   0  0  0  0  0  0  0  0  0  0  0  0
    0.2923   -1.3189   -1.5717 H   0  0  0  0  0  0  0  0  0  0  0  0
    0.1493   -2.3078   -0.1051 H   0  0  0  0  0  0  0  0  0  0  0  0
   -1.8031   -0.5313   -1.1416 H   0  0  0  0  0  0  0  0  0  0  0  0
   -1.5338   -1.9728    1.2770 H   0  0  0  0  0  0  0  0  0  0  0  0
  1  2  1  0
  2  3  1  0
  3  4  1  0
  4  5  1  0
  5  6  1  0
  4  7  1  0
  7  8  1  0
  8  9  1  0
  8  2  1  0
  1 10  1  0
  1 11  1  0
  1 12  1  0
  2 13  1  0
  4 14  1  0
  5 15  1  0
  5 16  1  0
  6 17  1  0
  7 18  1  0
  7 19  1  0
  8 20  1  0
  9 21  1  0
M  END
