
     RDKit          3D

 17 18  0  0  0  0  0  0  0  0999 V2000
    1.7727   -0.6688   -0.7165 C   0  0  0  0  0  0  0  0  0  0  0  0
    0.9161    0.2305    0.0927 C   0  0  0  0  0  0  0  0  0  0  0  0
    0.2988    1.2491   -0.6343 O   0  0  0  0  0  0  0  0  0  0  0  0
   -1.0067    1.3856   -0.1948 C   0  0  0  0  0  0  0  0  0  0  0  0
   -1.7383    0.3449   -0.8162 O   0  0  0  0  0  0  0  0  0  0  0  0
   -1.2061   -0.8443   -0.3059 C   0  0  0  0  0  0  0  0  0  0  0  0
   -0.2374   -0.4372    0.7829 C   0  0  0  0  0  0  0  0  0  0  0  0
   -0.9431    0.8385    1.1952 C   0  0  0  0  0  0  0  0  0  0  0  0
   -1.3058    1.2385    2.2514 O   0  0  0  0  0  0  0  0  0  0  0  0
    1.2640   -1.3930   -1.3476 H   0  0  0  0  0  0  0  0  0  0  0  0
    2.5323   -1.1267   -0.0402 H   0  0  0  0  0  0  0  0  0  0  0  0
    2.3786   -0.0169   -1.4127 H   0  0  0  0  0  0  0  0  0  0  0  0
    1.5900    0.7615    0.8257 H   0  0  0  0  0  0  0  0  0  0  0  0
   -1.4498    2.3493   -0.2878 H   0  0  0  0  0  0  0  0  0  0  0  0
   -2.0606   -1.3838    0.1724 H   0  0  0  0  0  0  0  0  0  0  0  0
   -0.7603   -1.4034   -1.1229 H   0  0  0  0  0  0  0  0  0  0  0  0
   -0.0442   -1.1239    1.5585 H   0  0  0  0  0  0  0  0  0  0  0  0
  1  2  1  0
  2  3  1  0
  3  4  1  0
  4  5  1  0
  5  6  1  0
  6  7  1  0
  7  8  1  0
  8  9  2  0
  7  2  1  0
  8  4  1  0
  1 10  1  0
  1 11  1  0
  1 12  1  0
  2 13  1  0
  4 14  1  0
  6 15  1  0
  6 16  1  0
  7 17  1  0
M  END
