
     RDKit          3D

 21 21  0  0  0  0  0  0  0  0999 V2000
   -1.6747    1.4873   -0.5551 C   0  0  0  0  0  0  0  0  0  0  0  0
   -0.9935    0.3170   -1.1954 C   0  0  0  0  0  0  0  0  0  0  0  0
    0.2895    0.7288   -1.6305 O   0  0  0  0  0  0  0  0  0  0  0  0
    0.7350    0.4266   -0.3437 C   0  0  0  0  0  0  0  0  0  0  0  0
    2.1758   -0.0555   -0.3220 C   0  0  0  0  0  0  0  0  0  0  0  0
    2.5752   -0.3441    0.9822 O   0  0  0  0  0  0  0  0  0  0  0  0
   -0.3011   -0.6484   -0.2902 C   0  0  0  0  0  0  0  0  0  0  0  0
   -0.9321   -0.9438    1.0173 C   0  0  0  0  0  0  0  0  0  0  0  0
   -0.1796   -1.8447    1.7315 O   0  0  0  0  0  0  0  0  0  0  0  0
   -2.7835    1.4974   -0.7461 H   0  0  0  0  0  0  0  0  0  0  0  0
   -1.2976    2.4578   -0.9931 H   0  0  0  0  0  0  0  0  0  0  0  0
   -1.5404    1.5721    0.5221 H   0  0  0  0  0  0  0  0  0  0  0  0
   -1.5785   -0.2093   -1.9797 H   0  0  0  0  0  0  0  0  0  0  0  0
    0.6209    1.2790    0.3231 H   0  0  0  0  0  0  0  0  0  0  0  0
    2.8464    0.7504   -0.6878 H   0  0  0  0  0  0  0  0  0  0  0  0
    2.3235   -0.9323   -0.9827 H   0  0  0  0  0  0  0  0  0  0  0  0
    3.5365   -0.1722    1.1378 H   0  0  0  0  0  0  0  0  0  0  0  0
    0.0221   -1.5451   -0.8181 H   0  0  0  0  0  0  0  0  0  0  0  0
   -1.1210   -0.0707    1.6548 H   0  0  0  0  0  0  0  0  0  0  0  0
   -1.9255   -1.4163    0.8257 H   0  0  0  0  0  0  0  0  0  0  0  0
   -0.7973   -2.3341    2.3497 H   0  0  0  0  0  0  0  0  0  0  0  0
  1  2  1  0
  2  3  1  0
  3  4  1  0
  4  5  1  0
  5  6  1  0
  4  7  1  0
  7  8  1  0
  8  9  1  0
  7  2  1  0
  1 10  1  0
  1 11  1  0
  1 12  1  0
  2 13  1  0
  4 14  1  0
  5 15  1  0
  5 16  1  0
  6 17  1  0
  7 18  1  0
  8 19  1  0
  8 20  1  0
  9 21  1  0
M  END
