
     RDKit          3D

 21 23  0  0  0  0  0  0  0  0999 V2000
    2.3848   -0.6266    0.3814 C   0  0  0  0  0  0  0  0  0  0  0  0
    1.0566   -0.5970   -0.3822 C   0  0  0  0  0  0  0  0  0  0  0  0
    0.1491   -1.2879    0.3636 O   0  0  0  0  0  0  0  0  0  0  0  0
   -1.1369   -1.2817   -0.0914 C   0  0  0  0  0  0  0  0  0  0  0  0
   -2.0959   -0.5063    0.8029 C   0  0  0  0  0  0  0  0  0  0  0  0
   -1.6907   -0.0116   -0.5470 C   0  0  0  0  0  0  0  0  0  0  0  0
   -0.7430    1.1284   -0.6872 C   0  0  0  0  0  0  0  0  0  0  0  0
    0.0916    1.6092    0.4396 C   0  0  0  0  0  0  0  0  0  0  0  0
    0.6787    0.8185   -0.6790 C   0  0  0  0  0  0  0  0  0  0  0  0
    2.2382   -0.9787    1.4278 H   0  0  0  0  0  0  0  0  0  0  0  0
    3.1195   -1.2879   -0.0905 H   0  0  0  0  0  0  0  0  0  0  0  0
    2.7758    0.4010    0.4544 H   0  0  0  0  0  0  0  0  0  0  0  0
    1.2361   -1.1738   -1.3313 H   0  0  0  0  0  0  0  0  0  0  0  0
   -1.4866   -2.2182   -0.5532 H   0  0  0  0  0  0  0  0  0  0  0  0
   -1.7087   -0.0139    1.7090 H   0  0  0  0  0  0  0  0  0  0  0  0
   -3.0683   -1.0086    0.9453 H   0  0  0  0  0  0  0  0  0  0  0  0
   -2.5168   -0.0799   -1.3013 H   0  0  0  0  0  0  0  0  0  0  0  0
   -1.0708    1.9355   -1.3915 H   0  0  0  0  0  0  0  0  0  0  0  0
    0.0064    1.1786    1.4596 H   0  0  0  0  0  0  0  0  0  0  0  0
    0.4094    2.6751    0.4647 H   0  0  0  0  0  0  0  0  0  0  0  0
    1.3715    1.3257   -1.3936 H   0  0  0  0  0  0  0  0  0  0  0  0
  1  2  1  0
  2  3  1  0
  3  4  1  0
  4  5  1  0
  5  6  1  0
  6  7  1  0
  7  8  1  0
  8  9  1  0
  9  2  1  0
  6  4  1  0
  9  7  1  0
  1 10  1  0
  1 11  1  0
  1 12  1  0
  2 13  1  0
  4 14  1  0
  5 15  1  0
  5 16  1  0
  6 17  1  0
  7 18  1  0
  8 19  1  0
  8 20  1  0
  9 21  1  0
M  END
