
     RDKit          3D

 19 20  0  0  0  0  0  0  0  0999 V2000
    2.4998   -0.2263    0.0963 C   0  0  0  0  0  0  0  0  0  0  0  0
    1.2545    0.5385   -0.2142 C   0  0  0  0  0  0  0  0  0  0  0  0
    0.5419   -0.0819   -1.2575 O   0  0  0  0  0  0  0  0  0  0  0  0
   -0.1597   -0.7560   -0.2847 C   0  0  0  0  0  0  0  0  0  0  0  0
   -1.6347   -0.6516   -0.4778 C   0  0  0  0  0  0  0  0  0  0  0  0
   -2.3426   -1.4423    0.4450 O   0  0  0  0  0  0  0  0  0  0  0  0
   -1.9323    0.7674   -0.1896 C   0  0  0  0  0  0  0  0  0  0  0  0
   -0.9486    1.3293    0.4983 C   0  0  0  0  0  0  0  0  0  0  0  0
    0.1006    0.3335    0.7328 C   0  0  0  0  0  0  0  0  0  0  0  0
    3.2245    0.3867    0.6942 H   0  0  0  0  0  0  0  0  0  0  0  0
    2.3291   -1.1578    0.6509 H   0  0  0  0  0  0  0  0  0  0  0  0
    2.9574   -0.5314   -0.8827 H   0  0  0  0  0  0  0  0  0  0  0  0
    1.4186    1.5829   -0.4596 H   0  0  0  0  0  0  0  0  0  0  0  0
    0.2423   -1.7449   -0.0041 H   0  0  0  0  0  0  0  0  0  0  0  0
   -1.8903   -0.9443   -1.5138 H   0  0  0  0  0  0  0  0  0  0  0  0
   -2.1998   -1.0105    1.3250 H   0  0  0  0  0  0  0  0  0  0  0  0
   -2.8650    1.2299   -0.5309 H   0  0  0  0  0  0  0  0  0  0  0  0
   -0.9205    2.3540    0.8336 H   0  0  0  0  0  0  0  0  0  0  0  0
    0.3246    0.0249    1.7472 H   0  0  0  0  0  0  0  0  0  0  0  0
  1  2  1  0
  2  3  1  0
  3  4  1  0
  4  5  1  0
  5  6  1  0
  5  7  1  0
  7  8  2  0
  8  9  1  0
  9  2  1  0
  9  4  1  0
  1 10  1  0
  1 11  1  0
  1 12  1  0
  2 13  1  0
  4 14  1  0
  5 15  1  0
  6 16  1  0
  7 17  1  0
  8 18  1  0
  9 19  1  0
M  END
