
     RDKit          3D

 19 20  0  0  0  0  0  0  0  0999 V2000
    2.2767    0.8296   -0.7502 C   0  0  0  0  0  0  0  0  0  0  0  0
    1.4947   -0.4141   -0.3710 C   0  0  0  0  0  0  0  0  0  0  0  0
    0.5542   -0.7556   -1.3015 O   0  0  0  0  0  0  0  0  0  0  0  0
   -0.6573   -0.9089   -0.6417 C   0  0  0  0  0  0  0  0  0  0  0  0
   -1.4711    0.2922   -0.9153 C   0  0  0  0  0  0  0  0  0  0  0  0
   -1.9150    0.8311    0.2046 C   0  0  0  0  0  0  0  0  0  0  0  0
   -1.4440    0.0456    1.3516 C   0  0  0  0  0  0  0  0  0  0  0  0
   -0.3353   -0.8099    0.8323 C   0  0  0  0  0  0  0  0  0  0  0  0
    0.9093   -0.1848    0.8453 O   0  0  0  0  0  0  0  0  0  0  0  0
    1.9947    1.6952   -0.0950 H   0  0  0  0  0  0  0  0  0  0  0  0
    3.3587    0.6674   -0.5723 H   0  0  0  0  0  0  0  0  0  0  0  0
    2.0940    1.1568   -1.7813 H   0  0  0  0  0  0  0  0  0  0  0  0
    2.2253   -1.2598   -0.2914 H   0  0  0  0  0  0  0  0  0  0  0  0
   -1.1643   -1.8590   -0.8883 H   0  0  0  0  0  0  0  0  0  0  0  0
   -1.6860    0.6959   -1.9339 H   0  0  0  0  0  0  0  0  0  0  0  0
   -2.5442    1.7349    0.2652 H   0  0  0  0  0  0  0  0  0  0  0  0
   -2.2688   -0.6216    1.7226 H   0  0  0  0  0  0  0  0  0  0  0  0
   -1.1538    0.6611    2.2248 H   0  0  0  0  0  0  0  0  0  0  0  0
   -0.2676   -1.7959    1.3211 H   0  0  0  0  0  0  0  0  0  0  0  0
  1  2  1  0
  2  3  1  0
  3  4  1  0
  4  5  1  0
  5  6  2  0
  6  7  1  0
  7  8  1  0
  8  9  1  0
  9  2  1  0
  8  4  1  0
  1 10  1  0
  1 11  1  0
  1 12  1  0
  2 13  1  0
  4 14  1  0
  5 15  1  0
  6 16  1  0
  7 17  1  0
  7 18  1  0
  8 19  1  0
M  END
