
     RDKit          3D

 18 18  0  0  0  0  0  0  0  0999 V2000
    2.1671   -0.3671    0.5933 C   0  0  0  0  0  0  0  0  0  0  0  0
    0.9627   -0.5497   -0.3337 C   0  0  0  0  0  0  0  0  0  0  0  0
    0.6123    0.5865   -0.9805 O   0  0  0  0  0  0  0  0  0  0  0  0
   -0.0417    1.5467   -0.2503 C   0  0  0  0  0  0  0  0  0  0  0  0
   -1.4631    1.1404    0.0618 C   0  0  0  0  0  0  0  0  0  0  0  0
   -1.9897   -0.0790    0.0854 C   0  0  0  0  0  0  0  0  0  0  0  0
   -1.2296   -1.3241   -0.2073 C   0  0  0  0  0  0  0  0  0  0  0  0
    0.0043   -1.2093    0.3729 O   0  0  0  0  0  0  0  0  0  0  0  0
    2.1353    0.7086    0.9051 H   0  0  0  0  0  0  0  0  0  0  0  0
    2.0881   -1.0127    1.4923 H   0  0  0  0  0  0  0  0  0  0  0  0
    3.1155   -0.6216    0.0927 H   0  0  0  0  0  0  0  0  0  0  0  0
    1.3324   -1.2729   -1.1227 H   0  0  0  0  0  0  0  0  0  0  0  0
   -0.1338    2.4511   -0.8979 H   0  0  0  0  0  0  0  0  0  0  0  0
    0.4518    1.8460    0.6812 H   0  0  0  0  0  0  0  0  0  0  0  0
   -2.1615    1.9281    0.3001 H   0  0  0  0  0  0  0  0  0  0  0  0
   -3.0389   -0.1137    0.3387 H   0  0  0  0  0  0  0  0  0  0  0  0
   -1.7225   -2.2312    0.1871 H   0  0  0  0  0  0  0  0  0  0  0  0
   -1.0885   -1.4261   -1.3183 H   0  0  0  0  0  0  0  0  0  0  0  0
  1  2  1  0
  2  3  1  0
  3  4  1  0
  4  5  1  0
  5  6  2  0
  6  7  1  0
  7  8  1  0
  8  2  1  0
  1  9  1  0
  1 10  1  0
  1 11  1  0
  2 12  1  0
  4 13  1  0
  4 14  1  0
  5 15  1  0
  6 16  1  0
  7 17  1  0
  7 18  1  0
M  END
