
     RDKit          3D

 19 20  0  0  0  0  0  0  0  0999 V2000
   -1.2169   -1.5457    0.1153 C   0  0  0  0  0  0  0  0  0  0  0  0
   -0.9387   -0.4156   -0.8357 C   0  0  0  0  0  0  0  0  0  0  0  0
   -2.0374    0.4598   -0.7590 O   0  0  0  0  0  0  0  0  0  0  0  0
   -1.5746    1.6422   -0.2317 C   0  0  0  0  0  0  0  0  0  0  0  0
   -0.3637    1.3648    0.4169 O   0  0  0  0  0  0  0  0  0  0  0  0
    0.1982    0.4449   -0.4857 C   0  0  0  0  0  0  0  0  0  0  0  0
    1.3694   -0.2504    0.1474 C   0  0  0  0  0  0  0  0  0  0  0  0
    2.7084   -0.1520   -0.4674 C   0  0  0  0  0  0  0  0  0  0  0  0
    2.3703    0.7922    0.5058 O   0  0  0  0  0  0  0  0  0  0  0  0
   -1.4814   -1.1720    1.1325 H   0  0  0  0  0  0  0  0  0  0  0  0
   -2.1302   -2.0648   -0.2550 H   0  0  0  0  0  0  0  0  0  0  0  0
   -0.4006   -2.2639    0.2165 H   0  0  0  0  0  0  0  0  0  0  0  0
   -0.9239   -0.8391   -1.8586 H   0  0  0  0  0  0  0  0  0  0  0  0
   -1.3713    2.3865   -1.0544 H   0  0  0  0  0  0  0  0  0  0  0  0
   -2.3147    2.0958    0.4705 H   0  0  0  0  0  0  0  0  0  0  0  0
    0.5587    0.9740   -1.3949 H   0  0  0  0  0  0  0  0  0  0  0  0
    1.2366   -0.8969    1.0148 H   0  0  0  0  0  0  0  0  0  0  0  0
    2.8233    0.2912   -1.4749 H   0  0  0  0  0  0  0  0  0  0  0  0
    3.4886   -0.8508   -0.1318 H   0  0  0  0  0  0  0  0  0  0  0  0
  1  2  1  0
  2  3  1  0
  3  4  1  0
  4  5  1  0
  5  6  1  0
  6  7  1  0
  7  8  1  0
  8  9  1  0
  6  2  1  0
  9  7  1  0
  1 10  1  0
  1 11  1  0
  1 12  1  0
  2 13  1  0
  4 14  1  0
  4 15  1  0
  6 16  1  0
  7 17  1  0
  8 18  1  0
  8 19  1  0
M  END
