
     RDKit          3D

 17 18  0  0  0  0  0  0  0  0999 V2000
    2.0251   -0.1890   -0.4564 C   0  0  0  0  0  0  0  0  0  0  0  0
    1.1518   -0.1083    0.7964 C   0  0  0  0  0  0  0  0  0  0  0  0
    0.6541    1.1873    0.9652 O   0  0  0  0  0  0  0  0  0  0  0  0
   -0.5505    1.5198    0.3813 C   0  0  0  0  0  0  0  0  0  0  0  0
   -0.8668    2.6480   -0.0318 O   0  0  0  0  0  0  0  0  0  0  0  0
   -1.5343    0.4119    0.2490 C   0  0  0  0  0  0  0  0  0  0  0  0
   -1.4291   -0.4478   -0.9305 C   0  0  0  0  0  0  0  0  0  0  0  0
   -1.0062   -0.9246    0.4360 C   0  0  0  0  0  0  0  0  0  0  0  0
    0.2706   -1.1133    0.7772 O   0  0  0  0  0  0  0  0  0  0  0  0
    2.0859    0.8211   -0.8983 H   0  0  0  0  0  0  0  0  0  0  0  0
    1.5776   -0.9088   -1.2029 H   0  0  0  0  0  0  0  0  0  0  0  0
    3.0297   -0.5736   -0.2449 H   0  0  0  0  0  0  0  0  0  0  0  0
    1.8636   -0.2776    1.6602 H   0  0  0  0  0  0  0  0  0  0  0  0
   -2.5159    0.6662    0.7199 H   0  0  0  0  0  0  0  0  0  0  0  0
   -0.6618   -0.1942   -1.6855 H   0  0  0  0  0  0  0  0  0  0  0  0
   -2.3647   -0.8289   -1.3892 H   0  0  0  0  0  0  0  0  0  0  0  0
   -1.7292   -1.6880    0.8544 H   0  0  0  0  0  0  0  0  0  0  0  0
  1  2  1  0
  2  3  1  0
  3  4  1  0
  4  5  2  0
  4  6  1  0
  6  7  1  0
  7  8  1  0
  8  9  1  0
  9  2  1  0
  8  6  1  0
  1 10  1  0
  1 11  1  0
  1 12  1  0
  2 13  1  0
  6 14  1  0
  7 15  1  0
  7 16  1  0
  8 17  1  0
M  END
