
     RDKit          3D

 21 22  0  0  0  0  0  0  0  0999 V2000
    1.9700   -0.7392   -0.4299 C   0  0  0  0  0  0  0  0  0  0  0  0
    0.8953   -0.2142    0.4864 C   0  0  0  0  0  0  0  0  0  0  0  0
    0.2388   -1.3245    1.0252 O   0  0  0  0  0  0  0  0  0  0  0  0
   -0.7887   -1.7838    0.2265 C   0  0  0  0  0  0  0  0  0  0  0  0
   -1.5219   -0.6016   -0.3960 C   0  0  0  0  0  0  0  0  0  0  0  0
   -1.4156    0.5391    0.5791 C   0  0  0  0  0  0  0  0  0  0  0  0
   -0.0911    0.6775   -0.1848 C   0  0  0  0  0  0  0  0  0  0  0  0
    0.2584    2.1260   -0.3033 C   0  0  0  0  0  0  0  0  0  0  0  0
   -0.7110    0.0948   -1.2755 O   0  0  0  0  0  0  0  0  0  0  0  0
    1.5814   -1.2089   -1.3461 H   0  0  0  0  0  0  0  0  0  0  0  0
    2.4999   -1.5470    0.1377 H   0  0  0  0  0  0  0  0  0  0  0  0
    2.7387    0.0324   -0.6323 H   0  0  0  0  0  0  0  0  0  0  0  0
    1.3878    0.3478    1.2928 H   0  0  0  0  0  0  0  0  0  0  0  0
   -0.3999   -2.4742   -0.5367 H   0  0  0  0  0  0  0  0  0  0  0  0
   -1.5603   -2.3025    0.8601 H   0  0  0  0  0  0  0  0  0  0  0  0
   -2.5530   -0.7772   -0.6861 H   0  0  0  0  0  0  0  0  0  0  0  0
   -1.2794    0.2533    1.6458 H   0  0  0  0  0  0  0  0  0  0  0  0
   -2.0820    1.3864    0.4286 H   0  0  0  0  0  0  0  0  0  0  0  0
    1.2765    2.3347   -0.6345 H   0  0  0  0  0  0  0  0  0  0  0  0
    0.0758    2.5860    0.7104 H   0  0  0  0  0  0  0  0  0  0  0  0
   -0.5197    2.5951   -0.9673 H   0  0  0  0  0  0  0  0  0  0  0  0
  1  2  1  0
  2  3  1  0
  3  4  1  0
  4  5  1  0
  5  6  1  0
  6  7  1  0
  7  8  1  0
  7  9  1  0
  7  2  1  0
  9  5  1  0
  1 10  1  0
  1 11  1  0
  1 12  1  0
  2 13  1  0
  4 14  1  0
  4 15  1  0
  5 16  1  0
  6 17  1  0
  6 18  1  0
  8 19  1  0
  8 20  1  0
  8 21  1  0
M  END
