
     RDKit          3D

 20 21  0  0  0  0  0  0  0  0999 V2000
    2.1238   -0.4025    1.1265 C   0  0  0  0  0  0  0  0  0  0  0  0
    1.7016    0.9469    0.5925 C   0  0  0  0  0  0  0  0  0  0  0  0
    1.8021    1.1382   -0.7915 O   0  0  0  0  0  0  0  0  0  0  0  0
    0.5133    1.0239   -0.2829 C   0  0  0  0  0  0  0  0  0  0  0  0
   -0.2435   -0.1976   -0.7124 C   0  0  0  0  0  0  0  0  0  0  0  0
   -0.8663   -1.0220    0.3904 C   0  0  0  0  0  0  0  0  0  0  0  0
   -2.0715   -0.0766    0.2953 C   0  0  0  0  0  0  0  0  0  0  0  0
   -1.6794    0.1152   -1.1555 C   0  0  0  0  0  0  0  0  0  0  0  0
    1.8242   -1.2163    0.4547 H   0  0  0  0  0  0  0  0  0  0  0  0
    1.8086   -0.5500    2.1775 H   0  0  0  0  0  0  0  0  0  0  0  0
    3.2482   -0.3829    1.1678 H   0  0  0  0  0  0  0  0  0  0  0  0
    2.0092    1.8204    1.1710 H   0  0  0  0  0  0  0  0  0  0  0  0
   -0.0719    1.9709   -0.1745 H   0  0  0  0  0  0  0  0  0  0  0  0
    0.3149   -0.8016   -1.4671 H   0  0  0  0  0  0  0  0  0  0  0  0
   -0.3807   -1.0383    1.3589 H   0  0  0  0  0  0  0  0  0  0  0  0
   -1.1827   -2.0061   -0.0258 H   0  0  0  0  0  0  0  0  0  0  0  0
   -1.9673    0.8183    0.9213 H   0  0  0  0  0  0  0  0  0  0  0  0
   -3.0396   -0.5631    0.4454 H   0  0  0  0  0  0  0  0  0  0  0  0
   -1.8020    1.1333   -1.5386 H   0  0  0  0  0  0  0  0  0  0  0  0
   -2.0411   -0.7102   -1.7936 H   0  0  0  0  0  0  0  0  0  0  0  0
  1  2  1  0
  2  3  1  0
  3  4  1  0
  4  5  1  0
  5  6  1  0
  6  7  1  0
  7  8  1  0
  4  2  1  0
  8  5  1  0
  1  9  1  0
  1 10  1  0
  1 11  1  0
  2 12  1  0
  4 13  1  0
  5 14  1  0
  6 15  1  0
  6 16  1  0
  7 17  1  0
  7 18  1  0
  8 19  1  0
  8 20  1  0
M  END
