
     RDKit          3D

 19 19  0  0  0  0  0  0  0  0999 V2000
   -1.4559   -0.6372    1.0067 C   0  0  0  0  0  0  0  0  0  0  0  0
   -0.3188   -0.8632    0.0671 C   0  0  0  0  0  0  0  0  0  0  0  0
   -0.8625   -1.0150   -1.2224 O   0  0  0  0  0  0  0  0  0  0  0  0
   -0.8528    0.2775   -1.6998 C   0  0  0  0  0  0  0  0  0  0  0  0
    0.4223    0.7511   -1.3760 O   0  0  0  0  0  0  0  0  0  0  0  0
    0.6081    0.3017   -0.0728 C   0  0  0  0  0  0  0  0  0  0  0  0
    2.0360   -0.2476   -0.0147 C   0  0  0  0  0  0  0  0  0  0  0  0
    0.3903    1.3706    0.8976 C   0  0  0  0  0  0  0  0  0  0  0  0
    0.0872    2.4801    0.5068 O   0  0  0  0  0  0  0  0  0  0  0  0
   -1.1693   -1.0007    2.0253 H   0  0  0  0  0  0  0  0  0  0  0  0
   -1.8335    0.4017    1.0176 H   0  0  0  0  0  0  0  0  0  0  0  0
   -2.3165   -1.2831    0.6928 H   0  0  0  0  0  0  0  0  0  0  0  0
    0.2177   -1.7955    0.3770 H   0  0  0  0  0  0  0  0  0  0  0  0
   -1.5800    0.9426   -1.2164 H   0  0  0  0  0  0  0  0  0  0  0  0
   -0.9513    0.3265   -2.8104 H   0  0  0  0  0  0  0  0  0  0  0  0
    2.7589    0.5192   -0.3353 H   0  0  0  0  0  0  0  0  0  0  0  0
    2.2638   -0.6772    0.9709 H   0  0  0  0  0  0  0  0  0  0  0  0
    2.0674   -1.0644   -0.7735 H   0  0  0  0  0  0  0  0  0  0  0  0
    0.4888    1.2129    1.9594 H   0  0  0  0  0  0  0  0  0  0  0  0
  1  2  1  0
  2  3  1  0
  3  4  1  0
  4  5  1  0
  5  6  1  0
  6  7  1  0
  6  8  1  0
  8  9  2  0
  6  2  1  0
  1 10  1  0
  1 11  1  0
  1 12  1  0
  2 13  1  0
  4 14  1  0
  4 15  1  0
  7 16  1  0
  7 17  1  0
  7 18  1  0
  8 19  1  0
M  END
