
     RDKit          3D

 17 17  0  0  0  0  0  0  0  0999 V2000
    1.8259   -0.8552   -0.2813 C   0  0  0  0  0  0  0  0  0  0  0  0
    1.1185    0.3603    0.2090 C   0  0  0  0  0  0  0  0  0  0  0  0
    0.6492    0.1493    1.6017 O   0  0  0  0  0  0  0  0  0  0  0  0
   -0.2711    0.4619    0.5186 C   0  0  0  0  0  0  0  0  0  0  0  0
   -0.8907    1.8434    0.5777 C   0  0  0  0  0  0  0  0  0  0  0  0
   -1.2613   -0.6431    0.2542 C   0  0  0  0  0  0  0  0  0  0  0  0
   -0.6501   -1.8441   -0.1001 O   0  0  0  0  0  0  0  0  0  0  0  0
    2.9318   -0.6990   -0.2576 H   0  0  0  0  0  0  0  0  0  0  0  0
    1.6446   -1.7678    0.3361 H   0  0  0  0  0  0  0  0  0  0  0  0
    1.5487   -1.0668   -1.3550 H   0  0  0  0  0  0  0  0  0  0  0  0
    1.7285    1.2924    0.1922 H   0  0  0  0  0  0  0  0  0  0  0  0
   -1.9339    1.8190    0.9365 H   0  0  0  0  0  0  0  0  0  0  0  0
   -0.9006    2.2777   -0.4410 H   0  0  0  0  0  0  0  0  0  0  0  0
   -0.3244    2.4808    1.3056 H   0  0  0  0  0  0  0  0  0  0  0  0
   -1.8693   -0.8800    1.1757 H   0  0  0  0  0  0  0  0  0  0  0  0
   -1.9928   -0.3825   -0.5218 H   0  0  0  0  0  0  0  0  0  0  0  0
   -1.3529   -2.5462   -0.0399 H   0  0  0  0  0  0  0  0  0  0  0  0
  1  2  1  0
  2  3  1  0
  3  4  1  0
  4  5  1  0
  4  6  1  0
  6  7  1  0
  4  2  1  0
  1  8  1  0
  1  9  1  0
  1 10  1  0
  2 11  1  0
  5 12  1  0
  5 13  1  0
  5 14  1  0
  6 15  1  0
  6 16  1  0
  7 17  1  0
M  END
