
     RDKit          3D

 19 20  0  0  0  0  0  0  0  0999 V2000
   -2.1589   -0.8287   -0.0132 C   0  0  0  0  0  0  0  0  0  0  0  0
   -0.8314   -0.3840    0.5689 C   0  0  0  0  0  0  0  0  0  0  0  0
   -0.9659    0.9417    0.9350 O   0  0  0  0  0  0  0  0  0  0  0  0
   -0.3505    1.7870   -0.0054 C   0  0  0  0  0  0  0  0  0  0  0  0
    1.0355    1.5782    0.1815 O   0  0  0  0  0  0  0  0  0  0  0  0
    1.3438    0.3896   -0.4279 C   0  0  0  0  0  0  0  0  0  0  0  0
    2.3342   -0.4906    0.3039 C   0  0  0  0  0  0  0  0  0  0  0  0
    1.3317   -1.4830    0.3133 O   0  0  0  0  0  0  0  0  0  0  0  0
    0.3329   -0.6839   -0.2923 C   0  0  0  0  0  0  0  0  0  0  0  0
   -2.8410    0.0528   -0.1990 H   0  0  0  0  0  0  0  0  0  0  0  0
   -2.7343   -1.4704    0.7000 H   0  0  0  0  0  0  0  0  0  0  0  0
   -2.0539   -1.3205   -0.9954 H   0  0  0  0  0  0  0  0  0  0  0  0
   -0.7017   -0.9602    1.5316 H   0  0  0  0  0  0  0  0  0  0  0  0
   -0.6045    1.4468   -1.0444 H   0  0  0  0  0  0  0  0  0  0  0  0
   -0.6174    2.8302    0.1793 H   0  0  0  0  0  0  0  0  0  0  0  0
    1.6619    0.5625   -1.4746 H   0  0  0  0  0  0  0  0  0  0  0  0
    3.2294   -0.7544   -0.2930 H   0  0  0  0  0  0  0  0  0  0  0  0
    2.5804   -0.0989    1.3125 H   0  0  0  0  0  0  0  0  0  0  0  0
    0.0096   -1.1143   -1.2807 H   0  0  0  0  0  0  0  0  0  0  0  0
  1  2  1  0
  2  3  1  0
  3  4  1  0
  4  5  1  0
  5  6  1  0
  6  7  1  0
  7  8  1  0
  8  9  1  0
  9  2  1  0
  9  6  1  0
  1 10  1  0
  1 11  1  0
  1 12  1  0
  2 13  1  0
  4 14  1  0
  4 15  1  0
  6 16  1  0
  7 17  1  0
  7 18  1  0
  9 19  1  0
M  END
