
     RDKit          3D

 19 20  0  0  0  0  0  0  0  0999 V2000
    2.0858    0.6260   -0.7332 C   0  0  0  0  0  0  0  0  0  0  0  0
    1.3529   -0.5999   -0.2707 C   0  0  0  0  0  0  0  0  0  0  0  0
    0.1399   -0.8485   -0.9561 O   0  0  0  0  0  0  0  0  0  0  0  0
   -0.4798   -0.1016    0.0141 C   0  0  0  0  0  0  0  0  0  0  0  0
   -1.1495    1.1266   -0.3544 C   0  0  0  0  0  0  0  0  0  0  0  0
   -1.9061   -0.0587    0.2581 C   0  0  0  0  0  0  0  0  0  0  0  0
   -2.6834   -0.8371   -0.6305 O   0  0  0  0  0  0  0  0  0  0  0  0
    0.5816   -0.2700    1.0102 C   0  0  0  0  0  0  0  0  0  0  0  0
    0.3985   -1.3852    1.8187 O   0  0  0  0  0  0  0  0  0  0  0  0
    1.6146    1.5469   -0.3240 H   0  0  0  0  0  0  0  0  0  0  0  0
    2.1699    0.6733   -1.8416 H   0  0  0  0  0  0  0  0  0  0  0  0
    3.1295    0.5457   -0.3420 H   0  0  0  0  0  0  0  0  0  0  0  0
    1.9305   -1.5298   -0.2353 H   0  0  0  0  0  0  0  0  0  0  0  0
   -1.0036    2.0299    0.2568 H   0  0  0  0  0  0  0  0  0  0  0  0
   -1.3466    1.2882   -1.4476 H   0  0  0  0  0  0  0  0  0  0  0  0
   -2.3051    0.1603    1.2538 H   0  0  0  0  0  0  0  0  0  0  0  0
   -3.6035   -0.8182   -0.3139 H   0  0  0  0  0  0  0  0  0  0  0  0
    0.9393    0.6135    1.5498 H   0  0  0  0  0  0  0  0  0  0  0  0
    0.1351   -2.1612    1.2626 H   0  0  0  0  0  0  0  0  0  0  0  0
  1  2  1  0
  2  3  1  0
  3  4  1  0
  4  5  1  0
  5  6  1  0
  6  7  1  0
  4  8  1  0
  8  9  1  0
  8  2  1  0
  6  4  1  0
  1 10  1  0
  1 11  1  0
  1 12  1  0
  2 13  1  0
  5 14  1  0
  5 15  1  0
  6 16  1  0
  7 17  1  0
  8 18  1  0
  9 19  1  0
M  END
