
     RDKit          3D

 21 22  0  0  0  0  0  0  0  0999 V2000
    2.4303    0.4210    0.6372 C   0  0  0  0  0  0  0  0  0  0  0  0
    1.5717   -0.1972   -0.4482 C   0  0  0  0  0  0  0  0  0  0  0  0
    1.3931   -1.5603   -0.2538 O   0  0  0  0  0  0  0  0  0  0  0  0
    0.0048   -1.8072   -0.2818 C   0  0  0  0  0  0  0  0  0  0  0  0
   -0.5267   -0.5946    0.4514 C   0  0  0  0  0  0  0  0  0  0  0  0
   -1.9724   -0.2943    0.1693 C   0  0  0  0  0  0  0  0  0  0  0  0
   -1.9048    1.2036   -0.0959 C   0  0  0  0  0  0  0  0  0  0  0  0
   -0.5486    1.4426   -0.6620 C   0  0  0  0  0  0  0  0  0  0  0  0
    0.2397    0.4337   -0.3640 C   0  0  0  0  0  0  0  0  0  0  0  0
    1.9961    1.3633    1.0311 H   0  0  0  0  0  0  0  0  0  0  0  0
    3.4181    0.6950    0.2101 H   0  0  0  0  0  0  0  0  0  0  0  0
    2.6095   -0.2870    1.4735 H   0  0  0  0  0  0  0  0  0  0  0  0
    2.0379   -0.0647   -1.4584 H   0  0  0  0  0  0  0  0  0  0  0  0
   -0.3340   -1.7071   -1.3319 H   0  0  0  0  0  0  0  0  0  0  0  0
   -0.2500   -2.7475    0.1902 H   0  0  0  0  0  0  0  0  0  0  0  0
   -0.2358   -0.5370    1.4963 H   0  0  0  0  0  0  0  0  0  0  0  0
   -2.4047   -0.8612   -0.6568 H   0  0  0  0  0  0  0  0  0  0  0  0
   -2.5357   -0.4468    1.1061 H   0  0  0  0  0  0  0  0  0  0  0  0
   -1.9873    1.7775    0.8363 H   0  0  0  0  0  0  0  0  0  0  0  0
   -2.7056    1.4326   -0.8173 H   0  0  0  0  0  0  0  0  0  0  0  0
   -0.2955    2.3357   -1.2312 H   0  0  0  0  0  0  0  0  0  0  0  0
  1  2  1  0
  2  3  1  0
  3  4  1  0
  4  5  1  0
  5  6  1  0
  6  7  1  0
  7  8  1  0
  8  9  2  0
  9  2  1  0
  9  5  1  0
  1 10  1  0
  1 11  1  0
  1 12  1  0
  2 13  1  0
  4 14  1  0
  4 15  1  0
  5 16  1  0
  6 17  1  0
  6 18  1  0
  7 19  1  0
  7 20  1  0
  8 21  1  0
M  END
