
     RDKit          3D

 23 24  0  0  0  0  0  0  0  0999 V2000
    2.9867   -0.3364    0.7755 C   0  0  0  0  0  0  0  0  0  0  0  0
    1.9887   -0.4290   -0.3436 C   0  0  0  0  0  0  0  0  0  0  0  0
    0.8693   -1.2201   -0.0776 O   0  0  0  0  0  0  0  0  0  0  0  0
   -0.0416   -0.2133   -0.3293 C   0  0  0  0  0  0  0  0  0  0  0  0
   -1.2131   -0.0090    0.5701 C   0  0  0  0  0  0  0  0  0  0  0  0
   -2.0453    1.1425    0.0801 C   0  0  0  0  0  0  0  0  0  0  0  0
   -2.0794   -1.2613    0.4905 C   0  0  0  0  0  0  0  0  0  0  0  0
    0.0352    0.6072   -1.5634 C   0  0  0  0  0  0  0  0  0  0  0  0
    1.0526    0.7448   -0.4754 C   0  0  0  0  0  0  0  0  0  0  0  0
    3.6071    0.5746    0.6576 H   0  0  0  0  0  0  0  0  0  0  0  0
    2.5424   -0.3842    1.7789 H   0  0  0  0  0  0  0  0  0  0  0  0
    3.6785   -1.1989    0.6716 H   0  0  0  0  0  0  0  0  0  0  0  0
    2.4512   -0.7642   -1.2849 H   0  0  0  0  0  0  0  0  0  0  0  0
   -0.9432    0.1813    1.6324 H   0  0  0  0  0  0  0  0  0  0  0  0
   -2.4925    0.9308   -0.8928 H   0  0  0  0  0  0  0  0  0  0  0  0
   -2.9006    1.2739    0.8018 H   0  0  0  0  0  0  0  0  0  0  0  0
   -1.4393    2.0572    0.1321 H   0  0  0  0  0  0  0  0  0  0  0  0
   -2.1807   -1.7358    1.4984 H   0  0  0  0  0  0  0  0  0  0  0  0
   -3.0800   -1.0450    0.0617 H   0  0  0  0  0  0  0  0  0  0  0  0
   -1.6235   -2.0392   -0.1567 H   0  0  0  0  0  0  0  0  0  0  0  0
    0.3145    0.0392   -2.4809 H   0  0  0  0  0  0  0  0  0  0  0  0
   -0.6665    1.4350   -1.6503 H   0  0  0  0  0  0  0  0  0  0  0  0
    1.1794    1.6497    0.1040 H   0  0  0  0  0  0  0  0  0  0  0  0
  1  2  1  0
  2  3  1  0
  3  4  1  0
  4  5  1  0
  5  6  1  0
  5  7  1  0
  4  8  1  0
  8  9  1  0
  9  2  1  0
  9  4  1  0
  1 10  1  0
  1 11  1  0
  1 12  1  0
  2 13  1  0
  5 14  1  0
  6 15  1  0
  6 16  1  0
  6 17  1  0
  7 18  1  0
  7 19  1  0
  7 20  1  0
  8 21  1  0
  8 22  1  0
  9 23  1  0
M  END
