
     RDKit          3D

 21 22  0  0  0  0  0  0  0  0999 V2000
   -2.6456   -0.2734    0.0828 C   0  0  0  0  0  0  0  0  0  0  0  0
   -1.2558    0.2151    0.3008 C   0  0  0  0  0  0  0  0  0  0  0  0
   -1.1580    1.5280   -0.0591 O   0  0  0  0  0  0  0  0  0  0  0  0
    0.1185    1.9204   -0.4354 C   0  0  0  0  0  0  0  0  0  0  0  0
    0.8336    0.8885   -0.9871 O   0  0  0  0  0  0  0  0  0  0  0  0
    1.0780   -0.1790   -0.1890 C   0  0  0  0  0  0  0  0  0  0  0  0
    2.4838   -0.2720    0.0938 C   0  0  0  0  0  0  0  0  0  0  0  0
    0.5945   -1.4605    0.3018 C   0  0  0  0  0  0  0  0  0  0  0  0
   -0.2295   -0.6871   -0.4096 C   0  0  0  0  0  0  0  0  0  0  0  0
   -3.0831    0.2180   -0.8337 H   0  0  0  0  0  0  0  0  0  0  0  0
   -2.7620   -1.3619    0.0662 H   0  0  0  0  0  0  0  0  0  0  0  0
   -3.2730    0.1250    0.9284 H   0  0  0  0  0  0  0  0  0  0  0  0
   -1.0584    0.1604    1.4114 H   0  0  0  0  0  0  0  0  0  0  0  0
    0.6703    2.4420    0.3823 H   0  0  0  0  0  0  0  0  0  0  0  0
   -0.0195    2.6897   -1.2447 H   0  0  0  0  0  0  0  0  0  0  0  0
    3.1144    0.5871   -0.2146 H   0  0  0  0  0  0  0  0  0  0  0  0
    2.7022   -0.3502    1.2048 H   0  0  0  0  0  0  0  0  0  0  0  0
    3.0459   -1.1600   -0.3310 H   0  0  0  0  0  0  0  0  0  0  0  0
    0.5459   -1.5494    1.4329 H   0  0  0  0  0  0  0  0  0  0  0  0
    0.9647   -2.4573   -0.1001 H   0  0  0  0  0  0  0  0  0  0  0  0
   -0.6668   -1.0235   -1.4008 H   0  0  0  0  0  0  0  0  0  0  0  0
  1  2  1  0
  2  3  1  0
  3  4  1  0
  4  5  1  0
  5  6  1  0
  6  7  1  0
  6  8  1  0
  8  9  1  0
  9  2  1  0
  9  6  1  0
  1 10  1  0
  1 11  1  0
  1 12  1  0
  2 13  1  0
  4 14  1  0
  4 15  1  0
  7 16  1  0
  7 17  1  0
  7 18  1  0
  8 19  1  0
  8 20  1  0
  9 21  1  0
M  END
