
     RDKit          3D

 21 22  0  0  0  0  0  0  0  0999 V2000
    0.2372    2.0616    0.0698 C   0  0  0  0  0  0  0  0  0  0  0  0
    0.6104    0.6322    0.3435 C   0  0  0  0  0  0  0  0  0  0  0  0
    1.5942    0.2737   -0.6097 O   0  0  0  0  0  0  0  0  0  0  0  0
    2.1576   -0.8936   -0.1683 C   0  0  0  0  0  0  0  0  0  0  0  0
    1.3166   -1.9204    0.0860 O   0  0  0  0  0  0  0  0  0  0  0  0
   -0.0096   -1.7235   -0.0273 C   0  0  0  0  0  0  0  0  0  0  0  0
   -0.5110   -0.3343    0.1015 C   0  0  0  0  0  0  0  0  0  0  0  0
   -1.5938    0.1732   -0.8049 C   0  0  0  0  0  0  0  0  0  0  0  0
   -1.8662   -0.1353    0.6234 C   0  0  0  0  0  0  0  0  0  0  0  0
    1.1033    2.6881    0.3984 H   0  0  0  0  0  0  0  0  0  0  0  0
    0.1694    2.2064   -1.0283 H   0  0  0  0  0  0  0  0  0  0  0  0
   -0.6884    2.3723    0.6041 H   0  0  0  0  0  0  0  0  0  0  0  0
    1.0542    0.5548    1.3510 H   0  0  0  0  0  0  0  0  0  0  0  0
    2.6995   -0.6496    0.7935 H   0  0  0  0  0  0  0  0  0  0  0  0
    2.9079   -1.2270   -0.9407 H   0  0  0  0  0  0  0  0  0  0  0  0
   -0.5291   -2.3434    0.7626 H   0  0  0  0  0  0  0  0  0  0  0  0
   -0.4067   -2.1438   -0.9939 H   0  0  0  0  0  0  0  0  0  0  0  0
   -1.6384    1.2615   -1.0558 H   0  0  0  0  0  0  0  0  0  0  0  0
   -1.9858   -0.4560   -1.6250 H   0  0  0  0  0  0  0  0  0  0  0  0
   -2.4867   -1.0574    0.7783 H   0  0  0  0  0  0  0  0  0  0  0  0
   -2.1345    0.6606    1.3417 H   0  0  0  0  0  0  0  0  0  0  0  0
  1  2  1  0
  2  3  1  0
  3  4  1  0
  4  5  1  0
  5  6  1  0
  6  7  1  0
  7  8  1  0
  8  9  1  0
  7  2  1  0
  9  7  1  0
  1 10  1  0
  1 11  1  0
  1 12  1  0
  2 13  1  0
  4 14  1  0
  4 15  1  0
  6 16  1  0
  6 17  1  0
  8 18  1  0
  8 19  1  0
  9 20  1  0
  9 21  1  0
M  END
