
     RDKit          3D

 17 18  0  0  0  0  0  0  0  0999 V2000
    2.4872   -0.2065    0.3049 C   0  0  0  0  0  0  0  0  0  0  0  0
    0.9771   -0.1237    0.2730 C   0  0  0  0  0  0  0  0  0  0  0  0
    0.4000   -1.1044   -0.5056 O   0  0  0  0  0  0  0  0  0  0  0  0
   -0.8440   -0.6093   -0.8281 C   0  0  0  0  0  0  0  0  0  0  0  0
   -1.8423   -0.5187    0.2934 C   0  0  0  0  0  0  0  0  0  0  0  0
   -1.5976    0.9470    0.4406 C   0  0  0  0  0  0  0  0  0  0  0  0
   -1.9675    1.8315    1.1608 O   0  0  0  0  0  0  0  0  0  0  0  0
   -0.6757    0.8734   -0.7065 C   0  0  0  0  0  0  0  0  0  0  0  0
    0.6333    1.0918   -0.2849 O   0  0  0  0  0  0  0  0  0  0  0  0
    2.8381    0.5628    1.0199 H   0  0  0  0  0  0  0  0  0  0  0  0
    2.8413    0.1141   -0.6983 H   0  0  0  0  0  0  0  0  0  0  0  0
    2.8488   -1.2192    0.5702 H   0  0  0  0  0  0  0  0  0  0  0  0
    0.6143   -0.2559    1.3133 H   0  0  0  0  0  0  0  0  0  0  0  0
   -1.2218   -0.9960   -1.7723 H   0  0  0  0  0  0  0  0  0  0  0  0
   -2.8790   -0.6489   -0.1358 H   0  0  0  0  0  0  0  0  0  0  0  0
   -1.6338   -1.1169    1.1815 H   0  0  0  0  0  0  0  0  0  0  0  0
   -0.9784    1.3790   -1.6261 H   0  0  0  0  0  0  0  0  0  0  0  0
  1  2  1  0
  2  3  1  0
  3  4  1  0
  4  5  1  0
  5  6  1  0
  6  7  2  0
  6  8  1  0
  8  9  1  0
  9  2  1  0
  8  4  1  0
  1 10  1  0
  1 11  1  0
  1 12  1  0
  2 13  1  0
  4 14  1  0
  5 15  1  0
  5 16  1  0
  8 17  1  0
M  END
