
     RDKit          3D

 19 21  0  0  0  0  0  0  0  0999 V2000
   -2.1626    1.3828    0.0130 C   0  0  0  0  0  0  0  0  0  0  0  0
   -0.9865    0.5051    0.1991 C   0  0  0  0  0  0  0  0  0  0  0  0
    0.0020    0.6810   -0.7979 O   0  0  0  0  0  0  0  0  0  0  0  0
    0.9122   -0.2545   -0.4038 C   0  0  0  0  0  0  0  0  0  0  0  0
    1.8457    0.2411    0.6791 C   0  0  0  0  0  0  0  0  0  0  0  0
    2.3347   -0.2648   -0.6278 C   0  0  0  0  0  0  0  0  0  0  0  0
    0.1371   -1.5136   -0.2151 C   0  0  0  0  0  0  0  0  0  0  0  0
   -0.5536   -1.7739    0.9455 O   0  0  0  0  0  0  0  0  0  0  0  0
   -1.2661   -0.9625    0.0781 C   0  0  0  0  0  0  0  0  0  0  0  0
   -2.8577    0.9151   -0.7069 H   0  0  0  0  0  0  0  0  0  0  0  0
   -1.8525    2.4023   -0.2645 H   0  0  0  0  0  0  0  0  0  0  0  0
   -2.7005    1.4690    0.9802 H   0  0  0  0  0  0  0  0  0  0  0  0
   -0.4847    0.7209    1.1526 H   0  0  0  0  0  0  0  0  0  0  0  0
    1.9584    1.3505    0.8172 H   0  0  0  0  0  0  0  0  0  0  0  0
    1.8299   -0.3611    1.5878 H   0  0  0  0  0  0  0  0  0  0  0  0
    2.8327   -1.2748   -0.5763 H   0  0  0  0  0  0  0  0  0  0  0  0
    2.8831    0.4110   -1.3146 H   0  0  0  0  0  0  0  0  0  0  0  0
    0.1865   -2.3254   -0.9900 H   0  0  0  0  0  0  0  0  0  0  0  0
   -2.0584   -1.3481   -0.5557 H   0  0  0  0  0  0  0  0  0  0  0  0
  1  2  1  0
  2  3  1  0
  3  4  1  0
  4  5  1  0
  5  6  1  0
  4  7  1  0
  7  8  1  0
  8  9  1  0
  9  2  1  0
  6  4  1  0
  9  7  1  0
  1 10  1  0
  1 11  1  0
  1 12  1  0
  2 13  1  0
  5 14  1  0
  5 15  1  0
  6 16  1  0
  6 17  1  0
  7 18  1  0
  9 19  1  0
M  END
