
     RDKit          3D

 23 23  0  0  0  0  0  0  0  0999 V2000
   -2.1888    1.8537   -0.3471 C   0  0  0  0  0  0  0  0  0  0  0  0
   -1.0958    0.8409   -0.5268 C   0  0  0  0  0  0  0  0  0  0  0  0
    0.1202    1.2909   -0.0531 O   0  0  0  0  0  0  0  0  0  0  0  0
    0.3691    0.0757    0.6122 C   0  0  0  0  0  0  0  0  0  0  0  0
    1.3614   -0.7657   -0.1298 C   0  0  0  0  0  0  0  0  0  0  0  0
    2.7050   -0.0448   -0.2825 C   0  0  0  0  0  0  0  0  0  0  0  0
    3.2650    0.2628    0.9415 O   0  0  0  0  0  0  0  0  0  0  0  0
   -1.0548   -0.2491    0.5178 C   0  0  0  0  0  0  0  0  0  0  0  0
   -1.4820   -1.6046    0.0593 C   0  0  0  0  0  0  0  0  0  0  0  0
   -1.8563    2.7888   -0.8792 H   0  0  0  0  0  0  0  0  0  0  0  0
   -3.1234    1.5464   -0.8739 H   0  0  0  0  0  0  0  0  0  0  0  0
   -2.3463    2.0723    0.7193 H   0  0  0  0  0  0  0  0  0  0  0  0
   -1.0901    0.4688   -1.5789 H   0  0  0  0  0  0  0  0  0  0  0  0
    0.7032    0.2735    1.6506 H   0  0  0  0  0  0  0  0  0  0  0  0
    1.5774   -1.6879    0.4502 H   0  0  0  0  0  0  0  0  0  0  0  0
    1.0503   -1.0670   -1.1264 H   0  0  0  0  0  0  0  0  0  0  0  0
    3.3757   -0.6652   -0.9116 H   0  0  0  0  0  0  0  0  0  0  0  0
    2.5723    0.9122   -0.8342 H   0  0  0  0  0  0  0  0  0  0  0  0
    3.6515   -0.5194    1.4011 H   0  0  0  0  0  0  0  0  0  0  0  0
   -1.6413    0.0837    1.4064 H   0  0  0  0  0  0  0  0  0  0  0  0
   -1.5213   -1.6012   -1.0543 H   0  0  0  0  0  0  0  0  0  0  0  0
   -2.5083   -1.8368    0.4156 H   0  0  0  0  0  0  0  0  0  0  0  0
   -0.8429   -2.4279    0.4237 H   0  0  0  0  0  0  0  0  0  0  0  0
  1  2  1  0
  2  3  1  0
  3  4  1  0
  4  5  1  0
  5  6  1  0
  6  7  1  0
  4  8  1  0
  8  9  1  0
  8  2  1  0
  1 10  1  0
  1 11  1  0
  1 12  1  0
  2 13  1  0
  4 14  1  0
  5 15  1  0
  5 16  1  0
  6 17  1  0
  6 18  1  0
  7 19  1  0
  8 20  1  0
  9 21  1  0
  9 22  1  0
  9 23  1  0
M  END
