
     RDKit          3D

 19 20  0  0  0  0  0  0  0  0999 V2000
    2.6734   -0.0402   -0.1850 C   0  0  0  0  0  0  0  0  0  0  0  0
    1.2284   -0.5070   -0.1113 C   0  0  0  0  0  0  0  0  0  0  0  0
    0.7483   -0.8107   -1.3895 O   0  0  0  0  0  0  0  0  0  0  0  0
   -0.1380    0.2303   -1.2916 C   0  0  0  0  0  0  0  0  0  0  0  0
    0.2349    0.5553    0.1338 C   0  0  0  0  0  0  0  0  0  0  0  0
   -1.1914    0.1909   -0.2401 C   0  0  0  0  0  0  0  0  0  0  0  0
   -1.6502   -1.1277    0.2854 C   0  0  0  0  0  0  0  0  0  0  0  0
   -2.1726    1.2781   -0.1420 C   0  0  0  0  0  0  0  0  0  0  0  0
   -2.4501    1.8644   -1.2687 O   0  0  0  0  0  0  0  0  0  0  0  0
    2.7909    1.0258   -0.3796 H   0  0  0  0  0  0  0  0  0  0  0  0
    3.1372   -0.6105   -1.0358 H   0  0  0  0  0  0  0  0  0  0  0  0
    3.2376   -0.3874    0.7120 H   0  0  0  0  0  0  0  0  0  0  0  0
    1.1528   -1.3292    0.6372 H   0  0  0  0  0  0  0  0  0  0  0  0
   -0.0877    1.0578   -2.0305 H   0  0  0  0  0  0  0  0  0  0  0  0
    0.4145    1.5356    0.5234 H   0  0  0  0  0  0  0  0  0  0  0  0
   -2.2526   -1.5850   -0.6016 H   0  0  0  0  0  0  0  0  0  0  0  0
   -2.2387   -1.1423    1.2122 H   0  0  0  0  0  0  0  0  0  0  0  0
   -0.7705   -1.8411    0.3824 H   0  0  0  0  0  0  0  0  0  0  0  0
   -2.6664    1.6430    0.7260 H   0  0  0  0  0  0  0  0  0  0  0  0
  1  2  1  0
  2  3  1  0
  3  4  1  0
  4  5  1  0
  5  6  1  0
  6  7  1  0
  6  8  1  0
  8  9  2  0
  5  2  1  0
  6  4  1  0
  1 10  1  0
  1 11  1  0
  1 12  1  0
  2 13  1  0
  4 14  1  0
  5 15  1  0
  7 16  1  0
  7 17  1  0
  7 18  1  0
  8 19  1  0
M  END
