
     RDKit          3D

 19 19  0  0  0  0  0  0  0  0999 V2000
   -1.8471   -1.4543    0.2198 C   0  0  0  0  0  0  0  0  0  0  0  0
   -1.1561   -0.2363   -0.3050 C   0  0  0  0  0  0  0  0  0  0  0  0
   -2.0121    0.8850   -0.2712 O   0  0  0  0  0  0  0  0  0  0  0  0
   -1.0890    1.6798    0.4257 C   0  0  0  0  0  0  0  0  0  0  0  0
   -0.2212    0.4728    0.6025 C   0  0  0  0  0  0  0  0  0  0  0  0
    1.1891    0.6481    0.0166 C   0  0  0  0  0  0  0  0  0  0  0  0
    1.6577   -0.6528   -0.2202 O   0  0  0  0  0  0  0  0  0  0  0  0
    2.9146   -0.8847   -0.7545 C   0  0  0  0  0  0  0  0  0  0  0  0
    3.5997    0.1368   -1.0101 O   0  0  0  0  0  0  0  0  0  0  0  0
   -2.9070   -1.2352    0.4826 H   0  0  0  0  0  0  0  0  0  0  0  0
   -1.8859   -2.2310   -0.5777 H   0  0  0  0  0  0  0  0  0  0  0  0
   -1.3524   -1.9188    1.0858 H   0  0  0  0  0  0  0  0  0  0  0  0
   -0.7189   -0.3889   -1.3286 H   0  0  0  0  0  0  0  0  0  0  0  0
   -0.7140    2.4622   -0.2681 H   0  0  0  0  0  0  0  0  0  0  0  0
   -1.4636    2.0486    1.4000 H   0  0  0  0  0  0  0  0  0  0  0  0
   -0.1404    0.1112    1.6402 H   0  0  0  0  0  0  0  0  0  0  0  0
    1.8327    1.2062    0.6977 H   0  0  0  0  0  0  0  0  0  0  0  0
    1.0919    1.2452   -0.9209 H   0  0  0  0  0  0  0  0  0  0  0  0
    3.2220   -1.8939   -0.9147 H   0  0  0  0  0  0  0  0  0  0  0  0
  1  2  1  0
  2  3  1  0
  3  4  1  0
  4  5  1  0
  5  6  1  0
  6  7  1  0
  7  8  1  0
  8  9  2  0
  5  2  1  0
  1 10  1  0
  1 11  1  0
  1 12  1  0
  2 13  1  0
  4 14  1  0
  4 15  1  0
  5 16  1  0
  6 17  1  0
  6 18  1  0
  8 19  1  0
M  END
