
     RDKit          3D

 16 16  0  0  0  0  0  0  0  0999 V2000
    1.7567    1.1288   -0.0478 C   0  0  0  0  0  0  0  0  0  0  0  0
    1.0057   -0.1969   -0.1786 C   0  0  0  0  0  0  0  0  0  0  0  0
    0.6990   -0.6672    1.0984 O   0  0  0  0  0  0  0  0  0  0  0  0
   -0.5976   -1.2219    0.9736 C   0  0  0  0  0  0  0  0  0  0  0  0
   -1.2722   -0.0898    0.2103 C   0  0  0  0  0  0  0  0  0  0  0  0
   -2.5259   -0.4476   -0.2385 O   0  0  0  0  0  0  0  0  0  0  0  0
   -0.2716    0.0555   -0.8578 C   0  0  0  0  0  0  0  0  0  0  0  0
   -0.4803    0.3169   -1.9955 O   0  0  0  0  0  0  0  0  0  0  0  0
    1.4485    1.8591   -0.8029 H   0  0  0  0  0  0  0  0  0  0  0  0
    2.8423    0.9596   -0.1647 H   0  0  0  0  0  0  0  0  0  0  0  0
    1.5633    1.5517    0.9721 H   0  0  0  0  0  0  0  0  0  0  0  0
    1.6527   -0.9330   -0.6741 H   0  0  0  0  0  0  0  0  0  0  0  0
   -1.0580   -1.4022    1.9344 H   0  0  0  0  0  0  0  0  0  0  0  0
   -0.5347   -2.1022    0.3096 H   0  0  0  0  0  0  0  0  0  0  0  0
   -1.2632    0.8416    0.8074 H   0  0  0  0  0  0  0  0  0  0  0  0
   -2.9647    0.3476   -0.5942 H   0  0  0  0  0  0  0  0  0  0  0  0
  1  2  1  0
  2  3  1  0
  3  4  1  0
  4  5  1  0
  5  6  1  0
  5  7  1  0
  7  8  2  0
  7  2  1  0
  1  9  1  0
  1 10  1  0
  1 11  1  0
  2 12  1  0
  4 13  1  0
  4 14  1  0
  5 15  1  0
  6 16  1  0
M  END
