
     RDKit          3D

 21 22  0  0  0  0  0  0  0  0999 V2000
    3.0573    0.6342    0.0186 C   0  0  0  0  0  0  0  0  0  0  0  0
    1.7364   -0.0378    0.0908 C   0  0  0  0  0  0  0  0  0  0  0  0
    1.6597   -1.1895   -0.7215 O   0  0  0  0  0  0  0  0  0  0  0  0
    0.3375   -1.5575   -0.4771 C   0  0  0  0  0  0  0  0  0  0  0  0
   -0.3582   -0.2176   -0.5586 C   0  0  0  0  0  0  0  0  0  0  0  0
   -1.3601   -0.0378    0.5512 C   0  0  0  0  0  0  0  0  0  0  0  0
   -2.1412    1.2785    0.5898 C   0  0  0  0  0  0  0  0  0  0  0  0
   -2.7999   -0.0053    0.1191 C   0  0  0  0  0  0  0  0  0  0  0  0
    0.6870    0.7135   -0.4418 O   0  0  0  0  0  0  0  0  0  0  0  0
    3.4637    0.7085    1.0698 H   0  0  0  0  0  0  0  0  0  0  0  0
    3.0288    1.6577   -0.3763 H   0  0  0  0  0  0  0  0  0  0  0  0
    3.7861   -0.0249   -0.5110 H   0  0  0  0  0  0  0  0  0  0  0  0
    1.4921   -0.3877    1.1158 H   0  0  0  0  0  0  0  0  0  0  0  0
   -0.0501   -2.2920   -1.1880 H   0  0  0  0  0  0  0  0  0  0  0  0
    0.3315   -1.9535    0.5815 H   0  0  0  0  0  0  0  0  0  0  0  0
   -0.8496   -0.1049   -1.5285 H   0  0  0  0  0  0  0  0  0  0  0  0
   -1.1144   -0.4212    1.5554 H   0  0  0  0  0  0  0  0  0  0  0  0
   -1.8601    2.0385   -0.1750 H   0  0  0  0  0  0  0  0  0  0  0  0
   -2.4116    1.7021    1.5581 H   0  0  0  0  0  0  0  0  0  0  0  0
   -3.0649   -0.0811   -0.9404 H   0  0  0  0  0  0  0  0  0  0  0  0
   -3.5699   -0.4223    0.8223 H   0  0  0  0  0  0  0  0  0  0  0  0
  1  2  1  0
  2  3  1  0
  3  4  1  0
  4  5  1  0
  5  6  1  0
  6  7  1  0
  7  8  1  0
  5  9  1  0
  9  2  1  0
  8  6  1  0
  1 10  1  0
  1 11  1  0
  1 12  1  0
  2 13  1  0
  4 14  1  0
  4 15  1  0
  5 16  1  0
  6 17  1  0
  7 18  1  0
  7 19  1  0
  8 20  1  0
  8 21  1  0
M  END
