
     RDKit          3D

 21 22  0  0  0  0  0  0  0  0999 V2000
    1.7212    0.1265   -1.5592 C   0  0  0  0  0  0  0  0  0  0  0  0
    1.4019    0.4527   -0.1618 C   0  0  0  0  0  0  0  0  0  0  0  0
    1.9773   -0.4208    0.7918 O   0  0  0  0  0  0  0  0  0  0  0  0
    0.9475    0.0248    1.6514 C   0  0  0  0  0  0  0  0  0  0  0  0
    0.0789    0.1293    0.3976 C   0  0  0  0  0  0  0  0  0  0  0  0
   -0.9439    1.1709    0.4577 C   0  0  0  0  0  0  0  0  0  0  0  0
   -2.1194    0.6798    0.0956 C   0  0  0  0  0  0  0  0  0  0  0  0
   -2.0014   -0.7616   -0.2487 C   0  0  0  0  0  0  0  0  0  0  0  0
   -0.5710   -1.1565    0.0266 C   0  0  0  0  0  0  0  0  0  0  0  0
    1.1474   -0.6530   -2.0429 H   0  0  0  0  0  0  0  0  0  0  0  0
    1.6549    1.0362   -2.2137 H   0  0  0  0  0  0  0  0  0  0  0  0
    2.8108   -0.1676   -1.6125 H   0  0  0  0  0  0  0  0  0  0  0  0
    1.7098    1.4871    0.1188 H   0  0  0  0  0  0  0  0  0  0  0  0
    0.6182   -0.6980    2.3899 H   0  0  0  0  0  0  0  0  0  0  0  0
    1.1803    1.0499    1.9982 H   0  0  0  0  0  0  0  0  0  0  0  0
   -0.7924    2.1973    0.7503 H   0  0  0  0  0  0  0  0  0  0  0  0
   -3.0510    1.2214    0.0463 H   0  0  0  0  0  0  0  0  0  0  0  0
   -2.2895   -0.9128   -1.3136 H   0  0  0  0  0  0  0  0  0  0  0  0
   -2.7189   -1.3422    0.3623 H   0  0  0  0  0  0  0  0  0  0  0  0
   -0.1819   -1.6511   -0.8622 H   0  0  0  0  0  0  0  0  0  0  0  0
   -0.5787   -1.8124    0.9280 H   0  0  0  0  0  0  0  0  0  0  0  0
  1  2  1  0
  2  3  1  0
  3  4  1  0
  4  5  1  0
  5  6  1  0
  6  7  2  0
  7  8  1  0
  8  9  1  0
  5  2  1  0
  9  5  1  0
  1 10  1  0
  1 11  1  0
  1 12  1  0
  2 13  1  0
  4 14  1  0
  4 15  1  0
  6 16  1  0
  7 17  1  0
  8 18  1  0
  8 19  1  0
  9 20  1  0
  9 21  1  0
M  END
