
     RDKit          3D

 19 19  0  0  0  0  0  0  0  0999 V2000
   -3.3190    0.1762   -0.2170 C   0  0  0  0  0  0  0  0  0  0  0  0
   -1.8553   -0.1908   -0.3149 C   0  0  0  0  0  0  0  0  0  0  0  0
   -1.1771    0.7805   -1.1825 O   0  0  0  0  0  0  0  0  0  0  0  0
   -0.8997    0.6706    0.2732 C   0  0  0  0  0  0  0  0  0  0  0  0
    0.5656    0.3576    0.4526 C   0  0  0  0  0  0  0  0  0  0  0  0
    0.9629   -0.7970   -0.1306 O   0  0  0  0  0  0  0  0  0  0  0  0
    2.2986   -1.0828    0.0315 C   0  0  0  0  0  0  0  0  0  0  0  0
    3.2347   -0.1245   -0.5890 C   0  0  0  0  0  0  0  0  0  0  0  0
    2.8881    0.8220   -1.2481 O   0  0  0  0  0  0  0  0  0  0  0  0
   -3.7978    0.2299   -1.2249 H   0  0  0  0  0  0  0  0  0  0  0  0
   -3.4160    1.2148    0.1998 H   0  0  0  0  0  0  0  0  0  0  0  0
   -3.8708   -0.4816    0.4540 H   0  0  0  0  0  0  0  0  0  0  0  0
   -1.6871   -1.2316   -0.6251 H   0  0  0  0  0  0  0  0  0  0  0  0
   -1.2275    1.5967    0.7861 H   0  0  0  0  0  0  0  0  0  0  0  0
    0.7399    0.2380    1.5677 H   0  0  0  0  0  0  0  0  0  0  0  0
    1.2050    1.2080    0.1757 H   0  0  0  0  0  0  0  0  0  0  0  0
    2.5577   -2.1132   -0.3060 H   0  0  0  0  0  0  0  0  0  0  0  0
    2.4820   -1.0038    1.1501 H   0  0  0  0  0  0  0  0  0  0  0  0
    4.3159   -0.2688   -0.4512 H   0  0  0  0  0  0  0  0  0  0  0  0
  1  2  1  0
  2  3  1  0
  3  4  1  0
  4  5  1  0
  5  6  1  0
  6  7  1  0
  7  8  1  0
  8  9  2  0
  4  2  1  0
  1 10  1  0
  1 11  1  0
  1 12  1  0
  2 13  1  0
  4 14  1  0
  5 15  1  0
  5 16  1  0
  7 17  1  0
  7 18  1  0
  8 19  1  0
M  END
