
     RDKit          3D

 21 22  0  0  0  0  0  0  0  0999 V2000
    2.5508    0.2823   -0.3995 C   0  0  0  0  0  0  0  0  0  0  0  0
    1.1331    0.7002   -0.0719 C   0  0  0  0  0  0  0  0  0  0  0  0
    0.2122    0.3411   -1.0724 O   0  0  0  0  0  0  0  0  0  0  0  0
   -0.2702   -0.6149   -0.2426 C   0  0  0  0  0  0  0  0  0  0  0  0
   -0.5268   -2.0154   -0.6247 C   0  0  0  0  0  0  0  0  0  0  0  0
   -1.0388   -0.1598    1.0099 C   0  0  0  0  0  0  0  0  0  0  0  0
   -1.8756    1.0480    0.7410 C   0  0  0  0  0  0  0  0  0  0  0  0
   -1.1809    2.1528    0.3231 O   0  0  0  0  0  0  0  0  0  0  0  0
    0.4289   -0.1578    0.9452 C   0  0  0  0  0  0  0  0  0  0  0  0
    3.2237    0.8225    0.3159 H   0  0  0  0  0  0  0  0  0  0  0  0
    2.6118   -0.8075   -0.2795 H   0  0  0  0  0  0  0  0  0  0  0  0
    2.8451    0.5984   -1.4060 H   0  0  0  0  0  0  0  0  0  0  0  0
    1.1197    1.7562    0.2208 H   0  0  0  0  0  0  0  0  0  0  0  0
   -1.6439   -2.1451   -0.7356 H   0  0  0  0  0  0  0  0  0  0  0  0
   -0.0910   -2.3452   -1.5651 H   0  0  0  0  0  0  0  0  0  0  0  0
   -0.2411   -2.7511    0.1663 H   0  0  0  0  0  0  0  0  0  0  0  0
   -1.5046   -0.9343    1.6334 H   0  0  0  0  0  0  0  0  0  0  0  0
   -2.5990    0.7839   -0.0857 H   0  0  0  0  0  0  0  0  0  0  0  0
   -2.4645    1.2982    1.6397 H   0  0  0  0  0  0  0  0  0  0  0  0
   -1.7093    2.9705    0.5066 H   0  0  0  0  0  0  0  0  0  0  0  0
    1.0206   -0.8231    1.6119 H   0  0  0  0  0  0  0  0  0  0  0  0
  1  2  1  0
  2  3  1  0
  3  4  1  0
  4  5  1  0
  4  6  1  0
  6  7  1  0
  7  8  1  0
  6  9  1  0
  9  2  1  0
  9  4  1  0
  1 10  1  0
  1 11  1  0
  1 12  1  0
  2 13  1  0
  5 14  1  0
  5 15  1  0
  5 16  1  0
  6 17  1  0
  7 18  1  0
  7 19  1  0
  8 20  1  0
  9 21  1  0
M  END
