
     RDKit          3D

 19 19  0  0  0  0  0  0  0  0999 V2000
    2.4283    0.6361    0.3682 C   0  0  0  0  0  0  0  0  0  0  0  0
    1.2021   -0.0029   -0.2956 C   0  0  0  0  0  0  0  0  0  0  0  0
    0.4328    0.9917   -0.7923 O   0  0  0  0  0  0  0  0  0  0  0  0
   -0.8921    0.9443   -0.7304 C   0  0  0  0  0  0  0  0  0  0  0  0
   -1.5466    0.0628    0.2652 C   0  0  0  0  0  0  0  0  0  0  0  0
   -2.9001   -0.0307    0.0623 O   0  0  0  0  0  0  0  0  0  0  0  0
   -0.8629   -1.3036    0.2871 C   0  0  0  0  0  0  0  0  0  0  0  0
    0.5566   -0.9764    0.5758 C   0  0  0  0  0  0  0  0  0  0  0  0
    1.0768   -1.5401    1.5127 O   0  0  0  0  0  0  0  0  0  0  0  0
    3.2427    0.8030   -0.3679 H   0  0  0  0  0  0  0  0  0  0  0  0
    2.8041    0.0210    1.1871 H   0  0  0  0  0  0  0  0  0  0  0  0
    2.1630    1.6524    0.7618 H   0  0  0  0  0  0  0  0  0  0  0  0
    1.6319   -0.5723   -1.1741 H   0  0  0  0  0  0  0  0  0  0  0  0
   -1.3036    0.6480   -1.7418 H   0  0  0  0  0  0  0  0  0  0  0  0
   -1.3019    1.9871   -0.5807 H   0  0  0  0  0  0  0  0  0  0  0  0
   -1.3599    0.4993    1.2888 H   0  0  0  0  0  0  0  0  0  0  0  0
   -3.1135   -0.1415   -0.9002 H   0  0  0  0  0  0  0  0  0  0  0  0
   -1.3083   -1.9782    1.0300 H   0  0  0  0  0  0  0  0  0  0  0  0
   -0.9495   -1.7002   -0.7558 H   0  0  0  0  0  0  0  0  0  0  0  0
  1  2  1  0
  2  3  1  0
  3  4  1  0
  4  5  1  0
  5  6  1  0
  5  7  1  0
  7  8  1  0
  8  9  2  0
  8  2  1  0
  1 10  1  0
  1 11  1  0
  1 12  1  0
  2 13  1  0
  4 14  1  0
  4 15  1  0
  5 16  1  0
  6 17  1  0
  7 18  1  0
  7 19  1  0
M  END
