
     RDKit          3D

 23 23  0  0  0  0  0  0  0  0999 V2000
   -1.3648    0.9671    1.4149 C   0  0  0  0  0  0  0  0  0  0  0  0
   -0.9985    0.2298    0.1850 C   0  0  0  0  0  0  0  0  0  0  0  0
   -1.5614   -1.0626    0.1204 O   0  0  0  0  0  0  0  0  0  0  0  0
   -1.0823   -1.4706   -1.1255 C   0  0  0  0  0  0  0  0  0  0  0  0
    0.4015   -1.1798   -1.0326 C   0  0  0  0  0  0  0  0  0  0  0  0
    0.4589   -0.0906    0.0475 C   0  0  0  0  0  0  0  0  0  0  0  0
    1.0856   -0.6164    1.2917 C   0  0  0  0  0  0  0  0  0  0  0  0
    1.2774    1.0390   -0.4921 C   0  0  0  0  0  0  0  0  0  0  0  0
    0.8704    1.4490   -1.7609 O   0  0  0  0  0  0  0  0  0  0  0  0
   -2.3915    1.4099    1.2508 H   0  0  0  0  0  0  0  0  0  0  0  0
   -1.3708    0.3713    2.3434 H   0  0  0  0  0  0  0  0  0  0  0  0
   -0.6900    1.8147    1.5486 H   0  0  0  0  0  0  0  0  0  0  0  0
   -1.3307    0.7637   -0.6994 H   0  0  0  0  0  0  0  0  0  0  0  0
   -1.2814   -2.5511   -1.3031 H   0  0  0  0  0  0  0  0  0  0  0  0
   -1.5894   -0.8691   -1.9032 H   0  0  0  0  0  0  0  0  0  0  0  0
    0.9398   -2.0809   -0.7419 H   0  0  0  0  0  0  0  0  0  0  0  0
    0.7402   -0.7804   -2.0086 H   0  0  0  0  0  0  0  0  0  0  0  0
    1.2627   -1.7272    1.1857 H   0  0  0  0  0  0  0  0  0  0  0  0
    0.5231   -0.3735    2.1993 H   0  0  0  0  0  0  0  0  0  0  0  0
    2.1160   -0.1929    1.4287 H   0  0  0  0  0  0  0  0  0  0  0  0
    2.3367    0.7081   -0.5069 H   0  0  0  0  0  0  0  0  0  0  0  0
    1.2524    1.9099    0.2142 H   0  0  0  0  0  0  0  0  0  0  0  0
    0.3962    2.3327   -1.6560 H   0  0  0  0  0  0  0  0  0  0  0  0
  1  2  1  0
  2  3  1  0
  3  4  1  0
  4  5  1  0
  5  6  1  0
  6  7  1  0
  6  8  1  0
  8  9  1  0
  6  2  1  0
  1 10  1  0
  1 11  1  0
  1 12  1  0
  2 13  1  0
  4 14  1  0
  4 15  1  0
  5 16  1  0
  5 17  1  0
  7 18  1  0
  7 19  1  0
  7 20  1  0
  8 21  1  0
  8 22  1  0
  9 23  1  0
M  END
