
     RDKit          3D

 21 21  0  0  0  0  0  0  0  0999 V2000
    2.5481    1.2476    0.0044 C   0  0  0  0  0  0  0  0  0  0  0  0
    1.0989    0.9275   -0.1152 C   0  0  0  0  0  0  0  0  0  0  0  0
    0.6828    0.2207    1.1284 O   0  0  0  0  0  0  0  0  0  0  0  0
    0.4860   -0.3426   -0.2397 C   0  0  0  0  0  0  0  0  0  0  0  0
    1.2618   -1.6389   -0.2954 C   0  0  0  0  0  0  0  0  0  0  0  0
   -0.9739   -0.4255   -0.5262 C   0  0  0  0  0  0  0  0  0  0  0  0
   -1.8571    0.2112    0.5212 C   0  0  0  0  0  0  0  0  0  0  0  0
   -3.2843    0.1027    0.2041 C   0  0  0  0  0  0  0  0  0  0  0  0
   -3.8420    0.8823   -0.5774 O   0  0  0  0  0  0  0  0  0  0  0  0
    3.0451    1.4276   -0.9693 H   0  0  0  0  0  0  0  0  0  0  0  0
    3.1561    0.4688    0.5065 H   0  0  0  0  0  0  0  0  0  0  0  0
    2.6532    2.1917    0.6112 H   0  0  0  0  0  0  0  0  0  0  0  0
    0.4702    1.8338   -0.3139 H   0  0  0  0  0  0  0  0  0  0  0  0
    2.2509   -1.5119    0.2105 H   0  0  0  0  0  0  0  0  0  0  0  0
    0.7010   -2.3397    0.4005 H   0  0  0  0  0  0  0  0  0  0  0  0
    1.3609   -2.0741   -1.2845 H   0  0  0  0  0  0  0  0  0  0  0  0
   -1.2703   -1.5069   -0.5452 H   0  0  0  0  0  0  0  0  0  0  0  0
   -1.2471   -0.0378   -1.5408 H   0  0  0  0  0  0  0  0  0  0  0  0
   -1.6178    1.3009    0.6840 H   0  0  0  0  0  0  0  0  0  0  0  0
   -1.6904   -0.2757    1.5059 H   0  0  0  0  0  0  0  0  0  0  0  0
   -3.9320   -0.6619    0.6310 H   0  0  0  0  0  0  0  0  0  0  0  0
  1  2  1  0
  2  3  1  0
  3  4  1  0
  4  5  1  0
  4  6  1  0
  6  7  1  0
  7  8  1  0
  8  9  2  0
  4  2  1  0
  1 10  1  0
  1 11  1  0
  1 12  1  0
  2 13  1  0
  5 14  1  0
  5 15  1  0
  5 16  1  0
  6 17  1  0
  6 18  1  0
  7 19  1  0
  7 20  1  0
  8 21  1  0
M  END
