
     RDKit          3D

 21 21  0  0  0  0  0  0  0  0999 V2000
    2.1625    0.5619   -0.6574 C   0  0  0  0  0  0  0  0  0  0  0  0
    1.1543   -0.4020   -0.2103 C   0  0  0  0  0  0  0  0  0  0  0  0
    0.3832   -0.8587   -1.3064 O   0  0  0  0  0  0  0  0  0  0  0  0
   -0.6887   -0.9503   -0.3876 C   0  0  0  0  0  0  0  0  0  0  0  0
   -1.9720   -0.6635   -1.0397 C   0  0  0  0  0  0  0  0  0  0  0  0
   -0.0554    0.0247    0.5300 C   0  0  0  0  0  0  0  0  0  0  0  0
   -0.4668    1.4318    0.5317 C   0  0  0  0  0  0  0  0  0  0  0  0
   -0.0240   -0.5169    1.9358 C   0  0  0  0  0  0  0  0  0  0  0  0
   -0.2099   -1.7036    2.1497 O   0  0  0  0  0  0  0  0  0  0  0  0
    2.1733    0.7077   -1.7775 H   0  0  0  0  0  0  0  0  0  0  0  0
    2.1045    1.5766   -0.2299 H   0  0  0  0  0  0  0  0  0  0  0  0
    3.2163    0.2258   -0.4286 H   0  0  0  0  0  0  0  0  0  0  0  0
    1.6438   -1.3176    0.2312 H   0  0  0  0  0  0  0  0  0  0  0  0
   -0.6518   -2.0074    0.0119 H   0  0  0  0  0  0  0  0  0  0  0  0
   -1.8403   -0.3228   -2.1096 H   0  0  0  0  0  0  0  0  0  0  0  0
   -2.5953   -1.6023   -1.1491 H   0  0  0  0  0  0  0  0  0  0  0  0
   -2.6278    0.0644   -0.5675 H   0  0  0  0  0  0  0  0  0  0  0  0
    0.1501    2.1321   -0.0469 H   0  0  0  0  0  0  0  0  0  0  0  0
   -1.5191    1.6139    0.1615 H   0  0  0  0  0  0  0  0  0  0  0  0
   -0.4996    1.8781    1.5730 H   0  0  0  0  0  0  0  0  0  0  0  0
    0.1628    0.1283    2.7855 H   0  0  0  0  0  0  0  0  0  0  0  0
  1  2  1  0
  2  3  1  0
  3  4  1  0
  4  5  1  0
  4  6  1  0
  6  7  1  0
  6  8  1  0
  8  9  2  0
  6  2  1  0
  1 10  1  0
  1 11  1  0
  1 12  1  0
  2 13  1  0
  4 14  1  0
  5 15  1  0
  5 16  1  0
  5 17  1  0
  7 18  1  0
  7 19  1  0
  7 20  1  0
  8 21  1  0
M  END
