
     RDKit          3D

 17 18  0  0  0  0  0  0  0  0999 V2000
    2.4113   -0.1648    0.0248 C   0  0  0  0  0  0  0  0  0  0  0  0
    1.2209    0.7042   -0.2871 C   0  0  0  0  0  0  0  0  0  0  0  0
    0.5906    0.3270   -1.5119 O   0  0  0  0  0  0  0  0  0  0  0  0
   -0.1142    0.2592   -0.2415 C   0  0  0  0  0  0  0  0  0  0  0  0
   -1.2226    1.2009   -0.1443 C   0  0  0  0  0  0  0  0  0  0  0  0
   -2.2203    0.5764    0.4493 C   0  0  0  0  0  0  0  0  0  0  0  0
   -1.8937   -0.7962    0.7970 C   0  0  0  0  0  0  0  0  0  0  0  0
   -2.5710   -1.5561    1.5338 O   0  0  0  0  0  0  0  0  0  0  0  0
   -0.6084   -1.1006    0.1047 C   0  0  0  0  0  0  0  0  0  0  0  0
    2.9875    0.2904    0.8829 H   0  0  0  0  0  0  0  0  0  0  0  0
    3.1109   -0.2152   -0.8360 H   0  0  0  0  0  0  0  0  0  0  0  0
    2.1162   -1.1684    0.3786 H   0  0  0  0  0  0  0  0  0  0  0  0
    1.4427    1.7892   -0.2224 H   0  0  0  0  0  0  0  0  0  0  0  0
   -1.2430    2.2091   -0.4832 H   0  0  0  0  0  0  0  0  0  0  0  0
   -3.1908    1.0446    0.6570 H   0  0  0  0  0  0  0  0  0  0  0  0
    0.0779   -1.6912    0.7402 H   0  0  0  0  0  0  0  0  0  0  0  0
   -0.8940   -1.7084   -0.7979 H   0  0  0  0  0  0  0  0  0  0  0  0
  1  2  1  0
  2  3  1  0
  3  4  1  0
  4  5  1  0
  5  6  2  0
  6  7  1  0
  7  8  2  0
  7  9  1  0
  4  2  1  0
  9  4  1  0
  1 10  1  0
  1 11  1  0
  1 12  1  0
  2 13  1  0
  5 14  1  0
  6 15  1  0
  9 16  1  0
  9 17  1  0
M  END
