
     RDKit          3D

 25 25  0  0  0  0  0  0  0  0999 V2000
    2.2904   -1.4258    0.0133 C   0  0  0  0  0  0  0  0  0  0  0  0
    1.1418   -0.5468   -0.3671 C   0  0  0  0  0  0  0  0  0  0  0  0
    1.2385    0.7468    0.0825 O   0  0  0  0  0  0  0  0  0  0  0  0
    0.0342    1.2888   -0.3761 C   0  0  0  0  0  0  0  0  0  0  0  0
   -0.2599    2.5974    0.3194 C   0  0  0  0  0  0  0  0  0  0  0  0
   -1.0307    0.2545   -0.1357 C   0  0  0  0  0  0  0  0  0  0  0  0
   -1.8493   -0.0226   -1.3804 C   0  0  0  0  0  0  0  0  0  0  0  0
   -0.1791   -0.9893    0.1595 C   0  0  0  0  0  0  0  0  0  0  0  0
   -0.2225   -1.2011    1.6378 C   0  0  0  0  0  0  0  0  0  0  0  0
    2.1147   -2.4229   -0.4427 H   0  0  0  0  0  0  0  0  0  0  0  0
    3.1985   -1.0218   -0.4903 H   0  0  0  0  0  0  0  0  0  0  0  0
    2.5142   -1.4552    1.0856 H   0  0  0  0  0  0  0  0  0  0  0  0
    1.0839   -0.5226   -1.4708 H   0  0  0  0  0  0  0  0  0  0  0  0
    0.1358    1.4100   -1.4691 H   0  0  0  0  0  0  0  0  0  0  0  0
    0.7193    3.1351    0.4158 H   0  0  0  0  0  0  0  0  0  0  0  0
   -0.6945    2.3802    1.3087 H   0  0  0  0  0  0  0  0  0  0  0  0
   -0.9089    3.2431   -0.2864 H   0  0  0  0  0  0  0  0  0  0  0  0
   -1.7137    0.4901    0.6846 H   0  0  0  0  0  0  0  0  0  0  0  0
   -1.2045   -0.2523   -2.2543 H   0  0  0  0  0  0  0  0  0  0  0  0
   -2.4668   -0.9201   -1.1591 H   0  0  0  0  0  0  0  0  0  0  0  0
   -2.5142    0.8140   -1.5898 H   0  0  0  0  0  0  0  0  0  0  0  0
   -0.5940   -1.8535   -0.4166 H   0  0  0  0  0  0  0  0  0  0  0  0
   -0.9574   -2.0050    1.8434 H   0  0  0  0  0  0  0  0  0  0  0  0
   -0.6221   -0.2987    2.1851 H   0  0  0  0  0  0  0  0  0  0  0  0
    0.7463   -1.4224    2.1026 H   0  0  0  0  0  0  0  0  0  0  0  0
  1  2  1  0
  2  3  1  0
  3  4  1  0
  4  5  1  0
  4  6  1  0
  6  7  1  0
  6  8  1  0
  8  9  1  0
  8  2  1  0
  1 10  1  0
  1 11  1  0
  1 12  1  0
  2 13  1  0
  4 14  1  0
  5 15  1  0
  5 16  1  0
  5 17  1  0
  6 18  1  0
  7 19  1  0
  7 20  1  0
  7 21  1  0
  8 22  1  0
  9 23  1  0
  9 24  1  0
  9 25  1  0
M  END
