
     RDKit          3D

 17 19  0  0  0  0  0  0  0  0999 V2000
   -2.2986   -0.0538   -0.3041 C   0  0  0  0  0  0  0  0  0  0  0  0
   -0.8787   -0.2082   -0.7458 C   0  0  0  0  0  0  0  0  0  0  0  0
   -0.2509    0.9684   -1.0636 O   0  0  0  0  0  0  0  0  0  0  0  0
    1.1011    0.9816   -0.9279 C   0  0  0  0  0  0  0  0  0  0  0  0
    1.5086    0.7159    0.4605 C   0  0  0  0  0  0  0  0  0  0  0  0
    0.4794    0.1430    1.1825 O   0  0  0  0  0  0  0  0  0  0  0  0
   -0.0370   -0.8756    0.3511 C   0  0  0  0  0  0  0  0  0  0  0  0
    1.0855   -1.3590   -0.3128 O   0  0  0  0  0  0  0  0  0  0  0  0
    1.7974   -0.2506   -0.6534 C   0  0  0  0  0  0  0  0  0  0  0  0
   -2.3416    0.2753    0.7498 H   0  0  0  0  0  0  0  0  0  0  0  0
   -2.7642    0.7255   -0.9707 H   0  0  0  0  0  0  0  0  0  0  0  0
   -2.8011   -1.0435   -0.4302 H   0  0  0  0  0  0  0  0  0  0  0  0
   -0.8423   -0.8549   -1.6706 H   0  0  0  0  0  0  0  0  0  0  0  0
    1.6241    1.7346   -1.5684 H   0  0  0  0  0  0  0  0  0  0  0  0
    2.3897    1.1392    0.9387 H   0  0  0  0  0  0  0  0  0  0  0  0
   -0.5943   -1.6295    0.9030 H   0  0  0  0  0  0  0  0  0  0  0  0
    2.8230   -0.4082   -1.0173 H   0  0  0  0  0  0  0  0  0  0  0  0
  1  2  1  0
  2  3  1  0
  3  4  1  0
  4  5  1  0
  5  6  1  0
  6  7  1  0
  7  8  1  0
  8  9  1  0
  7  2  1  0
  9  4  1  0
  9  5  1  0
  1 10  1  0
  1 11  1  0
  1 12  1  0
  2 13  1  0
  4 14  1  0
  5 15  1  0
  7 16  1  0
  9 17  1  0
M  END
