
     RDKit          3D

 21 22  0  0  0  0  0  0  0  0999 V2000
   -2.2993   -0.1223    1.0482 C   0  0  0  0  0  0  0  0  0  0  0  0
   -1.2429    0.2062    0.0128 C   0  0  0  0  0  0  0  0  0  0  0  0
   -0.5914    1.3327    0.3988 O   0  0  0  0  0  0  0  0  0  0  0  0
    0.7024    1.4713    0.0237 C   0  0  0  0  0  0  0  0  0  0  0  0
    1.3595    0.2023   -0.4283 C   0  0  0  0  0  0  0  0  0  0  0  0
    2.6977    0.2553   -0.6441 O   0  0  0  0  0  0  0  0  0  0  0  0
    0.5337   -0.5309   -1.4680 C   0  0  0  0  0  0  0  0  0  0  0  0
   -0.3481   -0.9546   -0.2844 C   0  0  0  0  0  0  0  0  0  0  0  0
    0.9365   -0.9015    0.5502 C   0  0  0  0  0  0  0  0  0  0  0  0
   -3.2544    0.4173    0.7906 H   0  0  0  0  0  0  0  0  0  0  0  0
   -2.5573   -1.1936    1.0764 H   0  0  0  0  0  0  0  0  0  0  0  0
   -2.0222    0.2616    2.0554 H   0  0  0  0  0  0  0  0  0  0  0  0
   -1.8069    0.4328   -0.9382 H   0  0  0  0  0  0  0  0  0  0  0  0
    0.8607    2.2830   -0.7402 H   0  0  0  0  0  0  0  0  0  0  0  0
    1.2785    1.8175    0.9331 H   0  0  0  0  0  0  0  0  0  0  0  0
    3.1522    0.5434    0.1767 H   0  0  0  0  0  0  0  0  0  0  0  0
   -0.0021    0.1316   -2.1861 H   0  0  0  0  0  0  0  0  0  0  0  0
    1.0896   -1.3436   -1.9331 H   0  0  0  0  0  0  0  0  0  0  0  0
   -0.8163   -1.9226   -0.3704 H   0  0  0  0  0  0  0  0  0  0  0  0
    0.8061   -0.5814    1.5788 H   0  0  0  0  0  0  0  0  0  0  0  0
    1.5239   -1.8043    0.3480 H   0  0  0  0  0  0  0  0  0  0  0  0
  1  2  1  0
  2  3  1  0
  3  4  1  0
  4  5  1  0
  5  6  1  0
  5  7  1  0
  7  8  1  0
  8  9  1  0
  8  2  1  0
  9  5  1  0
  1 10  1  0
  1 11  1  0
  1 12  1  0
  2 13  1  0
  4 14  1  0
  4 15  1  0
  6 16  1  0
  7 17  1  0
  7 18  1  0
  8 19  1  0
  9 20  1  0
  9 21  1  0
M  END
