
     RDKit          3D

 17 18  0  0  0  0  0  0  0  0999 V2000
    2.6827   -0.4013   -0.3248 C   0  0  0  0  0  0  0  0  0  0  0  0
    1.2078   -0.4781   -0.0889 C   0  0  0  0  0  0  0  0  0  0  0  0
    0.6273    0.1775    0.9790 O   0  0  0  0  0  0  0  0  0  0  0  0
    0.3952    0.6944   -0.3205 C   0  0  0  0  0  0  0  0  0  0  0  0
   -0.9683    0.4746   -0.9240 C   0  0  0  0  0  0  0  0  0  0  0  0
   -2.1186    0.6223    0.0485 C   0  0  0  0  0  0  0  0  0  0  0  0
   -2.3741   -0.8049   -0.1816 C   0  0  0  0  0  0  0  0  0  0  0  0
   -3.2133   -1.6233    0.2482 O   0  0  0  0  0  0  0  0  0  0  0  0
   -1.3185   -0.8991   -1.0666 O   0  0  0  0  0  0  0  0  0  0  0  0
    2.8640   -0.6395   -1.3992 H   0  0  0  0  0  0  0  0  0  0  0  0
    3.2157   -1.2027    0.2469 H   0  0  0  0  0  0  0  0  0  0  0  0
    3.1312    0.5656   -0.1140 H   0  0  0  0  0  0  0  0  0  0  0  0
    0.7706   -1.4787   -0.2997 H   0  0  0  0  0  0  0  0  0  0  0  0
    0.8280    1.6993   -0.4509 H   0  0  0  0  0  0  0  0  0  0  0  0
   -1.1042    1.0731   -1.8245 H   0  0  0  0  0  0  0  0  0  0  0  0
   -2.9074    1.3264   -0.3138 H   0  0  0  0  0  0  0  0  0  0  0  0
   -1.7179    0.8944    1.0473 H   0  0  0  0  0  0  0  0  0  0  0  0
  1  2  1  0
  2  3  1  0
  3  4  1  0
  4  5  1  0
  5  6  1  0
  6  7  1  0
  7  8  2  0
  7  9  1  0
  4  2  1  0
  9  5  1  0
  1 10  1  0
  1 11  1  0
  1 12  1  0
  2 13  1  0
  4 14  1  0
  5 15  1  0
  6 16  1  0
  6 17  1  0
M  END
