
     RDKit          3D

 20 20  0  0  0  0  0  0  0  0999 V2000
   -0.2879    2.3976    0.3008 C   0  0  0  0  0  0  0  0  0  0  0  0
   -0.3052    1.1623   -0.5628 C   0  0  0  0  0  0  0  0  0  0  0  0
    0.9632    0.7060   -0.9195 O   0  0  0  0  0  0  0  0  0  0  0  0
    0.9928    0.0244    0.3059 C   0  0  0  0  0  0  0  0  0  0  0  0
    1.7837   -1.2440    0.3052 C   0  0  0  0  0  0  0  0  0  0  0  0
   -0.4924   -0.0935    0.2991 C   0  0  0  0  0  0  0  0  0  0  0  0
   -1.0736   -1.1784   -0.5675 C   0  0  0  0  0  0  0  0  0  0  0  0
   -1.2911   -2.3609    0.0861 O   0  0  0  0  0  0  0  0  0  0  0  0
   -1.3287    2.8228    0.2604 H   0  0  0  0  0  0  0  0  0  0  0  0
   -0.1362    2.1510    1.3897 H   0  0  0  0  0  0  0  0  0  0  0  0
    0.4705    3.0965   -0.0827 H   0  0  0  0  0  0  0  0  0  0  0  0
   -0.9648    1.2027   -1.4385 H   0  0  0  0  0  0  0  0  0  0  0  0
    1.3216    0.7366    1.0904 H   0  0  0  0  0  0  0  0  0  0  0  0
    2.5991   -1.1799    1.0601 H   0  0  0  0  0  0  0  0  0  0  0  0
    1.1926   -2.1575    0.4424 H   0  0  0  0  0  0  0  0  0  0  0  0
    2.3220   -1.2977   -0.6862 H   0  0  0  0  0  0  0  0  0  0  0  0
   -1.0348    0.0936    1.2165 H   0  0  0  0  0  0  0  0  0  0  0  0
   -2.0716   -0.8022   -0.9161 H   0  0  0  0  0  0  0  0  0  0  0  0
   -0.4735   -1.3425   -1.4699 H   0  0  0  0  0  0  0  0  0  0  0  0
   -2.1859   -2.7368   -0.1134 H   0  0  0  0  0  0  0  0  0  0  0  0
  1  2  1  0
  2  3  1  0
  3  4  1  0
  4  5  1  0
  4  6  1  0
  6  7  1  0
  7  8  1  0
  6  2  1  0
  1  9  1  0
  1 10  1  0
  1 11  1  0
  2 12  1  0
  4 13  1  0
  5 14  1  0
  5 15  1  0
  5 16  1  0
  6 17  1  0
  7 18  1  0
  7 19  1  0
  8 20  1  0
M  END
