
     RDKit          3D

 19 20  0  0  0  0  0  0  0  0999 V2000
   -2.2509    0.5275    0.3333 C   0  0  0  0  0  0  0  0  0  0  0  0
   -1.0633    0.5089   -0.6220 C   0  0  0  0  0  0  0  0  0  0  0  0
   -1.1866   -0.5433   -1.5244 O   0  0  0  0  0  0  0  0  0  0  0  0
   -0.5052   -1.3399   -0.6017 C   0  0  0  0  0  0  0  0  0  0  0  0
    0.0965   -0.1406    0.0795 C   0  0  0  0  0  0  0  0  0  0  0  0
    0.0199   -0.1291    1.4623 O   0  0  0  0  0  0  0  0  0  0  0  0
    1.4611    0.1527   -0.4331 C   0  0  0  0  0  0  0  0  0  0  0  0
    2.5391    0.4253    0.4331 C   0  0  0  0  0  0  0  0  0  0  0  0
    2.3407   -0.9342    0.1409 O   0  0  0  0  0  0  0  0  0  0  0  0
   -2.5622   -0.5437    0.4767 H   0  0  0  0  0  0  0  0  0  0  0  0
   -3.0584    1.1713    0.0017 H   0  0  0  0  0  0  0  0  0  0  0  0
   -1.8425    0.8956    1.3172 H   0  0  0  0  0  0  0  0  0  0  0  0
   -0.8448    1.4776   -1.1082 H   0  0  0  0  0  0  0  0  0  0  0  0
    0.2476   -1.9525   -1.1720 H   0  0  0  0  0  0  0  0  0  0  0  0
   -1.1118   -1.9942    0.0163 H   0  0  0  0  0  0  0  0  0  0  0  0
    0.2288    0.7917    1.7583 H   0  0  0  0  0  0  0  0  0  0  0  0
    1.6032    0.1151   -1.5444 H   0  0  0  0  0  0  0  0  0  0  0  0
    3.5410    0.7499    0.0816 H   0  0  0  0  0  0  0  0  0  0  0  0
    2.3478    0.7619    1.4840 H   0  0  0  0  0  0  0  0  0  0  0  0
  1  2  1  0
  2  3  1  0
  3  4  1  0
  4  5  1  0
  5  6  1  0
  5  7  1  0
  7  8  1  0
  8  9  1  0
  5  2  1  0
  9  7  1  0
  1 10  1  0
  1 11  1  0
  1 12  1  0
  2 13  1  0
  4 14  1  0
  4 15  1  0
  6 16  1  0
  7 17  1  0
  8 18  1  0
  8 19  1  0
M  END
