
     RDKit          3D

 16 17  0  0  0  0  0  0  0  0999 V2000
    2.2839   -0.1784    0.1844 C   0  0  0  0  0  0  0  0  0  0  0  0
    0.9219    0.0769   -0.3818 C   0  0  0  0  0  0  0  0  0  0  0  0
    0.2594    1.1260    0.2517 O   0  0  0  0  0  0  0  0  0  0  0  0
   -1.0557    1.0415   -0.1152 C   0  0  0  0  0  0  0  0  0  0  0  0
   -2.0558    0.3193    0.7030 C   0  0  0  0  0  0  0  0  0  0  0  0
   -1.3646   -0.4418   -0.3416 C   0  0  0  0  0  0  0  0  0  0  0  0
   -0.0274   -1.0558   -0.0781 C   0  0  0  0  0  0  0  0  0  0  0  0
    0.2657   -2.1608    0.2832 O   0  0  0  0  0  0  0  0  0  0  0  0
    2.2526   -0.5233    1.2313 H   0  0  0  0  0  0  0  0  0  0  0  0
    2.7718   -0.9436   -0.4509 H   0  0  0  0  0  0  0  0  0  0  0  0
    2.8635    0.7545    0.1116 H   0  0  0  0  0  0  0  0  0  0  0  0
    0.9630    0.2087   -1.4625 H   0  0  0  0  0  0  0  0  0  0  0  0
   -1.3595    1.7559   -0.9077 H   0  0  0  0  0  0  0  0  0  0  0  0
   -3.1231    0.5362    0.5355 H   0  0  0  0  0  0  0  0  0  0  0  0
   -1.7989    0.1487    1.7587 H   0  0  0  0  0  0  0  0  0  0  0  0
   -1.7967   -0.6641   -1.3214 H   0  0  0  0  0  0  0  0  0  0  0  0
  1  2  1  0
  2  3  1  0
  3  4  1  0
  4  5  1  0
  5  6  1  0
  6  7  1  0
  7  8  2  0
  7  2  1  0
  6  4  1  0
  1  9  1  0
  1 10  1  0
  1 11  1  0
  2 12  1  0
  4 13  1  0
  5 14  1  0
  5 15  1  0
  6 16  1  0
M  END
