
     RDKit          3D

 17 17  0  0  0  0  0  0  0  0999 V2000
   -2.1352    0.2084    0.1280 C   0  0  0  0  0  0  0  0  0  0  0  0
   -0.8355    0.2503   -0.6005 C   0  0  0  0  0  0  0  0  0  0  0  0
   -0.7088   -0.7814   -1.5618 O   0  0  0  0  0  0  0  0  0  0  0  0
    0.6214   -0.8980   -1.1843 C   0  0  0  0  0  0  0  0  0  0  0  0
    1.5911   -1.3600   -1.8385 O   0  0  0  0  0  0  0  0  0  0  0  0
    0.3593   -0.3093    0.1359 C   0  0  0  0  0  0  0  0  0  0  0  0
    0.0505   -1.2150    1.1477 O   0  0  0  0  0  0  0  0  0  0  0  0
    1.2665    0.7937    0.5789 C   0  0  0  0  0  0  0  0  0  0  0  0
    2.4901    0.3261    1.0491 O   0  0  0  0  0  0  0  0  0  0  0  0
   -2.0269    0.3271    1.2307 H   0  0  0  0  0  0  0  0  0  0  0  0
   -2.7550    1.0834   -0.2143 H   0  0  0  0  0  0  0  0  0  0  0  0
   -2.6965   -0.7209   -0.0870 H   0  0  0  0  0  0  0  0  0  0  0  0
   -0.5759    1.2208   -1.0960 H   0  0  0  0  0  0  0  0  0  0  0  0
    0.0613   -2.1379    0.7880 H   0  0  0  0  0  0  0  0  0  0  0  0
    1.3918    1.5303   -0.2341 H   0  0  0  0  0  0  0  0  0  0  0  0
    0.7683    1.2845    1.4662 H   0  0  0  0  0  0  0  0  0  0  0  0
    3.1336    0.3981    0.2920 H   0  0  0  0  0  0  0  0  0  0  0  0
  1  2  1  0
  2  3  1  0
  3  4  1  0
  4  5  2  0
  4  6  1  0
  6  7  1  0
  6  8  1  0
  8  9  1  0
  6  2  1  0
  1 10  1  0
  1 11  1  0
  1 12  1  0
  2 13  1  0
  7 14  1  0
  8 15  1  0
  8 16  1  0
  9 17  1  0
M  END
