
     RDKit          3D

 19 20  0  0  0  0  0  0  0  0999 V2000
   -2.2769   -0.3137    0.3259 C   0  0  0  0  0  0  0  0  0  0  0  0
   -1.1371   -0.5148   -0.6131 C   0  0  0  0  0  0  0  0  0  0  0  0
   -0.2249   -1.4962   -0.3057 O   0  0  0  0  0  0  0  0  0  0  0  0
    0.8820   -0.6727   -0.2690 C   0  0  0  0  0  0  0  0  0  0  0  0
    1.8879   -0.8047    0.8317 C   0  0  0  0  0  0  0  0  0  0  0  0
    1.1269    0.3659   -1.2864 C   0  0  0  0  0  0  0  0  0  0  0  0
   -0.0116    0.4962   -0.3906 C   0  0  0  0  0  0  0  0  0  0  0  0
   -0.1416    1.5059    0.6584 C   0  0  0  0  0  0  0  0  0  0  0  0
    0.5446    1.5777    1.6577 O   0  0  0  0  0  0  0  0  0  0  0  0
   -2.2785   -0.9831    1.2021 H   0  0  0  0  0  0  0  0  0  0  0  0
   -3.2559   -0.3684   -0.2347 H   0  0  0  0  0  0  0  0  0  0  0  0
   -2.2718    0.7356    0.7429 H   0  0  0  0  0  0  0  0  0  0  0  0
   -1.4022   -0.5435   -1.6911 H   0  0  0  0  0  0  0  0  0  0  0  0
    2.6654   -1.5573    0.5148 H   0  0  0  0  0  0  0  0  0  0  0  0
    1.4657   -1.0100    1.8137 H   0  0  0  0  0  0  0  0  0  0  0  0
    2.4655    0.1609    0.8996 H   0  0  0  0  0  0  0  0  0  0  0  0
    0.8997    0.1436   -2.3569 H   0  0  0  0  0  0  0  0  0  0  0  0
    1.9862    1.0119   -1.1475 H   0  0  0  0  0  0  0  0  0  0  0  0
   -0.9233    2.2665    0.5395 H   0  0  0  0  0  0  0  0  0  0  0  0
  1  2  1  0
  2  3  1  0
  3  4  1  0
  4  5  1  0
  4  6  1  0
  6  7  1  0
  7  8  1  0
  8  9  2  0
  7  2  1  0
  7  4  1  0
  1 10  1  0
  1 11  1  0
  1 12  1  0
  2 13  1  0
  5 14  1  0
  5 15  1  0
  5 16  1  0
  6 17  1  0
  6 18  1  0
  8 19  1  0
M  END
