
     RDKit          3D

 23 24  0  0  0  0  0  0  0  0999 V2000
    2.5260   -0.0391   -0.5746 C   0  0  0  0  0  0  0  0  0  0  0  0
    0.9997    0.1013   -0.6846 C   0  0  0  0  0  0  0  0  0  0  0  0
    0.7022    1.4057   -0.4851 O   0  0  0  0  0  0  0  0  0  0  0  0
   -0.5538    1.7302   -0.0985 C   0  0  0  0  0  0  0  0  0  0  0  0
   -1.2401    0.7123    0.7727 C   0  0  0  0  0  0  0  0  0  0  0  0
   -1.8904   -0.3682   -0.0794 C   0  0  0  0  0  0  0  0  0  0  0  0
   -0.8594   -1.4375   -0.2857 C   0  0  0  0  0  0  0  0  0  0  0  0
    0.4136   -0.8646    0.2883 C   0  0  0  0  0  0  0  0  0  0  0  0
   -0.1335   -0.0732    1.4793 C   0  0  0  0  0  0  0  0  0  0  0  0
    2.7658    0.3757    0.4479 H   0  0  0  0  0  0  0  0  0  0  0  0
    2.7158   -1.1211   -0.4997 H   0  0  0  0  0  0  0  0  0  0  0  0
    3.0472    0.4733   -1.3797 H   0  0  0  0  0  0  0  0  0  0  0  0
    0.7617   -0.2781   -1.7169 H   0  0  0  0  0  0  0  0  0  0  0  0
   -1.2413    2.0290   -0.9387 H   0  0  0  0  0  0  0  0  0  0  0  0
   -0.4839    2.6682    0.5302 H   0  0  0  0  0  0  0  0  0  0  0  0
   -1.9539    1.1533    1.4870 H   0  0  0  0  0  0  0  0  0  0  0  0
   -2.7417   -0.8319    0.4656 H   0  0  0  0  0  0  0  0  0  0  0  0
   -2.2700    0.0523   -1.0453 H   0  0  0  0  0  0  0  0  0  0  0  0
   -1.1273   -2.4044    0.2010 H   0  0  0  0  0  0  0  0  0  0  0  0
   -0.6912   -1.5779   -1.3739 H   0  0  0  0  0  0  0  0  0  0  0  0
    1.1179   -1.6257    0.6481 H   0  0  0  0  0  0  0  0  0  0  0  0
    0.6484    0.6351    1.7626 H   0  0  0  0  0  0  0  0  0  0  0  0
   -0.5118   -0.7148    2.2725 H   0  0  0  0  0  0  0  0  0  0  0  0
  1  2  1  0
  2  3  1  0
  3  4  1  0
  4  5  1  0
  5  6  1  0
  6  7  1  0
  7  8  1  0
  8  9  1  0
  8  2  1  0
  9  5  1  0
  1 10  1  0
  1 11  1  0
  1 12  1  0
  2 13  1  0
  4 14  1  0
  4 15  1  0
  5 16  1  0
  6 17  1  0
  6 18  1  0
  7 19  1  0
  7 20  1  0
  8 21  1  0
  9 22  1  0
  9 23  1  0
M  END
