
     RDKit          3D

 21 22  0  0  0  0  0  0  0  0999 V2000
    2.2613   -0.3473    0.1008 C   0  0  0  0  0  0  0  0  0  0  0  0
    1.2371    0.3759   -0.7428 C   0  0  0  0  0  0  0  0  0  0  0  0
    0.6097   -0.5641   -1.5874 O   0  0  0  0  0  0  0  0  0  0  0  0
   -0.4960   -0.4773   -0.7626 C   0  0  0  0  0  0  0  0  0  0  0  0
   -0.8979   -1.7086   -0.0342 C   0  0  0  0  0  0  0  0  0  0  0  0
   -1.3447    0.7043   -0.9089 C   0  0  0  0  0  0  0  0  0  0  0  0
   -2.4824    0.8895   -0.1430 O   0  0  0  0  0  0  0  0  0  0  0  0
   -0.0377    0.7417   -0.0779 C   0  0  0  0  0  0  0  0  0  0  0  0
   -0.1483    0.9474    1.3919 C   0  0  0  0  0  0  0  0  0  0  0  0
    1.7681   -1.0500    0.7852 H   0  0  0  0  0  0  0  0  0  0  0  0
    2.8550    0.3492    0.7299 H   0  0  0  0  0  0  0  0  0  0  0  0
    2.9351   -0.9342   -0.5730 H   0  0  0  0  0  0  0  0  0  0  0  0
    1.6987    1.1517   -1.3920 H   0  0  0  0  0  0  0  0  0  0  0  0
   -0.2861   -2.5755   -0.3903 H   0  0  0  0  0  0  0  0  0  0  0  0
   -1.9603   -1.9353   -0.3069 H   0  0  0  0  0  0  0  0  0  0  0  0
   -0.8176   -1.6369    1.0717 H   0  0  0  0  0  0  0  0  0  0  0  0
   -1.2303    1.3125   -1.8446 H   0  0  0  0  0  0  0  0  0  0  0  0
   -3.0532    1.5493   -0.5998 H   0  0  0  0  0  0  0  0  0  0  0  0
   -1.2450    1.0828    1.6285 H   0  0  0  0  0  0  0  0  0  0  0  0
    0.3077    1.9372    1.6452 H   0  0  0  0  0  0  0  0  0  0  0  0
    0.3264    0.1877    2.0102 H   0  0  0  0  0  0  0  0  0  0  0  0
  1  2  1  0
  2  3  1  0
  3  4  1  0
  4  5  1  0
  4  6  1  0
  6  7  1  0
  6  8  1  0
  8  9  1  0
  8  2  1  0
  8  4  1  0
  1 10  1  0
  1 11  1  0
  1 12  1  0
  2 13  1  0
  5 14  1  0
  5 15  1  0
  5 16  1  0
  6 17  1  0
  7 18  1  0
  9 19  1  0
  9 20  1  0
  9 21  1  0
M  END
