
     RDKit          3D

 21 23  0  0  0  0  0  0  0  0999 V2000
    2.5358    0.1569    0.1334 C   0  0  0  0  0  0  0  0  0  0  0  0
    1.1821   -0.2944    0.5867 C   0  0  0  0  0  0  0  0  0  0  0  0
    0.3625    0.6977    1.0351 O   0  0  0  0  0  0  0  0  0  0  0  0
   -0.7761    0.7646    0.2879 C   0  0  0  0  0  0  0  0  0  0  0  0
   -1.6800    1.9264    0.4577 C   0  0  0  0  0  0  0  0  0  0  0  0
   -1.4810   -0.5455   -0.0443 C   0  0  0  0  0  0  0  0  0  0  0  0
   -0.6386   -1.7940   -0.1190 C   0  0  0  0  0  0  0  0  0  0  0  0
    0.5002   -0.9424   -0.6234 C   0  0  0  0  0  0  0  0  0  0  0  0
   -0.4843    0.1128   -0.9799 C   0  0  0  0  0  0  0  0  0  0  0  0
    3.1950   -0.7536    0.0998 H   0  0  0  0  0  0  0  0  0  0  0  0
    2.4387    0.5181   -0.9072 H   0  0  0  0  0  0  0  0  0  0  0  0
    3.0229    0.8692    0.8111 H   0  0  0  0  0  0  0  0  0  0  0  0
    1.3053   -1.1272    1.3279 H   0  0  0  0  0  0  0  0  0  0  0  0
   -2.5932    1.8120   -0.1846 H   0  0  0  0  0  0  0  0  0  0  0  0
   -1.2505    2.8986    0.2140 H   0  0  0  0  0  0  0  0  0  0  0  0
   -2.0701    1.9373    1.5113 H   0  0  0  0  0  0  0  0  0  0  0  0
   -2.5071   -0.5311   -0.4205 H   0  0  0  0  0  0  0  0  0  0  0  0
   -0.9834   -2.5895   -0.7735 H   0  0  0  0  0  0  0  0  0  0  0  0
   -0.4751   -2.1741    0.9315 H   0  0  0  0  0  0  0  0  0  0  0  0
    1.1498   -1.3518   -1.3773 H   0  0  0  0  0  0  0  0  0  0  0  0
   -0.7530    0.4098   -1.9670 H   0  0  0  0  0  0  0  0  0  0  0  0
  1  2  1  0
  2  3  1  0
  3  4  1  0
  4  5  1  0
  4  6  1  0
  6  7  1  0
  7  8  1  0
  8  9  1  0
  8  2  1  0
  9  4  1  0
  9  6  1  0
  1 10  1  0
  1 11  1  0
  1 12  1  0
  2 13  1  0
  5 14  1  0
  5 15  1  0
  5 16  1  0
  6 17  1  0
  7 18  1  0
  7 19  1  0
  8 20  1  0
  9 21  1  0
M  END
