
     RDKit          3D

 21 22  0  0  0  0  0  0  0  0999 V2000
    1.9822   -0.7822   -0.7545 C   0  0  0  0  0  0  0  0  0  0  0  0
    1.3081    0.1284    0.2243 C   0  0  0  0  0  0  0  0  0  0  0  0
    1.5862    1.4843   -0.0160 O   0  0  0  0  0  0  0  0  0  0  0  0
    0.2395    1.8716   -0.0870 C   0  0  0  0  0  0  0  0  0  0  0  0
   -0.1241    0.4131    0.0433 C   0  0  0  0  0  0  0  0  0  0  0  0
   -0.9503    0.0561    1.2519 C   0  0  0  0  0  0  0  0  0  0  0  0
   -1.8004   -1.0697    0.7050 C   0  0  0  0  0  0  0  0  0  0  0  0
   -1.9836   -0.8155   -0.6392 O   0  0  0  0  0  0  0  0  0  0  0  0
   -0.8414   -0.1862   -1.1117 C   0  0  0  0  0  0  0  0  0  0  0  0
    1.6728   -1.8238   -0.5377 H   0  0  0  0  0  0  0  0  0  0  0  0
    1.7877   -0.5214   -1.8096 H   0  0  0  0  0  0  0  0  0  0  0  0
    3.0807   -0.7473   -0.5275 H   0  0  0  0  0  0  0  0  0  0  0  0
    1.5966   -0.1435    1.2587 H   0  0  0  0  0  0  0  0  0  0  0  0
   -0.0592    2.3285   -1.0520 H   0  0  0  0  0  0  0  0  0  0  0  0
   -0.1259    2.4137    0.8224 H   0  0  0  0  0  0  0  0  0  0  0  0
   -1.5816    0.9136    1.5877 H   0  0  0  0  0  0  0  0  0  0  0  0
   -0.3315   -0.2376    2.1079 H   0  0  0  0  0  0  0  0  0  0  0  0
   -1.2451   -2.0144    0.7966 H   0  0  0  0  0  0  0  0  0  0  0  0
   -2.7724   -1.1108    1.2497 H   0  0  0  0  0  0  0  0  0  0  0  0
   -0.2285   -0.8291   -1.7627 H   0  0  0  0  0  0  0  0  0  0  0  0
   -1.2099    0.6721   -1.7497 H   0  0  0  0  0  0  0  0  0  0  0  0
  1  2  1  0
  2  3  1  0
  3  4  1  0
  4  5  1  0
  5  6  1  0
  6  7  1  0
  7  8  1  0
  8  9  1  0
  5  2  1  0
  9  5  1  0
  1 10  1  0
  1 11  1  0
  1 12  1  0
  2 13  1  0
  4 14  1  0
  4 15  1  0
  6 16  1  0
  6 17  1  0
  7 18  1  0
  7 19  1  0
  9 20  1  0
  9 21  1  0
M  END
