
     RDKit          3D

 21 21  0  0  0  0  0  0  0  0999 V2000
   -1.8317    1.0670    0.7568 C   0  0  0  0  0  0  0  0  0  0  0  0
   -0.4086    0.8875    0.3747 C   0  0  0  0  0  0  0  0  0  0  0  0
   -0.1606    1.3890   -0.9208 O   0  0  0  0  0  0  0  0  0  0  0  0
    0.8732    0.4373   -0.9984 C   0  0  0  0  0  0  0  0  0  0  0  0
    2.0987    0.9915   -0.3856 C   0  0  0  0  0  0  0  0  0  0  0  0
    2.2061    2.0963    0.1105 O   0  0  0  0  0  0  0  0  0  0  0  0
    0.0365   -0.4448   -0.0957 C   0  0  0  0  0  0  0  0  0  0  0  0
    0.8872   -1.2524    0.8314 C   0  0  0  0  0  0  0  0  0  0  0  0
   -0.9442   -1.2699   -0.8762 C   0  0  0  0  0  0  0  0  0  0  0  0
   -1.9229    1.6843    1.6962 H   0  0  0  0  0  0  0  0  0  0  0  0
   -2.3859    1.6780   -0.0144 H   0  0  0  0  0  0  0  0  0  0  0  0
   -2.3944    0.1487    0.9484 H   0  0  0  0  0  0  0  0  0  0  0  0
    0.2754    1.2868    1.1501 H   0  0  0  0  0  0  0  0  0  0  0  0
    1.0148    0.0168   -2.0123 H   0  0  0  0  0  0  0  0  0  0  0  0
    2.9827    0.3690   -0.3717 H   0  0  0  0  0  0  0  0  0  0  0  0
    1.7008   -1.7286    0.2190 H   0  0  0  0  0  0  0  0  0  0  0  0
    1.2888   -0.6745    1.6639 H   0  0  0  0  0  0  0  0  0  0  0  0
    0.2631   -2.1108    1.2040 H   0  0  0  0  0  0  0  0  0  0  0  0
   -0.7258   -2.3470   -0.6993 H   0  0  0  0  0  0  0  0  0  0  0  0
   -1.9928   -1.1066   -0.6085 H   0  0  0  0  0  0  0  0  0  0  0  0
   -0.8605   -1.1175   -1.9719 H   0  0  0  0  0  0  0  0  0  0  0  0
  1  2  1  0
  2  3  1  0
  3  4  1  0
  4  5  1  0
  5  6  2  0
  4  7  1  0
  7  8  1  0
  7  9  1  0
  7  2  1  0
  1 10  1  0
  1 11  1  0
  1 12  1  0
  2 13  1  0
  4 14  1  0
  5 15  1  0
  8 16  1  0
  8 17  1  0
  8 18  1  0
  9 19  1  0
  9 20  1  0
  9 21  1  0
M  END
