
     RDKit          3D

 21 23  0  0  0  0  0  0  0  0999 V2000
    2.5374    0.0480   -0.0372 C   0  0  0  0  0  0  0  0  0  0  0  0
    1.0953    0.2675    0.4124 C   0  0  0  0  0  0  0  0  0  0  0  0
    0.6636    1.5446    0.1191 O   0  0  0  0  0  0  0  0  0  0  0  0
   -0.6838    1.6226    0.4567 C   0  0  0  0  0  0  0  0  0  0  0  0
   -1.4951    0.8581   -0.5654 C   0  0  0  0  0  0  0  0  0  0  0  0
   -1.8145   -0.5476   -0.1920 C   0  0  0  0  0  0  0  0  0  0  0  0
   -0.8501   -1.3485    0.6366 C   0  0  0  0  0  0  0  0  0  0  0  0
    0.2692   -0.8142   -0.2200 C   0  0  0  0  0  0  0  0  0  0  0  0
   -0.7528   -0.2506   -1.1624 C   0  0  0  0  0  0  0  0  0  0  0  0
    2.5047   -0.1444   -1.1382 H   0  0  0  0  0  0  0  0  0  0  0  0
    2.8471   -0.9213    0.4307 H   0  0  0  0  0  0  0  0  0  0  0  0
    3.1888    0.8883    0.2282 H   0  0  0  0  0  0  0  0  0  0  0  0
    1.0388    0.1450    1.5217 H   0  0  0  0  0  0  0  0  0  0  0  0
   -0.8101    1.2462    1.4831 H   0  0  0  0  0  0  0  0  0  0  0  0
   -0.9747    2.6768    0.4300 H   0  0  0  0  0  0  0  0  0  0  0  0
   -2.2579    1.3744   -1.1632 H   0  0  0  0  0  0  0  0  0  0  0  0
   -2.7848   -0.9753   -0.4490 H   0  0  0  0  0  0  0  0  0  0  0  0
   -0.8117   -1.0756    1.7026 H   0  0  0  0  0  0  0  0  0  0  0  0
   -0.9837   -2.4473    0.4595 H   0  0  0  0  0  0  0  0  0  0  0  0
    0.8546   -1.6165   -0.7408 H   0  0  0  0  0  0  0  0  0  0  0  0
   -0.7803   -0.5305   -2.2124 H   0  0  0  0  0  0  0  0  0  0  0  0
  1  2  1  0
  2  3  1  0
  3  4  1  0
  4  5  1  0
  5  6  1  0
  6  7  1  0
  7  8  1  0
  8  9  1  0
  8  2  1  0
  9  5  1  0
  9  6  1  0
  1 10  1  0
  1 11  1  0
  1 12  1  0
  2 13  1  0
  4 14  1  0
  4 15  1  0
  5 16  1  0
  6 17  1  0
  7 18  1  0
  7 19  1  0
  8 20  1  0
  9 21  1  0
M  END
