
     RDKit          3D

 23 24  0  0  0  0  0  0  0  0999 V2000
    2.4789   -0.9140    0.4698 C   0  0  0  0  0  0  0  0  0  0  0  0
    1.7715    0.3851    0.1587 C   0  0  0  0  0  0  0  0  0  0  0  0
    1.1413    0.8838    1.4261 O   0  0  0  0  0  0  0  0  0  0  0  0
    0.4446    0.6380    0.2703 C   0  0  0  0  0  0  0  0  0  0  0  0
   -0.2418    1.7705   -0.4680 C   0  0  0  0  0  0  0  0  0  0  0  0
   -1.2482    0.7309   -0.9643 C   0  0  0  0  0  0  0  0  0  0  0  0
   -0.7891   -0.1408    0.2109 C   0  0  0  0  0  0  0  0  0  0  0  0
   -0.7523   -1.5736   -0.1676 C   0  0  0  0  0  0  0  0  0  0  0  0
   -1.6871    0.0840    1.4098 C   0  0  0  0  0  0  0  0  0  0  0  0
    2.0583   -1.4574    1.3162 H   0  0  0  0  0  0  0  0  0  0  0  0
    2.5147   -1.4948   -0.4784 H   0  0  0  0  0  0  0  0  0  0  0  0
    3.5618   -0.7267    0.7271 H   0  0  0  0  0  0  0  0  0  0  0  0
    2.4946    1.1751   -0.2039 H   0  0  0  0  0  0  0  0  0  0  0  0
   -0.7417    2.5134    0.1843 H   0  0  0  0  0  0  0  0  0  0  0  0
    0.3850    2.1941   -1.2720 H   0  0  0  0  0  0  0  0  0  0  0  0
   -1.0026    0.2657   -1.9211 H   0  0  0  0  0  0  0  0  0  0  0  0
   -2.2731    1.0995   -0.8911 H   0  0  0  0  0  0  0  0  0  0  0  0
   -0.0586   -1.8327   -0.9726 H   0  0  0  0  0  0  0  0  0  0  0  0
   -0.6241   -2.2191    0.7393 H   0  0  0  0  0  0  0  0  0  0  0  0
   -1.7793   -1.8487   -0.5516 H   0  0  0  0  0  0  0  0  0  0  0  0
   -1.3960    1.0380    1.8797 H   0  0  0  0  0  0  0  0  0  0  0  0
   -1.5260   -0.7084    2.1521 H   0  0  0  0  0  0  0  0  0  0  0  0
   -2.7307    0.1379    1.0600 H   0  0  0  0  0  0  0  0  0  0  0  0
  1  2  1  0
  2  3  1  0
  3  4  1  0
  4  5  1  0
  5  6  1  0
  6  7  1  0
  7  8  1  0
  7  9  1  0
  4  2  1  0
  7  4  1  0
  1 10  1  0
  1 11  1  0
  1 12  1  0
  2 13  1  0
  5 14  1  0
  5 15  1  0
  6 16  1  0
  6 17  1  0
  8 18  1  0
  8 19  1  0
  8 20  1  0
  9 21  1  0
  9 22  1  0
  9 23  1  0
M  END
