
     RDKit          3D

 21 22  0  0  0  0  0  0  0  0999 V2000
    2.6359    0.4780   -0.1605 C   0  0  0  0  0  0  0  0  0  0  0  0
    1.2900   -0.0424    0.2569 C   0  0  0  0  0  0  0  0  0  0  0  0
    1.2552   -1.4124   -0.0839 O   0  0  0  0  0  0  0  0  0  0  0  0
   -0.1031   -1.6931    0.1513 C   0  0  0  0  0  0  0  0  0  0  0  0
   -0.7985   -0.6265   -0.6387 C   0  0  0  0  0  0  0  0  0  0  0  0
   -1.8122    0.0933    0.2209 C   0  0  0  0  0  0  0  0  0  0  0  0
   -3.0132    0.2685   -0.4386 O   0  0  0  0  0  0  0  0  0  0  0  0
   -0.8885    1.2825    0.2394 C   0  0  0  0  0  0  0  0  0  0  0  0
    0.1626    0.5459   -0.5301 C   0  0  0  0  0  0  0  0  0  0  0  0
    3.3730   -0.3565   -0.2592 H   0  0  0  0  0  0  0  0  0  0  0  0
    3.0531    1.1602    0.6040 H   0  0  0  0  0  0  0  0  0  0  0  0
    2.6075    0.9878   -1.1424 H   0  0  0  0  0  0  0  0  0  0  0  0
    1.1756    0.0294    1.3472 H   0  0  0  0  0  0  0  0  0  0  0  0
   -0.3723   -2.7147   -0.1299 H   0  0  0  0  0  0  0  0  0  0  0  0
   -0.2482   -1.5321    1.2486 H   0  0  0  0  0  0  0  0  0  0  0  0
   -1.0994   -0.8711   -1.6550 H   0  0  0  0  0  0  0  0  0  0  0  0
   -1.9362   -0.3211    1.2296 H   0  0  0  0  0  0  0  0  0  0  0  0
   -3.7770   -0.0581    0.1148 H   0  0  0  0  0  0  0  0  0  0  0  0
   -0.5729    1.6440    1.2272 H   0  0  0  0  0  0  0  0  0  0  0  0
   -1.3567    2.1042   -0.3766 H   0  0  0  0  0  0  0  0  0  0  0  0
    0.4256    1.0341   -1.4738 H   0  0  0  0  0  0  0  0  0  0  0  0
  1  2  1  0
  2  3  1  0
  3  4  1  0
  4  5  1  0
  5  6  1  0
  6  7  1  0
  6  8  1  0
  8  9  1  0
  9  2  1  0
  9  5  1  0
  1 10  1  0
  1 11  1  0
  1 12  1  0
  2 13  1  0
  4 14  1  0
  4 15  1  0
  5 16  1  0
  6 17  1  0
  7 18  1  0
  8 19  1  0
  8 20  1  0
  9 21  1  0
M  END
