
     RDKit          3D

 21 22  0  0  0  0  0  0  0  0999 V2000
    2.2262    0.8410    0.5691 C   0  0  0  0  0  0  0  0  0  0  0  0
    1.6237   -0.2173   -0.3463 C   0  0  0  0  0  0  0  0  0  0  0  0
    1.1604   -1.4094    0.4163 O   0  0  0  0  0  0  0  0  0  0  0  0
    0.3414   -0.6767   -0.3819 C   0  0  0  0  0  0  0  0  0  0  0  0
   -0.3316   -1.2275   -1.5896 C   0  0  0  0  0  0  0  0  0  0  0  0
   -1.5689   -0.9150   -0.9890 O   0  0  0  0  0  0  0  0  0  0  0  0
   -0.9575   -0.1284    0.0167 C   0  0  0  0  0  0  0  0  0  0  0  0
   -1.5233   -0.5244    1.3503 C   0  0  0  0  0  0  0  0  0  0  0  0
   -1.2382    1.3214   -0.2672 C   0  0  0  0  0  0  0  0  0  0  0  0
    1.7288    0.8932    1.5364 H   0  0  0  0  0  0  0  0  0  0  0  0
    3.3281    0.6451    0.7163 H   0  0  0  0  0  0  0  0  0  0  0  0
    2.1919    1.7933   -0.0119 H   0  0  0  0  0  0  0  0  0  0  0  0
    2.3950   -0.5740   -1.0915 H   0  0  0  0  0  0  0  0  0  0  0  0
   -0.1641   -0.6075   -2.5172 H   0  0  0  0  0  0  0  0  0  0  0  0
   -0.1353   -2.2971   -1.7203 H   0  0  0  0  0  0  0  0  0  0  0  0
   -2.3756   -1.2422    1.2685 H   0  0  0  0  0  0  0  0  0  0  0  0
   -0.7871   -0.9721    2.0355 H   0  0  0  0  0  0  0  0  0  0  0  0
   -1.9519    0.3579    1.9008 H   0  0  0  0  0  0  0  0  0  0  0  0
   -2.3462    1.4530   -0.2784 H   0  0  0  0  0  0  0  0  0  0  0  0
   -0.8605    1.9071    0.6009 H   0  0  0  0  0  0  0  0  0  0  0  0
   -0.7553    1.5796   -1.2174 H   0  0  0  0  0  0  0  0  0  0  0  0
  1  2  1  0
  2  3  1  0
  3  4  1  0
  4  5  1  0
  5  6  1  0
  6  7  1  0
  7  8  1  0
  7  9  1  0
  4  2  1  0
  7  4  1  0
  1 10  1  0
  1 11  1  0
  1 12  1  0
  2 13  1  0
  5 14  1  0
  5 15  1  0
  8 16  1  0
  8 17  1  0
  8 18  1  0
  9 19  1  0
  9 20  1  0
  9 21  1  0
M  END
