
     RDKit          3D

 17 18  0  0  0  0  0  0  0  0999 V2000
    1.8244   -0.0515   -0.8851 C   0  0  0  0  0  0  0  0  0  0  0  0
    0.9832   -0.0130    0.3466 C   0  0  0  0  0  0  0  0  0  0  0  0
    0.9098   -1.2597    1.0131 O   0  0  0  0  0  0  0  0  0  0  0  0
   -0.5039   -1.2311    1.0740 C   0  0  0  0  0  0  0  0  0  0  0  0
   -0.4723   -0.0397    0.2234 C   0  0  0  0  0  0  0  0  0  0  0  0
   -1.3086    0.2919   -0.8852 C   0  0  0  0  0  0  0  0  0  0  0  0
   -1.2515    1.1759    0.3861 C   0  0  0  0  0  0  0  0  0  0  0  0
    2.8092   -0.5139   -0.6192 H   0  0  0  0  0  0  0  0  0  0  0  0
    1.3778   -0.5885   -1.7276 H   0  0  0  0  0  0  0  0  0  0  0  0
    2.0476    0.9869   -1.1835 H   0  0  0  0  0  0  0  0  0  0  0  0
    1.3265    0.8002    1.0402 H   0  0  0  0  0  0  0  0  0  0  0  0
   -0.7954   -1.1440    2.1297 H   0  0  0  0  0  0  0  0  0  0  0  0
   -0.8681   -2.1910    0.6206 H   0  0  0  0  0  0  0  0  0  0  0  0
   -2.2920   -0.2571   -0.9829 H   0  0  0  0  0  0  0  0  0  0  0  0
   -0.9628    0.7440   -1.8288 H   0  0  0  0  0  0  0  0  0  0  0  0
   -0.7067    2.1428    0.2173 H   0  0  0  0  0  0  0  0  0  0  0  0
   -2.1172    1.1479    1.0614 H   0  0  0  0  0  0  0  0  0  0  0  0
  1  2  1  0
  2  3  1  0
  3  4  1  0
  4  5  1  0
  5  6  1  0
  6  7  1  0
  5  2  1  0
  7  5  1  0
  1  8  1  0
  1  9  1  0
  1 10  1  0
  2 11  1  0
  4 12  1  0
  4 13  1  0
  6 14  1  0
  6 15  1  0
  7 16  1  0
  7 17  1  0
M  END
