
     RDKit          3D

 23 24  0  0  0  0  0  0  0  0999 V2000
    2.8017    0.3084    0.5023 C   0  0  0  0  0  0  0  0  0  0  0  0
    1.4752    0.3155   -0.2044 C   0  0  0  0  0  0  0  0  0  0  0  0
    0.6590    1.3544    0.1445 O   0  0  0  0  0  0  0  0  0  0  0  0
   -0.6213    0.9251    0.2865 C   0  0  0  0  0  0  0  0  0  0  0  0
   -1.5891    1.7154   -0.5541 C   0  0  0  0  0  0  0  0  0  0  0  0
   -0.6899   -0.5470    0.0635 C   0  0  0  0  0  0  0  0  0  0  0  0
   -1.6715   -1.3085    0.9208 C   0  0  0  0  0  0  0  0  0  0  0  0
   -0.2920   -1.1962   -1.1944 C   0  0  0  0  0  0  0  0  0  0  0  0
    0.7157   -0.9681   -0.0732 C   0  0  0  0  0  0  0  0  0  0  0  0
    3.6609    0.1656   -0.2108 H   0  0  0  0  0  0  0  0  0  0  0  0
    2.8963   -0.4449    1.2827 H   0  0  0  0  0  0  0  0  0  0  0  0
    2.9552    1.3434    0.9109 H   0  0  0  0  0  0  0  0  0  0  0  0
    1.7079    0.4374   -1.3038 H   0  0  0  0  0  0  0  0  0  0  0  0
   -0.9237    1.1079    1.3599 H   0  0  0  0  0  0  0  0  0  0  0  0
   -1.8764    2.6335    0.0003 H   0  0  0  0  0  0  0  0  0  0  0  0
   -1.1187    2.0523   -1.4923 H   0  0  0  0  0  0  0  0  0  0  0  0
   -2.5196    1.1612   -0.7844 H   0  0  0  0  0  0  0  0  0  0  0  0
   -1.1940   -2.1123    1.4783 H   0  0  0  0  0  0  0  0  0  0  0  0
   -2.4810   -1.7086    0.2454 H   0  0  0  0  0  0  0  0  0  0  0  0
   -2.1905   -0.6122    1.6240 H   0  0  0  0  0  0  0  0  0  0  0  0
   -0.6256   -2.2162   -1.3839 H   0  0  0  0  0  0  0  0  0  0  0  0
   -0.1479   -0.6058   -2.1434 H   0  0  0  0  0  0  0  0  0  0  0  0
    1.0695   -1.8004    0.5256 H   0  0  0  0  0  0  0  0  0  0  0  0
  1  2  1  0
  2  3  1  0
  3  4  1  0
  4  5  1  0
  4  6  1  0
  6  7  1  0
  6  8  1  0
  8  9  1  0
  9  2  1  0
  9  6  1  0
  1 10  1  0
  1 11  1  0
  1 12  1  0
  2 13  1  0
  4 14  1  0
  5 15  1  0
  5 16  1  0
  5 17  1  0
  7 18  1  0
  7 19  1  0
  7 20  1  0
  8 21  1  0
  8 22  1  0
  9 23  1  0
M  END
