
     RDKit          3D

 21 22  0  0  0  0  0  0  0  0999 V2000
    2.0648   -0.1261   -0.6452 C   0  0  0  0  0  0  0  0  0  0  0  0
    0.9997   -0.2764    0.3685 C   0  0  0  0  0  0  0  0  0  0  0  0
    1.0015    0.6863    1.3641 O   0  0  0  0  0  0  0  0  0  0  0  0
   -0.2826    1.1087    1.5949 C   0  0  0  0  0  0  0  0  0  0  0  0
   -1.1143   -0.1273    1.1973 C   0  0  0  0  0  0  0  0  0  0  0  0
   -0.3994   -0.2152   -0.1662 C   0  0  0  0  0  0  0  0  0  0  0  0
   -0.8531   -1.2645   -1.0427 C   0  0  0  0  0  0  0  0  0  0  0  0
   -0.6719    1.2218   -0.6177 C   0  0  0  0  0  0  0  0  0  0  0  0
   -0.6295    1.9738    0.5366 O   0  0  0  0  0  0  0  0  0  0  0  0
    2.2241    0.9192   -0.9395 H   0  0  0  0  0  0  0  0  0  0  0  0
    1.8657   -0.8014   -1.4877 H   0  0  0  0  0  0  0  0  0  0  0  0
    3.0303   -0.4742   -0.1872 H   0  0  0  0  0  0  0  0  0  0  0  0
    1.1058   -1.2670    0.8980 H   0  0  0  0  0  0  0  0  0  0  0  0
   -0.5149    1.4825    2.5657 H   0  0  0  0  0  0  0  0  0  0  0  0
   -0.8625   -0.9988    1.7992 H   0  0  0  0  0  0  0  0  0  0  0  0
   -2.1684    0.1056    1.0890 H   0  0  0  0  0  0  0  0  0  0  0  0
   -0.0519   -1.8916   -1.5219 H   0  0  0  0  0  0  0  0  0  0  0  0
   -1.4593   -0.8315   -1.8926 H   0  0  0  0  0  0  0  0  0  0  0  0
   -1.5682   -1.9464   -0.5107 H   0  0  0  0  0  0  0  0  0  0  0  0
   -1.7339    1.1991   -1.0018 H   0  0  0  0  0  0  0  0  0  0  0  0
    0.0179    1.5233   -1.4001 H   0  0  0  0  0  0  0  0  0  0  0  0
  1  2  1  0
  2  3  1  0
  3  4  1  0
  4  5  1  0
  5  6  1  0
  6  7  1  0
  6  8  1  0
  8  9  1  0
  6  2  1  0
  9  4  1  0
  1 10  1  0
  1 11  1  0
  1 12  1  0
  2 13  1  0
  4 14  1  0
  5 15  1  0
  5 16  1  0
  7 17  1  0
  7 18  1  0
  7 19  1  0
  8 20  1  0
  8 21  1  0
M  END
