
     RDKit          3D

 19 20  0  0  0  0  0  0  0  0999 V2000
   -2.1115   -0.3645   -0.7723 C   0  0  0  0  0  0  0  0  0  0  0  0
   -1.2487   -0.3791    0.4508 C   0  0  0  0  0  0  0  0  0  0  0  0
   -0.2756   -1.3929    0.3210 O   0  0  0  0  0  0  0  0  0  0  0  0
    0.7943   -0.5696    0.0870 C   0  0  0  0  0  0  0  0  0  0  0  0
    2.0495   -0.7960    0.8746 C   0  0  0  0  0  0  0  0  0  0  0  0
    0.7263    0.6246   -0.7638 C   0  0  0  0  0  0  0  0  0  0  0  0
   -0.0415    0.6378   -1.9448 O   0  0  0  0  0  0  0  0  0  0  0  0
   -0.1095    0.6114    0.4703 C   0  0  0  0  0  0  0  0  0  0  0  0
    0.2689    1.2342    1.6249 O   0  0  0  0  0  0  0  0  0  0  0  0
   -1.7685   -1.0937   -1.5583 H   0  0  0  0  0  0  0  0  0  0  0  0
   -2.2691    0.6489   -1.1986 H   0  0  0  0  0  0  0  0  0  0  0  0
   -3.1320   -0.7504   -0.4797 H   0  0  0  0  0  0  0  0  0  0  0  0
   -1.7736   -0.3929    1.4238 H   0  0  0  0  0  0  0  0  0  0  0  0
    2.9161   -0.2878    0.3599 H   0  0  0  0  0  0  0  0  0  0  0  0
    2.3049   -1.8822    0.8347 H   0  0  0  0  0  0  0  0  0  0  0  0
    2.0010   -0.5014    1.9196 H   0  0  0  0  0  0  0  0  0  0  0  0
    1.6252    1.2497   -0.8171 H   0  0  0  0  0  0  0  0  0  0  0  0
    0.2625    1.3120   -2.5841 H   0  0  0  0  0  0  0  0  0  0  0  0
   -0.2185    2.0919    1.7519 H   0  0  0  0  0  0  0  0  0  0  0  0
  1  2  1  0
  2  3  1  0
  3  4  1  0
  4  5  1  0
  4  6  1  0
  6  7  1  0
  6  8  1  0
  8  9  1  0
  8  2  1  0
  8  4  1  0
  1 10  1  0
  1 11  1  0
  1 12  1  0
  2 13  1  0
  5 14  1  0
  5 15  1  0
  5 16  1  0
  6 17  1  0
  7 18  1  0
  9 19  1  0
M  END
