
     RDKit          3D

 16 16  0  0  0  0  0  0  0  0999 V2000
   -2.0332    0.3141   -0.1311 C   0  0  0  0  0  0  0  0  0  0  0  0
   -0.8939   -0.3835    0.5858 C   0  0  0  0  0  0  0  0  0  0  0  0
   -0.7473   -1.6661    0.0592 O   0  0  0  0  0  0  0  0  0  0  0  0
    0.1566   -1.1332   -0.8504 C   0  0  0  0  0  0  0  0  0  0  0  0
    0.4230    0.0668    0.0026 C   0  0  0  0  0  0  0  0  0  0  0  0
    1.5293   -0.1375    0.8695 O   0  0  0  0  0  0  0  0  0  0  0  0
    2.5076    0.8332    1.0247 C   0  0  0  0  0  0  0  0  0  0  0  0
    2.3708    1.8953    0.3668 O   0  0  0  0  0  0  0  0  0  0  0  0
   -1.8391    1.4090   -0.0191 H   0  0  0  0  0  0  0  0  0  0  0  0
   -3.0117    0.0297    0.3048 H   0  0  0  0  0  0  0  0  0  0  0  0
   -1.9930    0.0660   -1.1937 H   0  0  0  0  0  0  0  0  0  0  0  0
   -0.9768   -0.3159    1.6795 H   0  0  0  0  0  0  0  0  0  0  0  0
   -0.2851   -0.8642   -1.8236 H   0  0  0  0  0  0  0  0  0  0  0  0
    1.0222   -1.8274   -0.9539 H   0  0  0  0  0  0  0  0  0  0  0  0
    0.4017    1.0308   -0.5239 H   0  0  0  0  0  0  0  0  0  0  0  0
    3.3691    0.6830    1.6950 H   0  0  0  0  0  0  0  0  0  0  0  0
  1  2  1  0
  2  3  1  0
  3  4  1  0
  4  5  1  0
  5  6  1  0
  6  7  1  0
  7  8  2  0
  5  2  1  0
  1  9  1  0
  1 10  1  0
  1 11  1  0
  2 12  1  0
  4 13  1  0
  4 14  1  0
  5 15  1  0
  7 16  1  0
M  END
