
     RDKit          3D

 18 18  0  0  0  0  0  0  0  0999 V2000
    2.0152    0.2462   -0.3007 C   0  0  0  0  0  0  0  0  0  0  0  0
    0.8262    0.0654    0.5891 C   0  0  0  0  0  0  0  0  0  0  0  0
    0.3802    1.2002    1.2565 O   0  0  0  0  0  0  0  0  0  0  0  0
   -0.9015    0.6007    1.2658 C   0  0  0  0  0  0  0  0  0  0  0  0
   -0.5126   -0.0153   -0.0871 C   0  0  0  0  0  0  0  0  0  0  0  0
   -0.9979   -1.4188   -0.2762 C   0  0  0  0  0  0  0  0  0  0  0  0
   -0.7791    0.9359   -1.1577 C   0  0  0  0  0  0  0  0  0  0  0  0
   -1.9032    1.3191   -1.4046 O   0  0  0  0  0  0  0  0  0  0  0  0
    2.3870    1.2759   -0.3589 H   0  0  0  0  0  0  0  0  0  0  0  0
    2.8526   -0.3694    0.1058 H   0  0  0  0  0  0  0  0  0  0  0  0
    1.7711   -0.1874   -1.2877 H   0  0  0  0  0  0  0  0  0  0  0  0
    0.9081   -0.7729    1.3327 H   0  0  0  0  0  0  0  0  0  0  0  0
   -0.9823   -0.1878    2.0143 H   0  0  0  0  0  0  0  0  0  0  0  0
   -1.7336    1.3300    1.1988 H   0  0  0  0  0  0  0  0  0  0  0  0
   -0.2450   -2.1538    0.0860 H   0  0  0  0  0  0  0  0  0  0  0  0
   -1.1031   -1.5991   -1.3748 H   0  0  0  0  0  0  0  0  0  0  0  0
   -2.0083   -1.5920    0.1581 H   0  0  0  0  0  0  0  0  0  0  0  0
    0.0264    1.3231   -1.7594 H   0  0  0  0  0  0  0  0  0  0  0  0
  1  2  1  0
  2  3  1  0
  3  4  1  0
  4  5  1  0
  5  6  1  0
  5  7  1  0
  7  8  2  0
  5  2  1  0
  1  9  1  0
  1 10  1  0
  1 11  1  0
  2 12  1  0
  4 13  1  0
  4 14  1  0
  6 15  1  0
  6 16  1  0
  6 17  1  0
  7 18  1  0
M  END
