
     RDKit          3D

 21 23  0  0  0  0  0  0  0  0999 V2000
   -1.9887   -1.0546    0.3545 C   0  0  0  0  0  0  0  0  0  0  0  0
   -1.1519   -0.1989   -0.4929 C   0  0  0  0  0  0  0  0  0  0  0  0
   -0.1434   -0.8194   -1.1874 O   0  0  0  0  0  0  0  0  0  0  0  0
    0.9514    0.0245   -1.2618 C   0  0  0  0  0  0  0  0  0  0  0  0
    0.3558    1.4232   -1.0054 C   0  0  0  0  0  0  0  0  0  0  0  0
   -0.4411    0.9206    0.2234 C   0  0  0  0  0  0  0  0  0  0  0  0
    0.7098    0.4448    1.0565 C   0  0  0  0  0  0  0  0  0  0  0  0
    1.1240   -0.9602    1.1344 C   0  0  0  0  0  0  0  0  0  0  0  0
    1.7211   -0.1231    0.0317 C   0  0  0  0  0  0  0  0  0  0  0  0
   -1.7305   -1.0934    1.4263 H   0  0  0  0  0  0  0  0  0  0  0  0
   -3.0591   -0.7038    0.3210 H   0  0  0  0  0  0  0  0  0  0  0  0
   -1.9634   -2.1186   -0.0117 H   0  0  0  0  0  0  0  0  0  0  0  0
   -1.8105    0.3009   -1.2639 H   0  0  0  0  0  0  0  0  0  0  0  0
    1.5372   -0.0295   -2.1572 H   0  0  0  0  0  0  0  0  0  0  0  0
    1.1203    2.1420   -0.7192 H   0  0  0  0  0  0  0  0  0  0  0  0
   -0.3155    1.7291   -1.8134 H   0  0  0  0  0  0  0  0  0  0  0  0
   -1.0665    1.6813    0.6529 H   0  0  0  0  0  0  0  0  0  0  0  0
    1.0882    1.1667    1.7949 H   0  0  0  0  0  0  0  0  0  0  0  0
    0.4863   -1.8103    0.8512 H   0  0  0  0  0  0  0  0  0  0  0  0
    1.8401   -1.2067    1.9447 H   0  0  0  0  0  0  0  0  0  0  0  0
    2.7363    0.2854    0.1216 H   0  0  0  0  0  0  0  0  0  0  0  0
  1  2  1  0
  2  3  1  0
  3  4  1  0
  4  5  1  0
  5  6  1  0
  6  7  1  0
  7  8  1  0
  8  9  1  0
  6  2  1  0
  9  7  1  0
  9  4  1  0
  1 10  1  0
  1 11  1  0
  1 12  1  0
  2 13  1  0
  4 14  1  0
  5 15  1  0
  5 16  1  0
  6 17  1  0
  7 18  1  0
  8 19  1  0
  8 20  1  0
  9 21  1  0
M  END
