
     RDKit          3D

 20 20  0  0  0  0  0  0  0  0999 V2000
    2.7047    0.0191   -0.0585 C   0  0  0  0  0  0  0  0  0  0  0  0
    1.2714    0.5064   -0.1325 C   0  0  0  0  0  0  0  0  0  0  0  0
    0.6925    0.6336    1.1040 O   0  0  0  0  0  0  0  0  0  0  0  0
   -0.6554    0.2326    0.9303 C   0  0  0  0  0  0  0  0  0  0  0  0
   -1.3459    1.4016    0.2841 C   0  0  0  0  0  0  0  0  0  0  0  0
   -0.4461   -0.9210   -0.0175 C   0  0  0  0  0  0  0  0  0  0  0  0
   -1.6691   -1.4119   -0.6790 C   0  0  0  0  0  0  0  0  0  0  0  0
    0.5091   -0.3852   -0.8803 O   0  0  0  0  0  0  0  0  0  0  0  0
    3.0907   -0.0364   -1.0892 H   0  0  0  0  0  0  0  0  0  0  0  0
    3.3013    0.7950    0.4638 H   0  0  0  0  0  0  0  0  0  0  0  0
    2.7667   -0.9761    0.3888 H   0  0  0  0  0  0  0  0  0  0  0  0
    1.2905    1.4836   -0.6449 H   0  0  0  0  0  0  0  0  0  0  0  0
   -1.1358   -0.0343    1.8684 H   0  0  0  0  0  0  0  0  0  0  0  0
   -1.6208    2.1042    1.1217 H   0  0  0  0  0  0  0  0  0  0  0  0
   -2.2656    1.1589   -0.2392 H   0  0  0  0  0  0  0  0  0  0  0  0
   -0.6630    2.0045   -0.3656 H   0  0  0  0  0  0  0  0  0  0  0  0
    0.0771   -1.7170    0.5630 H   0  0  0  0  0  0  0  0  0  0  0  0
   -1.4931   -1.4418   -1.7900 H   0  0  0  0  0  0  0  0  0  0  0  0
   -2.6034   -0.9169   -0.4240 H   0  0  0  0  0  0  0  0  0  0  0  0
   -1.8060   -2.4989   -0.4033 H   0  0  0  0  0  0  0  0  0  0  0  0
  1  2  1  0
  2  3  1  0
  3  4  1  0
  4  5  1  0
  4  6  1  0
  6  7  1  0
  6  8  1  0
  8  2  1  0
  1  9  1  0
  1 10  1  0
  1 11  1  0
  2 12  1  0
  4 13  1  0
  5 14  1  0
  5 15  1  0
  5 16  1  0
  6 17  1  0
  7 18  1  0
  7 19  1  0
  7 20  1  0
M  END
