
     RDKit          3D

 21 21  0  0  0  0  0  0  0  0999 V2000
    3.0778    0.0502    0.3293 C   0  0  0  0  0  0  0  0  0  0  0  0
    1.6548   -0.0883   -0.2285 C   0  0  0  0  0  0  0  0  0  0  0  0
    0.9851    1.0937   -0.2374 O   0  0  0  0  0  0  0  0  0  0  0  0
   -0.1464    1.1823    0.5090 C   0  0  0  0  0  0  0  0  0  0  0  0
   -1.0191   -0.0185    0.5360 C   0  0  0  0  0  0  0  0  0  0  0  0
   -2.3848    0.2259   -0.0773 C   0  0  0  0  0  0  0  0  0  0  0  0
   -3.1768   -0.9081   -0.0392 O   0  0  0  0  0  0  0  0  0  0  0  0
   -0.2960   -1.1558   -0.1854 C   0  0  0  0  0  0  0  0  0  0  0  0
    1.0048   -1.1421    0.3714 O   0  0  0  0  0  0  0  0  0  0  0  0
    3.0993    0.7390    1.1930 H   0  0  0  0  0  0  0  0  0  0  0  0
    3.4595   -0.9179    0.6778 H   0  0  0  0  0  0  0  0  0  0  0  0
    3.7712    0.4566   -0.4358 H   0  0  0  0  0  0  0  0  0  0  0  0
    1.8125   -0.3958   -1.3057 H   0  0  0  0  0  0  0  0  0  0  0  0
   -0.7685    2.0268    0.0881 H   0  0  0  0  0  0  0  0  0  0  0  0
    0.1410    1.4948    1.5450 H   0  0  0  0  0  0  0  0  0  0  0  0
   -1.1964   -0.3825    1.5695 H   0  0  0  0  0  0  0  0  0  0  0  0
   -2.3058    0.6622   -1.1020 H   0  0  0  0  0  0  0  0  0  0  0  0
   -2.8733    0.9985    0.5524 H   0  0  0  0  0  0  0  0  0  0  0  0
   -3.8863   -0.8713    0.6485 H   0  0  0  0  0  0  0  0  0  0  0  0
   -0.1700   -0.9299   -1.2666 H   0  0  0  0  0  0  0  0  0  0  0  0
   -0.7824   -2.1199   -0.0514 H   0  0  0  0  0  0  0  0  0  0  0  0
  1  2  1  0
  2  3  1  0
  3  4  1  0
  4  5  1  0
  5  6  1  0
  6  7  1  0
  5  8  1  0
  8  9  1  0
  9  2  1  0
  1 10  1  0
  1 11  1  0
  1 12  1  0
  2 13  1  0
  4 14  1  0
  4 15  1  0
  5 16  1  0
  6 17  1  0
  6 18  1  0
  7 19  1  0
  8 20  1  0
  8 21  1  0
M  END
