
     RDKit          3D

 21 22  0  0  0  0  0  0  0  0999 V2000
    2.7059    0.3121    0.0819 C   0  0  0  0  0  0  0  0  0  0  0  0
    1.6538   -0.7111    0.4292 C   0  0  0  0  0  0  0  0  0  0  0  0
    1.0878   -1.3095   -0.8231 O   0  0  0  0  0  0  0  0  0  0  0  0
    0.2333   -0.4934   -0.0973 C   0  0  0  0  0  0  0  0  0  0  0  0
   -0.8747   -1.1620    0.6111 C   0  0  0  0  0  0  0  0  0  0  0  0
   -2.2066   -0.5194    0.5079 C   0  0  0  0  0  0  0  0  0  0  0  0
   -2.0937    0.8617    0.5555 O   0  0  0  0  0  0  0  0  0  0  0  0
   -1.4816    1.2384   -0.6646 C   0  0  0  0  0  0  0  0  0  0  0  0
   -0.0222    0.9157   -0.5188 C   0  0  0  0  0  0  0  0  0  0  0  0
    2.4622    0.7824   -0.8916 H   0  0  0  0  0  0  0  0  0  0  0  0
    3.6934   -0.1867   -0.0393 H   0  0  0  0  0  0  0  0  0  0  0  0
    2.7485    1.1514    0.8177 H   0  0  0  0  0  0  0  0  0  0  0  0
    1.8336   -1.4648    1.1938 H   0  0  0  0  0  0  0  0  0  0  0  0
   -0.9875   -2.2295    0.2580 H   0  0  0  0  0  0  0  0  0  0  0  0
   -0.6107   -1.2213    1.7053 H   0  0  0  0  0  0  0  0  0  0  0  0
   -2.8662   -0.8198    1.3549 H   0  0  0  0  0  0  0  0  0  0  0  0
   -2.6870   -0.7963   -0.4694 H   0  0  0  0  0  0  0  0  0  0  0  0
   -1.9156    0.5830   -1.4360 H   0  0  0  0  0  0  0  0  0  0  0  0
   -1.6229    2.3046   -0.8194 H   0  0  0  0  0  0  0  0  0  0  0  0
    0.4344    1.6309    0.2261 H   0  0  0  0  0  0  0  0  0  0  0  0
    0.5160    1.1337   -1.4736 H   0  0  0  0  0  0  0  0  0  0  0  0
  1  2  1  0
  2  3  1  0
  3  4  1  0
  4  5  1  0
  5  6  1  0
  6  7  1  0
  7  8  1  0
  8  9  1  0
  4  2  1  0
  9  4  1  0
  1 10  1  0
  1 11  1  0
  1 12  1  0
  2 13  1  0
  5 14  1  0
  5 15  1  0
  6 16  1  0
  6 17  1  0
  8 18  1  0
  8 19  1  0
  9 20  1  0
  9 21  1  0
M  END
