
     RDKit          3D

 23 24  0  0  0  0  0  0  0  0999 V2000
   -2.0829    1.3929    0.2191 C   0  0  0  0  0  0  0  0  0  0  0  0
   -1.3073    0.3762    1.0677 C   0  0  0  0  0  0  0  0  0  0  0  0
   -1.9842   -0.8566    0.9688 O   0  0  0  0  0  0  0  0  0  0  0  0
   -1.1547   -1.3191   -0.0563 C   0  0  0  0  0  0  0  0  0  0  0  0
   -0.1768   -0.2314    0.3201 C   0  0  0  0  0  0  0  0  0  0  0  0
    0.4046    0.5566   -0.8012 C   0  0  0  0  0  0  0  0  0  0  0  0
    1.8977    0.6041   -0.4556 C   0  0  0  0  0  0  0  0  0  0  0  0
    2.0781   -0.8205    0.0848 C   0  0  0  0  0  0  0  0  0  0  0  0
    0.9506   -0.8077    1.1294 C   0  0  0  0  0  0  0  0  0  0  0  0
   -3.1245    1.4632    0.6169 H   0  0  0  0  0  0  0  0  0  0  0  0
   -2.1753    0.9381   -0.7940 H   0  0  0  0  0  0  0  0  0  0  0  0
   -1.5955    2.3775    0.2159 H   0  0  0  0  0  0  0  0  0  0  0  0
   -1.1318    0.7329    2.0854 H   0  0  0  0  0  0  0  0  0  0  0  0
   -0.8228   -2.3592    0.2196 H   0  0  0  0  0  0  0  0  0  0  0  0
   -1.5639   -1.2857   -1.0658 H   0  0  0  0  0  0  0  0  0  0  0  0
    0.2766    0.0792   -1.7995 H   0  0  0  0  0  0  0  0  0  0  0  0
    0.0101    1.5817   -0.8364 H   0  0  0  0  0  0  0  0  0  0  0  0
    2.0314    1.2810    0.4043 H   0  0  0  0  0  0  0  0  0  0  0  0
    2.5232    0.8086   -1.3176 H   0  0  0  0  0  0  0  0  0  0  0  0
    3.0550   -0.9804    0.5290 H   0  0  0  0  0  0  0  0  0  0  0  0
    1.8010   -1.5385   -0.7140 H   0  0  0  0  0  0  0  0  0  0  0  0
    0.7893   -1.8469    1.4408 H   0  0  0  0  0  0  0  0  0  0  0  0
    1.3020   -0.1459    1.9347 H   0  0  0  0  0  0  0  0  0  0  0  0
  1  2  1  0
  2  3  1  0
  3  4  1  0
  4  5  1  0
  5  6  1  0
  6  7  1  0
  7  8  1  0
  8  9  1  0
  5  2  1  0
  9  5  1  0
  1 10  1  0
  1 11  1  0
  1 12  1  0
  2 13  1  0
  4 14  1  0
  4 15  1  0
  6 16  1  0
  6 17  1  0
  7 18  1  0
  7 19  1  0
  8 20  1  0
  8 21  1  0
  9 22  1  0
  9 23  1  0
M  END
