
     RDKit          3D

 17 18  0  0  0  0  0  0  0  0999 V2000
   -2.3019   -0.1786    0.7705 C   0  0  0  0  0  0  0  0  0  0  0  0
   -1.3967   -0.4919   -0.3934 C   0  0  0  0  0  0  0  0  0  0  0  0
   -1.0021   -1.9283   -0.3228 O   0  0  0  0  0  0  0  0  0  0  0  0
   -0.0774   -0.9119   -0.2693 C   0  0  0  0  0  0  0  0  0  0  0  0
    0.9103   -0.7634   -1.3864 C   0  0  0  0  0  0  0  0  0  0  0  0
    2.0184   -0.1675   -0.9794 C   0  0  0  0  0  0  0  0  0  0  0  0
    1.8805    0.1446    0.4590 C   0  0  0  0  0  0  0  0  0  0  0  0
    0.7999   -0.7478    0.9182 C   0  0  0  0  0  0  0  0  0  0  0  0
    0.6834   -1.2234    2.0240 O   0  0  0  0  0  0  0  0  0  0  0  0
   -1.8341   -0.4206    1.7482 H   0  0  0  0  0  0  0  0  0  0  0  0
   -3.2412   -0.7797    0.6127 H   0  0  0  0  0  0  0  0  0  0  0  0
   -2.5614    0.9067    0.6958 H   0  0  0  0  0  0  0  0  0  0  0  0
   -1.8427   -0.2282   -1.3749 H   0  0  0  0  0  0  0  0  0  0  0  0
    0.7542   -1.1018   -2.4278 H   0  0  0  0  0  0  0  0  0  0  0  0
    2.8862    0.0480   -1.6283 H   0  0  0  0  0  0  0  0  0  0  0  0
    2.8257    0.0114    1.0198 H   0  0  0  0  0  0  0  0  0  0  0  0
    1.4991    1.1840    0.5344 H   0  0  0  0  0  0  0  0  0  0  0  0
  1  2  1  0
  2  3  1  0
  3  4  1  0
  4  5  1  0
  5  6  2  0
  6  7  1  0
  7  8  1  0
  8  9  2  0
  4  2  1  0
  8  4  1  0
  1 10  1  0
  1 11  1  0
  1 12  1  0
  2 13  1  0
  5 14  1  0
  6 15  1  0
  7 16  1  0
  7 17  1  0
M  END
