
     RDKit          3D

 23 24  0  0  0  0  0  0  0  0999 V2000
    2.0833    0.6525    0.3956 C   0  0  0  0  0  0  0  0  0  0  0  0
    0.8141    0.1487    1.0064 C   0  0  0  0  0  0  0  0  0  0  0  0
    0.8223   -1.2642    1.0465 O   0  0  0  0  0  0  0  0  0  0  0  0
    0.7378   -1.6261   -0.3077 C   0  0  0  0  0  0  0  0  0  0  0  0
   -0.2502   -0.6574   -0.9207 C   0  0  0  0  0  0  0  0  0  0  0  0
   -1.6622   -1.1031   -0.5797 C   0  0  0  0  0  0  0  0  0  0  0  0
   -1.6561   -0.1689    0.6052 C   0  0  0  0  0  0  0  0  0  0  0  0
   -0.3644    0.4010    0.1056 C   0  0  0  0  0  0  0  0  0  0  0  0
   -0.5022    1.8125   -0.3363 C   0  0  0  0  0  0  0  0  0  0  0  0
    2.8097   -0.1906    0.2925 H   0  0  0  0  0  0  0  0  0  0  0  0
    1.9600    1.1120   -0.5987 H   0  0  0  0  0  0  0  0  0  0  0  0
    2.5443    1.3585    1.1364 H   0  0  0  0  0  0  0  0  0  0  0  0
    0.5992    0.5660    2.0030 H   0  0  0  0  0  0  0  0  0  0  0  0
    1.7111   -1.5827   -0.8137 H   0  0  0  0  0  0  0  0  0  0  0  0
    0.2684   -2.6356   -0.3315 H   0  0  0  0  0  0  0  0  0  0  0  0
   -0.0721   -0.3686   -1.9545 H   0  0  0  0  0  0  0  0  0  0  0  0
   -1.7327   -2.1493   -0.2533 H   0  0  0  0  0  0  0  0  0  0  0  0
   -2.3352   -0.7991   -1.4129 H   0  0  0  0  0  0  0  0  0  0  0  0
   -1.5163   -0.6337    1.5922 H   0  0  0  0  0  0  0  0  0  0  0  0
   -2.5224    0.5210    0.5935 H   0  0  0  0  0  0  0  0  0  0  0  0
   -0.5167    2.4534    0.5865 H   0  0  0  0  0  0  0  0  0  0  0  0
   -1.4888    1.9874   -0.8196 H   0  0  0  0  0  0  0  0  0  0  0  0
    0.2688    2.1662   -1.0349 H   0  0  0  0  0  0  0  0  0  0  0  0
  1  2  1  0
  2  3  1  0
  3  4  1  0
  4  5  1  0
  5  6  1  0
  6  7  1  0
  7  8  1  0
  8  9  1  0
  8  2  1  0
  8  5  1  0
  1 10  1  0
  1 11  1  0
  1 12  1  0
  2 13  1  0
  4 14  1  0
  4 15  1  0
  5 16  1  0
  6 17  1  0
  6 18  1  0
  7 19  1  0
  7 20  1  0
  9 21  1  0
  9 22  1  0
  9 23  1  0
M  END
