
     RDKit          3D

 21 22  0  0  0  0  0  0  0  0999 V2000
    2.8025    0.1252    0.2364 C   0  0  0  0  0  0  0  0  0  0  0  0
    1.4605    0.6025   -0.2036 C   0  0  0  0  0  0  0  0  0  0  0  0
    0.6891    0.9515    0.9716 O   0  0  0  0  0  0  0  0  0  0  0  0
   -0.4469    0.4984    0.3912 C   0  0  0  0  0  0  0  0  0  0  0  0
   -1.1108    1.5559   -0.4547 C   0  0  0  0  0  0  0  0  0  0  0  0
   -1.3826   -0.4445    1.0364 C   0  0  0  0  0  0  0  0  0  0  0  0
   -1.6661   -1.4502   -0.1250 C   0  0  0  0  0  0  0  0  0  0  0  0
   -0.2773   -1.5205   -0.7415 C   0  0  0  0  0  0  0  0  0  0  0  0
    0.4191   -0.4579   -0.4015 C   0  0  0  0  0  0  0  0  0  0  0  0
    3.5955    0.5913   -0.3916 H   0  0  0  0  0  0  0  0  0  0  0  0
    2.8964   -0.9949    0.1471 H   0  0  0  0  0  0  0  0  0  0  0  0
    3.0300    0.4170    1.3018 H   0  0  0  0  0  0  0  0  0  0  0  0
    1.4106    1.3473   -0.9899 H   0  0  0  0  0  0  0  0  0  0  0  0
   -0.5561    1.6961   -1.4050 H   0  0  0  0  0  0  0  0  0  0  0  0
   -2.1920    1.3456   -0.6109 H   0  0  0  0  0  0  0  0  0  0  0  0
   -1.0624    2.5329    0.1003 H   0  0  0  0  0  0  0  0  0  0  0  0
   -0.9499   -1.0068    1.8719 H   0  0  0  0  0  0  0  0  0  0  0  0
   -2.3799   -0.0074    1.2520 H   0  0  0  0  0  0  0  0  0  0  0  0
   -2.3064   -0.9922   -0.8882 H   0  0  0  0  0  0  0  0  0  0  0  0
   -1.9800   -2.4211    0.2635 H   0  0  0  0  0  0  0  0  0  0  0  0
    0.0067   -2.3682   -1.3603 H   0  0  0  0  0  0  0  0  0  0  0  0
  1  2  1  0
  2  3  1  0
  3  4  1  0
  4  5  1  0
  4  6  1  0
  6  7  1  0
  7  8  1  0
  8  9  2  0
  9  2  1  0
  9  4  1  0
  1 10  1  0
  1 11  1  0
  1 12  1  0
  2 13  1  0
  5 14  1  0
  5 15  1  0
  5 16  1  0
  6 17  1  0
  6 18  1  0
  7 19  1  0
  7 20  1  0
  8 21  1  0
M  END
