
     RDKit          3D

 21 22  0  0  0  0  0  0  0  0999 V2000
    2.4182   -0.4799    0.1969 C   0  0  0  0  0  0  0  0  0  0  0  0
    1.3460    0.4621   -0.3024 C   0  0  0  0  0  0  0  0  0  0  0  0
    0.8542    0.1577   -1.5353 O   0  0  0  0  0  0  0  0  0  0  0  0
   -0.4820   -0.1344   -1.4457 C   0  0  0  0  0  0  0  0  0  0  0  0
   -0.7620   -1.4485   -0.7577 C   0  0  0  0  0  0  0  0  0  0  0  0
   -0.8911   -0.1939   -0.0277 C   0  0  0  0  0  0  0  0  0  0  0  0
   -2.2753    0.2003    0.4111 C   0  0  0  0  0  0  0  0  0  0  0  0
    0.2062    0.5365    0.6492 C   0  0  0  0  0  0  0  0  0  0  0  0
   -0.1849    1.8932    0.7264 O   0  0  0  0  0  0  0  0  0  0  0  0
    3.1685   -0.6127   -0.5924 H   0  0  0  0  0  0  0  0  0  0  0  0
    2.0333   -1.4386    0.5403 H   0  0  0  0  0  0  0  0  0  0  0  0
    2.8585    0.0240    1.1070 H   0  0  0  0  0  0  0  0  0  0  0  0
    1.8592    1.4660   -0.3845 H   0  0  0  0  0  0  0  0  0  0  0  0
   -1.2182    0.2969   -2.1445 H   0  0  0  0  0  0  0  0  0  0  0  0
    0.0627   -2.1714   -0.6229 H   0  0  0  0  0  0  0  0  0  0  0  0
   -1.6945   -1.9320   -1.1055 H   0  0  0  0  0  0  0  0  0  0  0  0
   -2.5914   -0.5483    1.1813 H   0  0  0  0  0  0  0  0  0  0  0  0
   -2.9796    0.0885   -0.4388 H   0  0  0  0  0  0  0  0  0  0  0  0
   -2.3111    1.2004    0.8787 H   0  0  0  0  0  0  0  0  0  0  0  0
    0.4277    0.2294    1.6752 H   0  0  0  0  0  0  0  0  0  0  0  0
    0.1556    2.4047   -0.0465 H   0  0  0  0  0  0  0  0  0  0  0  0
  1  2  1  0
  2  3  1  0
  3  4  1  0
  4  5  1  0
  5  6  1  0
  6  7  1  0
  6  8  1  0
  8  9  1  0
  8  2  1  0
  6  4  1  0
  1 10  1  0
  1 11  1  0
  1 12  1  0
  2 13  1  0
  4 14  1  0
  5 15  1  0
  5 16  1  0
  7 17  1  0
  7 18  1  0
  7 19  1  0
  8 20  1  0
  9 21  1  0
M  END
