
     RDKit          3D

 21 22  0  0  0  0  0  0  0  0999 V2000
    1.7170    0.3495    0.7707 C   0  0  0  0  0  0  0  0  0  0  0  0
    1.1524   -0.3773   -0.3838 C   0  0  0  0  0  0  0  0  0  0  0  0
    1.0848    0.4645   -1.5030 O   0  0  0  0  0  0  0  0  0  0  0  0
   -0.0301    1.2709   -1.1726 C   0  0  0  0  0  0  0  0  0  0  0  0
   -1.0688    0.3025   -0.7085 C   0  0  0  0  0  0  0  0  0  0  0  0
   -1.5908    0.4754    0.6819 C   0  0  0  0  0  0  0  0  0  0  0  0
   -0.8967   -0.7851    1.0805 C   0  0  0  0  0  0  0  0  0  0  0  0
   -0.2312   -0.8752   -0.2485 C   0  0  0  0  0  0  0  0  0  0  0  0
   -0.4255   -2.0490   -0.9668 O   0  0  0  0  0  0  0  0  0  0  0  0
    2.5862    0.9748    0.4081 H   0  0  0  0  0  0  0  0  0  0  0  0
    1.0515    1.0384    1.2911 H   0  0  0  0  0  0  0  0  0  0  0  0
    2.1536   -0.3243    1.5504 H   0  0  0  0  0  0  0  0  0  0  0  0
    1.8317   -1.2369   -0.6245 H   0  0  0  0  0  0  0  0  0  0  0  0
   -0.3438    1.8156   -2.0986 H   0  0  0  0  0  0  0  0  0  0  0  0
    0.3296    1.9633   -0.3958 H   0  0  0  0  0  0  0  0  0  0  0  0
   -1.8145    0.0328   -1.4830 H   0  0  0  0  0  0  0  0  0  0  0  0
   -2.7189    0.4114    0.6599 H   0  0  0  0  0  0  0  0  0  0  0  0
   -1.3198    1.3971    1.2144 H   0  0  0  0  0  0  0  0  0  0  0  0
   -0.2451   -0.7618    1.9541 H   0  0  0  0  0  0  0  0  0  0  0  0
   -1.6580   -1.6130    1.1846 H   0  0  0  0  0  0  0  0  0  0  0  0
    0.4364   -2.4734   -1.2106 H   0  0  0  0  0  0  0  0  0  0  0  0
  1  2  1  0
  2  3  1  0
  3  4  1  0
  4  5  1  0
  5  6  1  0
  6  7  1  0
  7  8  1  0
  8  9  1  0
  8  2  1  0
  8  5  1  0
  1 10  1  0
  1 11  1  0
  1 12  1  0
  2 13  1  0
  4 14  1  0
  4 15  1  0
  5 16  1  0
  6 17  1  0
  6 18  1  0
  7 19  1  0
  7 20  1  0
  9 21  1  0
M  END
