
     RDKit          3D

 19 20  0  0  0  0  0  0  0  0999 V2000
    3.0358    0.4144   -0.3199 C   0  0  0  0  0  0  0  0  0  0  0  0
    1.8383   -0.3494    0.1181 C   0  0  0  0  0  0  0  0  0  0  0  0
    1.4548   -1.5213   -0.4733 O   0  0  0  0  0  0  0  0  0  0  0  0
    0.7468   -0.4519   -0.9467 C   0  0  0  0  0  0  0  0  0  0  0  0
   -0.6108   -0.1073   -0.4872 C   0  0  0  0  0  0  0  0  0  0  0  0
   -0.6782    0.1624    0.8994 O   0  0  0  0  0  0  0  0  0  0  0  0
   -2.0534    0.4638    1.0103 C   0  0  0  0  0  0  0  0  0  0  0  0
   -2.6490   -0.5591    0.0721 C   0  0  0  0  0  0  0  0  0  0  0  0
   -1.5660   -1.0762   -0.6378 O   0  0  0  0  0  0  0  0  0  0  0  0
    3.7024    0.5913    0.5625 H   0  0  0  0  0  0  0  0  0  0  0  0
    2.6985    1.4458   -0.6218 H   0  0  0  0  0  0  0  0  0  0  0  0
    3.5686    0.0059   -1.1810 H   0  0  0  0  0  0  0  0  0  0  0  0
    1.5147   -0.2214    1.1624 H   0  0  0  0  0  0  0  0  0  0  0  0
    0.9985   -0.1488   -1.9822 H   0  0  0  0  0  0  0  0  0  0  0  0
   -0.9348    0.8342   -0.9799 H   0  0  0  0  0  0  0  0  0  0  0  0
   -2.1569    1.5036    0.6186 H   0  0  0  0  0  0  0  0  0  0  0  0
   -2.3999    0.3764    2.0420 H   0  0  0  0  0  0  0  0  0  0  0  0
   -3.3015   -0.0173   -0.6246 H   0  0  0  0  0  0  0  0  0  0  0  0
   -3.2078   -1.3451    0.6155 H   0  0  0  0  0  0  0  0  0  0  0  0
  1  2  1  0
  2  3  1  0
  3  4  1  0
  4  5  1  0
  5  6  1  0
  6  7  1  0
  7  8  1  0
  8  9  1  0
  4  2  1  0
  9  5  1  0
  1 10  1  0
  1 11  1  0
  1 12  1  0
  2 13  1  0
  4 14  1  0
  5 15  1  0
  7 16  1  0
  7 17  1  0
  8 18  1  0
  8 19  1  0
M  END
