
     RDKit          3D

 21 21  0  0  0  0  0  0  0  0999 V2000
    1.8144    0.3943   -0.8803 C   0  0  0  0  0  0  0  0  0  0  0  0
    0.6639    0.9025   -0.0393 C   0  0  0  0  0  0  0  0  0  0  0  0
    1.1181    0.8553    1.3031 O   0  0  0  0  0  0  0  0  0  0  0  0
    1.0055   -0.4670    1.7047 C   0  0  0  0  0  0  0  0  0  0  0  0
    1.7986   -1.1561    2.4324 O   0  0  0  0  0  0  0  0  0  0  0  0
   -0.2631   -0.9584    1.1074 C   0  0  0  0  0  0  0  0  0  0  0  0
   -0.5165    0.0094   -0.0230 C   0  0  0  0  0  0  0  0  0  0  0  0
   -1.7490    0.8773    0.2702 C   0  0  0  0  0  0  0  0  0  0  0  0
   -0.7613   -0.7651   -1.2680 C   0  0  0  0  0  0  0  0  0  0  0  0
    1.5444    0.3827   -1.9355 H   0  0  0  0  0  0  0  0  0  0  0  0
    2.1411   -0.5761   -0.4728 H   0  0  0  0  0  0  0  0  0  0  0  0
    2.6491    1.1337   -0.7294 H   0  0  0  0  0  0  0  0  0  0  0  0
    0.4528    1.9529   -0.3181 H   0  0  0  0  0  0  0  0  0  0  0  0
   -1.0631   -0.8118    1.8619 H   0  0  0  0  0  0  0  0  0  0  0  0
   -0.1903   -2.0097    0.7665 H   0  0  0  0  0  0  0  0  0  0  0  0
   -1.7440    1.6784   -0.5057 H   0  0  0  0  0  0  0  0  0  0  0  0
   -1.6153    1.3199    1.2774 H   0  0  0  0  0  0  0  0  0  0  0  0
   -2.6676    0.2930    0.1626 H   0  0  0  0  0  0  0  0  0  0  0  0
   -0.3480   -0.3390   -2.1836 H   0  0  0  0  0  0  0  0  0  0  0  0
   -1.8782   -0.8920   -1.3785 H   0  0  0  0  0  0  0  0  0  0  0  0
   -0.3915   -1.8242   -1.1520 H   0  0  0  0  0  0  0  0  0  0  0  0
  1  2  1  0
  2  3  1  0
  3  4  1  0
  4  5  2  0
  4  6  1  0
  6  7  1  0
  7  8  1  0
  7  9  1  0
  7  2  1  0
  1 10  1  0
  1 11  1  0
  1 12  1  0
  2 13  1  0
  6 14  1  0
  6 15  1  0
  8 16  1  0
  8 17  1  0
  8 18  1  0
  9 19  1  0
  9 20  1  0
  9 21  1  0
M  END
