
     RDKit          3D

 23 23  0  0  0  0  0  0  0  0999 V2000
   -0.6269    2.1382   -0.8584 C   0  0  0  0  0  0  0  0  0  0  0  0
   -0.5500    1.2639    0.3541 C   0  0  0  0  0  0  0  0  0  0  0  0
    0.7768    1.1254    0.7949 O   0  0  0  0  0  0  0  0  0  0  0  0
    0.8782    0.0257   -0.0452 C   0  0  0  0  0  0  0  0  0  0  0  0
    1.8357   -1.0245    0.3817 C   0  0  0  0  0  0  0  0  0  0  0  0
    3.1132   -0.4317    0.4549 O   0  0  0  0  0  0  0  0  0  0  0  0
   -0.5717   -0.2228    0.0991 C   0  0  0  0  0  0  0  0  0  0  0  0
   -1.2048   -0.6543   -1.1940 C   0  0  0  0  0  0  0  0  0  0  0  0
   -1.0562   -1.0261    1.2443 C   0  0  0  0  0  0  0  0  0  0  0  0
   -0.8524    3.1808   -0.4886 H   0  0  0  0  0  0  0  0  0  0  0  0
    0.3530    2.2195   -1.3757 H   0  0  0  0  0  0  0  0  0  0  0  0
   -1.4567    1.8702   -1.5347 H   0  0  0  0  0  0  0  0  0  0  0  0
   -1.2532    1.5767    1.1675 H   0  0  0  0  0  0  0  0  0  0  0  0
    1.1130    0.3427   -1.1040 H   0  0  0  0  0  0  0  0  0  0  0  0
    1.6351   -1.4872    1.3422 H   0  0  0  0  0  0  0  0  0  0  0  0
    1.9073   -1.7912   -0.4174 H   0  0  0  0  0  0  0  0  0  0  0  0
    3.6790   -0.9063    1.0999 H   0  0  0  0  0  0  0  0  0  0  0  0
   -1.1783   -1.7664   -1.2048 H   0  0  0  0  0  0  0  0  0  0  0  0
   -2.2614   -0.3653   -1.2717 H   0  0  0  0  0  0  0  0  0  0  0  0
   -0.6094   -0.3405   -2.0908 H   0  0  0  0  0  0  0  0  0  0  0  0
   -2.0388   -1.5244    1.0093 H   0  0  0  0  0  0  0  0  0  0  0  0
   -1.2644   -0.3641    2.1340 H   0  0  0  0  0  0  0  0  0  0  0  0
   -0.3670   -1.8381    1.5036 H   0  0  0  0  0  0  0  0  0  0  0  0
  1  2  1  0
  2  3  1  0
  3  4  1  0
  4  5  1  0
  5  6  1  0
  4  7  1  0
  7  8  1  0
  7  9  1  0
  7  2  1  0
  1 10  1  0
  1 11  1  0
  1 12  1  0
  2 13  1  0
  4 14  1  0
  5 15  1  0
  5 16  1  0
  6 17  1  0
  8 18  1  0
  8 19  1  0
  8 20  1  0
  9 21  1  0
  9 22  1  0
  9 23  1  0
M  END
