
     RDKit          3D

 20 20  0  0  0  0  0  0  0  0999 V2000
   -0.0598    2.1109    0.3390 C   0  0  0  0  0  0  0  0  0  0  0  0
   -0.6929    0.7557    0.2406 C   0  0  0  0  0  0  0  0  0  0  0  0
   -0.8042    0.3225   -1.0937 O   0  0  0  0  0  0  0  0  0  0  0  0
   -1.2844   -0.9733   -0.9295 C   0  0  0  0  0  0  0  0  0  0  0  0
   -0.5584   -1.5607    0.2575 C   0  0  0  0  0  0  0  0  0  0  0  0
    0.1516   -0.3444    0.8175 C   0  0  0  0  0  0  0  0  0  0  0  0
    1.5493   -0.3525    0.1833 C   0  0  0  0  0  0  0  0  0  0  0  0
    1.4081   -0.5522   -1.1960 O   0  0  0  0  0  0  0  0  0  0  0  0
   -0.8776    2.8501    0.4713 H   0  0  0  0  0  0  0  0  0  0  0  0
    0.6594    2.2182    1.1609 H   0  0  0  0  0  0  0  0  0  0  0  0
    0.4519    2.4059   -0.6209 H   0  0  0  0  0  0  0  0  0  0  0  0
   -1.6819    0.7039    0.6894 H   0  0  0  0  0  0  0  0  0  0  0  0
   -2.3522   -0.8866   -0.6633 H   0  0  0  0  0  0  0  0  0  0  0  0
   -1.1087   -1.5849   -1.8277 H   0  0  0  0  0  0  0  0  0  0  0  0
    0.1601   -2.3355   -0.0863 H   0  0  0  0  0  0  0  0  0  0  0  0
   -1.2258   -2.0279    0.9916 H   0  0  0  0  0  0  0  0  0  0  0  0
    0.2091   -0.3409    1.9054 H   0  0  0  0  0  0  0  0  0  0  0  0
    2.1282   -1.2184    0.5638 H   0  0  0  0  0  0  0  0  0  0  0  0
    2.1093    0.5676    0.4248 H   0  0  0  0  0  0  0  0  0  0  0  0
    1.8190    0.2425   -1.6276 H   0  0  0  0  0  0  0  0  0  0  0  0
  1  2  1  0
  2  3  1  0
  3  4  1  0
  4  5  1  0
  5  6  1  0
  6  7  1  0
  7  8  1  0
  6  2  1  0
  1  9  1  0
  1 10  1  0
  1 11  1  0
  2 12  1  0
  4 13  1  0
  4 14  1  0
  5 15  1  0
  5 16  1  0
  6 17  1  0
  7 18  1  0
  7 19  1  0
  8 20  1  0
M  END
