
     RDKit          3D

 19 21  0  0  0  0  0  0  0  0999 V2000
    2.3061    0.6380    0.5216 C   0  0  0  0  0  0  0  0  0  0  0  0
    1.3558    0.2361   -0.5737 C   0  0  0  0  0  0  0  0  0  0  0  0
    1.3792   -1.2691   -0.6811 O   0  0  0  0  0  0  0  0  0  0  0  0
    0.2962   -0.5225   -0.3908 C   0  0  0  0  0  0  0  0  0  0  0  0
   -0.9699   -0.7535   -1.2298 C   0  0  0  0  0  0  0  0  0  0  0  0
   -1.5091    0.1770   -0.1543 C   0  0  0  0  0  0  0  0  0  0  0  0
   -0.8508    1.4264   -0.3614 O   0  0  0  0  0  0  0  0  0  0  0  0
   -1.7607   -0.0965    1.2104 C   0  0  0  0  0  0  0  0  0  0  0  0
   -0.6542   -0.8469    0.7122 C   0  0  0  0  0  0  0  0  0  0  0  0
    2.8382    1.6025    0.2727 H   0  0  0  0  0  0  0  0  0  0  0  0
    1.8177    0.7275    1.5108 H   0  0  0  0  0  0  0  0  0  0  0  0
    3.1434   -0.1002    0.6563 H   0  0  0  0  0  0  0  0  0  0  0  0
    1.6405    0.7005   -1.5637 H   0  0  0  0  0  0  0  0  0  0  0  0
   -1.2626   -1.8067   -1.1268 H   0  0  0  0  0  0  0  0  0  0  0  0
   -0.9588   -0.3135   -2.2201 H   0  0  0  0  0  0  0  0  0  0  0  0
   -1.5756    2.0405   -0.6195 H   0  0  0  0  0  0  0  0  0  0  0  0
   -1.5187    0.6472    2.0300 H   0  0  0  0  0  0  0  0  0  0  0  0
   -2.7704   -0.5492    1.4603 H   0  0  0  0  0  0  0  0  0  0  0  0
   -0.9466   -1.9376    0.5469 H   0  0  0  0  0  0  0  0  0  0  0  0
  1  2  1  0
  2  3  1  0
  3  4  1  0
  4  5  1  0
  5  6  1  0
  6  7  1  0
  6  8  1  0
  8  9  1  0
  4  2  1  0
  9  6  1  0
  9  4  1  0
  1 10  1  0
  1 11  1  0
  1 12  1  0
  2 13  1  0
  5 14  1  0
  5 15  1  0
  7 16  1  0
  8 17  1  0
  8 18  1  0
  9 19  1  0
M  END
