
     RDKit          3D

 20 21  0  0  0  0  0  0  0  0999 V2000
    2.7141   -0.5891    0.0787 C   0  0  0  0  0  0  0  0  0  0  0  0
    1.4286   -0.3920    0.7913 C   0  0  0  0  0  0  0  0  0  0  0  0
    0.9705    0.8780    0.9835 O   0  0  0  0  0  0  0  0  0  0  0  0
   -0.2958    0.7255    0.4969 C   0  0  0  0  0  0  0  0  0  0  0  0
   -0.7930    1.7879   -0.4327 C   0  0  0  0  0  0  0  0  0  0  0  0
   -1.0629   -0.5281    0.5442 C   0  0  0  0  0  0  0  0  0  0  0  0
   -2.2837   -0.6300   -0.3384 C   0  0  0  0  0  0  0  0  0  0  0  0
    0.2354   -0.5937   -0.1482 C   0  0  0  0  0  0  0  0  0  0  0  0
    2.8109   -1.6937   -0.1394 H   0  0  0  0  0  0  0  0  0  0  0  0
    3.5500   -0.3741    0.7837 H   0  0  0  0  0  0  0  0  0  0  0  0
    2.8043   -0.0850   -0.8820 H   0  0  0  0  0  0  0  0  0  0  0  0
    1.3747   -1.0457    1.6926 H   0  0  0  0  0  0  0  0  0  0  0  0
   -1.7065    2.2406    0.0554 H   0  0  0  0  0  0  0  0  0  0  0  0
   -1.0741    1.3938   -1.4437 H   0  0  0  0  0  0  0  0  0  0  0  0
   -0.0925    2.6366   -0.5595 H   0  0  0  0  0  0  0  0  0  0  0  0
   -1.1217   -1.1500    1.4829 H   0  0  0  0  0  0  0  0  0  0  0  0
   -3.0670   -1.2778    0.1055 H   0  0  0  0  0  0  0  0  0  0  0  0
   -2.7472    0.3528   -0.5356 H   0  0  0  0  0  0  0  0  0  0  0  0
   -2.0176   -1.1323   -1.3149 H   0  0  0  0  0  0  0  0  0  0  0  0
    0.3734   -0.5234   -1.2202 H   0  0  0  0  0  0  0  0  0  0  0  0
  1  2  1  0
  2  3  1  0
  3  4  1  0
  4  5  1  0
  4  6  1  0
  6  7  1  0
  6  8  1  0
  8  2  1  0
  8  4  1  0
  1  9  1  0
  1 10  1  0
  1 11  1  0
  2 12  1  0
  5 13  1  0
  5 14  1  0
  5 15  1  0
  6 16  1  0
  7 17  1  0
  7 18  1  0
  7 19  1  0
  8 20  1  0
M  END
