
     RDKit          3D

 17 18  0  0  0  0  0  0  0  0999 V2000
   -1.9667   -0.6189   -0.2692 C   0  0  0  0  0  0  0  0  0  0  0  0
   -1.1011    0.5971   -0.2912 C   0  0  0  0  0  0  0  0  0  0  0  0
   -0.0503    0.5428   -1.1714 O   0  0  0  0  0  0  0  0  0  0  0  0
    0.9983   -0.2564   -0.8191 C   0  0  0  0  0  0  0  0  0  0  0  0
    2.2301    0.2995   -0.1618 C   0  0  0  0  0  0  0  0  0  0  0  0
    1.1947   -0.6138    0.5571 C   0  0  0  0  0  0  0  0  0  0  0  0
    0.3910    0.0152    1.5232 O   0  0  0  0  0  0  0  0  0  0  0  0
   -0.5574    0.9166    1.0559 C   0  0  0  0  0  0  0  0  0  0  0  0
   -0.9355    1.9278    1.7111 O   0  0  0  0  0  0  0  0  0  0  0  0
   -2.3254   -0.7549    0.7868 H   0  0  0  0  0  0  0  0  0  0  0  0
   -2.9112   -0.4821   -0.8680 H   0  0  0  0  0  0  0  0  0  0  0  0
   -1.4437   -1.5504   -0.5455 H   0  0  0  0  0  0  0  0  0  0  0  0
   -1.7470    1.4635   -0.5921 H   0  0  0  0  0  0  0  0  0  0  0  0
    1.2378   -1.0441   -1.5937 H   0  0  0  0  0  0  0  0  0  0  0  0
    3.2102   -0.1737   -0.3327 H   0  0  0  0  0  0  0  0  0  0  0  0
    2.2048    1.3625    0.1675 H   0  0  0  0  0  0  0  0  0  0  0  0
    1.5715   -1.6307    0.8430 H   0  0  0  0  0  0  0  0  0  0  0  0
  1  2  1  0
  2  3  1  0
  3  4  1  0
  4  5  1  0
  5  6  1  0
  6  7  1  0
  7  8  1  0
  8  9  2  0
  8  2  1  0
  6  4  1  0
  1 10  1  0
  1 11  1  0
  1 12  1  0
  2 13  1  0
  4 14  1  0
  5 15  1  0
  5 16  1  0
  6 17  1  0
M  END
