
     RDKit          3D

 21 22  0  0  0  0  0  0  0  0999 V2000
    2.1473   -0.8019    0.3090 C   0  0  0  0  0  0  0  0  0  0  0  0
    1.3569    0.3520   -0.1453 C   0  0  0  0  0  0  0  0  0  0  0  0
    1.3847    1.4391    0.7638 O   0  0  0  0  0  0  0  0  0  0  0  0
    0.1814    1.8519    0.1640 C   0  0  0  0  0  0  0  0  0  0  0  0
   -0.0825    0.3891   -0.1072 C   0  0  0  0  0  0  0  0  0  0  0  0
   -0.9032    0.0684   -1.2957 C   0  0  0  0  0  0  0  0  0  0  0  0
   -1.9679   -0.4577   -0.3223 C   0  0  0  0  0  0  0  0  0  0  0  0
   -0.9287   -0.3451    0.8035 C   0  0  0  0  0  0  0  0  0  0  0  0
   -0.6037   -1.5892    1.2533 O   0  0  0  0  0  0  0  0  0  0  0  0
    1.6102   -1.7256    0.5171 H   0  0  0  0  0  0  0  0  0  0  0  0
    2.7129   -0.5511    1.2546 H   0  0  0  0  0  0  0  0  0  0  0  0
    2.9675   -1.0778   -0.4190 H   0  0  0  0  0  0  0  0  0  0  0  0
    1.7658    0.7531   -1.1205 H   0  0  0  0  0  0  0  0  0  0  0  0
   -0.5646    2.2740    0.8316 H   0  0  0  0  0  0  0  0  0  0  0  0
    0.3995    2.3733   -0.7762 H   0  0  0  0  0  0  0  0  0  0  0  0
   -1.2552    1.0110   -1.7942 H   0  0  0  0  0  0  0  0  0  0  0  0
   -0.5447   -0.7192   -1.9753 H   0  0  0  0  0  0  0  0  0  0  0  0
   -2.2919   -1.4761   -0.5453 H   0  0  0  0  0  0  0  0  0  0  0  0
   -2.8015    0.2362   -0.1500 H   0  0  0  0  0  0  0  0  0  0  0  0
   -1.2978    0.2869    1.6593 H   0  0  0  0  0  0  0  0  0  0  0  0
   -1.2844   -2.2912    1.0948 H   0  0  0  0  0  0  0  0  0  0  0  0
  1  2  1  0
  2  3  1  0
  3  4  1  0
  4  5  1  0
  5  6  1  0
  6  7  1  0
  7  8  1  0
  8  9  1  0
  5  2  1  0
  8  5  1  0
  1 10  1  0
  1 11  1  0
  1 12  1  0
  2 13  1  0
  4 14  1  0
  4 15  1  0
  6 16  1  0
  6 17  1  0
  7 18  1  0
  7 19  1  0
  8 20  1  0
  9 21  1  0
M  END
