
     RDKit          3D

 17 17  0  0  0  0  0  0  0  0999 V2000
   -1.1211   -1.0509   -0.2472 C   0  0  0  0  0  0  0  0  0  0  0  0
   -0.5753   -0.1919    0.8644 C   0  0  0  0  0  0  0  0  0  0  0  0
   -1.5522    0.8416    1.0737 O   0  0  0  0  0  0  0  0  0  0  0  0
   -1.2559    1.8279    0.1389 C   0  0  0  0  0  0  0  0  0  0  0  0
   -2.0855    2.5738   -0.4867 O   0  0  0  0  0  0  0  0  0  0  0  0
    0.1329    1.8319    0.0283 O   0  0  0  0  0  0  0  0  0  0  0  0
    0.6276    0.5977    0.5134 C   0  0  0  0  0  0  0  0  0  0  0  0
    1.5189   -0.0082   -0.5241 C   0  0  0  0  0  0  0  0  0  0  0  0
    2.0474   -1.2318   -0.1179 O   0  0  0  0  0  0  0  0  0  0  0  0
   -1.7254   -1.8447    0.2422 H   0  0  0  0  0  0  0  0  0  0  0  0
   -1.8425   -0.4703   -0.8850 H   0  0  0  0  0  0  0  0  0  0  0  0
   -0.3512   -1.5562   -0.8325 H   0  0  0  0  0  0  0  0  0  0  0  0
   -0.5023   -0.7414    1.8252 H   0  0  0  0  0  0  0  0  0  0  0  0
    1.2397    0.7328    1.4367 H   0  0  0  0  0  0  0  0  0  0  0  0
    2.3853    0.6746   -0.6584 H   0  0  0  0  0  0  0  0  0  0  0  0
    1.0366   -0.0741   -1.5247 H   0  0  0  0  0  0  0  0  0  0  0  0
    2.0228   -1.9108   -0.8464 H   0  0  0  0  0  0  0  0  0  0  0  0
  1  2  1  0
  2  3  1  0
  3  4  1  0
  4  5  2  0
  4  6  1  0
  6  7  1  0
  7  8  1  0
  8  9  1  0
  7  2  1  0
  1 10  1  0
  1 11  1  0
  1 12  1  0
  2 13  1  0
  7 14  1  0
  8 15  1  0
  8 16  1  0
  9 17  1  0
M  END
