
     RDKit          3D

 19 21  0  0  0  0  0  0  0  0999 V2000
    3.0013    0.3759   -0.5295 C   0  0  0  0  0  0  0  0  0  0  0  0
    1.6071    0.5032    0.0461 C   0  0  0  0  0  0  0  0  0  0  0  0
    1.4903    0.0105    1.3620 O   0  0  0  0  0  0  0  0  0  0  0  0
    0.8475   -0.7057    0.2273 C   0  0  0  0  0  0  0  0  0  0  0  0
   -0.6273   -0.7443    0.5051 C   0  0  0  0  0  0  0  0  0  0  0  0
   -1.3767   -1.4046   -0.5042 O   0  0  0  0  0  0  0  0  0  0  0  0
   -2.4173   -0.6855    0.0932 C   0  0  0  0  0  0  0  0  0  0  0  0
   -2.7932    0.6649   -0.0905 C   0  0  0  0  0  0  0  0  0  0  0  0
   -1.3545    0.4735   -0.0900 C   0  0  0  0  0  0  0  0  0  0  0  0
    2.9373   -0.4084   -1.3232 H   0  0  0  0  0  0  0  0  0  0  0  0
    3.3469    1.2969   -1.0190 H   0  0  0  0  0  0  0  0  0  0  0  0
    3.7503    0.1092    0.2486 H   0  0  0  0  0  0  0  0  0  0  0  0
    1.1391    1.4843   -0.1594 H   0  0  0  0  0  0  0  0  0  0  0  0
    1.3354   -1.6825    0.1307 H   0  0  0  0  0  0  0  0  0  0  0  0
   -0.8699   -0.9938    1.5282 H   0  0  0  0  0  0  0  0  0  0  0  0
   -2.4973   -1.0622    1.1622 H   0  0  0  0  0  0  0  0  0  0  0  0
   -3.1865    1.2764    0.7712 H   0  0  0  0  0  0  0  0  0  0  0  0
   -3.3888    0.9262   -1.0163 H   0  0  0  0  0  0  0  0  0  0  0  0
   -0.9437    0.5660   -1.1456 H   0  0  0  0  0  0  0  0  0  0  0  0
  1  2  1  0
  2  3  1  0
  3  4  1  0
  4  5  1  0
  5  6  1  0
  6  7  1  0
  7  8  1  0
  8  9  1  0
  4  2  1  0
  9  5  1  0
  9  7  1  0
  1 10  1  0
  1 11  1  0
  1 12  1  0
  2 13  1  0
  4 14  1  0
  5 15  1  0
  7 16  1  0
  8 17  1  0
  8 18  1  0
  9 19  1  0
M  END
