
     RDKit          3D

 23 24  0  0  0  0  0  0  0  0999 V2000
   -2.4914   -0.2499    0.0760 C   0  0  0  0  0  0  0  0  0  0  0  0
   -1.0059   -0.4282    0.2233 C   0  0  0  0  0  0  0  0  0  0  0  0
   -0.6529   -1.6111   -0.4406 O   0  0  0  0  0  0  0  0  0  0  0  0
    0.6382   -1.9991   -0.1976 C   0  0  0  0  0  0  0  0  0  0  0  0
    1.6466   -0.9280   -0.1221 C   0  0  0  0  0  0  0  0  0  0  0  0
    1.1982    0.4552   -0.3029 C   0  0  0  0  0  0  0  0  0  0  0  0
    1.0609    1.2937    0.9750 C   0  0  0  0  0  0  0  0  0  0  0  0
   -0.1145    1.9613    0.2439 C   0  0  0  0  0  0  0  0  0  0  0  0
   -0.2663    0.6659   -0.4955 C   0  0  0  0  0  0  0  0  0  0  0  0
   -2.9033   -0.8315   -0.7852 H   0  0  0  0  0  0  0  0  0  0  0  0
   -3.0403   -0.5795    0.9835 H   0  0  0  0  0  0  0  0  0  0  0  0
   -2.7382    0.8089   -0.1274 H   0  0  0  0  0  0  0  0  0  0  0  0
   -0.7137   -0.5509    1.2742 H   0  0  0  0  0  0  0  0  0  0  0  0
    0.6075   -2.6309    0.7397 H   0  0  0  0  0  0  0  0  0  0  0  0
    0.9099   -2.7445   -1.0023 H   0  0  0  0  0  0  0  0  0  0  0  0
    2.1654   -1.0072    0.8792 H   0  0  0  0  0  0  0  0  0  0  0  0
    2.4793   -1.1323   -0.8599 H   0  0  0  0  0  0  0  0  0  0  0  0
    1.7656    1.0707   -1.0587 H   0  0  0  0  0  0  0  0  0  0  0  0
    0.7655    0.7246    1.8641 H   0  0  0  0  0  0  0  0  0  0  0  0
    1.8526    2.0160    1.1441 H   0  0  0  0  0  0  0  0  0  0  0  0
   -0.8998    2.2460    0.9297 H   0  0  0  0  0  0  0  0  0  0  0  0
    0.2823    2.7407   -0.4420 H   0  0  0  0  0  0  0  0  0  0  0  0
   -0.5457    0.7102   -1.5433 H   0  0  0  0  0  0  0  0  0  0  0  0
  1  2  1  0
  2  3  1  0
  3  4  1  0
  4  5  1  0
  5  6  1  0
  6  7  1  0
  7  8  1  0
  8  9  1  0
  9  2  1  0
  9  6  1  0
  1 10  1  0
  1 11  1  0
  1 12  1  0
  2 13  1  0
  4 14  1  0
  4 15  1  0
  5 16  1  0
  5 17  1  0
  6 18  1  0
  7 19  1  0
  7 20  1  0
  8 21  1  0
  8 22  1  0
  9 23  1  0
M  END
