
     RDKit          3D

 20 21  0  0  0  0  0  0  0  0999 V2000
   -2.3789   -0.2275    0.7534 C   0  0  0  0  0  0  0  0  0  0  0  0
   -1.3188   -0.3658   -0.2747 C   0  0  0  0  0  0  0  0  0  0  0  0
   -1.5551    0.1961   -1.5175 O   0  0  0  0  0  0  0  0  0  0  0  0
   -0.1623    0.4583   -1.5554 C   0  0  0  0  0  0  0  0  0  0  0  0
   -0.2446    0.7163   -0.0920 C   0  0  0  0  0  0  0  0  0  0  0  0
    0.8945    0.2344    0.7537 C   0  0  0  0  0  0  0  0  0  0  0  0
    1.7253   -0.9130    0.3968 C   0  0  0  0  0  0  0  0  0  0  0  0
    2.2679    0.4224    0.0767 C   0  0  0  0  0  0  0  0  0  0  0  0
   -1.9352   -0.4841    1.7453 H   0  0  0  0  0  0  0  0  0  0  0  0
   -2.7666    0.8058    0.8593 H   0  0  0  0  0  0  0  0  0  0  0  0
   -3.1625   -0.9741    0.5645 H   0  0  0  0  0  0  0  0  0  0  0  0
   -0.9332   -1.3774   -0.3449 H   0  0  0  0  0  0  0  0  0  0  0  0
    0.3401   -0.5275   -1.7559 H   0  0  0  0  0  0  0  0  0  0  0  0
    0.1297    1.2828   -2.2111 H   0  0  0  0  0  0  0  0  0  0  0  0
   -0.6731    1.6696    0.2081 H   0  0  0  0  0  0  0  0  0  0  0  0
    0.8194    0.5529    1.8199 H   0  0  0  0  0  0  0  0  0  0  0  0
    1.4213   -1.6140   -0.4096 H   0  0  0  0  0  0  0  0  0  0  0  0
    2.2152   -1.4517    1.2439 H   0  0  0  0  0  0  0  0  0  0  0  0
    3.0231    0.8957    0.7179 H   0  0  0  0  0  0  0  0  0  0  0  0
    2.2938    0.7008   -0.9783 H   0  0  0  0  0  0  0  0  0  0  0  0
  1  2  1  0
  2  3  1  0
  3  4  1  0
  4  5  1  0
  5  6  1  0
  6  7  1  0
  7  8  1  0
  5  2  1  0
  8  6  1  0
  1  9  1  0
  1 10  1  0
  1 11  1  0
  2 12  1  0
  4 13  1  0
  4 14  1  0
  5 15  1  0
  6 16  1  0
  7 17  1  0
  7 18  1  0
  8 19  1  0
  8 20  1  0
M  END
