
     RDKit          3D

 17 18  0  0  0  0  0  0  0  0999 V2000
    2.2669   -0.0502   -0.0658 C   0  0  0  0  0  0  0  0  0  0  0  0
    0.8506    0.3927   -0.3231 C   0  0  0  0  0  0  0  0  0  0  0  0
    0.4072    1.4009    0.5273 O   0  0  0  0  0  0  0  0  0  0  0  0
   -0.9659    1.4481    0.4820 C   0  0  0  0  0  0  0  0  0  0  0  0
   -1.6847    2.4253    0.7290 O   0  0  0  0  0  0  0  0  0  0  0  0
   -1.4370    0.1100    0.0817 C   0  0  0  0  0  0  0  0  0  0  0  0
   -2.4784   -0.0389   -0.8000 O   0  0  0  0  0  0  0  0  0  0  0  0
   -0.9608   -0.9981    0.9454 C   0  0  0  0  0  0  0  0  0  0  0  0
   -0.1566   -0.6865   -0.2361 C   0  0  0  0  0  0  0  0  0  0  0  0
    2.8394    0.8504    0.2485 H   0  0  0  0  0  0  0  0  0  0  0  0
    2.3609   -0.8728    0.6443 H   0  0  0  0  0  0  0  0  0  0  0  0
    2.7307   -0.3700   -1.0317 H   0  0  0  0  0  0  0  0  0  0  0  0
    0.8459    0.8217   -1.3667 H   0  0  0  0  0  0  0  0  0  0  0  0
   -2.2323   -0.3875   -1.6776 H   0  0  0  0  0  0  0  0  0  0  0  0
   -1.5644   -1.9010    0.9512 H   0  0  0  0  0  0  0  0  0  0  0  0
   -0.5847   -0.7328    1.9784 H   0  0  0  0  0  0  0  0  0  0  0  0
   -0.2369   -1.4114   -1.0868 H   0  0  0  0  0  0  0  0  0  0  0  0
  1  2  1  0
  2  3  1  0
  3  4  1  0
  4  5  2  0
  4  6  1  0
  6  7  1  0
  6  8  1  0
  8  9  1  0
  9  2  1  0
  9  6  1  0
  1 10  1  0
  1 11  1  0
  1 12  1  0
  2 13  1  0
  7 14  1  0
  8 15  1  0
  8 16  1  0
  9 17  1  0
M  END
