
     RDKit          3D

 21 22  0  0  0  0  0  0  0  0999 V2000
    1.9053   -0.4058    0.6015 C   0  0  0  0  0  0  0  0  0  0  0  0
    1.4377    0.1208   -0.7077 C   0  0  0  0  0  0  0  0  0  0  0  0
    1.1203    1.4988   -0.6525 O   0  0  0  0  0  0  0  0  0  0  0  0
   -0.2539    1.2389   -0.6555 C   0  0  0  0  0  0  0  0  0  0  0  0
   -0.8402    1.3816    0.6916 C   0  0  0  0  0  0  0  0  0  0  0  0
   -0.9177    0.2236    1.4320 O   0  0  0  0  0  0  0  0  0  0  0  0
   -1.5267   -0.7970    0.7443 C   0  0  0  0  0  0  0  0  0  0  0  0
   -0.7184   -1.2255   -0.4656 C   0  0  0  0  0  0  0  0  0  0  0  0
    0.0335   -0.1387   -1.1121 C   0  0  0  0  0  0  0  0  0  0  0  0
    1.3608   -1.2739    0.9835 H   0  0  0  0  0  0  0  0  0  0  0  0
    1.9657    0.4335    1.3487 H   0  0  0  0  0  0  0  0  0  0  0  0
    2.9785   -0.7423    0.4931 H   0  0  0  0  0  0  0  0  0  0  0  0
    2.1979    0.0072   -1.5364 H   0  0  0  0  0  0  0  0  0  0  0  0
   -0.8311    1.8266   -1.4112 H   0  0  0  0  0  0  0  0  0  0  0  0
   -0.2143    2.1017    1.2854 H   0  0  0  0  0  0  0  0  0  0  0  0
   -1.8619    1.8535    0.6822 H   0  0  0  0  0  0  0  0  0  0  0  0
   -2.5437   -0.4565    0.4198 H   0  0  0  0  0  0  0  0  0  0  0  0
   -1.6695   -1.6669    1.4344 H   0  0  0  0  0  0  0  0  0  0  0  0
   -1.4825   -1.6533   -1.1811 H   0  0  0  0  0  0  0  0  0  0  0  0
   -0.1102   -2.1094   -0.1567 H   0  0  0  0  0  0  0  0  0  0  0  0
   -0.0299   -0.2168   -2.2376 H   0  0  0  0  0  0  0  0  0  0  0  0
  1  2  1  0
  2  3  1  0
  3  4  1  0
  4  5  1  0
  5  6  1  0
  6  7  1  0
  7  8  1  0
  8  9  1  0
  9  2  1  0
  9  4  1  0
  1 10  1  0
  1 11  1  0
  1 12  1  0
  2 13  1  0
  4 14  1  0
  5 15  1  0
  5 16  1  0
  7 17  1  0
  7 18  1  0
  8 19  1  0
  8 20  1  0
  9 21  1  0
M  END
