
     RDKit          3D

 23 23  0  0  0  0  0  0  0  0999 V2000
   -2.7756   -0.7126    0.4077 C   0  0  0  0  0  0  0  0  0  0  0  0
   -1.6576   -0.0793   -0.3617 C   0  0  0  0  0  0  0  0  0  0  0  0
   -1.0071   -1.0467   -1.1229 O   0  0  0  0  0  0  0  0  0  0  0  0
    0.1280   -1.4392   -0.4359 C   0  0  0  0  0  0  0  0  0  0  0  0
    1.1368   -0.2764   -0.5230 C   0  0  0  0  0  0  0  0  0  0  0  0
    2.1995   -0.5800    0.4410 C   0  0  0  0  0  0  0  0  0  0  0  0
    0.3434    0.9454   -0.3590 C   0  0  0  0  0  0  0  0  0  0  0  0
    0.9917    2.1610    0.1526 C   0  0  0  0  0  0  0  0  0  0  0  0
   -0.7791    0.6308    0.4447 O   0  0  0  0  0  0  0  0  0  0  0  0
   -3.4384   -1.2216   -0.3211 H   0  0  0  0  0  0  0  0  0  0  0  0
   -3.3793    0.0567    0.9376 H   0  0  0  0  0  0  0  0  0  0  0  0
   -2.4171   -1.4746    1.1130 H   0  0  0  0  0  0  0  0  0  0  0  0
   -2.1316    0.6433   -1.0841 H   0  0  0  0  0  0  0  0  0  0  0  0
   -0.0966   -1.5235    0.6680 H   0  0  0  0  0  0  0  0  0  0  0  0
    0.5622   -2.3797   -0.7737 H   0  0  0  0  0  0  0  0  0  0  0  0
    1.5297   -0.3470   -1.5802 H   0  0  0  0  0  0  0  0  0  0  0  0
    1.8238   -1.1617    1.3331 H   0  0  0  0  0  0  0  0  0  0  0  0
    2.9283   -1.2948   -0.0462 H   0  0  0  0  0  0  0  0  0  0  0  0
    2.7910    0.2353    0.8287 H   0  0  0  0  0  0  0  0  0  0  0  0
   -0.1090    1.2002   -1.3652 H   0  0  0  0  0  0  0  0  0  0  0  0
    1.8586    2.0493    0.7834 H   0  0  0  0  0  0  0  0  0  0  0  0
    0.2309    2.7481    0.7488 H   0  0  0  0  0  0  0  0  0  0  0  0
    1.2675    2.8668   -0.6834 H   0  0  0  0  0  0  0  0  0  0  0  0
  1  2  1  0
  2  3  1  0
  3  4  1  0
  4  5  1  0
  5  6  1  0
  5  7  1  0
  7  8  1  0
  7  9  1  0
  9  2  1  0
  1 10  1  0
  1 11  1  0
  1 12  1  0
  2 13  1  0
  4 14  1  0
  4 15  1  0
  5 16  1  0
  6 17  1  0
  6 18  1  0
  6 19  1  0
  7 20  1  0
  8 21  1  0
  8 22  1  0
  8 23  1  0
M  END
