
     RDKit          3D

 19 21  0  0  0  0  0  0  0  0999 V2000
    2.4730   -0.1865    0.5152 C   0  0  0  0  0  0  0  0  0  0  0  0
    1.0395    0.1405    0.8784 C   0  0  0  0  0  0  0  0  0  0  0  0
    0.1745   -0.9077    0.6977 O   0  0  0  0  0  0  0  0  0  0  0  0
   -0.9254   -0.4853   -0.0090 C   0  0  0  0  0  0  0  0  0  0  0  0
   -1.9226   -1.4962   -0.4061 C   0  0  0  0  0  0  0  0  0  0  0  0
   -1.4352    0.9402    0.2165 C   0  0  0  0  0  0  0  0  0  0  0  0
   -0.5667    1.8783    0.7598 O   0  0  0  0  0  0  0  0  0  0  0  0
    0.5132    1.3202    0.0741 C   0  0  0  0  0  0  0  0  0  0  0  0
   -0.4603    0.6264   -0.8206 C   0  0  0  0  0  0  0  0  0  0  0  0
    3.0182    0.7006    0.1302 H   0  0  0  0  0  0  0  0  0  0  0  0
    2.9753   -0.6210    1.4146 H   0  0  0  0  0  0  0  0  0  0  0  0
    2.4425   -0.9355   -0.2944 H   0  0  0  0  0  0  0  0  0  0  0  0
    1.0054    0.4149    1.9676 H   0  0  0  0  0  0  0  0  0  0  0  0
   -2.6747   -1.1138   -1.1117 H   0  0  0  0  0  0  0  0  0  0  0  0
   -1.3959   -2.3649   -0.8622 H   0  0  0  0  0  0  0  0  0  0  0  0
   -2.4765   -1.8376    0.5157 H   0  0  0  0  0  0  0  0  0  0  0  0
   -2.4812    1.1647    0.0334 H   0  0  0  0  0  0  0  0  0  0  0  0
    1.2401    1.9892   -0.3515 H   0  0  0  0  0  0  0  0  0  0  0  0
   -0.5432    0.7736   -1.8718 H   0  0  0  0  0  0  0  0  0  0  0  0
  1  2  1  0
  2  3  1  0
  3  4  1  0
  4  5  1  0
  4  6  1  0
  6  7  1  0
  7  8  1  0
  8  9  1  0
  8  2  1  0
  9  4  1  0
  9  6  1  0
  1 10  1  0
  1 11  1  0
  1 12  1  0
  2 13  1  0
  5 14  1  0
  5 15  1  0
  5 16  1  0
  6 17  1  0
  8 18  1  0
  9 19  1  0
M  END
