
     RDKit          3D

 19 19  0  0  0  0  0  0  0  0999 V2000
   -1.5152    1.4628   -0.1961 C   0  0  0  0  0  0  0  0  0  0  0  0
   -0.3362    0.6887    0.3143 C   0  0  0  0  0  0  0  0  0  0  0  0
    0.8011    1.1291   -0.3909 O   0  0  0  0  0  0  0  0  0  0  0  0
    1.9038    0.5120    0.1503 C   0  0  0  0  0  0  0  0  0  0  0  0
    1.8255   -0.9891    0.1567 C   0  0  0  0  0  0  0  0  0  0  0  0
    0.6046   -1.4210    0.6638 O   0  0  0  0  0  0  0  0  0  0  0  0
   -0.4703   -0.7781    0.0565 C   0  0  0  0  0  0  0  0  0  0  0  0
   -1.7241   -1.3655    0.5681 C   0  0  0  0  0  0  0  0  0  0  0  0
   -2.8308   -0.9951    0.2087 O   0  0  0  0  0  0  0  0  0  0  0  0
   -2.4262    1.2991    0.3986 H   0  0  0  0  0  0  0  0  0  0  0  0
   -1.2912    2.5569   -0.1204 H   0  0  0  0  0  0  0  0  0  0  0  0
   -1.7110    1.2074   -1.2522 H   0  0  0  0  0  0  0  0  0  0  0  0
   -0.1862    0.8769    1.3971 H   0  0  0  0  0  0  0  0  0  0  0  0
    2.0733    0.8855    1.1864 H   0  0  0  0  0  0  0  0  0  0  0  0
    2.8102    0.7875   -0.4507 H   0  0  0  0  0  0  0  0  0  0  0  0
    2.0121   -1.4162   -0.8491 H   0  0  0  0  0  0  0  0  0  0  0  0
    2.6138   -1.3514    0.8524 H   0  0  0  0  0  0  0  0  0  0  0  0
   -0.4342   -0.9172   -1.0594 H   0  0  0  0  0  0  0  0  0  0  0  0
   -1.7190   -2.1723    1.3043 H   0  0  0  0  0  0  0  0  0  0  0  0
  1  2  1  0
  2  3  1  0
  3  4  1  0
  4  5  1  0
  5  6  1  0
  6  7  1  0
  7  8  1  0
  8  9  2  0
  7  2  1  0
  1 10  1  0
  1 11  1  0
  1 12  1  0
  2 13  1  0
  4 14  1  0
  4 15  1  0
  5 16  1  0
  5 17  1  0
  7 18  1  0
  8 19  1  0
M  END
