
     RDKit          3D

 16 16  0  0  0  0  0  0  0  0999 V2000
    1.7234    0.3072    0.0702 C   0  0  0  0  0  0  0  0  0  0  0  0
    0.6252   -0.3880   -0.6777 C   0  0  0  0  0  0  0  0  0  0  0  0
    0.5456   -1.7323   -0.1727 O   0  0  0  0  0  0  0  0  0  0  0  0
   -0.1966   -1.1965    0.8748 C   0  0  0  0  0  0  0  0  0  0  0  0
   -0.3383   -1.4011    2.1069 O   0  0  0  0  0  0  0  0  0  0  0  0
   -0.7582   -0.2595   -0.1209 C   0  0  0  0  0  0  0  0  0  0  0  0
   -1.2123    1.0582    0.3529 C   0  0  0  0  0  0  0  0  0  0  0  0
   -1.6719   -0.9095   -0.9502 O   0  0  0  0  0  0  0  0  0  0  0  0
    1.7305    1.3905   -0.0467 H   0  0  0  0  0  0  0  0  0  0  0  0
    2.6926   -0.0608   -0.3753 H   0  0  0  0  0  0  0  0  0  0  0  0
    1.7612   -0.0284    1.1317 H   0  0  0  0  0  0  0  0  0  0  0  0
    0.7330   -0.3225   -1.7721 H   0  0  0  0  0  0  0  0  0  0  0  0
   -0.9794    1.2704    1.4320 H   0  0  0  0  0  0  0  0  0  0  0  0
   -2.3424    1.0711    0.3193 H   0  0  0  0  0  0  0  0  0  0  0  0
   -0.9160    1.9216   -0.2985 H   0  0  0  0  0  0  0  0  0  0  0  0
   -1.3965   -0.7203   -1.8737 H   0  0  0  0  0  0  0  0  0  0  0  0
  1  2  1  0
  2  3  1  0
  3  4  1  0
  4  5  2  0
  4  6  1  0
  6  7  1  0
  6  8  1  0
  6  2  1  0
  1  9  1  0
  1 10  1  0
  1 11  1  0
  2 12  1  0
  7 13  1  0
  7 14  1  0
  7 15  1  0
  8 16  1  0
M  END
