
     RDKit          3D

 21 22  0  0  0  0  0  0  0  0999 V2000
   -2.0962   -0.9762   -0.5549 C   0  0  0  0  0  0  0  0  0  0  0  0
   -1.1233   -0.4712    0.4705 C   0  0  0  0  0  0  0  0  0  0  0  0
    0.0933   -1.1474    0.3670 O   0  0  0  0  0  0  0  0  0  0  0  0
    1.0854   -0.2413    0.0784 C   0  0  0  0  0  0  0  0  0  0  0  0
    2.2948   -0.8035   -0.5159 C   0  0  0  0  0  0  0  0  0  0  0  0
    0.3353    0.7356   -0.8448 C   0  0  0  0  0  0  0  0  0  0  0  0
   -0.7400    0.9830    0.2322 C   0  0  0  0  0  0  0  0  0  0  0  0
    0.1672    1.3632    1.3687 C   0  0  0  0  0  0  0  0  0  0  0  0
    1.3377    0.6296    1.1624 O   0  0  0  0  0  0  0  0  0  0  0  0
   -2.6408   -0.1710   -1.0681 H   0  0  0  0  0  0  0  0  0  0  0  0
   -2.8369   -1.6159   -0.0126 H   0  0  0  0  0  0  0  0  0  0  0  0
   -1.6088   -1.5950   -1.3159 H   0  0  0  0  0  0  0  0  0  0  0  0
   -1.4926   -0.5405    1.5086 H   0  0  0  0  0  0  0  0  0  0  0  0
    2.0345   -1.7769   -1.0236 H   0  0  0  0  0  0  0  0  0  0  0  0
    3.0004   -1.1100    0.3038 H   0  0  0  0  0  0  0  0  0  0  0  0
    2.8595   -0.1950   -1.2140 H   0  0  0  0  0  0  0  0  0  0  0  0
   -0.1455    0.2342   -1.6749 H   0  0  0  0  0  0  0  0  0  0  0  0
    0.9038    1.6291   -1.0553 H   0  0  0  0  0  0  0  0  0  0  0  0
   -1.5118    1.6442   -0.0440 H   0  0  0  0  0  0  0  0  0  0  0  0
   -0.2449    0.9918    2.3505 H   0  0  0  0  0  0  0  0  0  0  0  0
    0.3290    2.4334    1.4818 H   0  0  0  0  0  0  0  0  0  0  0  0
  1  2  1  0
  2  3  1  0
  3  4  1  0
  4  5  1  0
  4  6  1  0
  6  7  1  0
  7  8  1  0
  8  9  1  0
  7  2  1  0
  9  4  1  0
  1 10  1  0
  1 11  1  0
  1 12  1  0
  2 13  1  0
  5 14  1  0
  5 15  1  0
  5 16  1  0
  6 17  1  0
  6 18  1  0
  7 19  1  0
  8 20  1  0
  8 21  1  0
M  END
