
     RDKit          3D

 16 16  0  0  0  0  0  0  0  0999 V2000
    1.7651   -0.6190    0.4759 C   0  0  0  0  0  0  0  0  0  0  0  0
    0.5619   -0.1694   -0.3065 C   0  0  0  0  0  0  0  0  0  0  0  0
    0.8685    1.1419   -0.8021 O   0  0  0  0  0  0  0  0  0  0  0  0
    0.1243    2.0350   -0.0634 C   0  0  0  0  0  0  0  0  0  0  0  0
    0.3656    3.2434    0.1368 O   0  0  0  0  0  0  0  0  0  0  0  0
   -0.9649    1.3554    0.4346 O   0  0  0  0  0  0  0  0  0  0  0  0
   -0.6755   -0.0407    0.5174 C   0  0  0  0  0  0  0  0  0  0  0  0
   -1.8512   -0.8028   -0.0061 C   0  0  0  0  0  0  0  0  0  0  0  0
    1.5876   -1.4814    1.1230 H   0  0  0  0  0  0  0  0  0  0  0  0
    2.1519    0.2480    1.0624 H   0  0  0  0  0  0  0  0  0  0  0  0
    2.5692   -0.8522   -0.2730 H   0  0  0  0  0  0  0  0  0  0  0  0
    0.3828   -0.8262   -1.1845 H   0  0  0  0  0  0  0  0  0  0  0  0
   -0.5193   -0.2652    1.5904 H   0  0  0  0  0  0  0  0  0  0  0  0
   -1.7233   -1.8981    0.1907 H   0  0  0  0  0  0  0  0  0  0  0  0
   -1.8841   -0.6635   -1.1064 H   0  0  0  0  0  0  0  0  0  0  0  0
   -2.7586   -0.4051    0.4968 H   0  0  0  0  0  0  0  0  0  0  0  0
  1  2  1  0
  2  3  1  0
  3  4  1  0
  4  5  2  0
  4  6  1  0
  6  7  1  0
  7  8  1  0
  7  2  1  0
  1  9  1  0
  1 10  1  0
  1 11  1  0
  2 12  1  0
  7 13  1  0
  8 14  1  0
  8 15  1  0
  8 16  1  0
M  END
