
     RDKit          3D

 21 22  0  0  0  0  0  0  0  0999 V2000
    3.1325   -0.1935   -0.8344 C   0  0  0  0  0  0  0  0  0  0  0  0
    1.8032   -0.3444   -0.2571 C   0  0  0  0  0  0  0  0  0  0  0  0
    1.1793    0.8693    0.1155 O   0  0  0  0  0  0  0  0  0  0  0  0
    0.0272    0.3239    0.6838 C   0  0  0  0  0  0  0  0  0  0  0  0
   -0.2534   -0.8737   -0.2891 C   0  0  0  0  0  0  0  0  0  0  0  0
    0.8103   -0.7938   -1.1552 O   0  0  0  0  0  0  0  0  0  0  0  0
   -1.2285    0.1857   -0.0621 C   0  0  0  0  0  0  0  0  0  0  0  0
   -2.4185   -0.2203    0.8078 C   0  0  0  0  0  0  0  0  0  0  0  0
   -1.6224    1.1808   -1.1282 C   0  0  0  0  0  0  0  0  0  0  0  0
    3.2378   -0.7228   -1.8205 H   0  0  0  0  0  0  0  0  0  0  0  0
    3.8825   -0.7112   -0.1675 H   0  0  0  0  0  0  0  0  0  0  0  0
    3.5053    0.8535   -0.9255 H   0  0  0  0  0  0  0  0  0  0  0  0
    1.7225   -1.0024    0.6315 H   0  0  0  0  0  0  0  0  0  0  0  0
    0.1462    0.0417    1.7361 H   0  0  0  0  0  0  0  0  0  0  0  0
   -0.3735   -1.8613    0.2008 H   0  0  0  0  0  0  0  0  0  0  0  0
   -3.3338   -0.2790    0.1884 H   0  0  0  0  0  0  0  0  0  0  0  0
   -2.5681    0.5177    1.6272 H   0  0  0  0  0  0  0  0  0  0  0  0
   -2.2749   -1.2143    1.2614 H   0  0  0  0  0  0  0  0  0  0  0  0
   -2.4649    0.7116   -1.6970 H   0  0  0  0  0  0  0  0  0  0  0  0
   -0.8034    1.4883   -1.7771 H   0  0  0  0  0  0  0  0  0  0  0  0
   -2.1055    2.0443   -0.5832 H   0  0  0  0  0  0  0  0  0  0  0  0
  1  2  1  0
  2  3  1  0
  3  4  1  0
  4  5  1  0
  5  6  1  0
  5  7  1  0
  7  8  1  0
  7  9  1  0
  6  2  1  0
  7  4  1  0
  1 10  1  0
  1 11  1  0
  1 12  1  0
  2 13  1  0
  4 14  1  0
  5 15  1  0
  8 16  1  0
  8 17  1  0
  8 18  1  0
  9 19  1  0
  9 20  1  0
  9 21  1  0
M  END
