
     RDKit          3D

 14 14  0  0  0  0  0  0  0  0999 V2000
   -2.0970    0.3504   -0.4859 C   0  0  0  0  0  0  0  0  0  0  0  0
   -0.6070    0.0787   -0.3913 C   0  0  0  0  0  0  0  0  0  0  0  0
   -0.0783    0.8251    0.7834 O   0  0  0  0  0  0  0  0  0  0  0  0
   -0.0414   -0.5751    0.7469 C   0  0  0  0  0  0  0  0  0  0  0  0
    1.3364   -1.1390    0.6508 C   0  0  0  0  0  0  0  0  0  0  0  0
    1.6273   -2.2091    1.2893 O   0  0  0  0  0  0  0  0  0  0  0  0
    2.3555   -0.5167   -0.1397 C   0  0  0  0  0  0  0  0  0  0  0  0
    2.2019    0.5378   -0.8079 O   0  0  0  0  0  0  0  0  0  0  0  0
   -2.5352   -0.4433   -1.1321 H   0  0  0  0  0  0  0  0  0  0  0  0
   -2.1924    1.3664   -0.9626 H   0  0  0  0  0  0  0  0  0  0  0  0
   -2.5339    0.3642    0.5219 H   0  0  0  0  0  0  0  0  0  0  0  0
   -0.0392    0.2525   -1.3128 H   0  0  0  0  0  0  0  0  0  0  0  0
   -0.7379   -1.1511    1.4215 H   0  0  0  0  0  0  0  0  0  0  0  0
    3.3413   -0.9690   -0.1814 H   0  0  0  0  0  0  0  0  0  0  0  0
  1  2  1  0
  2  3  1  0
  3  4  1  0
  4  5  1  0
  5  6  2  0
  5  7  1  0
  7  8  2  0
  4  2  1  0
  1  9  1  0
  1 10  1  0
  1 11  1  0
  2 12  1  0
  4 13  1  0
  7 14  1  0
M  END
