
     RDKit          3D

 17 18  0  0  0  0  0  0  0  0999 V2000
   -2.0813   -0.5782   -0.0765 C   0  0  0  0  0  0  0  0  0  0  0  0
   -1.1310    0.5638   -0.0250 C   0  0  0  0  0  0  0  0  0  0  0  0
   -1.0655    1.2487    1.2304 O   0  0  0  0  0  0  0  0  0  0  0  0
    0.2949    1.4597    0.9916 C   0  0  0  0  0  0  0  0  0  0  0  0
    1.1092    2.3127    1.3868 O   0  0  0  0  0  0  0  0  0  0  0  0
    0.2971    0.3045    0.1356 C   0  0  0  0  0  0  0  0  0  0  0  0
    0.9415   -0.9697    0.3911 C   0  0  0  0  0  0  0  0  0  0  0  0
    1.2597   -0.0846   -0.8471 C   0  0  0  0  0  0  0  0  0  0  0  0
    2.4924    0.5299   -0.8779 O   0  0  0  0  0  0  0  0  0  0  0  0
   -2.4508   -0.9124    0.9154 H   0  0  0  0  0  0  0  0  0  0  0  0
   -1.7076   -1.4668   -0.6271 H   0  0  0  0  0  0  0  0  0  0  0  0
   -3.0019   -0.2198   -0.6230 H   0  0  0  0  0  0  0  0  0  0  0  0
   -1.3341    1.3534   -0.8076 H   0  0  0  0  0  0  0  0  0  0  0  0
    1.7656   -0.9861    1.1365 H   0  0  0  0  0  0  0  0  0  0  0  0
    0.4460   -1.9246    0.2137 H   0  0  0  0  0  0  0  0  0  0  0  0
    0.9208   -0.5389   -1.8131 H   0  0  0  0  0  0  0  0  0  0  0  0
    3.2449   -0.0915   -0.7038 H   0  0  0  0  0  0  0  0  0  0  0  0
  1  2  1  0
  2  3  1  0
  3  4  1  0
  4  5  2  0
  4  6  1  0
  6  7  1  0
  7  8  1  0
  8  9  1  0
  6  2  1  0
  8  6  1  0
  1 10  1  0
  1 11  1  0
  1 12  1  0
  2 13  1  0
  7 14  1  0
  7 15  1  0
  8 16  1  0
  9 17  1  0
M  END
