
     RDKit          3D

 15 15  0  0  0  0  0  0  0  0999 V2000
   -1.7014   -0.9072   -0.1764 C   0  0  0  0  0  0  0  0  0  0  0  0
   -1.0754    0.4466   -0.1499 C   0  0  0  0  0  0  0  0  0  0  0  0
   -0.7438    0.9906   -1.3986 O   0  0  0  0  0  0  0  0  0  0  0  0
    0.2889    1.6675   -0.7631 C   0  0  0  0  0  0  0  0  0  0  0  0
    0.9078    2.7538   -0.8873 O   0  0  0  0  0  0  0  0  0  0  0  0
    0.3787    0.5238    0.1842 C   0  0  0  0  0  0  0  0  0  0  0  0
    1.2131   -0.4641   -0.3252 O   0  0  0  0  0  0  0  0  0  0  0  0
    2.2098   -0.9814    0.4914 C   0  0  0  0  0  0  0  0  0  0  0  0
    2.3199   -0.5359    1.6628 O   0  0  0  0  0  0  0  0  0  0  0  0
   -1.0158   -1.6993   -0.5380 H   0  0  0  0  0  0  0  0  0  0  0  0
   -2.5929   -0.8567   -0.8369 H   0  0  0  0  0  0  0  0  0  0  0  0
   -2.0280   -1.1766    0.8463 H   0  0  0  0  0  0  0  0  0  0  0  0
   -1.6517    1.1606    0.4669 H   0  0  0  0  0  0  0  0  0  0  0  0
    0.5934    0.8189    1.2346 H   0  0  0  0  0  0  0  0  0  0  0  0
    2.8974   -1.7407    0.1893 H   0  0  0  0  0  0  0  0  0  0  0  0
  1  2  1  0
  2  3  1  0
  3  4  1  0
  4  5  2  0
  4  6  1  0
  6  7  1  0
  7  8  1  0
  8  9  2  0
  6  2  1  0
  1 10  1  0
  1 11  1  0
  1 12  1  0
  2 13  1  0
  6 14  1  0
  8 15  1  0
M  END
