
     RDKit          3D

 21 22  0  0  0  0  0  0  0  0999 V2000
   -1.6547    1.3371   -0.2882 C   0  0  0  0  0  0  0  0  0  0  0  0
   -0.9150    0.4060   -1.1967 C   0  0  0  0  0  0  0  0  0  0  0  0
    0.3941    0.8377   -1.5221 O   0  0  0  0  0  0  0  0  0  0  0  0
    0.8482    0.0606   -0.4944 C   0  0  0  0  0  0  0  0  0  0  0  0
    2.2114   -0.4792   -0.5269 C   0  0  0  0  0  0  0  0  0  0  0  0
    2.3193   -0.1871    0.8539 O   0  0  0  0  0  0  0  0  0  0  0  0
    1.2197    0.6903    0.7792 C   0  0  0  0  0  0  0  0  0  0  0  0
   -0.3162   -0.8109   -0.6013 C   0  0  0  0  0  0  0  0  0  0  0  0
   -0.9352   -1.3758    0.6280 C   0  0  0  0  0  0  0  0  0  0  0  0
   -2.6409    1.6272   -0.7570 H   0  0  0  0  0  0  0  0  0  0  0  0
   -1.0841    2.2792   -0.0810 H   0  0  0  0  0  0  0  0  0  0  0  0
   -1.9104    0.9158    0.6922 H   0  0  0  0  0  0  0  0  0  0  0  0
   -1.4536    0.2508   -2.1661 H   0  0  0  0  0  0  0  0  0  0  0  0
    2.9741   -0.0115   -1.1460 H   0  0  0  0  0  0  0  0  0  0  0  0
    2.2343   -1.6023   -0.6359 H   0  0  0  0  0  0  0  0  0  0  0  0
    0.5323    0.6607    1.6204 H   0  0  0  0  0  0  0  0  0  0  0  0
    1.6355    1.7252    0.6094 H   0  0  0  0  0  0  0  0  0  0  0  0
   -0.2087   -1.6131   -1.3781 H   0  0  0  0  0  0  0  0  0  0  0  0
   -0.9716   -0.7126    1.4855 H   0  0  0  0  0  0  0  0  0  0  0  0
   -1.9614   -1.7348    0.3702 H   0  0  0  0  0  0  0  0  0  0  0  0
   -0.3170   -2.2633    0.9320 H   0  0  0  0  0  0  0  0  0  0  0  0
  1  2  1  0
  2  3  1  0
  3  4  1  0
  4  5  1  0
  5  6  1  0
  6  7  1  0
  4  8  1  0
  8  9  1  0
  8  2  1  0
  7  4  1  0
  1 10  1  0
  1 11  1  0
  1 12  1  0
  2 13  1  0
  5 14  1  0
  5 15  1  0
  7 16  1  0
  7 17  1  0
  8 18  1  0
  9 19  1  0
  9 20  1  0
  9 21  1  0
M  END
