
     RDKit          3D

 21 22  0  0  0  0  0  0  0  0999 V2000
   -2.3740   -0.0898   -0.6032 C   0  0  0  0  0  0  0  0  0  0  0  0
   -0.9242    0.1802   -0.9719 C   0  0  0  0  0  0  0  0  0  0  0  0
   -0.2905   -0.9112   -1.4862 O   0  0  0  0  0  0  0  0  0  0  0  0
    0.9305   -1.0677   -0.8831 C   0  0  0  0  0  0  0  0  0  0  0  0
    1.0563   -0.1305    0.2512 C   0  0  0  0  0  0  0  0  0  0  0  0
    2.2476    0.7727    0.2931 C   0  0  0  0  0  0  0  0  0  0  0  0
    0.8411   -0.6889    1.5217 O   0  0  0  0  0  0  0  0  0  0  0  0
   -0.4810   -0.2222    1.4736 C   0  0  0  0  0  0  0  0  0  0  0  0
   -0.2179    0.6211    0.2711 C   0  0  0  0  0  0  0  0  0  0  0  0
   -3.0833    0.4794   -1.2301 H   0  0  0  0  0  0  0  0  0  0  0  0
   -2.5952    0.2077    0.4515 H   0  0  0  0  0  0  0  0  0  0  0  0
   -2.5659   -1.1821   -0.7218 H   0  0  0  0  0  0  0  0  0  0  0  0
   -0.9399    0.9738   -1.7466 H   0  0  0  0  0  0  0  0  0  0  0  0
    0.9507   -2.1147   -0.4600 H   0  0  0  0  0  0  0  0  0  0  0  0
    1.7440   -0.9939   -1.6236 H   0  0  0  0  0  0  0  0  0  0  0  0
    1.9775    1.8392    0.0928 H   0  0  0  0  0  0  0  0  0  0  0  0
    3.0377    0.5189   -0.4338 H   0  0  0  0  0  0  0  0  0  0  0  0
    2.7371    0.7983    1.3091 H   0  0  0  0  0  0  0  0  0  0  0  0
   -1.1472   -1.1066    1.3246 H   0  0  0  0  0  0  0  0  0  0  0  0
   -0.7128    0.4083    2.3489 H   0  0  0  0  0  0  0  0  0  0  0  0
   -0.1907    1.7080    0.4022 H   0  0  0  0  0  0  0  0  0  0  0  0
  1  2  1  0
  2  3  1  0
  3  4  1  0
  4  5  1  0
  5  6  1  0
  5  7  1  0
  7  8  1  0
  8  9  1  0
  9  2  1  0
  9  5  1  0
  1 10  1  0
  1 11  1  0
  1 12  1  0
  2 13  1  0
  4 14  1  0
  4 15  1  0
  6 16  1  0
  6 17  1  0
  6 18  1  0
  8 19  1  0
  8 20  1  0
  9 21  1  0
M  END
