
     RDKit          3D

 19 21  0  0  0  0  0  0  0  0999 V2000
    2.7109   -0.0763   -0.3539 C   0  0  0  0  0  0  0  0  0  0  0  0
    1.5510   -0.9708    0.0789 C   0  0  0  0  0  0  0  0  0  0  0  0
    1.1649   -0.7120    1.4990 O   0  0  0  0  0  0  0  0  0  0  0  0
    0.3513   -0.4866    0.4219 C   0  0  0  0  0  0  0  0  0  0  0  0
   -0.1567    0.8932    0.0981 C   0  0  0  0  0  0  0  0  0  0  0  0
   -1.5438    0.3931    0.2180 C   0  0  0  0  0  0  0  0  0  0  0  0
   -2.7041    0.8092   -0.3729 C   0  0  0  0  0  0  0  0  0  0  0  0
   -2.4398    0.9577    1.0883 O   0  0  0  0  0  0  0  0  0  0  0  0
   -1.0422   -1.0014    0.3840 C   0  0  0  0  0  0  0  0  0  0  0  0
    2.5510    0.3359   -1.3737 H   0  0  0  0  0  0  0  0  0  0  0  0
    3.6804   -0.6077   -0.2736 H   0  0  0  0  0  0  0  0  0  0  0  0
    2.8013    0.8172    0.3149 H   0  0  0  0  0  0  0  0  0  0  0  0
    1.8282   -2.0592    0.0216 H   0  0  0  0  0  0  0  0  0  0  0  0
    0.1801    1.2042   -0.9101 H   0  0  0  0  0  0  0  0  0  0  0  0
    0.1818    1.6174    0.8628 H   0  0  0  0  0  0  0  0  0  0  0  0
   -2.8684    1.8150   -0.7975 H   0  0  0  0  0  0  0  0  0  0  0  0
   -3.5828    0.1411   -0.5030 H   0  0  0  0  0  0  0  0  0  0  0  0
   -1.3571   -1.4630    1.3320 H   0  0  0  0  0  0  0  0  0  0  0  0
   -1.3062   -1.6069   -0.5326 H   0  0  0  0  0  0  0  0  0  0  0  0
  1  2  1  0
  2  3  1  0
  3  4  1  0
  4  5  1  0
  5  6  1  0
  6  7  1  0
  7  8  1  0
  6  9  1  0
  4  2  1  0
  8  6  1  0
  9  4  1  0
  1 10  1  0
  1 11  1  0
  1 12  1  0
  2 13  1  0
  5 14  1  0
  5 15  1  0
  7 16  1  0
  7 17  1  0
  9 18  1  0
  9 19  1  0
M  END
