
     RDKit          3D

 16 17  0  0  0  0  0  0  0  0999 V2000
    2.1196   -0.1631    0.5167 C   0  0  0  0  0  0  0  0  0  0  0  0
    1.0974    0.0258   -0.6016 C   0  0  0  0  0  0  0  0  0  0  0  0
    0.4993   -1.1667   -1.1104 O   0  0  0  0  0  0  0  0  0  0  0  0
   -0.2179   -0.2638   -0.4145 C   0  0  0  0  0  0  0  0  0  0  0  0
   -1.3801    0.4857   -0.9528 C   0  0  0  0  0  0  0  0  0  0  0  0
   -1.8557    0.6493    0.4602 C   0  0  0  0  0  0  0  0  0  0  0  0
   -2.5828    1.4324    0.9994 O   0  0  0  0  0  0  0  0  0  0  0  0
   -1.0198   -0.5636    0.7898 C   0  0  0  0  0  0  0  0  0  0  0  0
    1.6570   -0.7333    1.3501 H   0  0  0  0  0  0  0  0  0  0  0  0
    3.0116   -0.6350    0.0975 H   0  0  0  0  0  0  0  0  0  0  0  0
    2.3166    0.8652    0.9094 H   0  0  0  0  0  0  0  0  0  0  0  0
    1.4716    0.6678   -1.4321 H   0  0  0  0  0  0  0  0  0  0  0  0
   -1.0360    1.4441   -1.4181 H   0  0  0  0  0  0  0  0  0  0  0  0
   -2.0987   -0.0605   -1.5845 H   0  0  0  0  0  0  0  0  0  0  0  0
   -1.5654   -1.5247    0.6817 H   0  0  0  0  0  0  0  0  0  0  0  0
   -0.4167   -0.4596    1.7091 H   0  0  0  0  0  0  0  0  0  0  0  0
  1  2  1  0
  2  3  1  0
  3  4  1  0
  4  5  1  0
  5  6  1  0
  6  7  2  0
  6  8  1  0
  4  2  1  0
  8  4  1  0
  1  9  1  0
  1 10  1  0
  1 11  1  0
  2 12  1  0
  5 13  1  0
  5 14  1  0
  8 15  1  0
  8 16  1  0
M  END
