
     RDKit          3D

  7  6  0  0  0  0  0  0  0  0999 V2000
   -0.6312   -0.0183   -0.0021 C   0  0  0  0  0  0  0  0  0  0  0  0
    0.8510    0.0543    0.0212 C   0  0  0  0  0  0  0  0  0  0  0  0
    1.5901   -0.8978    0.0343 O   0  0  0  0  0  0  0  0  0  0  0  0
   -1.0033   -1.0512   -0.2117 H   0  0  0  0  0  0  0  0  0  0  0  0
   -1.0521    0.2785    0.9676 H   0  0  0  0  0  0  0  0  0  0  0  0
   -1.0508    0.5971   -0.8362 H   0  0  0  0  0  0  0  0  0  0  0  0
    1.2963    1.0373    0.0269 H   0  0  0  0  0  0  0  0  0  0  0  0
  1  2  1  0
  2  3  2  0
  1  4  1  0
  1  5  1  0
  1  6  1  0
  2  7  1  0
M  END
