
     RDKit          3D

 19 18  0  0  0  0  0  0  0  0999 V2000
    3.3530    0.2876   -0.6823 C   0  0  0  0  0  0  0  0  0  0  0  0
    2.6750   -0.4977    0.4250 C   0  0  0  0  0  0  0  0  0  0  0  0
    1.2573   -0.6118    0.0611 C   0  0  0  0  0  0  0  0  0  0  0  0
    0.0895   -0.7207   -0.2237 C   0  0  0  0  0  0  0  0  0  0  0  0
   -1.3037   -0.8562   -0.5389 C   0  0  0  0  0  0  0  0  0  0  0  0
   -1.6247   -1.6137   -1.4895 O   0  0  0  0  0  0  0  0  0  0  0  0
   -2.3701   -0.1494    0.1994 C   0  0  0  0  0  0  0  0  0  0  0  0
   -2.1432    1.3452    0.2491 C   0  0  0  0  0  0  0  0  0  0  0  0
   -3.6100   -0.4716   -0.3242 O   0  0  0  0  0  0  0  0  0  0  0  0
    2.8497    1.2648   -0.7394 H   0  0  0  0  0  0  0  0  0  0  0  0
    3.1820   -0.3020   -1.6191 H   0  0  0  0  0  0  0  0  0  0  0  0
    4.4172    0.3475   -0.4284 H   0  0  0  0  0  0  0  0  0  0  0  0
    2.8327   -0.0429    1.4077 H   0  0  0  0  0  0  0  0  0  0  0  0
    3.1197   -1.5168    0.4475 H   0  0  0  0  0  0  0  0  0  0  0  0
   -2.2973   -0.5028    1.2670 H   0  0  0  0  0  0  0  0  0  0  0  0
   -1.8168    1.7762   -0.6975 H   0  0  0  0  0  0  0  0  0  0  0  0
   -3.1193    1.7967    0.5888 H   0  0  0  0  0  0  0  0  0  0  0  0
   -1.4107    1.6300    1.0314 H   0  0  0  0  0  0  0  0  0  0  0  0
   -4.0803   -1.1625    0.2083 H   0  0  0  0  0  0  0  0  0  0  0  0
  1  2  1  0
  2  3  1  0
  3  4  3  0
  4  5  1  0
  5  6  2  0
  5  7  1  0
  7  8  1  0
  7  9  1  0
  1 10  1  0
  1 11  1  0
  1 12  1  0
  2 13  1  0
  2 14  1  0
  7 15  1  0
  8 16  1  0
  8 17  1  0
  8 18  1  0
  9 19  1  0
M  END
