
     RDKit          3D

 17 16  0  0  0  0  0  0  0  0999 V2000
   -1.6569   -1.4862   -1.9913 C   0  0  0  0  0  0  0  0  0  0  0  0
   -0.9829   -1.7488   -0.6884 C   0  0  0  0  0  0  0  0  0  0  0  0
   -0.4435   -0.4865   -0.1580 C   0  0  0  0  0  0  0  0  0  0  0  0
    0.0017    0.5752    0.3085 C   0  0  0  0  0  0  0  0  0  0  0  0
    0.5399    1.7986    0.8397 C   0  0  0  0  0  0  0  0  0  0  0  0
    1.8068    1.5376    1.6681 C   0  0  0  0  0  0  0  0  0  0  0  0
    1.5337    0.6797    2.7447 O   0  0  0  0  0  0  0  0  0  0  0  0
   -1.4771   -0.4346   -2.2890 H   0  0  0  0  0  0  0  0  0  0  0  0
   -1.2645   -2.1502   -2.8030 H   0  0  0  0  0  0  0  0  0  0  0  0
   -2.7760   -1.6350   -1.9375 H   0  0  0  0  0  0  0  0  0  0  0  0
   -1.6423   -2.2408    0.0481 H   0  0  0  0  0  0  0  0  0  0  0  0
   -0.1475   -2.4782   -0.8851 H   0  0  0  0  0  0  0  0  0  0  0  0
    0.8247    2.5099    0.0424 H   0  0  0  0  0  0  0  0  0  0  0  0
   -0.1915    2.2937    1.5449 H   0  0  0  0  0  0  0  0  0  0  0  0
    2.3304    2.4445    1.9436 H   0  0  0  0  0  0  0  0  0  0  0  0
    2.4608    0.9337    0.9728 H   0  0  0  0  0  0  0  0  0  0  0  0
    1.0842   -0.1125    2.3122 H   0  0  0  0  0  0  0  0  0  0  0  0
  1  2  1  0
  2  3  1  0
  3  4  3  0
  4  5  1  0
  5  6  1  0
  6  7  1  0
  1  8  1  0
  1  9  1  0
  1 10  1  0
  2 11  1  0
  2 12  1  0
  5 13  1  0
  5 14  1  0
  6 15  1  0
  6 16  1  0
  7 17  1  0
M  END
