
     RDKit          3D

 18 17  0  0  0  0  0  0  0  0999 V2000
    2.9527    1.0418   -0.8408 C   0  0  0  0  0  0  0  0  0  0  0  0
    2.1244    0.9634    0.4139 C   0  0  0  0  0  0  0  0  0  0  0  0
    0.9383    0.1056    0.1829 C   0  0  0  0  0  0  0  0  0  0  0  0
   -0.0298   -0.5973   -0.0215 C   0  0  0  0  0  0  0  0  0  0  0  0
   -1.2078   -1.4328   -0.2482 C   0  0  0  0  0  0  0  0  0  0  0  0
   -2.3527   -1.0652    0.6681 C   0  0  0  0  0  0  0  0  0  0  0  0
   -2.7555    0.3320    0.4487 C   0  0  0  0  0  0  0  0  0  0  0  0
   -2.0930    1.2330    0.9190 O   0  0  0  0  0  0  0  0  0  0  0  0
    2.4844    0.4095   -1.6378 H   0  0  0  0  0  0  0  0  0  0  0  0
    2.9576    2.0806   -1.2465 H   0  0  0  0  0  0  0  0  0  0  0  0
    3.9675    0.6272   -0.6942 H   0  0  0  0  0  0  0  0  0  0  0  0
    2.7427    0.5693    1.2476 H   0  0  0  0  0  0  0  0  0  0  0  0
    1.7410    1.9542    0.7518 H   0  0  0  0  0  0  0  0  0  0  0  0
   -0.9946   -2.5216   -0.0381 H   0  0  0  0  0  0  0  0  0  0  0  0
   -1.5521   -1.3137   -1.3106 H   0  0  0  0  0  0  0  0  0  0  0  0
   -2.0956   -1.2021    1.7321 H   0  0  0  0  0  0  0  0  0  0  0  0
   -3.2001   -1.7613    0.4650 H   0  0  0  0  0  0  0  0  0  0  0  0
   -3.6275    0.5773   -0.1217 H   0  0  0  0  0  0  0  0  0  0  0  0
  1  2  1  0
  2  3  1  0
  3  4  3  0
  4  5  1  0
  5  6  1  0
  6  7  1  0
  7  8  2  0
  1  9  1  0
  1 10  1  0
  1 11  1  0
  2 12  1  0
  2 13  1  0
  5 14  1  0
  5 15  1  0
  6 16  1  0
  6 17  1  0
  7 18  1  0
M  END
