
     RDKit          3D

 17 16  0  0  0  0  0  0  0  0999 V2000
    2.1089   -1.3612   -1.7844 C   0  0  0  0  0  0  0  0  0  0  0  0
    1.1002   -1.6998   -0.6818 C   0  0  0  0  0  0  0  0  0  0  0  0
    0.5835   -0.4873   -0.1471 C   0  0  0  0  0  0  0  0  0  0  0  0
    0.1274    0.6110    0.3564 C   0  0  0  0  0  0  0  0  0  0  0  0
   -0.4032    1.8230    0.9155 C   0  0  0  0  0  0  0  0  0  0  0  0
   -1.8656    1.7059    1.2116 C   0  0  0  0  0  0  0  0  0  0  0  0
   -2.5102    2.7647    1.4462 O   0  0  0  0  0  0  0  0  0  0  0  0
   -2.4861    0.4161    1.2261 C   0  0  0  0  0  0  0  0  0  0  0  0
   -1.9023   -0.6317    1.0064 O   0  0  0  0  0  0  0  0  0  0  0  0
    2.0296   -0.2582   -1.9491 H   0  0  0  0  0  0  0  0  0  0  0  0
    3.1142   -1.5366   -1.3680 H   0  0  0  0  0  0  0  0  0  0  0  0
    1.9089   -1.9273   -2.7051 H   0  0  0  0  0  0  0  0  0  0  0  0
    1.5950   -2.2701    0.1339 H   0  0  0  0  0  0  0  0  0  0  0  0
    0.2881   -2.2861   -1.1676 H   0  0  0  0  0  0  0  0  0  0  0  0
   -0.3032    2.7045    0.2318 H   0  0  0  0  0  0  0  0  0  0  0  0
    0.1685    2.0678    1.8287 H   0  0  0  0  0  0  0  0  0  0  0  0
   -3.5538    0.3653    1.4463 H   0  0  0  0  0  0  0  0  0  0  0  0
  1  2  1  0
  2  3  1  0
  3  4  3  0
  4  5  1  0
  5  6  1  0
  6  7  2  0
  6  8  1  0
  8  9  2  0
  1 10  1  0
  1 11  1  0
  1 12  1  0
  2 13  1  0
  2 14  1  0
  5 15  1  0
  5 16  1  0
  8 17  1  0
M  END
