
     RDKit          3D

 21 21  0  0  0  0  0  0  0  0999 V2000
    3.6593   -0.0192    0.1545 C   0  0  0  0  0  0  0  0  0  0  0  0
    2.7727   -1.1962    0.4549 C   0  0  0  0  0  0  0  0  0  0  0  0
    1.3918   -0.7664    0.7116 C   0  0  0  0  0  0  0  0  0  0  0  0
    0.2517   -0.3894    0.9256 C   0  0  0  0  0  0  0  0  0  0  0  0
   -1.1105    0.0804    1.1864 C   0  0  0  0  0  0  0  0  0  0  0  0
   -2.1675   -0.8220    0.9963 O   0  0  0  0  0  0  0  0  0  0  0  0
   -2.0101    0.2333    0.0950 C   0  0  0  0  0  0  0  0  0  0  0  0
   -3.0368    1.3619    0.1703 C   0  0  0  0  0  0  0  0  0  0  0  0
   -1.6107   -0.1887   -1.2826 C   0  0  0  0  0  0  0  0  0  0  0  0
    3.5856    0.6784    1.0143 H   0  0  0  0  0  0  0  0  0  0  0  0
    4.7015   -0.4290    0.0506 H   0  0  0  0  0  0  0  0  0  0  0  0
    3.3918    0.5124   -0.7677 H   0  0  0  0  0  0  0  0  0  0  0  0
    3.2024   -1.7080    1.3435 H   0  0  0  0  0  0  0  0  0  0  0  0
    2.7546   -1.9397   -0.3645 H   0  0  0  0  0  0  0  0  0  0  0  0
   -1.2465    0.6808    2.1328 H   0  0  0  0  0  0  0  0  0  0  0  0
   -3.3538    1.5373    1.2178 H   0  0  0  0  0  0  0  0  0  0  0  0
   -3.8962    1.0438   -0.4546 H   0  0  0  0  0  0  0  0  0  0  0  0
   -2.6313    2.2861   -0.2905 H   0  0  0  0  0  0  0  0  0  0  0  0
   -2.5193   -0.5637   -1.8358 H   0  0  0  0  0  0  0  0  0  0  0  0
   -0.9079   -1.0453   -1.2165 H   0  0  0  0  0  0  0  0  0  0  0  0
   -1.2209    0.6530   -1.8801 H   0  0  0  0  0  0  0  0  0  0  0  0
  1  2  1  0
  2  3  1  0
  3  4  3  0
  4  5  1  0
  5  6  1  0
  6  7  1  0
  7  8  1  0
  7  9  1  0
  7  5  1  0
  1 10  1  0
  1 11  1  0
  1 12  1  0
  2 13  1  0
  2 14  1  0
  5 15  1  0
  8 16  1  0
  8 17  1  0
  8 18  1  0
  9 19  1  0
  9 20  1  0
  9 21  1  0
M  END
