
     RDKit          3D

 17 17  0  0  0  0  0  0  0  0999 V2000
   -3.1957   -2.0715   -0.4580 C   0  0  0  0  0  0  0  0  0  0  0  0
   -2.6227   -0.9995   -1.5079 C   0  0  0  0  0  0  0  0  0  0  0  0
   -1.5820   -0.4725   -0.9468 C   0  0  0  0  0  0  0  0  0  0  0  0
   -0.6917   -0.0340   -0.4862 C   0  0  0  0  0  0  0  0  0  0  0  0
    0.4949    0.5474    0.1141 C   0  0  0  0  0  0  0  0  0  0  0  0
    1.6344    1.1087    0.7168 C   0  0  0  0  0  0  0  0  0  0  0  0
    2.8972    1.7595    1.4003 C   0  0  0  0  0  0  0  0  0  0  0  0
    4.0938    1.5150    0.4460 C   0  0  0  0  0  0  0  0  0  0  0  0
    3.8041    0.7983    1.6107 O   0  0  0  0  0  0  0  0  0  0  0  0
   -3.0535   -3.0204   -0.9317 H   0  0  0  0  0  0  0  0  0  0  0  0
   -2.6405   -1.9041    0.4480 H   0  0  0  0  0  0  0  0  0  0  0  0
   -4.2809   -1.8040   -0.2757 H   0  0  0  0  0  0  0  0  0  0  0  0
   -3.5937   -0.3025   -1.4698 H   0  0  0  0  0  0  0  0  0  0  0  0
   -2.6838   -1.4055   -2.4913 H   0  0  0  0  0  0  0  0  0  0  0  0
    2.7433    2.8037    1.4680 H   0  0  0  0  0  0  0  0  0  0  0  0
    4.7994    2.3628    0.4213 H   0  0  0  0  0  0  0  0  0  0  0  0
    3.8775    1.1186   -0.5464 H   0  0  0  0  0  0  0  0  0  0  0  0
  1  2  1  0
  2  3  1  0
  3  4  3  0
  4  5  1  0
  5  6  3  0
  6  7  1  0
  7  8  1  0
  8  9  1  0
  9  7  1  0
  1 10  1  0
  1 11  1  0
  1 12  1  0
  2 13  1  0
  2 14  1  0
  7 15  1  0
  8 16  1  0
  8 17  1  0
M  END
