
     RDKit          3D

 21 21  0  0  0  0  0  0  0  0999 V2000
    3.7279    0.2469   -0.2777 C   0  0  0  0  0  0  0  0  0  0  0  0
    2.6187   -0.1330   -1.2023 C   0  0  0  0  0  0  0  0  0  0  0  0
    1.3137   -0.0580   -0.5364 C   0  0  0  0  0  0  0  0  0  0  0  0
    0.2297    0.0075   -0.0064 C   0  0  0  0  0  0  0  0  0  0  0  0
   -1.0681    0.0635    0.6404 C   0  0  0  0  0  0  0  0  0  0  0  0
   -1.0691    0.2592    2.0036 O   0  0  0  0  0  0  0  0  0  0  0  0
   -2.0219   -1.0532    0.2657 C   0  0  0  0  0  0  0  0  0  0  0  0
   -3.1115    0.0278    0.2985 C   0  0  0  0  0  0  0  0  0  0  0  0
   -2.0148    0.9848   -0.1313 C   0  0  0  0  0  0  0  0  0  0  0  0
    4.5269   -0.5143   -0.2574 H   0  0  0  0  0  0  0  0  0  0  0  0
    4.2042    1.2232   -0.5513 H   0  0  0  0  0  0  0  0  0  0  0  0
    3.3217    0.3124    0.7512 H   0  0  0  0  0  0  0  0  0  0  0  0
    2.6195    0.5223   -2.1030 H   0  0  0  0  0  0  0  0  0  0  0  0
    2.8230   -1.1607   -1.5849 H   0  0  0  0  0  0  0  0  0  0  0  0
   -0.8030   -0.5839    2.4367 H   0  0  0  0  0  0  0  0  0  0  0  0
   -1.8602   -1.4043   -0.7559 H   0  0  0  0  0  0  0  0  0  0  0  0
   -2.1988   -1.8038    1.0401 H   0  0  0  0  0  0  0  0  0  0  0  0
   -3.4412    0.2752    1.3347 H   0  0  0  0  0  0  0  0  0  0  0  0
   -3.9185   -0.1306   -0.4163 H   0  0  0  0  0  0  0  0  0  0  0  0
   -1.7935    0.9186   -1.2056 H   0  0  0  0  0  0  0  0  0  0  0  0
   -2.0847    2.0005    0.2576 H   0  0  0  0  0  0  0  0  0  0  0  0
  1  2  1  0
  2  3  1  0
  3  4  3  0
  4  5  1  0
  5  6  1  0
  5  7  1  0
  7  8  1  0
  8  9  1  0
  9  5  1  0
  1 10  1  0
  1 11  1  0
  1 12  1  0
  2 13  1  0
  2 14  1  0
  6 15  1  0
  7 16  1  0
  7 17  1  0
  8 18  1  0
  8 19  1  0
  9 20  1  0
  9 21  1  0
M  END
