
     RDKit          3D

 21 21  0  0  0  0  0  0  0  0999 V2000
    2.9498   -1.1890   -0.5741 C   0  0  0  0  0  0  0  0  0  0  0  0
    1.7457   -1.8856   -1.2812 C   0  0  0  0  0  0  0  0  0  0  0  0
    0.6634   -0.9784   -0.6562 C   0  0  0  0  0  0  0  0  0  0  0  0
   -0.2137   -0.2345   -0.1700 C   0  0  0  0  0  0  0  0  0  0  0  0
   -1.5206    0.8571    0.5621 C   0  0  0  0  0  0  0  0  0  0  0  0
   -2.5613   -0.0830    0.2448 C   0  0  0  0  0  0  0  0  0  0  0  0
   -0.7753    1.1841    1.7263 C   0  0  0  0  0  0  0  0  0  0  0  0
   -0.5956    2.5408    1.2535 O   0  0  0  0  0  0  0  0  0  0  0  0
   -1.0879    2.0802   -0.0131 C   0  0  0  0  0  0  0  0  0  0  0  0
    2.7976   -0.0721   -0.8279 H   0  0  0  0  0  0  0  0  0  0  0  0
    2.7151   -1.2555    0.5452 H   0  0  0  0  0  0  0  0  0  0  0  0
    3.8960   -1.5801   -0.8734 H   0  0  0  0  0  0  0  0  0  0  0  0
    1.7133   -1.7076   -2.3221 H   0  0  0  0  0  0  0  0  0  0  0  0
    1.5209   -2.8349   -0.8802 H   0  0  0  0  0  0  0  0  0  0  0  0
   -3.4379   -0.2474    0.9052 H   0  0  0  0  0  0  0  0  0  0  0  0
   -2.0834   -1.1927    0.2853 H   0  0  0  0  0  0  0  0  0  0  0  0
   -2.9425   -0.0923   -0.8599 H   0  0  0  0  0  0  0  0  0  0  0  0
   -1.1427    1.2391    2.7617 H   0  0  0  0  0  0  0  0  0  0  0  0
    0.2630    0.7131    1.7876 H   0  0  0  0  0  0  0  0  0  0  0  0
   -1.7533    2.8308   -0.5462 H   0  0  0  0  0  0  0  0  0  0  0  0
   -0.1506    1.9080   -0.6970 H   0  0  0  0  0  0  0  0  0  0  0  0
  1  2  1  0
  2  3  1  0
  3  4  3  0
  4  5  1  0
  5  6  1  0
  5  7  1  0
  7  8  1  0
  8  9  1  0
  9  5  1  0
  1 10  1  0
  1 11  1  0
  1 12  1  0
  2 13  1  0
  2 14  1  0
  6 15  1  0
  6 16  1  0
  6 17  1  0
  7 18  1  0
  7 19  1  0
  9 20  1  0
  9 21  1  0
M  END
