
     RDKit          3D

 18 17  0  0  0  0  0  0  0  0999 V2000
   -3.1585    0.1161   -0.1542 C   0  0  0  0  0  0  0  0  0  0  0  0
   -2.1131   -0.8375   -0.7164 C   0  0  0  0  0  0  0  0  0  0  0  0
   -0.7909   -0.3311   -0.3383 C   0  0  0  0  0  0  0  0  0  0  0  0
    0.3054    0.0787   -0.0381 C   0  0  0  0  0  0  0  0  0  0  0  0
    1.6452    0.5587    0.3163 C   0  0  0  0  0  0  0  0  0  0  0  0
    2.6408   -0.0318   -0.6358 C   0  0  0  0  0  0  0  0  0  0  0  0
    1.9780    0.3549    1.7251 C   0  0  0  0  0  0  0  0  0  0  0  0
    1.2613    0.8064    2.5929 O   0  0  0  0  0  0  0  0  0  0  0  0
   -2.7506    0.7449    0.6578 H   0  0  0  0  0  0  0  0  0  0  0  0
   -3.5951    0.7261   -0.9818 H   0  0  0  0  0  0  0  0  0  0  0  0
   -4.0141   -0.4405    0.2862 H   0  0  0  0  0  0  0  0  0  0  0  0
   -2.3290   -1.8294   -0.2834 H   0  0  0  0  0  0  0  0  0  0  0  0
   -2.1896   -0.8985   -1.8191 H   0  0  0  0  0  0  0  0  0  0  0  0
    1.6226    1.6669    0.1216 H   0  0  0  0  0  0  0  0  0  0  0  0
    3.6753    0.2682   -0.4128 H   0  0  0  0  0  0  0  0  0  0  0  0
    2.4080    0.3933   -1.6496 H   0  0  0  0  0  0  0  0  0  0  0  0
    2.5463   -1.1502   -0.6901 H   0  0  0  0  0  0  0  0  0  0  0  0
    2.8581   -0.1953    2.0196 H   0  0  0  0  0  0  0  0  0  0  0  0
  1  2  1  0
  2  3  1  0
  3  4  3  0
  4  5  1  0
  5  6  1  0
  5  7  1  0
  7  8  2  0
  1  9  1  0
  1 10  1  0
  1 11  1  0
  2 12  1  0
  2 13  1  0
  5 14  1  0
  6 15  1  0
  6 16  1  0
  6 17  1  0
  7 18  1  0
M  END
