
     RDKit          3D

 21 20  0  0  0  0  0  0  0  0999 V2000
    3.2870   -1.6670   -1.1154 C   0  0  0  0  0  0  0  0  0  0  0  0
    3.1454   -0.1895   -0.8253 C   0  0  0  0  0  0  0  0  0  0  0  0
    1.8417    0.0419   -0.2055 C   0  0  0  0  0  0  0  0  0  0  0  0
    0.7447    0.2523    0.3008 C   0  0  0  0  0  0  0  0  0  0  0  0
   -0.5557    0.5084    0.9280 C   0  0  0  0  0  0  0  0  0  0  0  0
   -1.5937   -0.0197   -0.0344 C   0  0  0  0  0  0  0  0  0  0  0  0
   -2.9607    0.2220    0.5673 C   0  0  0  0  0  0  0  0  0  0  0  0
   -3.2302    1.6631    0.8114 C   0  0  0  0  0  0  0  0  0  0  0  0
   -2.8497    2.2710    1.7777 O   0  0  0  0  0  0  0  0  0  0  0  0
    3.3024   -2.2901   -0.2149 H   0  0  0  0  0  0  0  0  0  0  0  0
    2.4327   -1.9600   -1.7584 H   0  0  0  0  0  0  0  0  0  0  0  0
    4.2058   -1.7828   -1.7409 H   0  0  0  0  0  0  0  0  0  0  0  0
    3.9790    0.1038   -0.1222 H   0  0  0  0  0  0  0  0  0  0  0  0
    3.2533    0.3333   -1.8005 H   0  0  0  0  0  0  0  0  0  0  0  0
   -0.7380    1.5807    1.0833 H   0  0  0  0  0  0  0  0  0  0  0  0
   -0.6671   -0.0987    1.8583 H   0  0  0  0  0  0  0  0  0  0  0  0
   -1.4626   -1.1157   -0.1481 H   0  0  0  0  0  0  0  0  0  0  0  0
   -1.5081    0.4594   -1.0291 H   0  0  0  0  0  0  0  0  0  0  0  0
   -3.0498   -0.2751    1.5735 H   0  0  0  0  0  0  0  0  0  0  0  0
   -3.7666   -0.2382   -0.0748 H   0  0  0  0  0  0  0  0  0  0  0  0
   -3.8098    2.2010    0.0658 H   0  0  0  0  0  0  0  0  0  0  0  0
  1  2  1  0
  2  3  1  0
  3  4  3  0
  4  5  1  0
  5  6  1  0
  6  7  1  0
  7  8  1  0
  8  9  2  0
  1 10  1  0
  1 11  1  0
  1 12  1  0
  2 13  1  0
  2 14  1  0
  5 15  1  0
  5 16  1  0
  6 17  1  0
  6 18  1  0
  7 19  1  0
  7 20  1  0
  8 21  1  0
M  END
