
     RDKit          3D

 12 11  0  0  0  0  0  0  0  0999 V2000
   -1.7932   -0.8791   -0.3138 C   0  0  0  0  0  0  0  0  0  0  0  0
   -0.8574   -0.5791    0.8138 C   0  0  0  0  0  0  0  0  0  0  0  0
    0.2943    0.1823    0.4313 C   0  0  0  0  0  0  0  0  0  0  0  0
    1.3238    0.8409    0.0802 C   0  0  0  0  0  0  0  0  0  0  0  0
    2.5129    1.5754   -0.3087 C   0  0  0  0  0  0  0  0  0  0  0  0
    3.4656    1.2359    0.6559 O   0  0  0  0  0  0  0  0  0  0  0  0
   -1.2092   -0.7577   -1.2618 H   0  0  0  0  0  0  0  0  0  0  0  0
   -2.1413   -1.9481   -0.2417 H   0  0  0  0  0  0  0  0  0  0  0  0
   -2.5961   -0.1320   -0.3134 H   0  0  0  0  0  0  0  0  0  0  0  0
   -0.4332   -1.5875    1.2174 H   0  0  0  0  0  0  0  0  0  0  0  0
   -1.3579   -0.1533    1.7348 H   0  0  0  0  0  0  0  0  0  0  0  0
    2.7919    2.2023   -1.0075 H   0  0  0  0  0  0  0  0  0  0  0  0
  1  2  1  0
  2  3  1  0
  3  4  3  0
  4  5  1  0
  5  6  2  0
  1  7  1  0
  1  8  1  0
  1  9  1  0
  2 10  1  0
  2 11  1  0
  5 12  1  0
M  END
