
     RDKit          3D

 21 20  0  0  0  0  0  0  0  0999 V2000
    3.6343    0.7035   -0.1207 C   0  0  0  0  0  0  0  0  0  0  0  0
    2.9625   -0.6104    0.1047 C   0  0  0  0  0  0  0  0  0  0  0  0
    1.5435   -0.4242   -0.2219 C   0  0  0  0  0  0  0  0  0  0  0  0
    0.3660   -0.2595   -0.4983 C   0  0  0  0  0  0  0  0  0  0  0  0
   -1.0467   -0.0438   -0.8121 C   0  0  0  0  0  0  0  0  0  0  0  0
   -1.7531   -1.3686   -1.0757 C   0  0  0  0  0  0  0  0  0  0  0  0
   -1.7537    0.6497    0.2877 C   0  0  0  0  0  0  0  0  0  0  0  0
   -3.1970    0.9667    0.1751 C   0  0  0  0  0  0  0  0  0  0  0  0
   -1.1472    0.9617    1.2906 O   0  0  0  0  0  0  0  0  0  0  0  0
    3.1453    1.3521   -0.8596 H   0  0  0  0  0  0  0  0  0  0  0  0
    3.7233    1.2377    0.8635 H   0  0  0  0  0  0  0  0  0  0  0  0
    4.6951    0.4835   -0.4271 H   0  0  0  0  0  0  0  0  0  0  0  0
    3.4206   -1.3825   -0.5433 H   0  0  0  0  0  0  0  0  0  0  0  0
    3.1019   -0.9173    1.1663 H   0  0  0  0  0  0  0  0  0  0  0  0
   -1.0938    0.5249   -1.7636 H   0  0  0  0  0  0  0  0  0  0  0  0
   -1.2940   -1.9045   -1.9311 H   0  0  0  0  0  0  0  0  0  0  0  0
   -1.7824   -2.0018   -0.1600 H   0  0  0  0  0  0  0  0  0  0  0  0
   -2.7999   -1.1313   -1.3234 H   0  0  0  0  0  0  0  0  0  0  0  0
   -3.8111    0.4217    0.9447 H   0  0  0  0  0  0  0  0  0  0  0  0
   -3.2956    2.0743    0.3109 H   0  0  0  0  0  0  0  0  0  0  0  0
   -3.6180    0.6684   -0.8054 H   0  0  0  0  0  0  0  0  0  0  0  0
  1  2  1  0
  2  3  1  0
  3  4  3  0
  4  5  1  0
  5  6  1  0
  5  7  1  0
  7  8  1  0
  7  9  2  0
  1 10  1  0
  1 11  1  0
  1 12  1  0
  2 13  1  0
  2 14  1  0
  5 15  1  0
  6 16  1  0
  6 17  1  0
  6 18  1  0
  8 19  1  0
  8 20  1  0
  8 21  1  0
M  END
