
     RDKit          3D

 18 18  0  0  0  0  0  0  0  0999 V2000
   -2.8191    1.8593    0.5477 C   0  0  0  0  0  0  0  0  0  0  0  0
   -1.3596    1.9201    0.1411 C   0  0  0  0  0  0  0  0  0  0  0  0
   -0.7432    0.5846    0.1621 C   0  0  0  0  0  0  0  0  0  0  0  0
   -0.2203   -0.5085    0.1686 C   0  0  0  0  0  0  0  0  0  0  0  0
    0.4081   -1.8449    0.1530 C   0  0  0  0  0  0  0  0  0  0  0  0
    0.7845   -2.2515   -1.1641 O   0  0  0  0  0  0  0  0  0  0  0  0
    1.7973   -1.9620   -0.1129 C   0  0  0  0  0  0  0  0  0  0  0  0
    2.7056   -0.8887   -0.5906 C   0  0  0  0  0  0  0  0  0  0  0  0
   -3.4532    2.5297   -0.0396 H   0  0  0  0  0  0  0  0  0  0  0  0
   -3.1546    0.8213    0.4113 H   0  0  0  0  0  0  0  0  0  0  0  0
   -2.9503    2.1039    1.6226 H   0  0  0  0  0  0  0  0  0  0  0  0
   -0.8661    2.6002    0.8851 H   0  0  0  0  0  0  0  0  0  0  0  0
   -1.2911    2.2934   -0.8845 H   0  0  0  0  0  0  0  0  0  0  0  0
   -0.1128   -2.6593    0.6858 H   0  0  0  0  0  0  0  0  0  0  0  0
    2.3299   -2.8994    0.2061 H   0  0  0  0  0  0  0  0  0  0  0  0
    2.9014   -0.8709   -1.6632 H   0  0  0  0  0  0  0  0  0  0  0  0
    2.3393    0.1436   -0.3233 H   0  0  0  0  0  0  0  0  0  0  0  0
    3.7043   -0.9709   -0.0823 H   0  0  0  0  0  0  0  0  0  0  0  0
  1  2  1  0
  2  3  1  0
  3  4  3  0
  4  5  1  0
  5  6  1  0
  6  7  1  0
  7  8  1  0
  7  5  1  0
  1  9  1  0
  1 10  1  0
  1 11  1  0
  2 12  1  0
  2 13  1  0
  5 14  1  0
  7 15  1  0
  8 16  1  0
  8 17  1  0
  8 18  1  0
M  END
