
     RDKit          3D

 18 18  0  0  0  0  0  0  0  0999 V2000
   -2.8181    0.1342    1.6136 C   0  0  0  0  0  0  0  0  0  0  0  0
   -1.7234   -0.9123    1.5343 C   0  0  0  0  0  0  0  0  0  0  0  0
   -0.6795   -0.4226    0.6296 C   0  0  0  0  0  0  0  0  0  0  0  0
    0.1768   -0.0118   -0.1406 C   0  0  0  0  0  0  0  0  0  0  0  0
    1.1964    0.5017   -1.0593 C   0  0  0  0  0  0  0  0  0  0  0  0
    0.7582    1.1793   -2.2115 O   0  0  0  0  0  0  0  0  0  0  0  0
    2.5188    0.7805   -0.4753 C   0  0  0  0  0  0  0  0  0  0  0  0
    2.4042   -0.4432   -1.3223 C   0  0  0  0  0  0  0  0  0  0  0  0
   -3.7899   -0.3005    1.8397 H   0  0  0  0  0  0  0  0  0  0  0  0
   -2.5416    0.8571    2.3954 H   0  0  0  0  0  0  0  0  0  0  0  0
   -2.9041    0.6064    0.5981 H   0  0  0  0  0  0  0  0  0  0  0  0
   -1.2666   -1.0966    2.5126 H   0  0  0  0  0  0  0  0  0  0  0  0
   -2.2165   -1.8321    1.1083 H   0  0  0  0  0  0  0  0  0  0  0  0
   -0.0479    0.6581   -2.5210 H   0  0  0  0  0  0  0  0  0  0  0  0
    3.1835    1.5808   -0.8864 H   0  0  0  0  0  0  0  0  0  0  0  0
    2.6477    0.6473    0.6116 H   0  0  0  0  0  0  0  0  0  0  0  0
    2.3085   -1.4554   -0.8392 H   0  0  0  0  0  0  0  0  0  0  0  0
    2.7935   -0.4708   -2.3556 H   0  0  0  0  0  0  0  0  0  0  0  0
  1  2  1  0
  2  3  1  0
  3  4  3  0
  4  5  1  0
  5  6  1  0
  5  7  1  0
  7  8  1  0
  8  5  1  0
  1  9  1  0
  1 10  1  0
  1 11  1  0
  2 12  1  0
  2 13  1  0
  6 14  1  0
  7 15  1  0
  7 16  1  0
  8 17  1  0
  8 18  1  0
M  END
