
     RDKit          3D

 21 20  0  0  0  0  0  0  0  0999 V2000
   -2.5283    2.5650    1.6966 C   0  0  0  0  0  0  0  0  0  0  0  0
   -2.4582    1.2188    2.3283 C   0  0  0  0  0  0  0  0  0  0  0  0
   -1.5108    0.4139    1.4588 C   0  0  0  0  0  0  0  0  0  0  0  0
   -0.7669   -0.1946    0.7985 C   0  0  0  0  0  0  0  0  0  0  0  0
    0.2070   -0.9599   -0.0444 C   0  0  0  0  0  0  0  0  0  0  0  0
    0.3407   -0.2801   -1.2202 O   0  0  0  0  0  0  0  0  0  0  0  0
    1.2137   -0.9520   -2.0570 C   0  0  0  0  0  0  0  0  0  0  0  0
    2.5849   -1.0700   -1.4731 C   0  0  0  0  0  0  0  0  0  0  0  0
    3.4124   -1.7606   -2.3925 O   0  0  0  0  0  0  0  0  0  0  0  0
   -2.9549    3.3246    2.4160 H   0  0  0  0  0  0  0  0  0  0  0  0
   -1.5805    2.9570    1.3069 H   0  0  0  0  0  0  0  0  0  0  0  0
   -3.2645    2.4981    0.8387 H   0  0  0  0  0  0  0  0  0  0  0  0
   -3.4251    0.7004    2.3916 H   0  0  0  0  0  0  0  0  0  0  0  0
   -2.0333    1.2788    3.3456 H   0  0  0  0  0  0  0  0  0  0  0  0
   -0.1907   -2.0076   -0.2006 H   0  0  0  0  0  0  0  0  0  0  0  0
    1.1649   -1.0375    0.5353 H   0  0  0  0  0  0  0  0  0  0  0  0
    1.2591   -0.5176   -3.0808 H   0  0  0  0  0  0  0  0  0  0  0  0
    0.8620   -2.0182   -2.2352 H   0  0  0  0  0  0  0  0  0  0  0  0
    2.5926   -1.7330   -0.5700 H   0  0  0  0  0  0  0  0  0  0  0  0
    3.0216   -0.0846   -1.2562 H   0  0  0  0  0  0  0  0  0  0  0  0
    4.0544   -2.3408   -1.9269 H   0  0  0  0  0  0  0  0  0  0  0  0
  1  2  1  0
  2  3  1  0
  3  4  3  0
  4  5  1  0
  5  6  1  0
  6  7  1  0
  7  8  1  0
  8  9  1  0
  1 10  1  0
  1 11  1  0
  1 12  1  0
  2 13  1  0
  2 14  1  0
  5 15  1  0
  5 16  1  0
  7 17  1  0
  7 18  1  0
  8 19  1  0
  8 20  1  0
  9 21  1  0
M  END
