
     RDKit          3D

 19 19  0  0  0  0  0  0  0  0999 V2000
    2.4383   -2.0288    1.1220 C   0  0  0  0  0  0  0  0  0  0  0  0
    0.9124   -1.9424    1.1663 C   0  0  0  0  0  0  0  0  0  0  0  0
    0.4227   -0.9947    0.2593 C   0  0  0  0  0  0  0  0  0  0  0  0
   -0.0259   -0.1387   -0.5910 C   0  0  0  0  0  0  0  0  0  0  0  0
   -0.5260    0.8020   -1.5610 C   0  0  0  0  0  0  0  0  0  0  0  0
   -1.0291    2.0696   -0.8870 C   0  0  0  0  0  0  0  0  0  0  0  0
   -0.5485    3.2370   -1.3869 O   0  0  0  0  0  0  0  0  0  0  0  0
   -1.9330    1.1321   -1.6683 C   0  0  0  0  0  0  0  0  0  0  0  0
   -2.9670    0.5183   -0.9976 O   0  0  0  0  0  0  0  0  0  0  0  0
    2.7872   -3.0286    0.8981 H   0  0  0  0  0  0  0  0  0  0  0  0
    2.8432   -1.6786    2.0853 H   0  0  0  0  0  0  0  0  0  0  0  0
    2.8491   -1.3017    0.3679 H   0  0  0  0  0  0  0  0  0  0  0  0
    0.5661   -3.0083    0.9850 H   0  0  0  0  0  0  0  0  0  0  0  0
    0.6116   -1.7066    2.2309 H   0  0  0  0  0  0  0  0  0  0  0  0
    0.0647    0.9524   -2.5082 H   0  0  0  0  0  0  0  0  0  0  0  0
   -1.2311    2.0323    0.2115 H   0  0  0  0  0  0  0  0  0  0  0  0
   -0.2351    3.1678   -2.3145 H   0  0  0  0  0  0  0  0  0  0  0  0
   -2.3159    1.6260   -2.6193 H   0  0  0  0  0  0  0  0  0  0  0  0
   -2.6839    0.2908   -0.0975 H   0  0  0  0  0  0  0  0  0  0  0  0
  1  2  1  0
  2  3  1  0
  3  4  3  0
  4  5  1  0
  5  6  1  0
  6  7  1  0
  6  8  1  0
  8  9  1  0
  8  5  1  0
  1 10  1  0
  1 11  1  0
  1 12  1  0
  2 13  1  0
  2 14  1  0
  5 15  1  0
  6 16  1  0
  7 17  1  0
  8 18  1  0
  9 19  1  0
M  END
