
     RDKit          3D

 23 22  0  0  0  0  0  0  0  0999 V2000
   -3.6970    1.2058    0.0208 C   0  0  0  0  0  0  0  0  0  0  0  0
   -3.5520   -0.2774   -0.1677 C   0  0  0  0  0  0  0  0  0  0  0  0
   -2.1252   -0.5466   -0.3775 C   0  0  0  0  0  0  0  0  0  0  0  0
   -0.9375   -0.7579   -0.5672 C   0  0  0  0  0  0  0  0  0  0  0  0
    0.4899   -0.9863   -0.7994 C   0  0  0  0  0  0  0  0  0  0  0  0
    0.8794   -2.2445   -0.2924 O   0  0  0  0  0  0  0  0  0  0  0  0
    1.2941    0.0606   -0.0331 C   0  0  0  0  0  0  0  0  0  0  0  0
    2.7740   -0.1949   -0.2881 C   0  0  0  0  0  0  0  0  0  0  0  0
    3.6129    0.8093    0.4442 C   0  0  0  0  0  0  0  0  0  0  0  0
   -4.6375    1.3515    0.6211 H   0  0  0  0  0  0  0  0  0  0  0  0
   -3.8557    1.7495   -0.9381 H   0  0  0  0  0  0  0  0  0  0  0  0
   -2.8845    1.6632    0.6041 H   0  0  0  0  0  0  0  0  0  0  0  0
   -3.9318   -0.7880    0.7461 H   0  0  0  0  0  0  0  0  0  0  0  0
   -4.1270   -0.5648   -1.0728 H   0  0  0  0  0  0  0  0  0  0  0  0
    0.7429   -0.9821   -1.8698 H   0  0  0  0  0  0  0  0  0  0  0  0
    0.3980   -2.3493    0.5777 H   0  0  0  0  0  0  0  0  0  0  0  0
    1.0222    1.0815   -0.3551 H   0  0  0  0  0  0  0  0  0  0  0  0
    1.0815   -0.0345    1.0506 H   0  0  0  0  0  0  0  0  0  0  0  0
    3.0226   -1.2277   -0.0060 H   0  0  0  0  0  0  0  0  0  0  0  0
    2.9538   -0.0973   -1.3777 H   0  0  0  0  0  0  0  0  0  0  0  0
    4.4512    0.2411    0.9416 H   0  0  0  0  0  0  0  0  0  0  0  0
    2.9785    1.3360    1.1868 H   0  0  0  0  0  0  0  0  0  0  0  0
    4.0473    1.5527   -0.2805 H   0  0  0  0  0  0  0  0  0  0  0  0
  1  2  1  0
  2  3  1  0
  3  4  3  0
  4  5  1  0
  5  6  1  0
  5  7  1  0
  7  8  1  0
  8  9  1  0
  1 10  1  0
  1 11  1  0
  1 12  1  0
  2 13  1  0
  2 14  1  0
  5 15  1  0
  6 16  1  0
  7 17  1  0
  7 18  1  0
  8 19  1  0
  8 20  1  0
  9 21  1  0
  9 22  1  0
  9 23  1  0
M  END
