
     RDKit          3D

 23 22  0  0  0  0  0  0  0  0999 V2000
   -2.1520   -0.2665   -3.7715 C   0  0  0  0  0  0  0  0  0  0  0  0
   -1.9114   -1.6776   -3.0573 C   0  0  0  0  0  0  0  0  0  0  0  0
   -1.1977   -1.6408   -2.0947 C   0  0  0  0  0  0  0  0  0  0  0  0
   -0.3589   -1.6082   -0.9558 C   0  0  0  0  0  0  0  0  0  0  0  0
    0.4785   -1.5511    0.1908 C   0  0  0  0  0  0  0  0  0  0  0  0
    0.6696   -0.4342    0.7762 O   0  0  0  0  0  0  0  0  0  0  0  0
    1.3772    0.2560    1.4993 C   0  0  0  0  0  0  0  0  0  0  0  0
    0.6992    1.5720    2.0119 C   0  0  0  0  0  0  0  0  0  0  0  0
    1.8700    2.3763    2.6094 C   0  0  0  0  0  0  0  0  0  0  0  0
   -1.5808   -0.1903   -4.7015 H   0  0  0  0  0  0  0  0  0  0  0  0
   -3.2259   -0.1173   -3.8082 H   0  0  0  0  0  0  0  0  0  0  0  0
   -1.7930    0.5203   -3.0308 H   0  0  0  0  0  0  0  0  0  0  0  0
   -3.0009   -2.0424   -3.0201 H   0  0  0  0  0  0  0  0  0  0  0  0
   -1.5275   -2.2870   -4.0230 H   0  0  0  0  0  0  0  0  0  0  0  0
   -0.3247   -2.0098    1.1380 H   0  0  0  0  0  0  0  0  0  0  0  0
    1.1602   -2.4053    0.2704 H   0  0  0  0  0  0  0  0  0  0  0  0
    2.3951    0.5619    1.0744 H   0  0  0  0  0  0  0  0  0  0  0  0
    1.7425   -0.2394    2.5079 H   0  0  0  0  0  0  0  0  0  0  0  0
    0.0456    1.3260    2.9120 H   0  0  0  0  0  0  0  0  0  0  0  0
    0.1994    2.0979    1.2565 H   0  0  0  0  0  0  0  0  0  0  0  0
    1.4771    3.2082    3.2179 H   0  0  0  0  0  0  0  0  0  0  0  0
    2.3363    2.8069    1.6598 H   0  0  0  0  0  0  0  0  0  0  0  0
    2.6220    1.7445    3.0613 H   0  0  0  0  0  0  0  0  0  0  0  0
  1  2  1  0
  2  3  1  0
  3  4  3  0
  4  5  1  0
  5  6  1  0
  6  7  1  0
  7  8  1  0
  8  9  1  0
  1 10  1  0
  1 11  1  0
  1 12  1  0
  2 13  1  0
  2 14  1  0
  5 15  1  0
  5 16  1  0
  7 17  1  0
  7 18  1  0
  8 19  1  0
  8 20  1  0
  9 21  1  0
  9 22  1  0
  9 23  1  0
M  END
