
     RDKit          3D

 23 22  0  0  0  0  0  0  0  0999 V2000
    3.9158    0.0368    0.1195 C   0  0  0  0  0  0  0  0  0  0  0  0
    3.0705   -1.2205    0.1678 C   0  0  0  0  0  0  0  0  0  0  0  0
    1.6413   -0.8872    0.2620 C   0  0  0  0  0  0  0  0  0  0  0  0
    0.4730   -0.5940    0.3337 C   0  0  0  0  0  0  0  0  0  0  0  0
   -0.9557   -0.2303    0.4460 C   0  0  0  0  0  0  0  0  0  0  0  0
   -1.0920    1.0285    1.2857 C   0  0  0  0  0  0  0  0  0  0  0  0
   -1.4371    0.0955   -0.9390 C   0  0  0  0  0  0  0  0  0  0  0  0
   -2.9179    0.4748   -0.8380 C   0  0  0  0  0  0  0  0  0  0  0  0
   -3.6553   -0.5838   -0.3159 O   0  0  0  0  0  0  0  0  0  0  0  0
    4.9749   -0.2833    0.1538 H   0  0  0  0  0  0  0  0  0  0  0  0
    3.6960    0.6402    1.0204 H   0  0  0  0  0  0  0  0  0  0  0  0
    3.7688    0.5892   -0.8252 H   0  0  0  0  0  0  0  0  0  0  0  0
    3.4194   -1.8016    1.0537 H   0  0  0  0  0  0  0  0  0  0  0  0
    3.2225   -1.8533   -0.7102 H   0  0  0  0  0  0  0  0  0  0  0  0
   -1.5656   -1.0557    0.8389 H   0  0  0  0  0  0  0  0  0  0  0  0
   -2.1259    1.0741    1.6432 H   0  0  0  0  0  0  0  0  0  0  0  0
   -0.7465    1.9079    0.7422 H   0  0  0  0  0  0  0  0  0  0  0  0
   -0.4256    0.8783    2.1855 H   0  0  0  0  0  0  0  0  0  0  0  0
   -1.4255   -0.8156   -1.5999 H   0  0  0  0  0  0  0  0  0  0  0  0
   -0.8588    0.8606   -1.4580 H   0  0  0  0  0  0  0  0  0  0  0  0
   -3.0606    1.3360   -0.1511 H   0  0  0  0  0  0  0  0  0  0  0  0
   -3.3068    0.8130   -1.8288 H   0  0  0  0  0  0  0  0  0  0  0  0
   -4.6089   -0.4096   -0.6007 H   0  0  0  0  0  0  0  0  0  0  0  0
  1  2  1  0
  2  3  1  0
  3  4  3  0
  4  5  1  0
  5  6  1  0
  5  7  1  0
  7  8  1  0
  8  9  1  0
  1 10  1  0
  1 11  1  0
  1 12  1  0
  2 13  1  0
  2 14  1  0
  5 15  1  0
  6 16  1  0
  6 17  1  0
  6 18  1  0
  7 19  1  0
  7 20  1  0
  8 21  1  0
  8 22  1  0
  9 23  1  0
M  END
