
     RDKit          3D

 19 19  0  0  0  0  0  0  0  0999 V2000
    3.4065   -0.8522   -0.3437 C   0  0  0  0  0  0  0  0  0  0  0  0
    2.1407   -1.5181   -0.8537 C   0  0  0  0  0  0  0  0  0  0  0  0
    1.0127   -0.7365   -0.3081 C   0  0  0  0  0  0  0  0  0  0  0  0
    0.0903   -0.0871    0.1200 C   0  0  0  0  0  0  0  0  0  0  0  0
   -1.0495    0.7030    0.6325 C   0  0  0  0  0  0  0  0  0  0  0  0
   -1.7108    1.4820   -0.4720 C   0  0  0  0  0  0  0  0  0  0  0  0
   -2.9523    0.8524   -0.6882 O   0  0  0  0  0  0  0  0  0  0  0  0
   -3.2171    0.3941    0.6226 C   0  0  0  0  0  0  0  0  0  0  0  0
   -2.0184   -0.1780    1.0462 O   0  0  0  0  0  0  0  0  0  0  0  0
    3.2634    0.2381   -0.2098 H   0  0  0  0  0  0  0  0  0  0  0  0
    3.7492   -1.3495    0.5722 H   0  0  0  0  0  0  0  0  0  0  0  0
    4.1791   -0.9938   -1.1355 H   0  0  0  0  0  0  0  0  0  0  0  0
    2.1173   -1.5702   -1.9434 H   0  0  0  0  0  0  0  0  0  0  0  0
    2.0839   -2.5788   -0.4811 H   0  0  0  0  0  0  0  0  0  0  0  0
   -0.6570    1.3531    1.4369 H   0  0  0  0  0  0  0  0  0  0  0  0
   -1.1263    1.3290   -1.3904 H   0  0  0  0  0  0  0  0  0  0  0  0
   -1.8514    2.5596   -0.2191 H   0  0  0  0  0  0  0  0  0  0  0  0
   -3.4184    1.2813    1.2459 H   0  0  0  0  0  0  0  0  0  0  0  0
   -4.0419   -0.3284    0.5941 H   0  0  0  0  0  0  0  0  0  0  0  0
  1  2  1  0
  2  3  1  0
  3  4  3  0
  4  5  1  0
  5  6  1  0
  6  7  1  0
  7  8  1  0
  8  9  1  0
  9  5  1  0
  1 10  1  0
  1 11  1  0
  1 12  1  0
  2 13  1  0
  2 14  1  0
  5 15  1  0
  6 16  1  0
  6 17  1  0
  8 18  1  0
  8 19  1  0
M  END
