
     RDKit          3D

 21 20  0  0  0  0  0  0  0  0999 V2000
    3.3926   -0.9518    0.2091 C   0  0  0  0  0  0  0  0  0  0  0  0
    2.3783   -0.0629    0.9251 C   0  0  0  0  0  0  0  0  0  0  0  0
    1.0799   -0.1593    0.2518 C   0  0  0  0  0  0  0  0  0  0  0  0
   -0.0030   -0.2185   -0.3063 C   0  0  0  0  0  0  0  0  0  0  0  0
   -1.3175   -0.2738   -0.9613 C   0  0  0  0  0  0  0  0  0  0  0  0
   -1.9375   -1.4875   -0.7730 O   0  0  0  0  0  0  0  0  0  0  0  0
   -2.1117    0.8822   -0.3975 C   0  0  0  0  0  0  0  0  0  0  0  0
   -2.2809    0.6958    1.0900 C   0  0  0  0  0  0  0  0  0  0  0  0
   -1.4109    2.0425   -0.6354 O   0  0  0  0  0  0  0  0  0  0  0  0
    3.7469   -0.3844   -0.6551 H   0  0  0  0  0  0  0  0  0  0  0  0
    2.7840   -1.8152   -0.1904 H   0  0  0  0  0  0  0  0  0  0  0  0
    4.1531   -1.3526    0.8698 H   0  0  0  0  0  0  0  0  0  0  0  0
    2.2489   -0.3947    1.9676 H   0  0  0  0  0  0  0  0  0  0  0  0
    2.7208    0.9892    0.8791 H   0  0  0  0  0  0  0  0  0  0  0  0
   -1.2231   -0.0657   -2.0661 H   0  0  0  0  0  0  0  0  0  0  0  0
   -1.5270   -2.0303   -0.0541 H   0  0  0  0  0  0  0  0  0  0  0  0
   -3.1125    0.8746   -0.8797 H   0  0  0  0  0  0  0  0  0  0  0  0
   -1.6203    1.3863    1.6507 H   0  0  0  0  0  0  0  0  0  0  0  0
   -1.9681   -0.3436    1.3690 H   0  0  0  0  0  0  0  0  0  0  0  0
   -3.3485    0.7761    1.3903 H   0  0  0  0  0  0  0  0  0  0  0  0
   -0.6432    1.8938   -1.2244 H   0  0  0  0  0  0  0  0  0  0  0  0
  1  2  1  0
  2  3  1  0
  3  4  3  0
  4  5  1  0
  5  6  1  0
  5  7  1  0
  7  8  1  0
  7  9  1  0
  1 10  1  0
  1 11  1  0
  1 12  1  0
  2 13  1  0
  2 14  1  0
  5 15  1  0
  6 16  1  0
  7 17  1  0
  8 18  1  0
  8 19  1  0
  8 20  1  0
  9 21  1  0
M  END
