
     RDKit          3D

 19 19  0  0  0  0  0  0  0  0999 V2000
    3.3079   -0.0215    0.4697 C   0  0  0  0  0  0  0  0  0  0  0  0
    2.6959   -0.0688   -0.9090 C   0  0  0  0  0  0  0  0  0  0  0  0
    1.2522    0.1510   -0.7678 C   0  0  0  0  0  0  0  0  0  0  0  0
    0.0541    0.3300   -0.6296 C   0  0  0  0  0  0  0  0  0  0  0  0
   -1.3618    0.5661   -0.4721 C   0  0  0  0  0  0  0  0  0  0  0  0
   -1.6109    1.3911    0.6140 O   0  0  0  0  0  0  0  0  0  0  0  0
   -2.8246    0.6815    0.7764 C   0  0  0  0  0  0  0  0  0  0  0  0
   -2.0552   -0.5498    0.3062 C   0  0  0  0  0  0  0  0  0  0  0  0
   -2.7403   -1.4039   -0.5105 O   0  0  0  0  0  0  0  0  0  0  0  0
    2.6964    0.6467    1.1017 H   0  0  0  0  0  0  0  0  0  0  0  0
    3.2803   -1.0766    0.8661 H   0  0  0  0  0  0  0  0  0  0  0  0
    4.3579    0.2880    0.4073 H   0  0  0  0  0  0  0  0  0  0  0  0
    3.1750    0.7654   -1.5009 H   0  0  0  0  0  0  0  0  0  0  0  0
    2.9167   -1.0199   -1.4351 H   0  0  0  0  0  0  0  0  0  0  0  0
   -1.9080    0.9024   -1.3672 H   0  0  0  0  0  0  0  0  0  0  0  0
   -3.1297    0.5752    1.8157 H   0  0  0  0  0  0  0  0  0  0  0  0
   -3.5998    0.9324    0.0358 H   0  0  0  0  0  0  0  0  0  0  0  0
   -1.3704   -0.9568    1.0468 H   0  0  0  0  0  0  0  0  0  0  0  0
   -3.1357   -2.1328    0.0526 H   0  0  0  0  0  0  0  0  0  0  0  0
  1  2  1  0
  2  3  1  0
  3  4  3  0
  4  5  1  0
  5  6  1  0
  6  7  1  0
  7  8  1  0
  8  9  1  0
  8  5  1  0
  1 10  1  0
  1 11  1  0
  1 12  1  0
  2 13  1  0
  2 14  1  0
  5 15  1  0
  7 16  1  0
  7 17  1  0
  8 18  1  0
  9 19  1  0
M  END
