
     RDKit          3D

 17 17  0  0  0  0  0  0  0  0999 V2000
   -3.2377    0.1894    0.0898 C   0  0  0  0  0  0  0  0  0  0  0  0
   -2.1846   -0.8862    0.4009 C   0  0  0  0  0  0  0  0  0  0  0  0
   -0.8637   -0.4334   -0.0425 C   0  0  0  0  0  0  0  0  0  0  0  0
    0.2221   -0.0419   -0.4204 C   0  0  0  0  0  0  0  0  0  0  0  0
    1.5265    0.4548   -0.8838 C   0  0  0  0  0  0  0  0  0  0  0  0
    2.6163   -0.3654   -0.2391 C   0  0  0  0  0  0  0  0  0  0  0  0
    3.2922    0.9570   -0.1981 C   0  0  0  0  0  0  0  0  0  0  0  0
    4.4557    1.4346   -0.2461 O   0  0  0  0  0  0  0  0  0  0  0  0
    2.0193    1.5302   -0.0733 O   0  0  0  0  0  0  0  0  0  0  0  0
   -3.1993    0.8977    0.9220 H   0  0  0  0  0  0  0  0  0  0  0  0
   -4.2064   -0.2715   -0.0963 H   0  0  0  0  0  0  0  0  0  0  0  0
   -2.8963    0.7133   -0.8363 H   0  0  0  0  0  0  0  0  0  0  0  0
   -2.4517   -1.8145   -0.1275 H   0  0  0  0  0  0  0  0  0  0  0  0
   -2.1825   -1.0822    1.4919 H   0  0  0  0  0  0  0  0  0  0  0  0
    1.6201    0.5984   -1.9575 H   0  0  0  0  0  0  0  0  0  0  0  0
    3.1188   -1.0920   -0.9201 H   0  0  0  0  0  0  0  0  0  0  0  0
    2.3510   -0.7882    0.7395 H   0  0  0  0  0  0  0  0  0  0  0  0
  1  2  1  0
  2  3  1  0
  3  4  3  0
  4  5  1  0
  5  6  1  0
  6  7  1  0
  7  8  2  0
  7  9  1  0
  9  5  1  0
  1 10  1  0
  1 11  1  0
  1 12  1  0
  2 13  1  0
  2 14  1  0
  5 15  1  0
  6 16  1  0
  6 17  1  0
M  END
