
     RDKit          3D

 22 21  0  0  0  0  0  0  0  0999 V2000
    3.0119    0.6001    1.4377 C   0  0  0  0  0  0  0  0  0  0  0  0
    2.9955    0.8989   -0.0632 C   0  0  0  0  0  0  0  0  0  0  0  0
    1.6422    0.6841   -0.5836 C   0  0  0  0  0  0  0  0  0  0  0  0
    0.5121    0.4864   -1.0072 C   0  0  0  0  0  0  0  0  0  0  0  0
   -0.8391    0.2380   -1.5102 C   0  0  0  0  0  0  0  0  0  0  0  0
   -1.7026   -0.1018   -0.3100 C   0  0  0  0  0  0  0  0  0  0  0  0
   -3.1024   -0.3557   -0.8593 C   0  0  0  0  0  0  0  0  0  0  0  0
   -1.2125   -1.3181    0.4177 C   0  0  0  0  0  0  0  0  0  0  0  0
    2.9624   -0.5189    1.5059 H   0  0  0  0  0  0  0  0  0  0  0  0
    2.1415    1.0888    1.9206 H   0  0  0  0  0  0  0  0  0  0  0  0
    3.9787    0.9828    1.8152 H   0  0  0  0  0  0  0  0  0  0  0  0
    3.7437    0.2423   -0.5644 H   0  0  0  0  0  0  0  0  0  0  0  0
    3.2695    1.9413   -0.2702 H   0  0  0  0  0  0  0  0  0  0  0  0
   -1.2883    1.1431   -1.9685 H   0  0  0  0  0  0  0  0  0  0  0  0
   -0.8132   -0.6139   -2.2172 H   0  0  0  0  0  0  0  0  0  0  0  0
   -1.7024    0.7965    0.3444 H   0  0  0  0  0  0  0  0  0  0  0  0
   -3.6436   -0.9144   -0.0673 H   0  0  0  0  0  0  0  0  0  0  0  0
   -3.5987    0.5884   -1.1120 H   0  0  0  0  0  0  0  0  0  0  0  0
   -3.0072   -1.0230   -1.7636 H   0  0  0  0  0  0  0  0  0  0  0  0
   -0.3440   -1.0761    1.0569 H   0  0  0  0  0  0  0  0  0  0  0  0
   -0.9425   -2.0879   -0.3224 H   0  0  0  0  0  0  0  0  0  0  0  0
   -2.0611   -1.6807    1.0503 H   0  0  0  0  0  0  0  0  0  0  0  0
  1  2  1  0
  2  3  1  0
  3  4  3  0
  4  5  1  0
  5  6  1  0
  6  7  1  0
  6  8  1  0
  1  9  1  0
  1 10  1  0
  1 11  1  0
  2 12  1  0
  2 13  1  0
  5 14  1  0
  5 15  1  0
  6 16  1  0
  7 17  1  0
  7 18  1  0
  7 19  1  0
  8 20  1  0
  8 21  1  0
  8 22  1  0
M  END
