
     RDKit          3D

 21 21  0  0  0  0  0  0  0  0999 V2000
    2.3956    2.0433    2.0094 C   0  0  0  0  0  0  0  0  0  0  0  0
    2.7505    1.8896    0.4673 C   0  0  0  0  0  0  0  0  0  0  0  0
    1.4469    1.2862   -0.0843 C   0  0  0  0  0  0  0  0  0  0  0  0
    0.3572    0.7675   -0.5682 C   0  0  0  0  0  0  0  0  0  0  0  0
   -0.7336    0.2403   -1.0773 C   0  0  0  0  0  0  0  0  0  0  0  0
   -1.5041   -0.7079   -0.2454 C   0  0  0  0  0  0  0  0  0  0  0  0
   -2.8782   -1.2125   -0.6444 C   0  0  0  0  0  0  0  0  0  0  0  0
   -1.7254   -2.0495   -0.9895 C   0  0  0  0  0  0  0  0  0  0  0  0
   -1.4193   -3.2101   -0.2910 O   0  0  0  0  0  0  0  0  0  0  0  0
    3.0073    2.8301    2.4499 H   0  0  0  0  0  0  0  0  0  0  0  0
    1.3074    2.2472    2.0608 H   0  0  0  0  0  0  0  0  0  0  0  0
    2.6882    1.0851    2.5036 H   0  0  0  0  0  0  0  0  0  0  0  0
    3.6187    1.3412    0.2976 H   0  0  0  0  0  0  0  0  0  0  0  0
    2.7195    2.8699    0.0203 H   0  0  0  0  0  0  0  0  0  0  0  0
   -1.0777    0.4833   -2.1254 H   0  0  0  0  0  0  0  0  0  0  0  0
   -0.0020   -0.7667   -1.7164 H   0  0  0  0  0  0  0  0  0  0  0  0
   -1.1775   -0.8768    0.7827 H   0  0  0  0  0  0  0  0  0  0  0  0
   -3.5210   -1.5069    0.2512 H   0  0  0  0  0  0  0  0  0  0  0  0
   -3.4957   -0.6580   -1.3659 H   0  0  0  0  0  0  0  0  0  0  0  0
   -1.3781   -2.1121   -2.0442 H   0  0  0  0  0  0  0  0  0  0  0  0
   -1.3789   -3.9832   -0.9133 H   0  0  0  0  0  0  0  0  0  0  0  0
  1  2  1  0
  2  3  1  0
  3  4  3  0
  4  5  1  0
  5  6  1  0
  6  7  1  0
  7  8  1  0
  8  9  1  0
  8  6  1  0
  1 10  1  0
  1 11  1  0
  1 12  1  0
  2 13  1  0
  2 14  1  0
  5 15  1  0
  5 16  1  0
  6 17  1  0
  7 18  1  0
  7 19  1  0
  8 20  1  0
  9 21  1  0
M  END
