
     RDKit          3D

 17 17  0  0  0  0  0  0  0  0999 V2000
   -3.0363    0.0020   -0.5393 C   0  0  0  0  0  0  0  0  0  0  0  0
   -1.8302    0.4851   -1.3580 C   0  0  0  0  0  0  0  0  0  0  0  0
   -0.6048    0.1601   -0.5365 C   0  0  0  0  0  0  0  0  0  0  0  0
    0.4181   -0.1001    0.1248 C   0  0  0  0  0  0  0  0  0  0  0  0
    1.5928   -0.3955    0.8915 C   0  0  0  0  0  0  0  0  0  0  0  0
    2.7884   -0.8369    0.1326 C   0  0  0  0  0  0  0  0  0  0  0  0
    2.9823   -2.1367    0.3274 O   0  0  0  0  0  0  0  0  0  0  0  0
    1.9730    0.6343    1.9714 C   0  0  0  0  0  0  0  0  0  0  0  0
    1.5105   -0.6712    2.2514 O   0  0  0  0  0  0  0  0  0  0  0  0
   -2.6463   -0.5266    0.4039 H   0  0  0  0  0  0  0  0  0  0  0  0
   -3.6467   -0.7737   -1.0541 H   0  0  0  0  0  0  0  0  0  0  0  0
   -3.6435    0.8629   -0.2185 H   0  0  0  0  0  0  0  0  0  0  0  0
   -1.6949   -0.1531   -2.2752 H   0  0  0  0  0  0  0  0  0  0  0  0
   -1.8822    1.4953   -1.6957 H   0  0  0  0  0  0  0  0  0  0  0  0
    3.4656   -0.3955   -0.4591 H   0  0  0  0  0  0  0  0  0  0  0  0
    3.0179    0.8500    2.1899 H   0  0  0  0  0  0  0  0  0  0  0  0
    1.2363    1.4995    2.1250 H   0  0  0  0  0  0  0  0  0  0  0  0
  1  2  1  0
  2  3  1  0
  3  4  3  0
  4  5  1  0
  5  6  1  0
  6  7  2  0
  5  8  1  0
  8  9  1  0
  9  5  1  0
  1 10  1  0
  1 11  1  0
  1 12  1  0
  2 13  1  0
  2 14  1  0
  6 15  1  0
  8 16  1  0
  8 17  1  0
M  END
