
     RDKit          3D

 18 17  0  0  0  0  0  0  0  0999 V2000
   -2.8429    0.0014    1.0155 C   0  0  0  0  0  0  0  0  0  0  0  0
   -2.3989   -0.7550   -0.2124 C   0  0  0  0  0  0  0  0  0  0  0  0
   -0.9582   -0.5376   -0.3557 C   0  0  0  0  0  0  0  0  0  0  0  0
    0.2399   -0.3778   -0.4732 C   0  0  0  0  0  0  0  0  0  0  0  0
    1.6978   -0.2002   -0.5972 C   0  0  0  0  0  0  0  0  0  0  0  0
    2.2756   -1.3497   -0.0627 O   0  0  0  0  0  0  0  0  0  0  0  0
    2.0827    1.0348    0.1929 C   0  0  0  0  0  0  0  0  0  0  0  0
    3.4866    1.1575    0.1506 O   0  0  0  0  0  0  0  0  0  0  0  0
   -3.7657   -0.4977    1.3866 H   0  0  0  0  0  0  0  0  0  0  0  0
   -3.0988    1.0361    0.6745 H   0  0  0  0  0  0  0  0  0  0  0  0
   -2.0682    0.0804    1.7895 H   0  0  0  0  0  0  0  0  0  0  0  0
   -2.9681   -0.4117   -1.1047 H   0  0  0  0  0  0  0  0  0  0  0  0
   -2.5654   -1.8533   -0.0466 H   0  0  0  0  0  0  0  0  0  0  0  0
    2.0188   -0.1329   -1.6491 H   0  0  0  0  0  0  0  0  0  0  0  0
    1.7348   -1.5817    0.7443 H   0  0  0  0  0  0  0  0  0  0  0  0
    1.6334    1.9224   -0.2849 H   0  0  0  0  0  0  0  0  0  0  0  0
    1.7151    0.9571    1.2216 H   0  0  0  0  0  0  0  0  0  0  0  0
    3.7817    1.5078   -0.7105 H   0  0  0  0  0  0  0  0  0  0  0  0
  1  2  1  0
  2  3  1  0
  3  4  3  0
  4  5  1  0
  5  6  1  0
  5  7  1  0
  7  8  1  0
  1  9  1  0
  1 10  1  0
  1 11  1  0
  2 12  1  0
  2 13  1  0
  5 14  1  0
  6 15  1  0
  7 16  1  0
  7 17  1  0
  8 18  1  0
M  END
