
     RDKit          3D

 25 24  0  0  0  0  0  0  0  0999 V2000
    3.7588    1.3254   -0.3922 C   0  0  0  0  0  0  0  0  0  0  0  0
    3.2095    0.3058    0.5902 C   0  0  0  0  0  0  0  0  0  0  0  0
    1.7584    0.1628    0.4455 C   0  0  0  0  0  0  0  0  0  0  0  0
    0.5689    0.0356    0.3083 C   0  0  0  0  0  0  0  0  0  0  0  0
   -0.8810   -0.0992    0.1541 C   0  0  0  0  0  0  0  0  0  0  0  0
   -1.4622   -0.4100    1.5006 C   0  0  0  0  0  0  0  0  0  0  0  0
   -1.4937    1.1724   -0.4016 C   0  0  0  0  0  0  0  0  0  0  0  0
   -1.1763   -1.2036   -0.8390 C   0  0  0  0  0  0  0  0  0  0  0  0
   -2.6401   -1.4032   -1.0513 C   0  0  0  0  0  0  0  0  0  0  0  0
    4.8472    1.1995   -0.5012 H   0  0  0  0  0  0  0  0  0  0  0  0
    3.3175    1.0678   -1.3896 H   0  0  0  0  0  0  0  0  0  0  0  0
    3.4589    2.3484   -0.1666 H   0  0  0  0  0  0  0  0  0  0  0  0
    3.7452   -0.6571    0.3907 H   0  0  0  0  0  0  0  0  0  0  0  0
    3.4108    0.5648    1.6371 H   0  0  0  0  0  0  0  0  0  0  0  0
   -2.5669   -0.1974    1.4271 H   0  0  0  0  0  0  0  0  0  0  0  0
   -1.0505    0.2379    2.2817 H   0  0  0  0  0  0  0  0  0  0  0  0
   -1.3845   -1.4998    1.7605 H   0  0  0  0  0  0  0  0  0  0  0  0
   -1.1692    1.3719   -1.4270 H   0  0  0  0  0  0  0  0  0  0  0  0
   -1.2597    2.0278    0.2636 H   0  0  0  0  0  0  0  0  0  0  0  0
   -2.5876    1.0475   -0.4164 H   0  0  0  0  0  0  0  0  0  0  0  0
   -0.6931   -2.1215   -0.5030 H   0  0  0  0  0  0  0  0  0  0  0  0
   -0.7031   -0.8960   -1.7969 H   0  0  0  0  0  0  0  0  0  0  0  0
   -3.1229   -1.4982   -0.0530 H   0  0  0  0  0  0  0  0  0  0  0  0
   -3.1098   -0.5678   -1.5888 H   0  0  0  0  0  0  0  0  0  0  0  0
   -2.7748   -2.3141   -1.6684 H   0  0  0  0  0  0  0  0  0  0  0  0
  1  2  1  0
  2  3  1  0
  3  4  3  0
  4  5  1  0
  5  6  1  0
  5  7  1  0
  5  8  1  0
  8  9  1  0
  1 10  1  0
  1 11  1  0
  1 12  1  0
  2 13  1  0
  2 14  1  0
  6 15  1  0
  6 16  1  0
  6 17  1  0
  7 18  1  0
  7 19  1  0
  7 20  1  0
  8 21  1  0
  8 22  1  0
  9 23  1  0
  9 24  1  0
  9 25  1  0
M  END
