
     RDKit          3D

 23 22  0  0  0  0  0  0  0  0999 V2000
    2.9203    1.0071   -2.2552 C   0  0  0  0  0  0  0  0  0  0  0  0
    2.6317    0.7231   -0.8010 C   0  0  0  0  0  0  0  0  0  0  0  0
    1.4212   -0.0861   -0.6635 C   0  0  0  0  0  0  0  0  0  0  0  0
    0.3959   -0.7637   -0.5680 C   0  0  0  0  0  0  0  0  0  0  0  0
   -0.8013   -1.5697   -0.4779 C   0  0  0  0  0  0  0  0  0  0  0  0
   -1.9880   -0.8372   -0.0072 C   0  0  0  0  0  0  0  0  0  0  0  0
   -1.8918   -0.3034    1.3755 C   0  0  0  0  0  0  0  0  0  0  0  0
   -0.7712    0.6803    1.5148 C   0  0  0  0  0  0  0  0  0  0  0  0
   -3.0970    0.3643    1.7304 O   0  0  0  0  0  0  0  0  0  0  0  0
    2.6911    2.0776   -2.4994 H   0  0  0  0  0  0  0  0  0  0  0  0
    2.3486    0.3392   -2.9389 H   0  0  0  0  0  0  0  0  0  0  0  0
    4.0216    0.8843   -2.3969 H   0  0  0  0  0  0  0  0  0  0  0  0
    2.4905    1.6948   -0.2519 H   0  0  0  0  0  0  0  0  0  0  0  0
    3.5027    0.2355   -0.2790 H   0  0  0  0  0  0  0  0  0  0  0  0
   -0.6235   -2.4698    0.2071 H   0  0  0  0  0  0  0  0  0  0  0  0
   -0.9601   -2.0765   -1.4701 H   0  0  0  0  0  0  0  0  0  0  0  0
   -2.8886   -1.5383   -0.0406 H   0  0  0  0  0  0  0  0  0  0  0  0
   -2.2473   -0.0034   -0.7448 H   0  0  0  0  0  0  0  0  0  0  0  0
   -1.7684   -1.1657    2.1052 H   0  0  0  0  0  0  0  0  0  0  0  0
    0.1270    0.1078    1.8122 H   0  0  0  0  0  0  0  0  0  0  0  0
   -0.6546    1.2826    0.6163 H   0  0  0  0  0  0  0  0  0  0  0  0
   -1.0016    1.4095    2.3653 H   0  0  0  0  0  0  0  0  0  0  0  0
   -3.8575    0.0077    1.1849 H   0  0  0  0  0  0  0  0  0  0  0  0
  1  2  1  0
  2  3  1  0
  3  4  3  0
  4  5  1  0
  5  6  1  0
  6  7  1  0
  7  8  1  0
  7  9  1  0
  1 10  1  0
  1 11  1  0
  1 12  1  0
  2 13  1  0
  2 14  1  0
  5 15  1  0
  5 16  1  0
  6 17  1  0
  6 18  1  0
  7 19  1  0
  8 20  1  0
  8 21  1  0
  8 22  1  0
  9 23  1  0
M  END
