
     RDKit          3D

 19 18  0  0  0  0  0  0  0  0999 V2000
   -2.8655    1.4820   -0.6726 C   0  0  0  0  0  0  0  0  0  0  0  0
   -2.5496    0.5463    0.4928 C   0  0  0  0  0  0  0  0  0  0  0  0
   -1.0878    0.5686    0.6451 C   0  0  0  0  0  0  0  0  0  0  0  0
    0.1065    0.5928    0.7898 C   0  0  0  0  0  0  0  0  0  0  0  0
    1.5687    0.6300    0.9917 C   0  0  0  0  0  0  0  0  0  0  0  0
    2.0725   -0.5785    0.4765 O   0  0  0  0  0  0  0  0  0  0  0  0
    1.9143   -0.9521   -0.8496 C   0  0  0  0  0  0  0  0  0  0  0  0
    2.4564   -2.2393   -1.3783 C   0  0  0  0  0  0  0  0  0  0  0  0
    1.2902   -0.1576   -1.5995 O   0  0  0  0  0  0  0  0  0  0  0  0
   -2.9364    2.5006   -0.2426 H   0  0  0  0  0  0  0  0  0  0  0  0
   -2.0143    1.5047   -1.3959 H   0  0  0  0  0  0  0  0  0  0  0  0
   -3.7804    1.1812   -1.2094 H   0  0  0  0  0  0  0  0  0  0  0  0
   -3.0548    0.9517    1.3934 H   0  0  0  0  0  0  0  0  0  0  0  0
   -2.8340   -0.5008    0.2661 H   0  0  0  0  0  0  0  0  0  0  0  0
    1.7858    0.6159    2.0985 H   0  0  0  0  0  0  0  0  0  0  0  0
    2.0248    1.5279    0.5223 H   0  0  0  0  0  0  0  0  0  0  0  0
    1.8408   -3.0983   -1.1045 H   0  0  0  0  0  0  0  0  0  0  0  0
    3.4523   -2.3680   -0.9066 H   0  0  0  0  0  0  0  0  0  0  0  0
    2.6106   -2.2071   -2.4589 H   0  0  0  0  0  0  0  0  0  0  0  0
  1  2  1  0
  2  3  1  0
  3  4  3  0
  4  5  1  0
  5  6  1  0
  6  7  1  0
  7  8  1  0
  7  9  2  0
  1 10  1  0
  1 11  1  0
  1 12  1  0
  2 13  1  0
  2 14  1  0
  5 15  1  0
  5 16  1  0
  8 17  1  0
  8 18  1  0
  8 19  1  0
M  END
