
     RDKit          3D

 19 19  0  0  0  0  0  0  0  0999 V2000
    3.4321    0.4754   -0.6768 C   0  0  0  0  0  0  0  0  0  0  0  0
    2.7989   -0.1280    0.5840 C   0  0  0  0  0  0  0  0  0  0  0  0
    1.3518    0.0961    0.5514 C   0  0  0  0  0  0  0  0  0  0  0  0
    0.1415    0.2734    0.5080 C   0  0  0  0  0  0  0  0  0  0  0  0
   -1.3027    0.5097    0.4636 C   0  0  0  0  0  0  0  0  0  0  0  0
   -1.7731    0.2129   -0.8996 C   0  0  0  0  0  0  0  0  0  0  0  0
   -2.8493   -0.5409   -0.7747 C   0  0  0  0  0  0  0  0  0  0  0  0
   -3.1334   -0.7723    0.6724 C   0  0  0  0  0  0  0  0  0  0  0  0
   -1.9864   -0.3728    1.3158 O   0  0  0  0  0  0  0  0  0  0  0  0
    3.3185    1.5601   -0.6877 H   0  0  0  0  0  0  0  0  0  0  0  0
    4.5031    0.2290   -0.7318 H   0  0  0  0  0  0  0  0  0  0  0  0
    2.9393    0.0447   -1.5903 H   0  0  0  0  0  0  0  0  0  0  0  0
    2.9650   -1.2032    0.6332 H   0  0  0  0  0  0  0  0  0  0  0  0
    3.2778    0.3840    1.4457 H   0  0  0  0  0  0  0  0  0  0  0  0
   -1.5311    1.5758    0.7351 H   0  0  0  0  0  0  0  0  0  0  0  0
   -1.3359    0.5389   -1.8157 H   0  0  0  0  0  0  0  0  0  0  0  0
   -3.4256   -0.9240   -1.6026 H   0  0  0  0  0  0  0  0  0  0  0  0
   -3.9963   -0.1411    1.0144 H   0  0  0  0  0  0  0  0  0  0  0  0
   -3.3941   -1.8177    0.8556 H   0  0  0  0  0  0  0  0  0  0  0  0
  1  2  1  0
  2  3  1  0
  3  4  3  0
  4  5  1  0
  5  6  1  0
  6  7  2  0
  7  8  1  0
  8  9  1  0
  9  5  1  0
  1 10  1  0
  1 11  1  0
  1 12  1  0
  2 13  1  0
  2 14  1  0
  5 15  1  0
  6 16  1  0
  7 17  1  0
  8 18  1  0
  8 19  1  0
M  END
