
     RDKit          3D

 25 24  0  0  0  0  0  0  0  0999 V2000
    3.8472   -0.4327    0.3226 C   0  0  0  0  0  0  0  0  0  0  0  0
    3.0255   -1.0811   -0.7692 C   0  0  0  0  0  0  0  0  0  0  0  0
    1.6636   -0.5061   -0.6939 C   0  0  0  0  0  0  0  0  0  0  0  0
    0.5617   -0.0201   -0.6239 C   0  0  0  0  0  0  0  0  0  0  0  0
   -0.7476    0.5789   -0.5388 C   0  0  0  0  0  0  0  0  0  0  0  0
   -1.4428    0.4232   -1.8720 C   0  0  0  0  0  0  0  0  0  0  0  0
   -1.6055   -0.0300    0.5466 C   0  0  0  0  0  0  0  0  0  0  0  0
   -1.0068    0.1081    1.9065 C   0  0  0  0  0  0  0  0  0  0  0  0
   -2.9904    0.5771    0.5290 C   0  0  0  0  0  0  0  0  0  0  0  0
    3.8445   -1.0956    1.2107 H   0  0  0  0  0  0  0  0  0  0  0  0
    3.4237    0.5427    0.6518 H   0  0  0  0  0  0  0  0  0  0  0  0
    4.8698   -0.3017   -0.0871 H   0  0  0  0  0  0  0  0  0  0  0  0
    3.4010   -0.7788   -1.7900 H   0  0  0  0  0  0  0  0  0  0  0  0
    3.0070   -2.1768   -0.7104 H   0  0  0  0  0  0  0  0  0  0  0  0
   -0.6347    1.6716   -0.3673 H   0  0  0  0  0  0  0  0  0  0  0  0
   -2.3080   -0.2608   -1.7547 H   0  0  0  0  0  0  0  0  0  0  0  0
   -0.7561   -0.0485   -2.6270 H   0  0  0  0  0  0  0  0  0  0  0  0
   -1.8304    1.4032   -2.2608 H   0  0  0  0  0  0  0  0  0  0  0  0
   -1.7418   -1.1152    0.3054 H   0  0  0  0  0  0  0  0  0  0  0  0
   -1.7327    0.5479    2.6448 H   0  0  0  0  0  0  0  0  0  0  0  0
   -0.7301   -0.8967    2.3234 H   0  0  0  0  0  0  0  0  0  0  0  0
   -0.0942    0.7250    1.9471 H   0  0  0  0  0  0  0  0  0  0  0  0
   -3.6437    0.0662   -0.2212 H   0  0  0  0  0  0  0  0  0  0  0  0
   -3.4090    0.4262    1.5542 H   0  0  0  0  0  0  0  0  0  0  0  0
   -2.9703    1.6739    0.3742 H   0  0  0  0  0  0  0  0  0  0  0  0
  1  2  1  0
  2  3  1  0
  3  4  3  0
  4  5  1  0
  5  6  1  0
  5  7  1  0
  7  8  1  0
  7  9  1  0
  1 10  1  0
  1 11  1  0
  1 12  1  0
  2 13  1  0
  2 14  1  0
  5 15  1  0
  6 16  1  0
  6 17  1  0
  6 18  1  0
  7 19  1  0
  8 20  1  0
  8 21  1  0
  8 22  1  0
  9 23  1  0
  9 24  1  0
  9 25  1  0
M  END
