
     RDKit          3D

 20 19  0  0  0  0  0  0  0  0999 V2000
    3.3725    0.3059   -0.0337 C   0  0  0  0  0  0  0  0  0  0  0  0
    2.4541   -0.4721    0.8850 C   0  0  0  0  0  0  0  0  0  0  0  0
    1.0547   -0.3567    0.4399 C   0  0  0  0  0  0  0  0  0  0  0  0
   -0.0879   -0.2436    0.0795 C   0  0  0  0  0  0  0  0  0  0  0  0
   -1.4739   -0.1013   -0.3779 C   0  0  0  0  0  0  0  0  0  0  0  0
   -2.3514   -1.2307    0.1433 C   0  0  0  0  0  0  0  0  0  0  0  0
   -1.9866    1.2197    0.1245 C   0  0  0  0  0  0  0  0  0  0  0  0
   -1.4941   -0.0825   -1.7722 O   0  0  0  0  0  0  0  0  0  0  0  0
    4.4076   -0.0427    0.0269 H   0  0  0  0  0  0  0  0  0  0  0  0
    3.2932    1.3798    0.3021 H   0  0  0  0  0  0  0  0  0  0  0  0
    3.0305    0.2899   -1.0817 H   0  0  0  0  0  0  0  0  0  0  0  0
    2.8041   -1.5340    0.8486 H   0  0  0  0  0  0  0  0  0  0  0  0
    2.4985   -0.1279    1.9185 H   0  0  0  0  0  0  0  0  0  0  0  0
   -3.0561   -0.8665    0.9155 H   0  0  0  0  0  0  0  0  0  0  0  0
   -1.6739   -1.9699    0.6106 H   0  0  0  0  0  0  0  0  0  0  0  0
   -2.8718   -1.7119   -0.7140 H   0  0  0  0  0  0  0  0  0  0  0  0
   -2.7448    1.0306    0.9123 H   0  0  0  0  0  0  0  0  0  0  0  0
   -2.4324    1.8152   -0.6986 H   0  0  0  0  0  0  0  0  0  0  0  0
   -1.1890    1.8349    0.5894 H   0  0  0  0  0  0  0  0  0  0  0  0
   -1.5534    0.8640   -2.0894 H   0  0  0  0  0  0  0  0  0  0  0  0
  1  2  1  0
  2  3  1  0
  3  4  3  0
  4  5  1  0
  5  6  1  0
  5  7  1  0
  5  8  1  0
  1  9  1  0
  1 10  1  0
  1 11  1  0
  2 12  1  0
  2 13  1  0
  6 14  1  0
  6 15  1  0
  6 16  1  0
  7 17  1  0
  7 18  1  0
  7 19  1  0
  8 20  1  0
M  END
