
     RDKit          3D

 21 21  0  0  0  0  0  0  0  0999 V2000
   -1.5887   -2.7352   -2.0327 C   0  0  0  0  0  0  0  0  0  0  0  0
   -1.4777   -2.8160   -0.4545 C   0  0  0  0  0  0  0  0  0  0  0  0
   -1.1548   -1.4158   -0.1062 C   0  0  0  0  0  0  0  0  0  0  0  0
   -0.9173   -0.3122    0.1799 C   0  0  0  0  0  0  0  0  0  0  0  0
   -0.6000    1.1407    0.5815 C   0  0  0  0  0  0  0  0  0  0  0  0
    0.6802    1.2624   -0.4473 C   0  0  0  0  0  0  0  0  0  0  0  0
    0.5147    1.8759    0.8399 C   0  0  0  0  0  0  0  0  0  0  0  0
    1.3644    1.7827    1.9444 O   0  0  0  0  0  0  0  0  0  0  0  0
    2.3325    2.7121    1.9442 C   0  0  0  0  0  0  0  0  0  0  0  0
   -1.9290   -3.6265   -2.4746 H   0  0  0  0  0  0  0  0  0  0  0  0
   -0.5537   -2.5330   -2.4197 H   0  0  0  0  0  0  0  0  0  0  0  0
   -2.2010   -1.8233   -2.2665 H   0  0  0  0  0  0  0  0  0  0  0  0
   -2.4885   -3.0349   -0.0855 H   0  0  0  0  0  0  0  0  0  0  0  0
   -0.7619   -3.5654   -0.2334 H   0  0  0  0  0  0  0  0  0  0  0  0
   -1.5297    1.7384    0.1834 H   0  0  0  0  0  0  0  0  0  0  0  0
    1.3048    0.2871   -0.3830 H   0  0  0  0  0  0  0  0  0  0  0  0
    0.3796    1.5306   -1.4479 H   0  0  0  0  0  0  0  0  0  0  0  0
    0.5901    3.0624    0.5574 H   0  0  0  0  0  0  0  0  0  0  0  0
    2.1061    3.7790    1.6759 H   0  0  0  0  0  0  0  0  0  0  0  0
    3.2317    2.3803    1.3977 H   0  0  0  0  0  0  0  0  0  0  0  0
    2.6983    2.8459    3.0472 H   0  0  0  0  0  0  0  0  0  0  0  0
  1  2  1  0
  2  3  1  0
  3  4  3  0
  4  5  1  0
  5  6  1  0
  6  7  1  0
  7  8  1  0
  8  9  1  0
  7  5  1  0
  1 10  1  0
  1 11  1  0
  1 12  1  0
  2 13  1  0
  2 14  1  0
  5 15  1  0
  6 16  1  0
  6 17  1  0
  7 18  1  0
  9 19  1  0
  9 20  1  0
  9 21  1  0
M  END
