
     RDKit          3D

 19 20  0  0  0  0  0  0  0  0999 V2000
    3.3859   -0.6836    0.2689 C   0  0  0  0  0  0  0  0  0  0  0  0
    2.1583   -0.8889    1.1180 C   0  0  0  0  0  0  0  0  0  0  0  0
    0.9880   -0.3727    0.4050 C   0  0  0  0  0  0  0  0  0  0  0  0
    0.0245    0.0707   -0.1717 C   0  0  0  0  0  0  0  0  0  0  0  0
   -1.1488    0.5833   -0.8621 C   0  0  0  0  0  0  0  0  0  0  0  0
   -2.0890   -0.2678   -1.5785 C   0  0  0  0  0  0  0  0  0  0  0  0
   -2.5316    0.1814   -0.2533 C   0  0  0  0  0  0  0  0  0  0  0  0
   -2.4265    1.5990    0.2148 C   0  0  0  0  0  0  0  0  0  0  0  0
   -1.4825    1.9272   -0.7347 O   0  0  0  0  0  0  0  0  0  0  0  0
    3.5050    0.3980    0.0431 H   0  0  0  0  0  0  0  0  0  0  0  0
    4.2786   -0.9863    0.8788 H   0  0  0  0  0  0  0  0  0  0  0  0
    3.3908   -1.2738   -0.6467 H   0  0  0  0  0  0  0  0  0  0  0  0
    2.0454   -1.9860    1.3256 H   0  0  0  0  0  0  0  0  0  0  0  0
    2.2934   -0.4018    2.0803 H   0  0  0  0  0  0  0  0  0  0  0  0
   -2.6403    0.1769   -2.4548 H   0  0  0  0  0  0  0  0  0  0  0  0
   -1.9074   -1.3443   -1.7136 H   0  0  0  0  0  0  0  0  0  0  0  0
   -2.4927   -0.5636    0.5736 H   0  0  0  0  0  0  0  0  0  0  0  0
   -3.3858    2.1157    0.1813 H   0  0  0  0  0  0  0  0  0  0  0  0
   -1.9652    1.7165    1.2373 H   0  0  0  0  0  0  0  0  0  0  0  0
  1  2  1  0
  2  3  1  0
  3  4  3  0
  4  5  1  0
  5  6  1  0
  6  7  1  0
  7  8  1  0
  8  9  1  0
  7  5  1  0
  9  5  1  0
  1 10  1  0
  1 11  1  0
  1 12  1  0
  2 13  1  0
  2 14  1  0
  6 15  1  0
  6 16  1  0
  7 17  1  0
  8 18  1  0
  8 19  1  0
M  END
