
     RDKit          3D

 20 20  0  0  0  0  0  0  0  0999 V2000
    3.3134   -0.4872    0.5211 C   0  0  0  0  0  0  0  0  0  0  0  0
    2.6573   -0.0478   -0.7664 C   0  0  0  0  0  0  0  0  0  0  0  0
    1.2229    0.0908   -0.5053 C   0  0  0  0  0  0  0  0  0  0  0  0
    0.0258    0.1872   -0.2894 C   0  0  0  0  0  0  0  0  0  0  0  0
   -1.4183    0.2921   -0.0508 C   0  0  0  0  0  0  0  0  0  0  0  0
   -1.9457    1.5314    0.6172 C   0  0  0  0  0  0  0  0  0  0  0  0
   -2.0560   -1.0130    0.4108 C   0  0  0  0  0  0  0  0  0  0  0  0
   -2.3506   -0.4996   -0.9259 C   0  0  0  0  0  0  0  0  0  0  0  0
    3.0217   -1.5649    0.6818 H   0  0  0  0  0  0  0  0  0  0  0  0
    2.8702    0.1407    1.3311 H   0  0  0  0  0  0  0  0  0  0  0  0
    4.4164   -0.3666    0.4729 H   0  0  0  0  0  0  0  0  0  0  0  0
    2.8720   -0.8274   -1.5219 H   0  0  0  0  0  0  0  0  0  0  0  0
    3.0954    0.8934   -1.1431 H   0  0  0  0  0  0  0  0  0  0  0  0
   -2.7522    2.0228    0.0136 H   0  0  0  0  0  0  0  0  0  0  0  0
   -2.3323    1.2380    1.6146 H   0  0  0  0  0  0  0  0  0  0  0  0
   -1.1532    2.2942    0.7526 H   0  0  0  0  0  0  0  0  0  0  0  0
   -1.4082   -1.9067    0.5354 H   0  0  0  0  0  0  0  0  0  0  0  0
   -2.8414   -0.9433    1.2063 H   0  0  0  0  0  0  0  0  0  0  0  0
   -3.3674   -0.1124   -1.1262 H   0  0  0  0  0  0  0  0  0  0  0  0
   -1.8697   -0.9217   -1.8285 H   0  0  0  0  0  0  0  0  0  0  0  0
  1  2  1  0
  2  3  1  0
  3  4  3  0
  4  5  1  0
  5  6  1  0
  5  7  1  0
  7  8  1  0
  8  5  1  0
  1  9  1  0
  1 10  1  0
  1 11  1  0
  2 12  1  0
  2 13  1  0
  6 14  1  0
  6 15  1  0
  6 16  1  0
  7 17  1  0
  7 18  1  0
  8 19  1  0
  8 20  1  0
M  END
