
     RDKit          3D

 20 19  0  0  0  0  0  0  0  0999 V2000
    2.7203    0.8006   -0.8333 C   0  0  0  0  0  0  0  0  0  0  0  0
    2.6595   -0.7097   -0.8975 C   0  0  0  0  0  0  0  0  0  0  0  0
    1.2831   -1.0895   -0.5228 C   0  0  0  0  0  0  0  0  0  0  0  0
    0.1484   -1.3810   -0.2189 C   0  0  0  0  0  0  0  0  0  0  0  0
   -1.2302   -1.7357    0.1242 C   0  0  0  0  0  0  0  0  0  0  0  0
   -2.1007   -0.6556   -0.0001 O   0  0  0  0  0  0  0  0  0  0  0  0
   -1.6779    0.3731    0.8672 C   0  0  0  0  0  0  0  0  0  0  0  0
   -2.6123    1.5522    0.7443 C   0  0  0  0  0  0  0  0  0  0  0  0
    3.5318    1.1591   -1.4996 H   0  0  0  0  0  0  0  0  0  0  0  0
    2.9531    1.1745    0.1813 H   0  0  0  0  0  0  0  0  0  0  0  0
    1.7871    1.2515   -1.1961 H   0  0  0  0  0  0  0  0  0  0  0  0
    2.9038   -1.0217   -1.9313 H   0  0  0  0  0  0  0  0  0  0  0  0
    3.3803   -1.1347   -0.1482 H   0  0  0  0  0  0  0  0  0  0  0  0
   -1.6374   -2.5364   -0.5381 H   0  0  0  0  0  0  0  0  0  0  0  0
   -1.2206   -2.0458    1.1888 H   0  0  0  0  0  0  0  0  0  0  0  0
   -1.6475   -0.0582    1.8766 H   0  0  0  0  0  0  0  0  0  0  0  0
   -0.6429    0.6621    0.6072 H   0  0  0  0  0  0  0  0  0  0  0  0
   -2.0672    2.4786    0.9385 H   0  0  0  0  0  0  0  0  0  0  0  0
   -3.1175    1.4998   -0.2296 H   0  0  0  0  0  0  0  0  0  0  0  0
   -3.4132    1.4168    1.5228 H   0  0  0  0  0  0  0  0  0  0  0  0
  1  2  1  0
  2  3  1  0
  3  4  3  0
  4  5  1  0
  5  6  1  0
  6  7  1  0
  7  8  1  0
  1  9  1  0
  1 10  1  0
  1 11  1  0
  2 12  1  0
  2 13  1  0
  5 14  1  0
  5 15  1  0
  7 16  1  0
  7 17  1  0
  8 18  1  0
  8 19  1  0
  8 20  1  0
M  END
