
     RDKit          3D

 21 21  0  0  0  0  0  0  0  0999 V2000
    3.4477    0.5708   -0.6267 C   0  0  0  0  0  0  0  0  0  0  0  0
    2.4355    1.5049   -0.0120 C   0  0  0  0  0  0  0  0  0  0  0  0
    1.0546    1.0214   -0.2141 C   0  0  0  0  0  0  0  0  0  0  0  0
   -0.0546    0.6205   -0.3688 C   0  0  0  0  0  0  0  0  0  0  0  0
   -1.4086    0.1541   -0.5441 C   0  0  0  0  0  0  0  0  0  0  0  0
   -2.3790    0.7876    0.2403 O   0  0  0  0  0  0  0  0  0  0  0  0
   -3.0717   -0.4423    0.2480 C   0  0  0  0  0  0  0  0  0  0  0  0
   -1.7248   -1.1265    0.1799 C   0  0  0  0  0  0  0  0  0  0  0  0
   -1.1338   -1.2509    1.5668 C   0  0  0  0  0  0  0  0  0  0  0  0
    4.2419    0.2990    0.1065 H   0  0  0  0  0  0  0  0  0  0  0  0
    3.9975    1.0626   -1.4789 H   0  0  0  0  0  0  0  0  0  0  0  0
    3.0079   -0.3678   -0.9901 H   0  0  0  0  0  0  0  0  0  0  0  0
    2.6672    1.5867    1.0893 H   0  0  0  0  0  0  0  0  0  0  0  0
    2.5937    2.5084   -0.4241 H   0  0  0  0  0  0  0  0  0  0  0  0
   -1.7604    0.0865   -1.5907 H   0  0  0  0  0  0  0  0  0  0  0  0
   -3.6772   -0.5271   -0.6733 H   0  0  0  0  0  0  0  0  0  0  0  0
   -3.6391   -0.6249    1.1807 H   0  0  0  0  0  0  0  0  0  0  0  0
   -1.6571   -2.0149   -0.4466 H   0  0  0  0  0  0  0  0  0  0  0  0
   -0.2179   -1.9077    1.5561 H   0  0  0  0  0  0  0  0  0  0  0  0
   -0.8062   -0.2780    1.9739 H   0  0  0  0  0  0  0  0  0  0  0  0
   -1.9155   -1.6624    2.2397 H   0  0  0  0  0  0  0  0  0  0  0  0
  1  2  1  0
  2  3  1  0
  3  4  3  0
  4  5  1  0
  5  6  1  0
  6  7  1  0
  7  8  1  0
  8  9  1  0
  8  5  1  0
  1 10  1  0
  1 11  1  0
  1 12  1  0
  2 13  1  0
  2 14  1  0
  5 15  1  0
  7 16  1  0
  7 17  1  0
  8 18  1  0
  9 19  1  0
  9 20  1  0
  9 21  1  0
M  END
