
     RDKit          3D

 19 18  0  0  0  0  0  0  0  0999 V2000
    2.9372    0.1004    2.2217 C   0  0  0  0  0  0  0  0  0  0  0  0
    2.8147   -0.8342    1.0160 C   0  0  0  0  0  0  0  0  0  0  0  0
    1.6636   -0.5521    0.3059 C   0  0  0  0  0  0  0  0  0  0  0  0
    0.5778   -0.2900   -0.3612 C   0  0  0  0  0  0  0  0  0  0  0  0
   -0.6386   -0.0031   -1.0793 C   0  0  0  0  0  0  0  0  0  0  0  0
   -0.5878    0.3409   -2.2476 O   0  0  0  0  0  0  0  0  0  0  0  0
   -1.9437   -0.1418   -0.3587 C   0  0  0  0  0  0  0  0  0  0  0  0
   -3.1237    0.1874   -1.2075 C   0  0  0  0  0  0  0  0  0  0  0  0
   -2.9932    1.5333   -1.6126 O   0  0  0  0  0  0  0  0  0  0  0  0
    4.0446    0.1124    2.4297 H   0  0  0  0  0  0  0  0  0  0  0  0
    2.3765   -0.2890    3.0638 H   0  0  0  0  0  0  0  0  0  0  0  0
    2.6834    1.1458    1.9145 H   0  0  0  0  0  0  0  0  0  0  0  0
    2.9503   -1.8890    1.3544 H   0  0  0  0  0  0  0  0  0  0  0  0
    3.7082   -0.5950    0.3592 H   0  0  0  0  0  0  0  0  0  0  0  0
   -1.9772   -1.1689    0.0847 H   0  0  0  0  0  0  0  0  0  0  0  0
   -1.9052    0.6451    0.4671 H   0  0  0  0  0  0  0  0  0  0  0  0
   -4.0251    0.0876   -0.5616 H   0  0  0  0  0  0  0  0  0  0  0  0
   -3.1913   -0.4841   -2.0981 H   0  0  0  0  0  0  0  0  0  0  0  0
   -3.3702    2.0944   -0.8813 H   0  0  0  0  0  0  0  0  0  0  0  0
  1  2  1  0
  2  3  1  0
  3  4  3  0
  4  5  1  0
  5  6  2  0
  5  7  1  0
  7  8  1  0
  8  9  1  0
  1 10  1  0
  1 11  1  0
  1 12  1  0
  2 13  1  0
  2 14  1  0
  7 15  1  0
  7 16  1  0
  8 17  1  0
  8 18  1  0
  9 19  1  0
M  END
