
     RDKit          3D

 21 20  0  0  0  0  0  0  0  0999 V2000
    3.6397   -1.1810    0.9072 C   0  0  0  0  0  0  0  0  0  0  0  0
    3.0344   -0.1723   -0.0291 C   0  0  0  0  0  0  0  0  0  0  0  0
    1.5836   -0.2099    0.1728 C   0  0  0  0  0  0  0  0  0  0  0  0
    0.3877   -0.2365    0.3186 C   0  0  0  0  0  0  0  0  0  0  0  0
   -1.0601   -0.2708    0.4778 C   0  0  0  0  0  0  0  0  0  0  0  0
   -1.5771   -0.6720    1.5555 O   0  0  0  0  0  0  0  0  0  0  0  0
   -1.8821    0.1735   -0.6492 C   0  0  0  0  0  0  0  0  0  0  0  0
   -1.6206    1.6097   -1.0462 C   0  0  0  0  0  0  0  0  0  0  0  0
   -3.3346   -0.0561   -0.3027 C   0  0  0  0  0  0  0  0  0  0  0  0
    4.4467   -0.6615    1.4896 H   0  0  0  0  0  0  0  0  0  0  0  0
    2.9164   -1.6313    1.6000 H   0  0  0  0  0  0  0  0  0  0  0  0
    4.1402   -2.0144    0.3689 H   0  0  0  0  0  0  0  0  0  0  0  0
    3.4223    0.8548    0.1275 H   0  0  0  0  0  0  0  0  0  0  0  0
    3.3125   -0.4531   -1.0684 H   0  0  0  0  0  0  0  0  0  0  0  0
   -1.6489   -0.4661   -1.5276 H   0  0  0  0  0  0  0  0  0  0  0  0
   -0.5633    1.8815   -0.9359 H   0  0  0  0  0  0  0  0  0  0  0  0
   -1.9040    1.7663   -2.1066 H   0  0  0  0  0  0  0  0  0  0  0  0
   -2.2964    2.2548   -0.4206 H   0  0  0  0  0  0  0  0  0  0  0  0
   -4.0343    0.4769   -0.9497 H   0  0  0  0  0  0  0  0  0  0  0  0
   -3.5077   -1.1657   -0.3958 H   0  0  0  0  0  0  0  0  0  0  0  0
   -3.4546    0.1732    0.7775 H   0  0  0  0  0  0  0  0  0  0  0  0
  1  2  1  0
  2  3  1  0
  3  4  3  0
  4  5  1  0
  5  6  2  0
  5  7  1  0
  7  8  1  0
  7  9  1  0
  1 10  1  0
  1 11  1  0
  1 12  1  0
  2 13  1  0
  2 14  1  0
  7 15  1  0
  8 16  1  0
  8 17  1  0
  8 18  1  0
  9 19  1  0
  9 20  1  0
  9 21  1  0
M  END
