
     RDKit          3D

 21 22  0  0  0  0  0  0  0  0999 V2000
    3.7040   -0.1179    0.1741 C   0  0  0  0  0  0  0  0  0  0  0  0
    3.0517    0.0935   -1.1524 C   0  0  0  0  0  0  0  0  0  0  0  0
    1.5695    0.0231   -1.0110 C   0  0  0  0  0  0  0  0  0  0  0  0
    0.1785   -0.0559   -0.8887 C   0  0  0  0  0  0  0  0  0  0  0  0
   -1.1585   -0.1544   -0.7777 C   0  0  0  0  0  0  0  0  0  0  0  0
   -1.7816    0.7167    0.1797 C   0  0  0  0  0  0  0  0  0  0  0  0
   -2.1588    0.5281    1.6333 C   0  0  0  0  0  0  0  0  0  0  0  0
   -3.0616   -0.5327    1.0270 C   0  0  0  0  0  0  0  0  0  0  0  0
   -1.7550   -0.8606    0.3542 C   0  0  0  0  0  0  0  0  0  0  0  0
    4.0743    0.9477    0.6008 H   0  0  0  0  0  0  0  0  0  0  0  0
    2.8921   -0.2906    0.9148 H   0  0  0  0  0  0  0  0  0  0  0  0
    4.6137   -0.6679    0.1142 H   0  0  0  0  0  0  0  0  0  0  0  0
    3.1171    1.3127   -1.1908 H   0  0  0  0  0  0  0  0  0  0  0  0
    3.4675   -0.2930   -2.0139 H   0  0  0  0  0  0  0  0  0  0  0  0
   -1.6920   -0.4681   -1.7477 H   0  0  0  0  0  0  0  0  0  0  0  0
   -2.7630    1.1019   -0.3299 H   0  0  0  0  0  0  0  0  0  0  0  0
   -2.6993    1.3771    2.0741 H   0  0  0  0  0  0  0  0  0  0  0  0
   -1.3126    0.0858    2.2140 H   0  0  0  0  0  0  0  0  0  0  0  0
   -3.8437   -0.1467    0.3192 H   0  0  0  0  0  0  0  0  0  0  0  0
   -3.4048   -1.3315    1.7365 H   0  0  0  0  0  0  0  0  0  0  0  0
   -1.0378   -1.2673    1.0629 H   0  0  0  0  0  0  0  0  0  0  0  0
  1  2  1  0
  2  3  1  0
  3  4  3  0
  4  5  1  0
  5  6  1  0
  6  7  1  0
  7  8  1  0
  8  9  1  0
  9  5  1  0
  9  6  1  0
  1 10  1  0
  1 11  1  0
  1 12  1  0
  2 13  1  0
  2 14  1  0
  5 15  1  0
  6 16  1  0
  7 17  1  0
  7 18  1  0
  8 19  1  0
  8 20  1  0
  9 21  1  0
M  END
