
     RDKit          3D

 23 22  0  0  0  0  0  0  0  0999 V2000
    3.3411   -0.0500    0.1843 C   0  0  0  0  0  0  0  0  0  0  0  0
    2.4574   -0.4790    1.3372 C   0  0  0  0  0  0  0  0  0  0  0  0
    1.0453   -0.3682    0.9688 C   0  0  0  0  0  0  0  0  0  0  0  0
   -0.1359   -0.2952    0.6522 C   0  0  0  0  0  0  0  0  0  0  0  0
   -1.5402   -0.2160    0.2532 C   0  0  0  0  0  0  0  0  0  0  0  0
   -1.8568    1.2075   -0.1545 C   0  0  0  0  0  0  0  0  0  0  0  0
   -1.0276    1.6887   -1.2990 C   0  0  0  0  0  0  0  0  0  0  0  0
   -1.8539   -1.1957   -0.8547 C   0  0  0  0  0  0  0  0  0  0  0  0
   -1.5685   -2.4723   -0.3499 O   0  0  0  0  0  0  0  0  0  0  0  0
    2.8426    0.7171   -0.4452 H   0  0  0  0  0  0  0  0  0  0  0  0
    3.4989   -0.9658   -0.4402 H   0  0  0  0  0  0  0  0  0  0  0  0
    4.3407    0.2567    0.5416 H   0  0  0  0  0  0  0  0  0  0  0  0
    2.6998    0.1726    2.2186 H   0  0  0  0  0  0  0  0  0  0  0  0
    2.6779   -1.5147    1.6648 H   0  0  0  0  0  0  0  0  0  0  0  0
   -2.2239   -0.4682    1.0975 H   0  0  0  0  0  0  0  0  0  0  0  0
   -1.7009    1.8588    0.7230 H   0  0  0  0  0  0  0  0  0  0  0  0
   -2.9643    1.2587   -0.3664 H   0  0  0  0  0  0  0  0  0  0  0  0
   -1.7291    2.0128   -2.1145 H   0  0  0  0  0  0  0  0  0  0  0  0
   -0.4328    2.5980   -1.0521 H   0  0  0  0  0  0  0  0  0  0  0  0
   -0.3454    0.8929   -1.7116 H   0  0  0  0  0  0  0  0  0  0  0  0
   -1.2817   -1.0027   -1.7751 H   0  0  0  0  0  0  0  0  0  0  0  0
   -2.9486   -1.1736   -1.0236 H   0  0  0  0  0  0  0  0  0  0  0  0
   -1.2940   -2.4626    0.5893 H   0  0  0  0  0  0  0  0  0  0  0  0
  1  2  1  0
  2  3  1  0
  3  4  3  0
  4  5  1  0
  5  6  1  0
  6  7  1  0
  5  8  1  0
  8  9  1  0
  1 10  1  0
  1 11  1  0
  1 12  1  0
  2 13  1  0
  2 14  1  0
  5 15  1  0
  6 16  1  0
  6 17  1  0
  7 18  1  0
  7 19  1  0
  7 20  1  0
  8 21  1  0
  8 22  1  0
  9 23  1  0
M  END
