
     RDKit          3D

 17 17  0  0  0  0  0  0  0  0999 V2000
    1.0933    0.9955    2.8051 C   0  0  0  0  0  0  0  0  0  0  0  0
    0.6217    1.6814    1.5343 C   0  0  0  0  0  0  0  0  0  0  0  0
    0.2796    0.7117    0.6172 C   0  0  0  0  0  0  0  0  0  0  0  0
   -0.0567   -0.3099   -0.3550 C   0  0  0  0  0  0  0  0  0  0  0  0
   -0.3538   -1.1515   -1.1737 C   0  0  0  0  0  0  0  0  0  0  0  0
   -1.7100   -1.0563   -1.9323 C   0  0  0  0  0  0  0  0  0  0  0  0
   -0.9522   -0.4674   -2.9566 O   0  0  0  0  0  0  0  0  0  0  0  0
    0.1054   -1.2367   -2.6254 C   0  0  0  0  0  0  0  0  0  0  0  0
    1.0686   -1.8070   -3.1727 O   0  0  0  0  0  0  0  0  0  0  0  0
    1.9231    0.3178    2.5478 H   0  0  0  0  0  0  0  0  0  0  0  0
    1.4566    1.8326    3.4793 H   0  0  0  0  0  0  0  0  0  0  0  0
    0.2753    0.4598    3.2895 H   0  0  0  0  0  0  0  0  0  0  0  0
    1.3664    2.4417    1.2554 H   0  0  0  0  0  0  0  0  0  0  0  0
   -0.3108    2.3071    1.8142 H   0  0  0  0  0  0  0  0  0  0  0  0
   -0.3360   -2.3141   -0.8127 H   0  0  0  0  0  0  0  0  0  0  0  0
   -2.0520   -2.0370   -2.2526 H   0  0  0  0  0  0  0  0  0  0  0  0
   -2.4186   -0.3676   -1.4629 H   0  0  0  0  0  0  0  0  0  0  0  0
  1  2  1  0
  2  3  1  0
  3  4  3  0
  4  5  1  0
  5  6  1  0
  6  7  1  0
  7  8  1  0
  8  9  2  0
  8  5  1  0
  1 10  1  0
  1 11  1  0
  1 12  1  0
  2 13  1  0
  2 14  1  0
  5 15  1  0
  6 16  1  0
  6 17  1  0
M  END
