
     RDKit          3D

 20 19  0  0  0  0  0  0  0  0999 V2000
   -3.3609    0.2290    1.1572 C   0  0  0  0  0  0  0  0  0  0  0  0
   -2.8885    0.0716   -0.2676 C   0  0  0  0  0  0  0  0  0  0  0  0
   -1.4668   -0.2761   -0.2306 C   0  0  0  0  0  0  0  0  0  0  0  0
   -0.2840   -0.5680   -0.1793 C   0  0  0  0  0  0  0  0  0  0  0  0
    1.1310   -0.9402   -0.1074 C   0  0  0  0  0  0  0  0  0  0  0  0
    1.9741    0.3226   -0.1506 C   0  0  0  0  0  0  0  0  0  0  0  0
    3.4374    0.0331   -0.0818 C   0  0  0  0  0  0  0  0  0  0  0  0
    1.7162    0.9345   -1.3862 O   0  0  0  0  0  0  0  0  0  0  0  0
   -2.5552   -0.0351    1.8967 H   0  0  0  0  0  0  0  0  0  0  0  0
   -4.2715   -0.3681    1.3629 H   0  0  0  0  0  0  0  0  0  0  0  0
   -3.5943    1.3051    1.3190 H   0  0  0  0  0  0  0  0  0  0  0  0
   -3.0003    1.0210   -0.8384 H   0  0  0  0  0  0  0  0  0  0  0  0
   -3.4859   -0.6915   -0.8163 H   0  0  0  0  0  0  0  0  0  0  0  0
    1.4149   -1.6398   -0.9212 H   0  0  0  0  0  0  0  0  0  0  0  0
    1.3094   -1.5036    0.8426 H   0  0  0  0  0  0  0  0  0  0  0  0
    1.6756    0.9687    0.6993 H   0  0  0  0  0  0  0  0  0  0  0  0
    4.0462    0.8323   -0.5432 H   0  0  0  0  0  0  0  0  0  0  0  0
    3.7184   -0.9131   -0.6097 H   0  0  0  0  0  0  0  0  0  0  0  0
    3.7255   -0.0192    0.9910 H   0  0  0  0  0  0  0  0  0  0  0  0
    0.7587    1.2367   -1.3430 H   0  0  0  0  0  0  0  0  0  0  0  0
  1  2  1  0
  2  3  1  0
  3  4  3  0
  4  5  1  0
  5  6  1  0
  6  7  1  0
  6  8  1  0
  1  9  1  0
  1 10  1  0
  1 11  1  0
  2 12  1  0
  2 13  1  0
  5 14  1  0
  5 15  1  0
  6 16  1  0
  7 17  1  0
  7 18  1  0
  7 19  1  0
  8 20  1  0
M  END
