
     RDKit          3D

 18 17  0  0  0  0  0  0  0  0999 V2000
   -3.3220   -0.1864   -0.3002 C   0  0  0  0  0  0  0  0  0  0  0  0
   -2.5737   -0.4658    1.1615 C   0  0  0  0  0  0  0  0  0  0  0  0
   -1.0548   -0.0229    0.3713 C   0  0  0  0  0  0  0  0  0  0  0  0
   -0.0656    0.2611   -0.1642 C   0  0  0  0  0  0  0  0  0  0  0  0
    0.9894    0.5865   -0.7355 C   0  0  0  0  0  0  0  0  0  0  0  0
    1.1549    1.7424   -1.3653 O   0  0  0  0  0  0  0  0  0  0  0  0
    2.2429   -0.2571   -0.7987 C   0  0  0  0  0  0  0  0  0  0  0  0
    3.1800    0.2804    0.2458 C   0  0  0  0  0  0  0  0  0  0  0  0
   -3.3999   -1.0843   -0.8840 H   0  0  0  0  0  0  0  0  0  0  0  0
   -4.2137    0.3556   -0.1468 H   0  0  0  0  0  0  0  0  0  0  0  0
   -2.6423    0.5080   -0.8805 H   0  0  0  0  0  0  0  0  0  0  0  0
   -2.4000   -1.5572    1.0204 H   0  0  0  0  0  0  0  0  0  0  0  0
   -2.7503    0.0954    1.8275 H   0  0  0  0  0  0  0  0  0  0  0  0
    1.8934   -1.2942   -0.4813 H   0  0  0  0  0  0  0  0  0  0  0  0
    2.7044   -0.2387   -1.7932 H   0  0  0  0  0  0  0  0  0  0  0  0
    3.1208   -0.3708    1.1577 H   0  0  0  0  0  0  0  0  0  0  0  0
    2.9253    1.3384    0.5274 H   0  0  0  0  0  0  0  0  0  0  0  0
    4.2110    0.3096   -0.1594 H   0  0  0  0  0  0  0  0  0  0  0  0
  1  2  1  0
  2  3  1  0
  3  4  3  0
  4  5  1  0
  5  6  2  0
  5  7  1  0
  7  8  1  0
  1  9  1  0
  1 10  1  0
  1 11  1  0
  2 12  1  0
  2 13  1  0
  7 14  1  0
  7 15  1  0
  8 16  1  0
  8 17  1  0
  8 18  1  0
M  END
