
     RDKit          3D

 23 23  0  0  0  0  0  0  0  0999 V2000
    3.3317   -0.6159   -0.7434 C   0  0  0  0  0  0  0  0  0  0  0  0
    2.6708    0.6703   -1.1090 C   0  0  0  0  0  0  0  0  0  0  0  0
    1.3018    0.6602   -0.5850 C   0  0  0  0  0  0  0  0  0  0  0  0
    0.1612    0.6433   -0.1553 C   0  0  0  0  0  0  0  0  0  0  0  0
   -1.2126    0.6468    0.3523 C   0  0  0  0  0  0  0  0  0  0  0  0
   -1.9868    1.9538    0.3170 C   0  0  0  0  0  0  0  0  0  0  0  0
   -1.4145   -0.2395    1.6025 C   0  0  0  0  0  0  0  0  0  0  0  0
   -1.9641   -0.6030    0.2691 C   0  0  0  0  0  0  0  0  0  0  0  0
   -1.4221   -1.8284   -0.4337 C   0  0  0  0  0  0  0  0  0  0  0  0
    3.0213   -1.0144    0.2397 H   0  0  0  0  0  0  0  0  0  0  0  0
    4.4351   -0.3916   -0.6424 H   0  0  0  0  0  0  0  0  0  0  0  0
    3.2487   -1.3439   -1.5611 H   0  0  0  0  0  0  0  0  0  0  0  0
    2.6798    0.7348   -2.2349 H   0  0  0  0  0  0  0  0  0  0  0  0
    3.2425    1.5533   -0.7672 H   0  0  0  0  0  0  0  0  0  0  0  0
   -1.4726    2.6418   -0.3801 H   0  0  0  0  0  0  0  0  0  0  0  0
   -2.9690    1.7311   -0.1093 H   0  0  0  0  0  0  0  0  0  0  0  0
   -2.0282    2.3530    1.3494 H   0  0  0  0  0  0  0  0  0  0  0  0
   -0.5239   -0.7618    1.9999 H   0  0  0  0  0  0  0  0  0  0  0  0
   -2.0362    0.2208    2.3727 H   0  0  0  0  0  0  0  0  0  0  0  0
   -3.0804   -0.5366    0.2048 H   0  0  0  0  0  0  0  0  0  0  0  0
   -1.9661   -1.9970   -1.3856 H   0  0  0  0  0  0  0  0  0  0  0  0
   -0.3555   -1.7528   -0.6734 H   0  0  0  0  0  0  0  0  0  0  0  0
   -1.6610   -2.7243    0.2061 H   0  0  0  0  0  0  0  0  0  0  0  0
  1  2  1  0
  2  3  1  0
  3  4  3  0
  4  5  1  0
  5  6  1  0
  5  7  1  0
  7  8  1  0
  8  9  1  0
  8  5  1  0
  1 10  1  0
  1 11  1  0
  1 12  1  0
  2 13  1  0
  2 14  1  0
  6 15  1  0
  6 16  1  0
  6 17  1  0
  7 18  1  0
  7 19  1  0
  8 20  1  0
  9 21  1  0
  9 22  1  0
  9 23  1  0
M  END
