
     RDKit          3D

 17 16  0  0  0  0  0  0  0  0999 V2000
   -2.8610   -0.0963    0.2020 C   0  0  0  0  0  0  0  0  0  0  0  0
   -1.9338   -0.3039   -0.9910 C   0  0  0  0  0  0  0  0  0  0  0  0
   -0.5599   -0.2516   -0.5019 C   0  0  0  0  0  0  0  0  0  0  0  0
    0.5917   -0.2105   -0.1141 C   0  0  0  0  0  0  0  0  0  0  0  0
    1.9893   -0.1438    0.3410 C   0  0  0  0  0  0  0  0  0  0  0  0
    1.9968   -0.6053    1.7641 C   0  0  0  0  0  0  0  0  0  0  0  0
    2.7053   -1.5269    2.1043 O   0  0  0  0  0  0  0  0  0  0  0  0
    2.4036    1.2831    0.2460 C   0  0  0  0  0  0  0  0  0  0  0  0
    2.4845    2.0301    1.1981 O   0  0  0  0  0  0  0  0  0  0  0  0
   -3.8547    0.1697   -0.2032 H   0  0  0  0  0  0  0  0  0  0  0  0
   -2.4668    0.7168    0.8457 H   0  0  0  0  0  0  0  0  0  0  0  0
   -2.9035   -1.0288    0.8083 H   0  0  0  0  0  0  0  0  0  0  0  0
   -2.1423    0.4497   -1.7784 H   0  0  0  0  0  0  0  0  0  0  0  0
   -2.0804   -1.2920   -1.4473 H   0  0  0  0  0  0  0  0  0  0  0  0
    2.6456   -0.8052   -0.2654 H   0  0  0  0  0  0  0  0  0  0  0  0
    1.3377   -0.0636    2.4390 H   0  0  0  0  0  0  0  0  0  0  0  0
    2.6480    1.6786   -0.7340 H   0  0  0  0  0  0  0  0  0  0  0  0
  1  2  1  0
  2  3  1  0
  3  4  3  0
  4  5  1  0
  5  6  1  0
  6  7  2  0
  5  8  1  0
  8  9  2  0
  1 10  1  0
  1 11  1  0
  1 12  1  0
  2 13  1  0
  2 14  1  0
  5 15  1  0
  6 16  1  0
  8 17  1  0
M  END
