
     RDKit          3D

 16 15  0  0  0  0  0  0  0  0999 V2000
   -2.7561   -0.7813    0.0052 C   0  0  0  0  0  0  0  0  0  0  0  0
   -1.8885    0.1539   -0.7687 C   0  0  0  0  0  0  0  0  0  0  0  0
   -0.5825    0.2177   -0.0872 C   0  0  0  0  0  0  0  0  0  0  0  0
    0.4895    0.2882    0.4853 C   0  0  0  0  0  0  0  0  0  0  0  0
    1.7937    0.3834    1.1565 C   0  0  0  0  0  0  0  0  0  0  0  0
    2.1111   -0.8054    1.8109 O   0  0  0  0  0  0  0  0  0  0  0  0
    2.8857    0.6671    0.1831 C   0  0  0  0  0  0  0  0  0  0  0  0
    3.8351   -0.0574    0.0511 O   0  0  0  0  0  0  0  0  0  0  0  0
   -2.1740   -1.3969    0.7443 H   0  0  0  0  0  0  0  0  0  0  0  0
   -3.3779   -1.4248   -0.6508 H   0  0  0  0  0  0  0  0  0  0  0  0
   -3.4511   -0.1773    0.6247 H   0  0  0  0  0  0  0  0  0  0  0  0
   -1.7084   -0.3145   -1.7698 H   0  0  0  0  0  0  0  0  0  0  0  0
   -2.3750    1.1251   -0.8571 H   0  0  0  0  0  0  0  0  0  0  0  0
    1.6891    1.2315    1.8825 H   0  0  0  0  0  0  0  0  0  0  0  0
    2.6817   -0.6674    2.6006 H   0  0  0  0  0  0  0  0  0  0  0  0
    2.8276    1.5581   -0.4319 H   0  0  0  0  0  0  0  0  0  0  0  0
  1  2  1  0
  2  3  1  0
  3  4  3  0
  4  5  1  0
  5  6  1  0
  5  7  1  0
  7  8  2  0
  1  9  1  0
  1 10  1  0
  1 11  1  0
  2 12  1  0
  2 13  1  0
  5 14  1  0
  6 15  1  0
  7 16  1  0
M  END
