
     RDKit          3D

 21 21  0  0  0  0  0  0  0  0999 V2000
    3.2517    0.0145    2.1174 C   0  0  0  0  0  0  0  0  0  0  0  0
    2.1073   -1.0000    2.4906 C   0  0  0  0  0  0  0  0  0  0  0  0
    1.0306   -0.5380    1.6213 C   0  0  0  0  0  0  0  0  0  0  0  0
   -0.1209   -0.0231    0.7097 C   0  0  0  0  0  0  0  0  0  0  0  0
   -1.0281    0.3744   -0.0044 C   0  0  0  0  0  0  0  0  0  0  0  0
   -0.3728    0.3155   -1.5301 C   0  0  0  0  0  0  0  0  0  0  0  0
   -1.7292   -0.2096   -1.1440 C   0  0  0  0  0  0  0  0  0  0  0  0
   -2.7952    0.6894   -1.8576 C   0  0  0  0  0  0  0  0  0  0  0  0
   -1.9565   -1.5385   -1.4379 O   0  0  0  0  0  0  0  0  0  0  0  0
    2.8926    0.5322    1.1250 H   0  0  0  0  0  0  0  0  0  0  0  0
    4.2015   -0.4419    1.9781 H   0  0  0  0  0  0  0  0  0  0  0  0
    3.2031    0.8441    2.8223 H   0  0  0  0  0  0  0  0  0  0  0  0
    1.7853   -0.7036    3.5074 H   0  0  0  0  0  0  0  0  0  0  0  0
    2.4013   -1.9983    2.3192 H   0  0  0  0  0  0  0  0  0  0  0  0
   -1.2563    1.6148    0.0919 H   0  0  0  0  0  0  0  0  0  0  0  0
    0.4571   -0.4534   -1.5483 H   0  0  0  0  0  0  0  0  0  0  0  0
   -0.1116    1.2970   -1.8613 H   0  0  0  0  0  0  0  0  0  0  0  0
   -2.5707    0.6724   -2.9253 H   0  0  0  0  0  0  0  0  0  0  0  0
   -2.6622    1.7990   -1.4671 H   0  0  0  0  0  0  0  0  0  0  0  0
   -3.8072    0.4546   -1.5563 H   0  0  0  0  0  0  0  0  0  0  0  0
   -2.9197   -1.7017   -1.7376 H   0  0  0  0  0  0  0  0  0  0  0  0
  1  2  1  0
  2  3  1  0
  3  4  3  0
  4  5  1  0
  5  6  1  0
  6  7  1  0
  7  8  1  0
  7  9  1  0
  7  5  1  0
  1 10  1  0
  1 11  1  0
  1 12  1  0
  2 13  1  0
  2 14  1  0
  5 15  1  0
  6 16  1  0
  6 17  1  0
  8 18  1  0
  8 19  1  0
  8 20  1  0
  9 21  1  0
M  END
