
     RDKit          3D

 20 19  0  0  0  0  0  0  0  0999 V2000
    3.0680    0.7971    0.7312 C   0  0  0  0  0  0  0  0  0  0  0  0
    2.5666    0.2659   -0.5702 C   0  0  0  0  0  0  0  0  0  0  0  0
    1.1715   -0.1436   -0.4108 C   0  0  0  0  0  0  0  0  0  0  0  0
    0.0140   -0.4704   -0.2959 C   0  0  0  0  0  0  0  0  0  0  0  0
   -1.3850   -0.8663   -0.1353 C   0  0  0  0  0  0  0  0  0  0  0  0
   -2.0611   -0.8411   -1.4885 C   0  0  0  0  0  0  0  0  0  0  0  0
   -2.1204    0.1070    0.7836 C   0  0  0  0  0  0  0  0  0  0  0  0
   -1.5626    0.1611    2.0395 O   0  0  0  0  0  0  0  0  0  0  0  0
    3.6645    0.0635    1.3100 H   0  0  0  0  0  0  0  0  0  0  0  0
    2.2016    1.1297    1.3385 H   0  0  0  0  0  0  0  0  0  0  0  0
    3.7178    1.6973    0.5664 H   0  0  0  0  0  0  0  0  0  0  0  0
    3.1952   -0.5624   -0.9754 H   0  0  0  0  0  0  0  0  0  0  0  0
    2.6628    1.0901   -1.3319 H   0  0  0  0  0  0  0  0  0  0  0  0
   -1.4647   -1.9003    0.2635 H   0  0  0  0  0  0  0  0  0  0  0  0
   -2.4424    0.1919   -1.7151 H   0  0  0  0  0  0  0  0  0  0  0  0
   -2.9191   -1.5685   -1.4323 H   0  0  0  0  0  0  0  0  0  0  0  0
   -1.4002   -1.2282   -2.2831 H   0  0  0  0  0  0  0  0  0  0  0  0
   -3.1919   -0.0810    0.8077 H   0  0  0  0  0  0  0  0  0  0  0  0
   -1.9887    1.1285    0.3247 H   0  0  0  0  0  0  0  0  0  0  0  0
   -1.7260    1.0296    2.4734 H   0  0  0  0  0  0  0  0  0  0  0  0
  1  2  1  0
  2  3  1  0
  3  4  3  0
  4  5  1  0
  5  6  1  0
  5  7  1  0
  7  8  1  0
  1  9  1  0
  1 10  1  0
  1 11  1  0
  2 12  1  0
  2 13  1  0
  5 14  1  0
  6 15  1  0
  6 16  1  0
  6 17  1  0
  7 18  1  0
  7 19  1  0
  8 20  1  0
M  END
