
     RDKit          3D

 21 22  0  0  0  0  0  0  0  0999 V2000
    3.5586   -0.4728    0.8297 C   0  0  0  0  0  0  0  0  0  0  0  0
    2.7940    0.8257    0.6214 C   0  0  0  0  0  0  0  0  0  0  0  0
    1.4145    0.5519    0.1893 C   0  0  0  0  0  0  0  0  0  0  0  0
    0.2778    0.3376   -0.1564 C   0  0  0  0  0  0  0  0  0  0  0  0
   -1.0910    0.0793   -0.5823 C   0  0  0  0  0  0  0  0  0  0  0  0
   -1.6358   -1.3100   -0.4019 C   0  0  0  0  0  0  0  0  0  0  0  0
   -2.8263   -0.8025    0.3615 C   0  0  0  0  0  0  0  0  0  0  0  0
   -2.2055    0.5578    0.3965 C   0  0  0  0  0  0  0  0  0  0  0  0
   -1.9681    1.2188   -0.8969 C   0  0  0  0  0  0  0  0  0  0  0  0
    3.1238   -1.2843    0.2379 H   0  0  0  0  0  0  0  0  0  0  0  0
    3.5332   -0.7840    1.9109 H   0  0  0  0  0  0  0  0  0  0  0  0
    4.6151   -0.2495    0.5935 H   0  0  0  0  0  0  0  0  0  0  0  0
    3.2574    1.4313   -0.1772 H   0  0  0  0  0  0  0  0  0  0  0  0
    2.7999    1.3486    1.6005 H   0  0  0  0  0  0  0  0  0  0  0  0
   -0.9619   -1.9027    0.2498 H   0  0  0  0  0  0  0  0  0  0  0  0
   -1.8616   -1.8068   -1.3712 H   0  0  0  0  0  0  0  0  0  0  0  0
   -3.7289   -0.8084   -0.2756 H   0  0  0  0  0  0  0  0  0  0  0  0
   -2.9577   -1.2266    1.3769 H   0  0  0  0  0  0  0  0  0  0  0  0
   -1.8320    0.9757    1.3523 H   0  0  0  0  0  0  0  0  0  0  0  0
   -2.8025    1.1147   -1.6492 H   0  0  0  0  0  0  0  0  0  0  0  0
   -1.5030    2.2062   -0.9317 H   0  0  0  0  0  0  0  0  0  0  0  0
  1  2  1  0
  2  3  1  0
  3  4  3  0
  4  5  1  0
  5  6  1  0
  6  7  1  0
  7  8  1  0
  8  9  1  0
  8  5  1  0
  9  5  1  0
  1 10  1  0
  1 11  1  0
  1 12  1  0
  2 13  1  0
  2 14  1  0
  6 15  1  0
  6 16  1  0
  7 17  1  0
  7 18  1  0
  8 19  1  0
  9 20  1  0
  9 21  1  0
M  END
