
     RDKit          3D

 19 19  0  0  0  0  0  0  0  0999 V2000
   -3.0061    0.6743   -0.3913 C   0  0  0  0  0  0  0  0  0  0  0  0
   -2.6123   -0.7582   -0.1541 C   0  0  0  0  0  0  0  0  0  0  0  0
   -1.1814   -0.7606    0.1643 C   0  0  0  0  0  0  0  0  0  0  0  0
   -0.0010   -0.7457    0.4165 C   0  0  0  0  0  0  0  0  0  0  0  0
    1.4331   -0.7335    0.7049 C   0  0  0  0  0  0  0  0  0  0  0  0
    1.9977   -2.0031    0.6315 O   0  0  0  0  0  0  0  0  0  0  0  0
    2.1030    0.2285   -0.2782 C   0  0  0  0  0  0  0  0  0  0  0  0
    2.5827    1.5108    0.1092 C   0  0  0  0  0  0  0  0  0  0  0  0
    3.4706    0.4455   -0.1215 O   0  0  0  0  0  0  0  0  0  0  0  0
   -2.8448    0.8765   -1.4779 H   0  0  0  0  0  0  0  0  0  0  0  0
   -4.1137    0.7731   -0.2303 H   0  0  0  0  0  0  0  0  0  0  0  0
   -2.4304    1.3977    0.1865 H   0  0  0  0  0  0  0  0  0  0  0  0
   -2.8156   -1.3748   -1.0719 H   0  0  0  0  0  0  0  0  0  0  0  0
   -3.2190   -1.2074    0.6608 H   0  0  0  0  0  0  0  0  0  0  0  0
    1.5619   -0.3180    1.7328 H   0  0  0  0  0  0  0  0  0  0  0  0
    2.0825   -2.2575   -0.3086 H   0  0  0  0  0  0  0  0  0  0  0  0
    1.7989    0.0493   -1.3282 H   0  0  0  0  0  0  0  0  0  0  0  0
    2.6090    1.8455    1.1734 H   0  0  0  0  0  0  0  0  0  0  0  0
    2.5849    2.3574   -0.6006 H   0  0  0  0  0  0  0  0  0  0  0  0
  1  2  1  0
  2  3  1  0
  3  4  3  0
  4  5  1  0
  5  6  1  0
  5  7  1  0
  7  8  1  0
  8  9  1  0
  9  7  1  0
  1 10  1  0
  1 11  1  0
  1 12  1  0
  2 13  1  0
  2 14  1  0
  5 15  1  0
  6 16  1  0
  7 17  1  0
  8 18  1  0
  8 19  1  0
M  END
