
     RDKit          3D

 19 18  0  0  0  0  0  0  0  0999 V2000
   -3.7090    0.3056   -0.9380 C   0  0  0  0  0  0  0  0  0  0  0  0
   -3.3812   -0.0349    0.6482 C   0  0  0  0  0  0  0  0  0  0  0  0
   -2.0162    0.3387    0.6199 C   0  0  0  0  0  0  0  0  0  0  0  0
   -0.5390    0.7459    0.6066 C   0  0  0  0  0  0  0  0  0  0  0  0
    0.6879    1.0859    0.5950 C   0  0  0  0  0  0  0  0  0  0  0  0
    1.6071    0.2762    0.3930 C   0  0  0  0  0  0  0  0  0  0  0  0
    2.8269   -0.7769    0.1032 C   0  0  0  0  0  0  0  0  0  0  0  0
    3.9468   -1.7673   -0.1452 C   0  0  0  0  0  0  0  0  0  0  0  0
    4.9982   -0.8272    0.2748 O   0  0  0  0  0  0  0  0  0  0  0  0
   -4.0009   -0.6429   -1.4661 H   0  0  0  0  0  0  0  0  0  0  0  0
   -2.6374    0.3793   -1.2310 H   0  0  0  0  0  0  0  0  0  0  0  0
   -4.1679    1.2247   -1.0255 H   0  0  0  0  0  0  0  0  0  0  0  0
   -3.3853   -1.1497    0.8665 H   0  0  0  0  0  0  0  0  0  0  0  0
   -4.0167    0.6063    1.1633 H   0  0  0  0  0  0  0  0  0  0  0  0
    0.4775    0.8787   -0.9459 H   0  0  0  0  0  0  0  0  0  0  0  0
    0.9361    2.1261    0.0336 H   0  0  0  0  0  0  0  0  0  0  0  0
    3.8586   -2.4538    0.6539 H   0  0  0  0  0  0  0  0  0  0  0  0
    3.9585   -1.9650   -1.1862 H   0  0  0  0  0  0  0  0  0  0  0  0
    4.5559   -0.1307    0.9799 H   0  0  0  0  0  0  0  0  0  0  0  0
  1  2  1  0
  2  3  1  0
  3  4  3  0
  4  5  1  0
  5  6  1  0
  6  7  3  0
  7  8  1  0
  8  9  1  0
  1 10  1  0
  1 11  1  0
  1 12  1  0
  2 13  1  0
  2 14  1  0
  5 15  1  0
  5 16  1  0
  8 17  1  0
  8 18  1  0
  9 19  1  0
M  END
