
     RDKit          3D

 21 21  0  0  0  0  0  0  0  0999 V2000
    3.3805    0.3611   -0.2135 C   0  0  0  0  0  0  0  0  0  0  0  0
    2.6387   -0.3357    0.8992 C   0  0  0  0  0  0  0  0  0  0  0  0
    1.2183   -0.3482    0.5695 C   0  0  0  0  0  0  0  0  0  0  0  0
    0.0440   -0.3487    0.2785 C   0  0  0  0  0  0  0  0  0  0  0  0
   -1.4021   -0.3511   -0.0543 C   0  0  0  0  0  0  0  0  0  0  0  0
   -1.9656   -1.7082   -0.3484 C   0  0  0  0  0  0  0  0  0  0  0  0
   -2.2884    0.6388    0.7093 C   0  0  0  0  0  0  0  0  0  0  0  0
   -1.8759    0.8540   -0.7458 C   0  0  0  0  0  0  0  0  0  0  0  0
   -0.9761    1.8876   -1.0044 O   0  0  0  0  0  0  0  0  0  0  0  0
    2.7034    0.4426   -1.0779 H   0  0  0  0  0  0  0  0  0  0  0  0
    3.6210    1.4087    0.1033 H   0  0  0  0  0  0  0  0  0  0  0  0
    4.3068   -0.1993   -0.4630 H   0  0  0  0  0  0  0  0  0  0  0  0
    2.7952    0.1472    1.8854 H   0  0  0  0  0  0  0  0  0  0  0  0
    3.0311   -1.3896    1.0024 H   0  0  0  0  0  0  0  0  0  0  0  0
   -2.2508   -2.1785    0.6354 H   0  0  0  0  0  0  0  0  0  0  0  0
   -1.1445   -2.3315   -0.7663 H   0  0  0  0  0  0  0  0  0  0  0  0
   -2.8607   -1.6698   -1.0070 H   0  0  0  0  0  0  0  0  0  0  0  0
   -1.7232    1.2345    1.4806 H   0  0  0  0  0  0  0  0  0  0  0  0
   -3.3081    0.3275    0.9417 H   0  0  0  0  0  0  0  0  0  0  0  0
   -2.7185    0.8201   -1.4753 H   0  0  0  0  0  0  0  0  0  0  0  0
   -1.2252    2.7385   -0.5678 H   0  0  0  0  0  0  0  0  0  0  0  0
  1  2  1  0
  2  3  1  0
  3  4  3  0
  4  5  1  0
  5  6  1  0
  5  7  1  0
  7  8  1  0
  8  9  1  0
  8  5  1  0
  1 10  1  0
  1 11  1  0
  1 12  1  0
  2 13  1  0
  2 14  1  0
  6 15  1  0
  6 16  1  0
  6 17  1  0
  7 18  1  0
  7 19  1  0
  8 20  1  0
  9 21  1  0
M  END
