
     RDKit          3D

 21 21  0  0  0  0  0  0  0  0999 V2000
    3.5547    0.5459    0.5905 C   0  0  0  0  0  0  0  0  0  0  0  0
    2.7418   -0.1291   -0.4802 C   0  0  0  0  0  0  0  0  0  0  0  0
    1.3572   -0.3611   -0.0620 C   0  0  0  0  0  0  0  0  0  0  0  0
    0.2119   -0.5528    0.2880 C   0  0  0  0  0  0  0  0  0  0  0  0
   -1.1846   -0.7700    0.7132 C   0  0  0  0  0  0  0  0  0  0  0  0
   -1.7110    0.5397    1.1406 C   0  0  0  0  0  0  0  0  0  0  0  0
   -2.4352    1.1086    0.1842 C   0  0  0  0  0  0  0  0  0  0  0  0
   -2.4738    0.2164   -1.0223 C   0  0  0  0  0  0  0  0  0  0  0  0
   -1.9886   -1.1226   -0.5152 C   0  0  0  0  0  0  0  0  0  0  0  0
    4.4402    1.0447    0.1019 H   0  0  0  0  0  0  0  0  0  0  0  0
    2.9653    1.3077    1.1391 H   0  0  0  0  0  0  0  0  0  0  0  0
    3.9796   -0.1886    1.3042 H   0  0  0  0  0  0  0  0  0  0  0  0
    2.6892    0.5459   -1.3631 H   0  0  0  0  0  0  0  0  0  0  0  0
    3.2504   -1.0475   -0.8161 H   0  0  0  0  0  0  0  0  0  0  0  0
   -1.2693   -1.5564    1.4706 H   0  0  0  0  0  0  0  0  0  0  0  0
   -1.5437    1.0032    2.1068 H   0  0  0  0  0  0  0  0  0  0  0  0
   -2.9541    2.0712    0.1939 H   0  0  0  0  0  0  0  0  0  0  0  0
   -3.5324    0.1887   -1.3518 H   0  0  0  0  0  0  0  0  0  0  0  0
   -1.7886    0.5661   -1.8134 H   0  0  0  0  0  0  0  0  0  0  0  0
   -1.4355   -1.6998   -1.2516 H   0  0  0  0  0  0  0  0  0  0  0  0
   -2.8734   -1.7103   -0.1955 H   0  0  0  0  0  0  0  0  0  0  0  0
  1  2  1  0
  2  3  1  0
  3  4  3  0
  4  5  1  0
  5  6  1  0
  6  7  2  0
  7  8  1  0
  8  9  1  0
  9  5  1  0
  1 10  1  0
  1 11  1  0
  1 12  1  0
  2 13  1  0
  2 14  1  0
  5 15  1  0
  6 16  1  0
  7 17  1  0
  8 18  1  0
  8 19  1  0
  9 20  1  0
  9 21  1  0
M  END
