
     RDKit          3D

 25 24  0  0  0  0  0  0  0  0999 V2000
    3.6829   -0.7189   -0.7563 C   0  0  0  0  0  0  0  0  0  0  0  0
    3.1697   -0.7716    0.6466 C   0  0  0  0  0  0  0  0  0  0  0  0
    1.6965   -0.7637    0.6989 C   0  0  0  0  0  0  0  0  0  0  0  0
    0.4938   -0.7731    0.7279 C   0  0  0  0  0  0  0  0  0  0  0  0
   -0.9497   -0.8086    0.7556 C   0  0  0  0  0  0  0  0  0  0  0  0
   -1.5506    0.3241   -0.0296 C   0  0  0  0  0  0  0  0  0  0  0  0
   -3.0664    0.1788    0.0745 C   0  0  0  0  0  0  0  0  0  0  0  0
   -1.1764    1.6740    0.5056 C   0  0  0  0  0  0  0  0  0  0  0  0
   -1.2048    0.2735   -1.4887 C   0  0  0  0  0  0  0  0  0  0  0  0
    3.6500   -1.6738   -1.2764 H   0  0  0  0  0  0  0  0  0  0  0  0
    3.2092    0.0932   -1.3557 H   0  0  0  0  0  0  0  0  0  0  0  0
    4.7716   -0.4321   -0.6933 H   0  0  0  0  0  0  0  0  0  0  0  0
    3.5523    0.1100    1.2255 H   0  0  0  0  0  0  0  0  0  0  0  0
    3.5944   -1.6650    1.1330 H   0  0  0  0  0  0  0  0  0  0  0  0
   -1.2614   -1.7538    0.2347 H   0  0  0  0  0  0  0  0  0  0  0  0
   -1.3923   -0.8551    1.7567 H   0  0  0  0  0  0  0  0  0  0  0  0
   -3.5040    1.0662   -0.4260 H   0  0  0  0  0  0  0  0  0  0  0  0
   -3.4073   -0.7320   -0.4618 H   0  0  0  0  0  0  0  0  0  0  0  0
   -3.4083    0.1732    1.1298 H   0  0  0  0  0  0  0  0  0  0  0  0
   -0.1128    1.9118    0.3847 H   0  0  0  0  0  0  0  0  0  0  0  0
   -1.7465    2.4277   -0.0968 H   0  0  0  0  0  0  0  0  0  0  0  0
   -1.5297    1.8255    1.5613 H   0  0  0  0  0  0  0  0  0  0  0  0
   -0.2149    0.7106   -1.7221 H   0  0  0  0  0  0  0  0  0  0  0  0
   -1.3290   -0.7381   -1.9277 H   0  0  0  0  0  0  0  0  0  0  0  0
   -1.9666    0.9175   -2.0184 H   0  0  0  0  0  0  0  0  0  0  0  0
  1  2  1  0
  2  3  1  0
  3  4  3  0
  4  5  1  0
  5  6  1  0
  6  7  1  0
  6  8  1  0
  6  9  1  0
  1 10  1  0
  1 11  1  0
  1 12  1  0
  2 13  1  0
  2 14  1  0
  5 15  1  0
  5 16  1  0
  7 17  1  0
  7 18  1  0
  7 19  1  0
  8 20  1  0
  8 21  1  0
  8 22  1  0
  9 23  1  0
  9 24  1  0
  9 25  1  0
M  END
