
     RDKit          3D

 21 21  0  0  0  0  0  0  0  0999 V2000
    3.1556   -0.0125   -2.0846 C   0  0  0  0  0  0  0  0  0  0  0  0
    2.7696   -0.4533   -0.6985 C   0  0  0  0  0  0  0  0  0  0  0  0
    1.2984   -0.3871   -0.6114 C   0  0  0  0  0  0  0  0  0  0  0  0
    0.0960   -0.3249   -0.5595 C   0  0  0  0  0  0  0  0  0  0  0  0
   -1.3802   -0.2351   -0.4737 C   0  0  0  0  0  0  0  0  0  0  0  0
   -1.7082   -0.1261    0.9978 C   0  0  0  0  0  0  0  0  0  0  0  0
   -3.1717   -0.0199    1.3639 C   0  0  0  0  0  0  0  0  0  0  0  0
   -0.8329    0.8641    1.7366 C   0  0  0  0  0  0  0  0  0  0  0  0
   -0.7909   -0.5532    1.9310 O   0  0  0  0  0  0  0  0  0  0  0  0
    2.9927   -0.8629   -2.7804 H   0  0  0  0  0  0  0  0  0  0  0  0
    4.2175    0.2973   -2.1506 H   0  0  0  0  0  0  0  0  0  0  0  0
    2.4522    0.7877   -2.4027 H   0  0  0  0  0  0  0  0  0  0  0  0
    3.1366   -1.4985   -0.5527 H   0  0  0  0  0  0  0  0  0  0  0  0
    3.2540    0.1483    0.1004 H   0  0  0  0  0  0  0  0  0  0  0  0
   -1.8765   -1.0794   -0.9637 H   0  0  0  0  0  0  0  0  0  0  0  0
   -1.7457    0.6950   -0.9568 H   0  0  0  0  0  0  0  0  0  0  0  0
   -3.3246    0.4581    2.3557 H   0  0  0  0  0  0  0  0  0  0  0  0
   -3.6597   -1.0258    1.3104 H   0  0  0  0  0  0  0  0  0  0  0  0
   -3.6906    0.6172    0.6160 H   0  0  0  0  0  0  0  0  0  0  0  0
   -1.2343    1.4072    2.6085 H   0  0  0  0  0  0  0  0  0  0  0  0
    0.0427    1.3037    1.2144 H   0  0  0  0  0  0  0  0  0  0  0  0
  1  2  1  0
  2  3  1  0
  3  4  3  0
  4  5  1  0
  5  6  1  0
  6  7  1  0
  6  8  1  0
  8  9  1  0
  9  6  1  0
  1 10  1  0
  1 11  1  0
  1 12  1  0
  2 13  1  0
  2 14  1  0
  5 15  1  0
  5 16  1  0
  7 17  1  0
  7 18  1  0
  7 19  1  0
  8 20  1  0
  8 21  1  0
M  END
