
     RDKit          3D

 20 19  0  0  0  0  0  0  0  0999 V2000
    3.2693    0.4544    0.8535 C   0  0  0  0  0  0  0  0  0  0  0  0
    2.6182   -0.2406   -0.3101 C   0  0  0  0  0  0  0  0  0  0  0  0
    1.1999   -0.5362   -0.0589 C   0  0  0  0  0  0  0  0  0  0  0  0
    0.0246   -0.7607    0.1548 C   0  0  0  0  0  0  0  0  0  0  0  0
   -1.3869   -1.0439    0.3907 C   0  0  0  0  0  0  0  0  0  0  0  0
   -1.9039   -1.8955   -0.5944 O   0  0  0  0  0  0  0  0  0  0  0  0
   -2.1636    0.2334    0.4741 C   0  0  0  0  0  0  0  0  0  0  0  0
   -2.0974    1.0710   -0.7544 C   0  0  0  0  0  0  0  0  0  0  0  0
    2.5720    1.1144    1.4112 H   0  0  0  0  0  0  0  0  0  0  0  0
    4.0811    1.1181    0.4815 H   0  0  0  0  0  0  0  0  0  0  0  0
    3.7232   -0.2992    1.5495 H   0  0  0  0  0  0  0  0  0  0  0  0
    3.1884   -1.1863   -0.5033 H   0  0  0  0  0  0  0  0  0  0  0  0
    2.6642    0.3662   -1.2257 H   0  0  0  0  0  0  0  0  0  0  0  0
   -1.5355   -1.5816    1.3609 H   0  0  0  0  0  0  0  0  0  0  0  0
   -2.8049   -1.5650   -0.8452 H   0  0  0  0  0  0  0  0  0  0  0  0
   -1.7986    0.8131    1.3371 H   0  0  0  0  0  0  0  0  0  0  0  0
   -3.2271   -0.0379    0.6960 H   0  0  0  0  0  0  0  0  0  0  0  0
   -1.3417    1.8853   -0.6746 H   0  0  0  0  0  0  0  0  0  0  0  0
   -3.0909    1.5999   -0.8547 H   0  0  0  0  0  0  0  0  0  0  0  0
   -1.9902    0.4911   -1.6985 H   0  0  0  0  0  0  0  0  0  0  0  0
  1  2  1  0
  2  3  1  0
  3  4  3  0
  4  5  1  0
  5  6  1  0
  5  7  1  0
  7  8  1  0
  1  9  1  0
  1 10  1  0
  1 11  1  0
  2 12  1  0
  2 13  1  0
  5 14  1  0
  6 15  1  0
  7 16  1  0
  7 17  1  0
  8 18  1  0
  8 19  1  0
  8 20  1  0
M  END
