
     RDKit          3D

 20 19  0  0  0  0  0  0  0  0999 V2000
   -3.1187    0.9074    0.9325 C   0  0  0  0  0  0  0  0  0  0  0  0
   -2.7523   -0.5012    0.4466 C   0  0  0  0  0  0  0  0  0  0  0  0
   -1.5358   -0.4614   -0.3652 C   0  0  0  0  0  0  0  0  0  0  0  0
   -0.5096   -0.4402   -1.0346 C   0  0  0  0  0  0  0  0  0  0  0  0
    0.7086   -0.4372   -1.8434 C   0  0  0  0  0  0  0  0  0  0  0  0
    1.8252    0.0701   -0.9608 C   0  0  0  0  0  0  0  0  0  0  0  0
    2.0199   -0.7266    0.1562 O   0  0  0  0  0  0  0  0  0  0  0  0
    3.0649   -0.1669    0.8898 C   0  0  0  0  0  0  0  0  0  0  0  0
   -2.5221    1.1912    1.8252 H   0  0  0  0  0  0  0  0  0  0  0  0
   -4.1856    0.9484    1.2171 H   0  0  0  0  0  0  0  0  0  0  0  0
   -2.8813    1.6659    0.1494 H   0  0  0  0  0  0  0  0  0  0  0  0
   -3.6160   -0.9152   -0.1195 H   0  0  0  0  0  0  0  0  0  0  0  0
   -2.5515   -1.1122    1.3626 H   0  0  0  0  0  0  0  0  0  0  0  0
    0.9652   -1.4442   -2.1777 H   0  0  0  0  0  0  0  0  0  0  0  0
    0.6339    0.2545   -2.6992 H   0  0  0  0  0  0  0  0  0  0  0  0
    1.6688    1.1237   -0.6451 H   0  0  0  0  0  0  0  0  0  0  0  0
    2.7724    0.0459   -1.5445 H   0  0  0  0  0  0  0  0  0  0  0  0
    4.0131   -0.1156    0.3121 H   0  0  0  0  0  0  0  0  0  0  0  0
    2.7480    0.8568    1.1923 H   0  0  0  0  0  0  0  0  0  0  0  0
    3.2528   -0.7433    1.8278 H   0  0  0  0  0  0  0  0  0  0  0  0
  1  2  1  0
  2  3  1  0
  3  4  3  0
  4  5  1  0
  5  6  1  0
  6  7  1  0
  7  8  1  0
  1  9  1  0
  1 10  1  0
  1 11  1  0
  2 12  1  0
  2 13  1  0
  5 14  1  0
  5 15  1  0
  6 16  1  0
  6 17  1  0
  8 18  1  0
  8 19  1  0
  8 20  1  0
M  END
