
     RDKit          3D

 21 20  0  0  0  0  0  0  0  0999 V2000
    3.3948   -0.2278   -0.5485 C   0  0  0  0  0  0  0  0  0  0  0  0
    2.6345    0.7381    0.2944 C   0  0  0  0  0  0  0  0  0  0  0  0
    1.1950    0.4460    0.0908 C   0  0  0  0  0  0  0  0  0  0  0  0
    0.0227    0.2070   -0.0599 C   0  0  0  0  0  0  0  0  0  0  0  0
   -1.3964   -0.0992   -0.2619 C   0  0  0  0  0  0  0  0  0  0  0  0
   -1.5651   -1.5996   -0.1221 C   0  0  0  0  0  0  0  0  0  0  0  0
   -1.7843    0.3194   -1.5295 O   0  0  0  0  0  0  0  0  0  0  0  0
   -2.2590    0.5391    0.8076 C   0  0  0  0  0  0  0  0  0  0  0  0
   -2.1803    1.9202    0.7904 O   0  0  0  0  0  0  0  0  0  0  0  0
    4.0259    0.3574   -1.2641 H   0  0  0  0  0  0  0  0  0  0  0  0
    2.7293   -0.8482   -1.2165 H   0  0  0  0  0  0  0  0  0  0  0  0
    4.0287   -0.8955    0.0817 H   0  0  0  0  0  0  0  0  0  0  0  0
    2.8959    0.5685    1.3644 H   0  0  0  0  0  0  0  0  0  0  0  0
    2.8704    1.7822    0.0422 H   0  0  0  0  0  0  0  0  0  0  0  0
   -2.5385   -1.9279   -0.5449 H   0  0  0  0  0  0  0  0  0  0  0  0
   -1.5220   -1.8127    0.9813 H   0  0  0  0  0  0  0  0  0  0  0  0
   -0.7277   -2.0965   -0.6567 H   0  0  0  0  0  0  0  0  0  0  0  0
   -2.6829    0.0393   -1.7618 H   0  0  0  0  0  0  0  0  0  0  0  0
   -1.9395    0.1584    1.7897 H   0  0  0  0  0  0  0  0  0  0  0  0
   -3.2940    0.1651    0.6360 H   0  0  0  0  0  0  0  0  0  0  0  0
   -1.9076    2.2665   -0.0860 H   0  0  0  0  0  0  0  0  0  0  0  0
  1  2  1  0
  2  3  1  0
  3  4  3  0
  4  5  1  0
  5  6  1  0
  5  7  1  0
  5  8  1  0
  8  9  1  0
  1 10  1  0
  1 11  1  0
  1 12  1  0
  2 13  1  0
  2 14  1  0
  6 15  1  0
  6 16  1  0
  6 17  1  0
  7 18  1  0
  8 19  1  0
  8 20  1  0
  9 21  1  0
M  END
