
     RDKit          3D

 21 21  0  0  0  0  0  0  0  0999 V2000
    1.4653    2.1665    2.5650 C   0  0  0  0  0  0  0  0  0  0  0  0
   -0.0010    1.8117    2.3028 C   0  0  0  0  0  0  0  0  0  0  0  0
    0.0155    1.0617    1.0535 C   0  0  0  0  0  0  0  0  0  0  0  0
    0.0229    0.3920   -0.0215 C   0  0  0  0  0  0  0  0  0  0  0  0
    0.0210   -0.3767   -1.2238 C   0  0  0  0  0  0  0  0  0  0  0  0
   -1.3162   -0.3668   -1.9676 C   0  0  0  0  0  0  0  0  0  0  0  0
   -0.9740   -1.8200   -2.3519 C   0  0  0  0  0  0  0  0  0  0  0  0
   -0.2710   -1.8806   -1.0050 C   0  0  0  0  0  0  0  0  0  0  0  0
    0.8703   -2.6435   -0.9428 O   0  0  0  0  0  0  0  0  0  0  0  0
    1.5707    2.3276    3.6399 H   0  0  0  0  0  0  0  0  0  0  0  0
    1.6872    3.0990    2.0015 H   0  0  0  0  0  0  0  0  0  0  0  0
    2.1247    1.3323    2.2099 H   0  0  0  0  0  0  0  0  0  0  0  0
   -0.5536    2.7655    2.1859 H   0  0  0  0  0  0  0  0  0  0  0  0
   -0.3406    1.2012    3.1406 H   0  0  0  0  0  0  0  0  0  0  0  0
    0.8921   -0.2127   -1.8882 H   0  0  0  0  0  0  0  0  0  0  0  0
   -1.3654    0.3143   -2.8231 H   0  0  0  0  0  0  0  0  0  0  0  0
   -2.1409   -0.4055   -1.2566 H   0  0  0  0  0  0  0  0  0  0  0  0
   -1.8253   -2.4935   -2.4165 H   0  0  0  0  0  0  0  0  0  0  0  0
   -0.2157   -1.8879   -3.1552 H   0  0  0  0  0  0  0  0  0  0  0  0
   -0.9555   -1.9455   -0.1248 H   0  0  0  0  0  0  0  0  0  0  0  0
    1.2896   -2.4391   -0.0497 H   0  0  0  0  0  0  0  0  0  0  0  0
  1  2  1  0
  2  3  1  0
  3  4  3  0
  4  5  1  0
  5  6  1  0
  6  7  1  0
  7  8  1  0
  8  9  1  0
  8  5  1  0
  1 10  1  0
  1 11  1  0
  1 12  1  0
  2 13  1  0
  2 14  1  0
  5 15  1  0
  6 16  1  0
  6 17  1  0
  7 18  1  0
  7 19  1  0
  8 20  1  0
  9 21  1  0
M  END
