
     RDKit          3D

 18 18  0  0  0  0  0  0  0  0999 V2000
    2.9817   -0.8231   -0.7119 C   0  0  0  0  0  0  0  0  0  0  0  0
    2.6054    0.6244   -0.4552 C   0  0  0  0  0  0  0  0  0  0  0  0
    1.1714    0.6814   -0.1661 C   0  0  0  0  0  0  0  0  0  0  0  0
   -0.0285    0.7492    0.0686 C   0  0  0  0  0  0  0  0  0  0  0  0
   -1.4631    0.8053    0.3521 C   0  0  0  0  0  0  0  0  0  0  0  0
   -1.8572   -0.3796    1.1718 C   0  0  0  0  0  0  0  0  0  0  0  0
   -3.3431   -0.4164    1.5241 C   0  0  0  0  0  0  0  0  0  0  0  0
   -2.2794   -0.2210    2.4874 O   0  0  0  0  0  0  0  0  0  0  0  0
    3.9254   -0.8197   -1.2587 H   0  0  0  0  0  0  0  0  0  0  0  0
    3.0987   -1.3487    0.2588 H   0  0  0  0  0  0  0  0  0  0  0  0
    2.1610   -1.3333   -1.2647 H   0  0  0  0  0  0  0  0  0  0  0  0
    2.8565    1.1752   -1.3940 H   0  0  0  0  0  0  0  0  0  0  0  0
    3.1518    1.0488    0.3992 H   0  0  0  0  0  0  0  0  0  0  0  0
   -1.7542    1.7586    0.8326 H   0  0  0  0  0  0  0  0  0  0  0  0
   -2.0307    0.7510   -0.6187 H   0  0  0  0  0  0  0  0  0  0  0  0
   -1.4178   -1.3508    0.9453 H   0  0  0  0  0  0  0  0  0  0  0  0
   -3.8420   -1.4026    1.5725 H   0  0  0  0  0  0  0  0  0  0  0  0
   -3.9357    0.5014    1.3772 H   0  0  0  0  0  0  0  0  0  0  0  0
  1  2  1  0
  2  3  1  0
  3  4  3  0
  4  5  1  0
  5  6  1  0
  6  7  1  0
  7  8  1  0
  8  6  1  0
  1  9  1  0
  1 10  1  0
  1 11  1  0
  2 12  1  0
  2 13  1  0
  5 14  1  0
  5 15  1  0
  6 16  1  0
  7 17  1  0
  7 18  1  0
M  END
