
     RDKit          3D

 19 20  0  0  0  0  0  0  0  0999 V2000
    3.4759    0.2225   -0.0996 C   0  0  0  0  0  0  0  0  0  0  0  0
    2.5490   -0.8830   -0.5820 C   0  0  0  0  0  0  0  0  0  0  0  0
    1.1261   -0.4869   -0.3820 C   0  0  0  0  0  0  0  0  0  0  0  0
   -0.0149   -0.1536   -0.2357 C   0  0  0  0  0  0  0  0  0  0  0  0
   -1.2969    0.2158   -0.0483 C   0  0  0  0  0  0  0  0  0  0  0  0
   -1.9273    0.6299    1.2184 C   0  0  0  0  0  0  0  0  0  0  0  0
   -2.9413    0.7773    0.1167 C   0  0  0  0  0  0  0  0  0  0  0  0
   -2.4943   -0.5669   -0.3790 C   0  0  0  0  0  0  0  0  0  0  0  0
   -1.9089    1.3117   -0.6463 O   0  0  0  0  0  0  0  0  0  0  0  0
    2.8423    1.1045    0.1412 H   0  0  0  0  0  0  0  0  0  0  0  0
    3.9942   -0.0679    0.8426 H   0  0  0  0  0  0  0  0  0  0  0  0
    4.2006    0.5147   -0.8953 H   0  0  0  0  0  0  0  0  0  0  0  0
    2.6743   -1.0285   -1.6778 H   0  0  0  0  0  0  0  0  0  0  0  0
    2.7345   -1.8378   -0.0800 H   0  0  0  0  0  0  0  0  0  0  0  0
   -1.5866    1.5466    1.7075 H   0  0  0  0  0  0  0  0  0  0  0  0
   -2.1684   -0.2248    1.8867 H   0  0  0  0  0  0  0  0  0  0  0  0
   -3.8813    1.1203    0.1978 H   0  0  0  0  0  0  0  0  0  0  0  0
   -2.6782   -1.3881    0.3382 H   0  0  0  0  0  0  0  0  0  0  0  0
   -2.6990   -0.8058   -1.4231 H   0  0  0  0  0  0  0  0  0  0  0  0
  1  2  1  0
  2  3  1  0
  3  4  3  0
  4  5  1  0
  5  6  1  0
  6  7  1  0
  7  8  1  0
  7  9  1  0
  8  5  1  0
  9  5  1  0
  1 10  1  0
  1 11  1  0
  1 12  1  0
  2 13  1  0
  2 14  1  0
  6 15  1  0
  6 16  1  0
  7 17  1  0
  8 18  1  0
  8 19  1  0
M  END
