
     RDKit          3D

 23 22  0  0  0  0  0  0  0  0999 V2000
    3.2235    1.1543    1.3614 C   0  0  0  0  0  0  0  0  0  0  0  0
    2.3763    0.3880    2.4197 C   0  0  0  0  0  0  0  0  0  0  0  0
    1.0326    0.4603    1.8681 C   0  0  0  0  0  0  0  0  0  0  0  0
   -0.1551    0.5172    1.3861 C   0  0  0  0  0  0  0  0  0  0  0  0
   -1.4807    0.5683    0.8246 C   0  0  0  0  0  0  0  0  0  0  0  0
   -1.8094   -0.9395    0.5658 C   0  0  0  0  0  0  0  0  0  0  0  0
   -0.7961   -1.4259   -0.2536 O   0  0  0  0  0  0  0  0  0  0  0  0
   -0.6950   -0.7136   -1.4264 C   0  0  0  0  0  0  0  0  0  0  0  0
   -1.9208   -0.7465   -2.3010 C   0  0  0  0  0  0  0  0  0  0  0  0
    2.9796    0.7281    0.3723 H   0  0  0  0  0  0  0  0  0  0  0  0
    4.2850    1.0605    1.5631 H   0  0  0  0  0  0  0  0  0  0  0  0
    2.8759    2.2282    1.3246 H   0  0  0  0  0  0  0  0  0  0  0  0
    2.7625   -0.6248    2.4278 H   0  0  0  0  0  0  0  0  0  0  0  0
    2.4809    0.8531    3.4048 H   0  0  0  0  0  0  0  0  0  0  0  0
   -2.2475    0.8485    1.6165 H   0  0  0  0  0  0  0  0  0  0  0  0
   -1.5494    1.1739   -0.0655 H   0  0  0  0  0  0  0  0  0  0  0  0
   -1.6773   -1.3864    1.5593 H   0  0  0  0  0  0  0  0  0  0  0  0
   -2.8195   -0.9848    0.1918 H   0  0  0  0  0  0  0  0  0  0  0  0
   -0.2607    0.3117   -1.2681 H   0  0  0  0  0  0  0  0  0  0  0  0
    0.1130   -1.2027   -2.0518 H   0  0  0  0  0  0  0  0  0  0  0  0
   -2.8144   -0.3757   -1.7608 H   0  0  0  0  0  0  0  0  0  0  0  0
   -1.7574   -0.1303   -3.2139 H   0  0  0  0  0  0  0  0  0  0  0  0
   -2.1460   -1.7617   -2.6629 H   0  0  0  0  0  0  0  0  0  0  0  0
  1  2  1  0
  2  3  1  0
  3  4  3  0
  4  5  1  0
  5  6  1  0
  6  7  1  0
  7  8  1  0
  8  9  1  0
  1 10  1  0
  1 11  1  0
  1 12  1  0
  2 13  1  0
  2 14  1  0
  5 15  1  0
  5 16  1  0
  6 17  1  0
  6 18  1  0
  8 19  1  0
  8 20  1  0
  9 21  1  0
  9 22  1  0
  9 23  1  0
M  END
