
     RDKit          3D

 19 20  0  0  0  0  0  0  0  0999 V2000
    3.2935    0.3772    0.0237 C   0  0  0  0  0  0  0  0  0  0  0  0
    2.3965   -0.3160    1.0412 C   0  0  0  0  0  0  0  0  0  0  0  0
    0.9869   -0.1246    0.6766 C   0  0  0  0  0  0  0  0  0  0  0  0
   -0.1717    0.0116    0.3766 C   0  0  0  0  0  0  0  0  0  0  0  0
   -1.5729    0.1985    0.0006 C   0  0  0  0  0  0  0  0  0  0  0  0
   -1.9552    1.2255   -1.0096 C   0  0  0  0  0  0  0  0  0  0  0  0
   -2.5212    0.2016   -1.7812 O   0  0  0  0  0  0  0  0  0  0  0  0
   -2.1323   -0.8066   -0.9016 C   0  0  0  0  0  0  0  0  0  0  0  0
   -2.6160   -0.7002    0.5301 C   0  0  0  0  0  0  0  0  0  0  0  0
    3.2367   -0.2273   -0.9031 H   0  0  0  0  0  0  0  0  0  0  0  0
    4.3132    0.4210    0.4565 H   0  0  0  0  0  0  0  0  0  0  0  0
    2.8721    1.3642   -0.2022 H   0  0  0  0  0  0  0  0  0  0  0  0
    2.6276    0.1755    2.0243 H   0  0  0  0  0  0  0  0  0  0  0  0
    2.6479   -1.3732    1.1607 H   0  0  0  0  0  0  0  0  0  0  0  0
   -1.1048    1.7377   -1.4723 H   0  0  0  0  0  0  0  0  0  0  0  0
   -2.7397    1.9076   -0.5746 H   0  0  0  0  0  0  0  0  0  0  0  0
   -1.6161   -1.6968   -1.2539 H   0  0  0  0  0  0  0  0  0  0  0  0
   -2.3098   -1.5103    1.2032 H   0  0  0  0  0  0  0  0  0  0  0  0
   -3.6350   -0.2688    0.6051 H   0  0  0  0  0  0  0  0  0  0  0  0
  1  2  1  0
  2  3  1  0
  3  4  3  0
  4  5  1  0
  5  6  1  0
  6  7  1  0
  7  8  1  0
  8  9  1  0
  8  5  1  0
  9  5  1  0
  1 10  1  0
  1 11  1  0
  1 12  1  0
  2 13  1  0
  2 14  1  0
  6 15  1  0
  6 16  1  0
  8 17  1  0
  9 18  1  0
  9 19  1  0
M  END
