
     RDKit          3D

 16 15  0  0  0  0  0  0  0  0999 V2000
   -3.1115    0.2949    0.3739 C   0  0  0  0  0  0  0  0  0  0  0  0
   -2.5079    0.0020   -0.9608 C   0  0  0  0  0  0  0  0  0  0  0  0
   -1.0540    0.1221   -0.8258 C   0  0  0  0  0  0  0  0  0  0  0  0
    0.1622    0.2103   -0.7300 C   0  0  0  0  0  0  0  0  0  0  0  0
    1.5925    0.2890   -0.6144 C   0  0  0  0  0  0  0  0  0  0  0  0
    2.2435    1.1983   -1.1917 O   0  0  0  0  0  0  0  0  0  0  0  0
    2.2911   -0.6429    0.1418 O   0  0  0  0  0  0  0  0  0  0  0  0
    3.7001   -0.5521    0.2461 C   0  0  0  0  0  0  0  0  0  0  0  0
   -3.0854   -0.6375    0.9741 H   0  0  0  0  0  0  0  0  0  0  0  0
   -2.5225    1.0790    0.9190 H   0  0  0  0  0  0  0  0  0  0  0  0
   -4.1911    0.6100    0.2692 H   0  0  0  0  0  0  0  0  0  0  0  0
   -2.7524   -1.0441   -1.2871 H   0  0  0  0  0  0  0  0  0  0  0  0
   -2.9022    0.6752   -1.7759 H   0  0  0  0  0  0  0  0  0  0  0  0
    4.0531   -0.0505   -0.6862 H   0  0  0  0  0  0  0  0  0  0  0  0
    4.0787   -1.5928    0.3090 H   0  0  0  0  0  0  0  0  0  0  0  0
    4.0058    0.0391    1.1293 H   0  0  0  0  0  0  0  0  0  0  0  0
  1  2  1  0
  2  3  1  0
  3  4  3  0
  4  5  1  0
  5  6  2  0
  5  7  1  0
  7  8  1  0
  1  9  1  0
  1 10  1  0
  1 11  1  0
  2 12  1  0
  2 13  1  0
  8 14  1  0
  8 15  1  0
  8 16  1  0
M  END
