
     RDKit          3D

 19 19  0  0  0  0  0  0  0  0999 V2000
   -2.7765    1.0958    1.5234 C   0  0  0  0  0  0  0  0  0  0  0  0
   -1.5155    1.7610    1.0805 C   0  0  0  0  0  0  0  0  0  0  0  0
   -0.6071    0.7976    0.4922 C   0  0  0  0  0  0  0  0  0  0  0  0
    0.1415   -0.0268    0.0001 C   0  0  0  0  0  0  0  0  0  0  0  0
    1.0493   -0.9993   -0.5686 C   0  0  0  0  0  0  0  0  0  0  0  0
    2.1715   -0.4283   -1.4138 C   0  0  0  0  0  0  0  0  0  0  0  0
    1.6456   -0.2467   -2.7086 O   0  0  0  0  0  0  0  0  0  0  0  0
    1.2757   -2.2589    0.2043 C   0  0  0  0  0  0  0  0  0  0  0  0
    0.5469   -2.1975   -1.0040 O   0  0  0  0  0  0  0  0  0  0  0  0
   -3.5652    1.8865    1.6749 H   0  0  0  0  0  0  0  0  0  0  0  0
   -3.1613    0.4296    0.7288 H   0  0  0  0  0  0  0  0  0  0  0  0
   -2.6786    0.5276    2.4551 H   0  0  0  0  0  0  0  0  0  0  0  0
   -1.0500    2.3051    1.9492 H   0  0  0  0  0  0  0  0  0  0  0  0
   -1.7619    2.5271    0.2928 H   0  0  0  0  0  0  0  0  0  0  0  0
    2.5125    0.5537   -1.0844 H   0  0  0  0  0  0  0  0  0  0  0  0
    2.9912   -1.1531   -1.4867 H   0  0  0  0  0  0  0  0  0  0  0  0
    1.8552    0.6302   -3.0802 H   0  0  0  0  0  0  0  0  0  0  0  0
    0.6526   -2.4736    1.0714 H   0  0  0  0  0  0  0  0  0  0  0  0
    2.2741   -2.7298    0.1562 H   0  0  0  0  0  0  0  0  0  0  0  0
  1  2  1  0
  2  3  1  0
  3  4  3  0
  4  5  1  0
  5  6  1  0
  6  7  1  0
  5  8  1  0
  8  9  1  0
  9  5  1  0
  1 10  1  0
  1 11  1  0
  1 12  1  0
  2 13  1  0
  2 14  1  0
  6 15  1  0
  6 16  1  0
  7 17  1  0
  8 18  1  0
  8 19  1  0
M  END
