
     RDKit          3D

 25 24  0  0  0  0  0  0  0  0999 V2000
    4.2448   -0.0988    1.8896 C   0  0  0  0  0  0  0  0  0  0  0  0
    3.5904   -1.4083    1.4650 C   0  0  0  0  0  0  0  0  0  0  0  0
    2.3633   -1.0672    0.7411 C   0  0  0  0  0  0  0  0  0  0  0  0
    1.3584   -0.7726    0.1361 C   0  0  0  0  0  0  0  0  0  0  0  0
    0.1162   -0.4177   -0.5823 C   0  0  0  0  0  0  0  0  0  0  0  0
   -0.5517    0.7594    0.1041 C   0  0  0  0  0  0  0  0  0  0  0  0
   -1.8104    1.1309   -0.6157 C   0  0  0  0  0  0  0  0  0  0  0  0
   -2.8309    0.0283   -0.6713 C   0  0  0  0  0  0  0  0  0  0  0  0
   -4.0867    0.4755   -1.4132 C   0  0  0  0  0  0  0  0  0  0  0  0
    3.4830    0.4647    2.4474 H   0  0  0  0  0  0  0  0  0  0  0  0
    5.1135   -0.4093    2.5414 H   0  0  0  0  0  0  0  0  0  0  0  0
    4.6180    0.4133    0.9875 H   0  0  0  0  0  0  0  0  0  0  0  0
    3.3718   -1.9584    2.4135 H   0  0  0  0  0  0  0  0  0  0  0  0
    4.2425   -1.9976    0.7887 H   0  0  0  0  0  0  0  0  0  0  0  0
   -0.5711   -1.2829   -0.6371 H   0  0  0  0  0  0  0  0  0  0  0  0
    0.4203   -0.1648   -1.6164 H   0  0  0  0  0  0  0  0  0  0  0  0
    0.1073    1.6640    0.0715 H   0  0  0  0  0  0  0  0  0  0  0  0
   -0.7169    0.5635    1.1808 H   0  0  0  0  0  0  0  0  0  0  0  0
   -2.2428    2.0206   -0.1325 H   0  0  0  0  0  0  0  0  0  0  0  0
   -1.5144    1.3636   -1.6803 H   0  0  0  0  0  0  0  0  0  0  0  0
   -3.0633   -0.3283    0.3381 H   0  0  0  0  0  0  0  0  0  0  0  0
   -2.4422   -0.8372   -1.2650 H   0  0  0  0  0  0  0  0  0  0  0  0
   -4.6770    1.1353   -0.7309 H   0  0  0  0  0  0  0  0  0  0  0  0
   -3.8286    1.1055   -2.2880 H   0  0  0  0  0  0  0  0  0  0  0  0
   -4.6934   -0.3816   -1.7379 H   0  0  0  0  0  0  0  0  0  0  0  0
  1  2  1  0
  2  3  1  0
  3  4  3  0
  4  5  1  0
  5  6  1  0
  6  7  1  0
  7  8  1  0
  8  9  1  0
  1 10  1  0
  1 11  1  0
  1 12  1  0
  2 13  1  0
  2 14  1  0
  5 15  1  0
  5 16  1  0
  6 17  1  0
  6 18  1  0
  7 19  1  0
  7 20  1  0
  8 21  1  0
  8 22  1  0
  9 23  1  0
  9 24  1  0
  9 25  1  0
M  END
