
     RDKit          3D

 21 21  0  0  0  0  0  0  0  0999 V2000
    2.5789    1.5147    0.2073 C   0  0  0  0  0  0  0  0  0  0  0  0
    2.7782    0.0591   -0.1047 C   0  0  0  0  0  0  0  0  0  0  0  0
    1.5563   -0.6312    0.2044 C   0  0  0  0  0  0  0  0  0  0  0  0
    0.5484   -1.2027    0.4811 C   0  0  0  0  0  0  0  0  0  0  0  0
   -0.8511   -1.9867    0.8374 C   0  0  0  0  0  0  0  0  0  0  0  0
   -1.7256   -1.1809    1.3999 O   0  0  0  0  0  0  0  0  0  0  0  0
   -1.8212   -1.4445   -0.0818 C   0  0  0  0  0  0  0  0  0  0  0  0
   -1.8957   -0.0574   -0.6924 C   0  0  0  0  0  0  0  0  0  0  0  0
   -2.1403    0.9722    0.3773 C   0  0  0  0  0  0  0  0  0  0  0  0
    3.5803    2.0716    0.2659 H   0  0  0  0  0  0  0  0  0  0  0  0
    2.0875    1.5916    1.2219 H   0  0  0  0  0  0  0  0  0  0  0  0
    1.9898    2.0314   -0.5813 H   0  0  0  0  0  0  0  0  0  0  0  0
    3.0085   -0.1279   -1.1785 H   0  0  0  0  0  0  0  0  0  0  0  0
    3.6523   -0.3908    0.4255 H   0  0  0  0  0  0  0  0  0  0  0  0
   -0.6890   -3.0063    0.9991 H   0  0  0  0  0  0  0  0  0  0  0  0
   -2.7394   -2.0624   -0.2718 H   0  0  0  0  0  0  0  0  0  0  0  0
   -2.5167    0.0571   -1.5741 H   0  0  0  0  0  0  0  0  0  0  0  0
   -0.7896    0.1501   -1.0228 H   0  0  0  0  0  0  0  0  0  0  0  0
   -1.7409    1.9672    0.0745 H   0  0  0  0  0  0  0  0  0  0  0  0
   -1.6395    0.6884    1.3338 H   0  0  0  0  0  0  0  0  0  0  0  0
   -3.2312    0.9874    0.6192 H   0  0  0  0  0  0  0  0  0  0  0  0
  1  2  1  0
  2  3  1  0
  3  4  3  0
  4  5  1  0
  5  6  1  0
  6  7  1  0
  7  8  1  0
  8  9  1  0
  7  5  1  0
  1 10  1  0
  1 11  1  0
  1 12  1  0
  2 13  1  0
  2 14  1  0
  5 15  1  0
  7 16  1  0
  8 17  1  0
  8 18  1  0
  9 19  1  0
  9 20  1  0
  9 21  1  0
M  END
