
     RDKit          3D

 21 20  0  0  0  0  0  0  0  0999 V2000
   -3.4449    1.2654   -0.3407 C   0  0  0  0  0  0  0  0  0  0  0  0
   -3.1396    0.1614    0.6531 C   0  0  0  0  0  0  0  0  0  0  0  0
   -1.7675   -0.3122    0.4575 C   0  0  0  0  0  0  0  0  0  0  0  0
   -0.6340   -0.6834    0.3058 C   0  0  0  0  0  0  0  0  0  0  0  0
    0.7711   -1.1257    0.1214 C   0  0  0  0  0  0  0  0  0  0  0  0
    1.5313    0.0549   -0.3782 C   0  0  0  0  0  0  0  0  0  0  0  0
    1.4920    1.1219    0.5167 O   0  0  0  0  0  0  0  0  0  0  0  0
    2.9828   -0.3667   -0.6349 C   0  0  0  0  0  0  0  0  0  0  0  0
    3.6012   -0.7607    0.5374 O   0  0  0  0  0  0  0  0  0  0  0  0
   -2.7240    2.0794   -0.2110 H   0  0  0  0  0  0  0  0  0  0  0  0
   -3.3571    0.8582   -1.3684 H   0  0  0  0  0  0  0  0  0  0  0  0
   -4.4989    1.5870   -0.2273 H   0  0  0  0  0  0  0  0  0  0  0  0
   -3.3361    0.4909    1.6914 H   0  0  0  0  0  0  0  0  0  0  0  0
   -3.8875   -0.6462    0.4488 H   0  0  0  0  0  0  0  0  0  0  0  0
    0.8378   -1.9300   -0.6270 H   0  0  0  0  0  0  0  0  0  0  0  0
    1.1934   -1.5101    1.0650 H   0  0  0  0  0  0  0  0  0  0  0  0
    1.1041    0.4106   -1.3354 H   0  0  0  0  0  0  0  0  0  0  0  0
    2.4093    1.4731    0.5890 H   0  0  0  0  0  0  0  0  0  0  0  0
    3.5534    0.4735   -1.1031 H   0  0  0  0  0  0  0  0  0  0  0  0
    3.0054   -1.2018   -1.3646 H   0  0  0  0  0  0  0  0  0  0  0  0
    4.3079   -1.4397    0.3691 H   0  0  0  0  0  0  0  0  0  0  0  0
  1  2  1  0
  2  3  1  0
  3  4  3  0
  4  5  1  0
  5  6  1  0
  6  7  1  0
  6  8  1  0
  8  9  1  0
  1 10  1  0
  1 11  1  0
  1 12  1  0
  2 13  1  0
  2 14  1  0
  5 15  1  0
  5 16  1  0
  6 17  1  0
  7 18  1  0
  8 19  1  0
  8 20  1  0
  9 21  1  0
M  END
