
     RDKit          3D

 19 19  0  0  0  0  0  0  0  0999 V2000
   -4.1036   -0.4858    1.7221 C   0  0  0  0  0  0  0  0  0  0  0  0
   -3.5366    0.6486    0.9880 C   0  0  0  0  0  0  0  0  0  0  0  0
   -2.1063    0.3986    0.5484 C   0  0  0  0  0  0  0  0  0  0  0  0
   -0.9479    0.1813    0.1809 C   0  0  0  0  0  0  0  0  0  0  0  0
    0.3881   -0.0697   -0.2688 C   0  0  0  0  0  0  0  0  0  0  0  0
    1.5508   -0.3088   -0.6680 C   0  0  0  0  0  0  0  0  0  0  0  0
    2.7611   -0.5606   -1.0983 C   0  0  0  0  0  0  0  0  0  0  0  0
    3.6378   -0.1454   -2.1556 C   0  0  0  0  0  0  0  0  0  0  0  0
    3.8340    0.4835   -0.8360 C   0  0  0  0  0  0  0  0  0  0  0  0
   -5.2274   -0.5476    1.6200 H   0  0  0  0  0  0  0  0  0  0  0  0
   -3.9125   -0.4028    2.8235 H   0  0  0  0  0  0  0  0  0  0  0  0
   -3.6792   -1.4568    1.4071 H   0  0  0  0  0  0  0  0  0  0  0  0
   -4.1089    0.7822    0.0169 H   0  0  0  0  0  0  0  0  0  0  0  0
   -3.6102    1.6079    1.5140 H   0  0  0  0  0  0  0  0  0  0  0  0
    3.2073   -1.6180   -0.6226 H   0  0  0  0  0  0  0  0  0  0  0  0
    4.4865   -0.8421   -2.4916 H   0  0  0  0  0  0  0  0  0  0  0  0
    3.3507    0.5220   -2.9959 H   0  0  0  0  0  0  0  0  0  0  0  0
    4.5552    0.2536   -0.0745 H   0  0  0  0  0  0  0  0  0  0  0  0
    3.4609    1.5597   -0.7612 H   0  0  0  0  0  0  0  0  0  0  0  0
  1  2  1  0
  2  3  1  0
  3  4  3  0
  4  5  1  0
  5  6  3  0
  6  7  1  0
  7  8  1  0
  8  9  1  0
  9  7  1  0
  1 10  1  0
  1 11  1  0
  1 12  1  0
  2 13  1  0
  2 14  1  0
  7 15  1  0
  8 16  1  0
  8 17  1  0
  9 18  1  0
  9 19  1  0
M  END
