
     RDKit          3D

 19 18  0  0  0  0  0  0  0  0999 V2000
    3.3253    0.7710    0.0719 C   0  0  0  0  0  0  0  0  0  0  0  0
    2.6059   -0.5264    0.2142 C   0  0  0  0  0  0  0  0  0  0  0  0
    1.1674   -0.2789    0.0947 C   0  0  0  0  0  0  0  0  0  0  0  0
   -0.0141   -0.0580   -0.0065 C   0  0  0  0  0  0  0  0  0  0  0  0
   -1.4700    0.1936   -0.1166 C   0  0  0  0  0  0  0  0  0  0  0  0
   -1.6927    1.6288    0.1460 C   0  0  0  0  0  0  0  0  0  0  0  0
   -1.1870    2.4533   -0.5809 O   0  0  0  0  0  0  0  0  0  0  0  0
   -2.1310   -0.5539    0.8229 O   0  0  0  0  0  0  0  0  0  0  0  0
   -3.0485   -1.4435    0.2744 C   0  0  0  0  0  0  0  0  0  0  0  0
    4.1994    0.7954    0.7708 H   0  0  0  0  0  0  0  0  0  0  0  0
    2.6899    1.6618    0.2133 H   0  0  0  0  0  0  0  0  0  0  0  0
    3.7287    0.8229   -0.9714 H   0  0  0  0  0  0  0  0  0  0  0  0
    2.9475   -1.3081   -0.5096 H   0  0  0  0  0  0  0  0  0  0  0  0
    2.8284   -0.9703    1.2258 H   0  0  0  0  0  0  0  0  0  0  0  0
   -1.8121   -0.0714   -1.1583 H   0  0  0  0  0  0  0  0  0  0  0  0
   -2.2977    1.9377    0.9742 H   0  0  0  0  0  0  0  0  0  0  0  0
   -3.5179   -1.9895    1.1307 H   0  0  0  0  0  0  0  0  0  0  0  0
   -2.4809   -2.1202   -0.3939 H   0  0  0  0  0  0  0  0  0  0  0  0
   -3.8404   -0.9445   -0.3015 H   0  0  0  0  0  0  0  0  0  0  0  0
  1  2  1  0
  2  3  1  0
  3  4  3  0
  4  5  1  0
  5  6  1  0
  6  7  2  0
  5  8  1  0
  8  9  1  0
  1 10  1  0
  1 11  1  0
  1 12  1  0
  2 13  1  0
  2 14  1  0
  5 15  1  0
  6 16  1  0
  9 17  1  0
  9 18  1  0
  9 19  1  0
M  END
