
     RDKit          3D

 14 13  0  0  0  0  0  0  0  0999 V2000
   -2.2795   -0.0224   -0.9484 C   0  0  0  0  0  0  0  0  0  0  0  0
   -1.7574   -0.5555    0.3636 C   0  0  0  0  0  0  0  0  0  0  0  0
   -0.3406   -0.1582    0.4680 C   0  0  0  0  0  0  0  0  0  0  0  0
    0.7938    0.1591    0.5565 C   0  0  0  0  0  0  0  0  0  0  0  0
    2.1842    0.5555    0.6894 C   0  0  0  0  0  0  0  0  0  0  0  0
    2.4449    1.2691    1.7021 O   0  0  0  0  0  0  0  0  0  0  0  0
    3.2173    0.1998   -0.2152 C   0  0  0  0  0  0  0  0  0  0  0  0
    2.9871   -0.5047   -1.2208 O   0  0  0  0  0  0  0  0  0  0  0  0
   -1.4435    0.1618   -1.6572 H   0  0  0  0  0  0  0  0  0  0  0  0
   -2.9282   -0.8346   -1.3590 H   0  0  0  0  0  0  0  0  0  0  0  0
   -2.8429    0.9252   -0.8006 H   0  0  0  0  0  0  0  0  0  0  0  0
   -1.9040   -1.6466    0.4640 H   0  0  0  0  0  0  0  0  0  0  0  0
   -2.3720   -0.0638    1.1527 H   0  0  0  0  0  0  0  0  0  0  0  0
    4.2409    0.5155   -0.0785 H   0  0  0  0  0  0  0  0  0  0  0  0
  1  2  1  0
  2  3  1  0
  3  4  3  0
  4  5  1  0
  5  6  2  0
  5  7  1  0
  7  8  2  0
  1  9  1  0
  1 10  1  0
  1 11  1  0
  2 12  1  0
  2 13  1  0
  7 14  1  0
M  END
