
     RDKit          3D

 23 23  0  0  0  0  0  0  0  0999 V2000
    3.3278   -1.1404   -0.3125 C   0  0  0  0  0  0  0  0  0  0  0  0
    2.7427   -0.0389   -1.1683 C   0  0  0  0  0  0  0  0  0  0  0  0
    1.3642    0.2280   -0.7566 C   0  0  0  0  0  0  0  0  0  0  0  0
    0.2091    0.4322   -0.4028 C   0  0  0  0  0  0  0  0  0  0  0  0
   -1.1696    0.6712    0.0252 C   0  0  0  0  0  0  0  0  0  0  0  0
   -1.5438    0.0962    1.3725 C   0  0  0  0  0  0  0  0  0  0  0  0
   -1.3783   -1.4002    1.4032 C   0  0  0  0  0  0  0  0  0  0  0  0
   -2.2364    0.7993   -1.0004 C   0  0  0  0  0  0  0  0  0  0  0  0
   -1.7274    2.0352   -0.3468 C   0  0  0  0  0  0  0  0  0  0  0  0
    3.6061   -0.7124    0.6815 H   0  0  0  0  0  0  0  0  0  0  0  0
    4.2494   -1.4933   -0.8406 H   0  0  0  0  0  0  0  0  0  0  0  0
    2.5839   -1.9498   -0.2307 H   0  0  0  0  0  0  0  0  0  0  0  0
    2.8160   -0.3003   -2.2402 H   0  0  0  0  0  0  0  0  0  0  0  0
    3.3146    0.9065   -1.0255 H   0  0  0  0  0  0  0  0  0  0  0  0
   -0.8348    0.5049    2.1450 H   0  0  0  0  0  0  0  0  0  0  0  0
   -2.5674    0.3730    1.6587 H   0  0  0  0  0  0  0  0  0  0  0  0
   -0.3484   -1.6875    1.6446 H   0  0  0  0  0  0  0  0  0  0  0  0
   -2.0131   -1.7692    2.2616 H   0  0  0  0  0  0  0  0  0  0  0  0
   -1.7593   -1.8861    0.4700 H   0  0  0  0  0  0  0  0  0  0  0  0
   -3.2496    0.4968   -0.7128 H   0  0  0  0  0  0  0  0  0  0  0  0
   -1.9290    0.5795   -2.0422 H   0  0  0  0  0  0  0  0  0  0  0  0
   -1.1188    2.6961   -1.0032 H   0  0  0  0  0  0  0  0  0  0  0  0
   -2.3382    2.5591    0.4203 H   0  0  0  0  0  0  0  0  0  0  0  0
  1  2  1  0
  2  3  1  0
  3  4  3  0
  4  5  1  0
  5  6  1  0
  6  7  1  0
  5  8  1  0
  8  9  1  0
  9  5  1  0
  1 10  1  0
  1 11  1  0
  1 12  1  0
  2 13  1  0
  2 14  1  0
  6 15  1  0
  6 16  1  0
  7 17  1  0
  7 18  1  0
  7 19  1  0
  8 20  1  0
  8 21  1  0
  9 22  1  0
  9 23  1  0
M  END
