
     RDKit          3D

 15 14  0  0  0  0  0  0  0  0999 V2000
   -2.5007    0.4412   -0.2455 C   0  0  0  0  0  0  0  0  0  0  0  0
   -1.5784    0.4483   -1.4635 C   0  0  0  0  0  0  0  0  0  0  0  0
   -0.2449    0.0920   -0.9722 C   0  0  0  0  0  0  0  0  0  0  0  0
    0.8672   -0.1879   -0.5539 C   0  0  0  0  0  0  0  0  0  0  0  0
    2.1462   -0.5255   -0.0510 C   0  0  0  0  0  0  0  0  0  0  0  0
    2.3896   -0.4504    1.4137 C   0  0  0  0  0  0  0  0  0  0  0  0
    3.1141   -0.8935   -0.7760 O   0  0  0  0  0  0  0  0  0  0  0  0
   -2.8344   -0.6054   -0.0217 H   0  0  0  0  0  0  0  0  0  0  0  0
   -1.9732    0.8831    0.6262 H   0  0  0  0  0  0  0  0  0  0  0  0
   -3.3854    1.0558   -0.4984 H   0  0  0  0  0  0  0  0  0  0  0  0
   -1.9860   -0.3519   -2.1384 H   0  0  0  0  0  0  0  0  0  0  0  0
   -1.5983    1.4054   -1.9930 H   0  0  0  0  0  0  0  0  0  0  0  0
    2.9177   -1.3998    1.6842 H   0  0  0  0  0  0  0  0  0  0  0  0
    1.4944   -0.2615    2.0010 H   0  0  0  0  0  0  0  0  0  0  0  0
    3.1721    0.3500    1.5521 H   0  0  0  0  0  0  0  0  0  0  0  0
  1  2  1  0
  2  3  1  0
  3  4  3  0
  4  5  1  0
  5  6  1  0
  5  7  2  0
  1  8  1  0
  1  9  1  0
  1 10  1  0
  2 11  1  0
  2 12  1  0
  6 13  1  0
  6 14  1  0
  6 15  1  0
M  END
