
     RDKit          3D

 21 20  0  0  0  0  0  0  0  0999 V2000
    3.5451   -0.3198   -0.4368 C   0  0  0  0  0  0  0  0  0  0  0  0
    2.6659   -0.2215    0.8089 C   0  0  0  0  0  0  0  0  0  0  0  0
    1.2808    0.0077    0.3777 C   0  0  0  0  0  0  0  0  0  0  0  0
    0.1381    0.2136    0.0072 C   0  0  0  0  0  0  0  0  0  0  0  0
   -1.2358    0.4477   -0.4210 C   0  0  0  0  0  0  0  0  0  0  0  0
   -1.9676    1.2160    0.6356 C   0  0  0  0  0  0  0  0  0  0  0  0
   -3.2838    1.4088    0.1626 O   0  0  0  0  0  0  0  0  0  0  0  0
   -1.8870   -0.8912   -0.6512 C   0  0  0  0  0  0  0  0  0  0  0  0
   -1.9110   -1.6818    0.4789 O   0  0  0  0  0  0  0  0  0  0  0  0
    3.2186   -1.2091   -1.0141 H   0  0  0  0  0  0  0  0  0  0  0  0
    4.6131   -0.3776   -0.1289 H   0  0  0  0  0  0  0  0  0  0  0  0
    3.4439    0.5902   -1.0616 H   0  0  0  0  0  0  0  0  0  0  0  0
    3.0689    0.6599    1.3766 H   0  0  0  0  0  0  0  0  0  0  0  0
    2.7689   -1.0957    1.4503 H   0  0  0  0  0  0  0  0  0  0  0  0
   -1.2963    1.0194   -1.3694 H   0  0  0  0  0  0  0  0  0  0  0  0
   -1.9449    0.7489    1.6252 H   0  0  0  0  0  0  0  0  0  0  0  0
   -1.5075    2.2120    0.7139 H   0  0  0  0  0  0  0  0  0  0  0  0
   -3.1720    2.0168   -0.6329 H   0  0  0  0  0  0  0  0  0  0  0  0
   -1.4114   -1.4542   -1.4561 H   0  0  0  0  0  0  0  0  0  0  0  0
   -2.9567   -0.6862   -0.9504 H   0  0  0  0  0  0  0  0  0  0  0  0
   -2.1691   -2.6038    0.1792 H   0  0  0  0  0  0  0  0  0  0  0  0
  1  2  1  0
  2  3  1  0
  3  4  3  0
  4  5  1  0
  5  6  1  0
  6  7  1  0
  5  8  1  0
  8  9  1  0
  1 10  1  0
  1 11  1  0
  1 12  1  0
  2 13  1  0
  2 14  1  0
  5 15  1  0
  6 16  1  0
  6 17  1  0
  7 18  1  0
  8 19  1  0
  8 20  1  0
  9 21  1  0
M  END
