
     RDKit          3D

 19 18  0  0  0  0  0  0  0  0999 V2000
   -2.2321   -2.1856   -0.1173 C   0  0  0  0  0  0  0  0  0  0  0  0
   -2.2055   -0.8503    0.6308 C   0  0  0  0  0  0  0  0  0  0  0  0
   -1.0533   -0.0498    0.2139 C   0  0  0  0  0  0  0  0  0  0  0  0
   -0.0935    0.6358   -0.1211 C   0  0  0  0  0  0  0  0  0  0  0  0
    1.0637    1.4337   -0.5301 C   0  0  0  0  0  0  0  0  0  0  0  0
    0.7161    2.7501   -0.8062 O   0  0  0  0  0  0  0  0  0  0  0  0
    2.1284    1.3096    0.5097 C   0  0  0  0  0  0  0  0  0  0  0  0
    2.4863   -0.1429    0.6034 C   0  0  0  0  0  0  0  0  0  0  0  0
    1.9650   -1.0029   -0.0729 O   0  0  0  0  0  0  0  0  0  0  0  0
   -1.2507   -2.6795   -0.0782 H   0  0  0  0  0  0  0  0  0  0  0  0
   -3.0265   -2.8086    0.2901 H   0  0  0  0  0  0  0  0  0  0  0  0
   -2.4573   -1.9114   -1.1837 H   0  0  0  0  0  0  0  0  0  0  0  0
   -2.1298   -1.0317    1.7119 H   0  0  0  0  0  0  0  0  0  0  0  0
   -3.1731   -0.3422    0.3489 H   0  0  0  0  0  0  0  0  0  0  0  0
    1.4492    0.9933   -1.4805 H   0  0  0  0  0  0  0  0  0  0  0  0
   -0.1995    2.8272   -1.1695 H   0  0  0  0  0  0  0  0  0  0  0  0
    1.7280    1.5804    1.5212 H   0  0  0  0  0  0  0  0  0  0  0  0
    3.0231    1.9067    0.2584 H   0  0  0  0  0  0  0  0  0  0  0  0
    3.2614   -0.4318    1.3246 H   0  0  0  0  0  0  0  0  0  0  0  0
  1  2  1  0
  2  3  1  0
  3  4  3  0
  4  5  1  0
  5  6  1  0
  5  7  1  0
  7  8  1  0
  8  9  2  0
  1 10  1  0
  1 11  1  0
  1 12  1  0
  2 13  1  0
  2 14  1  0
  5 15  1  0
  6 16  1  0
  7 17  1  0
  7 18  1  0
  8 19  1  0
M  END
