
     RDKit          3D

 23 23  0  0  0  0  0  0  0  0999 V2000
    4.0239    0.4534    0.2639 C   0  0  0  0  0  0  0  0  0  0  0  0
    3.1684   -0.3282   -0.7135 C   0  0  0  0  0  0  0  0  0  0  0  0
    1.7757   -0.3038   -0.2364 C   0  0  0  0  0  0  0  0  0  0  0  0
    0.6282   -0.3012    0.1503 C   0  0  0  0  0  0  0  0  0  0  0  0
   -0.7532   -0.3209    0.6275 C   0  0  0  0  0  0  0  0  0  0  0  0
   -1.6422   -1.1371   -0.2880 C   0  0  0  0  0  0  0  0  0  0  0  0
   -3.0100   -0.6170    0.0211 C   0  0  0  0  0  0  0  0  0  0  0  0
   -2.8248    0.8047    0.4546 C   0  0  0  0  0  0  0  0  0  0  0  0
   -1.3136    1.0603    0.4643 C   0  0  0  0  0  0  0  0  0  0  0  0
    5.0233   -0.0580    0.3742 H   0  0  0  0  0  0  0  0  0  0  0  0
    4.1455    1.4936   -0.1188 H   0  0  0  0  0  0  0  0  0  0  0  0
    3.4933    0.4876    1.2360 H   0  0  0  0  0  0  0  0  0  0  0  0
    3.2572    0.0815   -1.7371 H   0  0  0  0  0  0  0  0  0  0  0  0
    3.5532   -1.3770   -0.7749 H   0  0  0  0  0  0  0  0  0  0  0  0
   -0.8188   -0.6407    1.6807 H   0  0  0  0  0  0  0  0  0  0  0  0
   -1.5069   -2.2088   -0.1389 H   0  0  0  0  0  0  0  0  0  0  0  0
   -1.3619   -0.8741   -1.3273 H   0  0  0  0  0  0  0  0  0  0  0  0
   -3.6832   -0.7021   -0.8740 H   0  0  0  0  0  0  0  0  0  0  0  0
   -3.5269   -1.1720    0.8349 H   0  0  0  0  0  0  0  0  0  0  0  0
   -3.2472    0.9718    1.4839 H   0  0  0  0  0  0  0  0  0  0  0  0
   -3.3372    1.4493   -0.2896 H   0  0  0  0  0  0  0  0  0  0  0  0
   -1.0228    1.7002    1.3246 H   0  0  0  0  0  0  0  0  0  0  0  0
   -1.0199    1.5386   -0.4774 H   0  0  0  0  0  0  0  0  0  0  0  0
  1  2  1  0
  2  3  1  0
  3  4  3  0
  4  5  1  0
  5  6  1  0
  6  7  1  0
  7  8  1  0
  8  9  1  0
  9  5  1  0
  1 10  1  0
  1 11  1  0
  1 12  1  0
  2 13  1  0
  2 14  1  0
  5 15  1  0
  6 16  1  0
  6 17  1  0
  7 18  1  0
  7 19  1  0
  8 20  1  0
  8 21  1  0
  9 22  1  0
  9 23  1  0
M  END
