
     RDKit          3D

 21 21  0  0  0  0  0  0  0  0999 V2000
    2.8127   -0.9016   -1.8875 C   0  0  0  0  0  0  0  0  0  0  0  0
    2.6350   -0.9019   -0.4128 C   0  0  0  0  0  0  0  0  0  0  0  0
    1.2264   -0.6328   -0.0217 C   0  0  0  0  0  0  0  0  0  0  0  0
   -0.0205   -0.4047    0.3455 C   0  0  0  0  0  0  0  0  0  0  0  0
   -1.2646   -0.1929    0.7288 C   0  0  0  0  0  0  0  0  0  0  0  0
   -1.3440   -0.2121    2.3199 C   0  0  0  0  0  0  0  0  0  0  0  0
   -1.8225    1.1603    0.3678 C   0  0  0  0  0  0  0  0  0  0  0  0
   -1.9904    1.7460   -0.9259 C   0  0  0  0  0  0  0  0  0  0  0  0
   -3.0598    1.0397   -0.3418 O   0  0  0  0  0  0  0  0  0  0  0  0
    1.9319   -1.4022   -2.4186 H   0  0  0  0  0  0  0  0  0  0  0  0
    3.7089   -1.5629   -2.0923 H   0  0  0  0  0  0  0  0  0  0  0  0
    2.9311    0.0817   -2.2947 H   0  0  0  0  0  0  0  0  0  0  0  0
    3.3354   -0.2361    0.0814 H   0  0  0  0  0  0  0  0  0  0  0  0
    2.8579   -1.9785   -0.0699 H   0  0  0  0  0  0  0  0  0  0  0  0
   -2.0257   -0.9896    0.4257 H   0  0  0  0  0  0  0  0  0  0  0  0
   -0.8300   -1.1093    2.6376 H   0  0  0  0  0  0  0  0  0  0  0  0
   -2.4390   -0.2434    2.5106 H   0  0  0  0  0  0  0  0  0  0  0  0
   -0.8851    0.6769    2.7300 H   0  0  0  0  0  0  0  0  0  0  0  0
   -1.8915    1.9126    1.2405 H   0  0  0  0  0  0  0  0  0  0  0  0
   -1.6625    1.3054   -1.9008 H   0  0  0  0  0  0  0  0  0  0  0  0
   -2.2035    2.8454   -1.0218 H   0  0  0  0  0  0  0  0  0  0  0  0
  1  2  1  0
  2  3  1  0
  3  4  3  0
  4  5  1  0
  5  6  1  0
  5  7  1  0
  7  8  1  0
  8  9  1  0
  9  7  1  0
  1 10  1  0
  1 11  1  0
  1 12  1  0
  2 13  1  0
  2 14  1  0
  5 15  1  0
  6 16  1  0
  6 17  1  0
  6 18  1  0
  7 19  1  0
  8 20  1  0
  8 21  1  0
M  END
