
     RDKit          3D

 21 21  0  0  0  0  0  0  0  0999 V2000
    3.3834   -1.6279   -0.2328 C   0  0  0  0  0  0  0  0  0  0  0  0
    2.3603   -1.2005   -1.2840 C   0  0  0  0  0  0  0  0  0  0  0  0
    1.0801   -0.9290   -0.6274 C   0  0  0  0  0  0  0  0  0  0  0  0
    0.0053   -0.7093   -0.0985 C   0  0  0  0  0  0  0  0  0  0  0  0
   -1.2942   -0.4550    0.5240 C   0  0  0  0  0  0  0  0  0  0  0  0
   -1.4444    1.0487    0.5961 C   0  0  0  0  0  0  0  0  0  0  0  0
   -1.3902    1.6404   -0.7941 C   0  0  0  0  0  0  0  0  0  0  0  0
   -2.3188    2.5996   -0.3408 O   0  0  0  0  0  0  0  0  0  0  0  0
   -2.8501    1.5654    0.4670 C   0  0  0  0  0  0  0  0  0  0  0  0
    4.0963   -2.3630   -0.6446 H   0  0  0  0  0  0  0  0  0  0  0  0
    3.8835   -0.7003    0.1221 H   0  0  0  0  0  0  0  0  0  0  0  0
    2.7934   -2.0625    0.6064 H   0  0  0  0  0  0  0  0  0  0  0  0
    2.6970   -0.2498   -1.7870 H   0  0  0  0  0  0  0  0  0  0  0  0
    2.2744   -2.0017   -2.0564 H   0  0  0  0  0  0  0  0  0  0  0  0
   -1.3710   -0.9262    1.5319 H   0  0  0  0  0  0  0  0  0  0  0  0
   -2.0904   -0.9061   -0.0967 H   0  0  0  0  0  0  0  0  0  0  0  0
   -0.7925    1.5517    1.3052 H   0  0  0  0  0  0  0  0  0  0  0  0
   -0.4083    2.0243   -1.0568 H   0  0  0  0  0  0  0  0  0  0  0  0
   -1.8417    0.9208   -1.5342 H   0  0  0  0  0  0  0  0  0  0  0  0
   -3.3077    1.9343    1.4083 H   0  0  0  0  0  0  0  0  0  0  0  0
   -3.4642    0.8461   -0.1163 H   0  0  0  0  0  0  0  0  0  0  0  0
  1  2  1  0
  2  3  1  0
  3  4  3  0
  4  5  1  0
  5  6  1  0
  6  7  1  0
  7  8  1  0
  8  9  1  0
  9  6  1  0
  1 10  1  0
  1 11  1  0
  1 12  1  0
  2 13  1  0
  2 14  1  0
  5 15  1  0
  5 16  1  0
  6 17  1  0
  7 18  1  0
  7 19  1  0
  9 20  1  0
  9 21  1  0
M  END
