
     RDKit          3D

 21 20  0  0  0  0  0  0  0  0999 V2000
    3.7565   -0.9133    0.3593 C   0  0  0  0  0  0  0  0  0  0  0  0
    2.5339   -1.7625    0.2321 C   0  0  0  0  0  0  0  0  0  0  0  0
    1.3920   -0.9041   -0.0865 C   0  0  0  0  0  0  0  0  0  0  0  0
    0.4387   -0.1857   -0.3649 C   0  0  0  0  0  0  0  0  0  0  0  0
   -0.7152    0.6545   -0.6874 C   0  0  0  0  0  0  0  0  0  0  0  0
   -0.6730    1.7501    0.1730 O   0  0  0  0  0  0  0  0  0  0  0  0
   -1.9643   -0.1581   -0.4217 C   0  0  0  0  0  0  0  0  0  0  0  0
   -3.1642    0.7303   -0.7623 C   0  0  0  0  0  0  0  0  0  0  0  0
   -3.0457    1.8454    0.0986 O   0  0  0  0  0  0  0  0  0  0  0  0
    3.8742   -0.5855    1.4159 H   0  0  0  0  0  0  0  0  0  0  0  0
    3.6177   -0.0125   -0.2756 H   0  0  0  0  0  0  0  0  0  0  0  0
    4.6712   -1.4361   -0.0014 H   0  0  0  0  0  0  0  0  0  0  0  0
    2.3292   -2.2661    1.2030 H   0  0  0  0  0  0  0  0  0  0  0  0
    2.6817   -2.5512   -0.5436 H   0  0  0  0  0  0  0  0  0  0  0  0
   -0.7235    0.9696   -1.7435 H   0  0  0  0  0  0  0  0  0  0  0  0
   -0.1539    2.4966   -0.2595 H   0  0  0  0  0  0  0  0  0  0  0  0
   -2.0062   -1.0572   -1.0654 H   0  0  0  0  0  0  0  0  0  0  0  0
   -2.0317   -0.4690    0.6399 H   0  0  0  0  0  0  0  0  0  0  0  0
   -3.1161    1.0402   -1.8172 H   0  0  0  0  0  0  0  0  0  0  0  0
   -4.1186    0.2110   -0.6049 H   0  0  0  0  0  0  0  0  0  0  0  0
   -3.5825    2.6034   -0.1964 H   0  0  0  0  0  0  0  0  0  0  0  0
  1  2  1  0
  2  3  1  0
  3  4  3  0
  4  5  1  0
  5  6  1  0
  5  7  1  0
  7  8  1  0
  8  9  1  0
  1 10  1  0
  1 11  1  0
  1 12  1  0
  2 13  1  0
  2 14  1  0
  5 15  1  0
  6 16  1  0
  7 17  1  0
  7 18  1  0
  8 19  1  0
  8 20  1  0
  9 21  1  0
M  END
