
     RDKit          3D

 19 19  0  0  0  0  0  0  0  0999 V2000
    2.8216   -1.3195   -0.2393 C   0  0  0  0  0  0  0  0  0  0  0  0
    2.3403   -0.5274    0.9346 C   0  0  0  0  0  0  0  0  0  0  0  0
    1.1265    0.1950    0.5030 C   0  0  0  0  0  0  0  0  0  0  0  0
    0.1469    0.7843    0.1324 C   0  0  0  0  0  0  0  0  0  0  0  0
   -1.0503    1.5151   -0.3227 C   0  0  0  0  0  0  0  0  0  0  0  0
   -1.8374    0.9633   -1.4230 C   0  0  0  0  0  0  0  0  0  0  0  0
   -2.4018    0.7882   -0.0252 C   0  0  0  0  0  0  0  0  0  0  0  0
   -2.3254   -0.5256    0.6224 C   0  0  0  0  0  0  0  0  0  0  0  0
   -3.1315   -0.8600    1.4658 O   0  0  0  0  0  0  0  0  0  0  0  0
    2.0124   -1.7225   -0.8681 H   0  0  0  0  0  0  0  0  0  0  0  0
    3.4167   -0.6384   -0.9045 H   0  0  0  0  0  0  0  0  0  0  0  0
    3.5348   -2.1267    0.0544 H   0  0  0  0  0  0  0  0  0  0  0  0
    2.0781   -1.2674    1.7441 H   0  0  0  0  0  0  0  0  0  0  0  0
    3.1002    0.1590    1.3025 H   0  0  0  0  0  0  0  0  0  0  0  0
   -1.0647    2.6173   -0.1370 H   0  0  0  0  0  0  0  0  0  0  0  0
   -1.5552    0.0438   -1.9516 H   0  0  0  0  0  0  0  0  0  0  0  0
   -2.4308    1.6590   -2.0846 H   0  0  0  0  0  0  0  0  0  0  0  0
   -3.2380    1.4735    0.2917 H   0  0  0  0  0  0  0  0  0  0  0  0
   -1.5425   -1.2110    0.3496 H   0  0  0  0  0  0  0  0  0  0  0  0
  1  2  1  0
  2  3  1  0
  3  4  3  0
  4  5  1  0
  5  6  1  0
  6  7  1  0
  7  8  1  0
  8  9  2  0
  7  5  1  0
  1 10  1  0
  1 11  1  0
  1 12  1  0
  2 13  1  0
  2 14  1  0
  5 15  1  0
  6 16  1  0
  6 17  1  0
  7 18  1  0
  8 19  1  0
M  END
