
     RDKit          3D

 15 15  0  0  0  0  0  0  0  0999 V2000
   -1.7693    0.9973    1.7383 C   0  0  0  0  0  0  0  0  0  0  0  0
   -1.2414   -0.4431    1.4697 C   0  0  0  0  0  0  0  0  0  0  0  0
   -0.4888   -0.4360    0.3537 C   0  0  0  0  0  0  0  0  0  0  0  0
    0.2985   -0.4531   -0.8097 C   0  0  0  0  0  0  0  0  0  0  0  0
    1.0504   -0.4462   -1.9146 C   0  0  0  0  0  0  0  0  0  0  0  0
    2.4167    0.0018   -2.0377 C   0  0  0  0  0  0  0  0  0  0  0  0
    2.2670   -1.3737   -1.7792 O   0  0  0  0  0  0  0  0  0  0  0  0
   -2.4531    0.9279    2.6390 H   0  0  0  0  0  0  0  0  0  0  0  0
   -0.9319    1.6776    1.8630 H   0  0  0  0  0  0  0  0  0  0  0  0
   -2.4215    1.3573    0.9337 H   0  0  0  0  0  0  0  0  0  0  0  0
   -2.2174   -1.0095    1.3794 H   0  0  0  0  0  0  0  0  0  0  0  0
   -0.7378   -0.8009    2.3929 H   0  0  0  0  0  0  0  0  0  0  0  0
    0.5723   -0.7749   -2.9391 H   0  0  0  0  0  0  0  0  0  0  0  0
    2.8960    0.5671   -1.2143 H   0  0  0  0  0  0  0  0  0  0  0  0
    2.7601    0.2084   -3.0611 H   0  0  0  0  0  0  0  0  0  0  0  0
  1  2  1  0
  2  3  1  0
  3  4  3  0
  4  5  1  0
  5  6  1  0
  6  7  1  0
  7  5  1  0
  1  8  1  0
  1  9  1  0
  1 10  1  0
  2 11  1  0
  2 12  1  0
  5 13  1  0
  6 14  1  0
  6 15  1  0
M  END
