
     RDKit          3D

 21 22  0  0  0  0  0  0  0  0999 V2000
    3.6337    0.1974    0.2723 C   0  0  0  0  0  0  0  0  0  0  0  0
    2.8043   -0.2228   -0.9345 C   0  0  0  0  0  0  0  0  0  0  0  0
    1.3542   -0.1498   -0.5943 C   0  0  0  0  0  0  0  0  0  0  0  0
    0.1903   -0.0958   -0.3294 C   0  0  0  0  0  0  0  0  0  0  0  0
   -1.1008   -0.0158   -0.0349 C   0  0  0  0  0  0  0  0  0  0  0  0
   -2.0841    1.0021   -0.4605 C   0  0  0  0  0  0  0  0  0  0  0  0
   -2.8924    0.0535    0.3923 C   0  0  0  0  0  0  0  0  0  0  0  0
   -1.7086    0.0881    1.3328 C   0  0  0  0  0  0  0  0  0  0  0  0
   -2.1489   -1.0517   -0.3147 C   0  0  0  0  0  0  0  0  0  0  0  0
    3.9283   -0.6878    0.8615 H   0  0  0  0  0  0  0  0  0  0  0  0
    3.0066    0.8260    0.9222 H   0  0  0  0  0  0  0  0  0  0  0  0
    4.5555    0.7004   -0.0524 H   0  0  0  0  0  0  0  0  0  0  0  0
    3.0577   -1.2730   -1.1808 H   0  0  0  0  0  0  0  0  0  0  0  0
    3.0075    0.4855   -1.7527 H   0  0  0  0  0  0  0  0  0  0  0  0
   -1.9249    1.9755    0.0471 H   0  0  0  0  0  0  0  0  0  0  0  0
   -2.3622    1.0495   -1.5254 H   0  0  0  0  0  0  0  0  0  0  0  0
   -3.8575    0.1021    0.6218 H   0  0  0  0  0  0  0  0  0  0  0  0
   -1.5202    1.0322    1.8419 H   0  0  0  0  0  0  0  0  0  0  0  0
   -1.5367   -0.8425    1.8991 H   0  0  0  0  0  0  0  0  0  0  0  0
   -2.4033   -1.2363   -1.3538 H   0  0  0  0  0  0  0  0  0  0  0  0
   -1.9987   -1.9369    0.3423 H   0  0  0  0  0  0  0  0  0  0  0  0
  1  2  1  0
  2  3  1  0
  3  4  3  0
  4  5  1  0
  5  6  1  0
  6  7  1  0
  7  8  1  0
  7  9  1  0
  8  5  1  0
  9  5  1  0
  1 10  1  0
  1 11  1  0
  1 12  1  0
  2 13  1  0
  2 14  1  0
  6 15  1  0
  6 16  1  0
  7 17  1  0
  8 18  1  0
  8 19  1  0
  9 20  1  0
  9 21  1  0
M  END
