
     RDKit          3D

 21 21  0  0  0  0  0  0  0  0999 V2000
    3.0001   -1.3642    0.2392 C   0  0  0  0  0  0  0  0  0  0  0  0
    1.7552   -2.2065    0.3048 C   0  0  0  0  0  0  0  0  0  0  0  0
    0.6264   -1.3189    0.0179 C   0  0  0  0  0  0  0  0  0  0  0  0
   -0.2937   -0.5693   -0.2144 C   0  0  0  0  0  0  0  0  0  0  0  0
   -1.4141    0.3313   -0.4936 C   0  0  0  0  0  0  0  0  0  0  0  0
   -1.5895    1.4759    0.4587 C   0  0  0  0  0  0  0  0  0  0  0  0
   -0.4072    2.3936    0.5230 C   0  0  0  0  0  0  0  0  0  0  0  0
   -2.5923   -0.1747   -1.2262 C   0  0  0  0  0  0  0  0  0  0  0  0
   -1.6805    0.6234   -1.8683 O   0  0  0  0  0  0  0  0  0  0  0  0
    3.1336   -0.7592    1.1557 H   0  0  0  0  0  0  0  0  0  0  0  0
    3.8590   -2.0610    0.1476 H   0  0  0  0  0  0  0  0  0  0  0  0
    2.9632   -0.7460   -0.6723 H   0  0  0  0  0  0  0  0  0  0  0  0
    1.8618   -2.9984   -0.4887 H   0  0  0  0  0  0  0  0  0  0  0  0
    1.6475   -2.7523    1.2549 H   0  0  0  0  0  0  0  0  0  0  0  0
   -2.4523    2.0886    0.0856 H   0  0  0  0  0  0  0  0  0  0  0  0
   -1.8322    1.1540    1.4896 H   0  0  0  0  0  0  0  0  0  0  0  0
    0.3554    1.9152    1.1668 H   0  0  0  0  0  0  0  0  0  0  0  0
   -0.0421    2.6718   -0.4736 H   0  0  0  0  0  0  0  0  0  0  0  0
   -0.7265    3.3373    1.0309 H   0  0  0  0  0  0  0  0  0  0  0  0
   -2.5908   -1.2856   -1.4004 H   0  0  0  0  0  0  0  0  0  0  0  0
   -3.5812    0.2449   -1.0373 H   0  0  0  0  0  0  0  0  0  0  0  0
  1  2  1  0
  2  3  1  0
  3  4  3  0
  4  5  1  0
  5  6  1  0
  6  7  1  0
  5  8  1  0
  8  9  1  0
  9  5  1  0
  1 10  1  0
  1 11  1  0
  1 12  1  0
  2 13  1  0
  2 14  1  0
  6 15  1  0
  6 16  1  0
  7 17  1  0
  7 18  1  0
  7 19  1  0
  8 20  1  0
  8 21  1  0
M  END
