
     RDKit          3D

 17 16  0  0  0  0  0  0  0  0999 V2000
    1.9855    1.8209    2.3615 C   0  0  0  0  0  0  0  0  0  0  0  0
    2.6486    0.6399    1.5801 C   0  0  0  0  0  0  0  0  0  0  0  0
    1.7127    0.1220    0.7600 C   0  0  0  0  0  0  0  0  0  0  0  0
    0.8317   -0.3445    0.0104 C   0  0  0  0  0  0  0  0  0  0  0  0
   -0.1484   -0.8696   -0.8552 C   0  0  0  0  0  0  0  0  0  0  0  0
   -1.2082   -1.4170   -1.7598 C   0  0  0  0  0  0  0  0  0  0  0  0
   -1.9449   -1.7924   -2.3650 C   0  0  0  0  0  0  0  0  0  0  0  0
   -3.3347   -0.7803   -2.3217 C   0  0  0  0  0  0  0  0  0  0  0  0
   -2.3386   -2.7030   -3.1817 O   0  0  0  0  0  0  0  0  0  0  0  0
    2.6062    2.6626    2.4720 H   0  0  0  0  0  0  0  0  0  0  0  0
    1.6355    1.4172    3.3096 H   0  0  0  0  0  0  0  0  0  0  0  0
    1.0801    2.1332    1.6908 H   0  0  0  0  0  0  0  0  0  0  0  0
    3.1400   -0.0934    2.2928 H   0  0  0  0  0  0  0  0  0  0  0  0
    3.5266    1.0913    1.0432 H   0  0  0  0  0  0  0  0  0  0  0  0
   -3.4804   -0.6554   -3.3458 H   0  0  0  0  0  0  0  0  0  0  0  0
   -2.7726    0.1059   -1.8033 H   0  0  0  0  0  0  0  0  0  0  0  0
   -3.9391   -1.3375   -1.6982 H   0  0  0  0  0  0  0  0  0  0  0  0
  1  2  1  0
  2  3  1  0
  3  4  3  0
  4  5  1  0
  5  6  3  0
  6  7  1  0
  7  8  1  0
  7  9  2  0
  1 10  1  0
  1 11  1  0
  1 12  1  0
  2 13  1  0
  2 14  1  0
  8 15  1  0
  8 16  1  0
  8 17  1  0
M  END
