
     RDKit          3D

 23 22  0  0  0  0  0  0  0  0999 V2000
    3.3273    0.3657   -1.0148 C   0  0  0  0  0  0  0  0  0  0  0  0
    2.8946   -0.3267    0.2414 C   0  0  0  0  0  0  0  0  0  0  0  0
    1.4312   -0.2538    0.2816 C   0  0  0  0  0  0  0  0  0  0  0  0
    0.2172   -0.1844    0.3342 C   0  0  0  0  0  0  0  0  0  0  0  0
   -1.2496   -0.1033    0.4088 C   0  0  0  0  0  0  0  0  0  0  0  0
   -1.6291    1.1647    1.1170 C   0  0  0  0  0  0  0  0  0  0  0  0
   -1.8239   -1.3301    1.1110 C   0  0  0  0  0  0  0  0  0  0  0  0
   -1.7589   -0.1447   -1.0138 C   0  0  0  0  0  0  0  0  0  0  0  0
   -1.2796    0.9046   -1.7866 O   0  0  0  0  0  0  0  0  0  0  0  0
    4.3454    0.0238   -1.3502 H   0  0  0  0  0  0  0  0  0  0  0  0
    2.6386    0.2377   -1.8639 H   0  0  0  0  0  0  0  0  0  0  0  0
    3.3677    1.4624   -0.8114 H   0  0  0  0  0  0  0  0  0  0  0  0
    3.2514   -1.3853    0.3044 H   0  0  0  0  0  0  0  0  0  0  0  0
    3.3542    0.2273    1.1111 H   0  0  0  0  0  0  0  0  0  0  0  0
   -1.8909    1.9877    0.4197 H   0  0  0  0  0  0  0  0  0  0  0  0
   -0.7417    1.5278    1.7088 H   0  0  0  0  0  0  0  0  0  0  0  0
   -2.4334    0.9950    1.8628 H   0  0  0  0  0  0  0  0  0  0  0  0
   -1.0145   -2.0877    1.1878 H   0  0  0  0  0  0  0  0  0  0  0  0
   -2.6353   -1.8025    0.5153 H   0  0  0  0  0  0  0  0  0  0  0  0
   -2.1520   -1.1001    2.1396 H   0  0  0  0  0  0  0  0  0  0  0  0
   -2.8654   -0.1823   -0.9696 H   0  0  0  0  0  0  0  0  0  0  0  0
   -1.3567   -1.0883   -1.4615 H   0  0  0  0  0  0  0  0  0  0  0  0
   -1.9964    1.0924   -2.4716 H   0  0  0  0  0  0  0  0  0  0  0  0
  1  2  1  0
  2  3  1  0
  3  4  3  0
  4  5  1  0
  5  6  1  0
  5  7  1  0
  5  8  1  0
  8  9  1  0
  1 10  1  0
  1 11  1  0
  1 12  1  0
  2 13  1  0
  2 14  1  0
  6 15  1  0
  6 16  1  0
  6 17  1  0
  7 18  1  0
  7 19  1  0
  7 20  1  0
  8 21  1  0
  8 22  1  0
  9 23  1  0
M  END
