
     RDKit          3D

 19 19  0  0  0  0  0  0  0  0999 V2000
   -1.8646    2.7488    0.7970 C   0  0  0  0  0  0  0  0  0  0  0  0
   -2.1249    1.2549    0.6033 C   0  0  0  0  0  0  0  0  0  0  0  0
   -0.9460    0.5868    0.0568 C   0  0  0  0  0  0  0  0  0  0  0  0
    0.0340    0.0070   -0.4039 C   0  0  0  0  0  0  0  0  0  0  0  0
    1.1947   -0.6931   -0.9454 C   0  0  0  0  0  0  0  0  0  0  0  0
    0.9569   -2.1920   -0.9487 C   0  0  0  0  0  0  0  0  0  0  0  0
    1.3484   -2.1623    0.5086 C   0  0  0  0  0  0  0  0  0  0  0  0
    1.1273   -2.7158    1.5454 O   0  0  0  0  0  0  0  0  0  0  0  0
    2.2506   -1.0142    0.1226 C   0  0  0  0  0  0  0  0  0  0  0  0
   -2.5092    3.1627    1.6032 H   0  0  0  0  0  0  0  0  0  0  0  0
   -2.1182    3.2294   -0.1763 H   0  0  0  0  0  0  0  0  0  0  0  0
   -0.7794    2.8987    0.9885 H   0  0  0  0  0  0  0  0  0  0  0  0
   -2.2971    0.8546    1.6227 H   0  0  0  0  0  0  0  0  0  0  0  0
   -3.0087    1.1670   -0.0577 H   0  0  0  0  0  0  0  0  0  0  0  0
    1.5947   -0.3088   -1.8835 H   0  0  0  0  0  0  0  0  0  0  0  0
    1.7263   -2.7589   -1.5260 H   0  0  0  0  0  0  0  0  0  0  0  0
   -0.0793   -2.4997   -1.0816 H   0  0  0  0  0  0  0  0  0  0  0  0
    3.2136   -1.3200   -0.2799 H   0  0  0  0  0  0  0  0  0  0  0  0
    2.2811   -0.2452    0.9185 H   0  0  0  0  0  0  0  0  0  0  0  0
  1  2  1  0
  2  3  1  0
  3  4  3  0
  4  5  1  0
  5  6  1  0
  6  7  1  0
  7  8  2  0
  7  9  1  0
  9  5  1  0
  1 10  1  0
  1 11  1  0
  1 12  1  0
  2 13  1  0
  2 14  1  0
  5 15  1  0
  6 16  1  0
  6 17  1  0
  9 18  1  0
  9 19  1  0
M  END
