
     RDKit          3D

 19 20  0  0  0  0  0  0  0  0999 V2000
    2.3901   -0.8513    2.2205 C   0  0  0  0  0  0  0  0  0  0  0  0
    2.5168   -1.1460    0.7500 C   0  0  0  0  0  0  0  0  0  0  0  0
    1.4656   -0.4158    0.0447 C   0  0  0  0  0  0  0  0  0  0  0  0
    0.5846    0.1843   -0.5216 C   0  0  0  0  0  0  0  0  0  0  0  0
   -0.5137    0.9137   -1.2119 C   0  0  0  0  0  0  0  0  0  0  0  0
   -1.5886    1.3509   -0.3611 C   0  0  0  0  0  0  0  0  0  0  0  0
   -2.8737    0.5545   -0.0798 C   0  0  0  0  0  0  0  0  0  0  0  0
   -3.0416    0.7631   -1.4779 O   0  0  0  0  0  0  0  0  0  0  0  0
   -1.7409    0.2605   -1.4971 C   0  0  0  0  0  0  0  0  0  0  0  0
    3.3837   -0.6747    2.6956 H   0  0  0  0  0  0  0  0  0  0  0  0
    1.8757   -1.6797    2.7549 H   0  0  0  0  0  0  0  0  0  0  0  0
    1.7643    0.0711    2.3766 H   0  0  0  0  0  0  0  0  0  0  0  0
    2.4291   -2.2433    0.6134 H   0  0  0  0  0  0  0  0  0  0  0  0
    3.5323   -0.8597    0.3660 H   0  0  0  0  0  0  0  0  0  0  0  0
   -0.0638    1.5444   -2.0408 H   0  0  0  0  0  0  0  0  0  0  0  0
   -1.9434    2.3873   -0.6683 H   0  0  0  0  0  0  0  0  0  0  0  0
   -2.7276   -0.4751    0.2322 H   0  0  0  0  0  0  0  0  0  0  0  0
   -3.6506    1.1200    0.4365 H   0  0  0  0  0  0  0  0  0  0  0  0
   -1.7983   -0.8043   -1.1096 H   0  0  0  0  0  0  0  0  0  0  0  0
  1  2  1  0
  2  3  1  0
  3  4  3  0
  4  5  1  0
  5  6  1  0
  6  7  1  0
  7  8  1  0
  8  9  1  0
  9  5  1  0
  9  6  1  0
  1 10  1  0
  1 11  1  0
  1 12  1  0
  2 13  1  0
  2 14  1  0
  5 15  1  0
  6 16  1  0
  7 17  1  0
  7 18  1  0
  9 19  1  0
M  END
