
     RDKit          3D

 23 22  0  0  0  0  0  0  0  0999 V2000
    3.5189   -0.3459   -0.3209 C   0  0  0  0  0  0  0  0  0  0  0  0
    2.8545   -0.1706    1.0092 C   0  0  0  0  0  0  0  0  0  0  0  0
    1.3995   -0.0057    0.8260 C   0  0  0  0  0  0  0  0  0  0  0  0
    0.2065    0.1420    0.6875 C   0  0  0  0  0  0  0  0  0  0  0  0
   -1.2460    0.3470    0.5237 C   0  0  0  0  0  0  0  0  0  0  0  0
   -1.8330   -1.0022    0.2071 C   0  0  0  0  0  0  0  0  0  0  0  0
   -1.3004   -1.6308   -1.0280 C   0  0  0  0  0  0  0  0  0  0  0  0
   -1.5155    1.2877   -0.4588 O   0  0  0  0  0  0  0  0  0  0  0  0
   -2.2701    2.3063    0.1011 C   0  0  0  0  0  0  0  0  0  0  0  0
    3.2079    0.4424   -1.0440 H   0  0  0  0  0  0  0  0  0  0  0  0
    4.6151   -0.1969   -0.1647 H   0  0  0  0  0  0  0  0  0  0  0  0
    3.3963   -1.3622   -0.7417 H   0  0  0  0  0  0  0  0  0  0  0  0
    3.2987    0.7420    1.4800 H   0  0  0  0  0  0  0  0  0  0  0  0
    3.0918   -1.0140    1.6561 H   0  0  0  0  0  0  0  0  0  0  0  0
   -1.7115    0.6820    1.4700 H   0  0  0  0  0  0  0  0  0  0  0  0
   -1.7800   -1.6817    1.0756 H   0  0  0  0  0  0  0  0  0  0  0  0
   -2.9372   -0.8269    0.0426 H   0  0  0  0  0  0  0  0  0  0  0  0
   -1.0552   -0.8446   -1.7696 H   0  0  0  0  0  0  0  0  0  0  0  0
   -2.0936   -2.2840   -1.4565 H   0  0  0  0  0  0  0  0  0  0  0  0
   -0.4337   -2.3110   -0.8454 H   0  0  0  0  0  0  0  0  0  0  0  0
   -3.2366    1.8902    0.5044 H   0  0  0  0  0  0  0  0  0  0  0  0
   -1.7088    2.6906    0.9790 H   0  0  0  0  0  0  0  0  0  0  0  0
   -2.4673    3.1463   -0.5677 H   0  0  0  0  0  0  0  0  0  0  0  0
  1  2  1  0
  2  3  1  0
  3  4  3  0
  4  5  1  0
  5  6  1  0
  6  7  1  0
  5  8  1  0
  8  9  1  0
  1 10  1  0
  1 11  1  0
  1 12  1  0
  2 13  1  0
  2 14  1  0
  5 15  1  0
  6 16  1  0
  6 17  1  0
  7 18  1  0
  7 19  1  0
  7 20  1  0
  9 21  1  0
  9 22  1  0
  9 23  1  0
M  END
