
     RDKit          3D

 21 20  0  0  0  0  0  0  0  0999 V2000
    2.6919   -1.6649    0.3151 C   0  0  0  0  0  0  0  0  0  0  0  0
    2.9827   -0.2341   -0.0154 C   0  0  0  0  0  0  0  0  0  0  0  0
    1.7038    0.5018    0.0289 C   0  0  0  0  0  0  0  0  0  0  0  0
    0.6456    1.1085    0.0661 C   0  0  0  0  0  0  0  0  0  0  0  0
   -0.6280    1.8239    0.0989 C   0  0  0  0  0  0  0  0  0  0  0  0
   -1.5288    1.2220   -0.9421 C   0  0  0  0  0  0  0  0  0  0  0  0
   -1.7267   -0.2045   -0.6247 C   0  0  0  0  0  0  0  0  0  0  0  0
   -3.1087   -0.7177   -0.4462 C   0  0  0  0  0  0  0  0  0  0  0  0
   -0.7300   -0.9127   -0.5199 O   0  0  0  0  0  0  0  0  0  0  0  0
    3.4663   -2.3251   -0.1710 H   0  0  0  0  0  0  0  0  0  0  0  0
    2.9279   -1.7961    1.4155 H   0  0  0  0  0  0  0  0  0  0  0  0
    1.7006   -2.0326    0.0560 H   0  0  0  0  0  0  0  0  0  0  0  0
    3.4518   -0.1801   -1.0231 H   0  0  0  0  0  0  0  0  0  0  0  0
    3.6734    0.2341    0.7079 H   0  0  0  0  0  0  0  0  0  0  0  0
   -0.5107    2.9036   -0.1160 H   0  0  0  0  0  0  0  0  0  0  0  0
   -1.0999    1.7262    1.1151 H   0  0  0  0  0  0  0  0  0  0  0  0
   -1.0477    1.3389   -1.9344 H   0  0  0  0  0  0  0  0  0  0  0  0
   -2.4960    1.7487   -0.9302 H   0  0  0  0  0  0  0  0  0  0  0  0
   -3.1599   -1.7649   -0.7829 H   0  0  0  0  0  0  0  0  0  0  0  0
   -3.8364   -0.0834   -0.9917 H   0  0  0  0  0  0  0  0  0  0  0  0
   -3.3713   -0.6914    0.6368 H   0  0  0  0  0  0  0  0  0  0  0  0
  1  2  1  0
  2  3  1  0
  3  4  3  0
  4  5  1  0
  5  6  1  0
  6  7  1  0
  7  8  1  0
  7  9  2  0
  1 10  1  0
  1 11  1  0
  1 12  1  0
  2 13  1  0
  2 14  1  0
  5 15  1  0
  5 16  1  0
  6 17  1  0
  6 18  1  0
  8 19  1  0
  8 20  1  0
  8 21  1  0
M  END
