
     RDKit          3D

 21 21  0  0  0  0  0  0  0  0999 V2000
    3.4918   -0.0154   -0.4340 C   0  0  0  0  0  0  0  0  0  0  0  0
    2.6301    1.2010   -0.1569 C   0  0  0  0  0  0  0  0  0  0  0  0
    1.2938    0.7444    0.2251 C   0  0  0  0  0  0  0  0  0  0  0  0
    0.1689    0.3787    0.5353 C   0  0  0  0  0  0  0  0  0  0  0  0
   -1.1624   -0.0552    0.9152 C   0  0  0  0  0  0  0  0  0  0  0  0
   -1.2823   -1.5087    1.2979 C   0  0  0  0  0  0  0  0  0  0  0  0
   -2.4492   -1.5707    0.5092 O   0  0  0  0  0  0  0  0  0  0  0  0
   -1.9256   -0.5339   -0.2914 C   0  0  0  0  0  0  0  0  0  0  0  0
   -2.9621    0.4799   -0.7191 C   0  0  0  0  0  0  0  0  0  0  0  0
    4.3318    0.3385   -1.0718 H   0  0  0  0  0  0  0  0  0  0  0  0
    2.9020   -0.7535   -0.9781 H   0  0  0  0  0  0  0  0  0  0  0  0
    3.8542   -0.4082    0.5406 H   0  0  0  0  0  0  0  0  0  0  0  0
    2.5363    1.8656   -1.0381 H   0  0  0  0  0  0  0  0  0  0  0  0
    3.1261    1.7433    0.6906 H   0  0  0  0  0  0  0  0  0  0  0  0
   -1.7095    0.6063    1.5998 H   0  0  0  0  0  0  0  0  0  0  0  0
   -0.5231   -2.1794    0.8489 H   0  0  0  0  0  0  0  0  0  0  0  0
   -1.4479   -1.6980    2.3743 H   0  0  0  0  0  0  0  0  0  0  0  0
   -1.2901   -0.9270   -1.0846 H   0  0  0  0  0  0  0  0  0  0  0  0
   -2.4765    1.4794   -0.6840 H   0  0  0  0  0  0  0  0  0  0  0  0
   -3.2699    0.3239   -1.7686 H   0  0  0  0  0  0  0  0  0  0  0  0
   -3.8363    0.4888   -0.0342 H   0  0  0  0  0  0  0  0  0  0  0  0
  1  2  1  0
  2  3  1  0
  3  4  3  0
  4  5  1  0
  5  6  1  0
  6  7  1  0
  7  8  1  0
  8  9  1  0
  8  5  1  0
  1 10  1  0
  1 11  1  0
  1 12  1  0
  2 13  1  0
  2 14  1  0
  5 15  1  0
  6 16  1  0
  6 17  1  0
  8 18  1  0
  9 19  1  0
  9 20  1  0
  9 21  1  0
M  END
