
     RDKit          3D

 17 17  0  0  0  0  0  0  0  0999 V2000
    1.7406   -1.8948   -2.2678 C   0  0  0  0  0  0  0  0  0  0  0  0
    0.5669   -1.0047   -2.3896 C   0  0  0  0  0  0  0  0  0  0  0  0
    0.0881   -0.4156   -1.1236 C   0  0  0  0  0  0  0  0  0  0  0  0
   -0.3230    0.0890   -0.0466 C   0  0  0  0  0  0  0  0  0  0  0  0
   -0.7436    0.6089    1.1050 C   0  0  0  0  0  0  0  0  0  0  0  0
    0.2544    1.2671    1.8977 O   0  0  0  0  0  0  0  0  0  0  0  0
   -0.8041    1.8167    2.5731 C   0  0  0  0  0  0  0  0  0  0  0  0
   -1.5050    1.8866    1.1644 C   0  0  0  0  0  0  0  0  0  0  0  0
   -2.2231    2.7555    0.7786 O   0  0  0  0  0  0  0  0  0  0  0  0
    1.5882   -2.9183   -2.7332 H   0  0  0  0  0  0  0  0  0  0  0  0
    1.9854   -2.0808   -1.1815 H   0  0  0  0  0  0  0  0  0  0  0  0
    2.6178   -1.4205   -2.7962 H   0  0  0  0  0  0  0  0  0  0  0  0
   -0.3190   -1.8937   -2.5067 H   0  0  0  0  0  0  0  0  0  0  0  0
    0.3333   -0.4967   -3.3008 H   0  0  0  0  0  0  0  0  0  0  0  0
   -1.2169   -0.1239    1.8777 H   0  0  0  0  0  0  0  0  0  0  0  0
   -1.3607    1.0398    3.1265 H   0  0  0  0  0  0  0  0  0  0  0  0
   -0.6792    2.7854    3.0273 H   0  0  0  0  0  0  0  0  0  0  0  0
  1  2  1  0
  2  3  1  0
  3  4  3  0
  4  5  1  0
  5  6  1  0
  6  7  1  0
  7  8  1  0
  8  9  2  0
  8  5  1  0
  1 10  1  0
  1 11  1  0
  1 12  1  0
  2 13  1  0
  2 14  1  0
  5 15  1  0
  7 16  1  0
  7 17  1  0
M  END
