
     RDKit          3D

 21 21  0  0  0  0  0  0  0  0999 V2000
    3.5300   -0.3464    0.2364 C   0  0  0  0  0  0  0  0  0  0  0  0
    2.8866   -0.4896   -1.1275 C   0  0  0  0  0  0  0  0  0  0  0  0
    1.4530   -0.2190   -0.9908 C   0  0  0  0  0  0  0  0  0  0  0  0
    0.2608    0.0264   -0.8703 C   0  0  0  0  0  0  0  0  0  0  0  0
   -1.1504    0.3375   -0.7426 C   0  0  0  0  0  0  0  0  0  0  0  0
   -1.4431    1.0752    0.5297 C   0  0  0  0  0  0  0  0  0  0  0  0
   -2.5641    0.0739    0.7953 C   0  0  0  0  0  0  0  0  0  0  0  0
   -3.8064    0.4854    0.2671 O   0  0  0  0  0  0  0  0  0  0  0  0
   -1.8888   -0.8632   -0.1740 C   0  0  0  0  0  0  0  0  0  0  0  0
    4.5936   -0.0395    0.1368 H   0  0  0  0  0  0  0  0  0  0  0  0
    2.9219    0.3907    0.8048 H   0  0  0  0  0  0  0  0  0  0  0  0
    3.4074   -1.3173    0.7570 H   0  0  0  0  0  0  0  0  0  0  0  0
    3.3391    0.2585   -1.8403 H   0  0  0  0  0  0  0  0  0  0  0  0
    2.9903   -1.4993   -1.5487 H   0  0  0  0  0  0  0  0  0  0  0  0
   -1.6254    0.7991   -1.6267 H   0  0  0  0  0  0  0  0  0  0  0  0
   -1.8551    2.1104    0.3800 H   0  0  0  0  0  0  0  0  0  0  0  0
   -0.6791    0.9973    1.3262 H   0  0  0  0  0  0  0  0  0  0  0  0
   -2.5982   -0.2519    1.8392 H   0  0  0  0  0  0  0  0  0  0  0  0
   -4.0238    1.3452    0.7371 H   0  0  0  0  0  0  0  0  0  0  0  0
   -2.5250   -1.2997   -0.9545 H   0  0  0  0  0  0  0  0  0  0  0  0
   -1.2235   -1.5737    0.3541 H   0  0  0  0  0  0  0  0  0  0  0  0
  1  2  1  0
  2  3  1  0
  3  4  3  0
  4  5  1  0
  5  6  1  0
  6  7  1  0
  7  8  1  0
  7  9  1  0
  9  5  1  0
  1 10  1  0
  1 11  1  0
  1 12  1  0
  2 13  1  0
  2 14  1  0
  5 15  1  0
  6 16  1  0
  6 17  1  0
  7 18  1  0
  8 19  1  0
  9 20  1  0
  9 21  1  0
M  END
