
     RDKit          3D

 23 22  0  0  0  0  0  0  0  0999 V2000
    2.8780   -1.8019    1.7921 C   0  0  0  0  0  0  0  0  0  0  0  0
    2.1495   -2.1874    0.5250 C   0  0  0  0  0  0  0  0  0  0  0  0
    1.3581   -1.0379    0.0966 C   0  0  0  0  0  0  0  0  0  0  0  0
    0.7018   -0.0518   -0.2580 C   0  0  0  0  0  0  0  0  0  0  0  0
   -0.0850    1.0900   -0.6609 C   0  0  0  0  0  0  0  0  0  0  0  0
   -0.1440    2.0756    0.3298 O   0  0  0  0  0  0  0  0  0  0  0  0
   -1.4864    0.6209   -0.9697 C   0  0  0  0  0  0  0  0  0  0  0  0
   -2.2997    1.8176   -1.3913 C   0  0  0  0  0  0  0  0  0  0  0  0
   -2.1219    0.1188    0.3345 C   0  0  0  0  0  0  0  0  0  0  0  0
    3.5446   -0.9365    1.6187 H   0  0  0  0  0  0  0  0  0  0  0  0
    3.5716   -2.6517    2.0529 H   0  0  0  0  0  0  0  0  0  0  0  0
    2.2034   -1.6157    2.6311 H   0  0  0  0  0  0  0  0  0  0  0  0
    2.8842   -2.4997   -0.2388 H   0  0  0  0  0  0  0  0  0  0  0  0
    1.4991   -3.0740    0.6961 H   0  0  0  0  0  0  0  0  0  0  0  0
    0.3526    1.6057   -1.5546 H   0  0  0  0  0  0  0  0  0  0  0  0
    0.6954    2.0891    0.8458 H   0  0  0  0  0  0  0  0  0  0  0  0
   -1.5048   -0.1616   -1.7488 H   0  0  0  0  0  0  0  0  0  0  0  0
   -1.6278    2.6880   -1.4707 H   0  0  0  0  0  0  0  0  0  0  0  0
   -2.6812    1.6380   -2.4204 H   0  0  0  0  0  0  0  0  0  0  0  0
   -3.1092    2.0759   -0.6824 H   0  0  0  0  0  0  0  0  0  0  0  0
   -1.8041    0.8799    1.1035 H   0  0  0  0  0  0  0  0  0  0  0  0
   -3.2163    0.1997    0.2407 H   0  0  0  0  0  0  0  0  0  0  0  0
   -1.7579   -0.8808    0.6096 H   0  0  0  0  0  0  0  0  0  0  0  0
  1  2  1  0
  2  3  1  0
  3  4  3  0
  4  5  1  0
  5  6  1  0
  5  7  1  0
  7  8  1  0
  7  9  1  0
  1 10  1  0
  1 11  1  0
  1 12  1  0
  2 13  1  0
  2 14  1  0
  5 15  1  0
  6 16  1  0
  7 17  1  0
  8 18  1  0
  8 19  1  0
  8 20  1  0
  9 21  1  0
  9 22  1  0
  9 23  1  0
M  END
