
     RDKit          3D

 19 20  0  0  0  0  0  0  0  0999 V2000
    1.4073   -2.1160   -2.3793 C   0  0  0  0  0  0  0  0  0  0  0  0
    1.7963   -1.7884   -0.9558 C   0  0  0  0  0  0  0  0  0  0  0  0
    0.8861   -0.7199   -0.4581 C   0  0  0  0  0  0  0  0  0  0  0  0
    0.1718    0.1271   -0.0510 C   0  0  0  0  0  0  0  0  0  0  0  0
   -0.7231    1.2188    0.4501 C   0  0  0  0  0  0  0  0  0  0  0  0
   -1.7849    0.6951    1.3808 C   0  0  0  0  0  0  0  0  0  0  0  0
   -1.7972    2.0286    2.0094 C   0  0  0  0  0  0  0  0  0  0  0  0
   -0.3578    1.6313    1.8000 C   0  0  0  0  0  0  0  0  0  0  0  0
   -0.7358    0.3669    2.2295 O   0  0  0  0  0  0  0  0  0  0  0  0
    0.6613   -1.3750   -2.7680 H   0  0  0  0  0  0  0  0  0  0  0  0
    2.3338   -1.9636   -2.9952 H   0  0  0  0  0  0  0  0  0  0  0  0
    1.0227   -3.1394   -2.4270 H   0  0  0  0  0  0  0  0  0  0  0  0
    2.8108   -1.4044   -0.8452 H   0  0  0  0  0  0  0  0  0  0  0  0
    1.6914   -2.7003   -0.3355 H   0  0  0  0  0  0  0  0  0  0  0  0
   -1.0548    1.9249   -0.3032 H   0  0  0  0  0  0  0  0  0  0  0  0
   -2.5577    0.1026    1.1187 H   0  0  0  0  0  0  0  0  0  0  0  0
   -2.1294    2.1323    3.0424 H   0  0  0  0  0  0  0  0  0  0  0  0
   -2.0815    2.8231    1.3002 H   0  0  0  0  0  0  0  0  0  0  0  0
    0.4409    2.1563    2.1360 H   0  0  0  0  0  0  0  0  0  0  0  0
  1  2  1  0
  2  3  1  0
  3  4  3  0
  4  5  1  0
  5  6  1  0
  6  7  1  0
  7  8  1  0
  8  9  1  0
  8  5  1  0
  9  6  1  0
  1 10  1  0
  1 11  1  0
  1 12  1  0
  2 13  1  0
  2 14  1  0
  5 15  1  0
  6 16  1  0
  7 17  1  0
  7 18  1  0
  8 19  1  0
M  END
