
     RDKit          3D

 23 23  0  0  0  0  0  0  0  0999 V2000
    2.9122    1.6183    2.0518 C   0  0  0  0  0  0  0  0  0  0  0  0
    2.2669    0.2633    2.2871 C   0  0  0  0  0  0  0  0  0  0  0  0
    1.0418    0.1308    1.4969 C   0  0  0  0  0  0  0  0  0  0  0  0
    0.0297    0.0222    0.8190 C   0  0  0  0  0  0  0  0  0  0  0  0
   -1.1621   -0.1164    0.0092 C   0  0  0  0  0  0  0  0  0  0  0  0
   -1.4921    1.0988   -0.8554 C   0  0  0  0  0  0  0  0  0  0  0  0
   -1.9046    0.0948   -1.9348 C   0  0  0  0  0  0  0  0  0  0  0  0
   -0.8688   -0.8381   -1.2855 C   0  0  0  0  0  0  0  0  0  0  0  0
   -1.3697   -2.2493   -1.3731 C   0  0  0  0  0  0  0  0  0  0  0  0
    2.1704    2.3990    1.8064 H   0  0  0  0  0  0  0  0  0  0  0  0
    3.6914    1.5874    1.2679 H   0  0  0  0  0  0  0  0  0  0  0  0
    3.4447    1.9104    2.9899 H   0  0  0  0  0  0  0  0  0  0  0  0
    3.0098   -0.5062    2.0032 H   0  0  0  0  0  0  0  0  0  0  0  0
    2.0398    0.1653    3.3864 H   0  0  0  0  0  0  0  0  0  0  0  0
   -2.0342   -0.5840    0.5034 H   0  0  0  0  0  0  0  0  0  0  0  0
   -2.2761    1.7489   -0.4817 H   0  0  0  0  0  0  0  0  0  0  0  0
   -0.5405    1.5645   -1.1711 H   0  0  0  0  0  0  0  0  0  0  0  0
   -1.6713    0.3757   -2.9560 H   0  0  0  0  0  0  0  0  0  0  0  0
   -2.9372   -0.2553   -1.7178 H   0  0  0  0  0  0  0  0  0  0  0  0
    0.1424   -0.6653   -1.7012 H   0  0  0  0  0  0  0  0  0  0  0  0
   -0.5424   -2.9853   -1.3538 H   0  0  0  0  0  0  0  0  0  0  0  0
   -1.9299   -2.3464   -2.3303 H   0  0  0  0  0  0  0  0  0  0  0  0
   -2.0203   -2.4331   -0.4833 H   0  0  0  0  0  0  0  0  0  0  0  0
  1  2  1  0
  2  3  1  0
  3  4  3  0
  4  5  1  0
  5  6  1  0
  6  7  1  0
  7  8  1  0
  8  9  1  0
  8  5  1  0
  1 10  1  0
  1 11  1  0
  1 12  1  0
  2 13  1  0
  2 14  1  0
  5 15  1  0
  6 16  1  0
  6 17  1  0
  7 18  1  0
  7 19  1  0
  8 20  1  0
  9 21  1  0
  9 22  1  0
  9 23  1  0
M  END
