
     RDKit          3D

 22 21  0  0  0  0  0  0  0  0999 V2000
    3.0394    1.7755    0.5574 C   0  0  0  0  0  0  0  0  0  0  0  0
    1.7699    2.1928   -0.1985 C   0  0  0  0  0  0  0  0  0  0  0  0
    0.7766    1.0980   -0.1370 C   0  0  0  0  0  0  0  0  0  0  0  0
   -0.0483    0.2150   -0.0984 C   0  0  0  0  0  0  0  0  0  0  0  0
   -1.0579   -0.8439   -0.0311 C   0  0  0  0  0  0  0  0  0  0  0  0
   -0.8811   -1.7900   -1.2174 C   0  0  0  0  0  0  0  0  0  0  0  0
   -2.3964   -0.1756   -0.1951 C   0  0  0  0  0  0  0  0  0  0  0  0
   -1.0276   -1.5878    1.2748 C   0  0  0  0  0  0  0  0  0  0  0  0
    3.5634    1.0495   -0.0905 H   0  0  0  0  0  0  0  0  0  0  0  0
    2.7833    1.3127    1.5283 H   0  0  0  0  0  0  0  0  0  0  0  0
    3.6742    2.6532    0.6815 H   0  0  0  0  0  0  0  0  0  0  0  0
    2.0592    2.2904   -1.2536 H   0  0  0  0  0  0  0  0  0  0  0  0
    1.3992    3.1106    0.2599 H   0  0  0  0  0  0  0  0  0  0  0  0
   -1.7904   -2.3454   -1.4341 H   0  0  0  0  0  0  0  0  0  0  0  0
   -0.6409   -1.1395   -2.0850 H   0  0  0  0  0  0  0  0  0  0  0  0
    0.0094   -2.4290   -1.0439 H   0  0  0  0  0  0  0  0  0  0  0  0
   -3.1683   -0.9395    0.0667 H   0  0  0  0  0  0  0  0  0  0  0  0
   -2.5779    0.0965   -1.2597 H   0  0  0  0  0  0  0  0  0  0  0  0
   -2.5521    0.6802    0.4719 H   0  0  0  0  0  0  0  0  0  0  0  0
   -0.4148   -0.9596    1.9846 H   0  0  0  0  0  0  0  0  0  0  0  0
   -2.0332   -1.7099    1.7307 H   0  0  0  0  0  0  0  0  0  0  0  0
   -0.4856   -2.5544    1.1877 H   0  0  0  0  0  0  0  0  0  0  0  0
  1  2  1  0
  2  3  1  0
  3  4  3  0
  4  5  1  0
  5  6  1  0
  5  7  1  0
  5  8  1  0
  1  9  1  0
  1 10  1  0
  1 11  1  0
  2 12  1  0
  2 13  1  0
  6 14  1  0
  6 15  1  0
  6 16  1  0
  7 17  1  0
  7 18  1  0
  7 19  1  0
  8 20  1  0
  8 21  1  0
  8 22  1  0
M  END
