
     RDKit          3D

 21 21  0  0  0  0  0  0  0  0999 V2000
    3.2747   -0.9263   -1.1780 C   0  0  0  0  0  0  0  0  0  0  0  0
    3.0674    0.4608   -0.6672 C   0  0  0  0  0  0  0  0  0  0  0  0
    1.5978    0.6625   -0.5767 C   0  0  0  0  0  0  0  0  0  0  0  0
    0.4069    0.8119   -0.5124 C   0  0  0  0  0  0  0  0  0  0  0  0
   -1.0412    0.9947   -0.4086 C   0  0  0  0  0  0  0  0  0  0  0  0
   -1.6725    0.6609   -1.6195 O   0  0  0  0  0  0  0  0  0  0  0  0
   -1.5330    0.1936    0.7495 C   0  0  0  0  0  0  0  0  0  0  0  0
   -3.0449    0.2560    1.0258 C   0  0  0  0  0  0  0  0  0  0  0  0
   -2.4784   -0.9563    0.3528 C   0  0  0  0  0  0  0  0  0  0  0  0
    2.4340   -1.5917   -0.8675 H   0  0  0  0  0  0  0  0  0  0  0  0
    3.3840   -0.9849   -2.2797 H   0  0  0  0  0  0  0  0  0  0  0  0
    4.1886   -1.3356   -0.7021 H   0  0  0  0  0  0  0  0  0  0  0  0
    3.5217    1.2210   -1.3400 H   0  0  0  0  0  0  0  0  0  0  0  0
    3.5245    0.5241    0.3416 H   0  0  0  0  0  0  0  0  0  0  0  0
   -1.2998    2.0727   -0.1959 H   0  0  0  0  0  0  0  0  0  0  0  0
   -1.3010   -0.2248   -1.9031 H   0  0  0  0  0  0  0  0  0  0  0  0
   -0.8670   -0.0521    1.5882 H   0  0  0  0  0  0  0  0  0  0  0  0
   -3.3411    0.1654    2.1127 H   0  0  0  0  0  0  0  0  0  0  0  0
   -3.6322    0.9777    0.4189 H   0  0  0  0  0  0  0  0  0  0  0  0
   -2.7488   -1.0542   -0.7189 H   0  0  0  0  0  0  0  0  0  0  0  0
   -2.4400   -1.8752    0.9716 H   0  0  0  0  0  0  0  0  0  0  0  0
  1  2  1  0
  2  3  1  0
  3  4  3  0
  4  5  1  0
  5  6  1  0
  5  7  1  0
  7  8  1  0
  8  9  1  0
  9  7  1  0
  1 10  1  0
  1 11  1  0
  1 12  1  0
  2 13  1  0
  2 14  1  0
  5 15  1  0
  6 16  1  0
  7 17  1  0
  8 18  1  0
  8 19  1  0
  9 20  1  0
  9 21  1  0
M  END
