
     RDKit          3D

 19 18  0  0  0  0  0  0  0  0999 V2000
    3.3169    2.3693   -0.2279 C   0  0  0  0  0  0  0  0  0  0  0  0
    3.4886    0.8375   -0.3846 C   0  0  0  0  0  0  0  0  0  0  0  0
    2.1929    0.3532   -0.3767 C   0  0  0  0  0  0  0  0  0  0  0  0
    0.6597   -0.2459   -0.3741 C   0  0  0  0  0  0  0  0  0  0  0  0
   -0.6999   -0.7812   -0.3971 C   0  0  0  0  0  0  0  0  0  0  0  0
   -0.7541   -1.1410    1.0395 O   0  0  0  0  0  0  0  0  0  0  0  0
   -1.6183   -1.0290   -0.9461 O   0  0  0  0  0  0  0  0  0  0  0  0
   -2.8447   -1.7391   -0.5541 C   0  0  0  0  0  0  0  0  0  0  0  0
   -3.6372   -0.8674    0.4479 C   0  0  0  0  0  0  0  0  0  0  0  0
    4.0479    2.8771    0.3517 H   0  0  0  0  0  0  0  0  0  0  0  0
    2.7647    2.7781   -1.0049 H   0  0  0  0  0  0  0  0  0  0  0  0
    2.4386    2.3399    0.6873 H   0  0  0  0  0  0  0  0  0  0  0  0
    3.8980    0.5287    0.7016 H   0  0  0  0  0  0  0  0  0  0  0  0
    4.2412    0.4231   -1.0462 H   0  0  0  0  0  0  0  0  0  0  0  0
   -3.4074   -1.6711   -1.5332 H   0  0  0  0  0  0  0  0  0  0  0  0
   -2.7115   -2.7555   -0.2267 H   0  0  0  0  0  0  0  0  0  0  0  0
   -4.4673   -0.3053    0.0530 H   0  0  0  0  0  0  0  0  0  0  0  0
   -4.0258   -1.6603    1.2554 H   0  0  0  0  0  0  0  0  0  0  0  0
   -2.8825   -0.3111    0.9856 H   0  0  0  0  0  0  0  0  0  0  0  0
  1  2  1  0
  2  3  1  0
  3  4  3  0
  4  5  1  0
  5  6  2  0
  5  7  1  0
  7  8  1  0
  8  9  1  0
  1 10  1  0
  1 11  1  0
  1 12  1  0
  2 13  1  0
  2 14  1  0
  8 15  1  0
  8 16  1  0
  9 17  1  0
  9 18  1  0
  9 19  1  0
M  END
