
     RDKit          3D

 23 22  0  0  0  0  0  0  0  0999 V2000
   -3.5058    1.5695   -1.4926 C   0  0  0  0  0  0  0  0  0  0  0  0
   -2.1801    2.1540   -1.0837 C   0  0  0  0  0  0  0  0  0  0  0  0
   -1.3580    1.0731   -0.5384 C   0  0  0  0  0  0  0  0  0  0  0  0
   -0.6853    0.1794   -0.0679 C   0  0  0  0  0  0  0  0  0  0  0  0
    0.1258   -0.8932    0.5083 C   0  0  0  0  0  0  0  0  0  0  0  0
    0.2787   -1.9865   -0.5285 C   0  0  0  0  0  0  0  0  0  0  0  0
    1.5176   -0.3885    0.8483 C   0  0  0  0  0  0  0  0  0  0  0  0
    2.3113   -1.3679    1.3929 O   0  0  0  0  0  0  0  0  0  0  0  0
    3.5560   -0.8027    1.6655 C   0  0  0  0  0  0  0  0  0  0  0  0
   -3.9885    2.1779   -2.3027 H   0  0  0  0  0  0  0  0  0  0  0  0
   -3.4483    0.5207   -1.7843 H   0  0  0  0  0  0  0  0  0  0  0  0
   -4.2182    1.6656   -0.6212 H   0  0  0  0  0  0  0  0  0  0  0  0
   -1.6975    2.6328   -1.9645 H   0  0  0  0  0  0  0  0  0  0  0  0
   -2.3069    2.9698   -0.3161 H   0  0  0  0  0  0  0  0  0  0  0  0
   -0.4071   -1.2506    1.4112 H   0  0  0  0  0  0  0  0  0  0  0  0
    0.1864   -1.5096   -1.5245 H   0  0  0  0  0  0  0  0  0  0  0  0
    1.2970   -2.4503   -0.4229 H   0  0  0  0  0  0  0  0  0  0  0  0
   -0.5077   -2.7651   -0.4408 H   0  0  0  0  0  0  0  0  0  0  0  0
    1.9690   -0.0235   -0.0943 H   0  0  0  0  0  0  0  0  0  0  0  0
    1.3755    0.4153    1.6034 H   0  0  0  0  0  0  0  0  0  0  0  0
    4.2558   -1.5322    2.1087 H   0  0  0  0  0  0  0  0  0  0  0  0
    4.0526   -0.4653    0.7095 H   0  0  0  0  0  0  0  0  0  0  0  0
    3.3777    0.0773    2.3204 H   0  0  0  0  0  0  0  0  0  0  0  0
  1  2  1  0
  2  3  1  0
  3  4  3  0
  4  5  1  0
  5  6  1  0
  5  7  1  0
  7  8  1  0
  8  9  1  0
  1 10  1  0
  1 11  1  0
  1 12  1  0
  2 13  1  0
  2 14  1  0
  5 15  1  0
  6 16  1  0
  6 17  1  0
  6 18  1  0
  7 19  1  0
  7 20  1  0
  9 21  1  0
  9 22  1  0
  9 23  1  0
M  END
