
     RDKit          3D

 23 22  0  0  0  0  0  0  0  0999 V2000
    3.2086   -0.5637    0.1222 C   0  0  0  0  0  0  0  0  0  0  0  0
    2.5029   -1.5876   -0.7666 C   0  0  0  0  0  0  0  0  0  0  0  0
    1.0976   -1.1887   -0.8582 C   0  0  0  0  0  0  0  0  0  0  0  0
   -0.0754   -0.8470   -0.9473 C   0  0  0  0  0  0  0  0  0  0  0  0
   -1.4808   -0.4602   -1.0670 C   0  0  0  0  0  0  0  0  0  0  0  0
   -1.7105    0.7349   -0.2073 C   0  0  0  0  0  0  0  0  0  0  0  0
   -0.8764    1.9198   -0.5766 C   0  0  0  0  0  0  0  0  0  0  0  0
   -1.5687    0.3812    1.2750 C   0  0  0  0  0  0  0  0  0  0  0  0
   -2.5081   -0.5931    1.5874 O   0  0  0  0  0  0  0  0  0  0  0  0
    2.9300    0.4682   -0.1748 H   0  0  0  0  0  0  0  0  0  0  0  0
    2.8507   -0.7143    1.1565 H   0  0  0  0  0  0  0  0  0  0  0  0
    4.3032   -0.6360    0.0166 H   0  0  0  0  0  0  0  0  0  0  0  0
    2.5513   -2.5805   -0.3165 H   0  0  0  0  0  0  0  0  0  0  0  0
    2.9931   -1.5755   -1.7714 H   0  0  0  0  0  0  0  0  0  0  0  0
   -1.7614   -0.2327   -2.1040 H   0  0  0  0  0  0  0  0  0  0  0  0
   -2.1628   -1.2674   -0.7143 H   0  0  0  0  0  0  0  0  0  0  0  0
   -2.7860    1.0358   -0.3374 H   0  0  0  0  0  0  0  0  0  0  0  0
   -1.4955    2.7832   -0.9412 H   0  0  0  0  0  0  0  0  0  0  0  0
   -0.1488    1.7141   -1.3701 H   0  0  0  0  0  0  0  0  0  0  0  0
   -0.3821    2.2892    0.3569 H   0  0  0  0  0  0  0  0  0  0  0  0
   -0.5689   -0.1078    1.3610 H   0  0  0  0  0  0  0  0  0  0  0  0
   -1.6563    1.2736    1.9099 H   0  0  0  0  0  0  0  0  0  0  0  0
   -3.2557   -0.2456    2.1178 H   0  0  0  0  0  0  0  0  0  0  0  0
  1  2  1  0
  2  3  1  0
  3  4  3  0
  4  5  1  0
  5  6  1  0
  6  7  1  0
  6  8  1  0
  8  9  1  0
  1 10  1  0
  1 11  1  0
  1 12  1  0
  2 13  1  0
  2 14  1  0
  5 15  1  0
  5 16  1  0
  6 17  1  0
  7 18  1  0
  7 19  1  0
  7 20  1  0
  8 21  1  0
  8 22  1  0
  9 23  1  0
M  END
