
     RDKit          3D

 23 22  0  0  0  0  0  0  0  0999 V2000
   -4.0077   -0.6175    0.4575 C   0  0  0  0  0  0  0  0  0  0  0  0
   -3.0510    0.0693    1.4224 C   0  0  0  0  0  0  0  0  0  0  0  0
   -1.6915   -0.2084    1.1262 C   0  0  0  0  0  0  0  0  0  0  0  0
   -0.4744   -0.4477    0.8408 C   0  0  0  0  0  0  0  0  0  0  0  0
    0.9150   -0.7097    0.4919 C   0  0  0  0  0  0  0  0  0  0  0  0
    1.4417    0.5539   -0.1369 C   0  0  0  0  0  0  0  0  0  0  0  0
    0.6243    0.8002   -1.2716 O   0  0  0  0  0  0  0  0  0  0  0  0
    2.8814    0.5077   -0.5386 C   0  0  0  0  0  0  0  0  0  0  0  0
    3.0932   -0.5767   -1.5722 C   0  0  0  0  0  0  0  0  0  0  0  0
   -3.3748   -1.0324   -0.3731 H   0  0  0  0  0  0  0  0  0  0  0  0
   -4.7071    0.1708    0.1128 H   0  0  0  0  0  0  0  0  0  0  0  0
   -4.5224   -1.4394    0.9700 H   0  0  0  0  0  0  0  0  0  0  0  0
   -3.2178    1.1807    1.4411 H   0  0  0  0  0  0  0  0  0  0  0  0
   -3.3458   -0.2726    2.4746 H   0  0  0  0  0  0  0  0  0  0  0  0
    1.4321   -0.9934    1.4084 H   0  0  0  0  0  0  0  0  0  0  0  0
    0.9323   -1.5609   -0.2388 H   0  0  0  0  0  0  0  0  0  0  0  0
    1.2229    1.3687    0.5865 H   0  0  0  0  0  0  0  0  0  0  0  0
   -0.3143    0.9425   -1.0206 H   0  0  0  0  0  0  0  0  0  0  0  0
    3.5649    0.3376    0.3168 H   0  0  0  0  0  0  0  0  0  0  0  0
    3.1080    1.4866   -1.0115 H   0  0  0  0  0  0  0  0  0  0  0  0
    2.7708   -1.5606   -1.1832 H   0  0  0  0  0  0  0  0  0  0  0  0
    2.5322   -0.2741   -2.4828 H   0  0  0  0  0  0  0  0  0  0  0  0
    4.1879   -0.5678   -1.8196 H   0  0  0  0  0  0  0  0  0  0  0  0
  1  2  1  0
  2  3  1  0
  3  4  3  0
  4  5  1  0
  5  6  1  0
  6  7  1  0
  6  8  1  0
  8  9  1  0
  1 10  1  0
  1 11  1  0
  1 12  1  0
  2 13  1  0
  2 14  1  0
  5 15  1  0
  5 16  1  0
  6 17  1  0
  7 18  1  0
  8 19  1  0
  8 20  1  0
  9 21  1  0
  9 22  1  0
  9 23  1  0
M  END
