
     RDKit          3D

 18 18  0  0  0  0  0  0  0  0999 V2000
    2.7789    0.8383   -0.1574 C   0  0  0  0  0  0  0  0  0  0  0  0
    2.3456   -0.1588    0.8599 C   0  0  0  0  0  0  0  0  0  0  0  0
    0.8846   -0.3116    0.7471 C   0  0  0  0  0  0  0  0  0  0  0  0
   -0.3191   -0.4419    0.6447 C   0  0  0  0  0  0  0  0  0  0  0  0
   -1.7728   -0.5956    0.5445 C   0  0  0  0  0  0  0  0  0  0  0  0
   -2.3005   -1.1551   -0.7220 C   0  0  0  0  0  0  0  0  0  0  0  0
   -2.4976    0.3027   -0.4851 C   0  0  0  0  0  0  0  0  0  0  0  0
   -1.6768    1.1318   -1.2509 O   0  0  0  0  0  0  0  0  0  0  0  0
    2.0071    1.1423   -0.8733 H   0  0  0  0  0  0  0  0  0  0  0  0
    3.6198    0.3846   -0.7384 H   0  0  0  0  0  0  0  0  0  0  0  0
    3.2042    1.7224    0.4005 H   0  0  0  0  0  0  0  0  0  0  0  0
    2.8117   -1.1678    0.7026 H   0  0  0  0  0  0  0  0  0  0  0  0
    2.6098    0.1349    1.9029 H   0  0  0  0  0  0  0  0  0  0  0  0
   -2.3447   -0.8717    1.4578 H   0  0  0  0  0  0  0  0  0  0  0  0
   -1.5712   -1.4812   -1.4731 H   0  0  0  0  0  0  0  0  0  0  0  0
   -3.2268   -1.7972   -0.6759 H   0  0  0  0  0  0  0  0  0  0  0  0
   -3.4771    0.6967   -0.1403 H   0  0  0  0  0  0  0  0  0  0  0  0
   -1.0751    1.6273   -0.6231 H   0  0  0  0  0  0  0  0  0  0  0  0
  1  2  1  0
  2  3  1  0
  3  4  3  0
  4  5  1  0
  5  6  1  0
  6  7  1  0
  7  8  1  0
  7  5  1  0
  1  9  1  0
  1 10  1  0
  1 11  1  0
  2 12  1  0
  2 13  1  0
  5 14  1  0
  6 15  1  0
  6 16  1  0
  7 17  1  0
  8 18  1  0
M  END
