
     RDKit          3D

 19 18  0  0  0  0  0  0  0  0999 V2000
    3.2221    0.0921   -0.7630 C   0  0  0  0  0  0  0  0  0  0  0  0
    2.6639   -0.8753    0.2481 C   0  0  0  0  0  0  0  0  0  0  0  0
    1.1459   -0.5671    0.2800 C   0  0  0  0  0  0  0  0  0  0  0  0
   -0.0090   -0.3424    0.3227 C   0  0  0  0  0  0  0  0  0  0  0  0
   -1.4222   -0.0732    0.3986 C   0  0  0  0  0  0  0  0  0  0  0  0
   -2.0283   -0.3097   -1.0292 C   0  0  0  0  0  0  0  0  0  0  0  0
   -1.7036    1.2362    0.7940 O   0  0  0  0  0  0  0  0  0  0  0  0
   -2.9119    1.4921    1.5204 C   0  0  0  0  0  0  0  0  0  0  0  0
   -3.5937    0.4774    1.6726 O   0  0  0  0  0  0  0  0  0  0  0  0
    2.5029    0.5324   -1.4443 H   0  0  0  0  0  0  0  0  0  0  0  0
    3.6967    0.9719   -0.2082 H   0  0  0  0  0  0  0  0  0  0  0  0
    4.0916   -0.4280   -1.2619 H   0  0  0  0  0  0  0  0  0  0  0  0
    3.1034   -0.6595    1.2335 H   0  0  0  0  0  0  0  0  0  0  0  0
    2.8059   -1.9277   -0.0306 H   0  0  0  0  0  0  0  0  0  0  0  0
   -2.0386   -0.7701    0.9873 H   0  0  0  0  0  0  0  0  0  0  0  0
   -1.5968   -1.3173   -1.2682 H   0  0  0  0  0  0  0  0  0  0  0  0
   -1.6490    0.4000   -1.7603 H   0  0  0  0  0  0  0  0  0  0  0  0
   -3.0996   -0.3978   -0.8755 H   0  0  0  0  0  0  0  0  0  0  0  0
   -3.1796    2.4661    1.8847 H   0  0  0  0  0  0  0  0  0  0  0  0
  1  2  1  0
  2  3  1  0
  3  4  3  0
  4  5  1  0
  5  6  1  0
  5  7  1  0
  7  8  1  0
  8  9  2  0
  1 10  1  0
  1 11  1  0
  1 12  1  0
  2 13  1  0
  2 14  1  0
  5 15  1  0
  6 16  1  0
  6 17  1  0
  6 18  1  0
  8 19  1  0
M  END
