
     RDKit          3D

 21 21  0  0  0  0  0  0  0  0999 V2000
    2.8753    1.2276    1.4649 C   0  0  0  0  0  0  0  0  0  0  0  0
    2.5857   -0.2489    1.1207 C   0  0  0  0  0  0  0  0  0  0  0  0
    1.3931   -0.2526    0.3995 C   0  0  0  0  0  0  0  0  0  0  0  0
    0.1709   -0.2741   -0.3612 C   0  0  0  0  0  0  0  0  0  0  0  0
   -0.8533   -0.3073   -1.0143 C   0  0  0  0  0  0  0  0  0  0  0  0
   -0.8728   -1.2099   -2.4057 C   0  0  0  0  0  0  0  0  0  0  0  0
   -1.6637    0.9192   -1.4104 O   0  0  0  0  0  0  0  0  0  0  0  0
   -2.2115   -0.1260   -0.5590 C   0  0  0  0  0  0  0  0  0  0  0  0
   -2.5579    0.3663    0.8198 C   0  0  0  0  0  0  0  0  0  0  0  0
    2.1223    1.5609    2.1829 H   0  0  0  0  0  0  0  0  0  0  0  0
    2.8892    1.7693    0.4956 H   0  0  0  0  0  0  0  0  0  0  0  0
    3.9080    1.2138    1.8815 H   0  0  0  0  0  0  0  0  0  0  0  0
    3.4818   -0.5434    0.5087 H   0  0  0  0  0  0  0  0  0  0  0  0
    2.5567   -0.8233    2.0643 H   0  0  0  0  0  0  0  0  0  0  0  0
    0.1365   -1.5959   -2.4544 H   0  0  0  0  0  0  0  0  0  0  0  0
   -1.2718   -0.6081   -3.2007 H   0  0  0  0  0  0  0  0  0  0  0  0
   -1.5679   -2.0040   -2.1149 H   0  0  0  0  0  0  0  0  0  0  0  0
   -3.0691   -0.6256   -1.0375 H   0  0  0  0  0  0  0  0  0  0  0  0
   -1.7229    0.3771    1.5316 H   0  0  0  0  0  0  0  0  0  0  0  0
   -2.9556    1.4230    0.8218 H   0  0  0  0  0  0  0  0  0  0  0  0
   -3.3730   -0.2378    1.2667 H   0  0  0  0  0  0  0  0  0  0  0  0
  1  2  1  0
  2  3  1  0
  3  4  3  0
  4  5  1  0
  5  6  1  0
  5  7  1  0
  7  8  1  0
  8  9  1  0
  8  5  1  0
  1 10  1  0
  1 11  1  0
  1 12  1  0
  2 13  1  0
  2 14  1  0
  6 15  1  0
  6 16  1  0
  6 17  1  0
  8 18  1  0
  9 19  1  0
  9 20  1  0
  9 21  1  0
M  END
