
     RDKit          3D

 21 21  0  0  0  0  0  0  0  0999 V2000
    2.8573   -1.1857   -0.5818 C   0  0  0  0  0  0  0  0  0  0  0  0
    2.5431   -0.0768   -1.5631 C   0  0  0  0  0  0  0  0  0  0  0  0
    1.1530    0.2733   -1.3680 C   0  0  0  0  0  0  0  0  0  0  0  0
   -0.0321    0.5763   -1.1799 C   0  0  0  0  0  0  0  0  0  0  0  0
   -1.4469    0.9405   -0.9301 C   0  0  0  0  0  0  0  0  0  0  0  0
   -1.8796    0.0826    0.2245 C   0  0  0  0  0  0  0  0  0  0  0  0
   -1.0307    0.3218    1.4765 C   0  0  0  0  0  0  0  0  0  0  0  0
   -2.3503    0.1463    2.1548 C   0  0  0  0  0  0  0  0  0  0  0  0
   -2.9808    0.5193    0.9347 O   0  0  0  0  0  0  0  0  0  0  0  0
    3.8891   -1.5073   -0.8299 H   0  0  0  0  0  0  0  0  0  0  0  0
    2.8574   -0.7960    0.4480 H   0  0  0  0  0  0  0  0  0  0  0  0
    2.1994   -2.0721   -0.7150 H   0  0  0  0  0  0  0  0  0  0  0  0
    2.7184   -0.4717   -2.6083 H   0  0  0  0  0  0  0  0  0  0  0  0
    3.2314    0.7605   -1.3480 H   0  0  0  0  0  0  0  0  0  0  0  0
   -1.5391    2.0221   -0.7270 H   0  0  0  0  0  0  0  0  0  0  0  0
   -2.0673    0.6797   -1.8195 H   0  0  0  0  0  0  0  0  0  0  0  0
   -1.9807   -0.9965   -0.0226 H   0  0  0  0  0  0  0  0  0  0  0  0
   -0.5889    1.3328    1.4706 H   0  0  0  0  0  0  0  0  0  0  0  0
   -0.3529   -0.5344    1.6204 H   0  0  0  0  0  0  0  0  0  0  0  0
   -2.5794   -0.8959    2.4306 H   0  0  0  0  0  0  0  0  0  0  0  0
   -2.6204    0.8812    2.9331 H   0  0  0  0  0  0  0  0  0  0  0  0
  1  2  1  0
  2  3  1  0
  3  4  3  0
  4  5  1  0
  5  6  1  0
  6  7  1  0
  7  8  1  0
  8  9  1  0
  9  6  1  0
  1 10  1  0
  1 11  1  0
  1 12  1  0
  2 13  1  0
  2 14  1  0
  5 15  1  0
  5 16  1  0
  6 17  1  0
  7 18  1  0
  7 19  1  0
  8 20  1  0
  8 21  1  0
M  END
