
     RDKit          3D

 21 20  0  0  0  0  0  0  0  0999 V2000
    3.4540   -2.9358    0.2543 C   0  0  0  0  0  0  0  0  0  0  0  0
    2.6485   -2.6450   -1.0441 C   0  0  0  0  0  0  0  0  0  0  0  0
    1.6973   -1.8304   -0.8660 C   0  0  0  0  0  0  0  0  0  0  0  0
    0.7332   -0.9789   -0.6706 C   0  0  0  0  0  0  0  0  0  0  0  0
   -0.4149    0.0319   -0.4249 C   0  0  0  0  0  0  0  0  0  0  0  0
   -1.2042    0.7196   -0.2448 C   0  0  0  0  0  0  0  0  0  0  0  0
   -2.3362    1.6938    0.0379 C   0  0  0  0  0  0  0  0  0  0  0  0
   -1.9251    3.0712   -0.4082 C   0  0  0  0  0  0  0  0  0  0  0  0
   -2.5928    1.6169    1.4970 C   0  0  0  0  0  0  0  0  0  0  0  0
    2.8563   -3.6588    0.8467 H   0  0  0  0  0  0  0  0  0  0  0  0
    3.5939   -1.9678    0.7687 H   0  0  0  0  0  0  0  0  0  0  0  0
    4.4353   -3.3510   -0.0017 H   0  0  0  0  0  0  0  0  0  0  0  0
    2.4022   -3.7253   -1.4067 H   0  0  0  0  0  0  0  0  0  0  0  0
    3.4870   -2.4042   -1.7968 H   0  0  0  0  0  0  0  0  0  0  0  0
   -3.2289    1.3677   -0.5208 H   0  0  0  0  0  0  0  0  0  0  0  0
   -2.7812    3.7403   -0.1858 H   0  0  0  0  0  0  0  0  0  0  0  0
   -1.7265    3.1539   -1.4900 H   0  0  0  0  0  0  0  0  0  0  0  0
   -0.9913    3.3286    0.1154 H   0  0  0  0  0  0  0  0  0  0  0  0
   -2.6630    0.5445    1.7817 H   0  0  0  0  0  0  0  0  0  0  0  0
   -3.5910    2.0624    1.7384 H   0  0  0  0  0  0  0  0  0  0  0  0
   -1.8524    2.1663    2.1086 H   0  0  0  0  0  0  0  0  0  0  0  0
  1  2  1  0
  2  3  1  0
  3  4  3  0
  4  5  1  0
  5  6  3  0
  6  7  1  0
  7  8  1  0
  7  9  1  0
  1 10  1  0
  1 11  1  0
  1 12  1  0
  2 13  1  0
  2 14  1  0
  7 15  1  0
  8 16  1  0
  8 17  1  0
  8 18  1  0
  9 19  1  0
  9 20  1  0
  9 21  1  0
M  END
