
     RDKit          3D

 15 14  0  0  0  0  0  0  0  0999 V2000
   -2.6991    0.5851    0.0452 C   0  0  0  0  0  0  0  0  0  0  0  0
   -1.3801    1.2921    0.1713 C   0  0  0  0  0  0  0  0  0  0  0  0
   -0.2504    0.3624    0.1916 C   0  0  0  0  0  0  0  0  0  0  0  0
    0.6734   -0.4138    0.2109 C   0  0  0  0  0  0  0  0  0  0  0  0
    1.8014   -1.3464    0.2304 C   0  0  0  0  0  0  0  0  0  0  0  0
    3.0694   -0.6876   -0.1332 C   0  0  0  0  0  0  0  0  0  0  0  0
    3.0925    0.4877   -0.4025 O   0  0  0  0  0  0  0  0  0  0  0  0
   -2.5155   -0.5250    0.1295 H   0  0  0  0  0  0  0  0  0  0  0  0
   -3.3925    0.8137    0.8902 H   0  0  0  0  0  0  0  0  0  0  0  0
   -3.1859    0.7973   -0.9258 H   0  0  0  0  0  0  0  0  0  0  0  0
   -1.2562    1.9903   -0.6742 H   0  0  0  0  0  0  0  0  0  0  0  0
   -1.4190    1.8888    1.1232 H   0  0  0  0  0  0  0  0  0  0  0  0
    1.5383   -2.1916   -0.4242 H   0  0  0  0  0  0  0  0  0  0  0  0
    1.9504   -1.7830    1.2564 H   0  0  0  0  0  0  0  0  0  0  0  0
    3.9734   -1.2701   -0.1548 H   0  0  0  0  0  0  0  0  0  0  0  0
  1  2  1  0
  2  3  1  0
  3  4  3  0
  4  5  1  0
  5  6  1  0
  6  7  2  0
  1  8  1  0
  1  9  1  0
  1 10  1  0
  2 11  1  0
  2 12  1  0
  5 13  1  0
  5 14  1  0
  6 15  1  0
M  END
