
     RDKit          3D

 19 20  0  0  0  0  0  0  0  0999 V2000
   -3.2481   -0.7118   -0.5158 C   0  0  0  0  0  0  0  0  0  0  0  0
   -2.4815   -1.0856    0.7216 C   0  0  0  0  0  0  0  0  0  0  0  0
   -1.1270   -0.5318    0.7205 C   0  0  0  0  0  0  0  0  0  0  0  0
   -0.0133   -0.0681    0.7004 C   0  0  0  0  0  0  0  0  0  0  0  0
    1.3429    0.4698    0.6700 C   0  0  0  0  0  0  0  0  0  0  0  0
    2.4475   -0.2850    0.0194 C   0  0  0  0  0  0  0  0  0  0  0  0
    2.9004    1.0319   -0.6235 C   0  0  0  0  0  0  0  0  0  0  0  0
    1.6101    1.6202   -0.1288 C   0  0  0  0  0  0  0  0  0  0  0  0
    1.5095    1.7033    1.2306 O   0  0  0  0  0  0  0  0  0  0  0  0
   -3.1204   -1.4951   -1.3185 H   0  0  0  0  0  0  0  0  0  0  0  0
   -4.3376   -0.7225   -0.2492 H   0  0  0  0  0  0  0  0  0  0  0  0
   -3.0224    0.2967   -0.8960 H   0  0  0  0  0  0  0  0  0  0  0  0
   -2.3707   -2.1869    0.7528 H   0  0  0  0  0  0  0  0  0  0  0  0
   -3.0511   -0.7579    1.6119 H   0  0  0  0  0  0  0  0  0  0  0  0
    3.1823   -0.7417    0.6824 H   0  0  0  0  0  0  0  0  0  0  0  0
    2.0652   -0.9423   -0.8134 H   0  0  0  0  0  0  0  0  0  0  0  0
    3.0623    0.9953   -1.6954 H   0  0  0  0  0  0  0  0  0  0  0  0
    3.7946    1.3989   -0.0547 H   0  0  0  0  0  0  0  0  0  0  0  0
    0.8574    2.0125   -0.8142 H   0  0  0  0  0  0  0  0  0  0  0  0
  1  2  1  0
  2  3  1  0
  3  4  3  0
  4  5  1  0
  5  6  1  0
  6  7  1  0
  7  8  1  0
  8  9  1  0
  8  5  1  0
  9  5  1  0
  1 10  1  0
  1 11  1  0
  1 12  1  0
  2 13  1  0
  2 14  1  0
  6 15  1  0
  6 16  1  0
  7 17  1  0
  7 18  1  0
  8 19  1  0
M  END
