
     RDKit          3D

 19 18  0  0  0  0  0  0  0  0999 V2000
   -3.6063   -0.2445    1.0586 C   0  0  0  0  0  0  0  0  0  0  0  0
   -2.3643   -0.3064    1.9064 C   0  0  0  0  0  0  0  0  0  0  0  0
   -1.1570   -0.4176    1.0933 C   0  0  0  0  0  0  0  0  0  0  0  0
   -0.1488   -0.5092    0.4343 C   0  0  0  0  0  0  0  0  0  0  0  0
    1.0555   -0.6134   -0.3823 C   0  0  0  0  0  0  0  0  0  0  0  0
    1.7565    0.6831   -0.4692 C   0  0  0  0  0  0  0  0  0  0  0  0
    1.2903    1.6364    0.1088 O   0  0  0  0  0  0  0  0  0  0  0  0
    3.0050    0.8458   -1.2390 C   0  0  0  0  0  0  0  0  0  0  0  0
    3.4168   -0.3263   -1.8446 O   0  0  0  0  0  0  0  0  0  0  0  0
   -4.0253   -1.2410    0.8329 H   0  0  0  0  0  0  0  0  0  0  0  0
   -3.4172    0.3672    0.1546 H   0  0  0  0  0  0  0  0  0  0  0  0
   -4.4245    0.2983    1.6144 H   0  0  0  0  0  0  0  0  0  0  0  0
   -2.4687   -1.1617    2.6111 H   0  0  0  0  0  0  0  0  0  0  0  0
   -2.3317    0.6052    2.5411 H   0  0  0  0  0  0  0  0  0  0  0  0
    0.7610   -0.9820   -1.3965 H   0  0  0  0  0  0  0  0  0  0  0  0
    1.7893   -1.3491    0.0310 H   0  0  0  0  0  0  0  0  0  0  0  0
    2.9000    1.6306   -2.0375 H   0  0  0  0  0  0  0  0  0  0  0  0
    3.8448    1.2341   -0.5913 H   0  0  0  0  0  0  0  0  0  0  0  0
    4.1246   -0.1495   -2.4955 H   0  0  0  0  0  0  0  0  0  0  0  0
  1  2  1  0
  2  3  1  0
  3  4  3  0
  4  5  1  0
  5  6  1  0
  6  7  2  0
  6  8  1  0
  8  9  1  0
  1 10  1  0
  1 11  1  0
  1 12  1  0
  2 13  1  0
  2 14  1  0
  5 15  1  0
  5 16  1  0
  8 17  1  0
  8 18  1  0
  9 19  1  0
M  END
