
     RDKit          3D

 22 21  0  0  0  0  0  0  0  0999 V2000
    3.7497    0.3624   -0.3193 C   0  0  0  0  0  0  0  0  0  0  0  0
    2.8931   -0.6670   -1.0623 C   0  0  0  0  0  0  0  0  0  0  0  0
    1.5301   -0.5191   -0.5417 C   0  0  0  0  0  0  0  0  0  0  0  0
    0.4168   -0.3892   -0.0958 C   0  0  0  0  0  0  0  0  0  0  0  0
   -0.9435   -0.2406    0.4741 C   0  0  0  0  0  0  0  0  0  0  0  0
   -1.1046    1.0949    1.1437 C   0  0  0  0  0  0  0  0  0  0  0  0
   -1.8978   -0.4091   -0.6843 C   0  0  0  0  0  0  0  0  0  0  0  0
   -3.3371   -0.2774   -0.2268 C   0  0  0  0  0  0  0  0  0  0  0  0
    4.8129    0.1405   -0.3890 H   0  0  0  0  0  0  0  0  0  0  0  0
    3.3653    0.3417    0.7395 H   0  0  0  0  0  0  0  0  0  0  0  0
    3.4489    1.3475   -0.7253 H   0  0  0  0  0  0  0  0  0  0  0  0
    2.8961   -0.4755   -2.1395 H   0  0  0  0  0  0  0  0  0  0  0  0
    3.3342   -1.6573   -0.7899 H   0  0  0  0  0  0  0  0  0  0  0  0
   -1.1417   -1.0315    1.2250 H   0  0  0  0  0  0  0  0  0  0  0  0
   -0.1252    1.6203    1.2401 H   0  0  0  0  0  0  0  0  0  0  0  0
   -1.8739    1.7179    0.6481 H   0  0  0  0  0  0  0  0  0  0  0  0
   -1.4655    0.9733    2.2052 H   0  0  0  0  0  0  0  0  0  0  0  0
   -1.7299    0.3405   -1.4719 H   0  0  0  0  0  0  0  0  0  0  0  0
   -1.7083   -1.4008   -1.1474 H   0  0  0  0  0  0  0  0  0  0  0  0
   -3.4530   -0.4779    0.8534 H   0  0  0  0  0  0  0  0  0  0  0  0
   -3.7570    0.6791   -0.5462 H   0  0  0  0  0  0  0  0  0  0  0  0
   -3.9096   -1.0726   -0.7879 H   0  0  0  0  0  0  0  0  0  0  0  0
  1  2  1  0
  2  3  1  0
  3  4  3  0
  4  5  1  0
  5  6  1  0
  5  7  1  0
  7  8  1  0
  1  9  1  0
  1 10  1  0
  1 11  1  0
  2 12  1  0
  2 13  1  0
  5 14  1  0
  6 15  1  0
  6 16  1  0
  6 17  1  0
  7 18  1  0
  7 19  1  0
  8 20  1  0
  8 21  1  0
  8 22  1  0
M  END
