
     RDKit          3D

 19 19  0  0  0  0  0  0  0  0999 V2000
    3.2394   -0.5197   -0.0941 C   0  0  0  0  0  0  0  0  0  0  0  0
    2.7164    0.2805   -1.3793 C   0  0  0  0  0  0  0  0  0  0  0  0
    1.0168    0.4375   -0.8352 C   0  0  0  0  0  0  0  0  0  0  0  0
    0.1701    0.5041   -0.5540 C   0  0  0  0  0  0  0  0  0  0  0  0
   -1.3069    0.6375   -0.0851 C   0  0  0  0  0  0  0  0  0  0  0  0
   -1.9087    0.4140    1.3349 C   0  0  0  0  0  0  0  0  0  0  0  0
   -3.2347   -0.1486    0.2417 C   0  0  0  0  0  0  0  0  0  0  0  0
   -1.8696   -0.7252   -0.2518 C   0  0  0  0  0  0  0  0  0  0  0  0
   -1.5680   -1.8264   -0.5633 O   0  0  0  0  0  0  0  0  0  0  0  0
    4.2465    0.0603    0.0283 H   0  0  0  0  0  0  0  0  0  0  0  0
    3.5291   -1.5714   -0.3653 H   0  0  0  0  0  0  0  0  0  0  0  0
    2.5337   -0.3242    0.6656 H   0  0  0  0  0  0  0  0  0  0  0  0
    2.6163   -0.5274   -2.0614 H   0  0  0  0  0  0  0  0  0  0  0  0
    2.9712    1.2488   -1.3731 H   0  0  0  0  0  0  0  0  0  0  0  0
   -1.9059    1.2819   -0.7653 H   0  0  0  0  0  0  0  0  0  0  0  0
   -2.2407    1.2193    1.9730 H   0  0  0  0  0  0  0  0  0  0  0  0
   -1.5619   -0.6307    1.6513 H   0  0  0  0  0  0  0  0  0  0  0  0
   -3.8455   -0.6196    0.9247 H   0  0  0  0  0  0  0  0  0  0  0  0
   -3.5975    0.8094   -0.1446 H   0  0  0  0  0  0  0  0  0  0  0  0
  1  2  1  0
  2  3  1  0
  3  4  3  0
  4  5  1  0
  5  6  1  0
  6  7  1  0
  7  8  1  0
  8  9  2  0
  8  5  1  0
  1 10  1  0
  1 11  1  0
  1 12  1  0
  2 13  1  0
  2 14  1  0
  5 15  1  0
  6 16  1  0
  6 17  1  0
  7 18  1  0
  7 19  1  0
M  END
