
     RDKit          3D

 21 22  0  0  0  0  0  0  0  0999 V2000
    3.2872   -0.6581   -0.7070 C   0  0  0  0  0  0  0  0  0  0  0  0
    2.8699    0.5589    0.1216 C   0  0  0  0  0  0  0  0  0  0  0  0
    1.4611    0.4030    0.5079 C   0  0  0  0  0  0  0  0  0  0  0  0
    0.3040    0.2947    0.8322 C   0  0  0  0  0  0  0  0  0  0  0  0
   -1.1062    0.1729    1.2031 C   0  0  0  0  0  0  0  0  0  0  0  0
   -1.7533   -0.8915    0.3687 C   0  0  0  0  0  0  0  0  0  0  0  0
   -3.0346   -0.1383    0.6049 C   0  0  0  0  0  0  0  0  0  0  0  0
   -2.0284    0.9451    0.3104 C   0  0  0  0  0  0  0  0  0  0  0  0
   -1.5419    0.0448   -0.7905 C   0  0  0  0  0  0  0  0  0  0  0  0
    4.3723   -0.6801   -0.8524 H   0  0  0  0  0  0  0  0  0  0  0  0
    2.7914   -0.6341   -1.6915 H   0  0  0  0  0  0  0  0  0  0  0  0
    2.9888   -1.5688   -0.1745 H   0  0  0  0  0  0  0  0  0  0  0  0
    2.9341    1.4869   -0.4808 H   0  0  0  0  0  0  0  0  0  0  0  0
    3.5397    0.6463    1.0019 H   0  0  0  0  0  0  0  0  0  0  0  0
   -1.3281    0.1644    2.2745 H   0  0  0  0  0  0  0  0  0  0  0  0
   -1.6087   -1.8761    0.3944 H   0  0  0  0  0  0  0  0  0  0  0  0
   -3.8387   -0.2807   -0.1130 H   0  0  0  0  0  0  0  0  0  0  0  0
   -3.3197   -0.0874    1.6833 H   0  0  0  0  0  0  0  0  0  0  0  0
   -2.1855    1.9282    0.2776 H   0  0  0  0  0  0  0  0  0  0  0  0
   -0.5113    0.2322   -1.0989 H   0  0  0  0  0  0  0  0  0  0  0  0
   -2.2920   -0.0623   -1.6176 H   0  0  0  0  0  0  0  0  0  0  0  0
  1  2  1  0
  2  3  1  0
  3  4  3  0
  4  5  1  0
  5  6  1  0
  6  7  1  0
  7  8  1  0
  8  9  1  0
  8  5  1  0
  9  6  1  0
  1 10  1  0
  1 11  1  0
  1 12  1  0
  2 13  1  0
  2 14  1  0
  5 15  1  0
  6 16  1  0
  7 17  1  0
  7 18  1  0
  8 19  1  0
  9 20  1  0
  9 21  1  0
M  END
