
     RDKit          3D

 18 18  0  0  0  0  0  0  0  0999 V2000
    2.9692    0.0815   -1.0473 C   0  0  0  0  0  0  0  0  0  0  0  0
    2.3452    0.8009    0.1529 C   0  0  0  0  0  0  0  0  0  0  0  0
    1.0365    0.4974    0.2403 C   0  0  0  0  0  0  0  0  0  0  0  0
   -0.2836    0.1868    0.3332 C   0  0  0  0  0  0  0  0  0  0  0  0
   -1.6770   -0.1544    0.4128 C   0  0  0  0  0  0  0  0  0  0  0  0
   -2.1335   -1.2560   -0.5116 C   0  0  0  0  0  0  0  0  0  0  0  0
   -2.5382    0.4605    1.4034 C   0  0  0  0  0  0  0  0  0  0  0  0
   -2.5613    1.0489    0.1534 O   0  0  0  0  0  0  0  0  0  0  0  0
    2.9457    0.6361   -1.9699 H   0  0  0  0  0  0  0  0  0  0  0  0
    2.4458   -0.9240   -1.0859 H   0  0  0  0  0  0  0  0  0  0  0  0
    4.0264   -0.1378   -0.8058 H   0  0  0  0  0  0  0  0  0  0  0  0
    2.9718    0.5353    1.0723 H   0  0  0  0  0  0  0  0  0  0  0  0
    2.6197    1.8929   -0.0211 H   0  0  0  0  0  0  0  0  0  0  0  0
   -2.1409   -2.2210    0.0981 H   0  0  0  0  0  0  0  0  0  0  0  0
   -3.1295   -1.0971   -0.9476 H   0  0  0  0  0  0  0  0  0  0  0  0
   -1.3946   -1.4186   -1.3520 H   0  0  0  0  0  0  0  0  0  0  0  0
   -3.4471   -0.0533    1.7070 H   0  0  0  0  0  0  0  0  0  0  0  0
   -2.0546    1.1218    2.1677 H   0  0  0  0  0  0  0  0  0  0  0  0
  1  2  1  0
  2  3  1  0
  3  4  3  0
  4  5  1  0
  5  6  1  0
  5  7  1  0
  7  8  1  0
  8  5  1  0
  1  9  1  0
  1 10  1  0
  1 11  1  0
  2 12  1  0
  2 13  1  0
  6 14  1  0
  6 15  1  0
  6 16  1  0
  7 17  1  0
  7 18  1  0
M  END
