
     RDKit          3D

 21 21  0  0  0  0  0  0  0  0999 V2000
    2.9674   -0.1691    1.5525 C   0  0  0  0  0  0  0  0  0  0  0  0
    2.7509   -0.0916    0.0779 C   0  0  0  0  0  0  0  0  0  0  0  0
    1.3000   -0.1190   -0.1970 C   0  0  0  0  0  0  0  0  0  0  0  0
    0.1188   -0.1203   -0.4200 C   0  0  0  0  0  0  0  0  0  0  0  0
   -1.3233   -0.1188   -0.6666 C   0  0  0  0  0  0  0  0  0  0  0  0
   -1.8762   -1.3306   -1.3398 C   0  0  0  0  0  0  0  0  0  0  0  0
   -2.0788    0.2782    0.5788 C   0  0  0  0  0  0  0  0  0  0  0  0
   -1.7341    1.6671    0.0435 C   0  0  0  0  0  0  0  0  0  0  0  0
   -1.6919    1.1019   -1.2351 O   0  0  0  0  0  0  0  0  0  0  0  0
    2.0534   -0.2218    2.1502 H   0  0  0  0  0  0  0  0  0  0  0  0
    3.5781    0.6966    1.9395 H   0  0  0  0  0  0  0  0  0  0  0  0
    3.6125   -1.0735    1.7447 H   0  0  0  0  0  0  0  0  0  0  0  0
    3.2302   -0.9007   -0.4949 H   0  0  0  0  0  0  0  0  0  0  0  0
    3.2062    0.8662   -0.2893 H   0  0  0  0  0  0  0  0  0  0  0  0
   -1.4529   -2.2225   -0.8365 H   0  0  0  0  0  0  0  0  0  0  0  0
   -1.5796   -1.3040   -2.4224 H   0  0  0  0  0  0  0  0  0  0  0  0
   -2.9847   -1.3024   -1.2306 H   0  0  0  0  0  0  0  0  0  0  0  0
   -3.1510    0.0145    0.4521 H   0  0  0  0  0  0  0  0  0  0  0  0
   -1.6085    0.0205    1.5255 H   0  0  0  0  0  0  0  0  0  0  0  0
   -0.7606    1.9780    0.4553 H   0  0  0  0  0  0  0  0  0  0  0  0
   -2.5759    2.3513    0.2018 H   0  0  0  0  0  0  0  0  0  0  0  0
  1  2  1  0
  2  3  1  0
  3  4  3  0
  4  5  1  0
  5  6  1  0
  5  7  1  0
  7  8  1  0
  8  9  1  0
  9  5  1  0
  1 10  1  0
  1 11  1  0
  1 12  1  0
  2 13  1  0
  2 14  1  0
  6 15  1  0
  6 16  1  0
  6 17  1  0
  7 18  1  0
  7 19  1  0
  8 20  1  0
  8 21  1  0
M  END
