
     RDKit          3D

 19 20  0  0  0  0  0  0  0  0999 V2000
    3.4741   -0.0114   -0.7873 C   0  0  0  0  0  0  0  0  0  0  0  0
    2.6753    0.1854    0.4661 C   0  0  0  0  0  0  0  0  0  0  0  0
    1.2647    0.4585    0.1460 C   0  0  0  0  0  0  0  0  0  0  0  0
    0.1155    0.6808   -0.1097 C   0  0  0  0  0  0  0  0  0  0  0  0
   -1.2885    0.9660   -0.4105 C   0  0  0  0  0  0  0  0  0  0  0  0
   -1.9979    1.5534    0.6431 O   0  0  0  0  0  0  0  0  0  0  0  0
   -2.9935    0.5918    0.6618 C   0  0  0  0  0  0  0  0  0  0  0  0
   -2.6551   -0.8280    0.8972 C   0  0  0  0  0  0  0  0  0  0  0  0
   -2.1520   -0.2434   -0.3589 C   0  0  0  0  0  0  0  0  0  0  0  0
    4.2525    0.7910   -0.9287 H   0  0  0  0  0  0  0  0  0  0  0  0
    4.0583   -0.9650   -0.7859 H   0  0  0  0  0  0  0  0  0  0  0  0
    2.8033   -0.0083   -1.6897 H   0  0  0  0  0  0  0  0  0  0  0  0
    2.7900   -0.6921    1.1313 H   0  0  0  0  0  0  0  0  0  0  0  0
    3.1315    1.0516    1.0146 H   0  0  0  0  0  0  0  0  0  0  0  0
   -1.4024    1.5315   -1.3674 H   0  0  0  0  0  0  0  0  0  0  0  0
   -4.0015    0.8663    0.3476 H   0  0  0  0  0  0  0  0  0  0  0  0
   -3.5015   -1.5390    0.8080 H   0  0  0  0  0  0  0  0  0  0  0  0
   -1.8787   -1.1369    1.6288 H   0  0  0  0  0  0  0  0  0  0  0  0
   -2.6942   -0.5094   -1.3065 H   0  0  0  0  0  0  0  0  0  0  0  0
  1  2  1  0
  2  3  1  0
  3  4  3  0
  4  5  1  0
  5  6  1  0
  6  7  1  0
  7  8  1  0
  8  9  1  0
  9  5  1  0
  9  7  1  0
  1 10  1  0
  1 11  1  0
  1 12  1  0
  2 13  1  0
  2 14  1  0
  5 15  1  0
  7 16  1  0
  8 17  1  0
  8 18  1  0
  9 19  1  0
M  END
