
     RDKit          3D

 23 22  0  0  0  0  0  0  0  0999 V2000
    2.4576   -1.0736   -2.7682 C   0  0  0  0  0  0  0  0  0  0  0  0
    2.0631    0.3354   -2.3820 C   0  0  0  0  0  0  0  0  0  0  0  0
    1.0064    0.3917   -1.4775 C   0  0  0  0  0  0  0  0  0  0  0  0
   -0.0349    0.4427   -0.5548 C   0  0  0  0  0  0  0  0  0  0  0  0
   -1.0264    0.5033    0.2980 C   0  0  0  0  0  0  0  0  0  0  0  0
   -2.3323    1.0163   -0.3076 C   0  0  0  0  0  0  0  0  0  0  0  0
   -1.2564   -0.7341    0.9378 O   0  0  0  0  0  0  0  0  0  0  0  0
   -1.3065   -0.6705    2.2976 C   0  0  0  0  0  0  0  0  0  0  0  0
   -0.1200   -0.1114    3.0058 C   0  0  0  0  0  0  0  0  0  0  0  0
    3.4898   -1.2443   -2.4144 H   0  0  0  0  0  0  0  0  0  0  0  0
    2.4581   -1.2378   -3.8646 H   0  0  0  0  0  0  0  0  0  0  0  0
    1.8048   -1.7720   -2.2210 H   0  0  0  0  0  0  0  0  0  0  0  0
    1.7734    0.9040   -3.3123 H   0  0  0  0  0  0  0  0  0  0  0  0
    3.0013    0.8577   -2.0550 H   0  0  0  0  0  0  0  0  0  0  0  0
   -0.8785    1.2659    1.1692 H   0  0  0  0  0  0  0  0  0  0  0  0
   -2.2154    2.1004   -0.5411 H   0  0  0  0  0  0  0  0  0  0  0  0
   -3.1477    0.9544    0.4549 H   0  0  0  0  0  0  0  0  0  0  0  0
   -2.6306    0.5109   -1.2202 H   0  0  0  0  0  0  0  0  0  0  0  0
   -2.2692   -0.2363    2.6751 H   0  0  0  0  0  0  0  0  0  0  0  0
   -1.3583   -1.7575    2.6358 H   0  0  0  0  0  0  0  0  0  0  0  0
    0.2651   -0.7797    3.8099 H   0  0  0  0  0  0  0  0  0  0  0  0
   -0.4594    0.8538    3.4898 H   0  0  0  0  0  0  0  0  0  0  0  0
    0.7159    0.1739    2.3450 H   0  0  0  0  0  0  0  0  0  0  0  0
  1  2  1  0
  2  3  1  0
  3  4  3  0
  4  5  1  0
  5  6  1  0
  5  7  1  0
  7  8  1  0
  8  9  1  0
  1 10  1  0
  1 11  1  0
  1 12  1  0
  2 13  1  0
  2 14  1  0
  5 15  1  0
  6 16  1  0
  6 17  1  0
  6 18  1  0
  8 19  1  0
  8 20  1  0
  9 21  1  0
  9 22  1  0
  9 23  1  0
M  END
