
     RDKit          3D

 19 18  0  0  0  0  0  0  0  0999 V2000
    3.6159    0.5251   -1.2360 C   0  0  0  0  0  0  0  0  0  0  0  0
    3.0228   -0.2939   -0.1201 C   0  0  0  0  0  0  0  0  0  0  0  0
    1.5559   -0.3454   -0.1910 C   0  0  0  0  0  0  0  0  0  0  0  0
    0.3528   -0.4058   -0.2597 C   0  0  0  0  0  0  0  0  0  0  0  0
   -1.1126   -0.4641   -0.3436 C   0  0  0  0  0  0  0  0  0  0  0  0
   -1.6076   -0.2109    0.9161 O   0  0  0  0  0  0  0  0  0  0  0  0
   -2.9797   -0.2325    0.9930 C   0  0  0  0  0  0  0  0  0  0  0  0
   -3.5679    0.7937    0.0921 C   0  0  0  0  0  0  0  0  0  0  0  0
   -4.7794    0.9130    0.0352 O   0  0  0  0  0  0  0  0  0  0  0  0
    3.7882    1.5452   -0.8315 H   0  0  0  0  0  0  0  0  0  0  0  0
    4.5206    0.0415   -1.6062 H   0  0  0  0  0  0  0  0  0  0  0  0
    2.8634    0.5410   -2.0655 H   0  0  0  0  0  0  0  0  0  0  0  0
    3.3737   -1.3393   -0.2428 H   0  0  0  0  0  0  0  0  0  0  0  0
    3.3515    0.0503    0.8797 H   0  0  0  0  0  0  0  0  0  0  0  0
   -1.3484   -1.5159   -0.6668 H   0  0  0  0  0  0  0  0  0  0  0  0
   -1.4877    0.1929   -1.1275 H   0  0  0  0  0  0  0  0  0  0  0  0
   -3.2560    0.0112    2.0462 H   0  0  0  0  0  0  0  0  0  0  0  0
   -3.3261   -1.2556    0.7308 H   0  0  0  0  0  0  0  0  0  0  0  0
   -2.9793    1.4495   -0.5239 H   0  0  0  0  0  0  0  0  0  0  0  0
  1  2  1  0
  2  3  1  0
  3  4  3  0
  4  5  1  0
  5  6  1  0
  6  7  1  0
  7  8  1  0
  8  9  2  0
  1 10  1  0
  1 11  1  0
  1 12  1  0
  2 13  1  0
  2 14  1  0
  5 15  1  0
  5 16  1  0
  7 17  1  0
  7 18  1  0
  8 19  1  0
M  END
