
     RDKit          3D

 17 17  0  0  0  0  0  0  0  0999 V2000
    3.1905    0.0608   -0.1443 C   0  0  0  0  0  0  0  0  0  0  0  0
    2.0001    0.9833   -0.3151 C   0  0  0  0  0  0  0  0  0  0  0  0
    0.7355    0.3064   -0.1094 C   0  0  0  0  0  0  0  0  0  0  0  0
   -0.3120   -0.2591    0.0407 C   0  0  0  0  0  0  0  0  0  0  0  0
   -1.5817   -0.9567    0.2396 C   0  0  0  0  0  0  0  0  0  0  0  0
   -2.7543   -0.3148   -0.4673 C   0  0  0  0  0  0  0  0  0  0  0  0
   -2.6005   -0.2102    1.0320 C   0  0  0  0  0  0  0  0  0  0  0  0
    3.1491   -0.3999    0.8705 H   0  0  0  0  0  0  0  0  0  0  0  0
    3.2578   -0.6878   -0.9472 H   0  0  0  0  0  0  0  0  0  0  0  0
    4.0956    0.7051   -0.2391 H   0  0  0  0  0  0  0  0  0  0  0  0
    2.0328    1.4587   -1.3102 H   0  0  0  0  0  0  0  0  0  0  0  0
    2.1296    1.8213    0.4276 H   0  0  0  0  0  0  0  0  0  0  0  0
   -1.5908   -2.0698    0.2146 H   0  0  0  0  0  0  0  0  0  0  0  0
   -3.6207   -0.9506   -0.7649 H   0  0  0  0  0  0  0  0  0  0  0  0
   -2.5741    0.5744   -1.0849 H   0  0  0  0  0  0  0  0  0  0  0  0
   -3.2254   -0.8385    1.6964 H   0  0  0  0  0  0  0  0  0  0  0  0
   -2.3314    0.7775    1.4330 H   0  0  0  0  0  0  0  0  0  0  0  0
  1  2  1  0
  2  3  1  0
  3  4  3  0
  4  5  1  0
  5  6  1  0
  6  7  1  0
  7  5  1  0
  1  8  1  0
  1  9  1  0
  1 10  1  0
  2 11  1  0
  2 12  1  0
  5 13  1  0
  6 14  1  0
  6 15  1  0
  7 16  1  0
  7 17  1  0
M  END
