
     RDKit          3D

 23 22  0  0  0  0  0  0  0  0999 V2000
    3.5031    0.2334   -0.9454 C   0  0  0  0  0  0  0  0  0  0  0  0
    2.8251   -0.6821    0.0160 C   0  0  0  0  0  0  0  0  0  0  0  0
    1.3670   -0.5606   -0.2116 C   0  0  0  0  0  0  0  0  0  0  0  0
    0.1772   -0.4454   -0.3847 C   0  0  0  0  0  0  0  0  0  0  0  0
   -1.2606   -0.2826   -0.5850 C   0  0  0  0  0  0  0  0  0  0  0  0
   -1.6246    1.1339   -0.9622 C   0  0  0  0  0  0  0  0  0  0  0  0
   -1.6873   -1.1545   -1.5538 O   0  0  0  0  0  0  0  0  0  0  0  0
   -2.0193   -0.5860    0.7139 C   0  0  0  0  0  0  0  0  0  0  0  0
   -1.5458    0.3678    1.7627 C   0  0  0  0  0  0  0  0  0  0  0  0
    3.7011   -0.2144   -1.9401 H   0  0  0  0  0  0  0  0  0  0  0  0
    2.8505    1.1074   -1.1208 H   0  0  0  0  0  0  0  0  0  0  0  0
    4.4356    0.6063   -0.4725 H   0  0  0  0  0  0  0  0  0  0  0  0
    3.0847   -1.7490   -0.1325 H   0  0  0  0  0  0  0  0  0  0  0  0
    3.0955   -0.3860    1.0449 H   0  0  0  0  0  0  0  0  0  0  0  0
   -1.1816    1.4508   -1.9202 H   0  0  0  0  0  0  0  0  0  0  0  0
   -2.7295    1.1510   -1.0952 H   0  0  0  0  0  0  0  0  0  0  0  0
   -1.2937    1.8425   -0.1799 H   0  0  0  0  0  0  0  0  0  0  0  0
   -2.6441   -1.3759   -1.4161 H   0  0  0  0  0  0  0  0  0  0  0  0
   -1.6753   -1.6235    0.9974 H   0  0  0  0  0  0  0  0  0  0  0  0
   -3.0924   -0.5939    0.5366 H   0  0  0  0  0  0  0  0  0  0  0  0
   -1.5027   -0.1521    2.7597 H   0  0  0  0  0  0  0  0  0  0  0  0
   -0.5252    0.7047    1.5202 H   0  0  0  0  0  0  0  0  0  0  0  0
   -2.2576    1.2082    1.8909 H   0  0  0  0  0  0  0  0  0  0  0  0
  1  2  1  0
  2  3  1  0
  3  4  3  0
  4  5  1  0
  5  6  1  0
  5  7  1  0
  5  8  1  0
  8  9  1  0
  1 10  1  0
  1 11  1  0
  1 12  1  0
  2 13  1  0
  2 14  1  0
  6 15  1  0
  6 16  1  0
  6 17  1  0
  7 18  1  0
  8 19  1  0
  8 20  1  0
  9 21  1  0
  9 22  1  0
  9 23  1  0
M  END
