
     RDKit          3D

 23 22  0  0  0  0  0  0  0  0999 V2000
    3.6922    2.1539    0.5349 C   0  0  0  0  0  0  0  0  0  0  0  0
    2.9207    2.5821   -0.6617 C   0  0  0  0  0  0  0  0  0  0  0  0
    1.7543    1.7524   -0.8863 C   0  0  0  0  0  0  0  0  0  0  0  0
    0.7626    1.0232   -1.0894 C   0  0  0  0  0  0  0  0  0  0  0  0
   -0.4058    0.1925   -1.3312 C   0  0  0  0  0  0  0  0  0  0  0  0
   -0.7503   -0.5591   -0.0560 C   0  0  0  0  0  0  0  0  0  0  0  0
   -1.9736   -1.4203   -0.3170 C   0  0  0  0  0  0  0  0  0  0  0  0
   -2.3058   -2.1285    0.8504 O   0  0  0  0  0  0  0  0  0  0  0  0
   -3.4482   -2.9032    0.5684 C   0  0  0  0  0  0  0  0  0  0  0  0
    3.0037    1.6451    1.2665 H   0  0  0  0  0  0  0  0  0  0  0  0
    4.2600    2.9698    1.0193 H   0  0  0  0  0  0  0  0  0  0  0  0
    4.4284    1.3737    0.2365 H   0  0  0  0  0  0  0  0  0  0  0  0
    3.6186    2.5731   -1.5457 H   0  0  0  0  0  0  0  0  0  0  0  0
    2.5853    3.6313   -0.5370 H   0  0  0  0  0  0  0  0  0  0  0  0
   -1.2738    0.8202   -1.6096 H   0  0  0  0  0  0  0  0  0  0  0  0
   -0.2226   -0.5503   -2.1524 H   0  0  0  0  0  0  0  0  0  0  0  0
    0.1298   -1.1576    0.2504 H   0  0  0  0  0  0  0  0  0  0  0  0
   -0.9762    0.2212    0.7097 H   0  0  0  0  0  0  0  0  0  0  0  0
   -1.7298   -2.1521   -1.1006 H   0  0  0  0  0  0  0  0  0  0  0  0
   -2.8093   -0.7458   -0.5671 H   0  0  0  0  0  0  0  0  0  0  0  0
   -3.2787   -3.6115   -0.2493 H   0  0  0  0  0  0  0  0  0  0  0  0
   -4.3142   -2.2371    0.3957 H   0  0  0  0  0  0  0  0  0  0  0  0
   -3.6673   -3.4729    1.5192 H   0  0  0  0  0  0  0  0  0  0  0  0
  1  2  1  0
  2  3  1  0
  3  4  3  0
  4  5  1  0
  5  6  1  0
  6  7  1  0
  7  8  1  0
  8  9  1  0
  1 10  1  0
  1 11  1  0
  1 12  1  0
  2 13  1  0
  2 14  1  0
  5 15  1  0
  5 16  1  0
  6 17  1  0
  6 18  1  0
  7 19  1  0
  7 20  1  0
  9 21  1  0
  9 22  1  0
  9 23  1  0
M  END
