
     RDKit          3D

 17 17  0  0  0  0  0  0  0  0999 V2000
    1.4058   -2.1920    1.9129 C   0  0  0  0  0  0  0  0  0  0  0  0
    0.0000   -1.5812    2.1026 C   0  0  0  0  0  0  0  0  0  0  0  0
   -0.2961   -1.0497    0.6168 C   0  0  0  0  0  0  0  0  0  0  0  0
   -0.5226   -0.6122   -0.5429 C   0  0  0  0  0  0  0  0  0  0  0  0
   -0.7654   -0.1423   -1.7298 C   0  0  0  0  0  0  0  0  0  0  0  0
    0.3867    0.3728   -2.5739 O   0  0  0  0  0  0  0  0  0  0  0  0
   -0.6365    1.2089   -2.1729 C   0  0  0  0  0  0  0  0  0  0  0  0
   -0.4417    2.2374   -1.1293 C   0  0  0  0  0  0  0  0  0  0  0  0
   -1.1469    3.2237   -1.1124 O   0  0  0  0  0  0  0  0  0  0  0  0
    2.0124   -2.0341    2.8149 H   0  0  0  0  0  0  0  0  0  0  0  0
    1.8633   -1.7023    1.0202 H   0  0  0  0  0  0  0  0  0  0  0  0
    1.3027   -3.2900    1.6804 H   0  0  0  0  0  0  0  0  0  0  0  0
   -0.7473   -2.3269    2.1948 H   0  0  0  0  0  0  0  0  0  0  0  0
    0.0454   -0.7158    2.7331 H   0  0  0  0  0  0  0  0  0  0  0  0
   -1.4334   -0.8044   -2.4577 H   0  0  0  0  0  0  0  0  0  0  0  0
   -1.3482    1.5292   -2.9854 H   0  0  0  0  0  0  0  0  0  0  0  0
    0.3217    2.1338   -0.3716 H   0  0  0  0  0  0  0  0  0  0  0  0
  1  2  1  0
  2  3  1  0
  3  4  3  0
  4  5  1  0
  5  6  1  0
  6  7  1  0
  7  8  1  0
  8  9  2  0
  7  5  1  0
  1 10  1  0
  1 11  1  0
  1 12  1  0
  2 13  1  0
  2 14  1  0
  5 15  1  0
  7 16  1  0
  8 17  1  0
M  END
