
     RDKit          3D

 22 21  0  0  0  0  0  0  0  0999 V2000
    3.4400    2.4840    0.2684 C   0  0  0  0  0  0  0  0  0  0  0  0
    2.8374    1.6161   -0.8294 C   0  0  0  0  0  0  0  0  0  0  0  0
    1.6855    0.8724   -0.3190 C   0  0  0  0  0  0  0  0  0  0  0  0
    0.7159    0.2406    0.0894 C   0  0  0  0  0  0  0  0  0  0  0  0
   -0.4509   -0.4938    0.5839 C   0  0  0  0  0  0  0  0  0  0  0  0
   -1.5531   -0.3246   -0.4374 C   0  0  0  0  0  0  0  0  0  0  0  0
   -2.8074   -1.0598    0.0002 C   0  0  0  0  0  0  0  0  0  0  0  0
   -2.5473   -2.5352    0.1622 C   0  0  0  0  0  0  0  0  0  0  0  0
    4.3512    1.9963    0.7026 H   0  0  0  0  0  0  0  0  0  0  0  0
    2.7054    2.5196    1.1014 H   0  0  0  0  0  0  0  0  0  0  0  0
    3.6693    3.4932   -0.0758 H   0  0  0  0  0  0  0  0  0  0  0  0
    2.5694    2.2861   -1.6687 H   0  0  0  0  0  0  0  0  0  0  0  0
    3.5872    0.8714   -1.1992 H   0  0  0  0  0  0  0  0  0  0  0  0
   -0.7988   -0.1195    1.5684 H   0  0  0  0  0  0  0  0  0  0  0  0
   -0.1572   -1.5474    0.7367 H   0  0  0  0  0  0  0  0  0  0  0  0
   -1.7924    0.7415   -0.5019 H   0  0  0  0  0  0  0  0  0  0  0  0
   -1.2644   -0.7366   -1.4161 H   0  0  0  0  0  0  0  0  0  0  0  0
   -3.0756   -0.6272    1.0009 H   0  0  0  0  0  0  0  0  0  0  0  0
   -3.5955   -0.8624   -0.7544 H   0  0  0  0  0  0  0  0  0  0  0  0
   -2.8171   -2.8609    1.1788 H   0  0  0  0  0  0  0  0  0  0  0  0
   -1.5041   -2.8136   -0.1259 H   0  0  0  0  0  0  0  0  0  0  0  0
   -3.1974   -3.1404   -0.5355 H   0  0  0  0  0  0  0  0  0  0  0  0
  1  2  1  0
  2  3  1  0
  3  4  3  0
  4  5  1  0
  5  6  1  0
  6  7  1  0
  7  8  1  0
  1  9  1  0
  1 10  1  0
  1 11  1  0
  2 12  1  0
  2 13  1  0
  5 14  1  0
  5 15  1  0
  6 16  1  0
  6 17  1  0
  7 18  1  0
  7 19  1  0
  8 20  1  0
  8 21  1  0
  8 22  1  0
M  END
