
     RDKit          3D

 20 20  0  0  0  0  0  0  0  0999 V2000
    3.4248   -1.1239    0.3475 C   0  0  0  0  0  0  0  0  0  0  0  0
    2.7738   -0.0290   -0.4406 C   0  0  0  0  0  0  0  0  0  0  0  0
    1.3609    0.0936   -0.0746 C   0  0  0  0  0  0  0  0  0  0  0  0
    0.2185    0.1749    0.2311 C   0  0  0  0  0  0  0  0  0  0  0  0
   -1.1859    0.2976    0.5954 C   0  0  0  0  0  0  0  0  0  0  0  0
   -2.0178   -0.8443    0.0623 C   0  0  0  0  0  0  0  0  0  0  0  0
   -3.1069    0.1700   -0.2433 C   0  0  0  0  0  0  0  0  0  0  0  0
   -1.9889    1.2165   -0.3216 C   0  0  0  0  0  0  0  0  0  0  0  0
    4.5234   -0.9809    0.3223 H   0  0  0  0  0  0  0  0  0  0  0  0
    3.1261   -1.0381    1.4114 H   0  0  0  0  0  0  0  0  0  0  0  0
    3.0961   -2.1017   -0.0472 H   0  0  0  0  0  0  0  0  0  0  0  0
    2.8705   -0.2252   -1.5410 H   0  0  0  0  0  0  0  0  0  0  0  0
    3.3283    0.9218   -0.2079 H   0  0  0  0  0  0  0  0  0  0  0  0
   -1.3946    0.4710    1.6583 H   0  0  0  0  0  0  0  0  0  0  0  0
   -1.6131   -1.3454   -0.8335 H   0  0  0  0  0  0  0  0  0  0  0  0
   -2.2384   -1.5658    0.8473 H   0  0  0  0  0  0  0  0  0  0  0  0
   -3.7283    0.3724    0.6629 H   0  0  0  0  0  0  0  0  0  0  0  0
   -3.6440    0.0267   -1.1812 H   0  0  0  0  0  0  0  0  0  0  0  0
   -2.2387    2.1880    0.1063 H   0  0  0  0  0  0  0  0  0  0  0  0
   -1.5659    1.2161   -1.3540 H   0  0  0  0  0  0  0  0  0  0  0  0
  1  2  1  0
  2  3  1  0
  3  4  3  0
  4  5  1  0
  5  6  1  0
  6  7  1  0
  7  8  1  0
  8  5  1  0
  1  9  1  0
  1 10  1  0
  1 11  1  0
  2 12  1  0
  2 13  1  0
  5 14  1  0
  6 15  1  0
  6 16  1  0
  7 17  1  0
  7 18  1  0
  8 19  1  0
  8 20  1  0
M  END
