
     RDKit          3D

 23 22  0  0  0  0  0  0  0  0999 V2000
    3.4588   -0.3622   -0.2803 C   0  0  0  0  0  0  0  0  0  0  0  0
    2.6723    0.1642    0.9106 C   0  0  0  0  0  0  0  0  0  0  0  0
    1.2719    0.3949    0.5510 C   0  0  0  0  0  0  0  0  0  0  0  0
    0.0975    0.5887    0.2708 C   0  0  0  0  0  0  0  0  0  0  0  0
   -1.3113    0.7953   -0.0636 C   0  0  0  0  0  0  0  0  0  0  0  0
   -1.4378    1.5444   -1.3680 C   0  0  0  0  0  0  0  0  0  0  0  0
   -2.0892   -0.4878   -0.0507 C   0  0  0  0  0  0  0  0  0  0  0  0
   -1.5975   -1.5103   -1.0129 C   0  0  0  0  0  0  0  0  0  0  0  0
   -2.1297   -0.9369    1.2727 O   0  0  0  0  0  0  0  0  0  0  0  0
    3.0852    0.2319   -1.1635 H   0  0  0  0  0  0  0  0  0  0  0  0
    4.5319   -0.1901   -0.1845 H   0  0  0  0  0  0  0  0  0  0  0  0
    3.2832   -1.4331   -0.4201 H   0  0  0  0  0  0  0  0  0  0  0  0
    2.6919   -0.6264    1.6732 H   0  0  0  0  0  0  0  0  0  0  0  0
    3.1756    1.0648    1.2630 H   0  0  0  0  0  0  0  0  0  0  0  0
   -1.7692    1.4559    0.7194 H   0  0  0  0  0  0  0  0  0  0  0  0
   -2.3653    1.3268   -1.9121 H   0  0  0  0  0  0  0  0  0  0  0  0
   -1.3866    2.6540   -1.2125 H   0  0  0  0  0  0  0  0  0  0  0  0
   -0.5833    1.1896   -2.0095 H   0  0  0  0  0  0  0  0  0  0  0  0
   -3.1378   -0.2420   -0.3245 H   0  0  0  0  0  0  0  0  0  0  0  0
   -2.0416   -1.3257   -2.0241 H   0  0  0  0  0  0  0  0  0  0  0  0
   -1.9935   -2.5079   -0.6946 H   0  0  0  0  0  0  0  0  0  0  0  0
   -0.5177   -1.5817   -1.1153 H   0  0  0  0  0  0  0  0  0  0  0  0
   -1.9078   -0.2061    1.9147 H   0  0  0  0  0  0  0  0  0  0  0  0
  1  2  1  0
  2  3  1  0
  3  4  3  0
  4  5  1  0
  5  6  1  0
  5  7  1  0
  7  8  1  0
  7  9  1  0
  1 10  1  0
  1 11  1  0
  1 12  1  0
  2 13  1  0
  2 14  1  0
  5 15  1  0
  6 16  1  0
  6 17  1  0
  6 18  1  0
  7 19  1  0
  8 20  1  0
  8 21  1  0
  8 22  1  0
  9 23  1  0
M  END
