
     RDKit          3D

 16 15  0  0  0  0  0  0  0  0999 V2000
   -2.8182   -0.7065   -0.2770 C   0  0  0  0  0  0  0  0  0  0  0  0
   -1.4641   -1.3390    0.0317 C   0  0  0  0  0  0  0  0  0  0  0  0
   -0.4697   -0.2713   -0.0807 C   0  0  0  0  0  0  0  0  0  0  0  0
    0.3518    0.6295   -0.1578 C   0  0  0  0  0  0  0  0  0  0  0  0
    1.3372    1.7085   -0.2326 C   0  0  0  0  0  0  0  0  0  0  0  0
    2.5195    1.1979   -0.8163 O   0  0  0  0  0  0  0  0  0  0  0  0
    3.2216    0.1508   -0.2384 C   0  0  0  0  0  0  0  0  0  0  0  0
    2.7659   -0.3322    0.8314 O   0  0  0  0  0  0  0  0  0  0  0  0
   -2.8373   -0.5511   -1.3822 H   0  0  0  0  0  0  0  0  0  0  0  0
   -2.8666    0.3309    0.1549 H   0  0  0  0  0  0  0  0  0  0  0  0
   -3.6202   -1.3585    0.0874 H   0  0  0  0  0  0  0  0  0  0  0  0
   -1.4269   -1.7798    1.0329 H   0  0  0  0  0  0  0  0  0  0  0  0
   -1.3196   -2.1229   -0.7468 H   0  0  0  0  0  0  0  0  0  0  0  0
    1.5283    2.1319    0.7835 H   0  0  0  0  0  0  0  0  0  0  0  0
    0.9776    2.5570   -0.8518 H   0  0  0  0  0  0  0  0  0  0  0  0
    4.1208   -0.2454   -0.6726 H   0  0  0  0  0  0  0  0  0  0  0  0
  1  2  1  0
  2  3  1  0
  3  4  3  0
  4  5  1  0
  5  6  1  0
  6  7  1  0
  7  8  2  0
  1  9  1  0
  1 10  1  0
  1 11  1  0
  2 12  1  0
  2 13  1  0
  5 14  1  0
  5 15  1  0
  7 16  1  0
M  END
