
     RDKit          3D

 19 19  0  0  0  0  0  0  0  0999 V2000
    3.3800   -0.9672   -0.9916 C   0  0  0  0  0  0  0  0  0  0  0  0
    2.8944    0.4296   -1.1353 C   0  0  0  0  0  0  0  0  0  0  0  0
    1.4130    0.3883   -0.6814 C   0  0  0  0  0  0  0  0  0  0  0  0
    0.0906    0.3622   -0.2982 C   0  0  0  0  0  0  0  0  0  0  0  0
   -1.1609    0.3555    0.0546 C   0  0  0  0  0  0  0  0  0  0  0  0
   -2.1564   -0.3615   -0.5894 C   0  0  0  0  0  0  0  0  0  0  0  0
   -3.4272   -0.2434    0.0410 C   0  0  0  0  0  0  0  0  0  0  0  0
   -3.0429    0.1671    1.3433 O   0  0  0  0  0  0  0  0  0  0  0  0
   -1.8887    0.9264    1.2484 C   0  0  0  0  0  0  0  0  0  0  0  0
    4.3431   -1.0503   -1.5858 H   0  0  0  0  0  0  0  0  0  0  0  0
    2.7409   -1.7867   -1.3120 H   0  0  0  0  0  0  0  0  0  0  0  0
    3.5431   -1.1760    0.1296 H   0  0  0  0  0  0  0  0  0  0  0  0
    3.0922    1.0804   -1.8840 H   0  0  0  0  0  0  0  0  0  0  0  0
    3.2938    0.9652   -0.0674 H   0  0  0  0  0  0  0  0  0  0  0  0
   -1.8627   -1.0457   -1.4571 H   0  0  0  0  0  0  0  0  0  0  0  0
   -3.9327   -1.2420    0.1212 H   0  0  0  0  0  0  0  0  0  0  0  0
   -4.0560    0.5876   -0.4571 H   0  0  0  0  0  0  0  0  0  0  0  0
   -1.1155    0.6468    2.0798 H   0  0  0  0  0  0  0  0  0  0  0  0
   -2.1479    1.9639    1.2414 H   0  0  0  0  0  0  0  0  0  0  0  0
  1  2  1  0
  2  3  1  0
  3  4  3  0
  4  5  1  0
  5  6  2  0
  6  7  1  0
  7  8  1  0
  8  9  1  0
  9  5  1  0
  1 10  1  0
  1 11  1  0
  1 12  1  0
  2 13  1  0
  2 14  1  0
  6 15  1  0
  7 16  1  0
  7 17  1  0
  9 18  1  0
  9 19  1  0
M  END
