
     RDKit          3D

 25 24  0  0  0  0  0  0  0  0999 V2000
    4.0565   -0.2907   -0.7863 C   0  0  0  0  0  0  0  0  0  0  0  0
    3.2761    0.9414   -0.3234 C   0  0  0  0  0  0  0  0  0  0  0  0
    1.7595    0.4851   -0.6051 C   0  0  0  0  0  0  0  0  0  0  0  0
    0.6510    0.1511   -0.7919 C   0  0  0  0  0  0  0  0  0  0  0  0
   -0.7098   -0.2807   -1.0364 C   0  0  0  0  0  0  0  0  0  0  0  0
   -1.5508    0.7053   -0.1632 C   0  0  0  0  0  0  0  0  0  0  0  0
   -2.9806    0.3466   -0.4523 C   0  0  0  0  0  0  0  0  0  0  0  0
   -1.2748    0.2435    1.2874 C   0  0  0  0  0  0  0  0  0  0  0  0
   -1.7865   -1.2215    1.3828 C   0  0  0  0  0  0  0  0  0  0  0  0
    4.3512   -0.8852    0.1216 H   0  0  0  0  0  0  0  0  0  0  0  0
    3.4482   -0.9369   -1.4347 H   0  0  0  0  0  0  0  0  0  0  0  0
    4.9976    0.0963   -1.2636 H   0  0  0  0  0  0  0  0  0  0  0  0
    3.4801    1.7864   -0.9249 H   0  0  0  0  0  0  0  0  0  0  0  0
    3.3536    1.0530    0.7281 H   0  0  0  0  0  0  0  0  0  0  0  0
   -0.9047   -1.2896   -0.7444 H   0  0  0  0  0  0  0  0  0  0  0  0
   -1.0048   -0.0304   -2.1046 H   0  0  0  0  0  0  0  0  0  0  0  0
   -1.2664    1.7368   -0.3032 H   0  0  0  0  0  0  0  0  0  0  0  0
   -3.0743   -0.5223   -1.1934 H   0  0  0  0  0  0  0  0  0  0  0  0
   -3.6562    0.2311    0.3842 H   0  0  0  0  0  0  0  0  0  0  0  0
   -3.3952    1.1906   -1.1022 H   0  0  0  0  0  0  0  0  0  0  0  0
   -0.1875    0.2742    1.3987 H   0  0  0  0  0  0  0  0  0  0  0  0
   -1.7638    0.8754    2.0322 H   0  0  0  0  0  0  0  0  0  0  0  0
   -0.9431   -1.9003    1.2564 H   0  0  0  0  0  0  0  0  0  0  0  0
   -2.4973   -1.3972    0.5228 H   0  0  0  0  0  0  0  0  0  0  0  0
   -2.3780   -1.3619    2.2896 H   0  0  0  0  0  0  0  0  0  0  0  0
  1  2  1  0
  2  3  1  0
  3  4  3  0
  4  5  1  0
  5  6  1  0
  6  7  1  0
  6  8  1  0
  8  9  1  0
  1 10  1  0
  1 11  1  0
  1 12  1  0
  2 13  1  0
  2 14  1  0
  5 15  1  0
  5 16  1  0
  6 17  1  0
  7 18  1  0
  7 19  1  0
  7 20  1  0
  8 21  1  0
  8 22  1  0
  9 23  1  0
  9 24  1  0
  9 25  1  0
M  END
