
     RDKit          3D

 23 23  0  0  0  0  0  0  0  0999 V2000
    3.7801   -1.2664   -1.8669 C   0  0  0  0  0  0  0  0  0  0  0  0
    2.3916   -1.5636   -2.1019 C   0  0  0  0  0  0  0  0  0  0  0  0
    1.6628   -0.7005   -1.2118 C   0  0  0  0  0  0  0  0  0  0  0  0
    0.8488    0.3051   -0.2014 C   0  0  0  0  0  0  0  0  0  0  0  0
    0.3120    0.9488    0.4602 C   0  0  0  0  0  0  0  0  0  0  0  0
   -1.1362    0.7580    0.4766 C   0  0  0  0  0  0  0  0  0  0  0  0
   -1.7262   -0.5467    1.1584 C   0  0  0  0  0  0  0  0  0  0  0  0
   -2.5292    0.7752    0.7308 C   0  0  0  0  0  0  0  0  0  0  0  0
   -3.1514    1.5239    1.8299 C   0  0  0  0  0  0  0  0  0  0  0  0
    4.2281   -0.4886   -2.4772 H   0  0  0  0  0  0  0  0  0  0  0  0
    3.9164   -0.8298   -0.6752 H   0  0  0  0  0  0  0  0  0  0  0  0
    4.4600   -2.1626   -1.8465 H   0  0  0  0  0  0  0  0  0  0  0  0
    2.1101   -2.6543   -1.5768 H   0  0  0  0  0  0  0  0  0  0  0  0
    1.9097   -1.5275   -3.0338 H   0  0  0  0  0  0  0  0  0  0  0  0
    0.3097    2.1773   -0.0235 H   0  0  0  0  0  0  0  0  0  0  0  0
    0.7436    1.2919    1.5176 H   0  0  0  0  0  0  0  0  0  0  0  0
   -1.1577    0.3647   -0.7954 H   0  0  0  0  0  0  0  0  0  0  0  0
   -1.6461   -0.6349    2.2917 H   0  0  0  0  0  0  0  0  0  0  0  0
   -2.0085   -1.4519    0.6469 H   0  0  0  0  0  0  0  0  0  0  0  0
   -3.2421    0.5087   -0.1934 H   0  0  0  0  0  0  0  0  0  0  0  0
   -3.6421    0.8677    2.6075 H   0  0  0  0  0  0  0  0  0  0  0  0
   -2.4391    2.1841    2.3175 H   0  0  0  0  0  0  0  0  0  0  0  0
   -3.9939    2.1215    1.3626 H   0  0  0  0  0  0  0  0  0  0  0  0
  1  2  1  0
  2  3  1  0
  3  4  3  0
  4  5  1  0
  5  6  1  0
  6  7  1  0
  7  8  1  0
  8  9  1  0
  8  6  1  0
  1 10  1  0
  1 11  1  0
  1 12  1  0
  2 13  1  0
  2 14  1  0
  5 15  1  0
  5 16  1  0
  6 17  1  0
  7 18  1  0
  7 19  1  0
  8 20  1  0
  9 21  1  0
  9 22  1  0
  9 23  1  0
M  END
