
     RDKit          3D

 23 23  0  0  0  0  0  0  0  0999 V2000
    4.0961   -0.9227   -0.3396 C   0  0  0  0  0  0  0  0  0  0  0  0
    2.8509   -1.1503   -1.1958 C   0  0  0  0  0  0  0  0  0  0  0  0
    1.7232   -0.3790   -0.6915 C   0  0  0  0  0  0  0  0  0  0  0  0
    0.8195    0.2603   -0.2713 C   0  0  0  0  0  0  0  0  0  0  0  0
   -0.3062    1.0276    0.2519 C   0  0  0  0  0  0  0  0  0  0  0  0
   -1.4726    1.1578   -0.7064 C   0  0  0  0  0  0  0  0  0  0  0  0
   -2.3866    0.8427    0.4600 C   0  0  0  0  0  0  0  0  0  0  0  0
   -3.5167   -0.0992    0.1140 C   0  0  0  0  0  0  0  0  0  0  0  0
   -1.2019    0.1763    1.1286 C   0  0  0  0  0  0  0  0  0  0  0  0
    4.8242   -1.7424   -0.5062 H   0  0  0  0  0  0  0  0  0  0  0  0
    3.8151   -0.9759    0.7324 H   0  0  0  0  0  0  0  0  0  0  0  0
    4.4807    0.0711   -0.6212 H   0  0  0  0  0  0  0  0  0  0  0  0
    3.1086   -0.8713   -2.2545 H   0  0  0  0  0  0  0  0  0  0  0  0
    2.6167   -2.2378   -1.1361 H   0  0  0  0  0  0  0  0  0  0  0  0
   -0.0387    1.9622    0.7757 H   0  0  0  0  0  0  0  0  0  0  0  0
   -1.4276    0.3632   -1.4708 H   0  0  0  0  0  0  0  0  0  0  0  0
   -1.6099    2.1926   -1.1065 H   0  0  0  0  0  0  0  0  0  0  0  0
   -2.7336    1.7749    0.9275 H   0  0  0  0  0  0  0  0  0  0  0  0
   -4.1857    0.3561   -0.6194 H   0  0  0  0  0  0  0  0  0  0  0  0
   -3.0331   -1.0084   -0.3453 H   0  0  0  0  0  0  0  0  0  0  0  0
   -4.0724   -0.3250    1.0228 H   0  0  0  0  0  0  0  0  0  0  0  0
   -1.1839   -0.9043    0.9038 H   0  0  0  0  0  0  0  0  0  0  0  0
   -1.1662    0.4316    2.2080 H   0  0  0  0  0  0  0  0  0  0  0  0
  1  2  1  0
  2  3  1  0
  3  4  3  0
  4  5  1  0
  5  6  1  0
  6  7  1  0
  7  8  1  0
  7  9  1  0
  9  5  1  0
  1 10  1  0
  1 11  1  0
  1 12  1  0
  2 13  1  0
  2 14  1  0
  5 15  1  0
  6 16  1  0
  6 17  1  0
  7 18  1  0
  8 19  1  0
  8 20  1  0
  8 21  1  0
  9 22  1  0
  9 23  1  0
M  END
