
     RDKit          3D

 21 20  0  0  0  0  0  0  0  0999 V2000
    3.5094    0.3650   -0.2235 C   0  0  0  0  0  0  0  0  0  0  0  0
    2.7162   -0.9916   -0.2617 C   0  0  0  0  0  0  0  0  0  0  0  0
    1.3915   -0.6593   -0.3914 C   0  0  0  0  0  0  0  0  0  0  0  0
    0.3155   -0.3702   -0.5035 C   0  0  0  0  0  0  0  0  0  0  0  0
   -1.2336    0.0199   -0.6769 C   0  0  0  0  0  0  0  0  0  0  0  0
   -2.0525   -1.2101   -0.7621 C   0  0  0  0  0  0  0  0  0  0  0  0
   -1.5754    0.8251    0.5075 C   0  0  0  0  0  0  0  0  0  0  0  0
   -2.8009    1.6035    0.4755 C   0  0  0  0  0  0  0  0  0  0  0  0
   -3.1476    2.3968    1.2901 O   0  0  0  0  0  0  0  0  0  0  0  0
    3.2077    0.9312    0.6791 H   0  0  0  0  0  0  0  0  0  0  0  0
    4.5992    0.2375   -0.2911 H   0  0  0  0  0  0  0  0  0  0  0  0
    3.1032    0.8552   -1.1440 H   0  0  0  0  0  0  0  0  0  0  0  0
    3.1585   -1.5998   -1.0268 H   0  0  0  0  0  0  0  0  0  0  0  0
    2.9322   -1.3590    0.8297 H   0  0  0  0  0  0  0  0  0  0  0  0
   -1.3284    0.6319   -1.5599 H   0  0  0  0  0  0  0  0  0  0  0  0
   -1.4736   -2.1545   -0.4714 H   0  0  0  0  0  0  0  0  0  0  0  0
   -2.9533   -1.1894   -0.1218 H   0  0  0  0  0  0  0  0  0  0  0  0
   -2.3900   -1.3754   -1.8206 H   0  0  0  0  0  0  0  0  0  0  0  0
   -1.7149    0.0596    1.4335 H   0  0  0  0  0  0  0  0  0  0  0  0
   -0.7740    1.5431    0.7388 H   0  0  0  0  0  0  0  0  0  0  0  0
   -3.4892    1.4405   -0.3908 H   0  0  0  0  0  0  0  0  0  0  0  0
  1  2  1  0
  2  3  1  0
  3  4  3  0
  4  5  1  0
  5  6  1  0
  5  7  1  0
  7  8  1  0
  8  9  2  0
  1 10  1  0
  1 11  1  0
  1 12  1  0
  2 13  1  0
  2 14  1  0
  5 15  1  0
  6 16  1  0
  6 17  1  0
  6 18  1  0
  7 19  1  0
  7 20  1  0
  8 21  1  0
M  END
