
     RDKit          3D

 17 16  0  0  0  0  0  0  0  0999 V2000
   -2.6787   -1.5608   -1.2009 C   0  0  0  0  0  0  0  0  0  0  0  0
   -2.7056   -0.1522   -0.5442 C   0  0  0  0  0  0  0  0  0  0  0  0
   -1.3305    0.1853   -0.3265 C   0  0  0  0  0  0  0  0  0  0  0  0
   -0.0802    0.5052   -0.1469 C   0  0  0  0  0  0  0  0  0  0  0  0
    1.2091    0.8244    0.0587 C   0  0  0  0  0  0  0  0  0  0  0  0
    1.9074    1.4894   -0.8366 O   0  0  0  0  0  0  0  0  0  0  0  0
    1.9820    0.4870    1.2779 C   0  0  0  0  0  0  0  0  0  0  0  0
    3.4415    0.8368    1.3051 C   0  0  0  0  0  0  0  0  0  0  0  0
    1.4205   -0.0690    2.2292 O   0  0  0  0  0  0  0  0  0  0  0  0
   -2.2131   -2.2890   -0.5491 H   0  0  0  0  0  0  0  0  0  0  0  0
   -2.1519   -1.4413   -2.1970 H   0  0  0  0  0  0  0  0  0  0  0  0
   -3.7297   -1.8374   -1.3849 H   0  0  0  0  0  0  0  0  0  0  0  0
   -3.3035   -0.1008    0.3351 H   0  0  0  0  0  0  0  0  0  0  0  0
   -3.1225    0.4600   -1.4164 H   0  0  0  0  0  0  0  0  0  0  0  0
    3.9506   -0.0515    0.8405 H   0  0  0  0  0  0  0  0  0  0  0  0
    3.8456    0.9812    2.3074 H   0  0  0  0  0  0  0  0  0  0  0  0
    3.5589    1.7326    0.6599 H   0  0  0  0  0  0  0  0  0  0  0  0
  1  2  1  0
  2  3  1  0
  3  4  3  0
  4  5  1  0
  5  6  2  0
  5  7  1  0
  7  8  1  0
  7  9  2  0
  1 10  1  0
  1 11  1  0
  1 12  1  0
  2 13  1  0
  2 14  1  0
  8 15  1  0
  8 16  1  0
  8 17  1  0
M  END
