
     RDKit          3D

 17 17  0  0  0  0  0  0  0  0999 V2000
   -3.0714    0.0725   -0.3294 C   0  0  0  0  0  0  0  0  0  0  0  0
   -2.0116    1.1184   -0.0460 C   0  0  0  0  0  0  0  0  0  0  0  0
   -0.7771    0.4186    0.3672 C   0  0  0  0  0  0  0  0  0  0  0  0
    0.2238   -0.1724    0.7008 C   0  0  0  0  0  0  0  0  0  0  0  0
    1.4237   -0.8539    1.1012 C   0  0  0  0  0  0  0  0  0  0  0  0
    1.4649   -1.4904    2.1854 O   0  0  0  0  0  0  0  0  0  0  0  0
    2.6310   -0.8282    0.2619 C   0  0  0  0  0  0  0  0  0  0  0  0
    2.6058   -0.2602   -1.0510 C   0  0  0  0  0  0  0  0  0  0  0  0
    3.0251    0.6134    0.0745 O   0  0  0  0  0  0  0  0  0  0  0  0
   -3.1766   -0.6094    0.5384 H   0  0  0  0  0  0  0  0  0  0  0  0
   -4.0451    0.6017   -0.4470 H   0  0  0  0  0  0  0  0  0  0  0  0
   -2.8349   -0.4586   -1.2655 H   0  0  0  0  0  0  0  0  0  0  0  0
   -2.3568    1.8324    0.7307 H   0  0  0  0  0  0  0  0  0  0  0  0
   -1.7853    1.6836   -0.9719 H   0  0  0  0  0  0  0  0  0  0  0  0
    3.5223   -1.3611    0.6062 H   0  0  0  0  0  0  0  0  0  0  0  0
    1.6830    0.1018   -1.5436 H   0  0  0  0  0  0  0  0  0  0  0  0
    3.4791   -0.4084   -1.7262 H   0  0  0  0  0  0  0  0  0  0  0  0
  1  2  1  0
  2  3  1  0
  3  4  3  0
  4  5  1  0
  5  6  2  0
  5  7  1  0
  7  8  1  0
  8  9  1  0
  9  7  1  0
  1 10  1  0
  1 11  1  0
  1 12  1  0
  2 13  1  0
  2 14  1  0
  7 15  1  0
  8 16  1  0
  8 17  1  0
M  END
