
     RDKit          3D

 21 20  0  0  0  0  0  0  0  0999 V2000
    3.8767    0.5806   -0.3902 C   0  0  0  0  0  0  0  0  0  0  0  0
    3.2755   -0.5045    0.4522 C   0  0  0  0  0  0  0  0  0  0  0  0
    1.8044   -0.3974    0.5057 C   0  0  0  0  0  0  0  0  0  0  0  0
    0.5958   -0.3014    0.5302 C   0  0  0  0  0  0  0  0  0  0  0  0
   -0.8639   -0.1747    0.5366 C   0  0  0  0  0  0  0  0  0  0  0  0
   -1.3403    0.5375   -0.6451 C   0  0  0  0  0  0  0  0  0  0  0  0
   -0.5675    0.9412   -1.4792 O   0  0  0  0  0  0  0  0  0  0  0  0
   -2.7843    0.7797   -0.8453 C   0  0  0  0  0  0  0  0  0  0  0  0
   -3.5729    0.1868    0.3253 C   0  0  0  0  0  0  0  0  0  0  0  0
    4.2131    1.4639    0.2101 H   0  0  0  0  0  0  0  0  0  0  0  0
    3.1922    0.9359   -1.1766 H   0  0  0  0  0  0  0  0  0  0  0  0
    4.8144    0.1984   -0.8773 H   0  0  0  0  0  0  0  0  0  0  0  0
    3.6218   -0.4174    1.5174 H   0  0  0  0  0  0  0  0  0  0  0  0
    3.6003   -1.5038    0.0892 H   0  0  0  0  0  0  0  0  0  0  0  0
   -1.1249    0.3344    1.4909 H   0  0  0  0  0  0  0  0  0  0  0  0
   -1.3535   -1.1879    0.6133 H   0  0  0  0  0  0  0  0  0  0  0  0
   -2.9563    1.8685   -0.9144 H   0  0  0  0  0  0  0  0  0  0  0  0
   -3.1246    0.2507   -1.7714 H   0  0  0  0  0  0  0  0  0  0  0  0
   -3.1614    0.5777    1.2861 H   0  0  0  0  0  0  0  0  0  0  0  0
   -4.6312    0.4688    0.2785 H   0  0  0  0  0  0  0  0  0  0  0  0
   -3.5133   -0.9061    0.2639 H   0  0  0  0  0  0  0  0  0  0  0  0
  1  2  1  0
  2  3  1  0
  3  4  3  0
  4  5  1  0
  5  6  1  0
  6  7  2  0
  6  8  1  0
  8  9  1  0
  1 10  1  0
  1 11  1  0
  1 12  1  0
  2 13  1  0
  2 14  1  0
  5 15  1  0
  5 16  1  0
  8 17  1  0
  8 18  1  0
  9 19  1  0
  9 20  1  0
  9 21  1  0
M  END
