
     RDKit          3D

 19 19  0  0  0  0  0  0  0  0999 V2000
    3.0749    0.9222    0.0760 C   0  0  0  0  0  0  0  0  0  0  0  0
    2.4889   -0.3835   -0.4151 C   0  0  0  0  0  0  0  0  0  0  0  0
    1.0428   -0.3805   -0.1894 C   0  0  0  0  0  0  0  0  0  0  0  0
   -0.1458   -0.3962   -0.0146 C   0  0  0  0  0  0  0  0  0  0  0  0
   -1.5822   -0.4225    0.1948 C   0  0  0  0  0  0  0  0  0  0  0  0
   -1.9883   -0.7441    1.4818 O   0  0  0  0  0  0  0  0  0  0  0  0
   -2.4125   -0.9841   -0.9131 C   0  0  0  0  0  0  0  0  0  0  0  0
   -3.3473    0.0458   -0.6668 O   0  0  0  0  0  0  0  0  0  0  0  0
   -2.2611    0.8375   -0.2909 C   0  0  0  0  0  0  0  0  0  0  0  0
    3.9720    1.1484   -0.5520 H   0  0  0  0  0  0  0  0  0  0  0  0
    3.4280    0.8644    1.1220 H   0  0  0  0  0  0  0  0  0  0  0  0
    2.3455    1.7513   -0.0202 H   0  0  0  0  0  0  0  0  0  0  0  0
    2.7553   -0.6013   -1.4716 H   0  0  0  0  0  0  0  0  0  0  0  0
    2.9707   -1.2166    0.1770 H   0  0  0  0  0  0  0  0  0  0  0  0
   -1.2407   -0.4646    2.0976 H   0  0  0  0  0  0  0  0  0  0  0  0
   -1.9030   -0.8173   -1.8911 H   0  0  0  0  0  0  0  0  0  0  0  0
   -2.8089   -1.9922   -0.7410 H   0  0  0  0  0  0  0  0  0  0  0  0
   -2.5729    1.5455    0.4847 H   0  0  0  0  0  0  0  0  0  0  0  0
   -1.8155    1.2878   -1.2015 H   0  0  0  0  0  0  0  0  0  0  0  0
  1  2  1  0
  2  3  1  0
  3  4  3  0
  4  5  1  0
  5  6  1  0
  5  7  1  0
  7  8  1  0
  8  9  1  0
  9  5  1  0
  1 10  1  0
  1 11  1  0
  1 12  1  0
  2 13  1  0
  2 14  1  0
  6 15  1  0
  7 16  1  0
  7 17  1  0
  9 18  1  0
  9 19  1  0
M  END
