
     RDKit          3D

 23 22  0  0  0  0  0  0  0  0999 V2000
    3.3200    0.3726    0.5425 C   0  0  0  0  0  0  0  0  0  0  0  0
    2.8675   -0.8608   -0.2154 C   0  0  0  0  0  0  0  0  0  0  0  0
    1.4034   -0.9750   -0.1185 C   0  0  0  0  0  0  0  0  0  0  0  0
    0.2015   -1.0898   -0.0394 C   0  0  0  0  0  0  0  0  0  0  0  0
   -1.2432   -1.2039    0.0589 C   0  0  0  0  0  0  0  0  0  0  0  0
   -1.8754    0.1594   -0.0155 C   0  0  0  0  0  0  0  0  0  0  0  0
   -1.5834    0.8881   -1.2799 C   0  0  0  0  0  0  0  0  0  0  0  0
   -1.3869    0.9581    1.1826 C   0  0  0  0  0  0  0  0  0  0  0  0
   -3.2584   -0.0221    0.0804 O   0  0  0  0  0  0  0  0  0  0  0  0
    3.3255    0.1594    1.6178 H   0  0  0  0  0  0  0  0  0  0  0  0
    2.5317    1.1478    0.3553 H   0  0  0  0  0  0  0  0  0  0  0  0
    4.2696    0.7824    0.1529 H   0  0  0  0  0  0  0  0  0  0  0  0
    3.3755   -1.7256    0.2499 H   0  0  0  0  0  0  0  0  0  0  0  0
    3.1325   -0.8239   -1.2765 H   0  0  0  0  0  0  0  0  0  0  0  0
   -1.5855   -1.7352    0.9703 H   0  0  0  0  0  0  0  0  0  0  0  0
   -1.5696   -1.8492   -0.7976 H   0  0  0  0  0  0  0  0  0  0  0  0
   -1.4799    0.1710   -2.1333 H   0  0  0  0  0  0  0  0  0  0  0  0
   -0.7216    1.5819   -1.2036 H   0  0  0  0  0  0  0  0  0  0  0  0
   -2.4635    1.5221   -1.5245 H   0  0  0  0  0  0  0  0  0  0  0  0
   -0.8013    0.3353    1.8904 H   0  0  0  0  0  0  0  0  0  0  0  0
   -0.7013    1.7800    0.8659 H   0  0  0  0  0  0  0  0  0  0  0  0
   -2.2478    1.3905    1.7475 H   0  0  0  0  0  0  0  0  0  0  0  0
   -3.5094   -0.9632   -0.1294 H   0  0  0  0  0  0  0  0  0  0  0  0
  1  2  1  0
  2  3  1  0
  3  4  3  0
  4  5  1  0
  5  6  1  0
  6  7  1  0
  6  8  1  0
  6  9  1  0
  1 10  1  0
  1 11  1  0
  1 12  1  0
  2 13  1  0
  2 14  1  0
  5 15  1  0
  5 16  1  0
  7 17  1  0
  7 18  1  0
  7 19  1  0
  8 20  1  0
  8 21  1  0
  8 22  1  0
  9 23  1  0
M  END
