
     RDKit          3D

 21 20  0  0  0  0  0  0  0  0999 V2000
    3.0142    0.3549   -0.1598 C   0  0  0  0  0  0  0  0  0  0  0  0
    1.5340    0.5432   -0.4720 C   0  0  0  0  0  0  0  0  0  0  0  0
    0.7894   -0.4743    0.3468 C   0  0  0  0  0  0  0  0  0  0  0  0
    1.0403   -0.2586    1.6894 O   0  0  0  0  0  0  0  0  0  0  0  0
   -0.6640   -0.5577   -0.0016 C   0  0  0  0  0  0  0  0  0  0  0  0
   -1.4141    0.6966    0.1903 C   0  0  0  0  0  0  0  0  0  0  0  0
   -0.8784    1.6983    0.6059 O   0  0  0  0  0  0  0  0  0  0  0  0
   -2.8545    0.7536   -0.1261 C   0  0  0  0  0  0  0  0  0  0  0  0
   -3.2623   -0.4782   -0.5787 O   0  0  0  0  0  0  0  0  0  0  0  0
    3.1290    0.3772    0.9401 H   0  0  0  0  0  0  0  0  0  0  0  0
    3.3891   -0.5917   -0.5539 H   0  0  0  0  0  0  0  0  0  0  0  0
    3.5972    1.1699   -0.6139 H   0  0  0  0  0  0  0  0  0  0  0  0
    1.3642    0.3421   -1.5585 H   0  0  0  0  0  0  0  0  0  0  0  0
    1.2608    1.5842   -0.2923 H   0  0  0  0  0  0  0  0  0  0  0  0
    1.2390   -1.4715    0.0723 H   0  0  0  0  0  0  0  0  0  0  0  0
    1.2967    0.6856    1.8958 H   0  0  0  0  0  0  0  0  0  0  0  0
   -1.1858   -1.3636    0.5663 H   0  0  0  0  0  0  0  0  0  0  0  0
   -0.7039   -0.9113   -1.0724 H   0  0  0  0  0  0  0  0  0  0  0  0
   -3.4184    1.1108    0.7571 H   0  0  0  0  0  0  0  0  0  0  0  0
   -3.0506    1.4798   -0.9708 H   0  0  0  0  0  0  0  0  0  0  0  0
   -4.2218   -0.6017   -0.6642 H   0  0  0  0  0  0  0  0  0  0  0  0
  1  2  1  0
  2  3  1  0
  3  4  1  0
  3  5  1  0
  5  6  1  0
  6  7  2  0
  6  8  1  0
  8  9  1  0
  1 10  1  0
  1 11  1  0
  1 12  1  0
  2 13  1  0
  2 14  1  0
  3 15  1  0
  4 16  1  0
  5 17  1  0
  5 18  1  0
  8 19  1  0
  8 20  1  0
  9 21  1  0
M  END
