
     RDKit          3D

 21 20  0  0  0  0  0  0  0  0999 V2000
    2.9440   -0.4219    0.1082 C   0  0  0  0  0  0  0  0  0  0  0  0
    1.5541   -0.6431   -0.3962 C   0  0  0  0  0  0  0  0  0  0  0  0
    0.4952   -0.0404    0.5178 C   0  0  0  0  0  0  0  0  0  0  0  0
    0.7165    1.4228    0.6239 C   0  0  0  0  0  0  0  0  0  0  0  0
    1.5341    1.9063    1.3763 O   0  0  0  0  0  0  0  0  0  0  0  0
   -0.8219   -0.3028   -0.1835 C   0  0  0  0  0  0  0  0  0  0  0  0
   -1.9843    0.2066    0.5434 C   0  0  0  0  0  0  0  0  0  0  0  0
   -3.3204    0.0029   -0.0542 C   0  0  0  0  0  0  0  0  0  0  0  0
   -1.8616    0.7767    1.5997 O   0  0  0  0  0  0  0  0  0  0  0  0
    3.5111    0.2790   -0.5402 H   0  0  0  0  0  0  0  0  0  0  0  0
    2.9554   -0.1248    1.1659 H   0  0  0  0  0  0  0  0  0  0  0  0
    3.4795   -1.4123    0.0211 H   0  0  0  0  0  0  0  0  0  0  0  0
    1.3027   -1.7060   -0.5060 H   0  0  0  0  0  0  0  0  0  0  0  0
    1.4162   -0.1347   -1.3846 H   0  0  0  0  0  0  0  0  0  0  0  0
    0.5350   -0.4525    1.5354 H   0  0  0  0  0  0  0  0  0  0  0  0
    0.1311    2.0901    0.0111 H   0  0  0  0  0  0  0  0  0  0  0  0
   -0.9663   -1.3862   -0.3646 H   0  0  0  0  0  0  0  0  0  0  0  0
   -0.7331    0.1778   -1.1899 H   0  0  0  0  0  0  0  0  0  0  0  0
   -3.3928    0.6696   -0.9346 H   0  0  0  0  0  0  0  0  0  0  0  0
   -3.3433   -1.0437   -0.4786 H   0  0  0  0  0  0  0  0  0  0  0  0
   -4.1511    0.1366    0.6635 H   0  0  0  0  0  0  0  0  0  0  0  0
  1  2  1  0
  2  3  1  0
  3  4  1  0
  4  5  2  0
  3  6  1  0
  6  7  1  0
  7  8  1  0
  7  9  2  0
  1 10  1  0
  1 11  1  0
  1 12  1  0
  2 13  1  0
  2 14  1  0
  3 15  1  0
  4 16  1  0
  6 17  1  0
  6 18  1  0
  8 19  1  0
  8 20  1  0
  8 21  1  0
M  END
