
     RDKit          3D

 25 25  0  0  0  0  0  0  0  0999 V2000
   -2.0725    1.2705    0.0459 C   0  0  0  0  0  0  0  0  0  0  0  0
   -1.1747    0.4256    0.8936 C   0  0  0  0  0  0  0  0  0  0  0  0
   -0.2421   -0.4586    0.1208 C   0  0  0  0  0  0  0  0  0  0  0  0
   -0.9502   -1.4379   -0.7763 C   0  0  0  0  0  0  0  0  0  0  0  0
    0.5548   -1.2632    1.1296 C   0  0  0  0  0  0  0  0  0  0  0  0
    0.6662    0.3953   -0.6970 C   0  0  0  0  0  0  0  0  0  0  0  0
    1.4857    1.3225    0.1481 C   0  0  0  0  0  0  0  0  0  0  0  0
    2.6892    0.7864   -0.3543 O   0  0  0  0  0  0  0  0  0  0  0  0
    1.9801   -0.1609   -1.0985 C   0  0  0  0  0  0  0  0  0  0  0  0
   -1.4867    1.8942   -0.6380 H   0  0  0  0  0  0  0  0  0  0  0  0
   -2.6043    1.9645    0.7352 H   0  0  0  0  0  0  0  0  0  0  0  0
   -2.8626    0.6900   -0.4690 H   0  0  0  0  0  0  0  0  0  0  0  0
   -1.7699   -0.1976    1.5978 H   0  0  0  0  0  0  0  0  0  0  0  0
   -0.5501    1.0980    1.5134 H   0  0  0  0  0  0  0  0  0  0  0  0
   -1.9528   -1.1288   -1.0685 H   0  0  0  0  0  0  0  0  0  0  0  0
   -0.3686   -1.5963   -1.7129 H   0  0  0  0  0  0  0  0  0  0  0  0
   -1.0205   -2.4487   -0.2891 H   0  0  0  0  0  0  0  0  0  0  0  0
    0.2400   -1.0608    2.1762 H   0  0  0  0  0  0  0  0  0  0  0  0
    0.4244   -2.3620    0.9877 H   0  0  0  0  0  0  0  0  0  0  0  0
    1.6442   -1.0099    1.0950 H   0  0  0  0  0  0  0  0  0  0  0  0
    0.1030    0.9361   -1.4841 H   0  0  0  0  0  0  0  0  0  0  0  0
    1.3594    2.4026   -0.0688 H   0  0  0  0  0  0  0  0  0  0  0  0
    1.4730    1.1037    1.2539 H   0  0  0  0  0  0  0  0  0  0  0  0
    2.2129    0.0248   -2.1876 H   0  0  0  0  0  0  0  0  0  0  0  0
    2.2221   -1.1894   -0.8532 H   0  0  0  0  0  0  0  0  0  0  0  0
  1  2  1  0
  2  3  1  0
  3  4  1  0
  3  5  1  0
  3  6  1  0
  6  7  1  0
  7  8  1  0
  8  9  1  0
  9  6  1  0
  1 10  1  0
  1 11  1  0
  1 12  1  0
  2 13  1  0
  2 14  1  0
  4 15  1  0
  4 16  1  0
  4 17  1  0
  5 18  1  0
  5 19  1  0
  5 20  1  0
  6 21  1  0
  7 22  1  0
  7 23  1  0
  9 24  1  0
  9 25  1  0
M  END
