
     RDKit          3D

 23 23  0  0  0  0  0  0  0  0999 V2000
    3.2662   -0.1606    0.0333 C   0  0  0  0  0  0  0  0  0  0  0  0
    1.8778   -0.3516    0.5578 C   0  0  0  0  0  0  0  0  0  0  0  0
    0.8255   -0.2655   -0.5545 C   0  0  0  0  0  0  0  0  0  0  0  0
    0.9363    1.0010   -1.1243 O   0  0  0  0  0  0  0  0  0  0  0  0
   -0.5137   -0.3815    0.1257 C   0  0  0  0  0  0  0  0  0  0  0  0
   -1.6558   -0.0375   -0.8336 C   0  0  0  0  0  0  0  0  0  0  0  0
   -2.7899    0.0709    0.1911 C   0  0  0  0  0  0  0  0  0  0  0  0
   -2.0460    0.5041    1.4190 C   0  0  0  0  0  0  0  0  0  0  0  0
   -0.7036    0.5408    1.1223 O   0  0  0  0  0  0  0  0  0  0  0  0
    3.9771   -0.5259    0.7923 H   0  0  0  0  0  0  0  0  0  0  0  0
    3.4022   -0.7489   -0.8798 H   0  0  0  0  0  0  0  0  0  0  0  0
    3.4248    0.9269   -0.1190 H   0  0  0  0  0  0  0  0  0  0  0  0
    1.7763   -1.3775    0.9805 H   0  0  0  0  0  0  0  0  0  0  0  0
    1.5984    0.3750    1.3431 H   0  0  0  0  0  0  0  0  0  0  0  0
    0.9668   -1.0794   -1.2863 H   0  0  0  0  0  0  0  0  0  0  0  0
    1.0733    1.6405   -0.3730 H   0  0  0  0  0  0  0  0  0  0  0  0
   -0.7099   -1.4006    0.4973 H   0  0  0  0  0  0  0  0  0  0  0  0
   -1.5241    0.9644   -1.2697 H   0  0  0  0  0  0  0  0  0  0  0  0
   -1.8289   -0.8309   -1.5632 H   0  0  0  0  0  0  0  0  0  0  0  0
   -3.5817    0.7433   -0.1289 H   0  0  0  0  0  0  0  0  0  0  0  0
   -3.1489   -0.9817    0.3768 H   0  0  0  0  0  0  0  0  0  0  0  0
   -2.2442   -0.1558    2.2926 H   0  0  0  0  0  0  0  0  0  0  0  0
   -2.3780    1.5301    1.7018 H   0  0  0  0  0  0  0  0  0  0  0  0
  1  2  1  0
  2  3  1  0
  3  4  1  0
  3  5  1  0
  5  6  1  0
  6  7  1  0
  7  8  1  0
  8  9  1  0
  9  5  1  0
  1 10  1  0
  1 11  1  0
  1 12  1  0
  2 13  1  0
  2 14  1  0
  3 15  1  0
  4 16  1  0
  5 17  1  0
  6 18  1  0
  6 19  1  0
  7 20  1  0
  7 21  1  0
  8 22  1  0
  8 23  1  0
M  END
