
     RDKit          3D

 17 17  0  0  0  0  0  0  0  0999 V2000
   -2.3162   -0.5793    0.2498 C   0  0  0  0  0  0  0  0  0  0  0  0
   -2.2386    0.7104    1.0733 C   0  0  0  0  0  0  0  0  0  0  0  0
   -0.9153    0.8364    1.6196 C   0  0  0  0  0  0  0  0  0  0  0  0
   -0.2641    1.1233    2.5847 O   0  0  0  0  0  0  0  0  0  0  0  0
    0.1250    0.4248    0.5038 C   0  0  0  0  0  0  0  0  0  0  0  0
    0.9118    0.1174   -0.3270 C   0  0  0  0  0  0  0  0  0  0  0  0
    1.9054   -0.2989   -1.3838 C   0  0  0  0  0  0  0  0  0  0  0  0
    3.2363   -0.5333   -0.9651 C   0  0  0  0  0  0  0  0  0  0  0  0
    2.9213    0.7458   -1.6477 O   0  0  0  0  0  0  0  0  0  0  0  0
   -1.4591   -0.5581   -0.4862 H   0  0  0  0  0  0  0  0  0  0  0  0
   -2.2759   -1.4502    0.8878 H   0  0  0  0  0  0  0  0  0  0  0  0
   -3.2482   -0.5165   -0.3452 H   0  0  0  0  0  0  0  0  0  0  0  0
   -3.0639    0.7284    1.8264 H   0  0  0  0  0  0  0  0  0  0  0  0
   -2.4002    1.5481    0.3279 H   0  0  0  0  0  0  0  0  0  0  0  0
    1.4873   -0.7851   -2.2806 H   0  0  0  0  0  0  0  0  0  0  0  0
    3.6530   -0.4338    0.0273 H   0  0  0  0  0  0  0  0  0  0  0  0
    3.9411   -1.0793   -1.6650 H   0  0  0  0  0  0  0  0  0  0  0  0
  1  2  1  0
  2  3  1  0
  3  4  2  0
  3  5  1  0
  5  6  3  0
  6  7  1  0
  7  8  1  0
  8  9  1  0
  9  7  1  0
  1 10  1  0
  1 11  1  0
  1 12  1  0
  2 13  1  0
  2 14  1  0
  7 15  1  0
  8 16  1  0
  8 17  1  0
M  END
