
     RDKit          3D

 23 22  0  0  0  0  0  0  0  0999 V2000
   -1.8924    1.9796   -0.4722 C   0  0  0  0  0  0  0  0  0  0  0  0
   -1.7452    0.5529   -0.0370 C   0  0  0  0  0  0  0  0  0  0  0  0
   -0.3871    0.2518    0.5530 C   0  0  0  0  0  0  0  0  0  0  0  0
   -0.4276   -1.2367    0.9324 C   0  0  0  0  0  0  0  0  0  0  0  0
   -0.6679   -1.9959   -0.2032 O   0  0  0  0  0  0  0  0  0  0  0  0
    0.7037    0.4677   -0.4911 C   0  0  0  0  0  0  0  0  0  0  0  0
    2.0421    0.1896    0.0289 C   0  0  0  0  0  0  0  0  0  0  0  0
    2.7401   -1.1207   -0.2117 C   0  0  0  0  0  0  0  0  0  0  0  0
    2.6400    1.0457    0.6924 O   0  0  0  0  0  0  0  0  0  0  0  0
   -1.7190    2.6226    0.3995 H   0  0  0  0  0  0  0  0  0  0  0  0
   -1.2181    2.1591   -1.3102 H   0  0  0  0  0  0  0  0  0  0  0  0
   -2.9320    2.0822   -0.8756 H   0  0  0  0  0  0  0  0  0  0  0  0
   -2.5447    0.2671    0.6792 H   0  0  0  0  0  0  0  0  0  0  0  0
   -1.8615   -0.1542   -0.9023 H   0  0  0  0  0  0  0  0  0  0  0  0
   -0.1956    0.8166    1.4687 H   0  0  0  0  0  0  0  0  0  0  0  0
    0.4677   -1.5327    1.4859 H   0  0  0  0  0  0  0  0  0  0  0  0
   -1.2984   -1.3796    1.6026 H   0  0  0  0  0  0  0  0  0  0  0  0
   -1.6138   -2.1479   -0.3937 H   0  0  0  0  0  0  0  0  0  0  0  0
    0.4397   -0.0658   -1.4250 H   0  0  0  0  0  0  0  0  0  0  0  0
    0.6718    1.5619   -0.7590 H   0  0  0  0  0  0  0  0  0  0  0  0
    3.7828   -0.9787   -0.5174 H   0  0  0  0  0  0  0  0  0  0  0  0
    2.2385   -1.7018   -1.0078 H   0  0  0  0  0  0  0  0  0  0  0  0
    2.7768   -1.6826    0.7635 H   0  0  0  0  0  0  0  0  0  0  0  0
  1  2  1  0
  2  3  1  0
  3  4  1  0
  4  5  1  0
  3  6  1  0
  6  7  1  0
  7  8  1  0
  7  9  2  0
  1 10  1  0
  1 11  1  0
  1 12  1  0
  2 13  1  0
  2 14  1  0
  3 15  1  0
  4 16  1  0
  4 17  1  0
  5 18  1  0
  6 19  1  0
  6 20  1  0
  8 21  1  0
  8 22  1  0
  8 23  1  0
M  END
