
     RDKit          3D

 23 22  0  0  0  0  0  0  0  0999 V2000
   -2.8385   -0.0423   -0.5682 C   0  0  0  0  0  0  0  0  0  0  0  0
   -2.1314   -1.3779   -0.4757 C   0  0  0  0  0  0  0  0  0  0  0  0
   -1.1622   -1.3522    0.6810 C   0  0  0  0  0  0  0  0  0  0  0  0
   -0.4095   -2.6155    0.8673 C   0  0  0  0  0  0  0  0  0  0  0  0
   -0.2142   -0.2635    0.4836 C   0  0  0  0  0  0  0  0  0  0  0  0
    0.5733    0.6488    0.2980 C   0  0  0  0  0  0  0  0  0  0  0  0
    1.5294    1.7190    0.0817 C   0  0  0  0  0  0  0  0  0  0  0  0
    2.6269    1.3088   -0.6719 O   0  0  0  0  0  0  0  0  0  0  0  0
    3.5092    2.3463   -0.8562 C   0  0  0  0  0  0  0  0  0  0  0  0
   -2.7431    0.4580    0.4172 H   0  0  0  0  0  0  0  0  0  0  0  0
   -3.9208   -0.1903   -0.8251 H   0  0  0  0  0  0  0  0  0  0  0  0
   -2.3532    0.6304   -1.3078 H   0  0  0  0  0  0  0  0  0  0  0  0
   -1.5331   -1.4672   -1.4305 H   0  0  0  0  0  0  0  0  0  0  0  0
   -2.8112   -2.2340   -0.4543 H   0  0  0  0  0  0  0  0  0  0  0  0
   -1.7436   -1.1515    1.6058 H   0  0  0  0  0  0  0  0  0  0  0  0
    0.1151   -2.9697   -0.0388 H   0  0  0  0  0  0  0  0  0  0  0  0
   -1.0256   -3.4647    1.2331 H   0  0  0  0  0  0  0  0  0  0  0  0
    0.3751   -2.4426    1.6331 H   0  0  0  0  0  0  0  0  0  0  0  0
    1.0070    2.5812   -0.3668 H   0  0  0  0  0  0  0  0  0  0  0  0
    1.9275    2.0039    1.0858 H   0  0  0  0  0  0  0  0  0  0  0  0
    2.9766    3.1619   -1.3910 H   0  0  0  0  0  0  0  0  0  0  0  0
    4.3561    2.0349   -1.4839 H   0  0  0  0  0  0  0  0  0  0  0  0
    3.8899    2.6781    0.1339 H   0  0  0  0  0  0  0  0  0  0  0  0
  1  2  1  0
  2  3  1  0
  3  4  1  0
  3  5  1  0
  5  6  3  0
  6  7  1  0
  7  8  1  0
  8  9  1  0
  1 10  1  0
  1 11  1  0
  1 12  1  0
  2 13  1  0
  2 14  1  0
  3 15  1  0
  4 16  1  0
  4 17  1  0
  4 18  1  0
  7 19  1  0
  7 20  1  0
  9 21  1  0
  9 22  1  0
  9 23  1  0
M  END
