
     RDKit          3D

 25 25  0  0  0  0  0  0  0  0999 V2000
   -1.7115    1.4559   -1.1659 C   0  0  0  0  0  0  0  0  0  0  0  0
   -0.4275    1.2589   -0.4555 C   0  0  0  0  0  0  0  0  0  0  0  0
    0.0021   -0.1334   -0.1879 C   0  0  0  0  0  0  0  0  0  0  0  0
   -0.8925   -0.9687    0.6463 C   0  0  0  0  0  0  0  0  0  0  0  0
   -2.2722   -1.1973    0.1283 C   0  0  0  0  0  0  0  0  0  0  0  0
    1.3532   -0.0373    0.5404 C   0  0  0  0  0  0  0  0  0  0  0  0
    1.3333    0.6545    1.7555 O   0  0  0  0  0  0  0  0  0  0  0  0
    2.5538    0.2688   -0.3287 C   0  0  0  0  0  0  0  0  0  0  0  0
    2.3772   -1.0773    0.3256 C   0  0  0  0  0  0  0  0  0  0  0  0
   -2.4848    1.8772   -0.4585 H   0  0  0  0  0  0  0  0  0  0  0  0
   -2.0834    0.6172   -1.7631 H   0  0  0  0  0  0  0  0  0  0  0  0
   -1.5419    2.3320   -1.8707 H   0  0  0  0  0  0  0  0  0  0  0  0
    0.4406    1.7711   -0.9604 H   0  0  0  0  0  0  0  0  0  0  0  0
   -0.4855    1.7805    0.5457 H   0  0  0  0  0  0  0  0  0  0  0  0
    0.2066   -0.6812   -1.1525 H   0  0  0  0  0  0  0  0  0  0  0  0
   -0.4443   -1.9853    0.8397 H   0  0  0  0  0  0  0  0  0  0  0  0
   -1.0105   -0.4353    1.6337 H   0  0  0  0  0  0  0  0  0  0  0  0
   -2.7160   -2.0303    0.7410 H   0  0  0  0  0  0  0  0  0  0  0  0
   -2.3063   -1.5901   -0.9093 H   0  0  0  0  0  0  0  0  0  0  0  0
   -2.9327   -0.3454    0.2553 H   0  0  0  0  0  0  0  0  0  0  0  0
    2.0658    0.4123    2.3440 H   0  0  0  0  0  0  0  0  0  0  0  0
    2.3682    0.2941   -1.4141 H   0  0  0  0  0  0  0  0  0  0  0  0
    3.3317    0.9553    0.0625 H   0  0  0  0  0  0  0  0  0  0  0  0
    2.2137   -1.9412   -0.3352 H   0  0  0  0  0  0  0  0  0  0  0  0
    3.0627   -1.2551    1.1840 H   0  0  0  0  0  0  0  0  0  0  0  0
  1  2  1  0
  2  3  1  0
  3  4  1  0
  4  5  1  0
  3  6  1  0
  6  7  1  0
  6  8  1  0
  8  9  1  0
  9  6  1  0
  1 10  1  0
  1 11  1  0
  1 12  1  0
  2 13  1  0
  2 14  1  0
  3 15  1  0
  4 16  1  0
  4 17  1  0
  5 18  1  0
  5 19  1  0
  5 20  1  0
  7 21  1  0
  8 22  1  0
  8 23  1  0
  9 24  1  0
  9 25  1  0
M  END
