
     RDKit          3D

 22 21  0  0  0  0  0  0  0  0999 V2000
   -2.6173   -0.5507    0.5601 C   0  0  0  0  0  0  0  0  0  0  0  0
   -1.2980    0.2205    0.6539 C   0  0  0  0  0  0  0  0  0  0  0  0
   -0.6045    0.0395   -0.6726 C   0  0  0  0  0  0  0  0  0  0  0  0
   -0.3924   -1.3184   -0.8615 O   0  0  0  0  0  0  0  0  0  0  0  0
    0.6611    0.8543   -0.7719 C   0  0  0  0  0  0  0  0  0  0  0  0
    0.3122    2.1872   -0.5650 O   0  0  0  0  0  0  0  0  0  0  0  0
    1.6716    0.4784    0.2722 C   0  0  0  0  0  0  0  0  0  0  0  0
    2.1091   -0.9546    0.2008 C   0  0  0  0  0  0  0  0  0  0  0  0
   -2.3981   -1.6363    0.7154 H   0  0  0  0  0  0  0  0  0  0  0  0
   -2.9807   -0.3818   -0.4792 H   0  0  0  0  0  0  0  0  0  0  0  0
   -3.3286   -0.1670    1.3084 H   0  0  0  0  0  0  0  0  0  0  0  0
   -1.5360    1.2851    0.8716 H   0  0  0  0  0  0  0  0  0  0  0  0
   -0.7362   -0.2469    1.4878 H   0  0  0  0  0  0  0  0  0  0  0  0
   -1.3046    0.4598   -1.4502 H   0  0  0  0  0  0  0  0  0  0  0  0
   -0.2913   -1.5420   -1.8252 H   0  0  0  0  0  0  0  0  0  0  0  0
    1.0420    0.7829   -1.8077 H   0  0  0  0  0  0  0  0  0  0  0  0
    1.1268    2.6652   -0.2346 H   0  0  0  0  0  0  0  0  0  0  0  0
    1.2343    0.7491    1.2621 H   0  0  0  0  0  0  0  0  0  0  0  0
    2.5758    1.1057    0.0891 H   0  0  0  0  0  0  0  0  0  0  0  0
    1.6089   -1.5464    1.0110 H   0  0  0  0  0  0  0  0  0  0  0  0
    3.2054   -1.0507    0.4226 H   0  0  0  0  0  0  0  0  0  0  0  0
    1.9404   -1.4329   -0.7644 H   0  0  0  0  0  0  0  0  0  0  0  0
  1  2  1  0
  2  3  1  0
  3  4  1  0
  3  5  1  0
  5  6  1  0
  5  7  1  0
  7  8  1  0
  1  9  1  0
  1 10  1  0
  1 11  1  0
  2 12  1  0
  2 13  1  0
  3 14  1  0
  4 15  1  0
  5 16  1  0
  6 17  1  0
  7 18  1  0
  7 19  1  0
  8 20  1  0
  8 21  1  0
  8 22  1  0
M  END
