
     RDKit          3D

 21 20  0  0  0  0  0  0  0  0999 V2000
   -1.9930    0.7016   -1.1568 C   0  0  0  0  0  0  0  0  0  0  0  0
   -1.5131    0.0239    0.0878 C   0  0  0  0  0  0  0  0  0  0  0  0
   -0.1347   -0.5402   -0.0165 C   0  0  0  0  0  0  0  0  0  0  0  0
    0.1955   -1.1884    1.3242 C   0  0  0  0  0  0  0  0  0  0  0  0
    0.9206    0.5046   -0.2702 C   0  0  0  0  0  0  0  0  0  0  0  0
    2.2902   -0.1323   -0.3649 C   0  0  0  0  0  0  0  0  0  0  0  0
    0.9811    1.4109    0.8017 O   0  0  0  0  0  0  0  0  0  0  0  0
   -1.2817    0.6392   -2.0006 H   0  0  0  0  0  0  0  0  0  0  0  0
   -2.9441    0.2594   -1.5187 H   0  0  0  0  0  0  0  0  0  0  0  0
   -2.2131    1.7686   -0.9461 H   0  0  0  0  0  0  0  0  0  0  0  0
   -2.1992   -0.8367    0.3042 H   0  0  0  0  0  0  0  0  0  0  0  0
   -1.6255    0.7074    0.9539 H   0  0  0  0  0  0  0  0  0  0  0  0
   -0.0839   -1.2794   -0.8348 H   0  0  0  0  0  0  0  0  0  0  0  0
   -0.1579   -2.2220    1.2698 H   0  0  0  0  0  0  0  0  0  0  0  0
    1.2849   -1.0905    1.5283 H   0  0  0  0  0  0  0  0  0  0  0  0
   -0.3797   -0.6514    2.1312 H   0  0  0  0  0  0  0  0  0  0  0  0
    0.7567    1.0677   -1.2100 H   0  0  0  0  0  0  0  0  0  0  0  0
    2.9283    0.3554   -1.1442 H   0  0  0  0  0  0  0  0  0  0  0  0
    2.2039   -1.2323   -0.5707 H   0  0  0  0  0  0  0  0  0  0  0  0
    2.8546   -0.0429    0.5891 H   0  0  0  0  0  0  0  0  0  0  0  0
    0.1101    1.7775    1.0430 H   0  0  0  0  0  0  0  0  0  0  0  0
  1  2  1  0
  2  3  1  0
  3  4  1  0
  3  5  1  0
  5  6  1  0
  5  7  1  0
  1  8  1  0
  1  9  1  0
  1 10  1  0
  2 11  1  0
  2 12  1  0
  3 13  1  0
  4 14  1  0
  4 15  1  0
  4 16  1  0
  5 17  1  0
  6 18  1  0
  6 19  1  0
  6 20  1  0
  7 21  1  0
M  END
