
     RDKit          3D

 25 25  0  0  0  0  0  0  0  0999 V2000
    2.0285    0.9692    1.1475 C   0  0  0  0  0  0  0  0  0  0  0  0
    1.9318   -0.1077    0.1117 C   0  0  0  0  0  0  0  0  0  0  0  0
    0.6613   -0.0561   -0.6945 C   0  0  0  0  0  0  0  0  0  0  0  0
    0.7392   -1.2211   -1.6925 C   0  0  0  0  0  0  0  0  0  0  0  0
   -0.5682   -0.3046    0.1258 C   0  0  0  0  0  0  0  0  0  0  0  0
   -0.5097   -1.5633    0.7172 O   0  0  0  0  0  0  0  0  0  0  0  0
   -1.8048   -0.1851   -0.7472 C   0  0  0  0  0  0  0  0  0  0  0  0
   -2.3992    0.7897    0.2547 C   0  0  0  0  0  0  0  0  0  0  0  0
   -1.0645    0.8068    0.9729 C   0  0  0  0  0  0  0  0  0  0  0  0
    1.8067    1.9774    0.7385 H   0  0  0  0  0  0  0  0  0  0  0  0
    1.3938    0.7021    2.0161 H   0  0  0  0  0  0  0  0  0  0  0  0
    3.1130    1.0202    1.4573 H   0  0  0  0  0  0  0  0  0  0  0  0
    1.9890   -1.0907    0.6238 H   0  0  0  0  0  0  0  0  0  0  0  0
    2.7800   -0.0039   -0.5802 H   0  0  0  0  0  0  0  0  0  0  0  0
    0.6250    0.8844   -1.2684 H   0  0  0  0  0  0  0  0  0  0  0  0
   -0.2300   -1.3619   -2.2140 H   0  0  0  0  0  0  0  0  0  0  0  0
    0.9074   -2.1338   -1.0594 H   0  0  0  0  0  0  0  0  0  0  0  0
    1.6006   -1.1378   -2.3574 H   0  0  0  0  0  0  0  0  0  0  0  0
   -1.2718   -1.6458    1.3217 H   0  0  0  0  0  0  0  0  0  0  0  0
   -1.6320    0.3364   -1.7135 H   0  0  0  0  0  0  0  0  0  0  0  0
   -2.4230   -1.0945   -0.7905 H   0  0  0  0  0  0  0  0  0  0  0  0
   -3.2289    0.4005    0.8483 H   0  0  0  0  0  0  0  0  0  0  0  0
   -2.6643    1.7846   -0.1632 H   0  0  0  0  0  0  0  0  0  0  0  0
   -1.2008    0.4555    2.0355 H   0  0  0  0  0  0  0  0  0  0  0  0
   -0.5790    1.7796    0.9095 H   0  0  0  0  0  0  0  0  0  0  0  0
  1  2  1  0
  2  3  1  0
  3  4  1  0
  3  5  1  0
  5  6  1  0
  5  7  1  0
  7  8  1  0
  8  9  1  0
  9  5  1  0
  1 10  1  0
  1 11  1  0
  1 12  1  0
  2 13  1  0
  2 14  1  0
  3 15  1  0
  4 16  1  0
  4 17  1  0
  4 18  1  0
  6 19  1  0
  7 20  1  0
  7 21  1  0
  8 22  1  0
  8 23  1  0
  9 24  1  0
  9 25  1  0
M  END
