
     RDKit          3D

 23 23  0  0  0  0  0  0  0  0999 V2000
   -1.5113   -0.0049   -1.6800 C   0  0  0  0  0  0  0  0  0  0  0  0
   -1.6232   -0.3580   -0.2370 C   0  0  0  0  0  0  0  0  0  0  0  0
   -0.4414    0.0535    0.6085 C   0  0  0  0  0  0  0  0  0  0  0  0
   -0.7634   -0.3975    2.0274 C   0  0  0  0  0  0  0  0  0  0  0  0
   -0.2723    1.4179    0.6489 O   0  0  0  0  0  0  0  0  0  0  0  0
    0.7785   -0.6477    0.0661 C   0  0  0  0  0  0  0  0  0  0  0  0
    1.4082    0.1753   -1.0385 C   0  0  0  0  0  0  0  0  0  0  0  0
    2.5084    0.4647   -0.0608 C   0  0  0  0  0  0  0  0  0  0  0  0
    1.9439   -0.4532    0.7977 O   0  0  0  0  0  0  0  0  0  0  0  0
   -1.4430    1.0832   -1.8574 H   0  0  0  0  0  0  0  0  0  0  0  0
   -2.4582   -0.3857   -2.1643 H   0  0  0  0  0  0  0  0  0  0  0  0
   -0.6669   -0.5116   -2.1671 H   0  0  0  0  0  0  0  0  0  0  0  0
   -2.5151    0.1316    0.2130 H   0  0  0  0  0  0  0  0  0  0  0  0
   -1.7989   -1.4477   -0.1440 H   0  0  0  0  0  0  0  0  0  0  0  0
   -0.6714   -1.4890    2.1347 H   0  0  0  0  0  0  0  0  0  0  0  0
   -0.1934    0.1664    2.7829 H   0  0  0  0  0  0  0  0  0  0  0  0
   -1.8339   -0.1477    2.1917 H   0  0  0  0  0  0  0  0  0  0  0  0
    0.2628    1.6939    1.4208 H   0  0  0  0  0  0  0  0  0  0  0  0
    0.6400   -1.7126   -0.1878 H   0  0  0  0  0  0  0  0  0  0  0  0
    1.7183   -0.4097   -1.9387 H   0  0  0  0  0  0  0  0  0  0  0  0
    0.8841    1.1171   -1.2937 H   0  0  0  0  0  0  0  0  0  0  0  0
    2.5501    1.4722    0.3562 H   0  0  0  0  0  0  0  0  0  0  0  0
    3.4981    0.1893   -0.4787 H   0  0  0  0  0  0  0  0  0  0  0  0
  1  2  1  0
  2  3  1  0
  3  4  1  0
  3  5  1  0
  3  6  1  0
  6  7  1  0
  7  8  1  0
  8  9  1  0
  9  6  1  0
  1 10  1  0
  1 11  1  0
  1 12  1  0
  2 13  1  0
  2 14  1  0
  4 15  1  0
  4 16  1  0
  4 17  1  0
  5 18  1  0
  6 19  1  0
  7 20  1  0
  7 21  1  0
  8 22  1  0
  8 23  1  0
M  END
