
     RDKit          3D

 19 18  0  0  0  0  0  0  0  0999 V2000
   -2.8377    0.5246    0.5250 C   0  0  0  0  0  0  0  0  0  0  0  0
   -1.6271   -0.1747   -0.0326 C   0  0  0  0  0  0  0  0  0  0  0  0
   -0.3564    0.4083    0.4621 C   0  0  0  0  0  0  0  0  0  0  0  0
   -0.4062    1.3470    1.2313 O   0  0  0  0  0  0  0  0  0  0  0  0
    0.9592   -0.1165    0.0488 C   0  0  0  0  0  0  0  0  0  0  0  0
    1.0590   -1.6109    0.2903 C   0  0  0  0  0  0  0  0  0  0  0  0
    2.0354    0.5596    0.6175 O   0  0  0  0  0  0  0  0  0  0  0  0
    2.9598    1.2410   -0.1587 C   0  0  0  0  0  0  0  0  0  0  0  0
    2.8701    1.2816   -1.4255 O   0  0  0  0  0  0  0  0  0  0  0  0
   -3.6766    0.5711   -0.1930 H   0  0  0  0  0  0  0  0  0  0  0  0
   -2.5526    1.5533    0.8739 H   0  0  0  0  0  0  0  0  0  0  0  0
   -3.1642   -0.0305    1.4225 H   0  0  0  0  0  0  0  0  0  0  0  0
   -1.6235   -0.1364   -1.1575 H   0  0  0  0  0  0  0  0  0  0  0  0
   -1.6739   -1.2548    0.2159 H   0  0  0  0  0  0  0  0  0  0  0  0
    1.0133    0.0083   -1.0648 H   0  0  0  0  0  0  0  0  0  0  0  0
    1.9520   -1.9599   -0.2698 H   0  0  0  0  0  0  0  0  0  0  0  0
    1.1473   -1.8683    1.3483 H   0  0  0  0  0  0  0  0  0  0  0  0
    0.1545   -2.0842   -0.1487 H   0  0  0  0  0  0  0  0  0  0  0  0
    3.7675    1.7416    0.3543 H   0  0  0  0  0  0  0  0  0  0  0  0
  1  2  1  0
  2  3  1  0
  3  4  2  0
  3  5  1  0
  5  6  1  0
  5  7  1  0
  7  8  1  0
  8  9  2  0
  1 10  1  0
  1 11  1  0
  1 12  1  0
  2 13  1  0
  2 14  1  0
  5 15  1  0
  6 16  1  0
  6 17  1  0
  6 18  1  0
  8 19  1  0
M  END
