
     RDKit          3D

 27 26  0  0  0  0  0  0  0  0999 V2000
    1.5572   -2.0050    0.1428 C   0  0  0  0  0  0  0  0  0  0  0  0
    1.4469   -0.5773   -0.2994 C   0  0  0  0  0  0  0  0  0  0  0  0
    0.2723    0.1672    0.2160 C   0  0  0  0  0  0  0  0  0  0  0  0
    0.3308    1.6337   -0.3126 C   0  0  0  0  0  0  0  0  0  0  0  0
    1.6166    2.2735    0.1778 C   0  0  0  0  0  0  0  0  0  0  0  0
   -1.0775   -0.3063   -0.1739 C   0  0  0  0  0  0  0  0  0  0  0  0
   -2.0819    0.6535    0.4968 C   0  0  0  0  0  0  0  0  0  0  0  0
   -1.4376   -1.7175    0.0868 C   0  0  0  0  0  0  0  0  0  0  0  0
   -1.2663   -0.0814   -1.5588 O   0  0  0  0  0  0  0  0  0  0  0  0
    2.6093   -2.3876    0.0418 H   0  0  0  0  0  0  0  0  0  0  0  0
    0.9228   -2.7194   -0.3691 H   0  0  0  0  0  0  0  0  0  0  0  0
    1.3696   -2.0934    1.2525 H   0  0  0  0  0  0  0  0  0  0  0  0
    2.3567   -0.0551    0.1285 H   0  0  0  0  0  0  0  0  0  0  0  0
    1.5467   -0.5514   -1.4073 H   0  0  0  0  0  0  0  0  0  0  0  0
    0.3752    0.2677    1.3163 H   0  0  0  0  0  0  0  0  0  0  0  0
   -0.5168    2.1541    0.1686 H   0  0  0  0  0  0  0  0  0  0  0  0
    0.2187    1.6329   -1.4028 H   0  0  0  0  0  0  0  0  0  0  0  0
    2.0106    1.7307    1.0550 H   0  0  0  0  0  0  0  0  0  0  0  0
    2.3672    2.2040   -0.6282 H   0  0  0  0  0  0  0  0  0  0  0  0
    1.4537    3.3515    0.3813 H   0  0  0  0  0  0  0  0  0  0  0  0
   -1.6754    1.0856    1.4321 H   0  0  0  0  0  0  0  0  0  0  0  0
   -2.3861    1.4674   -0.1592 H   0  0  0  0  0  0  0  0  0  0  0  0
   -2.9383    0.0206    0.8238 H   0  0  0  0  0  0  0  0  0  0  0  0
   -0.9563   -2.1339    0.9642 H   0  0  0  0  0  0  0  0  0  0  0  0
   -1.3382   -2.3376   -0.8461 H   0  0  0  0  0  0  0  0  0  0  0  0
   -2.5702   -1.7304    0.2555 H   0  0  0  0  0  0  0  0  0  0  0  0
   -2.2095    0.0539   -1.7822 H   0  0  0  0  0  0  0  0  0  0  0  0
  1  2  1  0
  2  3  1  0
  3  4  1  0
  4  5  1  0
  3  6  1  0
  6  7  1  0
  6  8  1  0
  6  9  1  0
  1 10  1  0
  1 11  1  0
  1 12  1  0
  2 13  1  0
  2 14  1  0
  3 15  1  0
  4 16  1  0
  4 17  1  0
  5 18  1  0
  5 19  1  0
  5 20  1  0
  7 21  1  0
  7 22  1  0
  7 23  1  0
  8 24  1  0
  8 25  1  0
  8 26  1  0
  9 27  1  0
M  END
