
     RDKit          3D

 21 20  0  0  0  0  0  0  0  0999 V2000
    2.3726   -0.0968   -0.3388 C   0  0  0  0  0  0  0  0  0  0  0  0
    1.4832    0.0548    0.8507 C   0  0  0  0  0  0  0  0  0  0  0  0
    0.0365    0.2042    0.5047 C   0  0  0  0  0  0  0  0  0  0  0  0
   -0.2359    1.3270   -0.3001 O   0  0  0  0  0  0  0  0  0  0  0  0
   -1.0560    2.3598    0.1090 C   0  0  0  0  0  0  0  0  0  0  0  0
   -1.5859    2.2995    1.2511 O   0  0  0  0  0  0  0  0  0  0  0  0
   -0.5322   -1.0477   -0.1485 C   0  0  0  0  0  0  0  0  0  0  0  0
   -2.0278   -0.9943   -0.2140 C   0  0  0  0  0  0  0  0  0  0  0  0
    0.0790   -1.1768   -1.3829 O   0  0  0  0  0  0  0  0  0  0  0  0
    2.6870   -1.1618   -0.5113 H   0  0  0  0  0  0  0  0  0  0  0  0
    1.9624    0.3444   -1.2684 H   0  0  0  0  0  0  0  0  0  0  0  0
    3.3433    0.4431   -0.1404 H   0  0  0  0  0  0  0  0  0  0  0  0
    1.5849   -0.8306    1.5047 H   0  0  0  0  0  0  0  0  0  0  0  0
    1.7817    0.9463    1.4371 H   0  0  0  0  0  0  0  0  0  0  0  0
   -0.5177    0.3226    1.4793 H   0  0  0  0  0  0  0  0  0  0  0  0
   -1.2251    3.1979   -0.5607 H   0  0  0  0  0  0  0  0  0  0  0  0
   -0.2668   -1.9304    0.4884 H   0  0  0  0  0  0  0  0  0  0  0  0
   -2.4129   -0.2004    0.4586 H   0  0  0  0  0  0  0  0  0  0  0  0
   -2.4130   -0.7620   -1.2335 H   0  0  0  0  0  0  0  0  0  0  0  0
   -2.5097   -1.9447    0.1392 H   0  0  0  0  0  0  0  0  0  0  0  0
   -0.5474   -1.3539   -2.1242 H   0  0  0  0  0  0  0  0  0  0  0  0
  1  2  1  0
  2  3  1  0
  3  4  1  0
  4  5  1  0
  5  6  2  0
  3  7  1  0
  7  8  1  0
  7  9  1  0
  1 10  1  0
  1 11  1  0
  1 12  1  0
  2 13  1  0
  2 14  1  0
  3 15  1  0
  5 16  1  0
  7 17  1  0
  8 18  1  0
  8 19  1  0
  8 20  1  0
  9 21  1  0
M  END
