
     RDKit          3D

 25 25  0  0  0  0  0  0  0  0999 V2000
    3.2339   -0.0370   -0.2056 C   0  0  0  0  0  0  0  0  0  0  0  0
    1.7562   -0.1055   -0.5305 C   0  0  0  0  0  0  0  0  0  0  0  0
    0.9694    0.2177    0.6940 C   0  0  0  0  0  0  0  0  0  0  0  0
    1.2519   -0.6964    1.7291 O   0  0  0  0  0  0  0  0  0  0  0  0
   -0.5046    0.2090    0.5046 C   0  0  0  0  0  0  0  0  0  0  0  0
   -1.0571   -1.1126    0.0516 C   0  0  0  0  0  0  0  0  0  0  0  0
   -2.5167   -0.6855   -0.1503 C   0  0  0  0  0  0  0  0  0  0  0  0
   -2.3166    0.5113   -1.0576 C   0  0  0  0  0  0  0  0  0  0  0  0
   -1.0461    1.1533   -0.5011 C   0  0  0  0  0  0  0  0  0  0  0  0
    3.3882    0.4042    0.8226 H   0  0  0  0  0  0  0  0  0  0  0  0
    3.7983    0.5507   -0.9560 H   0  0  0  0  0  0  0  0  0  0  0  0
    3.6338   -1.0832   -0.1409 H   0  0  0  0  0  0  0  0  0  0  0  0
    1.5088   -1.1100   -0.9509 H   0  0  0  0  0  0  0  0  0  0  0  0
    1.5160    0.6247   -1.3160 H   0  0  0  0  0  0  0  0  0  0  0  0
    1.2766    1.2028    1.0629 H   0  0  0  0  0  0  0  0  0  0  0  0
    0.8211   -0.2971    2.5386 H   0  0  0  0  0  0  0  0  0  0  0  0
   -0.9767    0.4378    1.4879 H   0  0  0  0  0  0  0  0  0  0  0  0
   -0.9539   -1.9191    0.7738 H   0  0  0  0  0  0  0  0  0  0  0  0
   -0.6821   -1.4514   -0.9175 H   0  0  0  0  0  0  0  0  0  0  0  0
   -3.1301   -1.4669   -0.5716 H   0  0  0  0  0  0  0  0  0  0  0  0
   -2.8575   -0.2955    0.8261 H   0  0  0  0  0  0  0  0  0  0  0  0
   -2.2078    0.2230   -2.1119 H   0  0  0  0  0  0  0  0  0  0  0  0
   -3.1901    1.2127   -0.9529 H   0  0  0  0  0  0  0  0  0  0  0  0
   -1.3410    2.1198   -0.0356 H   0  0  0  0  0  0  0  0  0  0  0  0
   -0.3738    1.3932   -1.3392 H   0  0  0  0  0  0  0  0  0  0  0  0
  1  2  1  0
  2  3  1  0
  3  4  1  0
  3  5  1  0
  5  6  1  0
  6  7  1  0
  7  8  1  0
  8  9  1  0
  9  5  1  0
  1 10  1  0
  1 11  1  0
  1 12  1  0
  2 13  1  0
  2 14  1  0
  3 15  1  0
  4 16  1  0
  5 17  1  0
  6 18  1  0
  6 19  1  0
  7 20  1  0
  7 21  1  0
  8 22  1  0
  8 23  1  0
  9 24  1  0
  9 25  1  0
M  END
