
     RDKit          3D

 17 17  0  0  0  0  0  0  0  0999 V2000
    2.6109   -0.2147   -0.0595 C   0  0  0  0  0  0  0  0  0  0  0  0
    1.4255   -0.8926   -0.7037 C   0  0  0  0  0  0  0  0  0  0  0  0
    0.1881   -0.4004   -0.0414 C   0  0  0  0  0  0  0  0  0  0  0  0
   -0.0927   -0.8880    1.0325 O   0  0  0  0  0  0  0  0  0  0  0  0
   -0.6698    0.6257   -0.6376 C   0  0  0  0  0  0  0  0  0  0  0  0
   -0.9742    1.6590    0.3470 O   0  0  0  0  0  0  0  0  0  0  0  0
   -2.0212    0.9537   -0.2561 C   0  0  0  0  0  0  0  0  0  0  0  0
   -2.8282    0.0350    0.5539 C   0  0  0  0  0  0  0  0  0  0  0  0
   -4.0322    0.0162    0.4287 O   0  0  0  0  0  0  0  0  0  0  0  0
    3.2424    0.1970   -0.8664 H   0  0  0  0  0  0  0  0  0  0  0  0
    3.2493   -0.9259    0.5006 H   0  0  0  0  0  0  0  0  0  0  0  0
    2.3014    0.5736    0.6734 H   0  0  0  0  0  0  0  0  0  0  0  0
    1.3900   -0.7536   -1.8028 H   0  0  0  0  0  0  0  0  0  0  0  0
    1.5129   -1.9791   -0.4875 H   0  0  0  0  0  0  0  0  0  0  0  0
   -0.3225    1.0329   -1.6368 H   0  0  0  0  0  0  0  0  0  0  0  0
   -2.6058    1.5937   -0.9600 H   0  0  0  0  0  0  0  0  0  0  0  0
   -2.3738   -0.6327    1.2663 H   0  0  0  0  0  0  0  0  0  0  0  0
  1  2  1  0
  2  3  1  0
  3  4  2  0
  3  5  1  0
  5  6  1  0
  6  7  1  0
  7  8  1  0
  8  9  2  0
  7  5  1  0
  1 10  1  0
  1 11  1  0
  1 12  1  0
  2 13  1  0
  2 14  1  0
  5 15  1  0
  7 16  1  0
  8 17  1  0
M  END
