
     RDKit          3D

 23 23  0  0  0  0  0  0  0  0999 V2000
    2.1753   -1.2848   -0.3156 C   0  0  0  0  0  0  0  0  0  0  0  0
    0.7059   -1.1647   -0.7279 C   0  0  0  0  0  0  0  0  0  0  0  0
    0.1420    0.1386   -0.2040 C   0  0  0  0  0  0  0  0  0  0  0  0
    0.7921    1.2405   -0.6771 O   0  0  0  0  0  0  0  0  0  0  0  0
    1.3991    2.0102    0.3073 C   0  0  0  0  0  0  0  0  0  0  0  0
   -1.3383    0.1328   -0.4878 C   0  0  0  0  0  0  0  0  0  0  0  0
   -1.9784   -1.0590    0.2241 C   0  0  0  0  0  0  0  0  0  0  0  0
   -3.0661   -0.2772    0.6144 O   0  0  0  0  0  0  0  0  0  0  0  0
   -2.1985    0.8354    0.5277 C   0  0  0  0  0  0  0  0  0  0  0  0
    2.7515   -0.5403   -0.9178 H   0  0  0  0  0  0  0  0  0  0  0  0
    2.5563   -2.2966   -0.4669 H   0  0  0  0  0  0  0  0  0  0  0  0
    2.2702   -0.9829    0.7423 H   0  0  0  0  0  0  0  0  0  0  0  0
    0.1949   -2.0239   -0.2483 H   0  0  0  0  0  0  0  0  0  0  0  0
    0.5906   -1.2820   -1.8170 H   0  0  0  0  0  0  0  0  0  0  0  0
    0.2559    0.1157    0.9018 H   0  0  0  0  0  0  0  0  0  0  0  0
    1.8978    2.8700   -0.1352 H   0  0  0  0  0  0  0  0  0  0  0  0
    2.0558    1.4081    0.9765 H   0  0  0  0  0  0  0  0  0  0  0  0
    0.5800    2.3950    0.9595 H   0  0  0  0  0  0  0  0  0  0  0  0
   -1.6298    0.2667   -1.5298 H   0  0  0  0  0  0  0  0  0  0  0  0
   -1.4183   -1.3819    1.1093 H   0  0  0  0  0  0  0  0  0  0  0  0
   -2.2344   -1.8998   -0.4394 H   0  0  0  0  0  0  0  0  0  0  0  0
   -2.7824    1.6889    0.1264 H   0  0  0  0  0  0  0  0  0  0  0  0
   -1.7213    1.0914    1.4777 H   0  0  0  0  0  0  0  0  0  0  0  0
  1  2  1  0
  2  3  1  0
  3  4  1  0
  4  5  1  0
  3  6  1  0
  6  7  1  0
  7  8  1  0
  8  9  1  0
  9  6  1  0
  1 10  1  0
  1 11  1  0
  1 12  1  0
  2 13  1  0
  2 14  1  0
  3 15  1  0
  5 16  1  0
  5 17  1  0
  5 18  1  0
  6 19  1  0
  7 20  1  0
  7 21  1  0
  9 22  1  0
  9 23  1  0
M  END
