
     RDKit          3D

 27 27  0  0  0  0  0  0  0  0999 V2000
    2.7349    0.6289   -1.0345 C   0  0  0  0  0  0  0  0  0  0  0  0
    2.3348    0.5697    0.4213 C   0  0  0  0  0  0  0  0  0  0  0  0
    0.9867   -0.1575    0.5684 C   0  0  0  0  0  0  0  0  0  0  0  0
    1.1060   -1.5493    0.0370 C   0  0  0  0  0  0  0  0  0  0  0  0
   -0.1124    0.6420   -0.0199 C   0  0  0  0  0  0  0  0  0  0  0  0
   -1.4993    0.0760    0.0605 C   0  0  0  0  0  0  0  0  0  0  0  0
   -1.8478   -1.2452   -0.5873 C   0  0  0  0  0  0  0  0  0  0  0  0
   -2.4132    0.5159    1.1586 C   0  0  0  0  0  0  0  0  0  0  0  0
   -2.5889    1.1523   -0.1738 C   0  0  0  0  0  0  0  0  0  0  0  0
    3.7292    1.1075   -1.0759 H   0  0  0  0  0  0  0  0  0  0  0  0
    2.0380    1.2602   -1.6145 H   0  0  0  0  0  0  0  0  0  0  0  0
    2.8482   -0.3948   -1.4296 H   0  0  0  0  0  0  0  0  0  0  0  0
    2.2894    1.5623    0.8712 H   0  0  0  0  0  0  0  0  0  0  0  0
    3.0908   -0.0284    0.9482 H   0  0  0  0  0  0  0  0  0  0  0  0
    0.8228   -0.2288    1.6637 H   0  0  0  0  0  0  0  0  0  0  0  0
    0.6456   -1.7171   -0.9537 H   0  0  0  0  0  0  0  0  0  0  0  0
    0.6889   -2.3070    0.7441 H   0  0  0  0  0  0  0  0  0  0  0  0
    2.1850   -1.8464   -0.1167 H   0  0  0  0  0  0  0  0  0  0  0  0
   -0.1694    1.6473    0.5011 H   0  0  0  0  0  0  0  0  0  0  0  0
    0.0722    0.8901   -1.1101 H   0  0  0  0  0  0  0  0  0  0  0  0
   -1.5116   -2.1294   -0.0552 H   0  0  0  0  0  0  0  0  0  0  0  0
   -2.9703   -1.3121   -0.5813 H   0  0  0  0  0  0  0  0  0  0  0  0
   -1.5364   -1.1671   -1.6539 H   0  0  0  0  0  0  0  0  0  0  0  0
   -2.0325    1.2086    1.9488 H   0  0  0  0  0  0  0  0  0  0  0  0
   -3.1184   -0.2236    1.5457 H   0  0  0  0  0  0  0  0  0  0  0  0
   -3.4965    0.8617   -0.7322 H   0  0  0  0  0  0  0  0  0  0  0  0
   -2.2757    2.1842   -0.3673 H   0  0  0  0  0  0  0  0  0  0  0  0
  1  2  1  0
  2  3  1  0
  3  4  1  0
  3  5  1  0
  5  6  1  0
  6  7  1  0
  6  8  1  0
  8  9  1  0
  9  6  1  0
  1 10  1  0
  1 11  1  0
  1 12  1  0
  2 13  1  0
  2 14  1  0
  3 15  1  0
  4 16  1  0
  4 17  1  0
  4 18  1  0
  5 19  1  0
  5 20  1  0
  7 21  1  0
  7 22  1  0
  7 23  1  0
  8 24  1  0
  8 25  1  0
  9 26  1  0
  9 27  1  0
M  END
