
     RDKit          3D

 21 20  0  0  0  0  0  0  0  0999 V2000
    2.6830   -0.2095    0.1995 C   0  0  0  0  0  0  0  0  0  0  0  0
    1.5357   -0.1101   -0.7874 C   0  0  0  0  0  0  0  0  0  0  0  0
    0.4147    0.6594   -0.1682 C   0  0  0  0  0  0  0  0  0  0  0  0
    0.6600    1.7781    0.2351 O   0  0  0  0  0  0  0  0  0  0  0  0
   -0.9345    0.1088   -0.0383 C   0  0  0  0  0  0  0  0  0  0  0  0
   -0.8311   -1.1401    0.8433 C   0  0  0  0  0  0  0  0  0  0  0  0
   -1.8266    1.1171    0.6672 C   0  0  0  0  0  0  0  0  0  0  0  0
   -1.5868   -0.2095   -1.3269 C   0  0  0  0  0  0  0  0  0  0  0  0
   -1.6872    0.6344   -2.1943 O   0  0  0  0  0  0  0  0  0  0  0  0
    2.9729   -1.2880    0.2843 H   0  0  0  0  0  0  0  0  0  0  0  0
    2.3419    0.1214    1.2176 H   0  0  0  0  0  0  0  0  0  0  0  0
    3.5521    0.3715   -0.0994 H   0  0  0  0  0  0  0  0  0  0  0  0
    1.2158   -1.0925   -1.1594 H   0  0  0  0  0  0  0  0  0  0  0  0
    1.9123    0.4811   -1.6711 H   0  0  0  0  0  0  0  0  0  0  0  0
   -0.7403   -0.7645    1.8933 H   0  0  0  0  0  0  0  0  0  0  0  0
    0.1316   -1.6133    0.5597 H   0  0  0  0  0  0  0  0  0  0  0  0
   -1.6782   -1.8028    0.6807 H   0  0  0  0  0  0  0  0  0  0  0  0
   -1.5968    1.1907    1.7418 H   0  0  0  0  0  0  0  0  0  0  0  0
   -1.6572    2.0875    0.1376 H   0  0  0  0  0  0  0  0  0  0  0  0
   -2.9041    0.8798    0.4863 H   0  0  0  0  0  0  0  0  0  0  0  0
   -1.9773   -1.1993   -1.5014 H   0  0  0  0  0  0  0  0  0  0  0  0
  1  2  1  0
  2  3  1  0
  3  4  2  0
  3  5  1  0
  5  6  1  0
  5  7  1  0
  5  8  1  0
  8  9  2  0
  1 10  1  0
  1 11  1  0
  1 12  1  0
  2 13  1  0
  2 14  1  0
  6 15  1  0
  6 16  1  0
  6 17  1  0
  7 18  1  0
  7 19  1  0
  7 20  1  0
  8 21  1  0
M  END
