
     RDKit          3D

 21 21  0  0  0  0  0  0  0  0999 V2000
    2.3942    0.7394   -1.3020 C   0  0  0  0  0  0  0  0  0  0  0  0
    2.4669    0.7411    0.1997 C   0  0  0  0  0  0  0  0  0  0  0  0
    1.7193   -0.4465    0.7804 C   0  0  0  0  0  0  0  0  0  0  0  0
    2.2383   -1.6582    0.3433 O   0  0  0  0  0  0  0  0  0  0  0  0
    0.3055   -0.2971    0.3613 C   0  0  0  0  0  0  0  0  0  0  0  0
   -0.8506   -0.1672    0.0388 C   0  0  0  0  0  0  0  0  0  0  0  0
   -2.2500    0.0016   -0.3284 C   0  0  0  0  0  0  0  0  0  0  0  0
   -3.1973   -0.9558    0.2739 C   0  0  0  0  0  0  0  0  0  0  0  0
   -3.1451    0.4924    0.7296 C   0  0  0  0  0  0  0  0  0  0  0  0
    1.3201    0.5664   -1.5688 H   0  0  0  0  0  0  0  0  0  0  0  0
    2.7344    1.7195   -1.6861 H   0  0  0  0  0  0  0  0  0  0  0  0
    2.9736   -0.0792   -1.7265 H   0  0  0  0  0  0  0  0  0  0  0  0
    2.0671    1.6543    0.6467 H   0  0  0  0  0  0  0  0  0  0  0  0
    3.5327    0.6159    0.4831 H   0  0  0  0  0  0  0  0  0  0  0  0
    1.7366   -0.4397    1.8873 H   0  0  0  0  0  0  0  0  0  0  0  0
    2.2363   -1.6401   -0.6396 H   0  0  0  0  0  0  0  0  0  0  0  0
   -2.4876    0.3829   -1.3621 H   0  0  0  0  0  0  0  0  0  0  0  0
   -4.0336   -1.2885   -0.3641 H   0  0  0  0  0  0  0  0  0  0  0  0
   -2.8920   -1.6954    1.0219 H   0  0  0  0  0  0  0  0  0  0  0  0
   -2.8138    0.6909    1.7645 H   0  0  0  0  0  0  0  0  0  0  0  0
   -4.0551    1.0630    0.4472 H   0  0  0  0  0  0  0  0  0  0  0  0
  1  2  1  0
  2  3  1  0
  3  4  1  0
  3  5  1  0
  5  6  3  0
  6  7  1  0
  7  8  1  0
  8  9  1  0
  9  7  1  0
  1 10  1  0
  1 11  1  0
  1 12  1  0
  2 13  1  0
  2 14  1  0
  3 15  1  0
  4 16  1  0
  7 17  1  0
  8 18  1  0
  8 19  1  0
  9 20  1  0
  9 21  1  0
M  END
