
     RDKit          3D

 15 14  0  0  0  0  0  0  0  0999 V2000
   -2.0832   -0.4870    0.8393 C   0  0  0  0  0  0  0  0  0  0  0  0
   -1.1713    0.4567    0.0802 C   0  0  0  0  0  0  0  0  0  0  0  0
    0.2466    0.3486    0.5322 C   0  0  0  0  0  0  0  0  0  0  0  0
    0.4792    0.4825    1.7138 O   0  0  0  0  0  0  0  0  0  0  0  0
    1.2495    0.0798   -0.5316 C   0  0  0  0  0  0  0  0  0  0  0  0
    2.6272   -0.0881   -0.0243 C   0  0  0  0  0  0  0  0  0  0  0  0
    3.1579   -1.1856   -0.1253 O   0  0  0  0  0  0  0  0  0  0  0  0
   -2.9819    0.0816    1.1279 H   0  0  0  0  0  0  0  0  0  0  0  0
   -1.5987   -0.9563    1.6958 H   0  0  0  0  0  0  0  0  0  0  0  0
   -2.4445   -1.3173    0.1364 H   0  0  0  0  0  0  0  0  0  0  0  0
   -1.4610    1.5254    0.2639 H   0  0  0  0  0  0  0  0  0  0  0  0
   -1.3146    0.2664   -1.0001 H   0  0  0  0  0  0  0  0  0  0  0  0
    0.9006   -0.8576   -1.0680 H   0  0  0  0  0  0  0  0  0  0  0  0
    1.2720    0.8789   -1.2733 H   0  0  0  0  0  0  0  0  0  0  0  0
    3.1224    0.7720    0.4218 H   0  0  0  0  0  0  0  0  0  0  0  0
  1  2  1  0
  2  3  1  0
  3  4  2  0
  3  5  1  0
  5  6  1  0
  6  7  2  0
  1  8  1  0
  1  9  1  0
  1 10  1  0
  2 11  1  0
  2 12  1  0
  5 13  1  0
  5 14  1  0
  6 15  1  0
M  END
