
     RDKit          3D

 21 20  0  0  0  0  0  0  0  0999 V2000
   -3.1000   -0.2045    0.9475 C   0  0  0  0  0  0  0  0  0  0  0  0
   -2.4889    0.3759   -0.3114 C   0  0  0  0  0  0  0  0  0  0  0  0
   -1.2418   -0.3664   -0.6762 C   0  0  0  0  0  0  0  0  0  0  0  0
   -1.2166   -1.5505   -0.7927 O   0  0  0  0  0  0  0  0  0  0  0  0
    0.0042    0.4558   -0.8867 C   0  0  0  0  0  0  0  0  0  0  0  0
    1.0862   -0.3047   -0.1279 C   0  0  0  0  0  0  0  0  0  0  0  0
    2.3877    0.3988   -0.2174 C   0  0  0  0  0  0  0  0  0  0  0  0
    3.5648   -0.1967    0.4931 C   0  0  0  0  0  0  0  0  0  0  0  0
    2.4920    1.4293   -0.8542 O   0  0  0  0  0  0  0  0  0  0  0  0
   -4.0737   -0.6667    0.7280 H   0  0  0  0  0  0  0  0  0  0  0  0
   -3.2495    0.6329    1.6926 H   0  0  0  0  0  0  0  0  0  0  0  0
   -2.3883   -0.9766    1.3585 H   0  0  0  0  0  0  0  0  0  0  0  0
   -3.1906    0.2727   -1.1538 H   0  0  0  0  0  0  0  0  0  0  0  0
   -2.2717    1.4461   -0.1531 H   0  0  0  0  0  0  0  0  0  0  0  0
    0.2387    0.5039   -1.9732 H   0  0  0  0  0  0  0  0  0  0  0  0
   -0.0972    1.4599   -0.4449 H   0  0  0  0  0  0  0  0  0  0  0  0
    1.2127   -1.3278   -0.5409 H   0  0  0  0  0  0  0  0  0  0  0  0
    0.7589   -0.3170    0.9459 H   0  0  0  0  0  0  0  0  0  0  0  0
    4.5080    0.0517   -0.0588 H   0  0  0  0  0  0  0  0  0  0  0  0
    3.5595    0.1936    1.5252 H   0  0  0  0  0  0  0  0  0  0  0  0
    3.5056   -1.3097    0.5003 H   0  0  0  0  0  0  0  0  0  0  0  0
  1  2  1  0
  2  3  1  0
  3  4  2  0
  3  5  1  0
  5  6  1  0
  6  7  1  0
  7  8  1  0
  7  9  2  0
  1 10  1  0
  1 11  1  0
  1 12  1  0
  2 13  1  0
  2 14  1  0
  5 15  1  0
  5 16  1  0
  6 17  1  0
  6 18  1  0
  8 19  1  0
  8 20  1  0
  8 21  1  0
M  END
