
     RDKit          3D

 23 23  0  0  0  0  0  0  0  0999 V2000
    1.8145   -0.6624   -1.2034 C   0  0  0  0  0  0  0  0  0  0  0  0
    1.5547    0.2525   -0.0178 C   0  0  0  0  0  0  0  0  0  0  0  0
    0.0710    0.6040    0.0641 C   0  0  0  0  0  0  0  0  0  0  0  0
   -0.0617    1.5197    1.2844 C   0  0  0  0  0  0  0  0  0  0  0  0
    0.7473    2.6266    1.0240 O   0  0  0  0  0  0  0  0  0  0  0  0
   -0.7382   -0.6449    0.2176 C   0  0  0  0  0  0  0  0  0  0  0  0
   -0.4344   -1.3989    1.3705 O   0  0  0  0  0  0  0  0  0  0  0  0
   -1.1413   -1.3512   -1.0313 C   0  0  0  0  0  0  0  0  0  0  0  0
   -2.1678   -0.6958   -0.1716 C   0  0  0  0  0  0  0  0  0  0  0  0
    2.9021   -0.7853   -1.3194 H   0  0  0  0  0  0  0  0  0  0  0  0
    1.3208   -1.6383   -0.9514 H   0  0  0  0  0  0  0  0  0  0  0  0
    1.3553   -0.2988   -2.1224 H   0  0  0  0  0  0  0  0  0  0  0  0
    1.7892   -0.2662    0.9348 H   0  0  0  0  0  0  0  0  0  0  0  0
    2.1806    1.1660   -0.0437 H   0  0  0  0  0  0  0  0  0  0  0  0
   -0.2161    1.1660   -0.8426 H   0  0  0  0  0  0  0  0  0  0  0  0
   -1.1025    1.7839    1.4841 H   0  0  0  0  0  0  0  0  0  0  0  0
    0.4196    0.9628    2.1205 H   0  0  0  0  0  0  0  0  0  0  0  0
    0.4041    3.1872    0.2944 H   0  0  0  0  0  0  0  0  0  0  0  0
   -1.1049   -1.0879    2.0520 H   0  0  0  0  0  0  0  0  0  0  0  0
   -1.1318   -2.4563   -1.0459 H   0  0  0  0  0  0  0  0  0  0  0  0
   -0.9675   -0.8838   -1.9987 H   0  0  0  0  0  0  0  0  0  0  0  0
   -2.8596   -1.3617    0.3697 H   0  0  0  0  0  0  0  0  0  0  0  0
   -2.6335    0.2627   -0.4678 H   0  0  0  0  0  0  0  0  0  0  0  0
  1  2  1  0
  2  3  1  0
  3  4  1  0
  4  5  1  0
  3  6  1  0
  6  7  1  0
  6  8  1  0
  8  9  1  0
  9  6  1  0
  1 10  1  0
  1 11  1  0
  1 12  1  0
  2 13  1  0
  2 14  1  0
  3 15  1  0
  4 16  1  0
  4 17  1  0
  5 18  1  0
  7 19  1  0
  8 20  1  0
  8 21  1  0
  9 22  1  0
  9 23  1  0
M  END
