
     RDKit          3D

 25 24  0  0  0  0  0  0  0  0999 V2000
   -1.6271   -1.6304   -0.1597 C   0  0  0  0  0  0  0  0  0  0  0  0
   -1.4229   -0.3642    0.6214 C   0  0  0  0  0  0  0  0  0  0  0  0
   -0.6455    0.6915   -0.1284 C   0  0  0  0  0  0  0  0  0  0  0  0
   -0.5641    1.8796    0.8098 C   0  0  0  0  0  0  0  0  0  0  0  0
   -1.3758    0.9816   -1.2761 O   0  0  0  0  0  0  0  0  0  0  0  0
    0.7208    0.2004   -0.5188 C   0  0  0  0  0  0  0  0  0  0  0  0
    1.4790    1.2232   -1.3444 C   0  0  0  0  0  0  0  0  0  0  0  0
    1.5346   -0.1049    0.5609 O   0  0  0  0  0  0  0  0  0  0  0  0
    1.9917   -1.4100    0.4554 C   0  0  0  0  0  0  0  0  0  0  0  0
   -2.7256   -1.8898   -0.2384 H   0  0  0  0  0  0  0  0  0  0  0  0
   -1.1941   -2.4619    0.4351 H   0  0  0  0  0  0  0  0  0  0  0  0
   -1.1539   -1.5980   -1.1494 H   0  0  0  0  0  0  0  0  0  0  0  0
   -0.9517   -0.5627    1.6164 H   0  0  0  0  0  0  0  0  0  0  0  0
   -2.4506    0.0201    0.8923 H   0  0  0  0  0  0  0  0  0  0  0  0
   -1.6046    2.1056    1.1190 H   0  0  0  0  0  0  0  0  0  0  0  0
   -0.0271    1.5499    1.7136 H   0  0  0  0  0  0  0  0  0  0  0  0
   -0.1509    2.7712    0.3459 H   0  0  0  0  0  0  0  0  0  0  0  0
   -1.9771    0.2327   -1.5164 H   0  0  0  0  0  0  0  0  0  0  0  0
    0.6439   -0.6989   -1.1536 H   0  0  0  0  0  0  0  0  0  0  0  0
    0.8400    1.7395   -2.0743 H   0  0  0  0  0  0  0  0  0  0  0  0
    2.2575    0.6809   -1.9216 H   0  0  0  0  0  0  0  0  0  0  0  0
    2.0049    1.9324   -0.6844 H   0  0  0  0  0  0  0  0  0  0  0  0
    2.6537   -1.6712    1.3236 H   0  0  0  0  0  0  0  0  0  0  0  0
    1.1623   -2.1247    0.3948 H   0  0  0  0  0  0  0  0  0  0  0  0
    2.5829   -1.4920   -0.4895 H   0  0  0  0  0  0  0  0  0  0  0  0
  1  2  1  0
  2  3  1  0
  3  4  1  0
  3  5  1  0
  3  6  1  0
  6  7  1  0
  6  8  1  0
  8  9  1  0
  1 10  1  0
  1 11  1  0
  1 12  1  0
  2 13  1  0
  2 14  1  0
  4 15  1  0
  4 16  1  0
  4 17  1  0
  5 18  1  0
  6 19  1  0
  7 20  1  0
  7 21  1  0
  7 22  1  0
  9 23  1  0
  9 24  1  0
  9 25  1  0
M  END
