
     RDKit          3D

 21 20  0  0  0  0  0  0  0  0999 V2000
   -2.5936   -0.1068   -0.1742 C   0  0  0  0  0  0  0  0  0  0  0  0
   -1.4745    0.2761    0.7491 C   0  0  0  0  0  0  0  0  0  0  0  0
   -0.1396    0.1788   -0.0380 C   0  0  0  0  0  0  0  0  0  0  0  0
   -0.2811    1.0892   -1.1129 O   0  0  0  0  0  0  0  0  0  0  0  0
   -0.0578   -1.1705   -0.5644 C   0  0  0  0  0  0  0  0  0  0  0  0
   -0.2188   -1.3767   -1.7585 O   0  0  0  0  0  0  0  0  0  0  0  0
    0.9682    0.6622    0.8248 C   0  0  0  0  0  0  0  0  0  0  0  0
    2.2059    0.8032    0.2574 O   0  0  0  0  0  0  0  0  0  0  0  0
    2.7786   -0.3267   -0.2306 C   0  0  0  0  0  0  0  0  0  0  0  0
   -2.8300    0.7253   -0.8693 H   0  0  0  0  0  0  0  0  0  0  0  0
   -2.3008   -1.0181   -0.7455 H   0  0  0  0  0  0  0  0  0  0  0  0
   -3.4834   -0.4100    0.4281 H   0  0  0  0  0  0  0  0  0  0  0  0
   -1.6449    1.2944    1.1062 H   0  0  0  0  0  0  0  0  0  0  0  0
   -1.4187   -0.4159    1.6142 H   0  0  0  0  0  0  0  0  0  0  0  0
   -0.3920    1.9738   -0.6817 H   0  0  0  0  0  0  0  0  0  0  0  0
    0.1450   -2.0180    0.0768 H   0  0  0  0  0  0  0  0  0  0  0  0
    0.7152    1.6980    1.2274 H   0  0  0  0  0  0  0  0  0  0  0  0
    1.0294    0.0110    1.7357 H   0  0  0  0  0  0  0  0  0  0  0  0
    2.8704   -1.0613    0.6046 H   0  0  0  0  0  0  0  0  0  0  0  0
    3.8237   -0.0171   -0.5645 H   0  0  0  0  0  0  0  0  0  0  0  0
    2.2988   -0.7908   -1.0951 H   0  0  0  0  0  0  0  0  0  0  0  0
  1  2  1  0
  2  3  1  0
  3  4  1  0
  3  5  1  0
  5  6  2  0
  3  7  1  0
  7  8  1  0
  8  9  1  0
  1 10  1  0
  1 11  1  0
  1 12  1  0
  2 13  1  0
  2 14  1  0
  4 15  1  0
  5 16  1  0
  7 17  1  0
  7 18  1  0
  9 19  1  0
  9 20  1  0
  9 21  1  0
M  END
