
     RDKit          3D

 21 20  0  0  0  0  0  0  0  0999 V2000
   -2.8336   -0.5594    0.2993 C   0  0  0  0  0  0  0  0  0  0  0  0
   -1.4536   -0.2844    0.8696 C   0  0  0  0  0  0  0  0  0  0  0  0
   -0.4147   -0.2300   -0.2584 C   0  0  0  0  0  0  0  0  0  0  0  0
   -0.7463    0.8452   -1.2253 C   0  0  0  0  0  0  0  0  0  0  0  0
   -0.3227    1.9764   -1.0736 O   0  0  0  0  0  0  0  0  0  0  0  0
    0.9109    0.0044    0.3897 C   0  0  0  0  0  0  0  0  0  0  0  0
    2.0525    0.0865   -0.5685 C   0  0  0  0  0  0  0  0  0  0  0  0
    3.3074    0.3194    0.1877 C   0  0  0  0  0  0  0  0  0  0  0  0
    3.3112    0.4141    1.3807 O   0  0  0  0  0  0  0  0  0  0  0  0
   -3.2344    0.2827   -0.2762 H   0  0  0  0  0  0  0  0  0  0  0  0
   -3.5041   -0.7045    1.1759 H   0  0  0  0  0  0  0  0  0  0  0  0
   -2.8463   -1.4783   -0.2841 H   0  0  0  0  0  0  0  0  0  0  0  0
   -1.2326   -1.1192    1.5628 H   0  0  0  0  0  0  0  0  0  0  0  0
   -1.4304    0.6481    1.4262 H   0  0  0  0  0  0  0  0  0  0  0  0
   -0.4188   -1.1879   -0.8260 H   0  0  0  0  0  0  0  0  0  0  0  0
   -1.3697    0.6596   -2.0885 H   0  0  0  0  0  0  0  0  0  0  0  0
    0.8209    0.8759    1.0549 H   0  0  0  0  0  0  0  0  0  0  0  0
    1.1081   -0.8739    1.0611 H   0  0  0  0  0  0  0  0  0  0  0  0
    2.1523   -0.9033   -1.0627 H   0  0  0  0  0  0  0  0  0  0  0  0
    1.8999    0.8234   -1.3793 H   0  0  0  0  0  0  0  0  0  0  0  0
    4.2440    0.4052   -0.3652 H   0  0  0  0  0  0  0  0  0  0  0  0
  1  2  1  0
  2  3  1  0
  3  4  1  0
  4  5  2  0
  3  6  1  0
  6  7  1  0
  7  8  1  0
  8  9  2  0
  1 10  1  0
  1 11  1  0
  1 12  1  0
  2 13  1  0
  2 14  1  0
  3 15  1  0
  4 16  1  0
  6 17  1  0
  6 18  1  0
  7 19  1  0
  7 20  1  0
  8 21  1  0
M  END
