
     RDKit          3D

 22 22  0  0  0  0  0  0  0  0999 V2000
    2.8285    0.3662   -0.5851 C   0  0  0  0  0  0  0  0  0  0  0  0
    1.6677   -0.6112   -0.4070 C   0  0  0  0  0  0  0  0  0  0  0  0
    0.6140    0.1254    0.3834 C   0  0  0  0  0  0  0  0  0  0  0  0
    1.1942    0.4827    1.6020 O   0  0  0  0  0  0  0  0  0  0  0  0
   -0.6183   -0.6934    0.6283 C   0  0  0  0  0  0  0  0  0  0  0  0
   -1.4410   -1.2289   -0.4622 C   0  0  0  0  0  0  0  0  0  0  0  0
   -1.9655   -0.1302    0.4542 C   0  0  0  0  0  0  0  0  0  0  0  0
   -2.2263    1.1654   -0.2459 C   0  0  0  0  0  0  0  0  0  0  0  0
    3.1563    0.7240    0.4178 H   0  0  0  0  0  0  0  0  0  0  0  0
    2.4099    1.2582   -1.0978 H   0  0  0  0  0  0  0  0  0  0  0  0
    3.6612   -0.0703   -1.1480 H   0  0  0  0  0  0  0  0  0  0  0  0
    2.0856   -1.4527    0.2174 H   0  0  0  0  0  0  0  0  0  0  0  0
    1.3332   -0.9588   -1.3815 H   0  0  0  0  0  0  0  0  0  0  0  0
    0.4167    1.0773   -0.1551 H   0  0  0  0  0  0  0  0  0  0  0  0
    0.4631    0.4681    2.2709 H   0  0  0  0  0  0  0  0  0  0  0  0
   -0.5054   -1.3783    1.5181 H   0  0  0  0  0  0  0  0  0  0  0  0
   -1.2472   -0.9962   -1.5166 H   0  0  0  0  0  0  0  0  0  0  0  0
   -1.9662   -2.2110   -0.3340 H   0  0  0  0  0  0  0  0  0  0  0  0
   -2.7712   -0.4050    1.1865 H   0  0  0  0  0  0  0  0  0  0  0  0
   -2.5227    1.9685    0.4611 H   0  0  0  0  0  0  0  0  0  0  0  0
   -3.1348    1.0045   -0.8973 H   0  0  0  0  0  0  0  0  0  0  0  0
   -1.4316    1.4957   -0.9093 H   0  0  0  0  0  0  0  0  0  0  0  0
  1  2  1  0
  2  3  1  0
  3  4  1  0
  3  5  1  0
  5  6  1  0
  6  7  1  0
  7  8  1  0
  7  5  1  0
  1  9  1  0
  1 10  1  0
  1 11  1  0
  2 12  1  0
  2 13  1  0
  3 14  1  0
  4 15  1  0
  5 16  1  0
  6 17  1  0
  6 18  1  0
  7 19  1  0
  8 20  1  0
  8 21  1  0
  8 22  1  0
M  END
