
     RDKit          3D

 23 22  0  0  0  0  0  0  0  0999 V2000
    1.5861    1.4814   -0.3339 C   0  0  0  0  0  0  0  0  0  0  0  0
    1.2576    0.3232    0.5449 C   0  0  0  0  0  0  0  0  0  0  0  0
   -0.0002   -0.4229    0.1815 C   0  0  0  0  0  0  0  0  0  0  0  0
   -0.0868   -1.5695    1.2231 C   0  0  0  0  0  0  0  0  0  0  0  0
    0.1143   -1.0896   -1.1622 C   0  0  0  0  0  0  0  0  0  0  0  0
   -1.2655    0.3403    0.3694 C   0  0  0  0  0  0  0  0  0  0  0  0
   -2.3045   -0.5507   -0.0282 O   0  0  0  0  0  0  0  0  0  0  0  0
   -1.4333    1.5690   -0.3901 C   0  0  0  0  0  0  0  0  0  0  0  0
   -2.2862    1.6899   -1.2518 O   0  0  0  0  0  0  0  0  0  0  0  0
    1.5185    2.4575    0.2077 H   0  0  0  0  0  0  0  0  0  0  0  0
    2.6818    1.3868   -0.5981 H   0  0  0  0  0  0  0  0  0  0  0  0
    1.0746    1.4989   -1.3018 H   0  0  0  0  0  0  0  0  0  0  0  0
    1.1287    0.6926    1.5887 H   0  0  0  0  0  0  0  0  0  0  0  0
    2.1018   -0.4207    0.5621 H   0  0  0  0  0  0  0  0  0  0  0  0
   -0.5631   -2.4608    0.7711 H   0  0  0  0  0  0  0  0  0  0  0  0
   -0.6945   -1.2674    2.0853 H   0  0  0  0  0  0  0  0  0  0  0  0
    0.9119   -1.8389    1.5855 H   0  0  0  0  0  0  0  0  0  0  0  0
    1.1711   -1.2628   -1.4625 H   0  0  0  0  0  0  0  0  0  0  0  0
   -0.3315   -0.4840   -1.9815 H   0  0  0  0  0  0  0  0  0  0  0  0
   -0.3755   -2.0854   -1.1928 H   0  0  0  0  0  0  0  0  0  0  0  0
   -1.3922    0.4908    1.4821 H   0  0  0  0  0  0  0  0  0  0  0  0
   -2.0115   -0.9012   -0.9039 H   0  0  0  0  0  0  0  0  0  0  0  0
   -0.8015    2.4234   -0.2118 H   0  0  0  0  0  0  0  0  0  0  0  0
  1  2  1  0
  2  3  1  0
  3  4  1  0
  3  5  1  0
  3  6  1  0
  6  7  1  0
  6  8  1  0
  8  9  2  0
  1 10  1  0
  1 11  1  0
  1 12  1  0
  2 13  1  0
  2 14  1  0
  4 15  1  0
  4 16  1  0
  4 17  1  0
  5 18  1  0
  5 19  1  0
  5 20  1  0
  6 21  1  0
  7 22  1  0
  8 23  1  0
M  END
