
     RDKit          3D

 18 17  0  0  0  0  0  0  0  0999 V2000
   -0.6537    1.8738   -0.0721 C   0  0  0  0  0  0  0  0  0  0  0  0
   -1.0062    0.4399   -0.2040 C   0  0  0  0  0  0  0  0  0  0  0  0
    0.0800   -0.5414   -0.4223 C   0  0  0  0  0  0  0  0  0  0  0  0
   -0.5952   -1.9097   -0.5273 C   0  0  0  0  0  0  0  0  0  0  0  0
    1.1240   -0.5777    0.6196 C   0  0  0  0  0  0  0  0  0  0  0  0
    1.1588   -1.6413    1.3537 O   0  0  0  0  0  0  0  0  0  0  0  0
    2.0936    0.4093    0.9205 C   0  0  0  0  0  0  0  0  0  0  0  0
    2.2110    1.4621    0.2669 O   0  0  0  0  0  0  0  0  0  0  0  0
   -0.0686    2.2282   -0.9199 H   0  0  0  0  0  0  0  0  0  0  0  0
   -1.6486    2.4324   -0.1875 H   0  0  0  0  0  0  0  0  0  0  0  0
   -0.2850    2.1875    0.9276 H   0  0  0  0  0  0  0  0  0  0  0  0
   -1.6730    0.1334    0.6476 H   0  0  0  0  0  0  0  0  0  0  0  0
   -1.7027    0.3548   -1.0979 H   0  0  0  0  0  0  0  0  0  0  0  0
    0.5234   -0.3649   -1.4367 H   0  0  0  0  0  0  0  0  0  0  0  0
   -1.6907   -1.8502   -0.3736 H   0  0  0  0  0  0  0  0  0  0  0  0
   -0.2060   -2.5551    0.2869 H   0  0  0  0  0  0  0  0  0  0  0  0
   -0.4432   -2.3709   -1.5222 H   0  0  0  0  0  0  0  0  0  0  0  0
    2.7821    0.2898    1.7408 H   0  0  0  0  0  0  0  0  0  0  0  0
  1  2  1  0
  2  3  1  0
  3  4  1  0
  3  5  1  0
  5  6  2  0
  5  7  1  0
  7  8  2  0
  1  9  1  0
  1 10  1  0
  1 11  1  0
  2 12  1  0
  2 13  1  0
  3 14  1  0
  4 15  1  0
  4 16  1  0
  4 17  1  0
  7 18  1  0
M  END
