
     RDKit          3D

 19 18  0  0  0  0  0  0  0  0999 V2000
   -3.0197    0.7117    0.4354 C   0  0  0  0  0  0  0  0  0  0  0  0
   -2.1912   -0.5489    0.5700 C   0  0  0  0  0  0  0  0  0  0  0  0
   -0.7557   -0.3055    0.4161 C   0  0  0  0  0  0  0  0  0  0  0  0
   -0.1088    0.1524    1.3928 O   0  0  0  0  0  0  0  0  0  0  0  0
   -0.0177   -0.5655   -0.8173 C   0  0  0  0  0  0  0  0  0  0  0  0
   -0.6774   -1.0227   -1.7814 O   0  0  0  0  0  0  0  0  0  0  0  0
    1.4335   -0.3089   -0.9439 C   0  0  0  0  0  0  0  0  0  0  0  0
    1.9836    0.1905    0.2197 O   0  0  0  0  0  0  0  0  0  0  0  0
    3.3567    0.4031    0.0042 C   0  0  0  0  0  0  0  0  0  0  0  0
   -2.5714    1.3089   -0.3728 H   0  0  0  0  0  0  0  0  0  0  0  0
   -3.0728    1.2683    1.3856 H   0  0  0  0  0  0  0  0  0  0  0  0
   -4.0353    0.4192    0.0586 H   0  0  0  0  0  0  0  0  0  0  0  0
   -2.3679   -0.9129    1.6244 H   0  0  0  0  0  0  0  0  0  0  0  0
   -2.5546   -1.3408   -0.0990 H   0  0  0  0  0  0  0  0  0  0  0  0
    2.0050   -1.2020   -1.2878 H   0  0  0  0  0  0  0  0  0  0  0  0
    1.5494    0.4425   -1.7719 H   0  0  0  0  0  0  0  0  0  0  0  0
    3.8799    0.8003    0.8689 H   0  0  0  0  0  0  0  0  0  0  0  0
    3.7669   -0.5698   -0.3764 H   0  0  0  0  0  0  0  0  0  0  0  0
    3.3974    1.0801   -0.8932 H   0  0  0  0  0  0  0  0  0  0  0  0
  1  2  1  0
  2  3  1  0
  3  4  2  0
  3  5  1  0
  5  6  2  0
  5  7  1  0
  7  8  1  0
  8  9  1  0
  1 10  1  0
  1 11  1  0
  1 12  1  0
  2 13  1  0
  2 14  1  0
  7 15  1  0
  7 16  1  0
  9 17  1  0
  9 18  1  0
  9 19  1  0
M  END
