
     RDKit          3D

 18 17  0  0  0  0  0  0  0  0999 V2000
   -2.1352   -0.5369    0.6094 C   0  0  0  0  0  0  0  0  0  0  0  0
   -0.9941   -0.1863   -0.3399 C   0  0  0  0  0  0  0  0  0  0  0  0
    0.1368    0.3338    0.5086 C   0  0  0  0  0  0  0  0  0  0  0  0
   -0.3399    1.4559    1.1826 O   0  0  0  0  0  0  0  0  0  0  0  0
    1.3723    0.6358   -0.2975 C   0  0  0  0  0  0  0  0  0  0  0  0
    1.8399   -0.6291   -0.9790 C   0  0  0  0  0  0  0  0  0  0  0  0
   -2.6004    0.3794    1.0367 H   0  0  0  0  0  0  0  0  0  0  0  0
   -2.8698   -1.2100    0.1495 H   0  0  0  0  0  0  0  0  0  0  0  0
   -1.7088   -1.0923    1.4829 H   0  0  0  0  0  0  0  0  0  0  0  0
   -1.3921    0.6006   -1.0110 H   0  0  0  0  0  0  0  0  0  0  0  0
   -0.7360   -1.0702   -0.9296 H   0  0  0  0  0  0  0  0  0  0  0  0
    0.3999   -0.4205    1.2781 H   0  0  0  0  0  0  0  0  0  0  0  0
   -0.3319    2.2679    0.6349 H   0  0  0  0  0  0  0  0  0  0  0  0
    1.2215    1.3911   -1.0687 H   0  0  0  0  0  0  0  0  0  0  0  0
    2.1548    0.9927    0.3971 H   0  0  0  0  0  0  0  0  0  0  0  0
    2.9556   -0.7299   -0.9296 H   0  0  0  0  0  0  0  0  0  0  0  0
    1.4453   -1.5217   -0.4204 H   0  0  0  0  0  0  0  0  0  0  0  0
    1.5824   -0.6602   -2.0493 H   0  0  0  0  0  0  0  0  0  0  0  0
  1  2  1  0
  2  3  1  0
  3  4  1  0
  3  5  1  0
  5  6  1  0
  1  7  1  0
  1  8  1  0
  1  9  1  0
  2 10  1  0
  2 11  1  0
  3 12  1  0
  4 13  1  0
  5 14  1  0
  5 15  1  0
  6 16  1  0
  6 17  1  0
  6 18  1  0
M  END
