
     RDKit          3D

 20 19  0  0  0  0  0  0  0  0999 V2000
    3.3449   -0.4732    0.3459 C   0  0  0  0  0  0  0  0  0  0  0  0
    2.2452    0.2425   -0.3679 C   0  0  0  0  0  0  0  0  0  0  0  0
    0.9003   -0.1500    0.0954 C   0  0  0  0  0  0  0  0  0  0  0  0
    0.7931   -1.0091    1.0048 O   0  0  0  0  0  0  0  0  0  0  0  0
   -0.2858    0.3619   -0.4004 O   0  0  0  0  0  0  0  0  0  0  0  0
   -1.5452   -0.0506    0.0808 C   0  0  0  0  0  0  0  0  0  0  0  0
   -2.2847    1.0968    0.7638 C   0  0  0  0  0  0  0  0  0  0  0  0
   -2.3785   -0.5660   -1.0520 C   0  0  0  0  0  0  0  0  0  0  0  0
    4.3024   -0.2096   -0.1784 H   0  0  0  0  0  0  0  0  0  0  0  0
    3.4792   -0.1715    1.3996 H   0  0  0  0  0  0  0  0  0  0  0  0
    3.2386   -1.5688    0.2237 H   0  0  0  0  0  0  0  0  0  0  0  0
    2.4305    1.3357   -0.2590 H   0  0  0  0  0  0  0  0  0  0  0  0
    2.3836    0.0383   -1.4669 H   0  0  0  0  0  0  0  0  0  0  0  0
   -1.3848   -0.8148    0.8802 H   0  0  0  0  0  0  0  0  0  0  0  0
   -2.5259    1.8406    0.0043 H   0  0  0  0  0  0  0  0  0  0  0  0
   -3.2334    0.6594    1.1439 H   0  0  0  0  0  0  0  0  0  0  0  0
   -1.6521    1.4587    1.5835 H   0  0  0  0  0  0  0  0  0  0  0  0
   -2.1588   -1.6152   -1.2398 H   0  0  0  0  0  0  0  0  0  0  0  0
   -3.4799   -0.4845   -0.8603 H   0  0  0  0  0  0  0  0  0  0  0  0
   -2.1886    0.0794   -1.9504 H   0  0  0  0  0  0  0  0  0  0  0  0
  1  2  1  0
  2  3  1  0
  3  4  2  0
  3  5  1  0
  5  6  1  0
  6  7  1  0
  6  8  1  0
  1  9  1  0
  1 10  1  0
  1 11  1  0
  2 12  1  0
  2 13  1  0
  6 14  1  0
  7 15  1  0
  7 16  1  0
  7 17  1  0
  8 18  1  0
  8 19  1  0
  8 20  1  0
M  END
