
     RDKit          3D

 16 15  0  0  0  0  0  0  0  0999 V2000
    1.6170   -0.2484   -0.9539 C   0  0  0  0  0  0  0  0  0  0  0  0
    0.9363   -0.0886    0.3763 C   0  0  0  0  0  0  0  0  0  0  0  0
   -0.5210    0.3222    0.2211 C   0  0  0  0  0  0  0  0  0  0  0  0
   -0.6204    1.5405   -0.4538 O   0  0  0  0  0  0  0  0  0  0  0  0
   -1.2023   -0.7722   -0.4955 C   0  0  0  0  0  0  0  0  0  0  0  0
   -1.7771   -0.6004   -1.5533 O   0  0  0  0  0  0  0  0  0  0  0  0
   -1.0736    0.4509    1.5887 C   0  0  0  0  0  0  0  0  0  0  0  0
   -1.0796   -0.4965    2.3342 O   0  0  0  0  0  0  0  0  0  0  0  0
    2.6260   -0.6582   -0.7609 H   0  0  0  0  0  0  0  0  0  0  0  0
    1.7560    0.7601   -1.4205 H   0  0  0  0  0  0  0  0  0  0  0  0
    1.0317   -0.9316   -1.6087 H   0  0  0  0  0  0  0  0  0  0  0  0
    0.9248   -1.0716    0.9039 H   0  0  0  0  0  0  0  0  0  0  0  0
    1.5112    0.6224    0.9950 H   0  0  0  0  0  0  0  0  0  0  0  0
   -1.4566    1.5480   -0.9990 H   0  0  0  0  0  0  0  0  0  0  0  0
   -1.2035   -1.7719   -0.0838 H   0  0  0  0  0  0  0  0  0  0  0  0
   -1.4689    1.3955    1.9103 H   0  0  0  0  0  0  0  0  0  0  0  0
  1  2  1  0
  2  3  1  0
  3  4  1  0
  3  5  1  0
  5  6  2  0
  3  7  1  0
  7  8  2  0
  1  9  1  0
  1 10  1  0
  1 11  1  0
  2 12  1  0
  2 13  1  0
  4 14  1  0
  5 15  1  0
  7 16  1  0
M  END
