
     RDKit          3D

 22 21  0  0  0  0  0  0  0  0999 V2000
   -2.2234   -1.0142   -0.2956 C   0  0  0  0  0  0  0  0  0  0  0  0
   -1.3352    0.0958    0.1772 C   0  0  0  0  0  0  0  0  0  0  0  0
    0.1253   -0.1509   -0.1187 C   0  0  0  0  0  0  0  0  0  0  0  0
    0.8973    1.0534    0.4163 C   0  0  0  0  0  0  0  0  0  0  0  0
    0.4549    2.3277   -0.2410 C   0  0  0  0  0  0  0  0  0  0  0  0
    0.6381   -1.3550    0.6401 C   0  0  0  0  0  0  0  0  0  0  0  0
    2.0716   -1.5496    0.3127 C   0  0  0  0  0  0  0  0  0  0  0  0
    2.6987   -2.4709    0.8147 O   0  0  0  0  0  0  0  0  0  0  0  0
   -2.3437   -0.9901   -1.3974 H   0  0  0  0  0  0  0  0  0  0  0  0
   -1.9108   -2.0139   -0.0006 H   0  0  0  0  0  0  0  0  0  0  0  0
   -3.2309   -0.8421    0.1690 H   0  0  0  0  0  0  0  0  0  0  0  0
   -1.6237    1.0121   -0.4116 H   0  0  0  0  0  0  0  0  0  0  0  0
   -1.5291    0.3539    1.2325 H   0  0  0  0  0  0  0  0  0  0  0  0
    0.2511   -0.2248   -1.1978 H   0  0  0  0  0  0  0  0  0  0  0  0
    0.7185    1.1669    1.5068 H   0  0  0  0  0  0  0  0  0  0  0  0
    1.9943    0.9140    0.3015 H   0  0  0  0  0  0  0  0  0  0  0  0
    0.3783    2.2564   -1.3379 H   0  0  0  0  0  0  0  0  0  0  0  0
   -0.5224    2.6247    0.1788 H   0  0  0  0  0  0  0  0  0  0  0  0
    1.2585    3.0905   -0.0256 H   0  0  0  0  0  0  0  0  0  0  0  0
    0.5436   -1.1044    1.7332 H   0  0  0  0  0  0  0  0  0  0  0  0
    0.0631   -2.2707    0.4452 H   0  0  0  0  0  0  0  0  0  0  0  0
    2.6259   -0.9091   -0.3661 H   0  0  0  0  0  0  0  0  0  0  0  0
  1  2  1  0
  2  3  1  0
  3  4  1  0
  4  5  1  0
  3  6  1  0
  6  7  1  0
  7  8  2  0
  1  9  1  0
  1 10  1  0
  1 11  1  0
  2 12  1  0
  2 13  1  0
  3 14  1  0
  4 15  1  0
  4 16  1  0
  5 17  1  0
  5 18  1  0
  5 19  1  0
  6 20  1  0
  6 21  1  0
  7 22  1  0
M  END
