
     RDKit          3D

 21 22  0  0  0  0  0  0  0  0999 V2000
   -0.7585    2.0880   -0.2862 C   0  0  0  0  0  0  0  0  0  0  0  0
   -0.3037    1.1144   -1.3382 C   0  0  0  0  0  0  0  0  0  0  0  0
    0.1309   -0.2126   -0.6904 C   0  0  0  0  0  0  0  0  0  0  0  0
   -1.0787   -0.7237    0.0249 C   0  0  0  0  0  0  0  0  0  0  0  0
   -1.2303   -1.9049    0.7739 C   0  0  0  0  0  0  0  0  0  0  0  0
   -1.0446   -0.6107    1.4539 O   0  0  0  0  0  0  0  0  0  0  0  0
    1.3193    0.0147    0.1832 C   0  0  0  0  0  0  0  0  0  0  0  0
    2.0157   -1.0020    0.9270 C   0  0  0  0  0  0  0  0  0  0  0  0
    2.5354   -0.5491   -0.4004 O   0  0  0  0  0  0  0  0  0  0  0  0
    0.0920    2.6083    0.2079 H   0  0  0  0  0  0  0  0  0  0  0  0
   -1.3604    2.8735   -0.7877 H   0  0  0  0  0  0  0  0  0  0  0  0
   -1.3188    1.5752    0.5188 H   0  0  0  0  0  0  0  0  0  0  0  0
    0.5575    1.5114   -1.9068 H   0  0  0  0  0  0  0  0  0  0  0  0
   -1.1678    0.8609   -1.9792 H   0  0  0  0  0  0  0  0  0  0  0  0
    0.3552   -0.9087   -1.5191 H   0  0  0  0  0  0  0  0  0  0  0  0
   -2.0439   -0.2226   -0.3264 H   0  0  0  0  0  0  0  0  0  0  0  0
   -0.4504   -2.5893    1.0911 H   0  0  0  0  0  0  0  0  0  0  0  0
   -2.2834   -2.2933    0.9483 H   0  0  0  0  0  0  0  0  0  0  0  0
    1.4664    1.0775    0.5304 H   0  0  0  0  0  0  0  0  0  0  0  0
    1.7721   -2.0647    0.9150 H   0  0  0  0  0  0  0  0  0  0  0  0
    2.7961   -0.6424    1.6601 H   0  0  0  0  0  0  0  0  0  0  0  0
  1  2  1  0
  2  3  1  0
  3  4  1  0
  4  5  1  0
  5  6  1  0
  3  7  1  0
  7  8  1  0
  8  9  1  0
  6  4  1  0
  9  7  1  0
  1 10  1  0
  1 11  1  0
  1 12  1  0
  2 13  1  0
  2 14  1  0
  3 15  1  0
  4 16  1  0
  5 17  1  0
  5 18  1  0
  7 19  1  0
  8 20  1  0
  8 21  1  0
M  END
