
     RDKit          3D

 25 25  0  0  0  0  0  0  0  0999 V2000
    0.4632    2.1882    0.2217 C   0  0  0  0  0  0  0  0  0  0  0  0
    0.0261    1.0389    1.0737 C   0  0  0  0  0  0  0  0  0  0  0  0
   -0.2087   -0.2236    0.3165 C   0  0  0  0  0  0  0  0  0  0  0  0
    0.9809   -0.7419   -0.4119 C   0  0  0  0  0  0  0  0  0  0  0  0
    1.9888   -0.9933    0.5167 O   0  0  0  0  0  0  0  0  0  0  0  0
    3.0998   -1.4800   -0.1866 C   0  0  0  0  0  0  0  0  0  0  0  0
   -1.4151   -0.0408   -0.5765 C   0  0  0  0  0  0  0  0  0  0  0  0
   -2.7441    0.2936    0.1343 C   0  0  0  0  0  0  0  0  0  0  0  0
   -2.5225   -1.0009   -0.5349 C   0  0  0  0  0  0  0  0  0  0  0  0
    1.2246    1.9203   -0.5336 H   0  0  0  0  0  0  0  0  0  0  0  0
    0.8689    2.9764    0.9228 H   0  0  0  0  0  0  0  0  0  0  0  0
   -0.4043    2.6982   -0.2781 H   0  0  0  0  0  0  0  0  0  0  0  0
   -0.9637    1.3338    1.5270 H   0  0  0  0  0  0  0  0  0  0  0  0
    0.7160    0.9156    1.9477 H   0  0  0  0  0  0  0  0  0  0  0  0
   -0.5029   -1.0055    1.0686 H   0  0  0  0  0  0  0  0  0  0  0  0
    1.3316   -0.0977   -1.2291 H   0  0  0  0  0  0  0  0  0  0  0  0
    0.7038   -1.7414   -0.8368 H   0  0  0  0  0  0  0  0  0  0  0  0
    3.4090   -0.6994   -0.9145 H   0  0  0  0  0  0  0  0  0  0  0  0
    2.8252   -2.3719   -0.8111 H   0  0  0  0  0  0  0  0  0  0  0  0
    3.9219   -1.7637    0.5067 H   0  0  0  0  0  0  0  0  0  0  0  0
   -1.2493    0.5656   -1.4975 H   0  0  0  0  0  0  0  0  0  0  0  0
   -2.7118    0.2478    1.2613 H   0  0  0  0  0  0  0  0  0  0  0  0
   -3.3785    1.0691   -0.3020 H   0  0  0  0  0  0  0  0  0  0  0  0
   -3.1123   -1.1680   -1.4639 H   0  0  0  0  0  0  0  0  0  0  0  0
   -2.3467   -1.9196    0.0792 H   0  0  0  0  0  0  0  0  0  0  0  0
  1  2  1  0
  2  3  1  0
  3  4  1  0
  4  5  1  0
  5  6  1  0
  3  7  1  0
  7  8  1  0
  8  9  1  0
  9  7  1  0
  1 10  1  0
  1 11  1  0
  1 12  1  0
  2 13  1  0
  2 14  1  0
  3 15  1  0
  4 16  1  0
  4 17  1  0
  6 18  1  0
  6 19  1  0
  6 20  1  0
  7 21  1  0
  8 22  1  0
  8 23  1  0
  9 24  1  0
  9 25  1  0
M  END
