
     RDKit          3D

 23 22  0  0  0  0  0  0  0  0999 V2000
   -1.6639    1.3351    0.8740 C   0  0  0  0  0  0  0  0  0  0  0  0
   -1.4694    0.4730   -0.3511 C   0  0  0  0  0  0  0  0  0  0  0  0
   -0.3979   -0.5631   -0.1687 C   0  0  0  0  0  0  0  0  0  0  0  0
   -0.3383   -1.3378   -1.4970 C   0  0  0  0  0  0  0  0  0  0  0  0
   -0.6960   -1.5527    0.9030 C   0  0  0  0  0  0  0  0  0  0  0  0
    0.9387   -0.0090    0.0419 C   0  0  0  0  0  0  0  0  0  0  0  0
    1.5322   -0.2757    1.1176 O   0  0  0  0  0  0  0  0  0  0  0  0
    1.6059    0.7975   -0.8675 O   0  0  0  0  0  0  0  0  0  0  0  0
    2.8955    1.2669   -0.5389 C   0  0  0  0  0  0  0  0  0  0  0  0
   -2.3867    2.1321    0.6022 H   0  0  0  0  0  0  0  0  0  0  0  0
   -2.1286    0.7393    1.6807 H   0  0  0  0  0  0  0  0  0  0  0  0
   -0.7350    1.8506    1.1814 H   0  0  0  0  0  0  0  0  0  0  0  0
   -1.2519    1.0697   -1.2392 H   0  0  0  0  0  0  0  0  0  0  0  0
   -2.4298   -0.0784   -0.5004 H   0  0  0  0  0  0  0  0  0  0  0  0
   -0.4221   -0.6337   -2.3424 H   0  0  0  0  0  0  0  0  0  0  0  0
   -1.1637   -2.0814   -1.4667 H   0  0  0  0  0  0  0  0  0  0  0  0
    0.6176   -1.8998   -1.4807 H   0  0  0  0  0  0  0  0  0  0  0  0
   -0.2292   -2.5566    0.7005 H   0  0  0  0  0  0  0  0  0  0  0  0
   -0.2847   -1.1577    1.8642 H   0  0  0  0  0  0  0  0  0  0  0  0
   -1.7967   -1.6928    0.9537 H   0  0  0  0  0  0  0  0  0  0  0  0
    3.5711    1.3462   -1.4006 H   0  0  0  0  0  0  0  0  0  0  0  0
    2.8256    2.2465    0.0153 H   0  0  0  0  0  0  0  0  0  0  0  0
    3.4073    0.5819    0.1977 H   0  0  0  0  0  0  0  0  0  0  0  0
  1  2  1  0
  2  3  1  0
  3  4  1  0
  3  5  1  0
  3  6  1  0
  6  7  2  0
  6  8  1  0
  8  9  1  0
  1 10  1  0
  1 11  1  0
  1 12  1  0
  2 13  1  0
  2 14  1  0
  4 15  1  0
  4 16  1  0
  4 17  1  0
  5 18  1  0
  5 19  1  0
  5 20  1  0
  9 21  1  0
  9 22  1  0
  9 23  1  0
M  END
