
     RDKit          3D

 23 22  0  0  0  0  0  0  0  0999 V2000
    2.6441    0.1877    0.0521 C   0  0  0  0  0  0  0  0  0  0  0  0
    1.4143   -0.4064   -0.6015 C   0  0  0  0  0  0  0  0  0  0  0  0
    0.2036   -0.0502    0.2253 C   0  0  0  0  0  0  0  0  0  0  0  0
    0.0153    1.4471    0.3353 C   0  0  0  0  0  0  0  0  0  0  0  0
   -0.1549    2.0225   -0.9298 O   0  0  0  0  0  0  0  0  0  0  0  0
   -1.0653   -0.6387   -0.3002 C   0  0  0  0  0  0  0  0  0  0  0  0
   -2.1959   -0.2095    0.6115 C   0  0  0  0  0  0  0  0  0  0  0  0
   -1.0671   -2.0858   -0.4422 C   0  0  0  0  0  0  0  0  0  0  0  0
   -2.0918   -2.7222   -0.3235 O   0  0  0  0  0  0  0  0  0  0  0  0
    2.5996   -0.1134    1.1259 H   0  0  0  0  0  0  0  0  0  0  0  0
    2.6030    1.3072    0.0567 H   0  0  0  0  0  0  0  0  0  0  0  0
    3.5749   -0.1227   -0.4457 H   0  0  0  0  0  0  0  0  0  0  0  0
    1.2625    0.0402   -1.6166 H   0  0  0  0  0  0  0  0  0  0  0  0
    1.5490   -1.4882   -0.6308 H   0  0  0  0  0  0  0  0  0  0  0  0
    0.3808   -0.4230    1.2627 H   0  0  0  0  0  0  0  0  0  0  0  0
    0.8270    1.9348    0.9046 H   0  0  0  0  0  0  0  0  0  0  0  0
   -0.9354    1.6136    0.8837 H   0  0  0  0  0  0  0  0  0  0  0  0
   -0.6422    2.8781   -0.7745 H   0  0  0  0  0  0  0  0  0  0  0  0
   -1.2833   -0.1958   -1.3146 H   0  0  0  0  0  0  0  0  0  0  0  0
   -2.9519   -1.0354    0.6657 H   0  0  0  0  0  0  0  0  0  0  0  0
   -1.8532   -0.0444    1.6533 H   0  0  0  0  0  0  0  0  0  0  0  0
   -2.6707    0.7308    0.2581 H   0  0  0  0  0  0  0  0  0  0  0  0
   -0.1621   -2.6263   -0.6555 H   0  0  0  0  0  0  0  0  0  0  0  0
  1  2  1  0
  2  3  1  0
  3  4  1  0
  4  5  1  0
  3  6  1  0
  6  7  1  0
  6  8  1  0
  8  9  2  0
  1 10  1  0
  1 11  1  0
  1 12  1  0
  2 13  1  0
  2 14  1  0
  3 15  1  0
  4 16  1  0
  4 17  1  0
  5 18  1  0
  6 19  1  0
  7 20  1  0
  7 21  1  0
  7 22  1  0
  8 23  1  0
M  END
