
     RDKit          3D

 19 18  0  0  0  0  0  0  0  0999 V2000
   -2.5586    0.1948   -0.0071 C   0  0  0  0  0  0  0  0  0  0  0  0
   -1.2116    0.3320   -0.6818 C   0  0  0  0  0  0  0  0  0  0  0  0
   -0.1056   -0.1201    0.2439 C   0  0  0  0  0  0  0  0  0  0  0  0
   -0.2885   -1.5691    0.6400 C   0  0  0  0  0  0  0  0  0  0  0  0
    1.1564    0.0189   -0.3236 O   0  0  0  0  0  0  0  0  0  0  0  0
    2.1431    0.8118    0.2379 C   0  0  0  0  0  0  0  0  0  0  0  0
    1.8642    1.4201    1.3024 O   0  0  0  0  0  0  0  0  0  0  0  0
    3.4148    0.8894   -0.4257 C   0  0  0  0  0  0  0  0  0  0  0  0
    3.6256    0.2634   -1.4745 O   0  0  0  0  0  0  0  0  0  0  0  0
   -3.1142    1.1673    0.0051 H   0  0  0  0  0  0  0  0  0  0  0  0
   -2.4261   -0.0700    1.0707 H   0  0  0  0  0  0  0  0  0  0  0  0
   -3.2048   -0.5734   -0.5215 H   0  0  0  0  0  0  0  0  0  0  0  0
   -1.2164   -0.3367   -1.5595 H   0  0  0  0  0  0  0  0  0  0  0  0
   -1.0783    1.3762   -0.9821 H   0  0  0  0  0  0  0  0  0  0  0  0
   -0.2206    0.4732    1.1861 H   0  0  0  0  0  0  0  0  0  0  0  0
    0.5288   -1.8378    1.3400 H   0  0  0  0  0  0  0  0  0  0  0  0
   -1.2831   -1.7738    1.0514 H   0  0  0  0  0  0  0  0  0  0  0  0
   -0.2153   -2.1612   -0.3134 H   0  0  0  0  0  0  0  0  0  0  0  0
    4.1905    1.4950   -0.0103 H   0  0  0  0  0  0  0  0  0  0  0  0
  1  2  1  0
  2  3  1  0
  3  4  1  0
  3  5  1  0
  5  6  1  0
  6  7  2  0
  6  8  1  0
  8  9  2  0
  1 10  1  0
  1 11  1  0
  1 12  1  0
  2 13  1  0
  2 14  1  0
  3 15  1  0
  4 16  1  0
  4 17  1  0
  4 18  1  0
  8 19  1  0
M  END
