
     RDKit          3D

 27 26  0  0  0  0  0  0  0  0999 V2000
    1.8545   -1.5745    0.7860 C   0  0  0  0  0  0  0  0  0  0  0  0
    1.4260   -0.9362   -0.4981 C   0  0  0  0  0  0  0  0  0  0  0  0
    0.5014    0.2352   -0.3528 C   0  0  0  0  0  0  0  0  0  0  0  0
    1.0622    1.2515    0.3863 O   0  0  0  0  0  0  0  0  0  0  0  0
    1.3362    2.3862   -0.3378 C   0  0  0  0  0  0  0  0  0  0  0  0
   -0.9027   -0.0958    0.0182 C   0  0  0  0  0  0  0  0  0  0  0  0
   -1.7281    1.1973    0.1279 C   0  0  0  0  0  0  0  0  0  0  0  0
   -1.0613   -0.8059    1.3373 C   0  0  0  0  0  0  0  0  0  0  0  0
   -1.6137   -0.9323   -1.0250 C   0  0  0  0  0  0  0  0  0  0  0  0
    1.9470   -0.8846    1.6363 H   0  0  0  0  0  0  0  0  0  0  0  0
    2.8896   -1.9988    0.6142 H   0  0  0  0  0  0  0  0  0  0  0  0
    1.2227   -2.4587    1.0095 H   0  0  0  0  0  0  0  0  0  0  0  0
    0.9776   -1.7482   -1.1183 H   0  0  0  0  0  0  0  0  0  0  0  0
    2.3540   -0.6476   -1.0515 H   0  0  0  0  0  0  0  0  0  0  0  0
    0.4236    0.6559   -1.4101 H   0  0  0  0  0  0  0  0  0  0  0  0
    1.7768    3.1620    0.2814 H   0  0  0  0  0  0  0  0  0  0  0  0
    2.0258    2.1930   -1.1915 H   0  0  0  0  0  0  0  0  0  0  0  0
    0.4041    2.8299   -0.7952 H   0  0  0  0  0  0  0  0  0  0  0  0
   -1.7029    1.6491   -0.8942 H   0  0  0  0  0  0  0  0  0  0  0  0
   -2.7855    0.9703    0.3418 H   0  0  0  0  0  0  0  0  0  0  0  0
   -1.2996    1.8857    0.8670 H   0  0  0  0  0  0  0  0  0  0  0  0
   -1.0792   -1.9106    1.2231 H   0  0  0  0  0  0  0  0  0  0  0  0
   -2.0917   -0.5306    1.7172 H   0  0  0  0  0  0  0  0  0  0  0  0
   -0.3632   -0.5029    2.1116 H   0  0  0  0  0  0  0  0  0  0  0  0
   -1.5403   -0.5018   -2.0426 H   0  0  0  0  0  0  0  0  0  0  0  0
   -1.3263   -2.0008   -0.9854 H   0  0  0  0  0  0  0  0  0  0  0  0
   -2.7069   -0.8870   -0.7552 H   0  0  0  0  0  0  0  0  0  0  0  0
  1  2  1  0
  2  3  1  0
  3  4  1  0
  4  5  1  0
  3  6  1  0
  6  7  1  0
  6  8  1  0
  6  9  1  0
  1 10  1  0
  1 11  1  0
  1 12  1  0
  2 13  1  0
  2 14  1  0
  3 15  1  0
  5 16  1  0
  5 17  1  0
  5 18  1  0
  7 19  1  0
  7 20  1  0
  7 21  1  0
  8 22  1  0
  8 23  1  0
  8 24  1  0
  9 25  1  0
  9 26  1  0
  9 27  1  0
M  END
