
     RDKit          3D

 22 21  0  0  0  0  0  0  0  0999 V2000
   -2.2811    0.8782    0.5080 C   0  0  0  0  0  0  0  0  0  0  0  0
   -2.0319   -0.5514    0.1030 C   0  0  0  0  0  0  0  0  0  0  0  0
   -0.5349   -0.7901    0.2259 C   0  0  0  0  0  0  0  0  0  0  0  0
   -0.2909   -2.0957   -0.1419 O   0  0  0  0  0  0  0  0  0  0  0  0
    0.1466    0.2090   -0.6666 C   0  0  0  0  0  0  0  0  0  0  0  0
    1.6450    0.0983   -0.6534 C   0  0  0  0  0  0  0  0  0  0  0  0
    2.2581    0.3049    0.6904 C   0  0  0  0  0  0  0  0  0  0  0  0
    2.1233    1.1013   -1.5185 O   0  0  0  0  0  0  0  0  0  0  0  0
   -2.1801    1.5166   -0.4039 H   0  0  0  0  0  0  0  0  0  0  0  0
   -1.5338    1.1506    1.2711 H   0  0  0  0  0  0  0  0  0  0  0  0
   -3.2956    1.0362    0.9221 H   0  0  0  0  0  0  0  0  0  0  0  0
   -2.3450   -0.6897   -0.9377 H   0  0  0  0  0  0  0  0  0  0  0  0
   -2.5179   -1.2797    0.7970 H   0  0  0  0  0  0  0  0  0  0  0  0
   -0.2060   -0.6626    1.2672 H   0  0  0  0  0  0  0  0  0  0  0  0
   -1.0234   -2.6702    0.2347 H   0  0  0  0  0  0  0  0  0  0  0  0
   -0.1614    1.2227   -0.3923 H   0  0  0  0  0  0  0  0  0  0  0  0
   -0.1820   -0.0184   -1.7118 H   0  0  0  0  0  0  0  0  0  0  0  0
    1.9265   -0.8994   -1.1012 H   0  0  0  0  0  0  0  0  0  0  0  0
    2.9665   -0.5227    0.8802 H   0  0  0  0  0  0  0  0  0  0  0  0
    1.5506    0.3416    1.5260 H   0  0  0  0  0  0  0  0  0  0  0  0
    2.8671    1.2555    0.7226 H   0  0  0  0  0  0  0  0  0  0  0  0
    3.1002    1.0652   -1.6207 H   0  0  0  0  0  0  0  0  0  0  0  0
  1  2  1  0
  2  3  1  0
  3  4  1  0
  3  5  1  0
  5  6  1  0
  6  7  1  0
  6  8  1  0
  1  9  1  0
  1 10  1  0
  1 11  1  0
  2 12  1  0
  2 13  1  0
  3 14  1  0
  4 15  1  0
  5 16  1  0
  5 17  1  0
  6 18  1  0
  7 19  1  0
  7 20  1  0
  7 21  1  0
  8 22  1  0
M  END
