
     RDKit          3D

 20 19  0  0  0  0  0  0  0  0999 V2000
   -2.0942   -0.6172    0.5647 C   0  0  0  0  0  0  0  0  0  0  0  0
   -1.2809    0.5822    0.1602 C   0  0  0  0  0  0  0  0  0  0  0  0
    0.1872    0.2130   -0.0842 C   0  0  0  0  0  0  0  0  0  0  0  0
    0.8759    1.5117   -0.4810 C   0  0  0  0  0  0  0  0  0  0  0  0
    0.3175   -0.7975   -1.1824 C   0  0  0  0  0  0  0  0  0  0  0  0
    0.6795   -0.2974    1.1334 O   0  0  0  0  0  0  0  0  0  0  0  0
    1.9693   -0.7295    1.2807 C   0  0  0  0  0  0  0  0  0  0  0  0
    2.7713   -0.6817    0.3084 O   0  0  0  0  0  0  0  0  0  0  0  0
   -1.4370   -1.3683    1.0680 H   0  0  0  0  0  0  0  0  0  0  0  0
   -2.8482   -0.3290    1.3391 H   0  0  0  0  0  0  0  0  0  0  0  0
   -2.5834   -1.0122   -0.3371 H   0  0  0  0  0  0  0  0  0  0  0  0
   -1.7047    1.1491   -0.6782 H   0  0  0  0  0  0  0  0  0  0  0  0
   -1.2634    1.2862    1.0380 H   0  0  0  0  0  0  0  0  0  0  0  0
    0.7157    2.2758    0.2813 H   0  0  0  0  0  0  0  0  0  0  0  0
    0.3358    1.8620   -1.4006 H   0  0  0  0  0  0  0  0  0  0  0  0
    1.9280    1.3193   -0.7231 H   0  0  0  0  0  0  0  0  0  0  0  0
    1.0416   -1.6084   -0.9617 H   0  0  0  0  0  0  0  0  0  0  0  0
    0.6687   -0.3176   -2.1279 H   0  0  0  0  0  0  0  0  0  0  0  0
   -0.6506   -1.3144   -1.4042 H   0  0  0  0  0  0  0  0  0  0  0  0
    2.3718   -1.1260    2.2066 H   0  0  0  0  0  0  0  0  0  0  0  0
  1  2  1  0
  2  3  1  0
  3  4  1  0
  3  5  1  0
  3  6  1  0
  6  7  1  0
  7  8  2  0
  1  9  1  0
  1 10  1  0
  1 11  1  0
  2 12  1  0
  2 13  1  0
  4 14  1  0
  4 15  1  0
  4 16  1  0
  5 17  1  0
  5 18  1  0
  5 19  1  0
  7 20  1  0
M  END
