
     RDKit          3D

 21 21  0  0  0  0  0  0  0  0999 V2000
    2.9335    0.1522    0.3753 C   0  0  0  0  0  0  0  0  0  0  0  0
    1.4528    0.0694    0.7815 C   0  0  0  0  0  0  0  0  0  0  0  0
    0.7412   -0.4241   -0.4506 C   0  0  0  0  0  0  0  0  0  0  0  0
    1.3640   -0.8263   -1.4279 O   0  0  0  0  0  0  0  0  0  0  0  0
   -0.7491   -0.4252   -0.5417 C   0  0  0  0  0  0  0  0  0  0  0  0
   -1.5051   -1.2145    0.4898 C   0  0  0  0  0  0  0  0  0  0  0  0
   -1.3181    0.1462   -1.7584 C   0  0  0  0  0  0  0  0  0  0  0  0
   -1.1855    1.0509   -0.5802 C   0  0  0  0  0  0  0  0  0  0  0  0
   -2.2666    1.3782    0.2025 O   0  0  0  0  0  0  0  0  0  0  0  0
    3.4134   -0.8154    0.5243 H   0  0  0  0  0  0  0  0  0  0  0  0
    2.9480    0.3176   -0.7536 H   0  0  0  0  0  0  0  0  0  0  0  0
    3.3824    1.0115    0.8840 H   0  0  0  0  0  0  0  0  0  0  0  0
    1.1450    1.1481    0.9787 H   0  0  0  0  0  0  0  0  0  0  0  0
    1.3448   -0.5410    1.6497 H   0  0  0  0  0  0  0  0  0  0  0  0
   -2.5641   -1.4273    0.1065 H   0  0  0  0  0  0  0  0  0  0  0  0
   -1.0464   -2.2313    0.5049 H   0  0  0  0  0  0  0  0  0  0  0  0
   -1.6353   -0.7667    1.4740 H   0  0  0  0  0  0  0  0  0  0  0  0
   -0.6003    0.2996   -2.6239 H   0  0  0  0  0  0  0  0  0  0  0  0
   -2.3463    0.0469   -2.1220 H   0  0  0  0  0  0  0  0  0  0  0  0
   -0.4143    1.8312   -0.6546 H   0  0  0  0  0  0  0  0  0  0  0  0
   -3.0938    1.2200   -0.2780 H   0  0  0  0  0  0  0  0  0  0  0  0
  1  2  1  0
  2  3  1  0
  3  4  2  0
  3  5  1  0
  5  6  1  0
  5  7  1  0
  7  8  1  0
  8  9  1  0
  8  5  1  0
  1 10  1  0
  1 11  1  0
  1 12  1  0
  2 13  1  0
  2 14  1  0
  6 15  1  0
  6 16  1  0
  6 17  1  0
  7 18  1  0
  7 19  1  0
  8 20  1  0
  9 21  1  0
M  END
