
     RDKit          3D

 16 15  0  0  0  0  0  0  0  0999 V2000
   -2.2029   -0.2047    0.0641 C   0  0  0  0  0  0  0  0  0  0  0  0
   -0.8649    0.2727    0.5366 C   0  0  0  0  0  0  0  0  0  0  0  0
    0.1618    0.3455   -0.5736 C   0  0  0  0  0  0  0  0  0  0  0  0
    0.3637   -0.8959   -1.1530 O   0  0  0  0  0  0  0  0  0  0  0  0
    1.4563    0.7319    0.0766 C   0  0  0  0  0  0  0  0  0  0  0  0
    1.5098    1.8360    0.6729 O   0  0  0  0  0  0  0  0  0  0  0  0
    2.6280   -0.1313    0.0305 C   0  0  0  0  0  0  0  0  0  0  0  0
    2.6036   -1.2542   -0.5656 O   0  0  0  0  0  0  0  0  0  0  0  0
   -2.7069   -0.6854    0.9531 H   0  0  0  0  0  0  0  0  0  0  0  0
   -2.1656   -0.9754   -0.7080 H   0  0  0  0  0  0  0  0  0  0  0  0
   -2.8685    0.6087   -0.2814 H   0  0  0  0  0  0  0  0  0  0  0  0
   -0.4808   -0.5012    1.2626 H   0  0  0  0  0  0  0  0  0  0  0  0
   -0.9918    1.2404    1.0390 H   0  0  0  0  0  0  0  0  0  0  0  0
   -0.1096    1.0554   -1.3628 H   0  0  0  0  0  0  0  0  0  0  0  0
    0.1408   -1.6536   -0.5870 H   0  0  0  0  0  0  0  0  0  0  0  0
    3.5272    0.2109    0.5208 H   0  0  0  0  0  0  0  0  0  0  0  0
  1  2  1  0
  2  3  1  0
  3  4  1  0
  3  5  1  0
  5  6  2  0
  5  7  1  0
  7  8  2  0
  1  9  1  0
  1 10  1  0
  1 11  1  0
  2 12  1  0
  2 13  1  0
  3 14  1  0
  4 15  1  0
  7 16  1  0
M  END
