
     RDKit          3D

 19 19  0  0  0  0  0  0  0  0999 V2000
    2.9594   -0.1421   -0.1288 C   0  0  0  0  0  0  0  0  0  0  0  0
    1.6374    0.5808   -0.0253 C   0  0  0  0  0  0  0  0  0  0  0  0
    0.4945   -0.3500   -0.1622 C   0  0  0  0  0  0  0  0  0  0  0  0
    0.6795   -1.5335   -0.3343 O   0  0  0  0  0  0  0  0  0  0  0  0
   -0.8871    0.1486   -0.0913 C   0  0  0  0  0  0  0  0  0  0  0  0
   -0.9850    1.5278    0.1095 O   0  0  0  0  0  0  0  0  0  0  0  0
   -1.9349   -0.3784   -1.0251 C   0  0  0  0  0  0  0  0  0  0  0  0
   -1.9624   -0.7504    0.3928 C   0  0  0  0  0  0  0  0  0  0  0  0
   -2.9046   -0.2657    1.2763 O   0  0  0  0  0  0  0  0  0  0  0  0
    2.9897   -1.0526    0.4709 H   0  0  0  0  0  0  0  0  0  0  0  0
    3.0579   -0.4724   -1.2014 H   0  0  0  0  0  0  0  0  0  0  0  0
    3.7687    0.5738    0.0498 H   0  0  0  0  0  0  0  0  0  0  0  0
    1.5814    1.1097    0.9689 H   0  0  0  0  0  0  0  0  0  0  0  0
    1.5444    1.3296   -0.8386 H   0  0  0  0  0  0  0  0  0  0  0  0
   -0.4520    1.9445   -0.6330 H   0  0  0  0  0  0  0  0  0  0  0  0
   -1.6456   -1.1230   -1.8133 H   0  0  0  0  0  0  0  0  0  0  0  0
   -2.7520    0.2830   -1.3774 H   0  0  0  0  0  0  0  0  0  0  0  0
   -1.6547   -1.8046    0.6196 H   0  0  0  0  0  0  0  0  0  0  0  0
   -3.5346    0.3749    0.8841 H   0  0  0  0  0  0  0  0  0  0  0  0
  1  2  1  0
  2  3  1  0
  3  4  2  0
  3  5  1  0
  5  6  1  0
  5  7  1  0
  7  8  1  0
  8  9  1  0
  8  5  1  0
  1 10  1  0
  1 11  1  0
  1 12  1  0
  2 13  1  0
  2 14  1  0
  6 15  1  0
  7 16  1  0
  7 17  1  0
  8 18  1  0
  9 19  1  0
M  END
