
     RDKit          3D

 22 21  0  0  0  0  0  0  0  0999 V2000
    1.9006    0.7263   -0.2113 C   0  0  0  0  0  0  0  0  0  0  0  0
    0.8584    0.2928    0.7698 C   0  0  0  0  0  0  0  0  0  0  0  0
   -0.3398   -0.3619    0.0941 C   0  0  0  0  0  0  0  0  0  0  0  0
   -1.3133   -0.7519    1.1745 C   0  0  0  0  0  0  0  0  0  0  0  0
    0.0822   -1.6351   -0.6234 C   0  0  0  0  0  0  0  0  0  0  0  0
    1.0399   -1.3286   -1.5618 O   0  0  0  0  0  0  0  0  0  0  0  0
   -0.8453    0.4951   -0.8438 O   0  0  0  0  0  0  0  0  0  0  0  0
   -1.2798    1.7056   -0.3808 C   0  0  0  0  0  0  0  0  0  0  0  0
    2.6541   -0.0670   -0.4366 H   0  0  0  0  0  0  0  0  0  0  0  0
    1.4408    1.1320   -1.1339 H   0  0  0  0  0  0  0  0  0  0  0  0
    2.4590    1.5805    0.2666 H   0  0  0  0  0  0  0  0  0  0  0  0
    0.5197    1.1337    1.3847 H   0  0  0  0  0  0  0  0  0  0  0  0
    1.3443   -0.4761    1.4349 H   0  0  0  0  0  0  0  0  0  0  0  0
   -0.9588   -1.7366    1.5822 H   0  0  0  0  0  0  0  0  0  0  0  0
   -2.3495   -0.8638    0.7983 H   0  0  0  0  0  0  0  0  0  0  0  0
   -1.3319   -0.0451    2.0252 H   0  0  0  0  0  0  0  0  0  0  0  0
   -0.8536   -2.0597   -1.0600 H   0  0  0  0  0  0  0  0  0  0  0  0
    0.5092   -2.3769    0.0753 H   0  0  0  0  0  0  0  0  0  0  0  0
    0.7995   -1.5671   -2.4892 H   0  0  0  0  0  0  0  0  0  0  0  0
   -0.5352    2.3290    0.1162 H   0  0  0  0  0  0  0  0  0  0  0  0
   -1.6327    2.2895   -1.2734 H   0  0  0  0  0  0  0  0  0  0  0  0
   -2.1677    1.5855    0.2924 H   0  0  0  0  0  0  0  0  0  0  0  0
  1  2  1  0
  2  3  1  0
  3  4  1  0
  3  5  1  0
  5  6  1  0
  3  7  1  0
  7  8  1  0
  1  9  1  0
  1 10  1  0
  1 11  1  0
  2 12  1  0
  2 13  1  0
  4 14  1  0
  4 15  1  0
  4 16  1  0
  5 17  1  0
  5 18  1  0
  6 19  1  0
  8 20  1  0
  8 21  1  0
  8 22  1  0
M  END
