
     RDKit          3D

 19 19  0  0  0  0  0  0  0  0999 V2000
   -0.8854   -1.8401    0.2841 C   0  0  0  0  0  0  0  0  0  0  0  0
   -0.4319   -1.7876   -1.1363 C   0  0  0  0  0  0  0  0  0  0  0  0
    0.9030   -1.0789   -1.2285 C   0  0  0  0  0  0  0  0  0  0  0  0
    1.8596   -1.7793   -0.4673 O   0  0  0  0  0  0  0  0  0  0  0  0
    0.6933    0.2447   -0.6356 C   0  0  0  0  0  0  0  0  0  0  0  0
    0.5003    1.3922   -0.1323 C   0  0  0  0  0  0  0  0  0  0  0  0
    0.2621    2.6847    0.4218 C   0  0  0  0  0  0  0  0  0  0  0  0
   -0.4989    2.8198    1.6166 C   0  0  0  0  0  0  0  0  0  0  0  0
    0.9742    2.9670    1.6451 O   0  0  0  0  0  0  0  0  0  0  0  0
   -1.8933   -1.3774    0.3720 H   0  0  0  0  0  0  0  0  0  0  0  0
   -0.1689   -1.2361    0.9004 H   0  0  0  0  0  0  0  0  0  0  0  0
   -0.9121   -2.8929    0.6246 H   0  0  0  0  0  0  0  0  0  0  0  0
   -1.1700   -1.2455   -1.7468 H   0  0  0  0  0  0  0  0  0  0  0  0
   -0.3116   -2.7928   -1.6103 H   0  0  0  0  0  0  0  0  0  0  0  0
    1.2659   -1.0014   -2.2699 H   0  0  0  0  0  0  0  0  0  0  0  0
    1.3800   -2.4976    0.0078 H   0  0  0  0  0  0  0  0  0  0  0  0
    0.2776    3.5885   -0.2730 H   0  0  0  0  0  0  0  0  0  0  0  0
   -0.9546    3.8200    1.8666 H   0  0  0  0  0  0  0  0  0  0  0  0
   -0.8892    2.0127    2.2300 H   0  0  0  0  0  0  0  0  0  0  0  0
  1  2  1  0
  2  3  1  0
  3  4  1  0
  3  5  1  0
  5  6  3  0
  6  7  1  0
  7  8  1  0
  8  9  1  0
  9  7  1  0
  1 10  1  0
  1 11  1  0
  1 12  1  0
  2 13  1  0
  2 14  1  0
  3 15  1  0
  4 16  1  0
  7 17  1  0
  8 18  1  0
  8 19  1  0
M  END
