
     RDKit          3D

 19 18  0  0  0  0  0  0  0  0999 V2000
   -1.4920   -1.2847   -0.0504 C   0  0  0  0  0  0  0  0  0  0  0  0
   -0.6606   -0.4108   -0.9262 C   0  0  0  0  0  0  0  0  0  0  0  0
    0.0493    0.6977   -0.2018 C   0  0  0  0  0  0  0  0  0  0  0  0
   -0.8907    1.6355    0.5015 C   0  0  0  0  0  0  0  0  0  0  0  0
    1.1398    0.2180    0.6789 C   0  0  0  0  0  0  0  0  0  0  0  0
    2.2708   -0.5361    0.0846 C   0  0  0  0  0  0  0  0  0  0  0  0
    1.1639    0.4086    1.8805 O   0  0  0  0  0  0  0  0  0  0  0  0
   -1.3357   -1.1674    1.0171 H   0  0  0  0  0  0  0  0  0  0  0  0
   -2.5711   -1.0252   -0.2578 H   0  0  0  0  0  0  0  0  0  0  0  0
   -1.3505   -2.3628   -0.3374 H   0  0  0  0  0  0  0  0  0  0  0  0
   -1.2618    0.0642   -1.7368 H   0  0  0  0  0  0  0  0  0  0  0  0
    0.1317   -1.0219   -1.4261 H   0  0  0  0  0  0  0  0  0  0  0  0
    0.5523    1.3090   -1.0100 H   0  0  0  0  0  0  0  0  0  0  0  0
   -1.9349    1.2892    0.2646 H   0  0  0  0  0  0  0  0  0  0  0  0
   -0.8186    2.6808    0.1618 H   0  0  0  0  0  0  0  0  0  0  0  0
   -0.7504    1.6260    1.6192 H   0  0  0  0  0  0  0  0  0  0  0  0
    3.1546    0.1615    0.0849 H   0  0  0  0  0  0  0  0  0  0  0  0
    2.4959   -1.4791    0.6241 H   0  0  0  0  0  0  0  0  0  0  0  0
    2.1081   -0.8028   -0.9706 H   0  0  0  0  0  0  0  0  0  0  0  0
  1  2  1  0
  2  3  1  0
  3  4  1  0
  3  5  1  0
  5  6  1  0
  5  7  2  0
  1  8  1  0
  1  9  1  0
  1 10  1  0
  2 11  1  0
  2 12  1  0
  3 13  1  0
  4 14  1  0
  4 15  1  0
  4 16  1  0
  6 17  1  0
  6 18  1  0
  6 19  1  0
M  END
