
     RDKit          3D

 22 21  0  0  0  0  0  0  0  0999 V2000
    1.8574   -0.9085    0.5016 C   0  0  0  0  0  0  0  0  0  0  0  0
    0.9937    0.2979    0.7338 C   0  0  0  0  0  0  0  0  0  0  0  0
   -0.0879    0.4682   -0.2781 C   0  0  0  0  0  0  0  0  0  0  0  0
    0.5692    0.6109   -1.6423 C   0  0  0  0  0  0  0  0  0  0  0  0
   -0.7704    1.7744    0.0078 C   0  0  0  0  0  0  0  0  0  0  0  0
   -1.9636    1.9223   -0.0015 O   0  0  0  0  0  0  0  0  0  0  0  0
   -1.0512   -0.6627   -0.3487 C   0  0  0  0  0  0  0  0  0  0  0  0
   -1.7856   -0.9279    0.9285 C   0  0  0  0  0  0  0  0  0  0  0  0
    1.3145   -1.8214    0.2816 H   0  0  0  0  0  0  0  0  0  0  0  0
    2.4513   -1.0610    1.4481 H   0  0  0  0  0  0  0  0  0  0  0  0
    2.6073   -0.6728   -0.2739 H   0  0  0  0  0  0  0  0  0  0  0  0
    1.6733    1.1947    0.6281 H   0  0  0  0  0  0  0  0  0  0  0  0
    0.6208    0.3628    1.7875 H   0  0  0  0  0  0  0  0  0  0  0  0
   -0.2746    0.6490   -2.3833 H   0  0  0  0  0  0  0  0  0  0  0  0
    1.1222   -0.3125   -1.8480 H   0  0  0  0  0  0  0  0  0  0  0  0
    1.1686    1.5215   -1.6272 H   0  0  0  0  0  0  0  0  0  0  0  0
   -0.1096    2.6083    0.2312 H   0  0  0  0  0  0  0  0  0  0  0  0
   -1.8111   -0.4180   -1.1243 H   0  0  0  0  0  0  0  0  0  0  0  0
   -0.5205   -1.5580   -0.7030 H   0  0  0  0  0  0  0  0  0  0  0  0
   -2.3664   -0.0301    1.2191 H   0  0  0  0  0  0  0  0  0  0  0  0
   -2.5002   -1.7688    0.7235 H   0  0  0  0  0  0  0  0  0  0  0  0
   -1.1372   -1.2683    1.7395 H   0  0  0  0  0  0  0  0  0  0  0  0
  1  2  1  0
  2  3  1  0
  3  4  1  0
  3  5  1  0
  5  6  2  0
  3  7  1  0
  7  8  1  0
  1  9  1  0
  1 10  1  0
  1 11  1  0
  2 12  1  0
  2 13  1  0
  4 14  1  0
  4 15  1  0
  4 16  1  0
  5 17  1  0
  7 18  1  0
  7 19  1  0
  8 20  1  0
  8 21  1  0
  8 22  1  0
M  END
