
     RDKit          3D

 20 19  0  0  0  0  0  0  0  0999 V2000
   -1.2368   -1.6486    0.1092 C   0  0  0  0  0  0  0  0  0  0  0  0
   -1.5659   -0.2317   -0.3121 C   0  0  0  0  0  0  0  0  0  0  0  0
   -0.7390    0.7699    0.4630 C   0  0  0  0  0  0  0  0  0  0  0  0
   -1.1051    2.1371    0.0071 C   0  0  0  0  0  0  0  0  0  0  0  0
   -0.8779    2.4163   -1.1563 O   0  0  0  0  0  0  0  0  0  0  0  0
    0.7414    0.5813    0.2068 C   0  0  0  0  0  0  0  0  0  0  0  0
    1.1949   -0.6674    0.5689 O   0  0  0  0  0  0  0  0  0  0  0  0
    2.5590   -0.7175    0.2871 C   0  0  0  0  0  0  0  0  0  0  0  0
   -2.1035   -2.3269   -0.1410 H   0  0  0  0  0  0  0  0  0  0  0  0
   -0.3785   -2.0616   -0.4619 H   0  0  0  0  0  0  0  0  0  0  0  0
   -1.1021   -1.7229    1.1974 H   0  0  0  0  0  0  0  0  0  0  0  0
   -1.4306   -0.0998   -1.3949 H   0  0  0  0  0  0  0  0  0  0  0  0
   -2.6298   -0.0600   -0.0169 H   0  0  0  0  0  0  0  0  0  0  0  0
   -0.9107    0.6967    1.5548 H   0  0  0  0  0  0  0  0  0  0  0  0
   -1.5564    2.8963    0.6327 H   0  0  0  0  0  0  0  0  0  0  0  0
    1.3317    1.3880    0.6836 H   0  0  0  0  0  0  0  0  0  0  0  0
    0.9235    0.6830   -0.8966 H   0  0  0  0  0  0  0  0  0  0  0  0
    2.7338   -0.5450   -0.8162 H   0  0  0  0  0  0  0  0  0  0  0  0
    3.0491   -1.6284    0.6518 H   0  0  0  0  0  0  0  0  0  0  0  0
    3.1027    0.1413    0.7782 H   0  0  0  0  0  0  0  0  0  0  0  0
  1  2  1  0
  2  3  1  0
  3  4  1  0
  4  5  2  0
  3  6  1  0
  6  7  1  0
  7  8  1  0
  1  9  1  0
  1 10  1  0
  1 11  1  0
  2 12  1  0
  2 13  1  0
  3 14  1  0
  4 15  1  0
  6 16  1  0
  6 17  1  0
  8 18  1  0
  8 19  1  0
  8 20  1  0
M  END
