
     RDKit          3D

 22 21  0  0  0  0  0  0  0  0999 V2000
    2.7539    0.7479    0.1649 C   0  0  0  0  0  0  0  0  0  0  0  0
    2.0844   -0.3690   -0.6469 C   0  0  0  0  0  0  0  0  0  0  0  0
    0.6915   -0.0051   -0.9876 C   0  0  0  0  0  0  0  0  0  0  0  0
    0.3822    0.2662   -2.1259 O   0  0  0  0  0  0  0  0  0  0  0  0
   -0.3455    0.0334    0.0855 C   0  0  0  0  0  0  0  0  0  0  0  0
   -0.4495   -1.3113    0.7792 C   0  0  0  0  0  0  0  0  0  0  0  0
   -1.6766    0.4096   -0.5117 C   0  0  0  0  0  0  0  0  0  0  0  0
   -2.7946    0.4971    0.4590 C   0  0  0  0  0  0  0  0  0  0  0  0
    3.8350    0.7887   -0.0643 H   0  0  0  0  0  0  0  0  0  0  0  0
    2.2994    1.6840   -0.1718 H   0  0  0  0  0  0  0  0  0  0  0  0
    2.5662    0.5735    1.2521 H   0  0  0  0  0  0  0  0  0  0  0  0
    2.7052   -0.4668   -1.5713 H   0  0  0  0  0  0  0  0  0  0  0  0
    2.1818   -1.3428   -0.1184 H   0  0  0  0  0  0  0  0  0  0  0  0
   -0.0241    0.7927    0.8161 H   0  0  0  0  0  0  0  0  0  0  0  0
    0.3376   -2.0177    0.3799 H   0  0  0  0  0  0  0  0  0  0  0  0
   -1.4530   -1.7461    0.6639 H   0  0  0  0  0  0  0  0  0  0  0  0
   -0.2770   -1.2066    1.8898 H   0  0  0  0  0  0  0  0  0  0  0  0
   -1.9679   -0.3280   -1.3099 H   0  0  0  0  0  0  0  0  0  0  0  0
   -1.5970    1.3907   -1.0706 H   0  0  0  0  0  0  0  0  0  0  0  0
   -2.7631   -0.3280    1.1965 H   0  0  0  0  0  0  0  0  0  0  0  0
   -2.7371    1.4938    0.9876 H   0  0  0  0  0  0  0  0  0  0  0  0
   -3.7516    0.4437   -0.0964 H   0  0  0  0  0  0  0  0  0  0  0  0
  1  2  1  0
  2  3  1  0
  3  4  2  0
  3  5  1  0
  5  6  1  0
  5  7  1  0
  7  8  1  0
  1  9  1  0
  1 10  1  0
  1 11  1  0
  2 12  1  0
  2 13  1  0
  5 14  1  0
  6 15  1  0
  6 16  1  0
  6 17  1  0
  7 18  1  0
  7 19  1  0
  8 20  1  0
  8 21  1  0
  8 22  1  0
M  END
