
     RDKit          3D

 21 21  0  0  0  0  0  0  0  0999 V2000
   -2.2306    0.4280    0.8178 C   0  0  0  0  0  0  0  0  0  0  0  0
   -1.8771   -0.3863   -0.3953 C   0  0  0  0  0  0  0  0  0  0  0  0
   -0.5309   -0.1452   -0.9675 C   0  0  0  0  0  0  0  0  0  0  0  0
   -0.4295   -1.0107   -2.0889 O   0  0  0  0  0  0  0  0  0  0  0  0
    0.6388   -0.3890   -0.0850 C   0  0  0  0  0  0  0  0  0  0  0  0
    0.9191    0.2834    1.1791 C   0  0  0  0  0  0  0  0  0  0  0  0
    1.7238    0.7149    0.0160 C   0  0  0  0  0  0  0  0  0  0  0  0
    3.1437    0.2914   -0.0523 C   0  0  0  0  0  0  0  0  0  0  0  0
    3.4494   -0.7051    0.5997 O   0  0  0  0  0  0  0  0  0  0  0  0
   -1.8818   -0.1426    1.7032 H   0  0  0  0  0  0  0  0  0  0  0  0
   -3.3549    0.4699    0.9507 H   0  0  0  0  0  0  0  0  0  0  0  0
   -1.9168    1.4662    0.7641 H   0  0  0  0  0  0  0  0  0  0  0  0
   -2.0257   -1.4621   -0.2481 H   0  0  0  0  0  0  0  0  0  0  0  0
   -2.6193   -0.0886   -1.1933 H   0  0  0  0  0  0  0  0  0  0  0  0
   -0.4465    0.8800   -1.4165 H   0  0  0  0  0  0  0  0  0  0  0  0
   -0.6914   -1.9251   -1.8087 H   0  0  0  0  0  0  0  0  0  0  0  0
    1.1036   -1.4163   -0.2057 H   0  0  0  0  0  0  0  0  0  0  0  0
    1.4940   -0.3004    1.9600 H   0  0  0  0  0  0  0  0  0  0  0  0
    0.2267    0.9844    1.6901 H   0  0  0  0  0  0  0  0  0  0  0  0
    1.4785    1.6070   -0.5756 H   0  0  0  0  0  0  0  0  0  0  0  0
    3.8268    0.8462   -0.6439 H   0  0  0  0  0  0  0  0  0  0  0  0
  1  2  1  0
  2  3  1  0
  3  4  1  0
  3  5  1  0
  5  6  1  0
  6  7  1  0
  7  8  1  0
  8  9  2  0
  7  5  1  0
  1 10  1  0
  1 11  1  0
  1 12  1  0
  2 13  1  0
  2 14  1  0
  3 15  1  0
  4 16  1  0
  5 17  1  0
  6 18  1  0
  6 19  1  0
  7 20  1  0
  8 21  1  0
M  END
