
     RDKit          3D

 23 22  0  0  0  0  0  0  0  0999 V2000
    3.5234    0.4811   -0.3718 C   0  0  0  0  0  0  0  0  0  0  0  0
    2.2590    0.5732   -1.1805 C   0  0  0  0  0  0  0  0  0  0  0  0
    1.0888    0.1823   -0.3595 C   0  0  0  0  0  0  0  0  0  0  0  0
    1.2826   -0.1569    0.8357 O   0  0  0  0  0  0  0  0  0  0  0  0
   -0.2027    0.1665   -0.8230 O   0  0  0  0  0  0  0  0  0  0  0  0
   -1.3219   -0.2005   -0.0605 C   0  0  0  0  0  0  0  0  0  0  0  0
   -1.2446   -1.6090    0.4595 C   0  0  0  0  0  0  0  0  0  0  0  0
   -2.5270   -0.1513   -1.0066 C   0  0  0  0  0  0  0  0  0  0  0  0
   -1.5502    0.8234    1.0123 C   0  0  0  0  0  0  0  0  0  0  0  0
    3.5407    1.3576    0.3130 H   0  0  0  0  0  0  0  0  0  0  0  0
    3.4685   -0.4822    0.2102 H   0  0  0  0  0  0  0  0  0  0  0  0
    4.4350    0.4025   -0.9948 H   0  0  0  0  0  0  0  0  0  0  0  0
    2.0612    1.6333   -1.5083 H   0  0  0  0  0  0  0  0  0  0  0  0
    2.3829   -0.0727   -2.0753 H   0  0  0  0  0  0  0  0  0  0  0  0
   -1.6034   -2.3064   -0.3520 H   0  0  0  0  0  0  0  0  0  0  0  0
   -0.2298   -1.9408    0.7094 H   0  0  0  0  0  0  0  0  0  0  0  0
   -1.8646   -1.7183    1.3723 H   0  0  0  0  0  0  0  0  0  0  0  0
   -2.8838   -1.1638   -1.2650 H   0  0  0  0  0  0  0  0  0  0  0  0
   -3.3776    0.3690   -0.5118 H   0  0  0  0  0  0  0  0  0  0  0  0
   -2.2976    0.4231   -1.9217 H   0  0  0  0  0  0  0  0  0  0  0  0
   -0.6438    1.1309    1.5474 H   0  0  0  0  0  0  0  0  0  0  0  0
   -1.9465    1.7484    0.5051 H   0  0  0  0  0  0  0  0  0  0  0  0
   -2.3486    0.5105    1.7253 H   0  0  0  0  0  0  0  0  0  0  0  0
  1  2  1  0
  2  3  1  0
  3  4  2  0
  3  5  1  0
  5  6  1  0
  6  7  1  0
  6  8  1  0
  6  9  1  0
  1 10  1  0
  1 11  1  0
  1 12  1  0
  2 13  1  0
  2 14  1  0
  7 15  1  0
  7 16  1  0
  7 17  1  0
  8 18  1  0
  8 19  1  0
  8 20  1  0
  9 21  1  0
  9 22  1  0
  9 23  1  0
M  END
