
     RDKit          3D

 21 21  0  0  0  0  0  0  0  0999 V2000
   -2.4387    0.4551   -0.0040 C   0  0  0  0  0  0  0  0  0  0  0  0
   -1.3824    0.1336   -1.0261 C   0  0  0  0  0  0  0  0  0  0  0  0
   -0.3102   -0.7828   -0.4849 C   0  0  0  0  0  0  0  0  0  0  0  0
   -0.8333   -1.9827   -0.0668 O   0  0  0  0  0  0  0  0  0  0  0  0
    0.4633   -0.1535    0.6340 C   0  0  0  0  0  0  0  0  0  0  0  0
    1.1407    1.1115    0.1563 C   0  0  0  0  0  0  0  0  0  0  0  0
    2.4753    0.5429    0.6098 C   0  0  0  0  0  0  0  0  0  0  0  0
    1.7855   -0.7503    0.8691 C   0  0  0  0  0  0  0  0  0  0  0  0
    2.2199   -1.8501    1.1614 O   0  0  0  0  0  0  0  0  0  0  0  0
   -3.3795    0.6754   -0.5493 H   0  0  0  0  0  0  0  0  0  0  0  0
   -2.1835    1.3713    0.5644 H   0  0  0  0  0  0  0  0  0  0  0  0
   -2.6665   -0.4062    0.6635 H   0  0  0  0  0  0  0  0  0  0  0  0
   -1.8767   -0.3646   -1.8847 H   0  0  0  0  0  0  0  0  0  0  0  0
   -0.9634    1.0805   -1.4210 H   0  0  0  0  0  0  0  0  0  0  0  0
    0.3775   -0.9964   -1.3400 H   0  0  0  0  0  0  0  0  0  0  0  0
   -0.4418   -2.7595   -0.5337 H   0  0  0  0  0  0  0  0  0  0  0  0
   -0.1438   -0.0519    1.5526 H   0  0  0  0  0  0  0  0  0  0  0  0
    0.9163    2.0245    0.7296 H   0  0  0  0  0  0  0  0  0  0  0  0
    1.1341    1.2453   -0.9636 H   0  0  0  0  0  0  0  0  0  0  0  0
    3.2317    0.4406   -0.2067 H   0  0  0  0  0  0  0  0  0  0  0  0
    2.8756    1.0174    1.5400 H   0  0  0  0  0  0  0  0  0  0  0  0
  1  2  1  0
  2  3  1  0
  3  4  1  0
  3  5  1  0
  5  6  1  0
  6  7  1  0
  7  8  1  0
  8  9  2  0
  8  5  1  0
  1 10  1  0
  1 11  1  0
  1 12  1  0
  2 13  1  0
  2 14  1  0
  3 15  1  0
  4 16  1  0
  5 17  1  0
  6 18  1  0
  6 19  1  0
  7 20  1  0
  7 21  1  0
M  END
