
     RDKit          3D

 27 26  0  0  0  0  0  0  0  0999 V2000
   -2.6144    0.4348   -0.6290 C   0  0  0  0  0  0  0  0  0  0  0  0
   -1.1656    0.4333   -1.0138 C   0  0  0  0  0  0  0  0  0  0  0  0
   -0.3079    0.0856    0.1816 C   0  0  0  0  0  0  0  0  0  0  0  0
   -0.5676    1.1383    1.2428 C   0  0  0  0  0  0  0  0  0  0  0  0
   -0.7662   -1.2359    0.7296 C   0  0  0  0  0  0  0  0  0  0  0  0
    1.1498    0.1367   -0.1323 C   0  0  0  0  0  0  0  0  0  0  0  0
    1.9467   -0.2163    1.0873 C   0  0  0  0  0  0  0  0  0  0  0  0
    1.5603   -0.7404   -1.2850 C   0  0  0  0  0  0  0  0  0  0  0  0
    2.9358   -0.5997   -1.4709 O   0  0  0  0  0  0  0  0  0  0  0  0
   -3.1287    1.4012   -0.9006 H   0  0  0  0  0  0  0  0  0  0  0  0
   -3.1793   -0.3397   -1.2284 H   0  0  0  0  0  0  0  0  0  0  0  0
   -2.7991    0.2782    0.4446 H   0  0  0  0  0  0  0  0  0  0  0  0
   -0.8940    1.4765   -1.3001 H   0  0  0  0  0  0  0  0  0  0  0  0
   -0.9872   -0.2180   -1.8739 H   0  0  0  0  0  0  0  0  0  0  0  0
   -0.7746    0.6544    2.2403 H   0  0  0  0  0  0  0  0  0  0  0  0
   -1.4777    1.7271    1.0069 H   0  0  0  0  0  0  0  0  0  0  0  0
    0.2931    1.8294    1.3704 H   0  0  0  0  0  0  0  0  0  0  0  0
   -1.2121   -1.8560   -0.0833 H   0  0  0  0  0  0  0  0  0  0  0  0
   -1.6055   -1.0577    1.4483 H   0  0  0  0  0  0  0  0  0  0  0  0
    0.0298   -1.7801    1.2782 H   0  0  0  0  0  0  0  0  0  0  0  0
    1.4006    1.1881   -0.3956 H   0  0  0  0  0  0  0  0  0  0  0  0
    2.0518   -1.3017    1.2527 H   0  0  0  0  0  0  0  0  0  0  0  0
    2.9823    0.1980    0.9221 H   0  0  0  0  0  0  0  0  0  0  0  0
    1.5373    0.3225    1.9549 H   0  0  0  0  0  0  0  0  0  0  0  0
    1.3782   -1.8147   -1.0529 H   0  0  0  0  0  0  0  0  0  0  0  0
    1.0428   -0.5135   -2.2173 H   0  0  0  0  0  0  0  0  0  0  0  0
    3.1714    0.3697   -1.5766 H   0  0  0  0  0  0  0  0  0  0  0  0
  1  2  1  0
  2  3  1  0
  3  4  1  0
  3  5  1  0
  3  6  1  0
  6  7  1  0
  6  8  1  0
  8  9  1  0
  1 10  1  0
  1 11  1  0
  1 12  1  0
  2 13  1  0
  2 14  1  0
  4 15  1  0
  4 16  1  0
  4 17  1  0
  5 18  1  0
  5 19  1  0
  5 20  1  0
  6 21  1  0
  7 22  1  0
  7 23  1  0
  7 24  1  0
  8 25  1  0
  8 26  1  0
  9 27  1  0
M  END
