
     RDKit          3D

 25 25  0  0  0  0  0  0  0  0999 V2000
   -0.7832   -2.4212    0.0642 C   0  0  0  0  0  0  0  0  0  0  0  0
   -1.3413   -1.0621   -0.1123 C   0  0  0  0  0  0  0  0  0  0  0  0
   -0.4627    0.0910    0.2017 C   0  0  0  0  0  0  0  0  0  0  0  0
   -1.3266    1.3433   -0.0664 C   0  0  0  0  0  0  0  0  0  0  0  0
   -0.5559    2.5978    0.2131 C   0  0  0  0  0  0  0  0  0  0  0  0
    0.7603    0.2750   -0.6076 C   0  0  0  0  0  0  0  0  0  0  0  0
    1.8172   -0.7482   -0.6571 C   0  0  0  0  0  0  0  0  0  0  0  0
    2.1793   -0.1251    0.6716 C   0  0  0  0  0  0  0  0  0  0  0  0
    1.6621    1.0795    0.1408 O   0  0  0  0  0  0  0  0  0  0  0  0
   -0.0365   -2.5038    0.8619 H   0  0  0  0  0  0  0  0  0  0  0  0
   -0.4867   -2.8667   -0.9112 H   0  0  0  0  0  0  0  0  0  0  0  0
   -1.6283   -3.0975    0.4130 H   0  0  0  0  0  0  0  0  0  0  0  0
   -2.2343   -0.9596    0.5781 H   0  0  0  0  0  0  0  0  0  0  0  0
   -1.7912   -0.9576   -1.1252 H   0  0  0  0  0  0  0  0  0  0  0  0
   -0.2952    0.1106    1.2990 H   0  0  0  0  0  0  0  0  0  0  0  0
   -2.2249    1.3376    0.5644 H   0  0  0  0  0  0  0  0  0  0  0  0
   -1.6678    1.3491   -1.1184 H   0  0  0  0  0  0  0  0  0  0  0  0
   -1.2936    3.4076    0.3931 H   0  0  0  0  0  0  0  0  0  0  0  0
    0.0398    2.4390    1.1324 H   0  0  0  0  0  0  0  0  0  0  0  0
    0.0469    2.8560   -0.6720 H   0  0  0  0  0  0  0  0  0  0  0  0
    0.4960    0.7573   -1.5889 H   0  0  0  0  0  0  0  0  0  0  0  0
    2.6099   -0.4899   -1.3896 H   0  0  0  0  0  0  0  0  0  0  0  0
    1.6112   -1.8023   -0.6872 H   0  0  0  0  0  0  0  0  0  0  0  0
    1.6303   -0.5091    1.5502 H   0  0  0  0  0  0  0  0  0  0  0  0
    3.2752   -0.1005    0.8522 H   0  0  0  0  0  0  0  0  0  0  0  0
  1  2  1  0
  2  3  1  0
  3  4  1  0
  4  5  1  0
  3  6  1  0
  6  7  1  0
  7  8  1  0
  8  9  1  0
  9  6  1  0
  1 10  1  0
  1 11  1  0
  1 12  1  0
  2 13  1  0
  2 14  1  0
  3 15  1  0
  4 16  1  0
  4 17  1  0
  5 18  1  0
  5 19  1  0
  5 20  1  0
  6 21  1  0
  7 22  1  0
  7 23  1  0
  8 24  1  0
  8 25  1  0
M  END
