
     RDKit          3D

 23 22  0  0  0  0  0  0  0  0999 V2000
   -2.7188    1.1324   -0.1185 C   0  0  0  0  0  0  0  0  0  0  0  0
   -1.2586    0.8463    0.2291 C   0  0  0  0  0  0  0  0  0  0  0  0
   -0.7100   -0.2581   -0.6480 C   0  0  0  0  0  0  0  0  0  0  0  0
   -1.6034   -1.4787   -0.3600 C   0  0  0  0  0  0  0  0  0  0  0  0
    0.6620   -0.6876   -0.2188 C   0  0  0  0  0  0  0  0  0  0  0  0
    1.6898    0.3692   -0.2614 C   0  0  0  0  0  0  0  0  0  0  0  0
    1.4008    1.4748   -0.6485 O   0  0  0  0  0  0  0  0  0  0  0  0
    3.0582    0.0059    0.1854 C   0  0  0  0  0  0  0  0  0  0  0  0
    3.9418    1.0555    0.1071 O   0  0  0  0  0  0  0  0  0  0  0  0
   -2.9355    2.2326   -0.1286 H   0  0  0  0  0  0  0  0  0  0  0  0
   -3.3597    0.6533    0.6422 H   0  0  0  0  0  0  0  0  0  0  0  0
   -2.9555    0.6497   -1.0911 H   0  0  0  0  0  0  0  0  0  0  0  0
   -0.7396    1.8137    0.0858 H   0  0  0  0  0  0  0  0  0  0  0  0
   -1.2071    0.5714    1.3050 H   0  0  0  0  0  0  0  0  0  0  0  0
   -0.7710    0.0027   -1.7117 H   0  0  0  0  0  0  0  0  0  0  0  0
   -2.5922   -1.3366   -0.7956 H   0  0  0  0  0  0  0  0  0  0  0  0
   -1.6212   -1.5741    0.7441 H   0  0  0  0  0  0  0  0  0  0  0  0
   -1.0841   -2.3967   -0.7412 H   0  0  0  0  0  0  0  0  0  0  0  0
    0.9735   -1.4871   -0.9585 H   0  0  0  0  0  0  0  0  0  0  0  0
    0.5829   -1.1703    0.7808 H   0  0  0  0  0  0  0  0  0  0  0  0
    2.9884   -0.3198    1.2508 H   0  0  0  0  0  0  0  0  0  0  0  0
    3.4138   -0.8041   -0.4854 H   0  0  0  0  0  0  0  0  0  0  0  0
    4.8456    0.7055    0.2876 H   0  0  0  0  0  0  0  0  0  0  0  0
  1  2  1  0
  2  3  1  0
  3  4  1  0
  3  5  1  0
  5  6  1  0
  6  7  2  0
  6  8  1  0
  8  9  1  0
  1 10  1  0
  1 11  1  0
  1 12  1  0
  2 13  1  0
  2 14  1  0
  3 15  1  0
  4 16  1  0
  4 17  1  0
  4 18  1  0
  5 19  1  0
  5 20  1  0
  8 21  1  0
  8 22  1  0
  9 23  1  0
M  END
