
     RDKit          3D

 26 25  0  0  0  0  0  0  0  0999 V2000
    2.7494   -0.5984    0.3749 C   0  0  0  0  0  0  0  0  0  0  0  0
    1.4169   -0.7248   -0.2861 C   0  0  0  0  0  0  0  0  0  0  0  0
    0.4005    0.1897    0.3756 C   0  0  0  0  0  0  0  0  0  0  0  0
    0.8029    1.6303    0.3019 C   0  0  0  0  0  0  0  0  0  0  0  0
   -0.9933   -0.0650   -0.1166 C   0  0  0  0  0  0  0  0  0  0  0  0
   -1.9141    0.8981    0.6079 C   0  0  0  0  0  0  0  0  0  0  0  0
   -1.1512    0.0420   -1.5979 C   0  0  0  0  0  0  0  0  0  0  0  0
   -1.4134   -1.4620    0.2966 C   0  0  0  0  0  0  0  0  0  0  0  0
    3.4325   -0.0540   -0.3070 H   0  0  0  0  0  0  0  0  0  0  0  0
    3.1968   -1.5940    0.6031 H   0  0  0  0  0  0  0  0  0  0  0  0
    2.7249   -0.0278    1.3249 H   0  0  0  0  0  0  0  0  0  0  0  0
    1.4550   -0.6032   -1.3722 H   0  0  0  0  0  0  0  0  0  0  0  0
    1.0536   -1.7723   -0.0978 H   0  0  0  0  0  0  0  0  0  0  0  0
    0.4200   -0.1003    1.4566 H   0  0  0  0  0  0  0  0  0  0  0  0
    1.6781    1.7690    0.9670 H   0  0  0  0  0  0  0  0  0  0  0  0
   -0.0168    2.2487    0.6731 H   0  0  0  0  0  0  0  0  0  0  0  0
    1.0994    1.9585   -0.7187 H   0  0  0  0  0  0  0  0  0  0  0  0
   -1.9452    1.8445    0.0302 H   0  0  0  0  0  0  0  0  0  0  0  0
   -2.9222    0.4388    0.6296 H   0  0  0  0  0  0  0  0  0  0  0  0
   -1.5476    1.0690    1.6486 H   0  0  0  0  0  0  0  0  0  0  0  0
   -2.1216    0.5766   -1.8014 H   0  0  0  0  0  0  0  0  0  0  0  0
   -0.3652    0.6233   -2.1008 H   0  0  0  0  0  0  0  0  0  0  0  0
   -1.2498   -0.9409   -2.1097 H   0  0  0  0  0  0  0  0  0  0  0  0
   -1.0478   -2.2446   -0.3703 H   0  0  0  0  0  0  0  0  0  0  0  0
   -2.5402   -1.4683    0.2176 H   0  0  0  0  0  0  0  0  0  0  0  0
   -1.2018   -1.6331    1.3710 H   0  0  0  0  0  0  0  0  0  0  0  0
  1  2  1  0
  2  3  1  0
  3  4  1  0
  3  5  1  0
  5  6  1  0
  5  7  1  0
  5  8  1  0
  1  9  1  0
  1 10  1  0
  1 11  1  0
  2 12  1  0
  2 13  1  0
  3 14  1  0
  4 15  1  0
  4 16  1  0
  4 17  1  0
  6 18  1  0
  6 19  1  0
  6 20  1  0
  7 21  1  0
  7 22  1  0
  7 23  1  0
  8 24  1  0
  8 25  1  0
  8 26  1  0
M  END
