
     RDKit          3D

 25 25  0  0  0  0  0  0  0  0999 V2000
    2.8614   -0.8249   -0.2550 C   0  0  0  0  0  0  0  0  0  0  0  0
    1.4206   -0.7763    0.1751 C   0  0  0  0  0  0  0  0  0  0  0  0
    0.6157    0.2326   -0.6141 C   0  0  0  0  0  0  0  0  0  0  0  0
    1.1053    1.6354   -0.5016 C   0  0  0  0  0  0  0  0  0  0  0  0
   -0.8308    0.0447   -0.1740 C   0  0  0  0  0  0  0  0  0  0  0  0
   -1.3000   -1.2162   -0.4256 O   0  0  0  0  0  0  0  0  0  0  0  0
   -2.6081   -1.4183   -0.0720 C   0  0  0  0  0  0  0  0  0  0  0  0
   -1.7096    1.1663    0.0844 C   0  0  0  0  0  0  0  0  0  0  0  0
   -0.9920    0.5734    1.2861 C   0  0  0  0  0  0  0  0  0  0  0  0
    2.8839   -1.0431   -1.3418 H   0  0  0  0  0  0  0  0  0  0  0  0
    3.4546    0.0399    0.0480 H   0  0  0  0  0  0  0  0  0  0  0  0
    3.3093   -1.7256    0.2440 H   0  0  0  0  0  0  0  0  0  0  0  0
    1.3115   -0.6002    1.2559 H   0  0  0  0  0  0  0  0  0  0  0  0
    0.9756   -1.7698   -0.0365 H   0  0  0  0  0  0  0  0  0  0  0  0
    0.6754   -0.0736   -1.6962 H   0  0  0  0  0  0  0  0  0  0  0  0
    2.1834    1.6176   -0.1885 H   0  0  0  0  0  0  0  0  0  0  0  0
    1.1434    2.0957   -1.5329 H   0  0  0  0  0  0  0  0  0  0  0  0
    0.5418    2.2978    0.1578 H   0  0  0  0  0  0  0  0  0  0  0  0
   -3.3209   -0.7473   -0.6198 H   0  0  0  0  0  0  0  0  0  0  0  0
   -2.9653   -2.4506   -0.3789 H   0  0  0  0  0  0  0  0  0  0  0  0
   -2.7694   -1.3722    1.0169 H   0  0  0  0  0  0  0  0  0  0  0  0
   -1.4508    2.1988   -0.2346 H   0  0  0  0  0  0  0  0  0  0  0  0
   -2.7976    1.0044    0.1511 H   0  0  0  0  0  0  0  0  0  0  0  0
   -1.5113   -0.1183    1.9577 H   0  0  0  0  0  0  0  0  0  0  0  0
   -0.2262    1.2300    1.6945 H   0  0  0  0  0  0  0  0  0  0  0  0
  1  2  1  0
  2  3  1  0
  3  4  1  0
  3  5  1  0
  5  6  1  0
  6  7  1  0
  5  8  1  0
  8  9  1  0
  9  5  1  0
  1 10  1  0
  1 11  1  0
  1 12  1  0
  2 13  1  0
  2 14  1  0
  3 15  1  0
  4 16  1  0
  4 17  1  0
  4 18  1  0
  7 19  1  0
  7 20  1  0
  7 21  1  0
  8 22  1  0
  8 23  1  0
  9 24  1  0
  9 25  1  0
M  END
