
     RDKit          3D

 29 28  0  0  0  0  0  0  0  0999 V2000
    1.9782   -0.3345    1.4102 C   0  0  0  0  0  0  0  0  0  0  0  0
    0.7128   -0.9658    0.9516 C   0  0  0  0  0  0  0  0  0  0  0  0
   -0.1902   -0.1230    0.1180 C   0  0  0  0  0  0  0  0  0  0  0  0
   -1.4003   -1.0207   -0.1968 C   0  0  0  0  0  0  0  0  0  0  0  0
   -1.0141   -2.2591   -0.9374 C   0  0  0  0  0  0  0  0  0  0  0  0
   -0.7228    1.0269    0.9337 C   0  0  0  0  0  0  0  0  0  0  0  0
   -1.6408    1.9486    0.1942 C   0  0  0  0  0  0  0  0  0  0  0  0
    0.3423    0.3405   -1.1834 C   0  0  0  0  0  0  0  0  0  0  0  0
    1.5611    1.1824   -1.1731 C   0  0  0  0  0  0  0  0  0  0  0  0
    2.3790   -1.0016    2.2352 H   0  0  0  0  0  0  0  0  0  0  0  0
    2.7923   -0.3388    0.6629 H   0  0  0  0  0  0  0  0  0  0  0  0
    1.8367    0.6468    1.9225 H   0  0  0  0  0  0  0  0  0  0  0  0
    0.1239   -1.2165    1.8841 H   0  0  0  0  0  0  0  0  0  0  0  0
    0.9723   -1.9351    0.4890 H   0  0  0  0  0  0  0  0  0  0  0  0
   -2.1577   -0.4731   -0.7519 H   0  0  0  0  0  0  0  0  0  0  0  0
   -1.7748   -1.3262    0.8252 H   0  0  0  0  0  0  0  0  0  0  0  0
   -1.2201   -3.1833   -0.3209 H   0  0  0  0  0  0  0  0  0  0  0  0
    0.0221   -2.3390   -1.2535 H   0  0  0  0  0  0  0  0  0  0  0  0
   -1.6378   -2.4111   -1.8557 H   0  0  0  0  0  0  0  0  0  0  0  0
    0.1020    1.6572    1.3563 H   0  0  0  0  0  0  0  0  0  0  0  0
   -1.2537    0.6209    1.8320 H   0  0  0  0  0  0  0  0  0  0  0  0
   -2.3871    2.3486    0.9390 H   0  0  0  0  0  0  0  0  0  0  0  0
   -1.0994    2.8768   -0.1485 H   0  0  0  0  0  0  0  0  0  0  0  0
   -2.1492    1.5342   -0.6737 H   0  0  0  0  0  0  0  0  0  0  0  0
   -0.4722    0.9582   -1.6638 H   0  0  0  0  0  0  0  0  0  0  0  0
    0.4942   -0.4862   -1.9139 H   0  0  0  0  0  0  0  0  0  0  0  0
    2.4686    0.5983   -1.5085 H   0  0  0  0  0  0  0  0  0  0  0  0
    1.5024    2.0122   -1.9370 H   0  0  0  0  0  0  0  0  0  0  0  0
    1.8322    1.6622   -0.2356 H   0  0  0  0  0  0  0  0  0  0  0  0
  1  2  1  0
  2  3  1  0
  3  4  1  0
  4  5  1  0
  3  6  1  0
  6  7  1  0
  3  8  1  0
  8  9  1  0
  1 10  1  0
  1 11  1  0
  1 12  1  0
  2 13  1  0
  2 14  1  0
  4 15  1  0
  4 16  1  0
  5 17  1  0
  5 18  1  0
  5 19  1  0
  6 20  1  0
  6 21  1  0
  7 22  1  0
  7 23  1  0
  7 24  1  0
  8 25  1  0
  8 26  1  0
  9 27  1  0
  9 28  1  0
  9 29  1  0
M  END
