
     RDKit          3D

 22 21  0  0  0  0  0  0  0  0999 V2000
   -2.8009    0.9908    0.2249 C   0  0  0  0  0  0  0  0  0  0  0  0
   -1.3408    0.9397    0.5973 C   0  0  0  0  0  0  0  0  0  0  0  0
   -0.5888   -0.0964   -0.2163 C   0  0  0  0  0  0  0  0  0  0  0  0
   -1.1556   -1.4837   -0.0039 C   0  0  0  0  0  0  0  0  0  0  0  0
    0.7186   -0.1215    0.2904 O   0  0  0  0  0  0  0  0  0  0  0  0
    1.6221    0.1489   -0.7496 C   0  0  0  0  0  0  0  0  0  0  0  0
    3.0060    0.1027   -0.1180 C   0  0  0  0  0  0  0  0  0  0  0  0
    3.1560   -1.1847    0.4047 O   0  0  0  0  0  0  0  0  0  0  0  0
   -2.9394    0.8732   -0.8742 H   0  0  0  0  0  0  0  0  0  0  0  0
   -3.2440    1.9677    0.5003 H   0  0  0  0  0  0  0  0  0  0  0  0
   -3.3632    0.2020    0.7685 H   0  0  0  0  0  0  0  0  0  0  0  0
   -0.9041    1.9316    0.3609 H   0  0  0  0  0  0  0  0  0  0  0  0
   -1.2224    0.7652    1.6698 H   0  0  0  0  0  0  0  0  0  0  0  0
   -0.6280    0.1225   -1.2851 H   0  0  0  0  0  0  0  0  0  0  0  0
   -0.6379   -2.1407   -0.7562 H   0  0  0  0  0  0  0  0  0  0  0  0
   -2.2253   -1.5472   -0.2006 H   0  0  0  0  0  0  0  0  0  0  0  0
   -0.8676   -1.8557    1.0034 H   0  0  0  0  0  0  0  0  0  0  0  0
    1.5167   -0.6774   -1.5021 H   0  0  0  0  0  0  0  0  0  0  0  0
    1.4028    1.1266   -1.1988 H   0  0  0  0  0  0  0  0  0  0  0  0
    2.9899    0.8030    0.7399 H   0  0  0  0  0  0  0  0  0  0  0  0
    3.7799    0.3446   -0.8618 H   0  0  0  0  0  0  0  0  0  0  0  0
    3.7261   -1.2111    1.2065 H   0  0  0  0  0  0  0  0  0  0  0  0
  1  2  1  0
  2  3  1  0
  3  4  1  0
  3  5  1  0
  5  6  1  0
  6  7  1  0
  7  8  1  0
  1  9  1  0
  1 10  1  0
  1 11  1  0
  2 12  1  0
  2 13  1  0
  3 14  1  0
  4 15  1  0
  4 16  1  0
  4 17  1  0
  6 18  1  0
  6 19  1  0
  7 20  1  0
  7 21  1  0
  8 22  1  0
M  END
