
     RDKit          3D

 25 25  0  0  0  0  0  0  0  0999 V2000
   -0.9819    2.3382   -0.4551 C   0  0  0  0  0  0  0  0  0  0  0  0
   -1.1866    0.9100   -0.0081 C   0  0  0  0  0  0  0  0  0  0  0  0
    0.0480    0.0628   -0.2474 C   0  0  0  0  0  0  0  0  0  0  0  0
    1.1713    0.6588    0.5265 C   0  0  0  0  0  0  0  0  0  0  0  0
    2.4797   -0.0505    0.4099 C   0  0  0  0  0  0  0  0  0  0  0  0
    2.9560   -0.1069   -0.8968 O   0  0  0  0  0  0  0  0  0  0  0  0
   -0.2867   -1.3512    0.1378 C   0  0  0  0  0  0  0  0  0  0  0  0
   -1.4322   -1.9681   -0.6455 C   0  0  0  0  0  0  0  0  0  0  0  0
   -1.6112   -1.6528    0.7992 C   0  0  0  0  0  0  0  0  0  0  0  0
   -0.5776    2.9466    0.3828 H   0  0  0  0  0  0  0  0  0  0  0  0
   -0.3494    2.4296   -1.3411 H   0  0  0  0  0  0  0  0  0  0  0  0
   -1.9684    2.7922   -0.7182 H   0  0  0  0  0  0  0  0  0  0  0  0
   -2.0588    0.5132   -0.5726 H   0  0  0  0  0  0  0  0  0  0  0  0
   -1.4187    0.9689    1.0961 H   0  0  0  0  0  0  0  0  0  0  0  0
    0.2260    0.0749   -1.3413 H   0  0  0  0  0  0  0  0  0  0  0  0
    1.3257    1.6940    0.1574 H   0  0  0  0  0  0  0  0  0  0  0  0
    0.9028    0.7346    1.5981 H   0  0  0  0  0  0  0  0  0  0  0  0
    2.4859   -1.0731    0.8075 H   0  0  0  0  0  0  0  0  0  0  0  0
    3.2272    0.5308    0.9906 H   0  0  0  0  0  0  0  0  0  0  0  0
    3.8250   -0.5996   -0.8471 H   0  0  0  0  0  0  0  0  0  0  0  0
    0.5104   -2.0633    0.4008 H   0  0  0  0  0  0  0  0  0  0  0  0
   -1.3709   -3.0535   -0.9073 H   0  0  0  0  0  0  0  0  0  0  0  0
   -1.9208   -1.3644   -1.4360 H   0  0  0  0  0  0  0  0  0  0  0  0
   -2.3227   -0.8582    1.0258 H   0  0  0  0  0  0  0  0  0  0  0  0
   -1.6722   -2.5130    1.5040 H   0  0  0  0  0  0  0  0  0  0  0  0
  1  2  1  0
  2  3  1  0
  3  4  1  0
  4  5  1  0
  5  6  1  0
  3  7  1  0
  7  8  1  0
  8  9  1  0
  9  7  1  0
  1 10  1  0
  1 11  1  0
  1 12  1  0
  2 13  1  0
  2 14  1  0
  3 15  1  0
  4 16  1  0
  4 17  1  0
  5 18  1  0
  5 19  1  0
  6 20  1  0
  7 21  1  0
  8 22  1  0
  8 23  1  0
  9 24  1  0
  9 25  1  0
M  END
