
     RDKit          3D

 21 21  0  0  0  0  0  0  0  0999 V2000
    2.2256    0.6677    0.0037 C   0  0  0  0  0  0  0  0  0  0  0  0
    1.5517   -0.6125   -0.3410 C   0  0  0  0  0  0  0  0  0  0  0  0
    0.2658   -0.7918    0.3603 C   0  0  0  0  0  0  0  0  0  0  0  0
   -0.3415   -2.0215    0.0233 O   0  0  0  0  0  0  0  0  0  0  0  0
   -0.7842    0.2503    0.1961 C   0  0  0  0  0  0  0  0  0  0  0  0
   -0.6167    1.6487    0.6025 C   0  0  0  0  0  0  0  0  0  0  0  0
   -1.5200    2.4359    0.3812 O   0  0  0  0  0  0  0  0  0  0  0  0
   -1.7599    0.0550   -1.0169 C   0  0  0  0  0  0  0  0  0  0  0  0
   -2.2040   -0.2966    0.3526 C   0  0  0  0  0  0  0  0  0  0  0  0
    3.3092    0.6216   -0.3156 H   0  0  0  0  0  0  0  0  0  0  0  0
    1.8450    1.5409   -0.5518 H   0  0  0  0  0  0  0  0  0  0  0  0
    2.2650    0.8201    1.0828 H   0  0  0  0  0  0  0  0  0  0  0  0
    2.2409   -1.4467    0.0048 H   0  0  0  0  0  0  0  0  0  0  0  0
    1.4940   -0.7759   -1.4437 H   0  0  0  0  0  0  0  0  0  0  0  0
    0.4899   -0.8867    1.4635 H   0  0  0  0  0  0  0  0  0  0  0  0
    0.1573   -2.4822   -0.6794 H   0  0  0  0  0  0  0  0  0  0  0  0
    0.2645    1.9975    1.0848 H   0  0  0  0  0  0  0  0  0  0  0  0
   -1.4092   -0.7109   -1.7136 H   0  0  0  0  0  0  0  0  0  0  0  0
   -2.1793    0.9813   -1.4346 H   0  0  0  0  0  0  0  0  0  0  0  0
   -2.3443   -1.3592    0.6251 H   0  0  0  0  0  0  0  0  0  0  0  0
   -2.9499    0.3651    0.8540 H   0  0  0  0  0  0  0  0  0  0  0  0
  1  2  1  0
  2  3  1  0
  3  4  1  0
  3  5  1  0
  5  6  1  0
  6  7  2  0
  5  8  1  0
  8  9  1  0
  9  5  1  0
  1 10  1  0
  1 11  1  0
  1 12  1  0
  2 13  1  0
  2 14  1  0
  3 15  1  0
  4 16  1  0
  6 17  1  0
  8 18  1  0
  8 19  1  0
  9 20  1  0
  9 21  1  0
M  END
