
     RDKit          3D

 17 16  0  0  0  0  0  0  0  0999 V2000
    2.5112   -0.5069    0.3787 C   0  0  0  0  0  0  0  0  0  0  0  0
    1.5031    0.2964   -0.3819 C   0  0  0  0  0  0  0  0  0  0  0  0
    0.1473    0.2037    0.2471 C   0  0  0  0  0  0  0  0  0  0  0  0
    0.0287   -0.4648    1.2325 O   0  0  0  0  0  0  0  0  0  0  0  0
   -0.9366    0.9584   -0.4175 C   0  0  0  0  0  0  0  0  0  0  0  0
   -2.1930    0.8206    0.1198 O   0  0  0  0  0  0  0  0  0  0  0  0
   -2.6368   -0.4766    0.0113 C   0  0  0  0  0  0  0  0  0  0  0  0
    3.1935   -0.9819   -0.3683 H   0  0  0  0  0  0  0  0  0  0  0  0
    2.0073   -1.3652    0.9097 H   0  0  0  0  0  0  0  0  0  0  0  0
    3.0691    0.1298    1.1007 H   0  0  0  0  0  0  0  0  0  0  0  0
    1.8676    1.3407   -0.4393 H   0  0  0  0  0  0  0  0  0  0  0  0
    1.4150   -0.0856   -1.4266 H   0  0  0  0  0  0  0  0  0  0  0  0
   -0.6440    2.0289   -0.5504 H   0  0  0  0  0  0  0  0  0  0  0  0
   -0.9890    0.5377   -1.4697 H   0  0  0  0  0  0  0  0  0  0  0  0
   -3.6625   -0.5368    0.4519 H   0  0  0  0  0  0  0  0  0  0  0  0
   -1.9661   -1.1735    0.5331 H   0  0  0  0  0  0  0  0  0  0  0  0
   -2.7144   -0.7248   -1.0881 H   0  0  0  0  0  0  0  0  0  0  0  0
  1  2  1  0
  2  3  1  0
  3  4  2  0
  3  5  1  0
  5  6  1  0
  6  7  1  0
  1  8  1  0
  1  9  1  0
  1 10  1  0
  2 11  1  0
  2 12  1  0
  5 13  1  0
  5 14  1  0
  7 15  1  0
  7 16  1  0
  7 17  1  0
M  END
