
     RDKit          3D

 21 20  0  0  0  0  0  0  0  0999 V2000
    2.0444    0.4598   -0.6610 C   0  0  0  0  0  0  0  0  0  0  0  0
    1.0646    1.0723    0.2696 C   0  0  0  0  0  0  0  0  0  0  0  0
   -0.0631    0.1778    0.6793 C   0  0  0  0  0  0  0  0  0  0  0  0
    0.3547   -1.0684    1.3801 C   0  0  0  0  0  0  0  0  0  0  0  0
   -0.9283   -0.2283   -0.5068 C   0  0  0  0  0  0  0  0  0  0  0  0
   -1.5227    0.9598   -1.1639 C   0  0  0  0  0  0  0  0  0  0  0  0
   -2.7162    1.1583   -1.1234 O   0  0  0  0  0  0  0  0  0  0  0  0
   -1.9975   -1.1566   -0.1148 C   0  0  0  0  0  0  0  0  0  0  0  0
   -2.3773   -2.0190   -0.8806 O   0  0  0  0  0  0  0  0  0  0  0  0
    1.7503    0.5824   -1.7424 H   0  0  0  0  0  0  0  0  0  0  0  0
    2.2016   -0.6258   -0.5089 H   0  0  0  0  0  0  0  0  0  0  0  0
    3.0496    0.9291   -0.5747 H   0  0  0  0  0  0  0  0  0  0  0  0
    0.6129    1.9578   -0.2377 H   0  0  0  0  0  0  0  0  0  0  0  0
    1.5926    1.4709    1.1559 H   0  0  0  0  0  0  0  0  0  0  0  0
   -0.7168    0.7581    1.3654 H   0  0  0  0  0  0  0  0  0  0  0  0
    1.0902   -0.9060    2.1839 H   0  0  0  0  0  0  0  0  0  0  0  0
   -0.5719   -1.4985    1.8601 H   0  0  0  0  0  0  0  0  0  0  0  0
    0.6846   -1.8739    0.6666 H   0  0  0  0  0  0  0  0  0  0  0  0
   -0.2336   -0.7119   -1.2299 H   0  0  0  0  0  0  0  0  0  0  0  0
   -0.8650    1.6391   -1.6765 H   0  0  0  0  0  0  0  0  0  0  0  0
   -2.4531   -1.0769    0.8597 H   0  0  0  0  0  0  0  0  0  0  0  0
  1  2  1  0
  2  3  1  0
  3  4  1  0
  3  5  1  0
  5  6  1  0
  6  7  2  0
  5  8  1  0
  8  9  2  0
  1 10  1  0
  1 11  1  0
  1 12  1  0
  2 13  1  0
  2 14  1  0
  3 15  1  0
  4 16  1  0
  4 17  1  0
  4 18  1  0
  5 19  1  0
  6 20  1  0
  8 21  1  0
M  END
