
     RDKit          3D

 22 21  0  0  0  0  0  0  0  0999 V2000
   -1.6417   -1.4515   -0.3157 C   0  0  0  0  0  0  0  0  0  0  0  0
   -1.3706    0.0020   -0.6162 C   0  0  0  0  0  0  0  0  0  0  0  0
   -0.4669    0.6061    0.4439 C   0  0  0  0  0  0  0  0  0  0  0  0
   -0.2261    2.0586    0.1059 C   0  0  0  0  0  0  0  0  0  0  0  0
    0.8041   -0.1750    0.6057 C   0  0  0  0  0  0  0  0  0  0  0  0
    1.5639    0.4457    1.5939 O   0  0  0  0  0  0  0  0  0  0  0  0
    1.5979   -0.3123   -0.6548 C   0  0  0  0  0  0  0  0  0  0  0  0
    2.7262   -1.0956   -0.3435 O   0  0  0  0  0  0  0  0  0  0  0  0
   -2.0144   -1.5315    0.7321 H   0  0  0  0  0  0  0  0  0  0  0  0
   -2.3893   -1.8306   -1.0465 H   0  0  0  0  0  0  0  0  0  0  0  0
   -0.7341   -2.0734   -0.3907 H   0  0  0  0  0  0  0  0  0  0  0  0
   -2.3710    0.5177   -0.5489 H   0  0  0  0  0  0  0  0  0  0  0  0
   -0.9913    0.1486   -1.6301 H   0  0  0  0  0  0  0  0  0  0  0  0
   -1.0007    0.6045    1.4162 H   0  0  0  0  0  0  0  0  0  0  0  0
    0.2013    2.2122   -0.8839 H   0  0  0  0  0  0  0  0  0  0  0  0
    0.3851    2.5656    0.8799 H   0  0  0  0  0  0  0  0  0  0  0  0
   -1.2332    2.5591    0.1584 H   0  0  0  0  0  0  0  0  0  0  0  0
    0.5270   -1.1916    0.9451 H   0  0  0  0  0  0  0  0  0  0  0  0
    1.1802    0.1562    2.4826 H   0  0  0  0  0  0  0  0  0  0  0  0
    1.0100   -0.8177   -1.4375 H   0  0  0  0  0  0  0  0  0  0  0  0
    2.0085    0.6520   -1.0228 H   0  0  0  0  0  0  0  0  0  0  0  0
    2.4351   -2.0492   -0.4731 H   0  0  0  0  0  0  0  0  0  0  0  0
  1  2  1  0
  2  3  1  0
  3  4  1  0
  3  5  1  0
  5  6  1  0
  5  7  1  0
  7  8  1  0
  1  9  1  0
  1 10  1  0
  1 11  1  0
  2 12  1  0
  2 13  1  0
  3 14  1  0
  4 15  1  0
  4 16  1  0
  4 17  1  0
  5 18  1  0
  6 19  1  0
  7 20  1  0
  7 21  1  0
  8 22  1  0
M  END
