
     RDKit          3D

 27 26  0  0  0  0  0  0  0  0999 V2000
    2.7384   -1.1872    0.5906 C   0  0  0  0  0  0  0  0  0  0  0  0
    1.7020   -0.5478   -0.3064 C   0  0  0  0  0  0  0  0  0  0  0  0
    0.7342    0.3059    0.4829 C   0  0  0  0  0  0  0  0  0  0  0  0
    1.5781    1.3860    1.1676 C   0  0  0  0  0  0  0  0  0  0  0  0
   -0.2442    1.0224   -0.4013 C   0  0  0  0  0  0  0  0  0  0  0  0
   -1.0944    0.1085   -1.2294 C   0  0  0  0  0  0  0  0  0  0  0  0
   -1.9519    0.8788   -1.9987 O   0  0  0  0  0  0  0  0  0  0  0  0
   -1.8802   -0.8729   -0.4128 C   0  0  0  0  0  0  0  0  0  0  0  0
   -2.8245   -0.2215    0.5556 C   0  0  0  0  0  0  0  0  0  0  0  0
    2.2711   -1.5356    1.5492 H   0  0  0  0  0  0  0  0  0  0  0  0
    3.1464   -2.0621    0.0057 H   0  0  0  0  0  0  0  0  0  0  0  0
    3.5869   -0.5072    0.7939 H   0  0  0  0  0  0  0  0  0  0  0  0
    2.2715    0.0594   -1.0547 H   0  0  0  0  0  0  0  0  0  0  0  0
    1.1263   -1.2831   -0.8800 H   0  0  0  0  0  0  0  0  0  0  0  0
    0.2225   -0.3413    1.2001 H   0  0  0  0  0  0  0  0  0  0  0  0
    2.1530    0.9146    1.9631 H   0  0  0  0  0  0  0  0  0  0  0  0
    2.1823    1.8844    0.3863 H   0  0  0  0  0  0  0  0  0  0  0  0
    0.8490    2.1490    1.5316 H   0  0  0  0  0  0  0  0  0  0  0  0
    0.3310    1.6639   -1.1312 H   0  0  0  0  0  0  0  0  0  0  0  0
   -0.8639    1.7383    0.1733 H   0  0  0  0  0  0  0  0  0  0  0  0
   -0.4385   -0.4747   -1.9082 H   0  0  0  0  0  0  0  0  0  0  0  0
   -2.5904    0.2939   -2.4880 H   0  0  0  0  0  0  0  0  0  0  0  0
   -1.2327   -1.6068    0.0904 H   0  0  0  0  0  0  0  0  0  0  0  0
   -2.5198   -1.4501   -1.1390 H   0  0  0  0  0  0  0  0  0  0  0  0
   -3.6293   -0.9659    0.7736 H   0  0  0  0  0  0  0  0  0  0  0  0
   -3.2859    0.6794    0.1350 H   0  0  0  0  0  0  0  0  0  0  0  0
   -2.3369   -0.0282    1.5509 H   0  0  0  0  0  0  0  0  0  0  0  0
  1  2  1  0
  2  3  1  0
  3  4  1  0
  3  5  1  0
  5  6  1  0
  6  7  1  0
  6  8  1  0
  8  9  1  0
  1 10  1  0
  1 11  1  0
  1 12  1  0
  2 13  1  0
  2 14  1  0
  3 15  1  0
  4 16  1  0
  4 17  1  0
  4 18  1  0
  5 19  1  0
  5 20  1  0
  6 21  1  0
  7 22  1  0
  8 23  1  0
  8 24  1  0
  9 25  1  0
  9 26  1  0
  9 27  1  0
M  END
