
     RDKit          3D

 21 20  0  0  0  0  0  0  0  0999 V2000
   -0.4007    2.2707   -0.2070 C   0  0  0  0  0  0  0  0  0  0  0  0
   -1.5028    1.2537    0.0461 C   0  0  0  0  0  0  0  0  0  0  0  0
   -1.2215   -0.0045   -0.7023 C   0  0  0  0  0  0  0  0  0  0  0  0
   -2.2914   -1.0212   -0.4698 C   0  0  0  0  0  0  0  0  0  0  0  0
    0.0593   -0.5985   -0.3155 C   0  0  0  0  0  0  0  0  0  0  0  0
    1.1193   -1.1131    0.0030 C   0  0  0  0  0  0  0  0  0  0  0  0
    2.3954   -1.7342    0.3602 C   0  0  0  0  0  0  0  0  0  0  0  0
    3.1865   -0.7392    1.1219 C   0  0  0  0  0  0  0  0  0  0  0  0
    2.7567    0.3752    1.3566 O   0  0  0  0  0  0  0  0  0  0  0  0
    0.5221    1.7398   -0.5561 H   0  0  0  0  0  0  0  0  0  0  0  0
   -0.7035    3.0134   -0.9671 H   0  0  0  0  0  0  0  0  0  0  0  0
   -0.1607    2.7831    0.7420 H   0  0  0  0  0  0  0  0  0  0  0  0
   -2.4348    1.7016   -0.3641 H   0  0  0  0  0  0  0  0  0  0  0  0
   -1.6579    1.1305    1.1209 H   0  0  0  0  0  0  0  0  0  0  0  0
   -1.2228    0.2621   -1.7987 H   0  0  0  0  0  0  0  0  0  0  0  0
   -3.2463   -0.5861   -0.8864 H   0  0  0  0  0  0  0  0  0  0  0  0
   -2.4967   -1.1353    0.6265 H   0  0  0  0  0  0  0  0  0  0  0  0
   -2.1393   -1.9674   -0.9878 H   0  0  0  0  0  0  0  0  0  0  0  0
    2.9959   -1.9953   -0.5471 H   0  0  0  0  0  0  0  0  0  0  0  0
    2.2550   -2.6832    0.9152 H   0  0  0  0  0  0  0  0  0  0  0  0
    4.1884   -0.9521    1.5094 H   0  0  0  0  0  0  0  0  0  0  0  0
  1  2  1  0
  2  3  1  0
  3  4  1  0
  3  5  1  0
  5  6  3  0
  6  7  1  0
  7  8  1  0
  8  9  2  0
  1 10  1  0
  1 11  1  0
  1 12  1  0
  2 13  1  0
  2 14  1  0
  3 15  1  0
  4 16  1  0
  4 17  1  0
  4 18  1  0
  7 19  1  0
  7 20  1  0
  8 21  1  0
M  END
