
     RDKit          3D

 18 17  0  0  0  0  0  0  0  0999 V2000
    3.1862    0.0093    0.0899 C   0  0  0  0  0  0  0  0  0  0  0  0
    1.8627   -0.6839   -0.0278 C   0  0  0  0  0  0  0  0  0  0  0  0
    0.7545    0.3187   -0.0163 C   0  0  0  0  0  0  0  0  0  0  0  0
    0.9620    1.5573    0.0807 O   0  0  0  0  0  0  0  0  0  0  0  0
   -0.5651   -0.0922   -0.1142 O   0  0  0  0  0  0  0  0  0  0  0  0
   -1.6525    0.8198   -0.1079 C   0  0  0  0  0  0  0  0  0  0  0  0
   -2.9203   -0.0324   -0.2338 C   0  0  0  0  0  0  0  0  0  0  0  0
   -3.0104   -0.9198    0.8376 O   0  0  0  0  0  0  0  0  0  0  0  0
    3.0307    1.0992    0.1975 H   0  0  0  0  0  0  0  0  0  0  0  0
    3.8257   -0.2204   -0.7969 H   0  0  0  0  0  0  0  0  0  0  0  0
    3.7548   -0.3152    0.9988 H   0  0  0  0  0  0  0  0  0  0  0  0
    1.7949   -1.3714   -0.8958 H   0  0  0  0  0  0  0  0  0  0  0  0
    1.7520   -1.3488    0.8764 H   0  0  0  0  0  0  0  0  0  0  0  0
   -1.6640    1.3913    0.8477 H   0  0  0  0  0  0  0  0  0  0  0  0
   -1.6208    1.5452   -0.9183 H   0  0  0  0  0  0  0  0  0  0  0  0
   -3.7650    0.6865   -0.1641 H   0  0  0  0  0  0  0  0  0  0  0  0
   -2.8794   -0.5772   -1.1790 H   0  0  0  0  0  0  0  0  0  0  0  0
   -2.8459   -1.8658    0.5255 H   0  0  0  0  0  0  0  0  0  0  0  0
  1  2  1  0
  2  3  1  0
  3  4  2  0
  3  5  1  0
  5  6  1  0
  6  7  1  0
  7  8  1  0
  1  9  1  0
  1 10  1  0
  1 11  1  0
  2 12  1  0
  2 13  1  0
  6 14  1  0
  6 15  1  0
  7 16  1  0
  7 17  1  0
  8 18  1  0
M  END
