
     RDKit          3D

 23 22  0  0  0  0  0  0  0  0999 V2000
   -2.7299    1.5812    0.0268 C   0  0  0  0  0  0  0  0  0  0  0  0
   -1.3581    1.0042    0.1467 C   0  0  0  0  0  0  0  0  0  0  0  0
   -1.3482   -0.5083    0.1010 C   0  0  0  0  0  0  0  0  0  0  0  0
   -1.8637   -1.0122   -1.0666 O   0  0  0  0  0  0  0  0  0  0  0  0
    0.0830   -0.9841    0.2919 C   0  0  0  0  0  0  0  0  0  0  0  0
    0.8241   -0.5286   -0.7928 O   0  0  0  0  0  0  0  0  0  0  0  0
    2.1496   -0.8899   -0.7605 C   0  0  0  0  0  0  0  0  0  0  0  0
    2.8785   -0.3597    0.4697 C   0  0  0  0  0  0  0  0  0  0  0  0
    2.8281    1.0303    0.5020 O   0  0  0  0  0  0  0  0  0  0  0  0
   -2.9633    2.2015    0.9332 H   0  0  0  0  0  0  0  0  0  0  0  0
   -2.7966    2.2976   -0.8329 H   0  0  0  0  0  0  0  0  0  0  0  0
   -3.5167    0.8235   -0.1629 H   0  0  0  0  0  0  0  0  0  0  0  0
   -0.8383    1.3912    1.0462 H   0  0  0  0  0  0  0  0  0  0  0  0
   -0.7411    1.3779   -0.7221 H   0  0  0  0  0  0  0  0  0  0  0  0
   -1.9279   -0.8984    0.9639 H   0  0  0  0  0  0  0  0  0  0  0  0
   -2.7964   -1.3473   -0.9135 H   0  0  0  0  0  0  0  0  0  0  0  0
    0.4838   -0.4465    1.1967 H   0  0  0  0  0  0  0  0  0  0  0  0
    0.1689   -2.0656    0.3922 H   0  0  0  0  0  0  0  0  0  0  0  0
    2.6224   -0.4889   -1.6799 H   0  0  0  0  0  0  0  0  0  0  0  0
    2.2999   -1.9927   -0.8015 H   0  0  0  0  0  0  0  0  0  0  0  0
    2.4664   -0.8420    1.3689 H   0  0  0  0  0  0  0  0  0  0  0  0
    3.9638   -0.6451    0.4115 H   0  0  0  0  0  0  0  0  0  0  0  0
    2.1117    1.3022   -0.1178 H   0  0  0  0  0  0  0  0  0  0  0  0
  1  2  1  0
  2  3  1  0
  3  4  1  0
  3  5  1  0
  5  6  1  0
  6  7  1  0
  7  8  1  0
  8  9  1  0
  1 10  1  0
  1 11  1  0
  1 12  1  0
  2 13  1  0
  2 14  1  0
  3 15  1  0
  4 16  1  0
  5 17  1  0
  5 18  1  0
  7 19  1  0
  7 20  1  0
  8 21  1  0
  8 22  1  0
  9 23  1  0
M  END
