
     RDKit          3D

 25 25  0  0  0  0  0  0  0  0999 V2000
    2.0751   -1.4910    0.8583 C   0  0  0  0  0  0  0  0  0  0  0  0
    0.5978   -1.1616    0.7923 C   0  0  0  0  0  0  0  0  0  0  0  0
    0.3279   -0.0631   -0.2221 C   0  0  0  0  0  0  0  0  0  0  0  0
    0.9990    1.0815    0.1065 O   0  0  0  0  0  0  0  0  0  0  0  0
    1.9215    1.5023   -0.8184 C   0  0  0  0  0  0  0  0  0  0  0  0
   -1.1852    0.1423   -0.2531 C   0  0  0  0  0  0  0  0  0  0  0  0
   -2.0239   -1.0506   -0.6450 C   0  0  0  0  0  0  0  0  0  0  0  0
   -1.6665    1.5127   -0.4872 C   0  0  0  0  0  0  0  0  0  0  0  0
   -1.7814    0.9737    0.8898 C   0  0  0  0  0  0  0  0  0  0  0  0
    2.5991   -0.8595    1.6283 H   0  0  0  0  0  0  0  0  0  0  0  0
    2.1580   -2.5449    1.2555 H   0  0  0  0  0  0  0  0  0  0  0  0
    2.5739   -1.4233   -0.1165 H   0  0  0  0  0  0  0  0  0  0  0  0
    0.2188   -0.9381    1.7873 H   0  0  0  0  0  0  0  0  0  0  0  0
    0.0948   -2.1056    0.4430 H   0  0  0  0  0  0  0  0  0  0  0  0
    0.6832   -0.4175   -1.1949 H   0  0  0  0  0  0  0  0  0  0  0  0
    1.4689    1.7198   -1.8206 H   0  0  0  0  0  0  0  0  0  0  0  0
    2.7678    0.8125   -0.9691 H   0  0  0  0  0  0  0  0  0  0  0  0
    2.3151    2.4924   -0.4646 H   0  0  0  0  0  0  0  0  0  0  0  0
   -3.0923   -0.7816   -0.6375 H   0  0  0  0  0  0  0  0  0  0  0  0
   -1.6938   -1.5202   -1.5801 H   0  0  0  0  0  0  0  0  0  0  0  0
   -1.9062   -1.8087    0.1833 H   0  0  0  0  0  0  0  0  0  0  0  0
   -2.6335    1.6498   -1.0329 H   0  0  0  0  0  0  0  0  0  0  0  0
   -0.9412    2.3294   -0.6867 H   0  0  0  0  0  0  0  0  0  0  0  0
   -2.7805    0.6620    1.2843 H   0  0  0  0  0  0  0  0  0  0  0  0
   -1.0965    1.2873    1.7001 H   0  0  0  0  0  0  0  0  0  0  0  0
  1  2  1  0
  2  3  1  0
  3  4  1  0
  4  5  1  0
  3  6  1  0
  6  7  1  0
  6  8  1  0
  8  9  1  0
  9  6  1  0
  1 10  1  0
  1 11  1  0
  1 12  1  0
  2 13  1  0
  2 14  1  0
  3 15  1  0
  5 16  1  0
  5 17  1  0
  5 18  1  0
  7 19  1  0
  7 20  1  0
  7 21  1  0
  8 22  1  0
  8 23  1  0
  9 24  1  0
  9 25  1  0
M  END
