
     RDKit          3D

 19 18  0  0  0  0  0  0  0  0999 V2000
    3.3050   -0.2415    0.0770 C   0  0  0  0  0  0  0  0  0  0  0  0
    1.8325   -0.6061    0.2845 C   0  0  0  0  0  0  0  0  0  0  0  0
    1.0192    0.5366   -0.2564 C   0  0  0  0  0  0  0  0  0  0  0  0
    1.2432    0.7709   -1.6085 O   0  0  0  0  0  0  0  0  0  0  0  0
   -0.3833    0.2268    0.0319 C   0  0  0  0  0  0  0  0  0  0  0  0
   -1.5414   -0.0507    0.2705 C   0  0  0  0  0  0  0  0  0  0  0  0
   -2.9312   -0.3929    0.5789 C   0  0  0  0  0  0  0  0  0  0  0  0
   -3.8767    0.6619    0.1663 C   0  0  0  0  0  0  0  0  0  0  0  0
   -5.0598    0.5188    0.3574 O   0  0  0  0  0  0  0  0  0  0  0  0
    3.4850    0.7238    0.5880 H   0  0  0  0  0  0  0  0  0  0  0  0
    3.4069   -0.0539   -1.0205 H   0  0  0  0  0  0  0  0  0  0  0  0
    3.9461   -1.0516    0.4368 H   0  0  0  0  0  0  0  0  0  0  0  0
    1.5862   -0.7264    1.3450 H   0  0  0  0  0  0  0  0  0  0  0  0
    1.6296   -1.5571   -0.2715 H   0  0  0  0  0  0  0  0  0  0  0  0
    1.3556    1.4541    0.2916 H   0  0  0  0  0  0  0  0  0  0  0  0
    0.6027    0.1755   -2.1033 H   0  0  0  0  0  0  0  0  0  0  0  0
   -2.9632   -0.5847    1.6823 H   0  0  0  0  0  0  0  0  0  0  0  0
   -3.1272   -1.3643    0.0372 H   0  0  0  0  0  0  0  0  0  0  0  0
   -3.5292    1.5607   -0.3040 H   0  0  0  0  0  0  0  0  0  0  0  0
  1  2  1  0
  2  3  1  0
  3  4  1  0
  3  5  1  0
  5  6  3  0
  6  7  1  0
  7  8  1  0
  8  9  2  0
  1 10  1  0
  1 11  1  0
  1 12  1  0
  2 13  1  0
  2 14  1  0
  3 15  1  0
  4 16  1  0
  7 17  1  0
  7 18  1  0
  8 19  1  0
M  END
