
     RDKit          3D

 25 26  0  0  0  0  0  0  0  0999 V2000
   -2.6964    1.4117   -0.0831 C   0  0  0  0  0  0  0  0  0  0  0  0
   -1.3923    0.9573   -0.6661 C   0  0  0  0  0  0  0  0  0  0  0  0
   -0.6676   -0.0001    0.2418 C   0  0  0  0  0  0  0  0  0  0  0  0
   -1.5223   -1.2388    0.4902 C   0  0  0  0  0  0  0  0  0  0  0  0
    0.5899   -0.4713   -0.4393 C   0  0  0  0  0  0  0  0  0  0  0  0
    1.4238   -1.4386    0.3507 C   0  0  0  0  0  0  0  0  0  0  0  0
    2.6475   -0.6197   -0.0386 C   0  0  0  0  0  0  0  0  0  0  0  0
    2.6888    0.7501    0.5051 C   0  0  0  0  0  0  0  0  0  0  0  0
    1.7008    0.5147   -0.5526 C   0  0  0  0  0  0  0  0  0  0  0  0
   -3.5569    0.7868   -0.4117 H   0  0  0  0  0  0  0  0  0  0  0  0
   -2.8925    2.4407   -0.4495 H   0  0  0  0  0  0  0  0  0  0  0  0
   -2.6635    1.4654    1.0393 H   0  0  0  0  0  0  0  0  0  0  0  0
   -1.6070    0.5230   -1.6660 H   0  0  0  0  0  0  0  0  0  0  0  0
   -0.7339    1.8650   -0.7533 H   0  0  0  0  0  0  0  0  0  0  0  0
   -0.4871    0.4851    1.1980 H   0  0  0  0  0  0  0  0  0  0  0  0
   -1.1566   -1.8191    1.3497 H   0  0  0  0  0  0  0  0  0  0  0  0
   -1.4111   -1.9105   -0.4039 H   0  0  0  0  0  0  0  0  0  0  0  0
   -2.5782   -1.0109    0.6197 H   0  0  0  0  0  0  0  0  0  0  0  0
    0.3392   -0.9285   -1.4307 H   0  0  0  0  0  0  0  0  0  0  0  0
    1.4188   -2.4753    0.0088 H   0  0  0  0  0  0  0  0  0  0  0  0
    1.2982   -1.3866    1.4522 H   0  0  0  0  0  0  0  0  0  0  0  0
    3.3553   -1.0164   -0.7642 H   0  0  0  0  0  0  0  0  0  0  0  0
    2.3910    0.8753    1.5646 H   0  0  0  0  0  0  0  0  0  0  0  0
    3.5697    1.3542    0.2328 H   0  0  0  0  0  0  0  0  0  0  0  0
    1.9424    0.8865   -1.5890 H   0  0  0  0  0  0  0  0  0  0  0  0
  1  2  1  0
  2  3  1  0
  3  4  1  0
  3  5  1  0
  5  6  1  0
  6  7  1  0
  7  8  1  0
  8  9  1  0
  9  5  1  0
  9  7  1  0
  1 10  1  0
  1 11  1  0
  1 12  1  0
  2 13  1  0
  2 14  1  0
  3 15  1  0
  4 16  1  0
  4 17  1  0
  4 18  1  0
  5 19  1  0
  6 20  1  0
  6 21  1  0
  7 22  1  0
  8 23  1  0
  8 24  1  0
  9 25  1  0
M  END
