
     RDKit          3D

 25 25  0  0  0  0  0  0  0  0999 V2000
   -3.0406    1.1098    0.2247 C   0  0  0  0  0  0  0  0  0  0  0  0
   -1.9336    0.2029    0.7256 C   0  0  0  0  0  0  0  0  0  0  0  0
   -1.0105   -0.0678   -0.4132 C   0  0  0  0  0  0  0  0  0  0  0  0
   -1.7753   -0.6960   -1.4234 O   0  0  0  0  0  0  0  0  0  0  0  0
    0.1324   -0.9781   -0.1086 C   0  0  0  0  0  0  0  0  0  0  0  0
    1.0838   -0.5513    0.9596 C   0  0  0  0  0  0  0  0  0  0  0  0
    1.7164    0.3429   -0.0910 C   0  0  0  0  0  0  0  0  0  0  0  0
    3.2065    0.4292    0.1233 C   0  0  0  0  0  0  0  0  0  0  0  0
    1.2778   -0.7224   -1.0746 C   0  0  0  0  0  0  0  0  0  0  0  0
   -2.6071    2.0111   -0.2488 H   0  0  0  0  0  0  0  0  0  0  0  0
   -3.6103    1.4467    1.1198 H   0  0  0  0  0  0  0  0  0  0  0  0
   -3.6884    0.5967   -0.5102 H   0  0  0  0  0  0  0  0  0  0  0  0
   -1.4626    0.7266    1.5715 H   0  0  0  0  0  0  0  0  0  0  0  0
   -2.3904   -0.7432    1.0992 H   0  0  0  0  0  0  0  0  0  0  0  0
   -0.6986    0.9025   -0.8515 H   0  0  0  0  0  0  0  0  0  0  0  0
   -2.3485   -1.3929   -0.9988 H   0  0  0  0  0  0  0  0  0  0  0  0
   -0.1175   -2.0574   -0.1295 H   0  0  0  0  0  0  0  0  0  0  0  0
    1.7967   -1.3790    1.1856 H   0  0  0  0  0  0  0  0  0  0  0  0
    0.6636   -0.0327    1.8348 H   0  0  0  0  0  0  0  0  0  0  0  0
    1.2087    1.3093   -0.2549 H   0  0  0  0  0  0  0  0  0  0  0  0
    3.7448    0.6475   -0.8113 H   0  0  0  0  0  0  0  0  0  0  0  0
    3.5793   -0.4780    0.6202 H   0  0  0  0  0  0  0  0  0  0  0  0
    3.3852    1.2878    0.8031 H   0  0  0  0  0  0  0  0  0  0  0  0
    0.9023   -0.3540   -2.0360 H   0  0  0  0  0  0  0  0  0  0  0  0
    1.9860   -1.5602   -1.1942 H   0  0  0  0  0  0  0  0  0  0  0  0
  1  2  1  0
  2  3  1  0
  3  4  1  0
  3  5  1  0
  5  6  1  0
  6  7  1  0
  7  8  1  0
  7  9  1  0
  9  5  1  0
  1 10  1  0
  1 11  1  0
  1 12  1  0
  2 13  1  0
  2 14  1  0
  3 15  1  0
  4 16  1  0
  5 17  1  0
  6 18  1  0
  6 19  1  0
  7 20  1  0
  8 21  1  0
  8 22  1  0
  8 23  1  0
  9 24  1  0
  9 25  1  0
M  END
