
     RDKit          3D

 21 20  0  0  0  0  0  0  0  0999 V2000
   -1.8187    1.6663   -0.2495 C   0  0  0  0  0  0  0  0  0  0  0  0
   -1.7665    0.1652   -0.2534 C   0  0  0  0  0  0  0  0  0  0  0  0
   -0.4401   -0.3791    0.2181 C   0  0  0  0  0  0  0  0  0  0  0  0
   -0.5633   -1.8881    0.1501 C   0  0  0  0  0  0  0  0  0  0  0  0
    0.6733    0.0239   -0.6905 C   0  0  0  0  0  0  0  0  0  0  0  0
    0.4800    0.7163   -1.6886 O   0  0  0  0  0  0  0  0  0  0  0  0
    2.0494   -0.3983   -0.4179 C   0  0  0  0  0  0  0  0  0  0  0  0
    2.8251    0.7241    0.2217 C   0  0  0  0  0  0  0  0  0  0  0  0
    2.3037    1.7926    0.4427 O   0  0  0  0  0  0  0  0  0  0  0  0
   -1.2686    2.1307    0.5667 H   0  0  0  0  0  0  0  0  0  0  0  0
   -1.4498    2.0490   -1.2223 H   0  0  0  0  0  0  0  0  0  0  0  0
   -2.9079    1.9550   -0.2093 H   0  0  0  0  0  0  0  0  0  0  0  0
   -2.5365   -0.2219    0.4574 H   0  0  0  0  0  0  0  0  0  0  0  0
   -1.9846   -0.2515   -1.2368 H   0  0  0  0  0  0  0  0  0  0  0  0
   -0.2466   -0.0284    1.2591 H   0  0  0  0  0  0  0  0  0  0  0  0
    0.2289   -2.4057    0.7063 H   0  0  0  0  0  0  0  0  0  0  0  0
   -0.6075   -2.1615   -0.9212 H   0  0  0  0  0  0  0  0  0  0  0  0
   -1.5552   -2.1314    0.6181 H   0  0  0  0  0  0  0  0  0  0  0  0
    2.1380   -1.2598    0.2777 H   0  0  0  0  0  0  0  0  0  0  0  0
    2.5938   -0.6977   -1.3575 H   0  0  0  0  0  0  0  0  0  0  0  0
    3.8531    0.6001    0.4935 H   0  0  0  0  0  0  0  0  0  0  0  0
  1  2  1  0
  2  3  1  0
  3  4  1  0
  3  5  1  0
  5  6  2  0
  5  7  1  0
  7  8  1  0
  8  9  2  0
  1 10  1  0
  1 11  1  0
  1 12  1  0
  2 13  1  0
  2 14  1  0
  3 15  1  0
  4 16  1  0
  4 17  1  0
  4 18  1  0
  7 19  1  0
  7 20  1  0
  8 21  1  0
M  END
