
     RDKit          3D

 20 20  0  0  0  0  0  0  0  0999 V2000
   -2.7386    0.6355   -0.2077 C   0  0  0  0  0  0  0  0  0  0  0  0
   -1.3957    0.5728    0.4639 C   0  0  0  0  0  0  0  0  0  0  0  0
   -0.4870   -0.4668   -0.2073 C   0  0  0  0  0  0  0  0  0  0  0  0
   -0.3333   -0.0757   -1.5426 O   0  0  0  0  0  0  0  0  0  0  0  0
    0.8297   -0.3914    0.5261 C   0  0  0  0  0  0  0  0  0  0  0  0
    2.0177   -0.9468   -0.1596 C   0  0  0  0  0  0  0  0  0  0  0  0
    2.5590    0.4240    0.1795 C   0  0  0  0  0  0  0  0  0  0  0  0
    1.3046    0.9156    0.4923 O   0  0  0  0  0  0  0  0  0  0  0  0
   -2.6138    0.3812   -1.2755 H   0  0  0  0  0  0  0  0  0  0  0  0
   -3.4464   -0.0562    0.2763 H   0  0  0  0  0  0  0  0  0  0  0  0
   -3.1898    1.6505   -0.1367 H   0  0  0  0  0  0  0  0  0  0  0  0
   -1.5235    0.3105    1.5276 H   0  0  0  0  0  0  0  0  0  0  0  0
   -0.9390    1.5824    0.4095 H   0  0  0  0  0  0  0  0  0  0  0  0
   -0.9692   -1.4479   -0.1255 H   0  0  0  0  0  0  0  0  0  0  0  0
   -0.5109   -0.8180   -2.1392 H   0  0  0  0  0  0  0  0  0  0  0  0
    0.7108   -0.8309    1.5405 H   0  0  0  0  0  0  0  0  0  0  0  0
    1.9395   -1.1589   -1.2357 H   0  0  0  0  0  0  0  0  0  0  0  0
    2.5830   -1.7270    0.4215 H   0  0  0  0  0  0  0  0  0  0  0  0
    3.2111    0.4661    1.0767 H   0  0  0  0  0  0  0  0  0  0  0  0
    2.9915    0.9813   -0.6887 H   0  0  0  0  0  0  0  0  0  0  0  0
  1  2  1  0
  2  3  1  0
  3  4  1  0
  3  5  1  0
  5  6  1  0
  6  7  1  0
  7  8  1  0
  8  5  1  0
  1  9  1  0
  1 10  1  0
  1 11  1  0
  2 12  1  0
  2 13  1  0
  3 14  1  0
  4 15  1  0
  5 16  1  0
  6 17  1  0
  6 18  1  0
  7 19  1  0
  7 20  1  0
M  END
