
     RDKit          3D

 23 22  0  0  0  0  0  0  0  0999 V2000
    2.0677   -0.4031    0.7866 C   0  0  0  0  0  0  0  0  0  0  0  0
    1.4692   -0.1481   -0.5839 C   0  0  0  0  0  0  0  0  0  0  0  0
   -0.0139   -0.0259   -0.5128 C   0  0  0  0  0  0  0  0  0  0  0  0
   -0.5310    0.2067   -1.7805 O   0  0  0  0  0  0  0  0  0  0  0  0
   -0.5801   -1.3746   -0.0483 C   0  0  0  0  0  0  0  0  0  0  0  0
   -2.0833   -1.1980    0.0072 C   0  0  0  0  0  0  0  0  0  0  0  0
   -0.4996    0.9976    0.4686 C   0  0  0  0  0  0  0  0  0  0  0  0
   -0.0294    2.3592    0.1866 C   0  0  0  0  0  0  0  0  0  0  0  0
   -0.3495    3.2751    0.9022 O   0  0  0  0  0  0  0  0  0  0  0  0
    1.6931    0.3691    1.4827 H   0  0  0  0  0  0  0  0  0  0  0  0
    3.1820   -0.3456    0.7223 H   0  0  0  0  0  0  0  0  0  0  0  0
    1.8497   -1.4411    1.1223 H   0  0  0  0  0  0  0  0  0  0  0  0
    1.6903   -1.0822   -1.1797 H   0  0  0  0  0  0  0  0  0  0  0  0
    1.9709    0.6655   -1.1185 H   0  0  0  0  0  0  0  0  0  0  0  0
   -0.7709    1.1643   -1.8664 H   0  0  0  0  0  0  0  0  0  0  0  0
   -0.3428   -2.0954   -0.8642 H   0  0  0  0  0  0  0  0  0  0  0  0
   -0.1681   -1.6639    0.9276 H   0  0  0  0  0  0  0  0  0  0  0  0
   -2.3710   -0.5008   -0.7821 H   0  0  0  0  0  0  0  0  0  0  0  0
   -2.5241   -2.2054   -0.1117 H   0  0  0  0  0  0  0  0  0  0  0  0
   -2.3125   -0.7863    1.0225 H   0  0  0  0  0  0  0  0  0  0  0  0
   -1.6249    1.0196    0.3657 H   0  0  0  0  0  0  0  0  0  0  0  0
   -0.3235    0.6663    1.5118 H   0  0  0  0  0  0  0  0  0  0  0  0
    0.6019    2.5472   -0.6581 H   0  0  0  0  0  0  0  0  0  0  0  0
  1  2  1  0
  2  3  1  0
  3  4  1  0
  3  5  1  0
  5  6  1  0
  3  7  1  0
  7  8  1  0
  8  9  2  0
  1 10  1  0
  1 11  1  0
  1 12  1  0
  2 13  1  0
  2 14  1  0
  4 15  1  0
  5 16  1  0
  5 17  1  0
  6 18  1  0
  6 19  1  0
  6 20  1  0
  7 21  1  0
  7 22  1  0
  8 23  1  0
M  END
