
     RDKit          3D

 21 21  0  0  0  0  0  0  0  0999 V2000
    3.0657    0.5310    0.7027 C   0  0  0  0  0  0  0  0  0  0  0  0
    2.1175   -0.3963    0.0100 C   0  0  0  0  0  0  0  0  0  0  0  0
    0.6770    0.0198    0.1888 C   0  0  0  0  0  0  0  0  0  0  0  0
    0.4898    1.0107    0.8442 O   0  0  0  0  0  0  0  0  0  0  0  0
   -0.3279   -0.8244   -0.4520 C   0  0  0  0  0  0  0  0  0  0  0  0
   -1.7358   -0.4188   -0.2732 C   0  0  0  0  0  0  0  0  0  0  0  0
   -2.6682   -1.2676   -0.9140 O   0  0  0  0  0  0  0  0  0  0  0  0
   -2.0238    1.0665   -0.5244 C   0  0  0  0  0  0  0  0  0  0  0  0
   -2.2570    0.4155    0.7967 C   0  0  0  0  0  0  0  0  0  0  0  0
    3.1650    0.3300    1.7927 H   0  0  0  0  0  0  0  0  0  0  0  0
    2.7977    1.6102    0.5268 H   0  0  0  0  0  0  0  0  0  0  0  0
    4.0704    0.4065    0.2560 H   0  0  0  0  0  0  0  0  0  0  0  0
    2.2855   -1.4138    0.3822 H   0  0  0  0  0  0  0  0  0  0  0  0
    2.3882   -0.3989   -1.0741 H   0  0  0  0  0  0  0  0  0  0  0  0
   -0.0658   -0.8847   -1.5463 H   0  0  0  0  0  0  0  0  0  0  0  0
   -0.1691   -1.8758   -0.0771 H   0  0  0  0  0  0  0  0  0  0  0  0
   -2.7354   -2.1374   -0.4831 H   0  0  0  0  0  0  0  0  0  0  0  0
   -1.1589    1.7520   -0.6373 H   0  0  0  0  0  0  0  0  0  0  0  0
   -2.8703    1.3352   -1.1752 H   0  0  0  0  0  0  0  0  0  0  0  0
   -3.3514    0.3124    1.0501 H   0  0  0  0  0  0  0  0  0  0  0  0
   -1.6932    0.8278    1.6344 H   0  0  0  0  0  0  0  0  0  0  0  0
  1  2  1  0
  2  3  1  0
  3  4  2  0
  3  5  1  0
  5  6  1  0
  6  7  1  0
  6  8  1  0
  8  9  1  0
  9  6  1  0
  1 10  1  0
  1 11  1  0
  1 12  1  0
  2 13  1  0
  2 14  1  0
  5 15  1  0
  5 16  1  0
  7 17  1  0
  8 18  1  0
  8 19  1  0
  9 20  1  0
  9 21  1  0
M  END
