
     RDKit          3D

 19 18  0  0  0  0  0  0  0  0999 V2000
    2.0525   -0.9060    0.2420 C   0  0  0  0  0  0  0  0  0  0  0  0
    1.0201   -0.6761   -0.8153 C   0  0  0  0  0  0  0  0  0  0  0  0
   -0.1772    0.1345   -0.2617 C   0  0  0  0  0  0  0  0  0  0  0  0
    0.3138    1.4382    0.2195 C   0  0  0  0  0  0  0  0  0  0  0  0
    0.2825    1.8846    1.3334 O   0  0  0  0  0  0  0  0  0  0  0  0
   -1.0834    0.2606   -1.4471 C   0  0  0  0  0  0  0  0  0  0  0  0
   -2.1737   -0.2573   -1.5499 O   0  0  0  0  0  0  0  0  0  0  0  0
   -0.7741   -0.6138    0.7245 O   0  0  0  0  0  0  0  0  0  0  0  0
   -1.8610   -0.0190    1.3191 C   0  0  0  0  0  0  0  0  0  0  0  0
    1.8035   -1.7879    0.8469 H   0  0  0  0  0  0  0  0  0  0  0  0
    2.2038    0.0164    0.8338 H   0  0  0  0  0  0  0  0  0  0  0  0
    3.0247   -1.1169   -0.2534 H   0  0  0  0  0  0  0  0  0  0  0  0
    0.6063   -1.5989   -1.2305 H   0  0  0  0  0  0  0  0  0  0  0  0
    1.4575   -0.0562   -1.6128 H   0  0  0  0  0  0  0  0  0  0  0  0
    0.7722    2.0951   -0.5426 H   0  0  0  0  0  0  0  0  0  0  0  0
   -0.7808    0.8622   -2.3233 H   0  0  0  0  0  0  0  0  0  0  0  0
   -2.6879    0.2241    0.6030 H   0  0  0  0  0  0  0  0  0  0  0  0
   -1.6526    0.8783    1.9014 H   0  0  0  0  0  0  0  0  0  0  0  0
   -2.3460   -0.7620    2.0131 H   0  0  0  0  0  0  0  0  0  0  0  0
  1  2  1  0
  2  3  1  0
  3  4  1  0
  4  5  2  0
  3  6  1  0
  6  7  2  0
  3  8  1  0
  8  9  1  0
  1 10  1  0
  1 11  1  0
  1 12  1  0
  2 13  1  0
  2 14  1  0
  4 15  1  0
  6 16  1  0
  9 17  1  0
  9 18  1  0
  9 19  1  0
M  END
