
     RDKit          3D

 20 19  0  0  0  0  0  0  0  0999 V2000
   -1.1820   -1.8500    0.2516 C   0  0  0  0  0  0  0  0  0  0  0  0
   -1.6976   -0.4679    0.0303 C   0  0  0  0  0  0  0  0  0  0  0  0
   -0.6669    0.5970    0.3437 C   0  0  0  0  0  0  0  0  0  0  0  0
   -1.2239    1.9779    0.1080 C   0  0  0  0  0  0  0  0  0  0  0  0
    0.5472    0.3648   -0.3235 O   0  0  0  0  0  0  0  0  0  0  0  0
    1.7493    0.0944    0.3160 C   0  0  0  0  0  0  0  0  0  0  0  0
    3.0141   -0.1455   -0.4438 C   0  0  0  0  0  0  0  0  0  0  0  0
    1.7155    0.0622    1.5778 O   0  0  0  0  0  0  0  0  0  0  0  0
   -2.0082   -2.5682    0.4606 H   0  0  0  0  0  0  0  0  0  0  0  0
   -0.6337   -2.2343   -0.6456 H   0  0  0  0  0  0  0  0  0  0  0  0
   -0.5112   -1.9041    1.1366 H   0  0  0  0  0  0  0  0  0  0  0  0
   -2.6125   -0.3457    0.6444 H   0  0  0  0  0  0  0  0  0  0  0  0
   -1.9841   -0.3873   -1.0496 H   0  0  0  0  0  0  0  0  0  0  0  0
   -0.4728    0.5220    1.4509 H   0  0  0  0  0  0  0  0  0  0  0  0
   -1.6525    2.0842   -0.9190 H   0  0  0  0  0  0  0  0  0  0  0  0
   -0.4159    2.7123    0.2889 H   0  0  0  0  0  0  0  0  0  0  0  0
   -2.0227    2.1382    0.8690 H   0  0  0  0  0  0  0  0  0  0  0  0
    3.4281    0.7961   -0.8569 H   0  0  0  0  0  0  0  0  0  0  0  0
    3.7551   -0.5316    0.2867 H   0  0  0  0  0  0  0  0  0  0  0  0
    2.8747   -0.9144   -1.2300 H   0  0  0  0  0  0  0  0  0  0  0  0
  1  2  1  0
  2  3  1  0
  3  4  1  0
  3  5  1  0
  5  6  1  0
  6  7  1  0
  6  8  2  0
  1  9  1  0
  1 10  1  0
  1 11  1  0
  2 12  1  0
  2 13  1  0
  3 14  1  0
  4 15  1  0
  4 16  1  0
  4 17  1  0
  7 18  1  0
  7 19  1  0
  7 20  1  0
M  END
