
     RDKit          3D

 21 21  0  0  0  0  0  0  0  0999 V2000
    3.0086    0.8723   -0.0200 C   0  0  0  0  0  0  0  0  0  0  0  0
    1.6253    0.7618    0.5893 C   0  0  0  0  0  0  0  0  0  0  0  0
    0.9521   -0.4920    0.2305 C   0  0  0  0  0  0  0  0  0  0  0  0
    1.5706   -1.2624   -0.4898 O   0  0  0  0  0  0  0  0  0  0  0  0
   -0.3840   -0.8977    0.6557 C   0  0  0  0  0  0  0  0  0  0  0  0
   -1.0907   -0.0250    1.4746 O   0  0  0  0  0  0  0  0  0  0  0  0
   -2.2257   -0.7587    1.0541 C   0  0  0  0  0  0  0  0  0  0  0  0
   -1.5090   -0.7982   -0.3098 C   0  0  0  0  0  0  0  0  0  0  0  0
   -1.7571    0.4982   -0.9926 C   0  0  0  0  0  0  0  0  0  0  0  0
    3.7790    0.4375    0.6631 H   0  0  0  0  0  0  0  0  0  0  0  0
    3.2830    1.9017   -0.2453 H   0  0  0  0  0  0  0  0  0  0  0  0
    3.0514    0.2481   -0.9536 H   0  0  0  0  0  0  0  0  0  0  0  0
    1.7489    0.8908    1.6802 H   0  0  0  0  0  0  0  0  0  0  0  0
    1.0519    1.6128    0.1292 H   0  0  0  0  0  0  0  0  0  0  0  0
   -0.3776   -1.8957    1.1416 H   0  0  0  0  0  0  0  0  0  0  0  0
   -3.1580   -0.1961    1.0482 H   0  0  0  0  0  0  0  0  0  0  0  0
   -2.2327   -1.7426    1.5489 H   0  0  0  0  0  0  0  0  0  0  0  0
   -1.7548   -1.7081   -0.8855 H   0  0  0  0  0  0  0  0  0  0  0  0
   -0.9320    0.8593   -1.6262 H   0  0  0  0  0  0  0  0  0  0  0  0
   -2.6350    0.3709   -1.6606 H   0  0  0  0  0  0  0  0  0  0  0  0
   -2.0142    1.3232   -0.3015 H   0  0  0  0  0  0  0  0  0  0  0  0
  1  2  1  0
  2  3  1  0
  3  4  2  0
  3  5  1  0
  5  6  1  0
  6  7  1  0
  7  8  1  0
  8  9  1  0
  8  5  1  0
  1 10  1  0
  1 11  1  0
  1 12  1  0
  2 13  1  0
  2 14  1  0
  5 15  1  0
  7 16  1  0
  7 17  1  0
  8 18  1  0
  9 19  1  0
  9 20  1  0
  9 21  1  0
M  END
