
     RDKit          3D

 19 18  0  0  0  0  0  0  0  0999 V2000
   -1.6661    0.7615   -0.7866 C   0  0  0  0  0  0  0  0  0  0  0  0
   -1.2464   -0.1949    0.2605 C   0  0  0  0  0  0  0  0  0  0  0  0
    0.2290   -0.3928    0.3980 C   0  0  0  0  0  0  0  0  0  0  0  0
    0.3981   -1.4148    1.5328 C   0  0  0  0  0  0  0  0  0  0  0  0
    0.8113   -0.9636   -0.7211 O   0  0  0  0  0  0  0  0  0  0  0  0
    0.9730    0.8062    0.7654 C   0  0  0  0  0  0  0  0  0  0  0  0
    0.6386    1.5028    1.7518 O   0  0  0  0  0  0  0  0  0  0  0  0
    2.1346    1.2631    0.0201 C   0  0  0  0  0  0  0  0  0  0  0  0
    2.5053    0.5935   -0.9778 O   0  0  0  0  0  0  0  0  0  0  0  0
   -1.9284    0.2671   -1.7653 H   0  0  0  0  0  0  0  0  0  0  0  0
   -2.6455    1.2182   -0.4537 H   0  0  0  0  0  0  0  0  0  0  0  0
   -0.9906    1.6125   -0.9581 H   0  0  0  0  0  0  0  0  0  0  0  0
   -1.6359    0.1047    1.2662 H   0  0  0  0  0  0  0  0  0  0  0  0
   -1.6923   -1.1930    0.0219 H   0  0  0  0  0  0  0  0  0  0  0  0
    1.3794   -1.9065    1.4932 H   0  0  0  0  0  0  0  0  0  0  0  0
   -0.4580   -2.0987    1.5317 H   0  0  0  0  0  0  0  0  0  0  0  0
    0.3100   -0.8026    2.4739 H   0  0  0  0  0  0  0  0  0  0  0  0
    0.1785   -1.3002   -1.3737 H   0  0  0  0  0  0  0  0  0  0  0  0
    2.7054    2.1378    0.2600 H   0  0  0  0  0  0  0  0  0  0  0  0
  1  2  1  0
  2  3  1  0
  3  4  1  0
  3  5  1  0
  3  6  1  0
  6  7  2  0
  6  8  1  0
  8  9  2  0
  1 10  1  0
  1 11  1  0
  1 12  1  0
  2 13  1  0
  2 14  1  0
  4 15  1  0
  4 16  1  0
  4 17  1  0
  5 18  1  0
  8 19  1  0
M  END
