
     RDKit          3D

 21 20  0  0  0  0  0  0  0  0999 V2000
    2.8739   -0.2837   -0.6151 C   0  0  0  0  0  0  0  0  0  0  0  0
    1.7102    0.2332    0.1637 C   0  0  0  0  0  0  0  0  0  0  0  0
    0.3978   -0.4169   -0.2040 C   0  0  0  0  0  0  0  0  0  0  0  0
    0.3761   -1.7748   -0.0090 O   0  0  0  0  0  0  0  0  0  0  0  0
   -0.6668    0.2248    0.6802 C   0  0  0  0  0  0  0  0  0  0  0  0
   -0.6047    1.5925    0.4472 O   0  0  0  0  0  0  0  0  0  0  0  0
   -1.9721   -0.3515    0.3042 C   0  0  0  0  0  0  0  0  0  0  0  0
   -3.1054    0.4069   -0.2577 C   0  0  0  0  0  0  0  0  0  0  0  0
   -2.1294   -1.5496    0.4701 O   0  0  0  0  0  0  0  0  0  0  0  0
    3.6481    0.5288   -0.7132 H   0  0  0  0  0  0  0  0  0  0  0  0
    2.6051   -0.6072   -1.6315 H   0  0  0  0  0  0  0  0  0  0  0  0
    3.3575   -1.1563   -0.1242 H   0  0  0  0  0  0  0  0  0  0  0  0
    1.9039    0.2044    1.2514 H   0  0  0  0  0  0  0  0  0  0  0  0
    1.5948    1.3233   -0.1006 H   0  0  0  0  0  0  0  0  0  0  0  0
    0.1272   -0.1973   -1.2565 H   0  0  0  0  0  0  0  0  0  0  0  0
    0.4536   -2.0419    0.9335 H   0  0  0  0  0  0  0  0  0  0  0  0
   -0.3802    0.0196    1.7252 H   0  0  0  0  0  0  0  0  0  0  0  0
    0.0659    2.0277    1.0602 H   0  0  0  0  0  0  0  0  0  0  0  0
   -4.0451    0.0270    0.1839 H   0  0  0  0  0  0  0  0  0  0  0  0
   -3.1754    0.2883   -1.3678 H   0  0  0  0  0  0  0  0  0  0  0  0
   -3.0347    1.5027   -0.0770 H   0  0  0  0  0  0  0  0  0  0  0  0
  1  2  1  0
  2  3  1  0
  3  4  1  0
  3  5  1  0
  5  6  1  0
  5  7  1  0
  7  8  1  0
  7  9  2  0
  1 10  1  0
  1 11  1  0
  1 12  1  0
  2 13  1  0
  2 14  1  0
  3 15  1  0
  4 16  1  0
  5 17  1  0
  6 18  1  0
  8 19  1  0
  8 20  1  0
  8 21  1  0
M  END
