
     RDKit          3D

 25 24  0  0  0  0  0  0  0  0999 V2000
    2.4048    0.1840    1.0321 C   0  0  0  0  0  0  0  0  0  0  0  0
    1.6132   -0.9822    0.5563 C   0  0  0  0  0  0  0  0  0  0  0  0
    0.5886   -0.6857   -0.5018 C   0  0  0  0  0  0  0  0  0  0  0  0
   -0.0033   -1.9278   -0.8201 O   0  0  0  0  0  0  0  0  0  0  0  0
   -0.4457    0.3149   -0.1236 C   0  0  0  0  0  0  0  0  0  0  0  0
   -1.5260    0.4278   -1.1988 C   0  0  0  0  0  0  0  0  0  0  0  0
   -2.2506   -0.8739   -1.4263 C   0  0  0  0  0  0  0  0  0  0  0  0
    0.0469    1.5364    0.2268 O   0  0  0  0  0  0  0  0  0  0  0  0
   -0.3572    1.9815    1.4757 C   0  0  0  0  0  0  0  0  0  0  0  0
    3.4988   -0.1427    0.9661 H   0  0  0  0  0  0  0  0  0  0  0  0
    2.2633    1.0641    0.3648 H   0  0  0  0  0  0  0  0  0  0  0  0
    2.1992    0.4372    2.0859 H   0  0  0  0  0  0  0  0  0  0  0  0
    2.2589   -1.8441    0.2718 H   0  0  0  0  0  0  0  0  0  0  0  0
    1.0330   -1.3548    1.4624 H   0  0  0  0  0  0  0  0  0  0  0  0
    1.1095   -0.3405   -1.4371 H   0  0  0  0  0  0  0  0  0  0  0  0
    0.4810   -2.3424   -1.5825 H   0  0  0  0  0  0  0  0  0  0  0  0
   -1.0251   -0.0728    0.7643 H   0  0  0  0  0  0  0  0  0  0  0  0
   -2.2241    1.2383   -0.9988 H   0  0  0  0  0  0  0  0  0  0  0  0
   -0.9787    0.6574   -2.1462 H   0  0  0  0  0  0  0  0  0  0  0  0
   -3.3195   -0.6831   -1.7282 H   0  0  0  0  0  0  0  0  0  0  0  0
   -1.8043   -1.5207   -2.1954 H   0  0  0  0  0  0  0  0  0  0  0  0
   -2.2280   -1.4413   -0.4597 H   0  0  0  0  0  0  0  0  0  0  0  0
   -1.4662    2.0933    1.5382 H   0  0  0  0  0  0  0  0  0  0  0  0
    0.1004    2.9778    1.6293 H   0  0  0  0  0  0  0  0  0  0  0  0
    0.0312    1.2990    2.2449 H   0  0  0  0  0  0  0  0  0  0  0  0
  1  2  1  0
  2  3  1  0
  3  4  1  0
  3  5  1  0
  5  6  1  0
  6  7  1  0
  5  8  1  0
  8  9  1  0
  1 10  1  0
  1 11  1  0
  1 12  1  0
  2 13  1  0
  2 14  1  0
  3 15  1  0
  4 16  1  0
  5 17  1  0
  6 18  1  0
  6 19  1  0
  7 20  1  0
  7 21  1  0
  7 22  1  0
  9 23  1  0
  9 24  1  0
  9 25  1  0
M  END
