
     RDKit          3D

 25 24  0  0  0  0  0  0  0  0999 V2000
    2.2211    0.9833    0.7563 C   0  0  0  0  0  0  0  0  0  0  0  0
    2.0455    0.1603   -0.4650 C   0  0  0  0  0  0  0  0  0  0  0  0
    0.9196   -0.8079   -0.4684 C   0  0  0  0  0  0  0  0  0  0  0  0
    0.9063   -1.5290   -1.7091 O   0  0  0  0  0  0  0  0  0  0  0  0
   -0.4552   -0.2705   -0.3149 C   0  0  0  0  0  0  0  0  0  0  0  0
   -1.3725   -1.4994   -0.5582 C   0  0  0  0  0  0  0  0  0  0  0  0
   -0.8217    0.6051   -1.3390 O   0  0  0  0  0  0  0  0  0  0  0  0
   -0.8485    0.2900    0.9929 C   0  0  0  0  0  0  0  0  0  0  0  0
   -2.3105    0.7854    0.9582 C   0  0  0  0  0  0  0  0  0  0  0  0
    3.3330    1.2036    0.8615 H   0  0  0  0  0  0  0  0  0  0  0  0
    1.9519    0.4999    1.7111 H   0  0  0  0  0  0  0  0  0  0  0  0
    1.7800    2.0086    0.7003 H   0  0  0  0  0  0  0  0  0  0  0  0
    1.9922    0.8630   -1.3302 H   0  0  0  0  0  0  0  0  0  0  0  0
    2.9808   -0.4630   -0.6049 H   0  0  0  0  0  0  0  0  0  0  0  0
    1.0999   -1.5834    0.2896 H   0  0  0  0  0  0  0  0  0  0  0  0
    0.5983   -0.8529   -2.3703 H   0  0  0  0  0  0  0  0  0  0  0  0
   -0.9456   -1.9974   -1.4493 H   0  0  0  0  0  0  0  0  0  0  0  0
   -2.4163   -1.1424   -0.7743 H   0  0  0  0  0  0  0  0  0  0  0  0
   -1.3035   -2.0909    0.3622 H   0  0  0  0  0  0  0  0  0  0  0  0
   -0.3410    1.4527   -1.3137 H   0  0  0  0  0  0  0  0  0  0  0  0
   -0.8505   -0.4991    1.7981 H   0  0  0  0  0  0  0  0  0  0  0  0
   -0.2877    1.1311    1.3866 H   0  0  0  0  0  0  0  0  0  0  0  0
   -2.4870    1.3087    1.9167 H   0  0  0  0  0  0  0  0  0  0  0  0
   -3.0118   -0.0519    0.8436 H   0  0  0  0  0  0  0  0  0  0  0  0
   -2.3769    1.4961    0.1204 H   0  0  0  0  0  0  0  0  0  0  0  0
  1  2  1  0
  2  3  1  0
  3  4  1  0
  3  5  1  0
  5  6  1  0
  5  7  1  0
  5  8  1  0
  8  9  1  0
  1 10  1  0
  1 11  1  0
  1 12  1  0
  2 13  1  0
  2 14  1  0
  3 15  1  0
  4 16  1  0
  6 17  1  0
  6 18  1  0
  6 19  1  0
  7 20  1  0
  8 21  1  0
  8 22  1  0
  9 23  1  0
  9 24  1  0
  9 25  1  0
M  END
