
     RDKit          3D

 20 19  0  0  0  0  0  0  0  0999 V2000
    2.1575    0.1531    0.5678 C   0  0  0  0  0  0  0  0  0  0  0  0
    0.9857   -0.7387    0.2460 C   0  0  0  0  0  0  0  0  0  0  0  0
   -0.2558    0.0360   -0.0916 C   0  0  0  0  0  0  0  0  0  0  0  0
   -0.7110    0.9280    1.0277 C   0  0  0  0  0  0  0  0  0  0  0  0
    0.0178    0.7821   -1.3492 C   0  0  0  0  0  0  0  0  0  0  0  0
    0.2288    1.9620   -1.4222 O   0  0  0  0  0  0  0  0  0  0  0  0
   -1.3633   -0.9960   -0.3306 C   0  0  0  0  0  0  0  0  0  0  0  0
   -2.5711   -0.3376   -0.6556 O   0  0  0  0  0  0  0  0  0  0  0  0
    2.0603    0.6781    1.5293 H   0  0  0  0  0  0  0  0  0  0  0  0
    3.0616   -0.5060    0.6244 H   0  0  0  0  0  0  0  0  0  0  0  0
    2.3203    0.8598   -0.2622 H   0  0  0  0  0  0  0  0  0  0  0  0
    1.2670   -1.3146   -0.6677 H   0  0  0  0  0  0  0  0  0  0  0  0
    0.7973   -1.4307    1.0709 H   0  0  0  0  0  0  0  0  0  0  0  0
   -1.7000    0.6208    1.4382 H   0  0  0  0  0  0  0  0  0  0  0  0
   -0.8180    1.9863    0.7253 H   0  0  0  0  0  0  0  0  0  0  0  0
   -0.0083    0.8741    1.9083 H   0  0  0  0  0  0  0  0  0  0  0  0
    0.0252    0.2071   -2.2663 H   0  0  0  0  0  0  0  0  0  0  0  0
   -1.0873   -1.7020   -1.1207 H   0  0  0  0  0  0  0  0  0  0  0  0
   -1.5765   -1.5437    0.6087 H   0  0  0  0  0  0  0  0  0  0  0  0
   -2.8302   -0.5182   -1.5804 H   0  0  0  0  0  0  0  0  0  0  0  0
  1  2  1  0
  2  3  1  0
  3  4  1  0
  3  5  1  0
  5  6  2  0
  3  7  1  0
  7  8  1  0
  1  9  1  0
  1 10  1  0
  1 11  1  0
  2 12  1  0
  2 13  1  0
  4 14  1  0
  4 15  1  0
  4 16  1  0
  5 17  1  0
  7 18  1  0
  7 19  1  0
  8 20  1  0
M  END
