
     RDKit          3D

 19 19  0  0  0  0  0  0  0  0999 V2000
   -3.3694    0.3530    0.1258 C   0  0  0  0  0  0  0  0  0  0  0  0
   -1.9777    0.8863    0.1377 C   0  0  0  0  0  0  0  0  0  0  0  0
   -0.9687   -0.2034    0.0809 C   0  0  0  0  0  0  0  0  0  0  0  0
   -1.3838   -1.3853    0.0320 O   0  0  0  0  0  0  0  0  0  0  0  0
    0.3786    0.0400    0.0803 O   0  0  0  0  0  0  0  0  0  0  0  0
    1.2635   -1.0490    0.0245 C   0  0  0  0  0  0  0  0  0  0  0  0
    2.7049   -0.6709    0.0291 C   0  0  0  0  0  0  0  0  0  0  0  0
    3.1094    0.6656    0.3136 C   0  0  0  0  0  0  0  0  0  0  0  0
    3.2283    0.1291   -0.9717 O   0  0  0  0  0  0  0  0  0  0  0  0
   -4.0218    1.0637    0.6763 H   0  0  0  0  0  0  0  0  0  0  0  0
   -3.7957    0.2809   -0.9017 H   0  0  0  0  0  0  0  0  0  0  0  0
   -3.4589   -0.6596    0.5789 H   0  0  0  0  0  0  0  0  0  0  0  0
   -1.8756    1.6060   -0.7006 H   0  0  0  0  0  0  0  0  0  0  0  0
   -1.8334    1.4752    1.0854 H   0  0  0  0  0  0  0  0  0  0  0  0
    1.0829   -1.6845    0.9311 H   0  0  0  0  0  0  0  0  0  0  0  0
    1.0225   -1.6887   -0.8427 H   0  0  0  0  0  0  0  0  0  0  0  0
    3.3873   -1.5119    0.3294 H   0  0  0  0  0  0  0  0  0  0  0  0
    4.0586    0.8196    0.9038 H   0  0  0  0  0  0  0  0  0  0  0  0
    2.4489    1.5338    0.3653 H   0  0  0  0  0  0  0  0  0  0  0  0
  1  2  1  0
  2  3  1  0
  3  4  2  0
  3  5  1  0
  5  6  1  0
  6  7  1  0
  7  8  1  0
  8  9  1  0
  9  7  1  0
  1 10  1  0
  1 11  1  0
  1 12  1  0
  2 13  1  0
  2 14  1  0
  6 15  1  0
  6 16  1  0
  7 17  1  0
  8 18  1  0
  8 19  1  0
M  END
