
     RDKit          3D

 29 28  0  0  0  0  0  0  0  0999 V2000
    1.8200    1.5238    0.8525 C   0  0  0  0  0  0  0  0  0  0  0  0
    0.4105    1.3513    0.4086 C   0  0  0  0  0  0  0  0  0  0  0  0
    0.0275   -0.0280   -0.0616 C   0  0  0  0  0  0  0  0  0  0  0  0
    0.2725   -0.9699    1.1028 C   0  0  0  0  0  0  0  0  0  0  0  0
    0.7095   -0.4892   -1.2972 C   0  0  0  0  0  0  0  0  0  0  0  0
    2.1973   -0.5814   -1.2476 C   0  0  0  0  0  0  0  0  0  0  0  0
   -1.4638    0.0281   -0.3044 C   0  0  0  0  0  0  0  0  0  0  0  0
   -2.0668   -1.2358   -0.7797 C   0  0  0  0  0  0  0  0  0  0  0  0
   -2.2181    0.4617    0.9231 C   0  0  0  0  0  0  0  0  0  0  0  0
    2.1572    0.7711    1.5915 H   0  0  0  0  0  0  0  0  0  0  0  0
    1.8320    2.4883    1.4563 H   0  0  0  0  0  0  0  0  0  0  0  0
    2.5462    1.7377    0.0448 H   0  0  0  0  0  0  0  0  0  0  0  0
   -0.2521    1.7088    1.2276 H   0  0  0  0  0  0  0  0  0  0  0  0
    0.2561    2.1177   -0.4115 H   0  0  0  0  0  0  0  0  0  0  0  0
   -0.4070   -1.8175    1.1405 H   0  0  0  0  0  0  0  0  0  0  0  0
    0.1208   -0.3967    2.0557 H   0  0  0  0  0  0  0  0  0  0  0  0
    1.3445   -1.2988    1.1491 H   0  0  0  0  0  0  0  0  0  0  0  0
    0.4743    0.1647   -2.1907 H   0  0  0  0  0  0  0  0  0  0  0  0
    0.3213   -1.4909   -1.6502 H   0  0  0  0  0  0  0  0  0  0  0  0
    2.5475   -1.5045   -1.8071 H   0  0  0  0  0  0  0  0  0  0  0  0
    2.6544   -0.6300   -0.2628 H   0  0  0  0  0  0  0  0  0  0  0  0
    2.6925    0.2559   -1.8056 H   0  0  0  0  0  0  0  0  0  0  0  0
   -1.6248    0.8164   -1.0835 H   0  0  0  0  0  0  0  0  0  0  0  0
   -1.7100   -1.6004   -1.7569 H   0  0  0  0  0  0  0  0  0  0  0  0
   -2.0417   -2.0499   -0.0502 H   0  0  0  0  0  0  0  0  0  0  0  0
   -3.1663   -1.0182   -0.9421 H   0  0  0  0  0  0  0  0  0  0  0  0
   -1.8682    0.0050    1.8533 H   0  0  0  0  0  0  0  0  0  0  0  0
   -3.2888    0.1246    0.8016 H   0  0  0  0  0  0  0  0  0  0  0  0
   -2.2766    1.5563    1.0436 H   0  0  0  0  0  0  0  0  0  0  0  0
  1  2  1  0
  2  3  1  0
  3  4  1  0
  3  5  1  0
  5  6  1  0
  3  7  1  0
  7  8  1  0
  7  9  1  0
  1 10  1  0
  1 11  1  0
  1 12  1  0
  2 13  1  0
  2 14  1  0
  4 15  1  0
  4 16  1  0
  4 17  1  0
  5 18  1  0
  5 19  1  0
  6 20  1  0
  6 21  1  0
  6 22  1  0
  7 23  1  0
  8 24  1  0
  8 25  1  0
  8 26  1  0
  9 27  1  0
  9 28  1  0
  9 29  1  0
M  END
