
     RDKit          3D

 25 26  0  0  0  0  0  0  0  0999 V2000
    2.8497   -0.6259   -0.3916 C   0  0  0  0  0  0  0  0  0  0  0  0
    1.3738   -0.6555   -0.6983 C   0  0  0  0  0  0  0  0  0  0  0  0
    0.5751    0.0664    0.3743 C   0  0  0  0  0  0  0  0  0  0  0  0
    1.0565    1.4925    0.4115 C   0  0  0  0  0  0  0  0  0  0  0  0
   -0.7741   -0.0519    0.1902 C   0  0  0  0  0  0  0  0  0  0  0  0
   -1.8592    0.5365    1.0614 C   0  0  0  0  0  0  0  0  0  0  0  0
   -2.6099   -0.2238   -0.0025 C   0  0  0  0  0  0  0  0  0  0  0  0
   -1.5995   -1.3100    0.2291 C   0  0  0  0  0  0  0  0  0  0  0  0
   -1.6051    0.3632   -0.9624 C   0  0  0  0  0  0  0  0  0  0  0  0
    3.2780    0.3295   -0.7685 H   0  0  0  0  0  0  0  0  0  0  0  0
    3.3445   -1.5050   -0.8532 H   0  0  0  0  0  0  0  0  0  0  0  0
    2.9912   -0.6498    0.7149 H   0  0  0  0  0  0  0  0  0  0  0  0
    1.0062   -1.6978   -0.8439 H   0  0  0  0  0  0  0  0  0  0  0  0
    1.2149   -0.1453   -1.6800 H   0  0  0  0  0  0  0  0  0  0  0  0
    0.9197   -0.3959    1.3458 H   0  0  0  0  0  0  0  0  0  0  0  0
    0.6665    2.0299    1.3124 H   0  0  0  0  0  0  0  0  0  0  0  0
    0.8416    2.0403   -0.5291 H   0  0  0  0  0  0  0  0  0  0  0  0
    2.1698    1.4699    0.5097 H   0  0  0  0  0  0  0  0  0  0  0  0
   -1.9355    0.0887    2.0552 H   0  0  0  0  0  0  0  0  0  0  0  0
   -1.9516    1.6309    0.9871 H   0  0  0  0  0  0  0  0  0  0  0  0
   -3.5949   -0.3026   -0.1197 H   0  0  0  0  0  0  0  0  0  0  0  0
   -1.4334   -2.0282   -0.5667 H   0  0  0  0  0  0  0  0  0  0  0  0
   -1.6817   -1.6937    1.2633 H   0  0  0  0  0  0  0  0  0  0  0  0
   -1.4790   -0.1994   -1.9065 H   0  0  0  0  0  0  0  0  0  0  0  0
   -1.7636    1.4371   -1.1324 H   0  0  0  0  0  0  0  0  0  0  0  0
  1  2  1  0
  2  3  1  0
  3  4  1  0
  3  5  1  0
  5  6  1  0
  6  7  1  0
  7  8  1  0
  7  9  1  0
  8  5  1  0
  9  5  1  0
  1 10  1  0
  1 11  1  0
  1 12  1  0
  2 13  1  0
  2 14  1  0
  3 15  1  0
  4 16  1  0
  4 17  1  0
  4 18  1  0
  6 19  1  0
  6 20  1  0
  7 21  1  0
  8 22  1  0
  8 23  1  0
  9 24  1  0
  9 25  1  0
M  END
