
     RDKit          3D

 19 19  0  0  0  0  0  0  0  0999 V2000
    2.8018    0.1887   -0.6939 C   0  0  0  0  0  0  0  0  0  0  0  0
    1.6014   -0.3129    0.0682 C   0  0  0  0  0  0  0  0  0  0  0  0
    0.4751    0.6486    0.0563 C   0  0  0  0  0  0  0  0  0  0  0  0
    0.5656    1.7000   -0.5152 O   0  0  0  0  0  0  0  0  0  0  0  0
   -0.7514    0.2413    0.7812 C   0  0  0  0  0  0  0  0  0  0  0  0
   -1.3646   -1.0340    0.2419 C   0  0  0  0  0  0  0  0  0  0  0  0
   -2.4836   -0.1515   -0.2662 C   0  0  0  0  0  0  0  0  0  0  0  0
   -1.9617    1.0174    0.5042 C   0  0  0  0  0  0  0  0  0  0  0  0
   -2.4461    2.1056    0.7300 O   0  0  0  0  0  0  0  0  0  0  0  0
    3.3005    0.9572   -0.0623 H   0  0  0  0  0  0  0  0  0  0  0  0
    2.5542    0.6088   -1.6689 H   0  0  0  0  0  0  0  0  0  0  0  0
    3.5223   -0.6696   -0.7460 H   0  0  0  0  0  0  0  0  0  0  0  0
    1.2302   -1.2777   -0.3048 H   0  0  0  0  0  0  0  0  0  0  0  0
    1.8865   -0.4566    1.1378 H   0  0  0  0  0  0  0  0  0  0  0  0
   -0.5708    0.1608    1.8862 H   0  0  0  0  0  0  0  0  0  0  0  0
   -0.7789   -1.5395   -0.5482 H   0  0  0  0  0  0  0  0  0  0  0  0
   -1.6423   -1.7472    1.0267 H   0  0  0  0  0  0  0  0  0  0  0  0
   -2.4492    0.0360   -1.3530 H   0  0  0  0  0  0  0  0  0  0  0  0
   -3.4888   -0.4755    0.0662 H   0  0  0  0  0  0  0  0  0  0  0  0
  1  2  1  0
  2  3  1  0
  3  4  2  0
  3  5  1  0
  5  6  1  0
  6  7  1  0
  7  8  1  0
  8  9  2  0
  8  5  1  0
  1 10  1  0
  1 11  1  0
  1 12  1  0
  2 13  1  0
  2 14  1  0
  5 15  1  0
  6 16  1  0
  6 17  1  0
  7 18  1  0
  7 19  1  0
M  END
