
     RDKit          3D

 25 24  0  0  0  0  0  0  0  0999 V2000
   -2.1900   -1.5079   -0.0863 C   0  0  0  0  0  0  0  0  0  0  0  0
   -1.9565   -0.3915    0.8976 C   0  0  0  0  0  0  0  0  0  0  0  0
   -0.5830    0.2428    0.5220 C   0  0  0  0  0  0  0  0  0  0  0  0
    0.4332   -0.8142    0.6367 C   0  0  0  0  0  0  0  0  0  0  0  0
    1.8509   -0.4461    0.3162 C   0  0  0  0  0  0  0  0  0  0  0  0
    2.0719    0.0037   -1.1008 C   0  0  0  0  0  0  0  0  0  0  0  0
    3.4286    0.3045   -1.2530 O   0  0  0  0  0  0  0  0  0  0  0  0
   -0.7889    0.8223   -0.7062 O   0  0  0  0  0  0  0  0  0  0  0  0
   -0.7701    2.2245   -0.5026 C   0  0  0  0  0  0  0  0  0  0  0  0
   -1.7108   -1.2945   -1.0755 H   0  0  0  0  0  0  0  0  0  0  0  0
   -1.7755   -2.4623    0.2870 H   0  0  0  0  0  0  0  0  0  0  0  0
   -3.2906   -1.5972   -0.3039 H   0  0  0  0  0  0  0  0  0  0  0  0
   -1.9523   -0.7231    1.9367 H   0  0  0  0  0  0  0  0  0  0  0  0
   -2.7415    0.3665    0.7396 H   0  0  0  0  0  0  0  0  0  0  0  0
   -0.4000    1.0255    1.3225 H   0  0  0  0  0  0  0  0  0  0  0  0
    0.4652   -1.1388    1.7267 H   0  0  0  0  0  0  0  0  0  0  0  0
    0.1358   -1.7712    0.1153 H   0  0  0  0  0  0  0  0  0  0  0  0
    2.5256   -1.3491    0.4354 H   0  0  0  0  0  0  0  0  0  0  0  0
    2.2454    0.3284    1.0138 H   0  0  0  0  0  0  0  0  0  0  0  0
    1.4940    0.8592   -1.4309 H   0  0  0  0  0  0  0  0  0  0  0  0
    1.8603   -0.8654   -1.7834 H   0  0  0  0  0  0  0  0  0  0  0  0
    3.8916    0.4405   -0.4054 H   0  0  0  0  0  0  0  0  0  0  0  0
   -0.9301    2.7628   -1.4520 H   0  0  0  0  0  0  0  0  0  0  0  0
    0.2233    2.4389   -0.0664 H   0  0  0  0  0  0  0  0  0  0  0  0
   -1.5364    2.5416    0.2169 H   0  0  0  0  0  0  0  0  0  0  0  0
  1  2  1  0
  2  3  1  0
  3  4  1  0
  4  5  1  0
  5  6  1  0
  6  7  1  0
  3  8  1  0
  8  9  1  0
  1 10  1  0
  1 11  1  0
  1 12  1  0
  2 13  1  0
  2 14  1  0
  3 15  1  0
  4 16  1  0
  4 17  1  0
  5 18  1  0
  5 19  1  0
  6 20  1  0
  6 21  1  0
  7 22  1  0
  9 23  1  0
  9 24  1  0
  9 25  1  0
M  END
