
     RDKit          3D

 17 16  0  0  0  0  0  0  0  0999 V2000
    2.0270   -0.3781   -0.1563 C   0  0  0  0  0  0  0  0  0  0  0  0
    0.9066   -0.2274    0.8021 C   0  0  0  0  0  0  0  0  0  0  0  0
   -0.3324    0.4025    0.2163 C   0  0  0  0  0  0  0  0  0  0  0  0
   -0.0726    1.7578   -0.3022 C   0  0  0  0  0  0  0  0  0  0  0  0
   -0.3013    2.0523   -1.4493 O   0  0  0  0  0  0  0  0  0  0  0  0
   -0.8496   -0.3847   -0.8115 O   0  0  0  0  0  0  0  0  0  0  0  0
   -2.1179   -0.8830   -0.4334 C   0  0  0  0  0  0  0  0  0  0  0  0
    2.7090    0.4924   -0.0658 H   0  0  0  0  0  0  0  0  0  0  0  0
    1.6843   -0.5457   -1.1949 H   0  0  0  0  0  0  0  0  0  0  0  0
    2.6149   -1.2734    0.1434 H   0  0  0  0  0  0  0  0  0  0  0  0
    1.2326    0.3413    1.6884 H   0  0  0  0  0  0  0  0  0  0  0  0
    0.6120   -1.2386    1.1799 H   0  0  0  0  0  0  0  0  0  0  0  0
   -1.0803    0.4180    1.0656 H   0  0  0  0  0  0  0  0  0  0  0  0
    0.3300    2.5047    0.3529 H   0  0  0  0  0  0  0  0  0  0  0  0
   -2.0298   -1.4960    0.4809 H   0  0  0  0  0  0  0  0  0  0  0  0
   -2.8005   -0.0393   -0.2157 H   0  0  0  0  0  0  0  0  0  0  0  0
   -2.5320   -1.5028   -1.2513 H   0  0  0  0  0  0  0  0  0  0  0  0
  1  2  1  0
  2  3  1  0
  3  4  1  0
  4  5  2  0
  3  6  1  0
  6  7  1  0
  1  8  1  0
  1  9  1  0
  1 10  1  0
  2 11  1  0
  2 12  1  0
  3 13  1  0
  4 14  1  0
  7 15  1  0
  7 16  1  0
  7 17  1  0
M  END
