
     RDKit          3D

 19 18  0  0  0  0  0  0  0  0999 V2000
    2.1370   -0.1305    0.2006 C   0  0  0  0  0  0  0  0  0  0  0  0
    0.8383   -0.7078   -0.3231 C   0  0  0  0  0  0  0  0  0  0  0  0
   -0.2160    0.3189   -0.5352 C   0  0  0  0  0  0  0  0  0  0  0  0
   -0.5830    1.0619    0.7311 C   0  0  0  0  0  0  0  0  0  0  0  0
    0.5114    1.7282    1.2720 O   0  0  0  0  0  0  0  0  0  0  0  0
   -1.4405   -0.3536   -1.0401 C   0  0  0  0  0  0  0  0  0  0  0  0
   -1.9027   -0.0303   -2.1593 O   0  0  0  0  0  0  0  0  0  0  0  0
   -2.0924   -1.3723   -0.2460 C   0  0  0  0  0  0  0  0  0  0  0  0
   -1.7028   -1.7523    0.8731 O   0  0  0  0  0  0  0  0  0  0  0  0
    2.4713    0.7582   -0.3367 H   0  0  0  0  0  0  0  0  0  0  0  0
    2.9064   -0.9443    0.0513 H   0  0  0  0  0  0  0  0  0  0  0  0
    2.0806   -0.0037    1.3058 H   0  0  0  0  0  0  0  0  0  0  0  0
    0.5622   -1.5303    0.3573 H   0  0  0  0  0  0  0  0  0  0  0  0
    1.0806   -1.1484   -1.3216 H   0  0  0  0  0  0  0  0  0  0  0  0
    0.1603    1.0676   -1.2478 H   0  0  0  0  0  0  0  0  0  0  0  0
   -1.0099    0.3885    1.5069 H   0  0  0  0  0  0  0  0  0  0  0  0
   -1.3524    1.8313    0.5160 H   0  0  0  0  0  0  0  0  0  0  0  0
    0.5471    2.6833    1.0231 H   0  0  0  0  0  0  0  0  0  0  0  0
   -2.9954   -1.8642   -0.6275 H   0  0  0  0  0  0  0  0  0  0  0  0
  1  2  1  0
  2  3  1  0
  3  4  1  0
  4  5  1  0
  3  6  1  0
  6  7  2  0
  6  8  1  0
  8  9  2  0
  1 10  1  0
  1 11  1  0
  1 12  1  0
  2 13  1  0
  2 14  1  0
  3 15  1  0
  4 16  1  0
  4 17  1  0
  5 18  1  0
  8 19  1  0
M  END
