
     RDKit          3D

 25 25  0  0  0  0  0  0  0  0999 V2000
    2.5500    0.8212   -0.4880 C   0  0  0  0  0  0  0  0  0  0  0  0
    2.2712   -0.3263    0.4505 C   0  0  0  0  0  0  0  0  0  0  0  0
    0.8483   -0.3024    0.9691 C   0  0  0  0  0  0  0  0  0  0  0  0
    0.6463    0.8648    1.6397 O   0  0  0  0  0  0  0  0  0  0  0  0
   -0.1255   -0.6137   -0.1116 C   0  0  0  0  0  0  0  0  0  0  0  0
   -1.5906   -0.5987    0.3796 C   0  0  0  0  0  0  0  0  0  0  0  0
   -2.4152   -1.8049   -0.0093 C   0  0  0  0  0  0  0  0  0  0  0  0
   -1.0778    0.3211   -0.6932 C   0  0  0  0  0  0  0  0  0  0  0  0
   -1.1480    1.7777   -0.3685 C   0  0  0  0  0  0  0  0  0  0  0  0
    2.4631    1.7873    0.0499 H   0  0  0  0  0  0  0  0  0  0  0  0
    3.6062    0.7189   -0.8136 H   0  0  0  0  0  0  0  0  0  0  0  0
    1.9270    0.7706   -1.3847 H   0  0  0  0  0  0  0  0  0  0  0  0
    3.0204   -0.4052    1.2369 H   0  0  0  0  0  0  0  0  0  0  0  0
    2.3548   -1.2614   -0.1718 H   0  0  0  0  0  0  0  0  0  0  0  0
    0.8015   -1.1382    1.7288 H   0  0  0  0  0  0  0  0  0  0  0  0
    0.2801    0.7371    2.5573 H   0  0  0  0  0  0  0  0  0  0  0  0
    0.1587   -1.5034   -0.7231 H   0  0  0  0  0  0  0  0  0  0  0  0
   -1.8082   -0.1753    1.3578 H   0  0  0  0  0  0  0  0  0  0  0  0
   -3.4799   -1.6149    0.0813 H   0  0  0  0  0  0  0  0  0  0  0  0
   -2.0972   -2.0809   -1.0415 H   0  0  0  0  0  0  0  0  0  0  0  0
   -2.1022   -2.6353    0.6562 H   0  0  0  0  0  0  0  0  0  0  0  0
   -1.4796    0.0810   -1.7021 H   0  0  0  0  0  0  0  0  0  0  0  0
   -1.5072    2.4045   -1.2375 H   0  0  0  0  0  0  0  0  0  0  0  0
   -1.8987    1.9466    0.4280 H   0  0  0  0  0  0  0  0  0  0  0  0
   -0.1976    2.2297   -0.0586 H   0  0  0  0  0  0  0  0  0  0  0  0
  1  2  1  0
  2  3  1  0
  3  4  1  0
  3  5  1  0
  5  6  1  0
  6  7  1  0
  6  8  1  0
  8  9  1  0
  8  5  1  0
  1 10  1  0
  1 11  1  0
  1 12  1  0
  2 13  1  0
  2 14  1  0
  3 15  1  0
  4 16  1  0
  5 17  1  0
  6 18  1  0
  7 19  1  0
  7 20  1  0
  7 21  1  0
  8 22  1  0
  9 23  1  0
  9 24  1  0
  9 25  1  0
M  END
