
     RDKit          3D

 24 23  0  0  0  0  0  0  0  0999 V2000
   -2.4691   -1.1512   -0.0308 C   0  0  0  0  0  0  0  0  0  0  0  0
   -2.0137    0.2468    0.2512 C   0  0  0  0  0  0  0  0  0  0  0  0
   -0.6416    0.5610   -0.2637 C   0  0  0  0  0  0  0  0  0  0  0  0
   -0.3635    2.0065    0.1156 C   0  0  0  0  0  0  0  0  0  0  0  0
    0.4395   -0.2777    0.3530 C   0  0  0  0  0  0  0  0  0  0  0  0
    0.2670   -1.6386    0.1308 O   0  0  0  0  0  0  0  0  0  0  0  0
    1.7581    0.1123   -0.2767 C   0  0  0  0  0  0  0  0  0  0  0  0
    2.9084   -0.6965    0.2978 C   0  0  0  0  0  0  0  0  0  0  0  0
   -2.3842   -1.4263   -1.1089 H   0  0  0  0  0  0  0  0  0  0  0  0
   -2.0040   -1.9093    0.6362 H   0  0  0  0  0  0  0  0  0  0  0  0
   -3.5626   -1.1875    0.1974 H   0  0  0  0  0  0  0  0  0  0  0  0
   -2.0678    0.4209    1.3300 H   0  0  0  0  0  0  0  0  0  0  0  0
   -2.7240    0.9401   -0.2337 H   0  0  0  0  0  0  0  0  0  0  0  0
   -0.5987    0.4577   -1.3615 H   0  0  0  0  0  0  0  0  0  0  0  0
    0.4336    2.4640   -0.4662 H   0  0  0  0  0  0  0  0  0  0  0  0
   -1.3009    2.5876   -0.0892 H   0  0  0  0  0  0  0  0  0  0  0  0
   -0.1960    2.0278    1.2197 H   0  0  0  0  0  0  0  0  0  0  0  0
    0.5261   -0.0622    1.4367 H   0  0  0  0  0  0  0  0  0  0  0  0
    0.5474   -1.9044   -0.7792 H   0  0  0  0  0  0  0  0  0  0  0  0
    1.9901    1.1785   -0.1659 H   0  0  0  0  0  0  0  0  0  0  0  0
    1.7637   -0.0973   -1.3785 H   0  0  0  0  0  0  0  0  0  0  0  0
    2.6054   -1.7092    0.6076 H   0  0  0  0  0  0  0  0  0  0  0  0
    3.7127   -0.7655   -0.4632 H   0  0  0  0  0  0  0  0  0  0  0  0
    3.3740   -0.1776    1.1773 H   0  0  0  0  0  0  0  0  0  0  0  0
  1  2  1  0
  2  3  1  0
  3  4  1  0
  3  5  1  0
  5  6  1  0
  5  7  1  0
  7  8  1  0
  1  9  1  0
  1 10  1  0
  1 11  1  0
  2 12  1  0
  2 13  1  0
  3 14  1  0
  4 15  1  0
  4 16  1  0
  4 17  1  0
  5 18  1  0
  6 19  1  0
  7 20  1  0
  7 21  1  0
  8 22  1  0
  8 23  1  0
  8 24  1  0
M  END
