
     RDKit          3D

 21 21  0  0  0  0  0  0  0  0999 V2000
   -1.8458   -0.8733    0.6233 C   0  0  0  0  0  0  0  0  0  0  0  0
   -1.7511    0.6356    0.4900 C   0  0  0  0  0  0  0  0  0  0  0  0
   -0.7329    0.9088   -0.6140 C   0  0  0  0  0  0  0  0  0  0  0  0
   -0.5467    2.2538   -0.8426 O   0  0  0  0  0  0  0  0  0  0  0  0
    0.5469    0.1988   -0.2716 C   0  0  0  0  0  0  0  0  0  0  0  0
    1.1208   -0.7238   -1.0253 C   0  0  0  0  0  0  0  0  0  0  0  0
    2.3562   -1.1623   -0.3216 C   0  0  0  0  0  0  0  0  0  0  0  0
    2.1287   -0.7690    0.9969 O   0  0  0  0  0  0  0  0  0  0  0  0
    1.3913    0.3896    0.9253 C   0  0  0  0  0  0  0  0  0  0  0  0
   -2.3455   -1.3369   -0.2678 H   0  0  0  0  0  0  0  0  0  0  0  0
   -0.8004   -1.2491    0.6768 H   0  0  0  0  0  0  0  0  0  0  0  0
   -2.3947   -1.1612    1.5439 H   0  0  0  0  0  0  0  0  0  0  0  0
   -1.3678    1.0250    1.4323 H   0  0  0  0  0  0  0  0  0  0  0  0
   -2.7344    1.0265    0.2246 H   0  0  0  0  0  0  0  0  0  0  0  0
   -1.1550    0.4568   -1.5314 H   0  0  0  0  0  0  0  0  0  0  0  0
   -1.1581    2.6338   -1.5144 H   0  0  0  0  0  0  0  0  0  0  0  0
    0.7394   -1.0872   -1.9924 H   0  0  0  0  0  0  0  0  0  0  0  0
    2.3591   -2.2722   -0.3509 H   0  0  0  0  0  0  0  0  0  0  0  0
    3.2555   -0.7050   -0.7632 H   0  0  0  0  0  0  0  0  0  0  0  0
    0.7992    0.5898    1.8405 H   0  0  0  0  0  0  0  0  0  0  0  0
    2.1350    1.2214    0.7417 H   0  0  0  0  0  0  0  0  0  0  0  0
  1  2  1  0
  2  3  1  0
  3  4  1  0
  3  5  1  0
  5  6  2  0
  6  7  1  0
  7  8  1  0
  8  9  1  0
  9  5  1  0
  1 10  1  0
  1 11  1  0
  1 12  1  0
  2 13  1  0
  2 14  1  0
  3 15  1  0
  4 16  1  0
  6 17  1  0
  7 18  1  0
  7 19  1  0
  9 20  1  0
  9 21  1  0
M  END
