
     RDKit          3D

 23 22  0  0  0  0  0  0  0  0999 V2000
   -3.3220    0.7069    0.0860 C   0  0  0  0  0  0  0  0  0  0  0  0
   -2.7317   -0.6050    0.5144 C   0  0  0  0  0  0  0  0  0  0  0  0
   -1.2416   -0.6163    0.5140 C   0  0  0  0  0  0  0  0  0  0  0  0
   -0.6794   -0.5080    1.5921 O   0  0  0  0  0  0  0  0  0  0  0  0
   -0.5671   -0.7561   -0.7781 C   0  0  0  0  0  0  0  0  0  0  0  0
    0.9059   -0.8791   -0.7672 C   0  0  0  0  0  0  0  0  0  0  0  0
    1.6859    0.2296   -0.1617 C   0  0  0  0  0  0  0  0  0  0  0  0
    3.0587   -0.1100   -0.2729 O   0  0  0  0  0  0  0  0  0  0  0  0
    3.8194    0.9203    0.2899 C   0  0  0  0  0  0  0  0  0  0  0  0
   -3.5669    1.3641    0.9446 H   0  0  0  0  0  0  0  0  0  0  0  0
   -2.6437    1.2220   -0.6424 H   0  0  0  0  0  0  0  0  0  0  0  0
   -4.2970    0.5539   -0.4728 H   0  0  0  0  0  0  0  0  0  0  0  0
   -3.1321   -0.8895    1.5216 H   0  0  0  0  0  0  0  0  0  0  0  0
   -3.0749   -1.3826   -0.2072 H   0  0  0  0  0  0  0  0  0  0  0  0
   -0.9086    0.1162   -1.4077 H   0  0  0  0  0  0  0  0  0  0  0  0
   -0.9810   -1.6483   -1.2847 H   0  0  0  0  0  0  0  0  0  0  0  0
    1.2436   -1.8221   -0.3069 H   0  0  0  0  0  0  0  0  0  0  0  0
    1.2342   -0.9567   -1.8430 H   0  0  0  0  0  0  0  0  0  0  0  0
    1.5372    0.2995    0.9603 H   0  0  0  0  0  0  0  0  0  0  0  0
    1.5638    1.2131   -0.6391 H   0  0  0  0  0  0  0  0  0  0  0  0
    4.8898    0.6307    0.1858 H   0  0  0  0  0  0  0  0  0  0  0  0
    3.6067    1.8151   -0.3692 H   0  0  0  0  0  0  0  0  0  0  0  0
    3.6010    1.1023    1.3429 H   0  0  0  0  0  0  0  0  0  0  0  0
  1  2  1  0
  2  3  1  0
  3  4  2  0
  3  5  1  0
  5  6  1  0
  6  7  1  0
  7  8  1  0
  8  9  1  0
  1 10  1  0
  1 11  1  0
  1 12  1  0
  2 13  1  0
  2 14  1  0
  5 15  1  0
  5 16  1  0
  6 17  1  0
  6 18  1  0
  7 19  1  0
  7 20  1  0
  9 21  1  0
  9 22  1  0
  9 23  1  0
M  END
