
     RDKit          3D

 23 23  0  0  0  0  0  0  0  0999 V2000
    3.2933    0.5290   -0.5370 C   0  0  0  0  0  0  0  0  0  0  0  0
    1.7955    0.3220   -0.6632 C   0  0  0  0  0  0  0  0  0  0  0  0
    1.2735   -0.0031    0.7164 C   0  0  0  0  0  0  0  0  0  0  0  0
    1.9149   -1.1641    1.1483 O   0  0  0  0  0  0  0  0  0  0  0  0
   -0.2082   -0.1689    0.7568 C   0  0  0  0  0  0  0  0  0  0  0  0
   -0.8536    1.0709    0.2963 O   0  0  0  0  0  0  0  0  0  0  0  0
   -1.0816   -0.1992   -0.3779 C   0  0  0  0  0  0  0  0  0  0  0  0
   -2.5080   -0.6113   -0.2100 C   0  0  0  0  0  0  0  0  0  0  0  0
   -3.2861    0.2696    0.7417 C   0  0  0  0  0  0  0  0  0  0  0  0
    3.4383    1.4225    0.0884 H   0  0  0  0  0  0  0  0  0  0  0  0
    3.7697    0.6842   -1.5254 H   0  0  0  0  0  0  0  0  0  0  0  0
    3.7092   -0.3366    0.0076 H   0  0  0  0  0  0  0  0  0  0  0  0
    1.6223   -0.4994   -1.3878 H   0  0  0  0  0  0  0  0  0  0  0  0
    1.3453    1.2561   -1.0490 H   0  0  0  0  0  0  0  0  0  0  0  0
    1.6488    0.8128    1.3899 H   0  0  0  0  0  0  0  0  0  0  0  0
    1.4369   -1.9516    0.8154 H   0  0  0  0  0  0  0  0  0  0  0  0
   -0.5991   -0.5399    1.7268 H   0  0  0  0  0  0  0  0  0  0  0  0
   -0.6392   -0.2594   -1.3923 H   0  0  0  0  0  0  0  0  0  0  0  0
   -3.0449   -0.5585   -1.1870 H   0  0  0  0  0  0  0  0  0  0  0  0
   -2.6258   -1.6599    0.1371 H   0  0  0  0  0  0  0  0  0  0  0  0
   -3.2911   -0.1234    1.7724 H   0  0  0  0  0  0  0  0  0  0  0  0
   -2.7831    1.2650    0.7948 H   0  0  0  0  0  0  0  0  0  0  0  0
   -4.3270    0.4430    0.4061 H   0  0  0  0  0  0  0  0  0  0  0  0
  1  2  1  0
  2  3  1  0
  3  4  1  0
  3  5  1  0
  5  6  1  0
  6  7  1  0
  7  8  1  0
  8  9  1  0
  7  5  1  0
  1 10  1  0
  1 11  1  0
  1 12  1  0
  2 13  1  0
  2 14  1  0
  3 15  1  0
  4 16  1  0
  5 17  1  0
  7 18  1  0
  8 19  1  0
  8 20  1  0
  9 21  1  0
  9 22  1  0
  9 23  1  0
M  END
