
     RDKit          3D

 23 22  0  0  0  0  0  0  0  0999 V2000
   -1.8679    1.1280    1.0423 C   0  0  0  0  0  0  0  0  0  0  0  0
   -1.4085   -0.3042    1.1001 C   0  0  0  0  0  0  0  0  0  0  0  0
   -0.3837   -0.5365   -0.0189 C   0  0  0  0  0  0  0  0  0  0  0  0
    0.0280   -1.9957    0.1069 C   0  0  0  0  0  0  0  0  0  0  0  0
   -1.0399   -0.3107   -1.3449 C   0  0  0  0  0  0  0  0  0  0  0  0
    0.6815    0.3448    0.2376 O   0  0  0  0  0  0  0  0  0  0  0  0
    1.8181    0.4527   -0.5419 C   0  0  0  0  0  0  0  0  0  0  0  0
    2.9164    1.4223   -0.2005 C   0  0  0  0  0  0  0  0  0  0  0  0
    1.9095   -0.2877   -1.5522 O   0  0  0  0  0  0  0  0  0  0  0  0
   -1.7737    1.6527    2.0179 H   0  0  0  0  0  0  0  0  0  0  0  0
   -1.3218    1.6996    0.2691 H   0  0  0  0  0  0  0  0  0  0  0  0
   -2.9372    1.1275    0.7329 H   0  0  0  0  0  0  0  0  0  0  0  0
   -2.2303   -1.0181    1.0132 H   0  0  0  0  0  0  0  0  0  0  0  0
   -0.8306   -0.4427    2.0510 H   0  0  0  0  0  0  0  0  0  0  0  0
    1.0635   -2.0607   -0.2867 H   0  0  0  0  0  0  0  0  0  0  0  0
    0.0836   -2.2858    1.1722 H   0  0  0  0  0  0  0  0  0  0  0  0
   -0.6355   -2.6193   -0.4925 H   0  0  0  0  0  0  0  0  0  0  0  0
   -1.4582   -1.2891   -1.6804 H   0  0  0  0  0  0  0  0  0  0  0  0
   -0.3477    0.0149   -2.1352 H   0  0  0  0  0  0  0  0  0  0  0  0
   -1.8856    0.4030   -1.2030 H   0  0  0  0  0  0  0  0  0  0  0  0
    2.5151    2.4130    0.0409 H   0  0  0  0  0  0  0  0  0  0  0  0
    3.4793    1.0587    0.7021 H   0  0  0  0  0  0  0  0  0  0  0  0
    3.6256    1.4332   -1.0302 H   0  0  0  0  0  0  0  0  0  0  0  0
  1  2  1  0
  2  3  1  0
  3  4  1  0
  3  5  1  0
  3  6  1  0
  6  7  1  0
  7  8  1  0
  7  9  2  0
  1 10  1  0
  1 11  1  0
  1 12  1  0
  2 13  1  0
  2 14  1  0
  4 15  1  0
  4 16  1  0
  4 17  1  0
  5 18  1  0
  5 19  1  0
  5 20  1  0
  8 21  1  0
  8 22  1  0
  8 23  1  0
M  END
