
     RDKit          3D

 19 18  0  0  0  0  0  0  0  0999 V2000
    2.0114    0.7602    0.1612 C   0  0  0  0  0  0  0  0  0  0  0  0
    1.4198   -0.2288   -0.8310 C   0  0  0  0  0  0  0  0  0  0  0  0
    0.1457   -0.7452   -0.2513 C   0  0  0  0  0  0  0  0  0  0  0  0
    0.4484   -1.3690    0.9608 O   0  0  0  0  0  0  0  0  0  0  0  0
   -0.8821    0.3327   -0.0290 C   0  0  0  0  0  0  0  0  0  0  0  0
   -2.1323   -0.2768    0.5658 C   0  0  0  0  0  0  0  0  0  0  0  0
   -1.1900    0.9566   -1.2187 O   0  0  0  0  0  0  0  0  0  0  0  0
    3.0598    0.4624    0.3818 H   0  0  0  0  0  0  0  0  0  0  0  0
    1.9395    1.7941   -0.2076 H   0  0  0  0  0  0  0  0  0  0  0  0
    1.4700    0.7344    1.1353 H   0  0  0  0  0  0  0  0  0  0  0  0
    2.0976   -1.0945   -0.9858 H   0  0  0  0  0  0  0  0  0  0  0  0
    1.2826    0.2909   -1.8034 H   0  0  0  0  0  0  0  0  0  0  0  0
   -0.3235   -1.5217   -0.9170 H   0  0  0  0  0  0  0  0  0  0  0  0
   -0.3023   -1.8906    1.3220 H   0  0  0  0  0  0  0  0  0  0  0  0
   -0.4994    1.0918    0.6820 H   0  0  0  0  0  0  0  0  0  0  0  0
   -2.9115    0.5128    0.6575 H   0  0  0  0  0  0  0  0  0  0  0  0
   -2.4578   -1.1236   -0.0787 H   0  0  0  0  0  0  0  0  0  0  0  0
   -1.8626   -0.6046    1.5950 H   0  0  0  0  0  0  0  0  0  0  0  0
   -1.3133    1.9190   -1.1390 H   0  0  0  0  0  0  0  0  0  0  0  0
  1  2  1  0
  2  3  1  0
  3  4  1  0
  3  5  1  0
  5  6  1  0
  5  7  1  0
  1  8  1  0
  1  9  1  0
  1 10  1  0
  2 11  1  0
  2 12  1  0
  3 13  1  0
  4 14  1  0
  5 15  1  0
  6 16  1  0
  6 17  1  0
  6 18  1  0
  7 19  1  0
M  END
