
     RDKit          3D

 21 20  0  0  0  0  0  0  0  0999 V2000
    2.9628   -0.1180    0.2345 C   0  0  0  0  0  0  0  0  0  0  0  0
    1.6832   -0.5735   -0.4081 C   0  0  0  0  0  0  0  0  0  0  0  0
    0.5730    0.3518   -0.0564 C   0  0  0  0  0  0  0  0  0  0  0  0
    0.7839    1.3116    0.6589 O   0  0  0  0  0  0  0  0  0  0  0  0
   -0.8074    0.1449   -0.5538 C   0  0  0  0  0  0  0  0  0  0  0  0
   -1.2866   -1.2031   -0.0558 C   0  0  0  0  0  0  0  0  0  0  0  0
   -2.5782   -1.4543   -0.4906 O   0  0  0  0  0  0  0  0  0  0  0  0
   -1.6907    1.2663   -0.1119 C   0  0  0  0  0  0  0  0  0  0  0  0
   -1.7627    1.3837    1.2764 O   0  0  0  0  0  0  0  0  0  0  0  0
    3.6935    0.3031   -0.4879 H   0  0  0  0  0  0  0  0  0  0  0  0
    3.4465   -0.9499    0.8231 H   0  0  0  0  0  0  0  0  0  0  0  0
    2.7233    0.6716    0.9761 H   0  0  0  0  0  0  0  0  0  0  0  0
    1.7848   -0.6791   -1.5165 H   0  0  0  0  0  0  0  0  0  0  0  0
    1.4653   -1.6031   -0.0322 H   0  0  0  0  0  0  0  0  0  0  0  0
   -0.7875    0.1615   -1.6669 H   0  0  0  0  0  0  0  0  0  0  0  0
   -1.1641   -1.2832    1.0423 H   0  0  0  0  0  0  0  0  0  0  0  0
   -0.5755   -1.9616   -0.4953 H   0  0  0  0  0  0  0  0  0  0  0  0
   -3.1496   -1.4616    0.3409 H   0  0  0  0  0  0  0  0  0  0  0  0
   -2.7012    1.2308   -0.5641 H   0  0  0  0  0  0  0  0  0  0  0  0
   -1.2273    2.2120   -0.5046 H   0  0  0  0  0  0  0  0  0  0  0  0
   -1.3856    2.2500    1.5919 H   0  0  0  0  0  0  0  0  0  0  0  0
  1  2  1  0
  2  3  1  0
  3  4  2  0
  3  5  1  0
  5  6  1  0
  6  7  1  0
  5  8  1  0
  8  9  1  0
  1 10  1  0
  1 11  1  0
  1 12  1  0
  2 13  1  0
  2 14  1  0
  5 15  1  0
  6 16  1  0
  6 17  1  0
  7 18  1  0
  8 19  1  0
  8 20  1  0
  9 21  1  0
M  END
