
     RDKit          3D

 21 20  0  0  0  0  0  0  0  0999 V2000
   -2.7947    0.6114    0.2783 C   0  0  0  0  0  0  0  0  0  0  0  0
   -1.3002    0.5383    0.5592 C   0  0  0  0  0  0  0  0  0  0  0  0
   -0.6082   -0.3856   -0.4218 C   0  0  0  0  0  0  0  0  0  0  0  0
   -0.7901    0.0969   -1.8457 C   0  0  0  0  0  0  0  0  0  0  0  0
   -1.1589   -1.6607   -0.3111 O   0  0  0  0  0  0  0  0  0  0  0  0
    0.8134   -0.4087   -0.0599 C   0  0  0  0  0  0  0  0  0  0  0  0
    1.9890   -0.4161    0.2477 C   0  0  0  0  0  0  0  0  0  0  0  0
    3.4173   -0.4373    0.5986 C   0  0  0  0  0  0  0  0  0  0  0  0
    3.7895    0.8785    0.8707 O   0  0  0  0  0  0  0  0  0  0  0  0
   -3.1567   -0.3081   -0.1889 H   0  0  0  0  0  0  0  0  0  0  0  0
   -3.3154    0.7647    1.2247 H   0  0  0  0  0  0  0  0  0  0  0  0
   -3.0368    1.4543   -0.4001 H   0  0  0  0  0  0  0  0  0  0  0  0
   -0.9194    1.5600    0.5152 H   0  0  0  0  0  0  0  0  0  0  0  0
   -1.1876    0.1079    1.5754 H   0  0  0  0  0  0  0  0  0  0  0  0
   -0.5091    1.1627   -1.8904 H   0  0  0  0  0  0  0  0  0  0  0  0
   -1.8302   -0.1054   -2.1640 H   0  0  0  0  0  0  0  0  0  0  0  0
   -0.0689   -0.5099   -2.4635 H   0  0  0  0  0  0  0  0  0  0  0  0
   -1.5560   -1.9459   -1.1722 H   0  0  0  0  0  0  0  0  0  0  0  0
    4.0413   -0.8162   -0.2288 H   0  0  0  0  0  0  0  0  0  0  0  0
    3.6020   -1.0189    1.5180 H   0  0  0  0  0  0  0  0  0  0  0  0
    4.5798    0.8381    1.4635 H   0  0  0  0  0  0  0  0  0  0  0  0
  1  2  1  0
  2  3  1  0
  3  4  1  0
  3  5  1  0
  3  6  1  0
  6  7  3  0
  7  8  1  0
  8  9  1  0
  1 10  1  0
  1 11  1  0
  1 12  1  0
  2 13  1  0
  2 14  1  0
  4 15  1  0
  4 16  1  0
  4 17  1  0
  5 18  1  0
  8 19  1  0
  8 20  1  0
  9 21  1  0
M  END
