
     RDKit          3D

 24 23  0  0  0  0  0  0  0  0999 V2000
    2.0699   -1.3158   -0.3821 C   0  0  0  0  0  0  0  0  0  0  0  0
    1.6589   -0.0461    0.2745 C   0  0  0  0  0  0  0  0  0  0  0  0
    0.3306    0.5231   -0.1432 C   0  0  0  0  0  0  0  0  0  0  0  0
    0.2030    1.8379    0.6779 C   0  0  0  0  0  0  0  0  0  0  0  0
   -0.9876    2.4743    0.3860 O   0  0  0  0  0  0  0  0  0  0  0  0
   -0.8333   -0.3277    0.2203 C   0  0  0  0  0  0  0  0  0  0  0  0
   -2.1526    0.3003   -0.2083 C   0  0  0  0  0  0  0  0  0  0  0  0
   -0.8449   -1.7252   -0.2898 C   0  0  0  0  0  0  0  0  0  0  0  0
    3.1591   -1.2489   -0.7311 H   0  0  0  0  0  0  0  0  0  0  0  0
    2.1410   -2.1106    0.4142 H   0  0  0  0  0  0  0  0  0  0  0  0
    1.5282   -1.6143   -1.2762 H   0  0  0  0  0  0  0  0  0  0  0  0
    2.4912    0.7052    0.0910 H   0  0  0  0  0  0  0  0  0  0  0  0
    1.6961   -0.1392    1.4099 H   0  0  0  0  0  0  0  0  0  0  0  0
    0.3661    0.8376   -1.1970 H   0  0  0  0  0  0  0  0  0  0  0  0
    1.0278    2.5256    0.3943 H   0  0  0  0  0  0  0  0  0  0  0  0
    0.3407    1.6043    1.7458 H   0  0  0  0  0  0  0  0  0  0  0  0
   -0.8547    3.0220   -0.4305 H   0  0  0  0  0  0  0  0  0  0  0  0
   -0.8793   -0.3774    1.3386 H   0  0  0  0  0  0  0  0  0  0  0  0
   -2.8799   -0.4887   -0.5227 H   0  0  0  0  0  0  0  0  0  0  0  0
   -2.6334    0.8514    0.6314 H   0  0  0  0  0  0  0  0  0  0  0  0
   -2.0642    0.9872   -1.0465 H   0  0  0  0  0  0  0  0  0  0  0  0
   -0.1646   -2.4320    0.1739 H   0  0  0  0  0  0  0  0  0  0  0  0
   -1.9125   -2.1007   -0.1114 H   0  0  0  0  0  0  0  0  0  0  0  0
   -0.8054   -1.7424   -1.4190 H   0  0  0  0  0  0  0  0  0  0  0  0
  1  2  1  0
  2  3  1  0
  3  4  1  0
  4  5  1  0
  3  6  1  0
  6  7  1  0
  6  8  1  0
  1  9  1  0
  1 10  1  0
  1 11  1  0
  2 12  1  0
  2 13  1  0
  3 14  1  0
  4 15  1  0
  4 16  1  0
  5 17  1  0
  6 18  1  0
  7 19  1  0
  7 20  1  0
  7 21  1  0
  8 22  1  0
  8 23  1  0
  8 24  1  0
M  END
