
     RDKit          3D

 24 23  0  0  0  0  0  0  0  0999 V2000
    1.4838   -1.5518   -0.2776 C   0  0  0  0  0  0  0  0  0  0  0  0
    0.9119   -0.3249   -0.9199 C   0  0  0  0  0  0  0  0  0  0  0  0
    0.1584    0.5619    0.0240 C   0  0  0  0  0  0  0  0  0  0  0  0
    1.0607    1.0454    1.1457 C   0  0  0  0  0  0  0  0  0  0  0  0
   -0.2629    1.7986   -0.7494 C   0  0  0  0  0  0  0  0  0  0  0  0
   -1.0158   -0.1313    0.6589 C   0  0  0  0  0  0  0  0  0  0  0  0
   -2.0293   -0.6204   -0.3197 C   0  0  0  0  0  0  0  0  0  0  0  0
   -0.5316   -1.1783    1.4313 O   0  0  0  0  0  0  0  0  0  0  0  0
    1.9450   -1.2686    0.6886 H   0  0  0  0  0  0  0  0  0  0  0  0
    2.2628   -1.9518   -0.9641 H   0  0  0  0  0  0  0  0  0  0  0  0
    0.7584   -2.3585   -0.1202 H   0  0  0  0  0  0  0  0  0  0  0  0
    1.7632    0.2589   -1.3335 H   0  0  0  0  0  0  0  0  0  0  0  0
    0.2461   -0.5764   -1.7766 H   0  0  0  0  0  0  0  0  0  0  0  0
    1.9765    1.5413    0.7491 H   0  0  0  0  0  0  0  0  0  0  0  0
    1.2632    0.2498    1.8680 H   0  0  0  0  0  0  0  0  0  0  0  0
    0.4849    1.8720    1.6521 H   0  0  0  0  0  0  0  0  0  0  0  0
    0.6896    2.3902   -0.8952 H   0  0  0  0  0  0  0  0  0  0  0  0
   -0.9264    2.4500   -0.1670 H   0  0  0  0  0  0  0  0  0  0  0  0
   -0.6218    1.5640   -1.7588 H   0  0  0  0  0  0  0  0  0  0  0  0
   -1.5146    0.5749    1.3526 H   0  0  0  0  0  0  0  0  0  0  0  0
   -1.8893   -0.2644   -1.3494 H   0  0  0  0  0  0  0  0  0  0  0  0
   -2.0123   -1.7481   -0.3890 H   0  0  0  0  0  0  0  0  0  0  0  0
   -3.0759   -0.3813   -0.0060 H   0  0  0  0  0  0  0  0  0  0  0  0
   -1.1247   -1.9516    1.4560 H   0  0  0  0  0  0  0  0  0  0  0  0
  1  2  1  0
  2  3  1  0
  3  4  1  0
  3  5  1  0
  3  6  1  0
  6  7  1  0
  6  8  1  0
  1  9  1  0
  1 10  1  0
  1 11  1  0
  2 12  1  0
  2 13  1  0
  4 14  1  0
  4 15  1  0
  4 16  1  0
  5 17  1  0
  5 18  1  0
  5 19  1  0
  6 20  1  0
  7 21  1  0
  7 22  1  0
  7 23  1  0
  8 24  1  0
M  END
