
     RDKit          3D

 27 26  0  0  0  0  0  0  0  0999 V2000
   -1.4364    2.2546   -0.3910 C   0  0  0  0  0  0  0  0  0  0  0  0
   -1.5697    0.7738   -0.6624 C   0  0  0  0  0  0  0  0  0  0  0  0
   -0.6444   -0.0166    0.2818 C   0  0  0  0  0  0  0  0  0  0  0  0
   -0.7757   -1.4946    0.0128 C   0  0  0  0  0  0  0  0  0  0  0  0
   -2.2076   -1.9685    0.2148 C   0  0  0  0  0  0  0  0  0  0  0  0
    0.7406    0.4342   -0.0184 C   0  0  0  0  0  0  0  0  0  0  0  0
    1.8420   -0.1820    0.7657 C   0  0  0  0  0  0  0  0  0  0  0  0
    3.1289    0.5029    0.2419 C   0  0  0  0  0  0  0  0  0  0  0  0
    2.0419   -1.5400    0.4141 O   0  0  0  0  0  0  0  0  0  0  0  0
   -2.4378    2.7506   -0.5143 H   0  0  0  0  0  0  0  0  0  0  0  0
   -1.0242    2.4449    0.6295 H   0  0  0  0  0  0  0  0  0  0  0  0
   -0.7494    2.7534   -1.0966 H   0  0  0  0  0  0  0  0  0  0  0  0
   -1.2549    0.6117   -1.7148 H   0  0  0  0  0  0  0  0  0  0  0  0
   -2.6107    0.4391   -0.5809 H   0  0  0  0  0  0  0  0  0  0  0  0
   -0.9719    0.1767    1.3110 H   0  0  0  0  0  0  0  0  0  0  0  0
   -0.1243   -2.0022    0.7857 H   0  0  0  0  0  0  0  0  0  0  0  0
   -0.3593   -1.7129   -0.9616 H   0  0  0  0  0  0  0  0  0  0  0  0
   -2.7267   -1.2046    0.8046 H   0  0  0  0  0  0  0  0  0  0  0  0
   -2.6367   -2.1191   -0.8031 H   0  0  0  0  0  0  0  0  0  0  0  0
   -2.1608   -2.9638    0.6814 H   0  0  0  0  0  0  0  0  0  0  0  0
    0.9378    0.1776   -1.0926 H   0  0  0  0  0  0  0  0  0  0  0  0
    0.7653    1.5415    0.0840 H   0  0  0  0  0  0  0  0  0  0  0  0
    1.7548   -0.0998    1.8473 H   0  0  0  0  0  0  0  0  0  0  0  0
    3.0076    0.6169   -0.8555 H   0  0  0  0  0  0  0  0  0  0  0  0
    4.0054   -0.1344    0.4074 H   0  0  0  0  0  0  0  0  0  0  0  0
    3.1570    1.4744    0.7479 H   0  0  0  0  0  0  0  0  0  0  0  0
    2.3092   -1.5138   -0.5387 H   0  0  0  0  0  0  0  0  0  0  0  0
  1  2  1  0
  2  3  1  0
  3  4  1  0
  4  5  1  0
  3  6  1  0
  6  7  1  0
  7  8  1  0
  7  9  1  0
  1 10  1  0
  1 11  1  0
  1 12  1  0
  2 13  1  0
  2 14  1  0
  3 15  1  0
  4 16  1  0
  4 17  1  0
  5 18  1  0
  5 19  1  0
  5 20  1  0
  6 21  1  0
  6 22  1  0
  7 23  1  0
  8 24  1  0
  8 25  1  0
  8 26  1  0
  9 27  1  0
M  END
