
     RDKit          3D

 23 23  0  0  0  0  0  0  0  0999 V2000
    2.8366    0.3030    0.3823 C   0  0  0  0  0  0  0  0  0  0  0  0
    1.5965   -0.4828   -0.0709 C   0  0  0  0  0  0  0  0  0  0  0  0
    0.4053    0.3288    0.3589 C   0  0  0  0  0  0  0  0  0  0  0  0
    0.4980    1.5587   -0.2666 O   0  0  0  0  0  0  0  0  0  0  0  0
   -0.9044   -0.3454    0.1529 C   0  0  0  0  0  0  0  0  0  0  0  0
   -2.0107    0.3239    0.6409 O   0  0  0  0  0  0  0  0  0  0  0  0
   -2.2868    1.5538    0.1450 C   0  0  0  0  0  0  0  0  0  0  0  0
   -1.0109   -1.8488    0.3568 C   0  0  0  0  0  0  0  0  0  0  0  0
   -1.1066   -1.2540   -1.0300 C   0  0  0  0  0  0  0  0  0  0  0  0
    2.5844    1.3845    0.5165 H   0  0  0  0  0  0  0  0  0  0  0  0
    3.2048   -0.0493    1.3564 H   0  0  0  0  0  0  0  0  0  0  0  0
    3.6335    0.2511   -0.3687 H   0  0  0  0  0  0  0  0  0  0  0  0
    1.6738   -1.4588    0.4611 H   0  0  0  0  0  0  0  0  0  0  0  0
    1.6674   -0.6520   -1.1455 H   0  0  0  0  0  0  0  0  0  0  0  0
    0.5225    0.4682    1.4750 H   0  0  0  0  0  0  0  0  0  0  0  0
    0.4736    1.3881   -1.2503 H   0  0  0  0  0  0  0  0  0  0  0  0
   -1.5352    2.3462    0.2900 H   0  0  0  0  0  0  0  0  0  0  0  0
   -3.2020    1.9187    0.7060 H   0  0  0  0  0  0  0  0  0  0  0  0
   -2.6352    1.5434   -0.9212 H   0  0  0  0  0  0  0  0  0  0  0  0
   -0.1114   -2.4272    0.6236 H   0  0  0  0  0  0  0  0  0  0  0  0
   -1.9376   -2.2822    0.7849 H   0  0  0  0  0  0  0  0  0  0  0  0
   -0.2304   -1.3583   -1.6816 H   0  0  0  0  0  0  0  0  0  0  0  0
   -2.1252   -1.2096   -1.5155 H   0  0  0  0  0  0  0  0  0  0  0  0
  1  2  1  0
  2  3  1  0
  3  4  1  0
  3  5  1  0
  5  6  1  0
  6  7  1  0
  5  8  1  0
  8  9  1  0
  9  5  1  0
  1 10  1  0
  1 11  1  0
  1 12  1  0
  2 13  1  0
  2 14  1  0
  3 15  1  0
  4 16  1  0
  7 17  1  0
  7 18  1  0
  7 19  1  0
  8 20  1  0
  8 21  1  0
  9 22  1  0
  9 23  1  0
M  END
