
     RDKit          3D

 23 23  0  0  0  0  0  0  0  0999 V2000
    2.1409   -0.9932    0.3605 C   0  0  0  0  0  0  0  0  0  0  0  0
    1.5845    0.1552   -0.4360 C   0  0  0  0  0  0  0  0  0  0  0  0
    0.1470    0.4744   -0.0708 C   0  0  0  0  0  0  0  0  0  0  0  0
   -0.2350    1.5500   -0.8804 O   0  0  0  0  0  0  0  0  0  0  0  0
   -0.5493    2.6775   -0.1287 C   0  0  0  0  0  0  0  0  0  0  0  0
   -0.7827   -0.6737   -0.3359 C   0  0  0  0  0  0  0  0  0  0  0  0
   -0.7833   -1.1187   -1.6473 O   0  0  0  0  0  0  0  0  0  0  0  0
   -1.0859   -1.6929    0.6912 C   0  0  0  0  0  0  0  0  0  0  0  0
   -2.0954   -0.6179    0.3502 C   0  0  0  0  0  0  0  0  0  0  0  0
    1.6927   -1.0875    1.3567 H   0  0  0  0  0  0  0  0  0  0  0  0
    2.0709   -1.9362   -0.2450 H   0  0  0  0  0  0  0  0  0  0  0  0
    3.2388   -0.8392    0.5155 H   0  0  0  0  0  0  0  0  0  0  0  0
    2.1719    1.0780   -0.2198 H   0  0  0  0  0  0  0  0  0  0  0  0
    1.6595   -0.0177   -1.5277 H   0  0  0  0  0  0  0  0  0  0  0  0
    0.0916    0.8288    0.9747 H   0  0  0  0  0  0  0  0  0  0  0  0
   -1.3989    2.4844    0.5828 H   0  0  0  0  0  0  0  0  0  0  0  0
    0.3370    3.0782    0.4143 H   0  0  0  0  0  0  0  0  0  0  0  0
   -0.9478    3.4297   -0.8503 H   0  0  0  0  0  0  0  0  0  0  0  0
    0.0154   -1.6139   -1.9061 H   0  0  0  0  0  0  0  0  0  0  0  0
   -0.6100   -1.6688    1.7018 H   0  0  0  0  0  0  0  0  0  0  0  0
   -1.3736   -2.6955    0.3657 H   0  0  0  0  0  0  0  0  0  0  0  0
   -2.2961    0.0839    1.1822 H   0  0  0  0  0  0  0  0  0  0  0  0
   -2.9925   -0.8847   -0.2475 H   0  0  0  0  0  0  0  0  0  0  0  0
  1  2  1  0
  2  3  1  0
  3  4  1  0
  4  5  1  0
  3  6  1  0
  6  7  1  0
  6  8  1  0
  8  9  1  0
  9  6  1  0
  1 10  1  0
  1 11  1  0
  1 12  1  0
  2 13  1  0
  2 14  1  0
  3 15  1  0
  5 16  1  0
  5 17  1  0
  5 18  1  0
  7 19  1  0
  8 20  1  0
  8 21  1  0
  9 22  1  0
  9 23  1  0
M  END
