
     RDKit          3D

 27 26  0  0  0  0  0  0  0  0999 V2000
   -0.2823    1.4274    1.6176 C   0  0  0  0  0  0  0  0  0  0  0  0
   -0.6816    1.3312    0.1893 C   0  0  0  0  0  0  0  0  0  0  0  0
   -0.2803    0.0784   -0.5063 C   0  0  0  0  0  0  0  0  0  0  0  0
   -0.7712    0.1613   -1.9449 C   0  0  0  0  0  0  0  0  0  0  0  0
   -0.8514   -1.1663    0.1557 C   0  0  0  0  0  0  0  0  0  0  0  0
   -2.3433   -1.1762    0.1901 C   0  0  0  0  0  0  0  0  0  0  0  0
    1.2133   -0.1152   -0.5719 C   0  0  0  0  0  0  0  0  0  0  0  0
    1.7744   -0.1738    0.7220 O   0  0  0  0  0  0  0  0  0  0  0  0
    3.1515   -0.3530    0.6011 C   0  0  0  0  0  0  0  0  0  0  0  0
   -0.5356    0.5358    2.2069 H   0  0  0  0  0  0  0  0  0  0  0  0
   -0.8536    2.2958    2.0610 H   0  0  0  0  0  0  0  0  0  0  0  0
    0.7953    1.6688    1.7732 H   0  0  0  0  0  0  0  0  0  0  0  0
   -0.2495    2.1848   -0.3565 H   0  0  0  0  0  0  0  0  0  0  0  0
   -1.7819    1.4354    0.1197 H   0  0  0  0  0  0  0  0  0  0  0  0
   -1.4765   -0.6652   -2.1869 H   0  0  0  0  0  0  0  0  0  0  0  0
   -1.3140    1.1072   -2.1335 H   0  0  0  0  0  0  0  0  0  0  0  0
    0.0423    0.1038   -2.6778 H   0  0  0  0  0  0  0  0  0  0  0  0
   -0.4515   -1.2238    1.1811 H   0  0  0  0  0  0  0  0  0  0  0  0
   -0.4694   -2.0262   -0.4480 H   0  0  0  0  0  0  0  0  0  0  0  0
   -2.8368   -0.7199   -0.6677 H   0  0  0  0  0  0  0  0  0  0  0  0
   -2.6796   -2.2419    0.2379 H   0  0  0  0  0  0  0  0  0  0  0  0
   -2.7035   -0.6497    1.1016 H   0  0  0  0  0  0  0  0  0  0  0  0
    1.7299    0.6036   -1.2145 H   0  0  0  0  0  0  0  0  0  0  0  0
    1.3938   -1.1280   -1.0065 H   0  0  0  0  0  0  0  0  0  0  0  0
    3.5367    0.5123    0.0385 H   0  0  0  0  0  0  0  0  0  0  0  0
    3.6299   -0.5392    1.5588 H   0  0  0  0  0  0  0  0  0  0  0  0
    3.2950   -1.2672   -0.0400 H   0  0  0  0  0  0  0  0  0  0  0  0
  1  2  1  0
  2  3  1  0
  3  4  1  0
  3  5  1  0
  5  6  1  0
  3  7  1  0
  7  8  1  0
  8  9  1  0
  1 10  1  0
  1 11  1  0
  1 12  1  0
  2 13  1  0
  2 14  1  0
  4 15  1  0
  4 16  1  0
  4 17  1  0
  5 18  1  0
  5 19  1  0
  6 20  1  0
  6 21  1  0
  6 22  1  0
  7 23  1  0
  7 24  1  0
  9 25  1  0
  9 26  1  0
  9 27  1  0
M  END
