
     RDKit          3D

 21 20  0  0  0  0  0  0  0  0999 V2000
    1.9253    0.1379    1.1588 C   0  0  0  0  0  0  0  0  0  0  0  0
    1.6465   -0.5395   -0.1212 C   0  0  0  0  0  0  0  0  0  0  0  0
    0.7211    0.0658   -1.0910 C   0  0  0  0  0  0  0  0  0  0  0  0
    0.7817   -0.8495   -2.2504 O   0  0  0  0  0  0  0  0  0  0  0  0
   -0.7370    0.0582   -0.8120 C   0  0  0  0  0  0  0  0  0  0  0  0
   -1.2899    0.7035    0.3885 C   0  0  0  0  0  0  0  0  0  0  0  0
   -0.8399    0.1313    1.5504 O   0  0  0  0  0  0  0  0  0  0  0  0
   -2.7991    0.6741    0.3835 C   0  0  0  0  0  0  0  0  0  0  0  0
   -3.4565    1.1174   -0.5297 O   0  0  0  0  0  0  0  0  0  0  0  0
    3.0788    0.2521    1.2478 H   0  0  0  0  0  0  0  0  0  0  0  0
    1.6466   -0.4871    2.0307 H   0  0  0  0  0  0  0  0  0  0  0  0
    1.5340    1.1460    1.3025 H   0  0  0  0  0  0  0  0  0  0  0  0
    1.2824   -1.6042    0.1050 H   0  0  0  0  0  0  0  0  0  0  0  0
    2.6411   -0.7629   -0.6307 H   0  0  0  0  0  0  0  0  0  0  0  0
    1.0534    1.0079   -1.5404 H   0  0  0  0  0  0  0  0  0  0  0  0
    0.6666   -1.7485   -1.8061 H   0  0  0  0  0  0  0  0  0  0  0  0
   -1.2230    0.5042   -1.7372 H   0  0  0  0  0  0  0  0  0  0  0  0
   -1.1243   -1.0263   -0.8685 H   0  0  0  0  0  0  0  0  0  0  0  0
   -1.0580    1.8049    0.4412 H   0  0  0  0  0  0  0  0  0  0  0  0
   -1.1532   -0.8252    1.5499 H   0  0  0  0  0  0  0  0  0  0  0  0
   -3.2965    0.2401    1.2290 H   0  0  0  0  0  0  0  0  0  0  0  0
  1  2  1  0
  2  3  1  0
  3  4  1  0
  3  5  1  0
  5  6  1  0
  6  7  1  0
  6  8  1  0
  8  9  2  0
  1 10  1  0
  1 11  1  0
  1 12  1  0
  2 13  1  0
  2 14  1  0
  3 15  1  0
  4 16  1  0
  5 17  1  0
  5 18  1  0
  6 19  1  0
  7 20  1  0
  8 21  1  0
M  END
