
     RDKit          3D

 22 21  0  0  0  0  0  0  0  0999 V2000
   -1.4861   -1.4020    0.1420 C   0  0  0  0  0  0  0  0  0  0  0  0
   -0.6127   -0.6424    1.1048 C   0  0  0  0  0  0  0  0  0  0  0  0
   -0.0440    0.6096    0.5334 C   0  0  0  0  0  0  0  0  0  0  0  0
   -1.2111    1.5163    0.1326 C   0  0  0  0  0  0  0  0  0  0  0  0
   -0.6588    2.6967   -0.4063 O   0  0  0  0  0  0  0  0  0  0  0  0
    0.7896    0.4047   -0.6830 C   0  0  0  0  0  0  0  0  0  0  0  0
    1.9879   -0.4703   -0.5087 C   0  0  0  0  0  0  0  0  0  0  0  0
    1.7020   -1.7690   -0.1034 O   0  0  0  0  0  0  0  0  0  0  0  0
   -1.8083   -2.3430    0.6345 H   0  0  0  0  0  0  0  0  0  0  0  0
   -2.4275   -0.8524   -0.1059 H   0  0  0  0  0  0  0  0  0  0  0  0
   -0.9676   -1.6910   -0.7825 H   0  0  0  0  0  0  0  0  0  0  0  0
   -1.2915   -0.3824    1.9729 H   0  0  0  0  0  0  0  0  0  0  0  0
    0.1310   -1.3197    1.5354 H   0  0  0  0  0  0  0  0  0  0  0  0
    0.5382    1.1144    1.3325 H   0  0  0  0  0  0  0  0  0  0  0  0
   -1.8366    1.7903    0.9920 H   0  0  0  0  0  0  0  0  0  0  0  0
   -1.7631    0.9931   -0.6760 H   0  0  0  0  0  0  0  0  0  0  0  0
   -0.0752    3.1218    0.2520 H   0  0  0  0  0  0  0  0  0  0  0  0
    1.1585    1.3690   -1.1021 H   0  0  0  0  0  0  0  0  0  0  0  0
    0.1372   -0.0157   -1.4941 H   0  0  0  0  0  0  0  0  0  0  0  0
    2.5276   -0.5462   -1.4677 H   0  0  0  0  0  0  0  0  0  0  0  0
    2.6825   -0.0451    0.2563 H   0  0  0  0  0  0  0  0  0  0  0  0
    2.5279   -2.1367    0.3003 H   0  0  0  0  0  0  0  0  0  0  0  0
  1  2  1  0
  2  3  1  0
  3  4  1  0
  4  5  1  0
  3  6  1  0
  6  7  1  0
  7  8  1  0
  1  9  1  0
  1 10  1  0
  1 11  1  0
  2 12  1  0
  2 13  1  0
  3 14  1  0
  4 15  1  0
  4 16  1  0
  5 17  1  0
  6 18  1  0
  6 19  1  0
  7 20  1  0
  7 21  1  0
  8 22  1  0
M  END
