
     RDKit          3D

 23 23  0  0  0  0  0  0  0  0999 V2000
   -3.2332    0.0650    0.0886 C   0  0  0  0  0  0  0  0  0  0  0  0
   -2.0091   -0.7745   -0.1835 C   0  0  0  0  0  0  0  0  0  0  0  0
   -0.7927    0.0767    0.1348 C   0  0  0  0  0  0  0  0  0  0  0  0
   -0.7516    1.2077   -0.6390 O   0  0  0  0  0  0  0  0  0  0  0  0
    0.4832   -0.6939    0.0401 C   0  0  0  0  0  0  0  0  0  0  0  0
    0.7565   -1.0998   -1.2628 O   0  0  0  0  0  0  0  0  0  0  0  0
    1.5941    0.2030    0.5842 C   0  0  0  0  0  0  0  0  0  0  0  0
    2.9939   -0.2981    0.6179 C   0  0  0  0  0  0  0  0  0  0  0  0
    2.5988    0.7626   -0.3374 C   0  0  0  0  0  0  0  0  0  0  0  0
   -3.8893   -0.4055    0.8754 H   0  0  0  0  0  0  0  0  0  0  0  0
   -3.8354    0.2601   -0.8265 H   0  0  0  0  0  0  0  0  0  0  0  0
   -2.9685    1.0729    0.4952 H   0  0  0  0  0  0  0  0  0  0  0  0
   -1.9987   -1.7353    0.3289 H   0  0  0  0  0  0  0  0  0  0  0  0
   -1.9924   -0.9895   -1.2795 H   0  0  0  0  0  0  0  0  0  0  0  0
   -0.9081    0.3994    1.2009 H   0  0  0  0  0  0  0  0  0  0  0  0
   -0.9638    2.0459   -0.1322 H   0  0  0  0  0  0  0  0  0  0  0  0
    0.4762   -1.6003    0.6648 H   0  0  0  0  0  0  0  0  0  0  0  0
    0.7444   -0.3298   -1.8803 H   0  0  0  0  0  0  0  0  0  0  0  0
    1.3140    0.8521    1.4398 H   0  0  0  0  0  0  0  0  0  0  0  0
    3.2542   -1.2863    0.1679 H   0  0  0  0  0  0  0  0  0  0  0  0
    3.6403   -0.0572    1.4979 H   0  0  0  0  0  0  0  0  0  0  0  0
    2.5509    0.4993   -1.4212 H   0  0  0  0  0  0  0  0  0  0  0  0
    2.9363    1.8254   -0.1739 H   0  0  0  0  0  0  0  0  0  0  0  0
  1  2  1  0
  2  3  1  0
  3  4  1  0
  3  5  1  0
  5  6  1  0
  5  7  1  0
  7  8  1  0
  8  9  1  0
  9  7  1  0
  1 10  1  0
  1 11  1  0
  1 12  1  0
  2 13  1  0
  2 14  1  0
  3 15  1  0
  4 16  1  0
  5 17  1  0
  6 18  1  0
  7 19  1  0
  8 20  1  0
  8 21  1  0
  9 22  1  0
  9 23  1  0
M  END
