
     RDKit          3D

 27 26  0  0  0  0  0  0  0  0999 V2000
   -1.8701    1.8686   -0.5692 C   0  0  0  0  0  0  0  0  0  0  0  0
   -0.5910    1.2741   -1.0524 C   0  0  0  0  0  0  0  0  0  0  0  0
   -0.0003    0.2622   -0.0499 C   0  0  0  0  0  0  0  0  0  0  0  0
    0.2492    0.9922    1.2178 C   0  0  0  0  0  0  0  0  0  0  0  0
   -1.0645   -0.8010    0.0727 C   0  0  0  0  0  0  0  0  0  0  0  0
   -0.7736   -1.9164    1.0049 C   0  0  0  0  0  0  0  0  0  0  0  0
    1.1847   -0.2919   -0.7439 C   0  0  0  0  0  0  0  0  0  0  0  0
    2.0253   -1.2976   -0.0931 C   0  0  0  0  0  0  0  0  0  0  0  0
    2.5747   -0.8198    1.1151 O   0  0  0  0  0  0  0  0  0  0  0  0
   -1.8077    2.3187    0.4367 H   0  0  0  0  0  0  0  0  0  0  0  0
   -2.7570    1.2194   -0.6974 H   0  0  0  0  0  0  0  0  0  0  0  0
   -2.0714    2.7484   -1.2525 H   0  0  0  0  0  0  0  0  0  0  0  0
   -0.7788    0.7955   -2.0342 H   0  0  0  0  0  0  0  0  0  0  0  0
    0.1179    2.1069   -1.2379 H   0  0  0  0  0  0  0  0  0  0  0  0
    0.7242    1.9637    0.9730 H   0  0  0  0  0  0  0  0  0  0  0  0
   -0.7509    1.1428    1.7136 H   0  0  0  0  0  0  0  0  0  0  0  0
    0.8655    0.5038    1.9636 H   0  0  0  0  0  0  0  0  0  0  0  0
   -2.0439   -0.3369    0.4042 H   0  0  0  0  0  0  0  0  0  0  0  0
   -1.3332   -1.2066   -0.9488 H   0  0  0  0  0  0  0  0  0  0  0  0
   -1.6861   -2.1871    1.6145 H   0  0  0  0  0  0  0  0  0  0  0  0
   -0.5943   -2.8484    0.4098 H   0  0  0  0  0  0  0  0  0  0  0  0
    0.0744   -1.7906    1.6786 H   0  0  0  0  0  0  0  0  0  0  0  0
    1.8564    0.5815   -1.0160 H   0  0  0  0  0  0  0  0  0  0  0  0
    0.8309   -0.6342   -1.7621 H   0  0  0  0  0  0  0  0  0  0  0  0
    2.9556   -1.4049   -0.7517 H   0  0  0  0  0  0  0  0  0  0  0  0
    1.6689   -2.3125    0.0169 H   0  0  0  0  0  0  0  0  0  0  0  0
    2.9949    0.0700    0.9184 H   0  0  0  0  0  0  0  0  0  0  0  0
  1  2  1  0
  2  3  1  0
  3  4  1  0
  3  5  1  0
  5  6  1  0
  3  7  1  0
  7  8  1  0
  8  9  1  0
  1 10  1  0
  1 11  1  0
  1 12  1  0
  2 13  1  0
  2 14  1  0
  4 15  1  0
  4 16  1  0
  4 17  1  0
  5 18  1  0
  5 19  1  0
  6 20  1  0
  6 21  1  0
  6 22  1  0
  7 23  1  0
  7 24  1  0
  8 25  1  0
  8 26  1  0
  9 27  1  0
M  END
