
     RDKit          3D

 18 18  0  0  0  0  0  0  0  0999 V2000
   -2.4450    0.8772   -0.0704 C   0  0  0  0  0  0  0  0  0  0  0  0
   -2.0450   -0.5553   -0.3784 C   0  0  0  0  0  0  0  0  0  0  0  0
   -0.7960   -0.8328    0.3817 C   0  0  0  0  0  0  0  0  0  0  0  0
   -0.8593   -1.6166    1.3144 O   0  0  0  0  0  0  0  0  0  0  0  0
    0.4432   -0.1530   -0.0330 C   0  0  0  0  0  0  0  0  0  0  0  0
    1.0291    0.5836    1.1297 O   0  0  0  0  0  0  0  0  0  0  0  0
    1.7628   -0.4267    0.4781 C   0  0  0  0  0  0  0  0  0  0  0  0
    2.9588    0.1589   -0.2673 C   0  0  0  0  0  0  0  0  0  0  0  0
   -1.6265    1.4185    0.4789 H   0  0  0  0  0  0  0  0  0  0  0  0
   -2.5984    1.3962   -1.0396 H   0  0  0  0  0  0  0  0  0  0  0  0
   -3.3616    0.9610    0.5334 H   0  0  0  0  0  0  0  0  0  0  0  0
   -2.8625   -1.2702   -0.0531 H   0  0  0  0  0  0  0  0  0  0  0  0
   -1.8529   -0.7497   -1.4451 H   0  0  0  0  0  0  0  0  0  0  0  0
    0.3840    0.5958   -0.8777 H   0  0  0  0  0  0  0  0  0  0  0  0
    2.0056   -1.3484    1.0113 H   0  0  0  0  0  0  0  0  0  0  0  0
    3.2637   -0.4400   -1.1305 H   0  0  0  0  0  0  0  0  0  0  0  0
    2.7954    1.2465   -0.4926 H   0  0  0  0  0  0  0  0  0  0  0  0
    3.8046    0.1551    0.4600 H   0  0  0  0  0  0  0  0  0  0  0  0
  1  2  1  0
  2  3  1  0
  3  4  2  0
  3  5  1  0
  5  6  1  0
  6  7  1  0
  7  8  1  0
  7  5  1  0
  1  9  1  0
  1 10  1  0
  1 11  1  0
  2 12  1  0
  2 13  1  0
  5 14  1  0
  7 15  1  0
  8 16  1  0
  8 17  1  0
  8 18  1  0
M  END
