
     RDKit          3D

 23 23  0  0  0  0  0  0  0  0999 V2000
    2.1796    0.0867    0.9215 C   0  0  0  0  0  0  0  0  0  0  0  0
    1.7020    0.5676   -0.4293 C   0  0  0  0  0  0  0  0  0  0  0  0
    0.4741   -0.1095   -0.9218 C   0  0  0  0  0  0  0  0  0  0  0  0
    0.7109   -1.4791   -1.0397 O   0  0  0  0  0  0  0  0  0  0  0  0
   -0.7602    0.0956   -0.1398 C   0  0  0  0  0  0  0  0  0  0  0  0
   -1.2902    1.4750    0.0392 C   0  0  0  0  0  0  0  0  0  0  0  0
   -1.8763   -0.7821   -0.7361 C   0  0  0  0  0  0  0  0  0  0  0  0
   -1.3788   -1.8187    0.0510 O   0  0  0  0  0  0  0  0  0  0  0  0
   -1.0473   -0.8532    0.9995 C   0  0  0  0  0  0  0  0  0  0  0  0
    1.5716    0.4941    1.7528 H   0  0  0  0  0  0  0  0  0  0  0  0
    3.2205    0.5062    1.0562 H   0  0  0  0  0  0  0  0  0  0  0  0
    2.3147   -1.0092    0.9620 H   0  0  0  0  0  0  0  0  0  0  0  0
    1.6692    1.6537   -0.4045 H   0  0  0  0  0  0  0  0  0  0  0  0
    2.5288    0.2985   -1.1525 H   0  0  0  0  0  0  0  0  0  0  0  0
    0.2840    0.2430   -1.9697 H   0  0  0  0  0  0  0  0  0  0  0  0
    0.9366   -1.9316   -0.2152 H   0  0  0  0  0  0  0  0  0  0  0  0
   -0.5385    2.2610    0.1294 H   0  0  0  0  0  0  0  0  0  0  0  0
   -1.9754    1.7631   -0.7901 H   0  0  0  0  0  0  0  0  0  0  0  0
   -1.9044    1.4989    0.9721 H   0  0  0  0  0  0  0  0  0  0  0  0
   -1.7442   -0.9425   -1.8211 H   0  0  0  0  0  0  0  0  0  0  0  0
   -2.8826   -0.4221   -0.4493 H   0  0  0  0  0  0  0  0  0  0  0  0
   -1.9791   -0.4948    1.5244 H   0  0  0  0  0  0  0  0  0  0  0  0
   -0.2151   -1.1008    1.6609 H   0  0  0  0  0  0  0  0  0  0  0  0
  1  2  1  0
  2  3  1  0
  3  4  1  0
  3  5  1  0
  5  6  1  0
  5  7  1  0
  7  8  1  0
  8  9  1  0
  9  5  1  0
  1 10  1  0
  1 11  1  0
  1 12  1  0
  2 13  1  0
  2 14  1  0
  3 15  1  0
  4 16  1  0
  6 17  1  0
  6 18  1  0
  6 19  1  0
  7 20  1  0
  7 21  1  0
  9 22  1  0
  9 23  1  0
M  END
