
     RDKit          3D

 27 26  0  0  0  0  0  0  0  0999 V2000
    2.4513    1.7419   -0.4155 C   0  0  0  0  0  0  0  0  0  0  0  0
    0.9791    1.3287   -0.3383 C   0  0  0  0  0  0  0  0  0  0  0  0
    0.8853   -0.1129   -0.6965 C   0  0  0  0  0  0  0  0  0  0  0  0
    1.6942   -0.9752    0.2516 C   0  0  0  0  0  0  0  0  0  0  0  0
    1.2792   -0.8661    1.5559 O   0  0  0  0  0  0  0  0  0  0  0  0
   -0.4753   -0.6580   -0.9497 C   0  0  0  0  0  0  0  0  0  0  0  0
   -1.4519   -0.5946    0.1595 C   0  0  0  0  0  0  0  0  0  0  0  0
   -1.8021    0.7535    0.6879 C   0  0  0  0  0  0  0  0  0  0  0  0
   -2.7702   -1.2592   -0.2756 C   0  0  0  0  0  0  0  0  0  0  0  0
    2.9417    1.3836    0.5035 H   0  0  0  0  0  0  0  0  0  0  0  0
    2.5100    2.8683   -0.3647 H   0  0  0  0  0  0  0  0  0  0  0  0
    2.9208    1.4353   -1.3478 H   0  0  0  0  0  0  0  0  0  0  0  0
    0.6638    1.5895    0.6867 H   0  0  0  0  0  0  0  0  0  0  0  0
    0.4638    2.0071   -1.0316 H   0  0  0  0  0  0  0  0  0  0  0  0
    1.4360   -0.2260   -1.6840 H   0  0  0  0  0  0  0  0  0  0  0  0
    2.7500   -0.6184    0.1619 H   0  0  0  0  0  0  0  0  0  0  0  0
    1.6482   -2.0381   -0.0438 H   0  0  0  0  0  0  0  0  0  0  0  0
    1.2438   -1.7454    2.0045 H   0  0  0  0  0  0  0  0  0  0  0  0
   -0.8864   -0.2617   -1.9212 H   0  0  0  0  0  0  0  0  0  0  0  0
   -0.3264   -1.7572   -1.1845 H   0  0  0  0  0  0  0  0  0  0  0  0
   -1.0867   -1.1935    1.0410 H   0  0  0  0  0  0  0  0  0  0  0  0
   -1.3627    0.9300    1.7169 H   0  0  0  0  0  0  0  0  0  0  0  0
   -1.6279    1.5983    0.0088 H   0  0  0  0  0  0  0  0  0  0  0  0
   -2.9164    0.8159    0.9117 H   0  0  0  0  0  0  0  0  0  0  0  0
   -3.1728   -0.5854   -1.0733 H   0  0  0  0  0  0  0  0  0  0  0  0
   -2.5238   -2.2173   -0.7679 H   0  0  0  0  0  0  0  0  0  0  0  0
   -3.4645   -1.3429    0.5616 H   0  0  0  0  0  0  0  0  0  0  0  0
  1  2  1  0
  2  3  1  0
  3  4  1  0
  4  5  1  0
  3  6  1  0
  6  7  1  0
  7  8  1  0
  7  9  1  0
  1 10  1  0
  1 11  1  0
  1 12  1  0
  2 13  1  0
  2 14  1  0
  3 15  1  0
  4 16  1  0
  4 17  1  0
  5 18  1  0
  6 19  1  0
  6 20  1  0
  7 21  1  0
  8 22  1  0
  8 23  1  0
  8 24  1  0
  9 25  1  0
  9 26  1  0
  9 27  1  0
M  END
