
     RDKit          3D

 29 28  0  0  0  0  0  0  0  0999 V2000
    2.1847   -0.8926    0.3982 C   0  0  0  0  0  0  0  0  0  0  0  0
    0.9550   -0.7712    1.1692 C   0  0  0  0  0  0  0  0  0  0  0  0
   -0.1772    0.0243    0.6686 C   0  0  0  0  0  0  0  0  0  0  0  0
    0.0717    1.4680    0.4205 C   0  0  0  0  0  0  0  0  0  0  0  0
   -1.1709    2.1947   -0.1033 C   0  0  0  0  0  0  0  0  0  0  0  0
    1.2014    1.8346   -0.4759 C   0  0  0  0  0  0  0  0  0  0  0  0
   -1.0758   -0.6614   -0.3187 C   0  0  0  0  0  0  0  0  0  0  0  0
   -0.4617   -1.1349   -1.5798 C   0  0  0  0  0  0  0  0  0  0  0  0
   -1.7824   -1.8717    0.3122 C   0  0  0  0  0  0  0  0  0  0  0  0
    3.0443   -0.3389    0.8889 H   0  0  0  0  0  0  0  0  0  0  0  0
    2.5652   -1.9598    0.4073 H   0  0  0  0  0  0  0  0  0  0  0  0
    2.2122   -0.5902   -0.6404 H   0  0  0  0  0  0  0  0  0  0  0  0
    0.5502   -1.8058    1.3868 H   0  0  0  0  0  0  0  0  0  0  0  0
    1.2256   -0.3991    2.2047 H   0  0  0  0  0  0  0  0  0  0  0  0
   -0.8689    0.0567    1.5962 H   0  0  0  0  0  0  0  0  0  0  0  0
    0.2780    2.0315    1.3884 H   0  0  0  0  0  0  0  0  0  0  0  0
   -2.0364    1.9992    0.5428 H   0  0  0  0  0  0  0  0  0  0  0  0
   -1.3394    1.9899   -1.1686 H   0  0  0  0  0  0  0  0  0  0  0  0
   -0.9549    3.2853   -0.0225 H   0  0  0  0  0  0  0  0  0  0  0  0
    1.1266    1.3674   -1.4799 H   0  0  0  0  0  0  0  0  0  0  0  0
    1.1618    2.9426   -0.7210 H   0  0  0  0  0  0  0  0  0  0  0  0
    2.2009    1.7176   -0.0121 H   0  0  0  0  0  0  0  0  0  0  0  0
   -1.9328    0.0169   -0.6089 H   0  0  0  0  0  0  0  0  0  0  0  0
    0.3323   -1.8724   -1.3483 H   0  0  0  0  0  0  0  0  0  0  0  0
   -1.2587   -1.7803   -2.0694 H   0  0  0  0  0  0  0  0  0  0  0  0
   -0.2173   -0.3981   -2.3349 H   0  0  0  0  0  0  0  0  0  0  0  0
   -2.8091   -1.9789   -0.0343 H   0  0  0  0  0  0  0  0  0  0  0  0
   -1.8066   -1.6679    1.4056 H   0  0  0  0  0  0  0  0  0  0  0  0
   -1.2179   -2.8055    0.1287 H   0  0  0  0  0  0  0  0  0  0  0  0
  1  2  1  0
  2  3  1  0
  3  4  1  0
  4  5  1  0
  4  6  1  0
  3  7  1  0
  7  8  1  0
  7  9  1  0
  1 10  1  0
  1 11  1  0
  1 12  1  0
  2 13  1  0
  2 14  1  0
  3 15  1  0
  4 16  1  0
  5 17  1  0
  5 18  1  0
  5 19  1  0
  6 20  1  0
  6 21  1  0
  6 22  1  0
  7 23  1  0
  8 24  1  0
  8 25  1  0
  8 26  1  0
  9 27  1  0
  9 28  1  0
  9 29  1  0
M  END
