
     RDKit          3D

 25 25  0  0  0  0  0  0  0  0999 V2000
    3.2141    0.5765   -0.2128 C   0  0  0  0  0  0  0  0  0  0  0  0
    2.2173   -0.5412   -0.3924 C   0  0  0  0  0  0  0  0  0  0  0  0
    0.8456    0.0579   -0.1563 C   0  0  0  0  0  0  0  0  0  0  0  0
    0.8316    0.5573    1.1320 O   0  0  0  0  0  0  0  0  0  0  0  0
   -0.2469   -0.9767   -0.3040 C   0  0  0  0  0  0  0  0  0  0  0  0
   -1.5676   -0.2432   -0.0421 C   0  0  0  0  0  0  0  0  0  0  0  0
   -1.6945    0.3943    1.3322 C   0  0  0  0  0  0  0  0  0  0  0  0
   -2.0365    0.5556   -1.2354 C   0  0  0  0  0  0  0  0  0  0  0  0
   -2.7941   -0.6251   -0.7456 C   0  0  0  0  0  0  0  0  0  0  0  0
    3.5134    0.6537    0.8575 H   0  0  0  0  0  0  0  0  0  0  0  0
    2.7325    1.5273   -0.5246 H   0  0  0  0  0  0  0  0  0  0  0  0
    4.1002    0.4569   -0.8747 H   0  0  0  0  0  0  0  0  0  0  0  0
    2.2650   -0.8481   -1.4667 H   0  0  0  0  0  0  0  0  0  0  0  0
    2.4233   -1.4144    0.2418 H   0  0  0  0  0  0  0  0  0  0  0  0
    0.7291    0.8863   -0.8834 H   0  0  0  0  0  0  0  0  0  0  0  0
    1.6454    0.4057    1.6395 H   0  0  0  0  0  0  0  0  0  0  0  0
   -0.1617   -1.7479    0.4684 H   0  0  0  0  0  0  0  0  0  0  0  0
   -0.2604   -1.3919   -1.3225 H   0  0  0  0  0  0  0  0  0  0  0  0
   -1.1597   -0.1812    2.1032 H   0  0  0  0  0  0  0  0  0  0  0  0
   -1.3564    1.4483    1.2796 H   0  0  0  0  0  0  0  0  0  0  0  0
   -2.7674    0.3759    1.6112 H   0  0  0  0  0  0  0  0  0  0  0  0
   -1.5072    0.4501   -2.2060 H   0  0  0  0  0  0  0  0  0  0  0  0
   -2.3698    1.5883   -1.0052 H   0  0  0  0  0  0  0  0  0  0  0  0
   -2.8350   -1.5417   -1.3665 H   0  0  0  0  0  0  0  0  0  0  0  0
   -3.7601   -0.4228   -0.2326 H   0  0  0  0  0  0  0  0  0  0  0  0
  1  2  1  0
  2  3  1  0
  3  4  1  0
  3  5  1  0
  5  6  1  0
  6  7  1  0
  6  8  1  0
  8  9  1  0
  9  6  1  0
  1 10  1  0
  1 11  1  0
  1 12  1  0
  2 13  1  0
  2 14  1  0
  3 15  1  0
  4 16  1  0
  5 17  1  0
  5 18  1  0
  7 19  1  0
  7 20  1  0
  7 21  1  0
  8 22  1  0
  8 23  1  0
  9 24  1  0
  9 25  1  0
M  END
