
     RDKit          3D

 23 22  0  0  0  0  0  0  0  0999 V2000
    0.3623    2.1204   -1.0658 C   0  0  0  0  0  0  0  0  0  0  0  0
   -0.5426    0.9287   -1.1696 C   0  0  0  0  0  0  0  0  0  0  0  0
   -0.4352   -0.0814   -0.0947 C   0  0  0  0  0  0  0  0  0  0  0  0
   -1.3534   -1.1436   -0.3167 O   0  0  0  0  0  0  0  0  0  0  0  0
   -2.2697   -1.2124    0.7065 C   0  0  0  0  0  0  0  0  0  0  0  0
    0.8830   -0.7132    0.1521 C   0  0  0  0  0  0  0  0  0  0  0  0
    2.0052    0.1969    0.5486 C   0  0  0  0  0  0  0  0  0  0  0  0
    0.6832   -1.6396    1.3347 C   0  0  0  0  0  0  0  0  0  0  0  0
    0.5157   -2.8317    1.1683 O   0  0  0  0  0  0  0  0  0  0  0  0
    1.2137    2.0360   -1.7738 H   0  0  0  0  0  0  0  0  0  0  0  0
    0.6636    2.3078   -0.0181 H   0  0  0  0  0  0  0  0  0  0  0  0
   -0.2219    3.0245   -1.4376 H   0  0  0  0  0  0  0  0  0  0  0  0
   -0.4745    0.5049   -2.1961 H   0  0  0  0  0  0  0  0  0  0  0  0
   -1.6013    1.3328   -1.1229 H   0  0  0  0  0  0  0  0  0  0  0  0
   -0.7403    0.4014    0.8809 H   0  0  0  0  0  0  0  0  0  0  0  0
   -2.8321   -0.2499    0.7607 H   0  0  0  0  0  0  0  0  0  0  0  0
   -2.9901   -2.0304    0.5019 H   0  0  0  0  0  0  0  0  0  0  0  0
   -1.8098   -1.4626    1.6987 H   0  0  0  0  0  0  0  0  0  0  0  0
    1.2298   -1.3415   -0.7176 H   0  0  0  0  0  0  0  0  0  0  0  0
    2.4756    0.7652   -0.2430 H   0  0  0  0  0  0  0  0  0  0  0  0
    2.8282   -0.4872    0.9401 H   0  0  0  0  0  0  0  0  0  0  0  0
    1.7180    0.7935    1.4600 H   0  0  0  0  0  0  0  0  0  0  0  0
    0.6925   -1.2185    2.3337 H   0  0  0  0  0  0  0  0  0  0  0  0
  1  2  1  0
  2  3  1  0
  3  4  1  0
  4  5  1  0
  3  6  1  0
  6  7  1  0
  6  8  1  0
  8  9  2  0
  1 10  1  0
  1 11  1  0
  1 12  1  0
  2 13  1  0
  2 14  1  0
  3 15  1  0
  5 16  1  0
  5 17  1  0
  5 18  1  0
  6 19  1  0
  7 20  1  0
  7 21  1  0
  7 22  1  0
  8 23  1  0
M  END
