
     RDKit          3D

 27 26  0  0  0  0  0  0  0  0999 V2000
    1.7810   -1.7931   -0.5735 C   0  0  0  0  0  0  0  0  0  0  0  0
    1.6995   -0.5272    0.1956 C   0  0  0  0  0  0  0  0  0  0  0  0
    0.6295    0.4414   -0.1808 C   0  0  0  0  0  0  0  0  0  0  0  0
    0.7881    1.6350    0.7445 C   0  0  0  0  0  0  0  0  0  0  0  0
   -0.1026    2.6462    0.5563 O   0  0  0  0  0  0  0  0  0  0  0  0
   -0.7706   -0.0364   -0.1068 C   0  0  0  0  0  0  0  0  0  0  0  0
   -1.1733   -0.4853    1.2921 C   0  0  0  0  0  0  0  0  0  0  0  0
   -1.1060   -1.1978   -1.0125 C   0  0  0  0  0  0  0  0  0  0  0  0
   -1.6831    1.1104   -0.5614 C   0  0  0  0  0  0  0  0  0  0  0  0
    2.8534   -2.1160   -0.7543 H   0  0  0  0  0  0  0  0  0  0  0  0
    1.3783   -2.6571    0.0350 H   0  0  0  0  0  0  0  0  0  0  0  0
    1.3116   -1.8254   -1.5483 H   0  0  0  0  0  0  0  0  0  0  0  0
    2.6961   -0.0076    0.0552 H   0  0  0  0  0  0  0  0  0  0  0  0
    1.6769   -0.7160    1.3040 H   0  0  0  0  0  0  0  0  0  0  0  0
    0.8119    0.8181   -1.2079 H   0  0  0  0  0  0  0  0  0  0  0  0
    0.7477    1.3157    1.8099 H   0  0  0  0  0  0  0  0  0  0  0  0
    1.8178    2.0579    0.6100 H   0  0  0  0  0  0  0  0  0  0  0  0
    0.3037    3.5341    0.3636 H   0  0  0  0  0  0  0  0  0  0  0  0
   -0.9776    0.2583    2.0600 H   0  0  0  0  0  0  0  0  0  0  0  0
   -0.6037   -1.4067    1.5335 H   0  0  0  0  0  0  0  0  0  0  0  0
   -2.2430   -0.7882    1.2413 H   0  0  0  0  0  0  0  0  0  0  0  0
   -2.2481   -1.1913   -1.0378 H   0  0  0  0  0  0  0  0  0  0  0  0
   -0.8412   -1.0269   -2.0729 H   0  0  0  0  0  0  0  0  0  0  0  0
   -0.8436   -2.1637   -0.5927 H   0  0  0  0  0  0  0  0  0  0  0  0
   -2.1518    1.6419    0.2765 H   0  0  0  0  0  0  0  0  0  0  0  0
   -2.5652    0.6981   -1.1433 H   0  0  0  0  0  0  0  0  0  0  0  0
   -1.1857    1.7816   -1.2854 H   0  0  0  0  0  0  0  0  0  0  0  0
  1  2  1  0
  2  3  1  0
  3  4  1  0
  4  5  1  0
  3  6  1  0
  6  7  1  0
  6  8  1  0
  6  9  1  0
  1 10  1  0
  1 11  1  0
  1 12  1  0
  2 13  1  0
  2 14  1  0
  3 15  1  0
  4 16  1  0
  4 17  1  0
  5 18  1  0
  7 19  1  0
  7 20  1  0
  7 21  1  0
  8 22  1  0
  8 23  1  0
  8 24  1  0
  9 25  1  0
  9 26  1  0
  9 27  1  0
M  END
