
     RDKit          3D

 17 16  0  0  0  0  0  0  0  0999 V2000
   -3.0189    0.3765    0.2013 C   0  0  0  0  0  0  0  0  0  0  0  0
   -1.8160   -0.4589   -0.0804 C   0  0  0  0  0  0  0  0  0  0  0  0
   -0.5469    0.2993    0.0614 C   0  0  0  0  0  0  0  0  0  0  0  0
   -0.5851    1.5141    0.3883 O   0  0  0  0  0  0  0  0  0  0  0  0
    0.7461   -0.3249   -0.1679 C   0  0  0  0  0  0  0  0  0  0  0  0
    0.7713   -1.5382   -0.4939 O   0  0  0  0  0  0  0  0  0  0  0  0
    1.9862    0.3959   -0.0347 C   0  0  0  0  0  0  0  0  0  0  0  0
    3.2911   -0.2616   -0.2735 C   0  0  0  0  0  0  0  0  0  0  0  0
    1.9617    1.6083    0.2908 O   0  0  0  0  0  0  0  0  0  0  0  0
   -2.7539    1.2534    0.8469 H   0  0  0  0  0  0  0  0  0  0  0  0
   -3.7797   -0.1950    0.7487 H   0  0  0  0  0  0  0  0  0  0  0  0
   -3.4313    0.8335   -0.7445 H   0  0  0  0  0  0  0  0  0  0  0  0
   -1.7477   -1.3145    0.6453 H   0  0  0  0  0  0  0  0  0  0  0  0
   -1.9222   -0.8485   -1.1302 H   0  0  0  0  0  0  0  0  0  0  0  0
    3.1203   -1.3332   -0.5317 H   0  0  0  0  0  0  0  0  0  0  0  0
    3.8626   -0.2074    0.6867 H   0  0  0  0  0  0  0  0  0  0  0  0
    3.8624    0.2011   -1.0952 H   0  0  0  0  0  0  0  0  0  0  0  0
  1  2  1  0
  2  3  1  0
  3  4  2  0
  3  5  1  0
  5  6  2  0
  5  7  1  0
  7  8  1  0
  7  9  2  0
  1 10  1  0
  1 11  1  0
  1 12  1  0
  2 13  1  0
  2 14  1  0
  8 15  1  0
  8 16  1  0
  8 17  1  0
M  END
