
     RDKit          3D

 25 24  0  0  0  0  0  0  0  0999 V2000
    2.6046   -0.9832   -0.2122 C   0  0  0  0  0  0  0  0  0  0  0  0
    1.1202   -1.0793   -0.0561 C   0  0  0  0  0  0  0  0  0  0  0  0
    0.4757    0.2675   -0.3683 C   0  0  0  0  0  0  0  0  0  0  0  0
    0.9896    1.3268    0.5638 C   0  0  0  0  0  0  0  0  0  0  0  0
    0.4119    2.5571    0.2901 O   0  0  0  0  0  0  0  0  0  0  0  0
   -1.0281    0.1032   -0.3150 C   0  0  0  0  0  0  0  0  0  0  0  0
   -1.7123    1.4157   -0.6199 C   0  0  0  0  0  0  0  0  0  0  0  0
   -1.4627   -0.4693    0.8528 O   0  0  0  0  0  0  0  0  0  0  0  0
   -2.0870   -1.6917    0.6150 C   0  0  0  0  0  0  0  0  0  0  0  0
    3.0497   -1.8599   -0.6972 H   0  0  0  0  0  0  0  0  0  0  0  0
    3.0839   -0.8280    0.7961 H   0  0  0  0  0  0  0  0  0  0  0  0
    2.8517   -0.0970   -0.8560 H   0  0  0  0  0  0  0  0  0  0  0  0
    0.8038   -1.4628    0.9314 H   0  0  0  0  0  0  0  0  0  0  0  0
    0.7507   -1.7788   -0.8558 H   0  0  0  0  0  0  0  0  0  0  0  0
    0.7833    0.5407   -1.3977 H   0  0  0  0  0  0  0  0  0  0  0  0
    2.0761    1.4323    0.3651 H   0  0  0  0  0  0  0  0  0  0  0  0
    0.9000    1.0393    1.6309 H   0  0  0  0  0  0  0  0  0  0  0  0
    0.1561    3.0624    1.0906 H   0  0  0  0  0  0  0  0  0  0  0  0
   -1.2992   -0.5823   -1.1591 H   0  0  0  0  0  0  0  0  0  0  0  0
   -1.1092    1.9582   -1.3754 H   0  0  0  0  0  0  0  0  0  0  0  0
   -2.6861    1.1984   -1.1260 H   0  0  0  0  0  0  0  0  0  0  0  0
   -1.8636    2.0399    0.2902 H   0  0  0  0  0  0  0  0  0  0  0  0
   -2.4304   -2.1372    1.5697 H   0  0  0  0  0  0  0  0  0  0  0  0
   -2.9660   -1.5631   -0.0552 H   0  0  0  0  0  0  0  0  0  0  0  0
   -1.4126   -2.4090    0.0981 H   0  0  0  0  0  0  0  0  0  0  0  0
  1  2  1  0
  2  3  1  0
  3  4  1  0
  4  5  1  0
  3  6  1  0
  6  7  1  0
  6  8  1  0
  8  9  1  0
  1 10  1  0
  1 11  1  0
  1 12  1  0
  2 13  1  0
  2 14  1  0
  3 15  1  0
  4 16  1  0
  4 17  1  0
  5 18  1  0
  6 19  1  0
  7 20  1  0
  7 21  1  0
  7 22  1  0
  9 23  1  0
  9 24  1  0
  9 25  1  0
M  END
