
     RDKit          3D

 29 28  0  0  0  0  0  0  0  0999 V2000
    3.4698   -0.3660    0.2306 C   0  0  0  0  0  0  0  0  0  0  0  0
    2.2029    0.2255    0.7892 C   0  0  0  0  0  0  0  0  0  0  0  0
    0.9857   -0.1756   -0.0639 C   0  0  0  0  0  0  0  0  0  0  0  0
    1.1464    0.3053   -1.4544 C   0  0  0  0  0  0  0  0  0  0  0  0
   -0.2047    0.2494    0.6851 C   0  0  0  0  0  0  0  0  0  0  0  0
   -1.5474   -0.0027    0.1207 C   0  0  0  0  0  0  0  0  0  0  0  0
   -2.5472    0.5554    1.1529 C   0  0  0  0  0  0  0  0  0  0  0  0
   -1.8244    0.7606   -1.1508 C   0  0  0  0  0  0  0  0  0  0  0  0
   -1.8912   -1.4700   -0.0171 C   0  0  0  0  0  0  0  0  0  0  0  0
    3.8211    0.1229   -0.6845 H   0  0  0  0  0  0  0  0  0  0  0  0
    3.3668   -1.4828    0.1069 H   0  0  0  0  0  0  0  0  0  0  0  0
    4.2547   -0.2383    1.0049 H   0  0  0  0  0  0  0  0  0  0  0  0
    2.0874   -0.1204    1.8234 H   0  0  0  0  0  0  0  0  0  0  0  0
    2.3298    1.3280    0.7990 H   0  0  0  0  0  0  0  0  0  0  0  0
    1.0272   -1.2971   -0.0867 H   0  0  0  0  0  0  0  0  0  0  0  0
    2.1373   -0.1045   -1.8211 H   0  0  0  0  0  0  0  0  0  0  0  0
    0.4071   -0.1419   -2.1174 H   0  0  0  0  0  0  0  0  0  0  0  0
    1.2767    1.4014   -1.5503 H   0  0  0  0  0  0  0  0  0  0  0  0
   -0.1564    1.3362    0.9599 H   0  0  0  0  0  0  0  0  0  0  0  0
   -0.1679   -0.2722    1.6869 H   0  0  0  0  0  0  0  0  0  0  0  0
   -2.8715   -0.2491    1.8435 H   0  0  0  0  0  0  0  0  0  0  0  0
   -2.0717    1.3341    1.7792 H   0  0  0  0  0  0  0  0  0  0  0  0
   -3.4291    0.9865    0.6565 H   0  0  0  0  0  0  0  0  0  0  0  0
   -1.0964    1.5636   -1.3597 H   0  0  0  0  0  0  0  0  0  0  0  0
   -2.8169    1.3047   -1.1153 H   0  0  0  0  0  0  0  0  0  0  0  0
   -1.9680    0.0585   -2.0220 H   0  0  0  0  0  0  0  0  0  0  0  0
   -0.9891   -2.1149   -0.0034 H   0  0  0  0  0  0  0  0  0  0  0  0
   -2.5419   -1.8383    0.8044 H   0  0  0  0  0  0  0  0  0  0  0  0
   -2.3892   -1.6583   -0.9966 H   0  0  0  0  0  0  0  0  0  0  0  0
  1  2  1  0
  2  3  1  0
  3  4  1  0
  3  5  1  0
  5  6  1  0
  6  7  1  0
  6  8  1  0
  6  9  1  0
  1 10  1  0
  1 11  1  0
  1 12  1  0
  2 13  1  0
  2 14  1  0
  3 15  1  0
  4 16  1  0
  4 17  1  0
  4 18  1  0
  5 19  1  0
  5 20  1  0
  7 21  1  0
  7 22  1  0
  7 23  1  0
  8 24  1  0
  8 25  1  0
  8 26  1  0
  9 27  1  0
  9 28  1  0
  9 29  1  0
M  END
