
     RDKit          3D

 12 11  0  0  0  0  0  0  0  0999 V2000
   -1.4385    0.2971   -0.1230 C   0  0  0  0  0  0  0  0  0  0  0  0
   -0.4120   -0.3517    0.8009 C   0  0  0  0  0  0  0  0  0  0  0  0
    0.8727   -0.6180    0.1310 C   0  0  0  0  0  0  0  0  0  0  0  0
    1.1902   -1.8436   -0.0606 O   0  0  0  0  0  0  0  0  0  0  0  0
    1.7856    0.4067   -0.3258 C   0  0  0  0  0  0  0  0  0  0  0  0
    1.5266    1.6186   -0.1724 O   0  0  0  0  0  0  0  0  0  0  0  0
   -2.4342    0.0227    0.2895 H   0  0  0  0  0  0  0  0  0  0  0  0
   -1.3172    1.3968   -0.0476 H   0  0  0  0  0  0  0  0  0  0  0  0
   -1.2996   -0.0375   -1.1834 H   0  0  0  0  0  0  0  0  0  0  0  0
   -0.3089    0.3042    1.6879 H   0  0  0  0  0  0  0  0  0  0  0  0
   -0.8656   -1.3239    1.1779 H   0  0  0  0  0  0  0  0  0  0  0  0
    2.7008    0.1286   -0.8075 H   0  0  0  0  0  0  0  0  0  0  0  0
  1  2  1  0
  2  3  1  0
  3  4  2  0
  3  5  1  0
  5  6  2  0
  1  7  1  0
  1  8  1  0
  1  9  1  0
  2 10  1  0
  2 11  1  0
  5 12  1  0
M  END
