
     RDKit          3D

 21 20  0  0  0  0  0  0  0  0999 V2000
    0.3021    2.3685   -0.6304 C   0  0  0  0  0  0  0  0  0  0  0  0
   -0.5144    1.1034   -0.7856 C   0  0  0  0  0  0  0  0  0  0  0  0
   -0.0497    0.0607    0.1925 C   0  0  0  0  0  0  0  0  0  0  0  0
    1.3828   -0.2825   -0.0237 C   0  0  0  0  0  0  0  0  0  0  0  0
    2.0900   -1.2927    0.8187 C   0  0  0  0  0  0  0  0  0  0  0  0
    1.9667    0.2957   -0.9226 O   0  0  0  0  0  0  0  0  0  0  0  0
   -0.8300   -1.1995    0.0850 C   0  0  0  0  0  0  0  0  0  0  0  0
   -2.3045   -1.2515    0.3040 C   0  0  0  0  0  0  0  0  0  0  0  0
   -0.2995   -2.2695   -0.1913 O   0  0  0  0  0  0  0  0  0  0  0  0
   -0.3576    3.2520   -0.8345 H   0  0  0  0  0  0  0  0  0  0  0  0
    1.1336    2.4378   -1.3486 H   0  0  0  0  0  0  0  0  0  0  0  0
    0.6717    2.4499    0.4119 H   0  0  0  0  0  0  0  0  0  0  0  0
   -1.5665    1.3696   -0.5566 H   0  0  0  0  0  0  0  0  0  0  0  0
   -0.4037    0.7676   -1.8463 H   0  0  0  0  0  0  0  0  0  0  0  0
   -0.1476    0.5143    1.2103 H   0  0  0  0  0  0  0  0  0  0  0  0
    2.7080   -0.6993    1.5443 H   0  0  0  0  0  0  0  0  0  0  0  0
    1.3985   -1.9310    1.3775 H   0  0  0  0  0  0  0  0  0  0  0  0
    2.7553   -1.8641    0.1641 H   0  0  0  0  0  0  0  0  0  0  0  0
   -2.5199   -2.1171    0.9827 H   0  0  0  0  0  0  0  0  0  0  0  0
   -2.7664   -1.4141   -0.7018 H   0  0  0  0  0  0  0  0  0  0  0  0
   -2.6491   -0.2980    0.7505 H   0  0  0  0  0  0  0  0  0  0  0  0
  1  2  1  0
  2  3  1  0
  3  4  1  0
  4  5  1  0
  4  6  2  0
  3  7  1  0
  7  8  1  0
  7  9  2  0
  1 10  1  0
  1 11  1  0
  1 12  1  0
  2 13  1  0
  2 14  1  0
  3 15  1  0
  5 16  1  0
  5 17  1  0
  5 18  1  0
  8 19  1  0
  8 20  1  0
  8 21  1  0
M  END
