
     RDKit          3D

 23 22  0  0  0  0  0  0  0  0999 V2000
   -1.9268   -1.6250   -0.2478 C   0  0  0  0  0  0  0  0  0  0  0  0
   -1.4619   -0.2572    0.1931 C   0  0  0  0  0  0  0  0  0  0  0  0
   -0.1133    0.0978   -0.3568 C   0  0  0  0  0  0  0  0  0  0  0  0
    0.2455    1.4769    0.1476 C   0  0  0  0  0  0  0  0  0  0  0  0
   -0.7107    2.5161   -0.2713 C   0  0  0  0  0  0  0  0  0  0  0  0
   -0.5631    3.6664    0.0890 O   0  0  0  0  0  0  0  0  0  0  0  0
    0.9329   -0.8955    0.1725 C   0  0  0  0  0  0  0  0  0  0  0  0
    2.2766   -0.5158   -0.3954 C   0  0  0  0  0  0  0  0  0  0  0  0
    0.9746   -0.8569    1.5615 O   0  0  0  0  0  0  0  0  0  0  0  0
   -1.7008   -2.3734    0.5318 H   0  0  0  0  0  0  0  0  0  0  0  0
   -3.0223   -1.6469   -0.4308 H   0  0  0  0  0  0  0  0  0  0  0  0
   -1.4120   -1.9659   -1.1735 H   0  0  0  0  0  0  0  0  0  0  0  0
   -1.3532   -0.2878    1.3112 H   0  0  0  0  0  0  0  0  0  0  0  0
   -2.1766    0.5313   -0.0616 H   0  0  0  0  0  0  0  0  0  0  0  0
   -0.0750    0.0800   -1.4636 H   0  0  0  0  0  0  0  0  0  0  0  0
    0.2296    1.4560    1.2668 H   0  0  0  0  0  0  0  0  0  0  0  0
    1.2751    1.7186   -0.2129 H   0  0  0  0  0  0  0  0  0  0  0  0
   -1.5337    2.2570   -0.8924 H   0  0  0  0  0  0  0  0  0  0  0  0
    0.6745   -1.9200   -0.2008 H   0  0  0  0  0  0  0  0  0  0  0  0
    2.1507   -0.1829   -1.4379 H   0  0  0  0  0  0  0  0  0  0  0  0
    2.6784    0.3079    0.2341 H   0  0  0  0  0  0  0  0  0  0  0  0
    2.9838   -1.3616   -0.2816 H   0  0  0  0  0  0  0  0  0  0  0  0
    1.6280   -0.2190    1.9190 H   0  0  0  0  0  0  0  0  0  0  0  0
  1  2  1  0
  2  3  1  0
  3  4  1  0
  4  5  1  0
  5  6  2  0
  3  7  1  0
  7  8  1  0
  7  9  1  0
  1 10  1  0
  1 11  1  0
  1 12  1  0
  2 13  1  0
  2 14  1  0
  3 15  1  0
  4 16  1  0
  4 17  1  0
  5 18  1  0
  7 19  1  0
  8 20  1  0
  8 21  1  0
  8 22  1  0
  9 23  1  0
M  END
