
     RDKit          3D

 21 21  0  0  0  0  0  0  0  0999 V2000
   -2.5824    0.3073    0.4258 C   0  0  0  0  0  0  0  0  0  0  0  0
   -1.1138    0.1537    0.7241 C   0  0  0  0  0  0  0  0  0  0  0  0
   -0.3374    0.1524   -0.5510 C   0  0  0  0  0  0  0  0  0  0  0  0
   -0.7799   -0.9837   -1.4224 C   0  0  0  0  0  0  0  0  0  0  0  0
    1.1416    0.1142   -0.3812 C   0  0  0  0  0  0  0  0  0  0  0  0
    1.6024   -1.0384    0.3167 O   0  0  0  0  0  0  0  0  0  0  0  0
    1.8626    0.3394    0.8287 C   0  0  0  0  0  0  0  0  0  0  0  0
    3.3223    0.5940    0.7489 C   0  0  0  0  0  0  0  0  0  0  0  0
    3.9386    0.5389   -0.2946 O   0  0  0  0  0  0  0  0  0  0  0  0
   -3.2379   -0.2057    1.1330 H   0  0  0  0  0  0  0  0  0  0  0  0
   -2.8440   -0.0913   -0.5909 H   0  0  0  0  0  0  0  0  0  0  0  0
   -2.7992    1.3905    0.3800 H   0  0  0  0  0  0  0  0  0  0  0  0
   -0.9868   -0.8512    1.2228 H   0  0  0  0  0  0  0  0  0  0  0  0
   -0.7983    0.8954    1.4577 H   0  0  0  0  0  0  0  0  0  0  0  0
   -0.5863    1.1058   -1.1002 H   0  0  0  0  0  0  0  0  0  0  0  0
    0.0667   -1.5563   -1.8370 H   0  0  0  0  0  0  0  0  0  0  0  0
   -1.3875   -0.6338   -2.2931 H   0  0  0  0  0  0  0  0  0  0  0  0
   -1.4239   -1.7150   -0.8827 H   0  0  0  0  0  0  0  0  0  0  0  0
    1.6908    0.2339   -1.3504 H   0  0  0  0  0  0  0  0  0  0  0  0
    1.3920    0.4121    1.8165 H   0  0  0  0  0  0  0  0  0  0  0  0
    3.8605    0.8376    1.6492 H   0  0  0  0  0  0  0  0  0  0  0  0
  1  2  1  0
  2  3  1  0
  3  4  1  0
  3  5  1  0
  5  6  1  0
  6  7  1  0
  7  8  1  0
  8  9  2  0
  7  5  1  0
  1 10  1  0
  1 11  1  0
  1 12  1  0
  2 13  1  0
  2 14  1  0
  3 15  1  0
  4 16  1  0
  4 17  1  0
  4 18  1  0
  5 19  1  0
  7 20  1  0
  8 21  1  0
M  END
