
     RDKit          3D

 19 18  0  0  0  0  0  0  0  0999 V2000
   -2.0026   -0.6292    0.0275 C   0  0  0  0  0  0  0  0  0  0  0  0
   -0.6690   -0.5642   -0.6116 C   0  0  0  0  0  0  0  0  0  0  0  0
    0.4452   -0.1141    0.2957 C   0  0  0  0  0  0  0  0  0  0  0  0
    1.7084   -0.1269   -0.5854 C   0  0  0  0  0  0  0  0  0  0  0  0
    0.6240   -1.0125    1.4599 C   0  0  0  0  0  0  0  0  0  0  0  0
    0.6081   -0.5777    2.5885 O   0  0  0  0  0  0  0  0  0  0  0  0
    0.2758    1.1960    0.7864 O   0  0  0  0  0  0  0  0  0  0  0  0
    0.1881    2.3203    0.0105 C   0  0  0  0  0  0  0  0  0  0  0  0
    0.2641    2.1894   -1.2378 O   0  0  0  0  0  0  0  0  0  0  0  0
   -2.5361    0.3569   -0.1147 H   0  0  0  0  0  0  0  0  0  0  0  0
   -2.6307   -1.3526   -0.5729 H   0  0  0  0  0  0  0  0  0  0  0  0
   -2.0185   -0.9581    1.0639 H   0  0  0  0  0  0  0  0  0  0  0  0
   -0.6822    0.0857   -1.5024 H   0  0  0  0  0  0  0  0  0  0  0  0
   -0.3677   -1.5926   -0.9676 H   0  0  0  0  0  0  0  0  0  0  0  0
    1.4314    0.1407   -1.6216 H   0  0  0  0  0  0  0  0  0  0  0  0
    2.0804   -1.1864   -0.5953 H   0  0  0  0  0  0  0  0  0  0  0  0
    2.4549    0.5840   -0.2149 H   0  0  0  0  0  0  0  0  0  0  0  0
    0.7716   -2.0705    1.3197 H   0  0  0  0  0  0  0  0  0  0  0  0
    0.0545    3.3117    0.4722 H   0  0  0  0  0  0  0  0  0  0  0  0
  1  2  1  0
  2  3  1  0
  3  4  1  0
  3  5  1  0
  5  6  2  0
  3  7  1  0
  7  8  1  0
  8  9  2  0
  1 10  1  0
  1 11  1  0
  1 12  1  0
  2 13  1  0
  2 14  1  0
  4 15  1  0
  4 16  1  0
  4 17  1  0
  5 18  1  0
  8 19  1  0
M  END
