
     RDKit          3D

 22 21  0  0  0  0  0  0  0  0999 V2000
    2.8912   -0.5553    0.4356 C   0  0  0  0  0  0  0  0  0  0  0  0
    1.6162    0.2162    0.5983 C   0  0  0  0  0  0  0  0  0  0  0  0
    0.4776   -0.5257   -0.0189 C   0  0  0  0  0  0  0  0  0  0  0  0
    0.6906   -1.6010   -0.5504 O   0  0  0  0  0  0  0  0  0  0  0  0
   -0.8963    0.0339    0.0116 C   0  0  0  0  0  0  0  0  0  0  0  0
   -0.9400    1.3615   -0.6908 C   0  0  0  0  0  0  0  0  0  0  0  0
   -1.3329    0.2920    1.4583 C   0  0  0  0  0  0  0  0  0  0  0  0
   -1.8531   -0.9642   -0.5581 C   0  0  0  0  0  0  0  0  0  0  0  0
    2.7965   -1.6167    0.7632 H   0  0  0  0  0  0  0  0  0  0  0  0
    3.0937   -0.6096   -0.6706 H   0  0  0  0  0  0  0  0  0  0  0  0
    3.6999   -0.0247    0.9617 H   0  0  0  0  0  0  0  0  0  0  0  0
    1.7306    1.1645    0.0237 H   0  0  0  0  0  0  0  0  0  0  0  0
    1.4052    0.4819    1.6564 H   0  0  0  0  0  0  0  0  0  0  0  0
   -0.3183    2.0701   -0.0793 H   0  0  0  0  0  0  0  0  0  0  0  0
   -1.9724    1.7538   -0.6638 H   0  0  0  0  0  0  0  0  0  0  0  0
   -0.5592    1.3489   -1.7125 H   0  0  0  0  0  0  0  0  0  0  0  0
   -0.6813    1.0735    1.8463 H   0  0  0  0  0  0  0  0  0  0  0  0
   -2.4038    0.5892    1.3946 H   0  0  0  0  0  0  0  0  0  0  0  0
   -1.2154   -0.6834    1.9821 H   0  0  0  0  0  0  0  0  0  0  0  0
   -1.5844   -1.2316   -1.6114 H   0  0  0  0  0  0  0  0  0  0  0  0
   -1.7360   -1.9066    0.0288 H   0  0  0  0  0  0  0  0  0  0  0  0
   -2.9085   -0.6670   -0.4597 H   0  0  0  0  0  0  0  0  0  0  0  0
  1  2  1  0
  2  3  1  0
  3  4  2  0
  3  5  1  0
  5  6  1  0
  5  7  1  0
  5  8  1  0
  1  9  1  0
  1 10  1  0
  1 11  1  0
  2 12  1  0
  2 13  1  0
  6 14  1  0
  6 15  1  0
  6 16  1  0
  7 17  1  0
  7 18  1  0
  7 19  1  0
  8 20  1  0
  8 21  1  0
  8 22  1  0
M  END
