
     RDKit          3D

 19 19  0  0  0  0  0  0  0  0999 V2000
    2.7515   -0.2109    0.0269 C   0  0  0  0  0  0  0  0  0  0  0  0
    1.5177    0.6510   -0.0643 C   0  0  0  0  0  0  0  0  0  0  0  0
    0.3282   -0.1909    0.0683 C   0  0  0  0  0  0  0  0  0  0  0  0
    0.5182   -1.3864    0.2224 O   0  0  0  0  0  0  0  0  0  0  0  0
   -1.0723    0.2918    0.0301 C   0  0  0  0  0  0  0  0  0  0  0  0
   -1.2760    1.6266   -0.1419 O   0  0  0  0  0  0  0  0  0  0  0  0
   -2.0476   -0.4285    0.9026 C   0  0  0  0  0  0  0  0  0  0  0  0
   -2.9636   -0.3240   -0.1735 O   0  0  0  0  0  0  0  0  0  0  0  0
   -1.8745   -0.5028   -0.9995 C   0  0  0  0  0  0  0  0  0  0  0  0
    2.6260   -1.1565   -0.5482 H   0  0  0  0  0  0  0  0  0  0  0  0
    3.6545    0.3437   -0.3407 H   0  0  0  0  0  0  0  0  0  0  0  0
    2.9456   -0.5148    1.0946 H   0  0  0  0  0  0  0  0  0  0  0  0
    1.5595    1.1263   -1.0896 H   0  0  0  0  0  0  0  0  0  0  0  0
    1.5869    1.4624    0.6855 H   0  0  0  0  0  0  0  0  0  0  0  0
   -0.7106    2.2162    0.3953 H   0  0  0  0  0  0  0  0  0  0  0  0
   -1.7167   -1.4898    1.0673 H   0  0  0  0  0  0  0  0  0  0  0  0
   -2.3823    0.0902    1.8197 H   0  0  0  0  0  0  0  0  0  0  0  0
   -1.5255   -1.5579   -0.9599 H   0  0  0  0  0  0  0  0  0  0  0  0
   -1.9190   -0.0457   -1.9952 H   0  0  0  0  0  0  0  0  0  0  0  0
  1  2  1  0
  2  3  1  0
  3  4  2  0
  3  5  1  0
  5  6  1  0
  5  7  1  0
  7  8  1  0
  8  9  1  0
  9  5  1  0
  1 10  1  0
  1 11  1  0
  1 12  1  0
  2 13  1  0
  2 14  1  0
  6 15  1  0
  7 16  1  0
  7 17  1  0
  9 18  1  0
  9 19  1  0
M  END
