
     RDKit          3D

 23 23  0  0  0  0  0  0  0  0999 V2000
   -2.3448    1.0088   -0.5103 C   0  0  0  0  0  0  0  0  0  0  0  0
   -0.9457    1.0741    0.1295 C   0  0  0  0  0  0  0  0  0  0  0  0
   -0.3249   -0.2564   -0.1094 C   0  0  0  0  0  0  0  0  0  0  0  0
   -1.2361   -1.2873    0.5652 C   0  0  0  0  0  0  0  0  0  0  0  0
    1.0924   -0.4070    0.3454 C   0  0  0  0  0  0  0  0  0  0  0  0
    2.0933    0.5148   -0.2709 C   0  0  0  0  0  0  0  0  0  0  0  0
    1.8968    1.8487   -0.0286 O   0  0  0  0  0  0  0  0  0  0  0  0
    1.4223   -1.3355    1.3621 C   0  0  0  0  0  0  0  0  0  0  0  0
    1.5054   -1.8095   -0.0361 O   0  0  0  0  0  0  0  0  0  0  0  0
   -2.3219    0.4501   -1.4596 H   0  0  0  0  0  0  0  0  0  0  0  0
   -2.6942    2.0546   -0.7287 H   0  0  0  0  0  0  0  0  0  0  0  0
   -3.0503    0.5446    0.2054 H   0  0  0  0  0  0  0  0  0  0  0  0
   -1.1078    1.2230    1.2210 H   0  0  0  0  0  0  0  0  0  0  0  0
   -0.3916    1.8984   -0.3340 H   0  0  0  0  0  0  0  0  0  0  0  0
   -0.3485   -0.5101   -1.2001 H   0  0  0  0  0  0  0  0  0  0  0  0
   -2.2119   -1.3080    0.0334 H   0  0  0  0  0  0  0  0  0  0  0  0
   -1.3383   -0.9882    1.6204 H   0  0  0  0  0  0  0  0  0  0  0  0
   -0.7604   -2.2740    0.4231 H   0  0  0  0  0  0  0  0  0  0  0  0
    2.1142    0.2991   -1.3752 H   0  0  0  0  0  0  0  0  0  0  0  0
    3.1409    0.2749    0.0657 H   0  0  0  0  0  0  0  0  0  0  0  0
    2.7444    2.3326    0.1982 H   0  0  0  0  0  0  0  0  0  0  0  0
    2.4230   -1.4210    1.8183 H   0  0  0  0  0  0  0  0  0  0  0  0
    0.6438   -1.9265    1.8640 H   0  0  0  0  0  0  0  0  0  0  0  0
  1  2  1  0
  2  3  1  0
  3  4  1  0
  3  5  1  0
  5  6  1  0
  6  7  1  0
  5  8  1  0
  8  9  1  0
  9  5  1  0
  1 10  1  0
  1 11  1  0
  1 12  1  0
  2 13  1  0
  2 14  1  0
  3 15  1  0
  4 16  1  0
  4 17  1  0
  4 18  1  0
  6 19  1  0
  6 20  1  0
  7 21  1  0
  8 22  1  0
  8 23  1  0
M  END
