
     RDKit          3D

 21 20  0  0  0  0  0  0  0  0999 V2000
   -3.2424   -0.4036   -0.2092 C   0  0  0  0  0  0  0  0  0  0  0  0
   -1.9737    0.1583    0.3715 C   0  0  0  0  0  0  0  0  0  0  0  0
   -0.7734   -0.1938   -0.4085 C   0  0  0  0  0  0  0  0  0  0  0  0
   -0.8246   -0.8776   -1.4265 O   0  0  0  0  0  0  0  0  0  0  0  0
    0.5413    0.3015    0.0622 C   0  0  0  0  0  0  0  0  0  0  0  0
    0.8689   -0.1919    1.4393 C   0  0  0  0  0  0  0  0  0  0  0  0
    0.9486   -1.3901    1.6396 O   0  0  0  0  0  0  0  0  0  0  0  0
    1.6567   -0.1267   -0.8850 C   0  0  0  0  0  0  0  0  0  0  0  0
    2.9498    0.4210   -0.3258 C   0  0  0  0  0  0  0  0  0  0  0  0
   -3.2797   -1.5033   -0.1944 H   0  0  0  0  0  0  0  0  0  0  0  0
   -4.0786   -0.0337    0.4405 H   0  0  0  0  0  0  0  0  0  0  0  0
   -3.3589   -0.0067   -1.2357 H   0  0  0  0  0  0  0  0  0  0  0  0
   -2.0924    1.2651    0.4034 H   0  0  0  0  0  0  0  0  0  0  0  0
   -1.8107   -0.1854    1.4161 H   0  0  0  0  0  0  0  0  0  0  0  0
    0.5419    1.4070    0.0578 H   0  0  0  0  0  0  0  0  0  0  0  0
    1.0305    0.5153    2.2372 H   0  0  0  0  0  0  0  0  0  0  0  0
    1.4497    0.3320   -1.8732 H   0  0  0  0  0  0  0  0  0  0  0  0
    1.6914   -1.2327   -0.9426 H   0  0  0  0  0  0  0  0  0  0  0  0
    2.8162    1.5112   -0.1288 H   0  0  0  0  0  0  0  0  0  0  0  0
    3.7706    0.3045   -1.0621 H   0  0  0  0  0  0  0  0  0  0  0  0
    3.1685   -0.0705    0.6243 H   0  0  0  0  0  0  0  0  0  0  0  0
  1  2  1  0
  2  3  1  0
  3  4  2  0
  3  5  1  0
  5  6  1  0
  6  7  2  0
  5  8  1  0
  8  9  1  0
  1 10  1  0
  1 11  1  0
  1 12  1  0
  2 13  1  0
  2 14  1  0
  5 15  1  0
  6 16  1  0
  8 17  1  0
  8 18  1  0
  9 19  1  0
  9 20  1  0
  9 21  1  0
M  END
