
     RDKit          3D

 22 21  0  0  0  0  0  0  0  0999 V2000
   -1.6260    1.4715    0.8096 C   0  0  0  0  0  0  0  0  0  0  0  0
   -1.5909    0.4317   -0.2570 C   0  0  0  0  0  0  0  0  0  0  0  0
   -0.7710   -0.7618    0.1438 C   0  0  0  0  0  0  0  0  0  0  0  0
   -0.7204   -1.8135   -0.9042 C   0  0  0  0  0  0  0  0  0  0  0  0
    0.6112   -0.4015    0.6007 C   0  0  0  0  0  0  0  0  0  0  0  0
    1.4167    0.2851   -0.4018 C   0  0  0  0  0  0  0  0  0  0  0  0
    2.7993    0.6941   -0.0717 C   0  0  0  0  0  0  0  0  0  0  0  0
    0.9759    0.5270   -1.4993 O   0  0  0  0  0  0  0  0  0  0  0  0
   -2.4628    2.1849    0.5634 H   0  0  0  0  0  0  0  0  0  0  0  0
   -0.6689    2.0290    0.8928 H   0  0  0  0  0  0  0  0  0  0  0  0
   -1.8214    0.9792    1.8025 H   0  0  0  0  0  0  0  0  0  0  0  0
   -1.3132    0.8860   -1.2040 H   0  0  0  0  0  0  0  0  0  0  0  0
   -2.6464    0.0556   -0.3869 H   0  0  0  0  0  0  0  0  0  0  0  0
   -1.2919   -1.2107    1.0396 H   0  0  0  0  0  0  0  0  0  0  0  0
    0.3158   -2.2412   -1.0429 H   0  0  0  0  0  0  0  0  0  0  0  0
   -1.0713   -1.4316   -1.8904 H   0  0  0  0  0  0  0  0  0  0  0  0
   -1.3578   -2.7042   -0.6894 H   0  0  0  0  0  0  0  0  0  0  0  0
    0.5995    0.1373    1.5818 H   0  0  0  0  0  0  0  0  0  0  0  0
    1.1270   -1.3784    0.8333 H   0  0  0  0  0  0  0  0  0  0  0  0
    3.4244   -0.2441   -0.0814 H   0  0  0  0  0  0  0  0  0  0  0  0
    3.1725    1.4277   -0.8132 H   0  0  0  0  0  0  0  0  0  0  0  0
    2.8998    1.0780    0.9747 H   0  0  0  0  0  0  0  0  0  0  0  0
  1  2  1  0
  2  3  1  0
  3  4  1  0
  3  5  1  0
  5  6  1  0
  6  7  1  0
  6  8  2  0
  1  9  1  0
  1 10  1  0
  1 11  1  0
  2 12  1  0
  2 13  1  0
  3 14  1  0
  4 15  1  0
  4 16  1  0
  4 17  1  0
  5 18  1  0
  5 19  1  0
  7 20  1  0
  7 21  1  0
  7 22  1  0
M  END
