
     RDKit          3D

 21 22  0  0  0  0  0  0  0  0999 V2000
    2.3722   -0.9074   -0.0116 C   0  0  0  0  0  0  0  0  0  0  0  0
    1.9139    0.5228    0.1264 C   0  0  0  0  0  0  0  0  0  0  0  0
    0.5688    0.7638   -0.4882 C   0  0  0  0  0  0  0  0  0  0  0  0
    0.2626    2.1191   -0.2931 O   0  0  0  0  0  0  0  0  0  0  0  0
   -0.5101   -0.1244    0.0466 C   0  0  0  0  0  0  0  0  0  0  0  0
   -1.3470   -0.9560   -0.8851 C   0  0  0  0  0  0  0  0  0  0  0  0
   -2.6255   -0.5255   -0.1640 C   0  0  0  0  0  0  0  0  0  0  0  0
   -1.7982    0.4812    0.5698 C   0  0  0  0  0  0  0  0  0  0  0  0
   -0.8270   -0.0612    1.3956 O   0  0  0  0  0  0  0  0  0  0  0  0
    1.8585   -1.3304   -0.9018 H   0  0  0  0  0  0  0  0  0  0  0  0
    3.4714   -0.8963   -0.1631 H   0  0  0  0  0  0  0  0  0  0  0  0
    2.1613   -1.5289    0.8638 H   0  0  0  0  0  0  0  0  0  0  0  0
    1.9166    0.8164    1.2019 H   0  0  0  0  0  0  0  0  0  0  0  0
    2.6350    1.2003   -0.3796 H   0  0  0  0  0  0  0  0  0  0  0  0
    0.6493    0.6026   -1.5869 H   0  0  0  0  0  0  0  0  0  0  0  0
    0.2878    2.2613    0.6903 H   0  0  0  0  0  0  0  0  0  0  0  0
   -1.2000   -2.0497   -0.8214 H   0  0  0  0  0  0  0  0  0  0  0  0
   -1.3579   -0.5236   -1.9059 H   0  0  0  0  0  0  0  0  0  0  0  0
   -3.3924   -0.0935   -0.8205 H   0  0  0  0  0  0  0  0  0  0  0  0
   -3.0673   -1.3177    0.4806 H   0  0  0  0  0  0  0  0  0  0  0  0
   -1.9720    1.5473    0.5044 H   0  0  0  0  0  0  0  0  0  0  0  0
  1  2  1  0
  2  3  1  0
  3  4  1  0
  3  5  1  0
  5  6  1  0
  6  7  1  0
  7  8  1  0
  8  9  1  0
  8  5  1  0
  9  5  1  0
  1 10  1  0
  1 11  1  0
  1 12  1  0
  2 13  1  0
  2 14  1  0
  3 15  1  0
  4 16  1  0
  6 17  1  0
  6 18  1  0
  7 19  1  0
  7 20  1  0
  8 21  1  0
M  END
