
     RDKit          3D

 21 20  0  0  0  0  0  0  0  0999 V2000
   -2.1879    0.0227    0.3836 C   0  0  0  0  0  0  0  0  0  0  0  0
   -0.8324   -0.1932    0.8767 C   0  0  0  0  0  0  0  0  0  0  0  0
    0.3362   -0.0387   -0.0187 C   0  0  0  0  0  0  0  0  0  0  0  0
    0.2623   -0.9864   -1.1996 C   0  0  0  0  0  0  0  0  0  0  0  0
    1.5179   -0.6300    0.8060 C   0  0  0  0  0  0  0  0  0  0  0  0
    2.6745   -0.6439    0.0400 O   0  0  0  0  0  0  0  0  0  0  0  0
    0.7712    1.2308   -0.3280 O   0  0  0  0  0  0  0  0  0  0  0  0
    0.1277    2.2497   -0.9628 C   0  0  0  0  0  0  0  0  0  0  0  0
   -1.0470    2.0151   -1.3377 O   0  0  0  0  0  0  0  0  0  0  0  0
   -2.6185    1.0347    0.6425 H   0  0  0  0  0  0  0  0  0  0  0  0
   -2.8841   -0.6665    0.9670 H   0  0  0  0  0  0  0  0  0  0  0  0
   -2.4219   -0.2245   -0.6568 H   0  0  0  0  0  0  0  0  0  0  0  0
   -0.7588   -1.2405    1.3078 H   0  0  0  0  0  0  0  0  0  0  0  0
   -0.6878    0.4529    1.7793 H   0  0  0  0  0  0  0  0  0  0  0  0
    0.3153   -2.0111   -0.7751 H   0  0  0  0  0  0  0  0  0  0  0  0
   -0.6965   -0.9242   -1.7381 H   0  0  0  0  0  0  0  0  0  0  0  0
    1.1209   -0.8323   -1.8549 H   0  0  0  0  0  0  0  0  0  0  0  0
    1.6972   -0.0425    1.7036 H   0  0  0  0  0  0  0  0  0  0  0  0
    1.3095   -1.6645    1.0810 H   0  0  0  0  0  0  0  0  0  0  0  0
    3.4133   -0.1392    0.4326 H   0  0  0  0  0  0  0  0  0  0  0  0
    0.5891    3.2316   -1.1485 H   0  0  0  0  0  0  0  0  0  0  0  0
  1  2  1  0
  2  3  1  0
  3  4  1  0
  3  5  1  0
  5  6  1  0
  3  7  1  0
  7  8  1  0
  8  9  2  0
  1 10  1  0
  1 11  1  0
  1 12  1  0
  2 13  1  0
  2 14  1  0
  4 15  1  0
  4 16  1  0
  4 17  1  0
  5 18  1  0
  5 19  1  0
  6 20  1  0
  8 21  1  0
M  END
