
     RDKit          3D

 25 24  0  0  0  0  0  0  0  0999 V2000
   -1.8290   -1.3984   -0.9487 C   0  0  0  0  0  0  0  0  0  0  0  0
   -1.5103   -0.9589    0.4280 C   0  0  0  0  0  0  0  0  0  0  0  0
   -0.4604    0.0791    0.5345 C   0  0  0  0  0  0  0  0  0  0  0  0
   -0.7663    1.2449   -0.1611 O   0  0  0  0  0  0  0  0  0  0  0  0
   -0.9262    2.3451    0.6718 C   0  0  0  0  0  0  0  0  0  0  0  0
    0.8863   -0.4122    0.1362 C   0  0  0  0  0  0  0  0  0  0  0  0
    1.0561   -0.8955   -1.2600 C   0  0  0  0  0  0  0  0  0  0  0  0
    1.8819    0.7312    0.4406 C   0  0  0  0  0  0  0  0  0  0  0  0
    3.1376    0.2369    0.0564 O   0  0  0  0  0  0  0  0  0  0  0  0
   -1.4775   -0.7822   -1.7740 H   0  0  0  0  0  0  0  0  0  0  0  0
   -2.9708   -1.3275   -1.0337 H   0  0  0  0  0  0  0  0  0  0  0  0
   -1.6059   -2.4736   -1.1639 H   0  0  0  0  0  0  0  0  0  0  0  0
   -2.4329   -0.6087    0.9974 H   0  0  0  0  0  0  0  0  0  0  0  0
   -1.2418   -1.8970    1.0097 H   0  0  0  0  0  0  0  0  0  0  0  0
   -0.4202    0.3807    1.6541 H   0  0  0  0  0  0  0  0  0  0  0  0
   -1.7448    2.2018    1.4069 H   0  0  0  0  0  0  0  0  0  0  0  0
   -0.0168    2.5430    1.2711 H   0  0  0  0  0  0  0  0  0  0  0  0
   -1.0831    3.2229    0.0114 H   0  0  0  0  0  0  0  0  0  0  0  0
    1.2377   -1.2303    0.8300 H   0  0  0  0  0  0  0  0  0  0  0  0
    2.1779   -0.9671   -1.4155 H   0  0  0  0  0  0  0  0  0  0  0  0
    0.6210   -1.8648   -1.4994 H   0  0  0  0  0  0  0  0  0  0  0  0
    0.7503   -0.1390   -2.0134 H   0  0  0  0  0  0  0  0  0  0  0  0
    1.6387    1.5992   -0.1769 H   0  0  0  0  0  0  0  0  0  0  0  0
    1.8643    1.0147    1.4897 H   0  0  0  0  0  0  0  0  0  0  0  0
    3.2341   -0.6442    0.5090 H   0  0  0  0  0  0  0  0  0  0  0  0
  1  2  1  0
  2  3  1  0
  3  4  1  0
  4  5  1  0
  3  6  1  0
  6  7  1  0
  6  8  1  0
  8  9  1  0
  1 10  1  0
  1 11  1  0
  1 12  1  0
  2 13  1  0
  2 14  1  0
  3 15  1  0
  5 16  1  0
  5 17  1  0
  5 18  1  0
  6 19  1  0
  7 20  1  0
  7 21  1  0
  7 22  1  0
  8 23  1  0
  8 24  1  0
  9 25  1  0
M  END
