
     RDKit          3D

 25 24  0  0  0  0  0  0  0  0999 V2000
   -2.8938   -1.1912   -1.0595 C   0  0  0  0  0  0  0  0  0  0  0  0
   -1.5700   -0.4381   -1.0553 C   0  0  0  0  0  0  0  0  0  0  0  0
   -1.0958   -0.3742    0.3568 C   0  0  0  0  0  0  0  0  0  0  0  0
   -2.1746    0.3711    1.1569 C   0  0  0  0  0  0  0  0  0  0  0  0
    0.1678    0.4217    0.5380 C   0  0  0  0  0  0  0  0  0  0  0  0
    1.2436   -0.0521   -0.1597 O   0  0  0  0  0  0  0  0  0  0  0  0
    2.3218    0.7897    0.1151 C   0  0  0  0  0  0  0  0  0  0  0  0
    3.5748    0.3545   -0.6111 C   0  0  0  0  0  0  0  0  0  0  0  0
    3.9777   -0.9141   -0.2723 O   0  0  0  0  0  0  0  0  0  0  0  0
   -3.1618   -1.5584   -2.0604 H   0  0  0  0  0  0  0  0  0  0  0  0
   -3.6507   -0.4515   -0.6692 H   0  0  0  0  0  0  0  0  0  0  0  0
   -2.8722   -2.0046   -0.2873 H   0  0  0  0  0  0  0  0  0  0  0  0
   -0.8983   -0.9981   -1.7297 H   0  0  0  0  0  0  0  0  0  0  0  0
   -1.7914    0.5719   -1.4709 H   0  0  0  0  0  0  0  0  0  0  0  0
   -1.0065   -1.4038    0.7529 H   0  0  0  0  0  0  0  0  0  0  0  0
   -2.6792    1.0982    0.4751 H   0  0  0  0  0  0  0  0  0  0  0  0
   -2.8843   -0.3349    1.6255 H   0  0  0  0  0  0  0  0  0  0  0  0
   -1.7180    0.9769    1.9697 H   0  0  0  0  0  0  0  0  0  0  0  0
   -0.0059    1.4873    0.2931 H   0  0  0  0  0  0  0  0  0  0  0  0
    0.4133    0.3806    1.6323 H   0  0  0  0  0  0  0  0  0  0  0  0
    2.4829    0.7370    1.2244 H   0  0  0  0  0  0  0  0  0  0  0  0
    2.0253    1.7997   -0.1963 H   0  0  0  0  0  0  0  0  0  0  0  0
    4.3655    1.0949   -0.3344 H   0  0  0  0  0  0  0  0  0  0  0  0
    3.4001    0.5002   -1.6998 H   0  0  0  0  0  0  0  0  0  0  0  0
    4.4298   -0.8628    0.6071 H   0  0  0  0  0  0  0  0  0  0  0  0
  1  2  1  0
  2  3  1  0
  3  4  1  0
  3  5  1  0
  5  6  1  0
  6  7  1  0
  7  8  1  0
  8  9  1  0
  1 10  1  0
  1 11  1  0
  1 12  1  0
  2 13  1  0
  2 14  1  0
  3 15  1  0
  4 16  1  0
  4 17  1  0
  4 18  1  0
  5 19  1  0
  5 20  1  0
  7 21  1  0
  7 22  1  0
  8 23  1  0
  8 24  1  0
  9 25  1  0
M  END
