
     RDKit          3D

 23 24  0  0  0  0  0  0  0  0999 V2000
   -1.9708   -0.9419    0.2954 C   0  0  0  0  0  0  0  0  0  0  0  0
   -1.4197    0.2833    0.8935 C   0  0  0  0  0  0  0  0  0  0  0  0
   -0.3516    0.9826    0.1116 C   0  0  0  0  0  0  0  0  0  0  0  0
   -0.8524    1.4153   -1.2603 C   0  0  0  0  0  0  0  0  0  0  0  0
    0.9253    0.2937   -0.0286 C   0  0  0  0  0  0  0  0  0  0  0  0
    1.6524   -0.0239    1.3125 C   0  0  0  0  0  0  0  0  0  0  0  0
    1.3159   -1.0337    0.2961 C   0  0  0  0  0  0  0  0  0  0  0  0
    2.1416   -0.9412   -0.9921 C   0  0  0  0  0  0  0  0  0  0  0  0
    1.7171    0.3696   -1.1507 O   0  0  0  0  0  0  0  0  0  0  0  0
   -1.6526   -1.8902    0.8205 H   0  0  0  0  0  0  0  0  0  0  0  0
   -3.0792   -0.9458    0.3630 H   0  0  0  0  0  0  0  0  0  0  0  0
   -1.7259   -1.1075   -0.7688 H   0  0  0  0  0  0  0  0  0  0  0  0
   -2.2356    1.0254    1.0517 H   0  0  0  0  0  0  0  0  0  0  0  0
   -1.0111    0.0662    1.8993 H   0  0  0  0  0  0  0  0  0  0  0  0
   -0.1662    1.9559    0.6600 H   0  0  0  0  0  0  0  0  0  0  0  0
    0.0443    1.5397   -1.9355 H   0  0  0  0  0  0  0  0  0  0  0  0
   -1.5302    0.6951   -1.7156 H   0  0  0  0  0  0  0  0  0  0  0  0
   -1.3205    2.4232   -1.2310 H   0  0  0  0  0  0  0  0  0  0  0  0
    2.7035    0.3343    1.3320 H   0  0  0  0  0  0  0  0  0  0  0  0
    1.0307    0.0126    2.2047 H   0  0  0  0  0  0  0  0  0  0  0  0
    0.7204   -1.9183    0.4649 H   0  0  0  0  0  0  0  0  0  0  0  0
    1.8499   -1.6403   -1.7776 H   0  0  0  0  0  0  0  0  0  0  0  0
    3.2148   -0.9541   -0.7017 H   0  0  0  0  0  0  0  0  0  0  0  0
  1  2  1  0
  2  3  1  0
  3  4  1  0
  3  5  1  0
  5  6  1  0
  6  7  1  0
  7  8  1  0
  8  9  1  0
  7  5  1  0
  9  5  1  0
  1 10  1  0
  1 11  1  0
  1 12  1  0
  2 13  1  0
  2 14  1  0
  3 15  1  0
  4 16  1  0
  4 17  1  0
  4 18  1  0
  6 19  1  0
  6 20  1  0
  7 21  1  0
  8 22  1  0
  8 23  1  0
M  END
