
     RDKit          3D

 25 25  0  0  0  0  0  0  0  0999 V2000
   -2.1719    1.0942   -0.2682 C   0  0  0  0  0  0  0  0  0  0  0  0
   -1.7433    0.3514    0.9451 C   0  0  0  0  0  0  0  0  0  0  0  0
   -0.6247   -0.6132    0.7377 C   0  0  0  0  0  0  0  0  0  0  0  0
   -0.9143   -1.6926   -0.2504 C   0  0  0  0  0  0  0  0  0  0  0  0
    0.7050    0.0599    0.5167 C   0  0  0  0  0  0  0  0  0  0  0  0
    1.8669   -0.8854    0.3015 C   0  0  0  0  0  0  0  0  0  0  0  0
    2.4496    0.2249   -0.5856 C   0  0  0  0  0  0  0  0  0  0  0  0
    0.9781    0.5888   -0.8553 C   0  0  0  0  0  0  0  0  0  0  0  0
    0.8901    1.9787   -0.9802 O   0  0  0  0  0  0  0  0  0  0  0  0
   -1.9875    0.5378   -1.2173 H   0  0  0  0  0  0  0  0  0  0  0  0
   -1.7754    2.1422   -0.3180 H   0  0  0  0  0  0  0  0  0  0  0  0
   -3.2939    1.2303   -0.2402 H   0  0  0  0  0  0  0  0  0  0  0  0
   -2.6174   -0.1405    1.4186 H   0  0  0  0  0  0  0  0  0  0  0  0
   -1.3936    1.1107    1.6970 H   0  0  0  0  0  0  0  0  0  0  0  0
   -0.5039   -1.1436    1.7342 H   0  0  0  0  0  0  0  0  0  0  0  0
   -0.7247   -1.4506   -1.2911 H   0  0  0  0  0  0  0  0  0  0  0  0
   -1.9362   -2.0705   -0.0479 H   0  0  0  0  0  0  0  0  0  0  0  0
   -0.2360   -2.5598    0.0009 H   0  0  0  0  0  0  0  0  0  0  0  0
    0.9529    0.7998    1.2799 H   0  0  0  0  0  0  0  0  0  0  0  0
    1.5947   -1.7266   -0.3327 H   0  0  0  0  0  0  0  0  0  0  0  0
    2.4694   -1.0974    1.2001 H   0  0  0  0  0  0  0  0  0  0  0  0
    2.9872   -0.1412   -1.4637 H   0  0  0  0  0  0  0  0  0  0  0  0
    2.9326    0.9921    0.0344 H   0  0  0  0  0  0  0  0  0  0  0  0
    0.6366    0.0050   -1.7124 H   0  0  0  0  0  0  0  0  0  0  0  0
    1.4597    2.4056   -0.3032 H   0  0  0  0  0  0  0  0  0  0  0  0
  1  2  1  0
  2  3  1  0
  3  4  1  0
  3  5  1  0
  5  6  1  0
  6  7  1  0
  7  8  1  0
  8  9  1  0
  8  5  1  0
  1 10  1  0
  1 11  1  0
  1 12  1  0
  2 13  1  0
  2 14  1  0
  3 15  1  0
  4 16  1  0
  4 17  1  0
  4 18  1  0
  5 19  1  0
  6 20  1  0
  6 21  1  0
  7 22  1  0
  7 23  1  0
  8 24  1  0
  9 25  1  0
M  END
