
     RDKit          3D

 19 18  0  0  0  0  0  0  0  0999 V2000
   -3.1200   -0.1031    0.3088 C   0  0  0  0  0  0  0  0  0  0  0  0
   -2.0350    0.6907   -0.3842 C   0  0  0  0  0  0  0  0  0  0  0  0
   -0.7312    0.4987    0.2674 C   0  0  0  0  0  0  0  0  0  0  0  0
   -0.6171    0.7111    1.4999 O   0  0  0  0  0  0  0  0  0  0  0  0
    0.3762    0.0849   -0.4638 O   0  0  0  0  0  0  0  0  0  0  0  0
    1.6079   -0.0805    0.1999 C   0  0  0  0  0  0  0  0  0  0  0  0
    2.1665   -1.4686    0.0730 C   0  0  0  0  0  0  0  0  0  0  0  0
    2.5418    0.9533   -0.3592 C   0  0  0  0  0  0  0  0  0  0  0  0
    3.6711    0.9587    0.0810 O   0  0  0  0  0  0  0  0  0  0  0  0
   -2.8439   -1.1825    0.1641 H   0  0  0  0  0  0  0  0  0  0  0  0
   -3.1957    0.1781    1.3734 H   0  0  0  0  0  0  0  0  0  0  0  0
   -4.0536    0.0894   -0.2737 H   0  0  0  0  0  0  0  0  0  0  0  0
   -2.0274    0.5140   -1.4596 H   0  0  0  0  0  0  0  0  0  0  0  0
   -2.3312    1.7657   -0.2403 H   0  0  0  0  0  0  0  0  0  0  0  0
    1.4898    0.2052    1.2798 H   0  0  0  0  0  0  0  0  0  0  0  0
    2.7948   -1.7233    0.9653 H   0  0  0  0  0  0  0  0  0  0  0  0
    1.3208   -2.1811    0.0237 H   0  0  0  0  0  0  0  0  0  0  0  0
    2.7362   -1.5782   -0.8710 H   0  0  0  0  0  0  0  0  0  0  0  0
    2.2501    1.6676   -1.1161 H   0  0  0  0  0  0  0  0  0  0  0  0
  1  2  1  0
  2  3  1  0
  3  4  2  0
  3  5  1  0
  5  6  1  0
  6  7  1  0
  6  8  1  0
  8  9  2  0
  1 10  1  0
  1 11  1  0
  1 12  1  0
  2 13  1  0
  2 14  1  0
  6 15  1  0
  7 16  1  0
  7 17  1  0
  7 18  1  0
  8 19  1  0
M  END
