
     RDKit          3D

 17 17  0  0  0  0  0  0  0  0999 V2000
   -1.9639    0.3914    0.3614 C   0  0  0  0  0  0  0  0  0  0  0  0
   -1.0191   -0.7918    0.1666 C   0  0  0  0  0  0  0  0  0  0  0  0
    0.1791   -0.3835   -0.6830 C   0  0  0  0  0  0  0  0  0  0  0  0
    0.9788   -1.5061   -0.8096 O   0  0  0  0  0  0  0  0  0  0  0  0
    0.8926    0.7826   -0.0671 C   0  0  0  0  0  0  0  0  0  0  0  0
    2.2639    0.7805    0.2712 C   0  0  0  0  0  0  0  0  0  0  0  0
    1.3561    0.3897    1.2902 O   0  0  0  0  0  0  0  0  0  0  0  0
   -1.4658    1.1613    0.9719 H   0  0  0  0  0  0  0  0  0  0  0  0
   -2.8646   -0.0437    0.8804 H   0  0  0  0  0  0  0  0  0  0  0  0
   -2.3463    0.7745   -0.6096 H   0  0  0  0  0  0  0  0  0  0  0  0
   -1.5817   -1.5793   -0.3640 H   0  0  0  0  0  0  0  0  0  0  0  0
   -0.6987   -1.0971    1.1894 H   0  0  0  0  0  0  0  0  0  0  0  0
   -0.2177   -0.1056   -1.6816 H   0  0  0  0  0  0  0  0  0  0  0  0
    0.4710   -2.1951   -1.2957 H   0  0  0  0  0  0  0  0  0  0  0  0
    0.2908    1.7131   -0.0414 H   0  0  0  0  0  0  0  0  0  0  0  0
    2.9452   -0.0102   -0.1177 H   0  0  0  0  0  0  0  0  0  0  0  0
    2.7804    1.7194    0.5385 H   0  0  0  0  0  0  0  0  0  0  0  0
  1  2  1  0
  2  3  1  0
  3  4  1  0
  3  5  1  0
  5  6  1  0
  6  7  1  0
  7  5  1  0
  1  8  1  0
  1  9  1  0
  1 10  1  0
  2 11  1  0
  2 12  1  0
  3 13  1  0
  4 14  1  0
  5 15  1  0
  6 16  1  0
  6 17  1  0
M  END
