
     RDKit          3D

 27 26  0  0  0  0  0  0  0  0999 V2000
    2.1187    0.6228    1.1463 C   0  0  0  0  0  0  0  0  0  0  0  0
    1.6028    0.5719   -0.2284 C   0  0  0  0  0  0  0  0  0  0  0  0
    0.4301   -0.2834   -0.5231 C   0  0  0  0  0  0  0  0  0  0  0  0
    0.7256   -1.7348   -0.1963 C   0  0  0  0  0  0  0  0  0  0  0  0
    0.2802   -0.2965   -1.9373 O   0  0  0  0  0  0  0  0  0  0  0  0
   -0.8879    0.1321   -0.0176 C   0  0  0  0  0  0  0  0  0  0  0  0
   -1.0156    0.2680    1.4701 C   0  0  0  0  0  0  0  0  0  0  0  0
   -1.8714   -0.9732   -0.4283 C   0  0  0  0  0  0  0  0  0  0  0  0
   -1.3676    1.3576   -0.7592 C   0  0  0  0  0  0  0  0  0  0  0  0
    3.2006    0.9344    1.1091 H   0  0  0  0  0  0  0  0  0  0  0  0
    1.6214    1.4728    1.6969 H   0  0  0  0  0  0  0  0  0  0  0  0
    2.1090   -0.3036    1.7189 H   0  0  0  0  0  0  0  0  0  0  0  0
    2.4408    0.2241   -0.9052 H   0  0  0  0  0  0  0  0  0  0  0  0
    1.4186    1.6220   -0.5592 H   0  0  0  0  0  0  0  0  0  0  0  0
    0.2325   -2.4318   -0.8992 H   0  0  0  0  0  0  0  0  0  0  0  0
    1.8288   -1.8629   -0.3756 H   0  0  0  0  0  0  0  0  0  0  0  0
    0.5176   -1.9910    0.8516 H   0  0  0  0  0  0  0  0  0  0  0  0
    0.8549    0.3464   -2.3743 H   0  0  0  0  0  0  0  0  0  0  0  0
   -0.2778   -0.3220    2.0361 H   0  0  0  0  0  0  0  0  0  0  0  0
   -0.9489    1.3662    1.7249 H   0  0  0  0  0  0  0  0  0  0  0  0
   -2.0105   -0.0389    1.8611 H   0  0  0  0  0  0  0  0  0  0  0  0
   -1.5815   -1.9398    0.0097 H   0  0  0  0  0  0  0  0  0  0  0  0
   -2.8389   -0.6838    0.0455 H   0  0  0  0  0  0  0  0  0  0  0  0
   -2.0179   -0.9960   -1.5130 H   0  0  0  0  0  0  0  0  0  0  0  0
   -0.9122    1.3309   -1.7824 H   0  0  0  0  0  0  0  0  0  0  0  0
   -1.1739    2.2902   -0.2292 H   0  0  0  0  0  0  0  0  0  0  0  0
   -2.4776    1.3184   -0.9418 H   0  0  0  0  0  0  0  0  0  0  0  0
  1  2  1  0
  2  3  1  0
  3  4  1  0
  3  5  1  0
  3  6  1  0
  6  7  1  0
  6  8  1  0
  6  9  1  0
  1 10  1  0
  1 11  1  0
  1 12  1  0
  2 13  1  0
  2 14  1  0
  4 15  1  0
  4 16  1  0
  4 17  1  0
  5 18  1  0
  7 19  1  0
  7 20  1  0
  7 21  1  0
  8 22  1  0
  8 23  1  0
  8 24  1  0
  9 25  1  0
  9 26  1  0
  9 27  1  0
M  END
