
     RDKit          3D

 27 26  0  0  0  0  0  0  0  0999 V2000
    2.5812    1.1257    0.3662 C   0  0  0  0  0  0  0  0  0  0  0  0
    1.2431    0.7897   -0.3279 C   0  0  0  0  0  0  0  0  0  0  0  0
    0.6354   -0.4329    0.2620 C   0  0  0  0  0  0  0  0  0  0  0  0
    1.6932   -1.5467    0.0368 C   0  0  0  0  0  0  0  0  0  0  0  0
    0.6031   -0.2687    1.6444 O   0  0  0  0  0  0  0  0  0  0  0  0
   -0.5877   -0.9772   -0.3224 C   0  0  0  0  0  0  0  0  0  0  0  0
   -1.8317   -0.2363   -0.4088 C   0  0  0  0  0  0  0  0  0  0  0  0
   -1.7418    1.0310   -1.2247 C   0  0  0  0  0  0  0  0  0  0  0  0
   -2.5054    0.1250    0.8854 C   0  0  0  0  0  0  0  0  0  0  0  0
    2.8195    2.1801    0.1731 H   0  0  0  0  0  0  0  0  0  0  0  0
    3.3663    0.4163    0.0335 H   0  0  0  0  0  0  0  0  0  0  0  0
    2.4866    1.0016    1.4619 H   0  0  0  0  0  0  0  0  0  0  0  0
    0.5889    1.7043   -0.2520 H   0  0  0  0  0  0  0  0  0  0  0  0
    1.5096    0.7221   -1.4024 H   0  0  0  0  0  0  0  0  0  0  0  0
    2.5200   -1.3833    0.7609 H   0  0  0  0  0  0  0  0  0  0  0  0
    1.2179   -2.5240    0.1386 H   0  0  0  0  0  0  0  0  0  0  0  0
    2.1013   -1.3779   -0.9788 H   0  0  0  0  0  0  0  0  0  0  0  0
    0.4508   -1.1209    2.1307 H   0  0  0  0  0  0  0  0  0  0  0  0
   -0.7728   -1.9700    0.2003 H   0  0  0  0  0  0  0  0  0  0  0  0
   -0.3257   -1.3312   -1.3696 H   0  0  0  0  0  0  0  0  0  0  0  0
   -2.5883   -0.8816   -0.9536 H   0  0  0  0  0  0  0  0  0  0  0  0
   -1.7378    1.9547   -0.5887 H   0  0  0  0  0  0  0  0  0  0  0  0
   -2.6649    1.1707   -1.8607 H   0  0  0  0  0  0  0  0  0  0  0  0
   -0.9192    1.0436   -1.9493 H   0  0  0  0  0  0  0  0  0  0  0  0
   -3.5680    0.3567    0.6558 H   0  0  0  0  0  0  0  0  0  0  0  0
   -2.0711    1.0936    1.2528 H   0  0  0  0  0  0  0  0  0  0  0  0
   -2.5025   -0.6644    1.6366 H   0  0  0  0  0  0  0  0  0  0  0  0
  1  2  1  0
  2  3  1  0
  3  4  1  0
  3  5  1  0
  3  6  1  0
  6  7  1  0
  7  8  1  0
  7  9  1  0
  1 10  1  0
  1 11  1  0
  1 12  1  0
  2 13  1  0
  2 14  1  0
  4 15  1  0
  4 16  1  0
  4 17  1  0
  5 18  1  0
  6 19  1  0
  6 20  1  0
  7 21  1  0
  8 22  1  0
  8 23  1  0
  8 24  1  0
  9 25  1  0
  9 26  1  0
  9 27  1  0
M  END
