
     RDKit          3D

 14 13  0  0  0  0  0  0  0  0999 V2000
   -1.3204   -0.9539   -0.2497 C   0  0  0  0  0  0  0  0  0  0  0  0
   -0.7687    0.1357    0.6320 C   0  0  0  0  0  0  0  0  0  0  0  0
    0.4657    0.7030   -0.0626 C   0  0  0  0  0  0  0  0  0  0  0  0
    1.0259    1.7235    0.7076 O   0  0  0  0  0  0  0  0  0  0  0  0
    1.4531   -0.3914   -0.3007 C   0  0  0  0  0  0  0  0  0  0  0  0
    1.1801   -1.3793   -0.9563 O   0  0  0  0  0  0  0  0  0  0  0  0
   -1.0333   -0.7172   -1.2913 H   0  0  0  0  0  0  0  0  0  0  0  0
   -2.4232   -1.0355   -0.1850 H   0  0  0  0  0  0  0  0  0  0  0  0
   -0.8322   -1.9083    0.0915 H   0  0  0  0  0  0  0  0  0  0  0  0
   -1.4950    0.9698    0.7745 H   0  0  0  0  0  0  0  0  0  0  0  0
   -0.4900   -0.2865    1.6188 H   0  0  0  0  0  0  0  0  0  0  0  0
    0.2084    1.1368   -1.0469 H   0  0  0  0  0  0  0  0  0  0  0  0
    1.5763    2.3301    0.1544 H   0  0  0  0  0  0  0  0  0  0  0  0
    2.4532   -0.3268    0.1137 H   0  0  0  0  0  0  0  0  0  0  0  0
  1  2  1  0
  2  3  1  0
  3  4  1  0
  3  5  1  0
  5  6  2  0
  1  7  1  0
  1  8  1  0
  1  9  1  0
  2 10  1  0
  2 11  1  0
  3 12  1  0
  4 13  1  0
  5 14  1  0
M  END
