
     RDKit          3D

 21 20  0  0  0  0  0  0  0  0999 V2000
   -1.7718   -1.4169    0.5097 C   0  0  0  0  0  0  0  0  0  0  0  0
   -1.1393   -0.1666    1.0737 C   0  0  0  0  0  0  0  0  0  0  0  0
   -0.1965    0.4845    0.0828 C   0  0  0  0  0  0  0  0  0  0  0  0
   -0.9346    0.8783   -1.1909 C   0  0  0  0  0  0  0  0  0  0  0  0
   -1.9777    1.7524   -0.9228 O   0  0  0  0  0  0  0  0  0  0  0  0
    0.8148   -0.3830   -0.3080 O   0  0  0  0  0  0  0  0  0  0  0  0
    2.0473    0.1627    0.0260 C   0  0  0  0  0  0  0  0  0  0  0  0
    3.1541   -0.7474   -0.3817 C   0  0  0  0  0  0  0  0  0  0  0  0
    2.9029   -1.7956   -0.9232 O   0  0  0  0  0  0  0  0  0  0  0  0
   -1.7047   -2.2532    1.2385 H   0  0  0  0  0  0  0  0  0  0  0  0
   -1.2003   -1.6878   -0.4280 H   0  0  0  0  0  0  0  0  0  0  0  0
   -2.8332   -1.2284    0.2454 H   0  0  0  0  0  0  0  0  0  0  0  0
   -0.5991   -0.4385    1.9914 H   0  0  0  0  0  0  0  0  0  0  0  0
   -1.9507    0.5520    1.3101 H   0  0  0  0  0  0  0  0  0  0  0  0
    0.2419    1.3738    0.5530 H   0  0  0  0  0  0  0  0  0  0  0  0
   -0.2016    1.4482   -1.8146 H   0  0  0  0  0  0  0  0  0  0  0  0
   -1.2620   -0.0527   -1.6759 H   0  0  0  0  0  0  0  0  0  0  0  0
   -1.9367    2.5826   -1.4554 H   0  0  0  0  0  0  0  0  0  0  0  0
    2.1294    0.2789    1.1310 H   0  0  0  0  0  0  0  0  0  0  0  0
    2.2342    1.1268   -0.5028 H   0  0  0  0  0  0  0  0  0  0  0  0
    4.1836   -0.4701   -0.1929 H   0  0  0  0  0  0  0  0  0  0  0  0
  1  2  1  0
  2  3  1  0
  3  4  1  0
  4  5  1  0
  3  6  1  0
  6  7  1  0
  7  8  1  0
  8  9  2  0
  1 10  1  0
  1 11  1  0
  1 12  1  0
  2 13  1  0
  2 14  1  0
  3 15  1  0
  4 16  1  0
  4 17  1  0
  5 18  1  0
  7 19  1  0
  7 20  1  0
  8 21  1  0
M  END
