
     RDKit          3D

 25 24  0  0  0  0  0  0  0  0999 V2000
   -3.2475    1.0811   -0.5071 C   0  0  0  0  0  0  0  0  0  0  0  0
   -2.4489   -0.2186   -0.5440 C   0  0  0  0  0  0  0  0  0  0  0  0
   -1.0236    0.1569   -0.1726 C   0  0  0  0  0  0  0  0  0  0  0  0
   -1.1052    0.7161    1.1207 O   0  0  0  0  0  0  0  0  0  0  0  0
   -0.1604   -1.0806   -0.0808 C   0  0  0  0  0  0  0  0  0  0  0  0
    1.2520   -0.7646    0.2854 C   0  0  0  0  0  0  0  0  0  0  0  0
    1.3218   -0.1244    1.5170 O   0  0  0  0  0  0  0  0  0  0  0  0
    1.9323    0.0152   -0.7926 C   0  0  0  0  0  0  0  0  0  0  0  0
    3.3696    0.3518   -0.4574 C   0  0  0  0  0  0  0  0  0  0  0  0
   -3.0402    1.6125    0.4638 H   0  0  0  0  0  0  0  0  0  0  0  0
   -4.3303    0.9016   -0.5361 H   0  0  0  0  0  0  0  0  0  0  0  0
   -2.8911    1.7302   -1.3434 H   0  0  0  0  0  0  0  0  0  0  0  0
   -2.5209   -0.5927   -1.5840 H   0  0  0  0  0  0  0  0  0  0  0  0
   -2.8830   -0.9388    0.1553 H   0  0  0  0  0  0  0  0  0  0  0  0
   -0.6265    0.8569   -0.9102 H   0  0  0  0  0  0  0  0  0  0  0  0
   -1.4162   -0.0544    1.6956 H   0  0  0  0  0  0  0  0  0  0  0  0
   -0.1743   -1.5382   -1.1043 H   0  0  0  0  0  0  0  0  0  0  0  0
   -0.5868   -1.8366    0.6049 H   0  0  0  0  0  0  0  0  0  0  0  0
    1.7720   -1.7571    0.4493 H   0  0  0  0  0  0  0  0  0  0  0  0
    2.2189   -0.1869    1.9090 H   0  0  0  0  0  0  0  0  0  0  0  0
    1.3834    0.9400   -1.0054 H   0  0  0  0  0  0  0  0  0  0  0  0
    1.9670   -0.6253   -1.7029 H   0  0  0  0  0  0  0  0  0  0  0  0
    3.7790    0.8798   -1.3675 H   0  0  0  0  0  0  0  0  0  0  0  0
    3.4786    1.0476    0.3743 H   0  0  0  0  0  0  0  0  0  0  0  0
    3.9800   -0.5713   -0.3649 H   0  0  0  0  0  0  0  0  0  0  0  0
  1  2  1  0
  2  3  1  0
  3  4  1  0
  3  5  1  0
  5  6  1  0
  6  7  1  0
  6  8  1  0
  8  9  1  0
  1 10  1  0
  1 11  1  0
  1 12  1  0
  2 13  1  0
  2 14  1  0
  3 15  1  0
  4 16  1  0
  5 17  1  0
  5 18  1  0
  6 19  1  0
  7 20  1  0
  8 21  1  0
  8 22  1  0
  9 23  1  0
  9 24  1  0
  9 25  1  0
M  END
