
     RDKit          3D

 20 19  0  0  0  0  0  0  0  0999 V2000
   -2.0380   -1.2365   -0.1086 C   0  0  0  0  0  0  0  0  0  0  0  0
   -1.6989    0.2328   -0.1583 C   0  0  0  0  0  0  0  0  0  0  0  0
   -0.3267    0.4184    0.4212 C   0  0  0  0  0  0  0  0  0  0  0  0
    0.1121    1.8660    0.4183 C   0  0  0  0  0  0  0  0  0  0  0  0
    0.7352   -0.3754   -0.2971 C   0  0  0  0  0  0  0  0  0  0  0  0
    1.9692   -0.0943    0.3663 O   0  0  0  0  0  0  0  0  0  0  0  0
    3.1328   -0.7020   -0.0945 C   0  0  0  0  0  0  0  0  0  0  0  0
    3.0454   -1.4792   -1.0840 O   0  0  0  0  0  0  0  0  0  0  0  0
   -1.4253   -1.8617   -0.7520 H   0  0  0  0  0  0  0  0  0  0  0  0
   -3.1092   -1.3741   -0.4388 H   0  0  0  0  0  0  0  0  0  0  0  0
   -2.0358   -1.5750    0.9572 H   0  0  0  0  0  0  0  0  0  0  0  0
   -1.7725    0.5954   -1.1970 H   0  0  0  0  0  0  0  0  0  0  0  0
   -2.4136    0.7760    0.4621 H   0  0  0  0  0  0  0  0  0  0  0  0
   -0.3535    0.0400    1.4739 H   0  0  0  0  0  0  0  0  0  0  0  0
   -0.6440    2.5020   -0.1044 H   0  0  0  0  0  0  0  0  0  0  0  0
    0.2630    2.2202    1.4636 H   0  0  0  0  0  0  0  0  0  0  0  0
    1.0863    2.0105   -0.0972 H   0  0  0  0  0  0  0  0  0  0  0  0
    0.8434    0.0145   -1.3333 H   0  0  0  0  0  0  0  0  0  0  0  0
    0.5328   -1.4442   -0.3609 H   0  0  0  0  0  0  0  0  0  0  0  0
    4.0973   -0.5335    0.3601 H   0  0  0  0  0  0  0  0  0  0  0  0
  1  2  1  0
  2  3  1  0
  3  4  1  0
  3  5  1  0
  5  6  1  0
  6  7  1  0
  7  8  2  0
  1  9  1  0
  1 10  1  0
  1 11  1  0
  2 12  1  0
  2 13  1  0
  3 14  1  0
  4 15  1  0
  4 16  1  0
  4 17  1  0
  5 18  1  0
  5 19  1  0
  7 20  1  0
M  END
