
     RDKit          3D

 23 22  0  0  0  0  0  0  0  0999 V2000
   -0.9066   -2.0214    0.3259 C   0  0  0  0  0  0  0  0  0  0  0  0
    0.1134   -0.9662    0.6772 C   0  0  0  0  0  0  0  0  0  0  0  0
    0.2108   -0.0146   -0.4835 C   0  0  0  0  0  0  0  0  0  0  0  0
    1.2015    1.0896   -0.2540 C   0  0  0  0  0  0  0  0  0  0  0  0
    2.5637    0.4399   -0.0337 C   0  0  0  0  0  0  0  0  0  0  0  0
   -1.1663    0.4875   -0.8120 C   0  0  0  0  0  0  0  0  0  0  0  0
   -1.8295    1.2128    0.3151 C   0  0  0  0  0  0  0  0  0  0  0  0
   -0.9555   -2.2125   -0.7724 H   0  0  0  0  0  0  0  0  0  0  0  0
   -1.9101   -1.7608    0.6637 H   0  0  0  0  0  0  0  0  0  0  0  0
   -0.6221   -3.0185    0.7700 H   0  0  0  0  0  0  0  0  0  0  0  0
   -0.1781   -0.4468    1.6229 H   0  0  0  0  0  0  0  0  0  0  0  0
    1.0783   -1.4954    0.8320 H   0  0  0  0  0  0  0  0  0  0  0  0
    0.5636   -0.6030   -1.3568 H   0  0  0  0  0  0  0  0  0  0  0  0
    1.2802    1.6683   -1.1939 H   0  0  0  0  0  0  0  0  0  0  0  0
    1.0022    1.6982    0.6346 H   0  0  0  0  0  0  0  0  0  0  0  0
    2.6022    0.1430    1.0207 H   0  0  0  0  0  0  0  0  0  0  0  0
    3.3322    1.2390   -0.1658 H   0  0  0  0  0  0  0  0  0  0  0  0
    2.7344   -0.3950   -0.7382 H   0  0  0  0  0  0  0  0  0  0  0  0
   -1.7988   -0.3818   -1.0856 H   0  0  0  0  0  0  0  0  0  0  0  0
   -1.1517    1.1466   -1.7125 H   0  0  0  0  0  0  0  0  0  0  0  0
   -2.8821    1.4124    0.0047 H   0  0  0  0  0  0  0  0  0  0  0  0
   -1.8963    0.5742    1.2161 H   0  0  0  0  0  0  0  0  0  0  0  0
   -1.3853    2.2044    0.5257 H   0  0  0  0  0  0  0  0  0  0  0  0
  1  2  1  0
  2  3  1  0
  3  4  1  0
  4  5  1  0
  3  6  1  0
  6  7  1  0
  1  8  1  0
  1  9  1  0
  1 10  1  0
  2 11  1  0
  2 12  1  0
  3 13  1  0
  4 14  1  0
  4 15  1  0
  5 16  1  0
  5 17  1  0
  5 18  1  0
  6 19  1  0
  6 20  1  0
  7 21  1  0
  7 22  1  0
  7 23  1  0
M  END
