
     RDKit          3D

 23 23  0  0  0  0  0  0  0  0999 V2000
    2.6737   -0.4395    1.3046 C   0  0  0  0  0  0  0  0  0  0  0  0
    2.5154   -0.8637   -0.1400 C   0  0  0  0  0  0  0  0  0  0  0  0
    1.3967   -0.0293   -0.7283 C   0  0  0  0  0  0  0  0  0  0  0  0
    1.2183   -0.3904   -2.0628 O   0  0  0  0  0  0  0  0  0  0  0  0
    0.1369   -0.2179    0.0792 C   0  0  0  0  0  0  0  0  0  0  0  0
   -0.8748    0.5642   -0.4464 O   0  0  0  0  0  0  0  0  0  0  0  0
   -2.0674    0.4801    0.1991 C   0  0  0  0  0  0  0  0  0  0  0  0
   -3.3331    0.3148   -0.6269 C   0  0  0  0  0  0  0  0  0  0  0  0
   -3.0736    1.5451    0.2604 C   0  0  0  0  0  0  0  0  0  0  0  0
    2.3462    0.6161    1.4013 H   0  0  0  0  0  0  0  0  0  0  0  0
    2.1026   -1.0855    2.0049 H   0  0  0  0  0  0  0  0  0  0  0  0
    3.7612   -0.4507    1.5180 H   0  0  0  0  0  0  0  0  0  0  0  0
    3.4385   -0.7577   -0.7169 H   0  0  0  0  0  0  0  0  0  0  0  0
    2.1422   -1.9292   -0.1410 H   0  0  0  0  0  0  0  0  0  0  0  0
    1.7561    1.0367   -0.6889 H   0  0  0  0  0  0  0  0  0  0  0  0
    1.7490   -1.1991   -2.2647 H   0  0  0  0  0  0  0  0  0  0  0  0
    0.3810    0.0819    1.1237 H   0  0  0  0  0  0  0  0  0  0  0  0
   -0.1553   -1.2720   -0.0077 H   0  0  0  0  0  0  0  0  0  0  0  0
   -2.0591   -0.2218    1.0785 H   0  0  0  0  0  0  0  0  0  0  0  0
   -3.1914    0.4268   -1.7173 H   0  0  0  0  0  0  0  0  0  0  0  0
   -4.1401   -0.3316   -0.2765 H   0  0  0  0  0  0  0  0  0  0  0  0
   -3.7079    1.6454    1.1693 H   0  0  0  0  0  0  0  0  0  0  0  0
   -3.0151    2.4772   -0.3217 H   0  0  0  0  0  0  0  0  0  0  0  0
  1  2  1  0
  2  3  1  0
  3  4  1  0
  3  5  1  0
  5  6  1  0
  6  7  1  0
  7  8  1  0
  8  9  1  0
  9  7  1  0
  1 10  1  0
  1 11  1  0
  1 12  1  0
  2 13  1  0
  2 14  1  0
  3 15  1  0
  4 16  1  0
  5 17  1  0
  5 18  1  0
  7 19  1  0
  8 20  1  0
  8 21  1  0
  9 22  1  0
  9 23  1  0
M  END
