
     RDKit          3D

 21 21  0  0  0  0  0  0  0  0999 V2000
    3.2238    0.1886    0.4887 C   0  0  0  0  0  0  0  0  0  0  0  0
    2.0948    0.2685   -0.4876 C   0  0  0  0  0  0  0  0  0  0  0  0
    0.8646   -0.2850    0.1078 C   0  0  0  0  0  0  0  0  0  0  0  0
    0.8699   -0.7184    1.2338 O   0  0  0  0  0  0  0  0  0  0  0  0
   -0.3710   -0.2903   -0.7206 C   0  0  0  0  0  0  0  0  0  0  0  0
   -1.5513   -0.8719   -0.0192 C   0  0  0  0  0  0  0  0  0  0  0  0
   -2.0299   -0.2464    1.2388 C   0  0  0  0  0  0  0  0  0  0  0  0
   -2.8032    0.0082   -0.0585 C   0  0  0  0  0  0  0  0  0  0  0  0
   -2.6581    1.3125   -0.5557 O   0  0  0  0  0  0  0  0  0  0  0  0
    3.3749    1.2033    0.9383 H   0  0  0  0  0  0  0  0  0  0  0  0
    2.9975   -0.5523    1.2878 H   0  0  0  0  0  0  0  0  0  0  0  0
    4.1770   -0.0904   -0.0052 H   0  0  0  0  0  0  0  0  0  0  0  0
    1.9618    1.3291   -0.8217 H   0  0  0  0  0  0  0  0  0  0  0  0
    2.3775   -0.3003   -1.4015 H   0  0  0  0  0  0  0  0  0  0  0  0
   -0.5609    0.7582   -1.0289 H   0  0  0  0  0  0  0  0  0  0  0  0
   -0.2159   -0.8764   -1.6660 H   0  0  0  0  0  0  0  0  0  0  0  0
   -1.6848   -1.9682   -0.1605 H   0  0  0  0  0  0  0  0  0  0  0  0
   -2.6100   -0.8333    1.9737 H   0  0  0  0  0  0  0  0  0  0  0  0
   -1.4219    0.5843    1.6410 H   0  0  0  0  0  0  0  0  0  0  0  0
   -3.7441   -0.5320   -0.2186 H   0  0  0  0  0  0  0  0  0  0  0  0
   -2.2905    1.9124    0.1464 H   0  0  0  0  0  0  0  0  0  0  0  0
  1  2  1  0
  2  3  1  0
  3  4  2  0
  3  5  1  0
  5  6  1  0
  6  7  1  0
  7  8  1  0
  8  9  1  0
  8  6  1  0
  1 10  1  0
  1 11  1  0
  1 12  1  0
  2 13  1  0
  2 14  1  0
  5 15  1  0
  5 16  1  0
  6 17  1  0
  7 18  1  0
  7 19  1  0
  8 20  1  0
  9 21  1  0
M  END
