
     RDKit          3D

 25 25  0  0  0  0  0  0  0  0999 V2000
    3.1948   -0.7810    0.3822 C   0  0  0  0  0  0  0  0  0  0  0  0
    1.8211   -0.4066    0.8496 C   0  0  0  0  0  0  0  0  0  0  0  0
    0.9748    0.1835   -0.2857 C   0  0  0  0  0  0  0  0  0  0  0  0
    1.5865    1.4173   -0.8630 C   0  0  0  0  0  0  0  0  0  0  0  0
   -0.2357    0.5453    0.3101 O   0  0  0  0  0  0  0  0  0  0  0  0
   -1.2796   -0.1957   -0.2289 C   0  0  0  0  0  0  0  0  0  0  0  0
   -2.1692   -0.8655    0.7855 C   0  0  0  0  0  0  0  0  0  0  0  0
   -3.3556   -0.1827    0.1066 C   0  0  0  0  0  0  0  0  0  0  0  0
   -2.4061    0.7358   -0.6260 C   0  0  0  0  0  0  0  0  0  0  0  0
    3.8684   -0.7239    1.2755 H   0  0  0  0  0  0  0  0  0  0  0  0
    3.6022   -0.1288   -0.4009 H   0  0  0  0  0  0  0  0  0  0  0  0
    3.1800   -1.8532    0.0832 H   0  0  0  0  0  0  0  0  0  0  0  0
    1.8238    0.3511    1.6516 H   0  0  0  0  0  0  0  0  0  0  0  0
    1.2529   -1.2910    1.2068 H   0  0  0  0  0  0  0  0  0  0  0  0
    0.7735   -0.6109   -1.0412 H   0  0  0  0  0  0  0  0  0  0  0  0
    2.5884    1.6417   -0.4246 H   0  0  0  0  0  0  0  0  0  0  0  0
    0.9686    2.3397   -0.6932 H   0  0  0  0  0  0  0  0  0  0  0  0
    1.6389    1.3106   -1.9793 H   0  0  0  0  0  0  0  0  0  0  0  0
   -0.9705   -0.9134   -1.0063 H   0  0  0  0  0  0  0  0  0  0  0  0
   -2.2051   -1.9641    0.7582 H   0  0  0  0  0  0  0  0  0  0  0  0
   -1.9646   -0.4866    1.8117 H   0  0  0  0  0  0  0  0  0  0  0  0
   -3.8466   -0.8730   -0.5931 H   0  0  0  0  0  0  0  0  0  0  0  0
   -3.9897    0.2715    0.8687 H   0  0  0  0  0  0  0  0  0  0  0  0
   -2.3421    1.7582   -0.2164 H   0  0  0  0  0  0  0  0  0  0  0  0
   -2.5092    0.7217   -1.7312 H   0  0  0  0  0  0  0  0  0  0  0  0
  1  2  1  0
  2  3  1  0
  3  4  1  0
  3  5  1  0
  5  6  1  0
  6  7  1  0
  7  8  1  0
  8  9  1  0
  9  6  1  0
  1 10  1  0
  1 11  1  0
  1 12  1  0
  2 13  1  0
  2 14  1  0
  3 15  1  0
  4 16  1  0
  4 17  1  0
  4 18  1  0
  6 19  1  0
  7 20  1  0
  7 21  1  0
  8 22  1  0
  8 23  1  0
  9 24  1  0
  9 25  1  0
M  END
