
     RDKit          3D

 21 20  0  0  0  0  0  0  0  0999 V2000
   -2.2885   -0.6674   -0.9959 C   0  0  0  0  0  0  0  0  0  0  0  0
   -1.6498   -0.3949    0.3158 C   0  0  0  0  0  0  0  0  0  0  0  0
   -1.2423    1.0337    0.5608 C   0  0  0  0  0  0  0  0  0  0  0  0
   -0.6577    1.1141    1.8238 O   0  0  0  0  0  0  0  0  0  0  0  0
   -0.2474    1.5571   -0.4493 C   0  0  0  0  0  0  0  0  0  0  0  0
    0.9354    0.7582   -0.4026 C   0  0  0  0  0  0  0  0  0  0  0  0
    1.9888    0.0719   -0.3557 C   0  0  0  0  0  0  0  0  0  0  0  0
    3.1895   -0.7370   -0.2931 C   0  0  0  0  0  0  0  0  0  0  0  0
    3.9799   -0.2763    0.7636 O   0  0  0  0  0  0  0  0  0  0  0  0
   -3.3866   -0.5234   -0.9016 H   0  0  0  0  0  0  0  0  0  0  0  0
   -1.9569    0.0079   -1.8097 H   0  0  0  0  0  0  0  0  0  0  0  0
   -2.1183   -1.7103   -1.3610 H   0  0  0  0  0  0  0  0  0  0  0  0
   -0.7267   -1.0095    0.3968 H   0  0  0  0  0  0  0  0  0  0  0  0
   -2.3083   -0.7137    1.1703 H   0  0  0  0  0  0  0  0  0  0  0  0
   -2.1529    1.6659    0.5757 H   0  0  0  0  0  0  0  0  0  0  0  0
   -1.3255    1.4965    2.4373 H   0  0  0  0  0  0  0  0  0  0  0  0
   -0.0050    2.6060   -0.1021 H   0  0  0  0  0  0  0  0  0  0  0  0
   -0.6740    1.6876   -1.4457 H   0  0  0  0  0  0  0  0  0  0  0  0
    2.8864   -1.8001   -0.1694 H   0  0  0  0  0  0  0  0  0  0  0  0
    3.8238   -0.6069   -1.2151 H   0  0  0  0  0  0  0  0  0  0  0  0
    3.9361   -1.0022    1.4569 H   0  0  0  0  0  0  0  0  0  0  0  0
  1  2  1  0
  2  3  1  0
  3  4  1  0
  3  5  1  0
  5  6  1  0
  6  7  3  0
  7  8  1  0
  8  9  1  0
  1 10  1  0
  1 11  1  0
  1 12  1  0
  2 13  1  0
  2 14  1  0
  3 15  1  0
  4 16  1  0
  5 17  1  0
  5 18  1  0
  8 19  1  0
  8 20  1  0
  9 21  1  0
M  END
