
     RDKit          3D

 29 28  0  0  0  0  0  0  0  0999 V2000
    2.6482    1.0387   -0.5242 C   0  0  0  0  0  0  0  0  0  0  0  0
    2.2454   -0.4036   -0.4780 C   0  0  0  0  0  0  0  0  0  0  0  0
    1.2509   -0.6293    0.6006 C   0  0  0  0  0  0  0  0  0  0  0  0
    0.8765   -2.0886    0.6195 C   0  0  0  0  0  0  0  0  0  0  0  0
    0.0810    0.2904    0.6113 C   0  0  0  0  0  0  0  0  0  0  0  0
   -0.7992    0.3201   -0.5683 C   0  0  0  0  0  0  0  0  0  0  0  0
   -1.4754   -0.9508   -0.9403 C   0  0  0  0  0  0  0  0  0  0  0  0
   -1.8428    1.4026   -0.3451 C   0  0  0  0  0  0  0  0  0  0  0  0
   -2.6712    1.1266    0.8897 C   0  0  0  0  0  0  0  0  0  0  0  0
    3.1162    1.2992    0.4551 H   0  0  0  0  0  0  0  0  0  0  0  0
    1.7968    1.6841   -0.7261 H   0  0  0  0  0  0  0  0  0  0  0  0
    3.4621    1.1849   -1.2787 H   0  0  0  0  0  0  0  0  0  0  0  0
    3.1767   -0.9787   -0.1905 H   0  0  0  0  0  0  0  0  0  0  0  0
    1.9606   -0.8124   -1.4639 H   0  0  0  0  0  0  0  0  0  0  0  0
    1.7937   -0.4466    1.5745 H   0  0  0  0  0  0  0  0  0  0  0  0
    1.4779   -2.6567    1.3914 H   0  0  0  0  0  0  0  0  0  0  0  0
   -0.1747   -2.2719    0.9067 H   0  0  0  0  0  0  0  0  0  0  0  0
    1.1677   -2.5542   -0.3396 H   0  0  0  0  0  0  0  0  0  0  0  0
   -0.4902    0.0680    1.5579 H   0  0  0  0  0  0  0  0  0  0  0  0
    0.4697    1.3258    0.7762 H   0  0  0  0  0  0  0  0  0  0  0  0
   -0.2217    0.6499   -1.4623 H   0  0  0  0  0  0  0  0  0  0  0  0
   -2.1303   -1.3702   -0.1397 H   0  0  0  0  0  0  0  0  0  0  0  0
   -2.2021   -0.6936   -1.7686 H   0  0  0  0  0  0  0  0  0  0  0  0
   -0.8502   -1.7415   -1.3337 H   0  0  0  0  0  0  0  0  0  0  0  0
   -2.5440    1.4896   -1.2000 H   0  0  0  0  0  0  0  0  0  0  0  0
   -1.3795    2.3925   -0.2068 H   0  0  0  0  0  0  0  0  0  0  0  0
   -3.4776    1.9041    0.8982 H   0  0  0  0  0  0  0  0  0  0  0  0
   -2.1011    1.2900    1.8298 H   0  0  0  0  0  0  0  0  0  0  0  0
   -3.1634    0.1318    0.8549 H   0  0  0  0  0  0  0  0  0  0  0  0
  1  2  1  0
  2  3  1  0
  3  4  1  0
  3  5  1  0
  5  6  1  0
  6  7  1  0
  6  8  1  0
  8  9  1  0
  1 10  1  0
  1 11  1  0
  1 12  1  0
  2 13  1  0
  2 14  1  0
  3 15  1  0
  4 16  1  0
  4 17  1  0
  4 18  1  0
  5 19  1  0
  5 20  1  0
  6 21  1  0
  7 22  1  0
  7 23  1  0
  7 24  1  0
  8 25  1  0
  8 26  1  0
  9 27  1  0
  9 28  1  0
  9 29  1  0
M  END
