
     RDKit          3D

 25 24  0  0  0  0  0  0  0  0999 V2000
    2.2574    0.2486   -1.0771 C   0  0  0  0  0  0  0  0  0  0  0  0
    1.5396    0.9484    0.0281 C   0  0  0  0  0  0  0  0  0  0  0  0
    0.6184    0.0984    0.8240 C   0  0  0  0  0  0  0  0  0  0  0  0
    1.3127   -1.0603    1.5065 C   0  0  0  0  0  0  0  0  0  0  0  0
   -0.5944   -0.3706    0.0464 C   0  0  0  0  0  0  0  0  0  0  0  0
   -1.4740   -1.2169    0.8998 C   0  0  0  0  0  0  0  0  0  0  0  0
   -1.9292   -0.8010    1.9693 O   0  0  0  0  0  0  0  0  0  0  0  0
   -1.3733    0.8401   -0.4834 C   0  0  0  0  0  0  0  0  0  0  0  0
   -2.5894    0.3852   -1.2612 C   0  0  0  0  0  0  0  0  0  0  0  0
    3.2075    0.8160   -1.2682 H   0  0  0  0  0  0  0  0  0  0  0  0
    2.5807   -0.7803   -0.8143 H   0  0  0  0  0  0  0  0  0  0  0  0
    1.7142    0.2770   -2.0545 H   0  0  0  0  0  0  0  0  0  0  0  0
    2.3247    1.3292    0.7424 H   0  0  0  0  0  0  0  0  0  0  0  0
    1.0393    1.8336   -0.3553 H   0  0  0  0  0  0  0  0  0  0  0  0
    0.2138    0.7393    1.6541 H   0  0  0  0  0  0  0  0  0  0  0  0
    0.6489   -1.4201    2.3297 H   0  0  0  0  0  0  0  0  0  0  0  0
    2.2187   -0.6668    2.0015 H   0  0  0  0  0  0  0  0  0  0  0  0
    1.5347   -1.8756    0.7886 H   0  0  0  0  0  0  0  0  0  0  0  0
   -0.3184   -0.9599   -0.8297 H   0  0  0  0  0  0  0  0  0  0  0  0
   -1.7642   -2.2297    0.6420 H   0  0  0  0  0  0  0  0  0  0  0  0
   -0.7557    1.4113   -1.2064 H   0  0  0  0  0  0  0  0  0  0  0  0
   -1.6957    1.4885    0.3318 H   0  0  0  0  0  0  0  0  0  0  0  0
   -3.1070    1.3059   -1.6002 H   0  0  0  0  0  0  0  0  0  0  0  0
   -3.3097   -0.1719   -0.6358 H   0  0  0  0  0  0  0  0  0  0  0  0
   -2.2996   -0.1682   -2.1782 H   0  0  0  0  0  0  0  0  0  0  0  0
  1  2  1  0
  2  3  1  0
  3  4  1  0
  3  5  1  0
  5  6  1  0
  6  7  2  0
  5  8  1  0
  8  9  1  0
  1 10  1  0
  1 11  1  0
  1 12  1  0
  2 13  1  0
  2 14  1  0
  3 15  1  0
  4 16  1  0
  4 17  1  0
  4 18  1  0
  5 19  1  0
  6 20  1  0
  8 21  1  0
  8 22  1  0
  9 23  1  0
  9 24  1  0
  9 25  1  0
M  END
