
     RDKit          3D

 16 15  0  0  0  0  0  0  0  0999 V2000
    2.2974   -0.8780   -0.1458 C   0  0  0  0  0  0  0  0  0  0  0  0
    1.3762    0.2787   -0.3486 C   0  0  0  0  0  0  0  0  0  0  0  0
    0.0242    0.0475    0.2348 C   0  0  0  0  0  0  0  0  0  0  0  0
   -0.2581   -0.9730    0.8007 O   0  0  0  0  0  0  0  0  0  0  0  0
   -0.9904    1.1299    0.0990 C   0  0  0  0  0  0  0  0  0  0  0  0
   -2.2224    0.7582    0.7042 O   0  0  0  0  0  0  0  0  0  0  0  0
   -2.9339   -0.3541    0.2861 C   0  0  0  0  0  0  0  0  0  0  0  0
   -2.4572   -1.0309   -0.6498 O   0  0  0  0  0  0  0  0  0  0  0  0
    3.2592   -0.5795    0.3423 H   0  0  0  0  0  0  0  0  0  0  0  0
    1.8454   -1.7037    0.4452 H   0  0  0  0  0  0  0  0  0  0  0  0
    2.5598   -1.2882   -1.1522 H   0  0  0  0  0  0  0  0  0  0  0  0
    1.8577    1.1801    0.1239 H   0  0  0  0  0  0  0  0  0  0  0  0
    1.2819    0.5660   -1.4352 H   0  0  0  0  0  0  0  0  0  0  0  0
   -1.1864    1.4111   -0.9370 H   0  0  0  0  0  0  0  0  0  0  0  0
   -0.5889    2.0209    0.6225 H   0  0  0  0  0  0  0  0  0  0  0  0
   -3.8644   -0.5852    0.7857 H   0  0  0  0  0  0  0  0  0  0  0  0
  1  2  1  0
  2  3  1  0
  3  4  2  0
  3  5  1  0
  5  6  1  0
  6  7  1  0
  7  8  2  0
  1  9  1  0
  1 10  1  0
  1 11  1  0
  2 12  1  0
  2 13  1  0
  5 14  1  0
  5 15  1  0
  7 16  1  0
M  END
