
     RDKit          3D

 25 24  0  0  0  0  0  0  0  0999 V2000
   -2.0135    0.4524   -1.1341 C   0  0  0  0  0  0  0  0  0  0  0  0
   -1.1693   -0.7872   -0.9591 C   0  0  0  0  0  0  0  0  0  0  0  0
   -0.5811   -0.9217    0.3949 C   0  0  0  0  0  0  0  0  0  0  0  0
   -1.7230   -0.9922    1.4157 C   0  0  0  0  0  0  0  0  0  0  0  0
    0.4490    0.0586    0.7979 C   0  0  0  0  0  0  0  0  0  0  0  0
    1.6925    0.1456    0.0043 C   0  0  0  0  0  0  0  0  0  0  0  0
    2.5615    1.2355    0.6737 C   0  0  0  0  0  0  0  0  0  0  0  0
    1.5380    0.4330   -1.4293 C   0  0  0  0  0  0  0  0  0  0  0  0
    2.1613   -0.1544   -2.3059 O   0  0  0  0  0  0  0  0  0  0  0  0
   -2.9727    0.4052   -0.5780 H   0  0  0  0  0  0  0  0  0  0  0  0
   -2.2494    0.5189   -2.2281 H   0  0  0  0  0  0  0  0  0  0  0  0
   -1.4409    1.3647   -0.8976 H   0  0  0  0  0  0  0  0  0  0  0  0
   -0.4559   -0.8429   -1.7797 H   0  0  0  0  0  0  0  0  0  0  0  0
   -1.9049   -1.6516   -1.0579 H   0  0  0  0  0  0  0  0  0  0  0  0
   -0.1089   -1.9473    0.4445 H   0  0  0  0  0  0  0  0  0  0  0  0
   -1.5211   -1.7597    2.1917 H   0  0  0  0  0  0  0  0  0  0  0  0
   -2.6880   -1.1848    0.9221 H   0  0  0  0  0  0  0  0  0  0  0  0
   -1.7534    0.0038    1.9011 H   0  0  0  0  0  0  0  0  0  0  0  0
    0.7523   -0.2041    1.8559 H   0  0  0  0  0  0  0  0  0  0  0  0
    0.0076    1.0723    0.8974 H   0  0  0  0  0  0  0  0  0  0  0  0
    2.3078   -0.7944    0.0919 H   0  0  0  0  0  0  0  0  0  0  0  0
    2.2388    2.2189    0.3134 H   0  0  0  0  0  0  0  0  0  0  0  0
    2.4002    1.1132    1.7645 H   0  0  0  0  0  0  0  0  0  0  0  0
    3.6269    1.0191    0.4883 H   0  0  0  0  0  0  0  0  0  0  0  0
    0.8462    1.1993   -1.7876 H   0  0  0  0  0  0  0  0  0  0  0  0
  1  2  1  0
  2  3  1  0
  3  4  1  0
  3  5  1  0
  5  6  1  0
  6  7  1  0
  6  8  1  0
  8  9  2  0
  1 10  1  0
  1 11  1  0
  1 12  1  0
  2 13  1  0
  2 14  1  0
  3 15  1  0
  4 16  1  0
  4 17  1  0
  4 18  1  0
  5 19  1  0
  5 20  1  0
  6 21  1  0
  7 22  1  0
  7 23  1  0
  7 24  1  0
  8 25  1  0
M  END
