
     RDKit          3D

 25 24  0  0  0  0  0  0  0  0999 V2000
   -3.2141   -0.2031   -0.3238 C   0  0  0  0  0  0  0  0  0  0  0  0
   -1.7480    0.0447   -0.6825 C   0  0  0  0  0  0  0  0  0  0  0  0
   -0.9534   -0.1274    0.5673 C   0  0  0  0  0  0  0  0  0  0  0  0
   -1.1434   -1.4269    1.0331 O   0  0  0  0  0  0  0  0  0  0  0  0
    0.5017    0.1970    0.4280 C   0  0  0  0  0  0  0  0  0  0  0  0
    0.6859    1.6348    0.0036 C   0  0  0  0  0  0  0  0  0  0  0  0
    1.2328   -0.7268   -0.5176 C   0  0  0  0  0  0  0  0  0  0  0  0
    2.6904   -0.2712   -0.5520 C   0  0  0  0  0  0  0  0  0  0  0  0
    3.2590   -0.3385    0.7113 O   0  0  0  0  0  0  0  0  0  0  0  0
   -3.4324   -1.2701   -0.1976 H   0  0  0  0  0  0  0  0  0  0  0  0
   -3.4721    0.3014    0.6366 H   0  0  0  0  0  0  0  0  0  0  0  0
   -3.8890    0.2486   -1.0908 H   0  0  0  0  0  0  0  0  0  0  0  0
   -1.7013    1.0664   -1.1028 H   0  0  0  0  0  0  0  0  0  0  0  0
   -1.4920   -0.7214   -1.4430 H   0  0  0  0  0  0  0  0  0  0  0  0
   -1.3680    0.5464    1.3453 H   0  0  0  0  0  0  0  0  0  0  0  0
   -0.9604   -1.4086    2.0066 H   0  0  0  0  0  0  0  0  0  0  0  0
    0.9719    0.0859    1.4270 H   0  0  0  0  0  0  0  0  0  0  0  0
    0.9754    1.7307   -1.0671 H   0  0  0  0  0  0  0  0  0  0  0  0
   -0.2805    2.1617    0.1527 H   0  0  0  0  0  0  0  0  0  0  0  0
    1.4274    2.1614    0.6696 H   0  0  0  0  0  0  0  0  0  0  0  0
    1.2181   -1.7727   -0.1776 H   0  0  0  0  0  0  0  0  0  0  0  0
    0.8550   -0.6406   -1.5578 H   0  0  0  0  0  0  0  0  0  0  0  0
    3.2824   -0.8750   -1.2646 H   0  0  0  0  0  0  0  0  0  0  0  0
    2.7731    0.7842   -0.8846 H   0  0  0  0  0  0  0  0  0  0  0  0
    3.7816   -1.1809    0.7513 H   0  0  0  0  0  0  0  0  0  0  0  0
  1  2  1  0
  2  3  1  0
  3  4  1  0
  3  5  1  0
  5  6  1  0
  5  7  1  0
  7  8  1  0
  8  9  1  0
  1 10  1  0
  1 11  1  0
  1 12  1  0
  2 13  1  0
  2 14  1  0
  3 15  1  0
  4 16  1  0
  5 17  1  0
  6 18  1  0
  6 19  1  0
  6 20  1  0
  7 21  1  0
  7 22  1  0
  8 23  1  0
  8 24  1  0
  9 25  1  0
M  END
