
     RDKit          3D

 14 13  0  0  0  0  0  0  0  0999 V2000
   -2.3236   -0.7212    0.9860 C   0  0  0  0  0  0  0  0  0  0  0  0
   -0.8514   -0.4412    0.8691 C   0  0  0  0  0  0  0  0  0  0  0  0
   -0.5161   -0.0741   -0.5579 C   0  0  0  0  0  0  0  0  0  0  0  0
   -1.3760   -0.2058   -1.4279 O   0  0  0  0  0  0  0  0  0  0  0  0
    0.8294    0.4161   -0.8088 C   0  0  0  0  0  0  0  0  0  0  0  0
    1.9832    0.8296   -1.0024 C   0  0  0  0  0  0  0  0  0  0  0  0
    3.3046    1.2892   -1.2030 C   0  0  0  0  0  0  0  0  0  0  0  0
    4.1007    0.1918   -1.3582 O   0  0  0  0  0  0  0  0  0  0  0  0
   -2.6021   -1.6173    0.4028 H   0  0  0  0  0  0  0  0  0  0  0  0
   -2.6173   -0.8094    2.0668 H   0  0  0  0  0  0  0  0  0  0  0  0
   -2.9182    0.1250    0.5814 H   0  0  0  0  0  0  0  0  0  0  0  0
   -0.3460   -1.4323    1.1299 H   0  0  0  0  0  0  0  0  0  0  0  0
   -0.4547    0.2858    1.5842 H   0  0  0  0  0  0  0  0  0  0  0  0
    3.7874    2.1637   -1.2621 H   0  0  0  0  0  0  0  0  0  0  0  0
  1  2  1  0
  2  3  1  0
  3  4  2  0
  3  5  1  0
  5  6  3  0
  6  7  1  0
  7  8  2  0
  1  9  1  0
  1 10  1  0
  1 11  1  0
  2 12  1  0
  2 13  1  0
  7 14  1  0
M  END
