
     RDKit          3D

 23 22  0  0  0  0  0  0  0  0999 V2000
   -1.5353   -1.6564    0.2091 C   0  0  0  0  0  0  0  0  0  0  0  0
   -1.5969   -0.2110    0.6247 C   0  0  0  0  0  0  0  0  0  0  0  0
   -1.1335    0.6809   -0.5072 C   0  0  0  0  0  0  0  0  0  0  0  0
   -1.1782    2.1312   -0.1390 C   0  0  0  0  0  0  0  0  0  0  0  0
    0.2767    0.2745   -0.9584 C   0  0  0  0  0  0  0  0  0  0  0  0
    1.1127    0.4073    0.1080 O   0  0  0  0  0  0  0  0  0  0  0  0
    2.4249    0.1033   -0.0888 C   0  0  0  0  0  0  0  0  0  0  0  0
    2.7489   -1.2681   -0.4853 C   0  0  0  0  0  0  0  0  0  0  0  0
    1.9012   -2.1168   -0.6176 O   0  0  0  0  0  0  0  0  0  0  0  0
   -1.5553   -1.7389   -0.9005 H   0  0  0  0  0  0  0  0  0  0  0  0
   -0.5846   -2.0949    0.5518 H   0  0  0  0  0  0  0  0  0  0  0  0
   -2.3617   -2.2589    0.6271 H   0  0  0  0  0  0  0  0  0  0  0  0
   -0.9173   -0.0866    1.4986 H   0  0  0  0  0  0  0  0  0  0  0  0
   -2.6281    0.0522    0.9277 H   0  0  0  0  0  0  0  0  0  0  0  0
   -1.7917    0.5204   -1.3843 H   0  0  0  0  0  0  0  0  0  0  0  0
   -0.7833    2.3365    0.8760 H   0  0  0  0  0  0  0  0  0  0  0  0
   -2.2245    2.5063   -0.2016 H   0  0  0  0  0  0  0  0  0  0  0  0
   -0.5942    2.7119   -0.8835 H   0  0  0  0  0  0  0  0  0  0  0  0
    0.1877   -0.7653   -1.3179 H   0  0  0  0  0  0  0  0  0  0  0  0
    0.5935    0.8848   -1.8243 H   0  0  0  0  0  0  0  0  0  0  0  0
    2.9093    0.8384   -0.7954 H   0  0  0  0  0  0  0  0  0  0  0  0
    2.9503    0.2804    0.8957 H   0  0  0  0  0  0  0  0  0  0  0  0
    3.7794   -1.5311   -0.6657 H   0  0  0  0  0  0  0  0  0  0  0  0
  1  2  1  0
  2  3  1  0
  3  4  1  0
  3  5  1  0
  5  6  1  0
  6  7  1  0
  7  8  1  0
  8  9  2  0
  1 10  1  0
  1 11  1  0
  1 12  1  0
  2 13  1  0
  2 14  1  0
  3 15  1  0
  4 16  1  0
  4 17  1  0
  4 18  1  0
  5 19  1  0
  5 20  1  0
  7 21  1  0
  7 22  1  0
  8 23  1  0
M  END
