
     RDKit          3D

 23 22  0  0  0  0  0  0  0  0999 V2000
   -2.1855   -1.1525   -0.3521 C   0  0  0  0  0  0  0  0  0  0  0  0
   -1.6334   -0.2834    0.7499 C   0  0  0  0  0  0  0  0  0  0  0  0
   -0.5127    0.6141    0.2816 C   0  0  0  0  0  0  0  0  0  0  0  0
   -0.9586    1.5300   -0.8186 C   0  0  0  0  0  0  0  0  0  0  0  0
    0.6814   -0.2191   -0.0287 C   0  0  0  0  0  0  0  0  0  0  0  0
    1.0272   -0.8873    1.1690 O   0  0  0  0  0  0  0  0  0  0  0  0
    1.9004    0.6031   -0.3863 C   0  0  0  0  0  0  0  0  0  0  0  0
    3.0102   -0.3416   -0.6708 C   0  0  0  0  0  0  0  0  0  0  0  0
    3.6724   -0.8954    0.1848 O   0  0  0  0  0  0  0  0  0  0  0  0
   -2.4768   -2.1500    0.0921 H   0  0  0  0  0  0  0  0  0  0  0  0
   -3.1602   -0.7356   -0.7091 H   0  0  0  0  0  0  0  0  0  0  0  0
   -1.4502   -1.2567   -1.1489 H   0  0  0  0  0  0  0  0  0  0  0  0
   -2.4356    0.2877    1.2697 H   0  0  0  0  0  0  0  0  0  0  0  0
   -1.2462   -0.9878    1.5450 H   0  0  0  0  0  0  0  0  0  0  0  0
   -0.2420    1.2439    1.1943 H   0  0  0  0  0  0  0  0  0  0  0  0
   -0.5593    1.2439   -1.8126 H   0  0  0  0  0  0  0  0  0  0  0  0
   -0.5649    2.5528   -0.6108 H   0  0  0  0  0  0  0  0  0  0  0  0
   -2.0606    1.6394   -0.8854 H   0  0  0  0  0  0  0  0  0  0  0  0
    0.4931   -0.9860   -0.7879 H   0  0  0  0  0  0  0  0  0  0  0  0
    1.5501   -1.6984    0.9360 H   0  0  0  0  0  0  0  0  0  0  0  0
    1.7362    1.2546   -1.2630 H   0  0  0  0  0  0  0  0  0  0  0  0
    2.1630    1.1811    0.5307 H   0  0  0  0  0  0  0  0  0  0  0  0
    3.2520   -0.5568   -1.7166 H   0  0  0  0  0  0  0  0  0  0  0  0
  1  2  1  0
  2  3  1  0
  3  4  1  0
  3  5  1  0
  5  6  1  0
  5  7  1  0
  7  8  1  0
  8  9  2  0
  1 10  1  0
  1 11  1  0
  1 12  1  0
  2 13  1  0
  2 14  1  0
  3 15  1  0
  4 16  1  0
  4 17  1  0
  4 18  1  0
  5 19  1  0
  6 20  1  0
  7 21  1  0
  7 22  1  0
  8 23  1  0
M  END
