
     RDKit          3D

 27 26  0  0  0  0  0  0  0  0999 V2000
   -0.9636    2.1456    0.4844 C   0  0  0  0  0  0  0  0  0  0  0  0
   -0.3325    1.4402   -0.6477 C   0  0  0  0  0  0  0  0  0  0  0  0
    0.1963    0.0580   -0.3727 C   0  0  0  0  0  0  0  0  0  0  0  0
    0.7864   -0.3567   -1.7384 C   0  0  0  0  0  0  0  0  0  0  0  0
    1.3563    0.1593    0.5698 C   0  0  0  0  0  0  0  0  0  0  0  0
    1.9661   -1.1666    0.9160 C   0  0  0  0  0  0  0  0  0  0  0  0
   -0.8107   -0.9665   -0.0327 C   0  0  0  0  0  0  0  0  0  0  0  0
   -1.6603   -0.7759    1.1615 C   0  0  0  0  0  0  0  0  0  0  0  0
   -1.6720   -1.0691   -1.1547 O   0  0  0  0  0  0  0  0  0  0  0  0
   -1.0108    3.2468    0.2166 H   0  0  0  0  0  0  0  0  0  0  0  0
   -2.0142    1.8622    0.6568 H   0  0  0  0  0  0  0  0  0  0  0  0
   -0.4137    2.0993    1.4362 H   0  0  0  0  0  0  0  0  0  0  0  0
    0.5160    2.0237   -1.0976 H   0  0  0  0  0  0  0  0  0  0  0  0
   -1.0837    1.3503   -1.4846 H   0  0  0  0  0  0  0  0  0  0  0  0
    1.0295   -1.4160   -1.7681 H   0  0  0  0  0  0  0  0  0  0  0  0
    1.6946    0.2542   -1.9084 H   0  0  0  0  0  0  0  0  0  0  0  0
    0.0603   -0.0643   -2.5199 H   0  0  0  0  0  0  0  0  0  0  0  0
    1.1523    0.7103    1.4875 H   0  0  0  0  0  0  0  0  0  0  0  0
    2.1530    0.7385    0.0199 H   0  0  0  0  0  0  0  0  0  0  0  0
    1.2592   -1.8905    1.3404 H   0  0  0  0  0  0  0  0  0  0  0  0
    2.5109   -1.6448    0.0911 H   0  0  0  0  0  0  0  0  0  0  0  0
    2.7278   -0.9712    1.7154 H   0  0  0  0  0  0  0  0  0  0  0  0
   -0.3337   -1.9715    0.0683 H   0  0  0  0  0  0  0  0  0  0  0  0
   -2.6553   -0.4111    0.8332 H   0  0  0  0  0  0  0  0  0  0  0  0
   -1.2959   -0.0457    1.9115 H   0  0  0  0  0  0  0  0  0  0  0  0
   -1.9037   -1.7393    1.6933 H   0  0  0  0  0  0  0  0  0  0  0  0
   -1.2585   -1.5993   -1.8771 H   0  0  0  0  0  0  0  0  0  0  0  0
  1  2  1  0
  2  3  1  0
  3  4  1  0
  3  5  1  0
  5  6  1  0
  3  7  1  0
  7  8  1  0
  7  9  1  0
  1 10  1  0
  1 11  1  0
  1 12  1  0
  2 13  1  0
  2 14  1  0
  4 15  1  0
  4 16  1  0
  4 17  1  0
  5 18  1  0
  5 19  1  0
  6 20  1  0
  6 21  1  0
  6 22  1  0
  7 23  1  0
  8 24  1  0
  8 25  1  0
  8 26  1  0
  9 27  1  0
M  END
