
     RDKit          3D

 24 23  0  0  0  0  0  0  0  0999 V2000
   -3.2933   -0.4051   -0.2118 C   0  0  0  0  0  0  0  0  0  0  0  0
   -2.0420    0.3565   -0.4972 C   0  0  0  0  0  0  0  0  0  0  0  0
   -0.8002   -0.3493    0.0500 C   0  0  0  0  0  0  0  0  0  0  0  0
   -0.9777   -0.4720    1.5235 C   0  0  0  0  0  0  0  0  0  0  0  0
    0.3679    0.4758   -0.3756 C   0  0  0  0  0  0  0  0  0  0  0  0
    1.6987   -0.0419    0.0600 C   0  0  0  0  0  0  0  0  0  0  0  0
    2.6747    0.8341   -0.4130 O   0  0  0  0  0  0  0  0  0  0  0  0
    3.9564    0.4217   -0.0478 C   0  0  0  0  0  0  0  0  0  0  0  0
   -4.0898   -0.0265   -0.8839 H   0  0  0  0  0  0  0  0  0  0  0  0
   -3.1600   -1.4955   -0.3211 H   0  0  0  0  0  0  0  0  0  0  0  0
   -3.6181   -0.1941    0.8216 H   0  0  0  0  0  0  0  0  0  0  0  0
   -1.8614    0.5600   -1.5588 H   0  0  0  0  0  0  0  0  0  0  0  0
   -2.0939    1.3283    0.0759 H   0  0  0  0  0  0  0  0  0  0  0  0
   -0.8043   -1.3611   -0.4002 H   0  0  0  0  0  0  0  0  0  0  0  0
   -1.2166    0.5263    1.9876 H   0  0  0  0  0  0  0  0  0  0  0  0
   -0.1430   -0.9677    2.0460 H   0  0  0  0  0  0  0  0  0  0  0  0
   -1.8797   -1.0927    1.7068 H   0  0  0  0  0  0  0  0  0  0  0  0
    0.3685    0.4987   -1.4920 H   0  0  0  0  0  0  0  0  0  0  0  0
    0.2053    1.5256   -0.0580 H   0  0  0  0  0  0  0  0  0  0  0  0
    1.8257   -0.1439    1.1393 H   0  0  0  0  0  0  0  0  0  0  0  0
    1.9154   -1.0260   -0.4026 H   0  0  0  0  0  0  0  0  0  0  0  0
    4.2184   -0.5647   -0.4316 H   0  0  0  0  0  0  0  0  0  0  0  0
    4.7009    1.1427   -0.4414 H   0  0  0  0  0  0  0  0  0  0  0  0
    4.0482    0.4706    1.0686 H   0  0  0  0  0  0  0  0  0  0  0  0
  1  2  1  0
  2  3  1  0
  3  4  1  0
  3  5  1  0
  5  6  1  0
  6  7  1  0
  7  8  1  0
  1  9  1  0
  1 10  1  0
  1 11  1  0
  2 12  1  0
  2 13  1  0
  3 14  1  0
  4 15  1  0
  4 16  1  0
  4 17  1  0
  5 18  1  0
  5 19  1  0
  6 20  1  0
  6 21  1  0
  8 22  1  0
  8 23  1  0
  8 24  1  0
M  END
