
     RDKit          3D

 21 21  0  0  0  0  0  0  0  0999 V2000
    2.9106    0.4603    0.1215 C   0  0  0  0  0  0  0  0  0  0  0  0
    1.7876   -0.5513   -0.0524 C   0  0  0  0  0  0  0  0  0  0  0  0
    0.6531   -0.1205    0.8102 C   0  0  0  0  0  0  0  0  0  0  0  0
    0.9102    0.1207    1.9703 O   0  0  0  0  0  0  0  0  0  0  0  0
   -0.7260    0.0301    0.3348 C   0  0  0  0  0  0  0  0  0  0  0  0
   -0.8743    1.0156   -0.8246 C   0  0  0  0  0  0  0  0  0  0  0  0
   -1.5567   -1.1843    0.1449 C   0  0  0  0  0  0  0  0  0  0  0  0
   -2.6077   -0.2413    0.6960 C   0  0  0  0  0  0  0  0  0  0  0  0
   -1.5764    0.4366    1.3588 O   0  0  0  0  0  0  0  0  0  0  0  0
    2.5053    1.4202    0.5558 H   0  0  0  0  0  0  0  0  0  0  0  0
    3.3025    0.7785   -0.8910 H   0  0  0  0  0  0  0  0  0  0  0  0
    3.7163    0.1126    0.7818 H   0  0  0  0  0  0  0  0  0  0  0  0
    1.5307   -0.7799   -1.0809 H   0  0  0  0  0  0  0  0  0  0  0  0
    2.1751   -1.4946    0.4428 H   0  0  0  0  0  0  0  0  0  0  0  0
   -1.4655    0.5954   -1.6454 H   0  0  0  0  0  0  0  0  0  0  0  0
    0.1715    1.1846   -1.2115 H   0  0  0  0  0  0  0  0  0  0  0  0
   -1.2858    1.9781   -0.4653 H   0  0  0  0  0  0  0  0  0  0  0  0
   -1.7464   -1.4660   -0.9280 H   0  0  0  0  0  0  0  0  0  0  0  0
   -1.3841   -2.0182    0.8179 H   0  0  0  0  0  0  0  0  0  0  0  0
   -3.0778    0.4294   -0.0329 H   0  0  0  0  0  0  0  0  0  0  0  0
   -3.3622   -0.7062    1.3647 H   0  0  0  0  0  0  0  0  0  0  0  0
  1  2  1  0
  2  3  1  0
  3  4  2  0
  3  5  1  0
  5  6  1  0
  5  7  1  0
  7  8  1  0
  8  9  1  0
  9  5  1  0
  1 10  1  0
  1 11  1  0
  1 12  1  0
  2 13  1  0
  2 14  1  0
  6 15  1  0
  6 16  1  0
  6 17  1  0
  7 18  1  0
  7 19  1  0
  8 20  1  0
  8 21  1  0
M  END
