
     RDKit          3D

 25 24  0  0  0  0  0  0  0  0999 V2000
   -1.1867   -1.6500   -1.4249 C   0  0  0  0  0  0  0  0  0  0  0  0
   -1.6756   -0.8436   -0.2417 C   0  0  0  0  0  0  0  0  0  0  0  0
   -1.2060    0.5683   -0.4278 C   0  0  0  0  0  0  0  0  0  0  0  0
   -1.6783    1.4546    0.7431 C   0  0  0  0  0  0  0  0  0  0  0  0
    0.2505    0.7467   -0.5221 C   0  0  0  0  0  0  0  0  0  0  0  0
    0.6838    1.1682   -1.6103 O   0  0  0  0  0  0  0  0  0  0  0  0
    1.2573    0.4884    0.5099 C   0  0  0  0  0  0  0  0  0  0  0  0
    2.6683    0.8280    0.0017 C   0  0  0  0  0  0  0  0  0  0  0  0
    1.3270   -0.9340    0.9974 C   0  0  0  0  0  0  0  0  0  0  0  0
   -0.1668   -1.3490   -1.7558 H   0  0  0  0  0  0  0  0  0  0  0  0
   -1.2989   -2.7337   -1.2859 H   0  0  0  0  0  0  0  0  0  0  0  0
   -1.8436   -1.3731   -2.2926 H   0  0  0  0  0  0  0  0  0  0  0  0
   -1.4789   -1.2906    0.7289 H   0  0  0  0  0  0  0  0  0  0  0  0
   -2.8025   -0.8044   -0.3565 H   0  0  0  0  0  0  0  0  0  0  0  0
   -1.6810    1.0146   -1.3228 H   0  0  0  0  0  0  0  0  0  0  0  0
   -2.6807    1.0938    0.9986 H   0  0  0  0  0  0  0  0  0  0  0  0
   -1.6389    2.5101    0.4264 H   0  0  0  0  0  0  0  0  0  0  0  0
   -1.0108    1.2995    1.6028 H   0  0  0  0  0  0  0  0  0  0  0  0
    1.0463    1.1759    1.3716 H   0  0  0  0  0  0  0  0  0  0  0  0
    2.8167    0.2121   -0.9163 H   0  0  0  0  0  0  0  0  0  0  0  0
    2.7810    1.8905   -0.2136 H   0  0  0  0  0  0  0  0  0  0  0  0
    3.3675    0.4385    0.7648 H   0  0  0  0  0  0  0  0  0  0  0  0
    2.3763   -1.1145    1.3563 H   0  0  0  0  0  0  0  0  0  0  0  0
    1.1711   -1.6672    0.2019 H   0  0  0  0  0  0  0  0  0  0  0  0
    0.6029   -1.1290    1.8281 H   0  0  0  0  0  0  0  0  0  0  0  0
  1  2  1  0
  2  3  1  0
  3  4  1  0
  3  5  1  0
  5  6  2  0
  5  7  1  0
  7  8  1  0
  7  9  1  0
  1 10  1  0
  1 11  1  0
  1 12  1  0
  2 13  1  0
  2 14  1  0
  3 15  1  0
  4 16  1  0
  4 17  1  0
  4 18  1  0
  7 19  1  0
  8 20  1  0
  8 21  1  0
  8 22  1  0
  9 23  1  0
  9 24  1  0
  9 25  1  0
M  END
