
     RDKit          3D

 21 21  0  0  0  0  0  0  0  0999 V2000
   -3.2159    0.0799    0.1570 C   0  0  0  0  0  0  0  0  0  0  0  0
   -1.8348    0.6768   -0.0476 C   0  0  0  0  0  0  0  0  0  0  0  0
   -0.7774   -0.2081    0.4672 C   0  0  0  0  0  0  0  0  0  0  0  0
   -1.0731   -1.2739    0.9805 O   0  0  0  0  0  0  0  0  0  0  0  0
    0.6301    0.1651    0.3762 C   0  0  0  0  0  0  0  0  0  0  0  0
    1.0923    0.3750   -1.0693 C   0  0  0  0  0  0  0  0  0  0  0  0
    2.5617    0.2478   -0.8889 C   0  0  0  0  0  0  0  0  0  0  0  0
    2.8442   -0.5027    0.1674 C   0  0  0  0  0  0  0  0  0  0  0  0
    1.5609   -0.9508    0.7965 C   0  0  0  0  0  0  0  0  0  0  0  0
   -3.9635    0.7676   -0.2650 H   0  0  0  0  0  0  0  0  0  0  0  0
   -3.3612    0.0369    1.2760 H   0  0  0  0  0  0  0  0  0  0  0  0
   -3.3073   -0.9185   -0.3039 H   0  0  0  0  0  0  0  0  0  0  0  0
   -1.6596    0.8852   -1.1329 H   0  0  0  0  0  0  0  0  0  0  0  0
   -1.8327    1.6463    0.4890 H   0  0  0  0  0  0  0  0  0  0  0  0
    0.9067    1.0815    0.9197 H   0  0  0  0  0  0  0  0  0  0  0  0
    0.7736    1.3379   -1.4645 H   0  0  0  0  0  0  0  0  0  0  0  0
    0.6737   -0.4178   -1.7207 H   0  0  0  0  0  0  0  0  0  0  0  0
    3.3073    0.6994   -1.5238 H   0  0  0  0  0  0  0  0  0  0  0  0
    3.8199   -0.7863    0.5676 H   0  0  0  0  0  0  0  0  0  0  0  0
    1.2142   -1.9132    0.3289 H   0  0  0  0  0  0  0  0  0  0  0  0
    1.6409   -1.0281    1.8905 H   0  0  0  0  0  0  0  0  0  0  0  0
  1  2  1  0
  2  3  1  0
  3  4  2  0
  3  5  1  0
  5  6  1  0
  6  7  1  0
  7  8  2  0
  8  9  1  0
  9  5  1  0
  1 10  1  0
  1 11  1  0
  1 12  1  0
  2 13  1  0
  2 14  1  0
  5 15  1  0
  6 16  1  0
  6 17  1  0
  7 18  1  0
  8 19  1  0
  9 20  1  0
  9 21  1  0
M  END
