
     RDKit          3D

 20 20  0  0  0  0  0  0  0  0999 V2000
    2.7026   -0.0191    0.2566 C   0  0  0  0  0  0  0  0  0  0  0  0
    1.3544   -0.2986   -0.3808 C   0  0  0  0  0  0  0  0  0  0  0  0
    0.2336    0.3787    0.3550 C   0  0  0  0  0  0  0  0  0  0  0  0
    0.2132   -0.0935    1.6683 O   0  0  0  0  0  0  0  0  0  0  0  0
   -1.0562    0.0830   -0.3621 C   0  0  0  0  0  0  0  0  0  0  0  0
   -1.7283   -1.2175   -0.0097 C   0  0  0  0  0  0  0  0  0  0  0  0
   -1.9415    1.2281   -0.7428 C   0  0  0  0  0  0  0  0  0  0  0  0
   -1.0887    0.5341   -1.6796 O   0  0  0  0  0  0  0  0  0  0  0  0
    3.1497   -0.9953    0.5410 H   0  0  0  0  0  0  0  0  0  0  0  0
    2.5737    0.6719    1.1060 H   0  0  0  0  0  0  0  0  0  0  0  0
    3.3866    0.4645   -0.4608 H   0  0  0  0  0  0  0  0  0  0  0  0
    1.3572    0.0586   -1.4462 H   0  0  0  0  0  0  0  0  0  0  0  0
    1.1380   -1.3824   -0.4322 H   0  0  0  0  0  0  0  0  0  0  0  0
    0.4112    1.4697    0.3091 H   0  0  0  0  0  0  0  0  0  0  0  0
   -0.4260    0.4580    2.1988 H   0  0  0  0  0  0  0  0  0  0  0  0
   -1.5739   -1.3655    1.0895 H   0  0  0  0  0  0  0  0  0  0  0  0
   -1.2971   -2.0867   -0.5116 H   0  0  0  0  0  0  0  0  0  0  0  0
   -2.8231   -1.1068   -0.1404 H   0  0  0  0  0  0  0  0  0  0  0  0
   -2.9901    1.0085   -0.9546 H   0  0  0  0  0  0  0  0  0  0  0  0
   -1.5953    2.2104   -0.4034 H   0  0  0  0  0  0  0  0  0  0  0  0
  1  2  1  0
  2  3  1  0
  3  4  1  0
  3  5  1  0
  5  6  1  0
  5  7  1  0
  7  8  1  0
  8  5  1  0
  1  9  1  0
  1 10  1  0
  1 11  1  0
  2 12  1  0
  2 13  1  0
  3 14  1  0
  4 15  1  0
  6 16  1  0
  6 17  1  0
  6 18  1  0
  7 19  1  0
  7 20  1  0
M  END
