
     RDKit          3D

 23 22  0  0  0  0  0  0  0  0999 V2000
    2.9926   -0.3849   -0.1659 C   0  0  0  0  0  0  0  0  0  0  0  0
    1.7579    0.4557   -0.4201 C   0  0  0  0  0  0  0  0  0  0  0  0
    0.6959    0.0256    0.5979 C   0  0  0  0  0  0  0  0  0  0  0  0
    1.2736    0.2806    1.9215 C   0  0  0  0  0  0  0  0  0  0  0  0
    2.3296   -0.1800    2.3134 O   0  0  0  0  0  0  0  0  0  0  0  0
   -0.4879    0.6251    0.3408 O   0  0  0  0  0  0  0  0  0  0  0  0
   -1.5227   -0.1907   -0.0529 C   0  0  0  0  0  0  0  0  0  0  0  0
   -2.6275   -0.0469    0.9805 C   0  0  0  0  0  0  0  0  0  0  0  0
   -2.1127    0.1421   -1.3816 C   0  0  0  0  0  0  0  0  0  0  0  0
    3.7127    0.2048    0.4688 H   0  0  0  0  0  0  0  0  0  0  0  0
    3.4711   -0.6220   -1.1562 H   0  0  0  0  0  0  0  0  0  0  0  0
    2.7408   -1.3606    0.2824 H   0  0  0  0  0  0  0  0  0  0  0  0
    1.9756    1.5446   -0.3068 H   0  0  0  0  0  0  0  0  0  0  0  0
    1.4103    0.3147   -1.4575 H   0  0  0  0  0  0  0  0  0  0  0  0
    0.5718   -1.0825    0.4233 H   0  0  0  0  0  0  0  0  0  0  0  0
    0.7290    0.9225    2.6037 H   0  0  0  0  0  0  0  0  0  0  0  0
   -1.1981   -1.2702   -0.0978 H   0  0  0  0  0  0  0  0  0  0  0  0
   -2.4374    0.8102    1.6675 H   0  0  0  0  0  0  0  0  0  0  0  0
   -2.7048   -1.0002    1.5600 H   0  0  0  0  0  0  0  0  0  0  0  0
   -3.6174    0.1412    0.5135 H   0  0  0  0  0  0  0  0  0  0  0  0
   -3.1707   -0.2131   -1.3783 H   0  0  0  0  0  0  0  0  0  0  0  0
   -1.6244   -0.3570   -2.2380 H   0  0  0  0  0  0  0  0  0  0  0  0
   -2.1573    1.2412   -1.5455 H   0  0  0  0  0  0  0  0  0  0  0  0
  1  2  1  0
  2  3  1  0
  3  4  1  0
  4  5  2  0
  3  6  1  0
  6  7  1  0
  7  8  1  0
  7  9  1  0
  1 10  1  0
  1 11  1  0
  1 12  1  0
  2 13  1  0
  2 14  1  0
  3 15  1  0
  4 16  1  0
  7 17  1  0
  8 18  1  0
  8 19  1  0
  8 20  1  0
  9 21  1  0
  9 22  1  0
  9 23  1  0
M  END
