
     RDKit          3D

 20 20  0  0  0  0  0  0  0  0999 V2000
   -1.9978   -0.9966   -0.2982 C   0  0  0  0  0  0  0  0  0  0  0  0
   -1.1447   -0.1357    0.5841 C   0  0  0  0  0  0  0  0  0  0  0  0
   -0.0170    0.5214   -0.2253 C   0  0  0  0  0  0  0  0  0  0  0  0
    0.8154    1.3759    0.6958 C   0  0  0  0  0  0  0  0  0  0  0  0
   -0.5162    1.3206   -1.2264 O   0  0  0  0  0  0  0  0  0  0  0  0
    0.7949   -0.5732   -0.8288 C   0  0  0  0  0  0  0  0  0  0  0  0
    2.1429   -0.7839   -0.1770 C   0  0  0  0  0  0  0  0  0  0  0  0
    1.8952   -0.3424   -1.5978 O   0  0  0  0  0  0  0  0  0  0  0  0
   -3.0732   -0.7346   -0.2165 H   0  0  0  0  0  0  0  0  0  0  0  0
   -1.7170   -0.8451   -1.3725 H   0  0  0  0  0  0  0  0  0  0  0  0
   -1.8925   -2.0846   -0.0291 H   0  0  0  0  0  0  0  0  0  0  0  0
   -0.7301   -0.6679    1.4639 H   0  0  0  0  0  0  0  0  0  0  0  0
   -1.7841    0.6950    0.9900 H   0  0  0  0  0  0  0  0  0  0  0  0
    0.2736    2.2205    1.1196 H   0  0  0  0  0  0  0  0  0  0  0  0
    1.1811    0.7335    1.5141 H   0  0  0  0  0  0  0  0  0  0  0  0
    1.6407    1.8047    0.0741 H   0  0  0  0  0  0  0  0  0  0  0  0
   -1.3900    1.7489   -0.9645 H   0  0  0  0  0  0  0  0  0  0  0  0
    0.2620   -1.5226   -1.0460 H   0  0  0  0  0  0  0  0  0  0  0  0
    2.5849   -1.7942   -0.1580 H   0  0  0  0  0  0  0  0  0  0  0  0
    2.6720    0.0601    0.2969 H   0  0  0  0  0  0  0  0  0  0  0  0
  1  2  1  0
  2  3  1  0
  3  4  1  0
  3  5  1  0
  3  6  1  0
  6  7  1  0
  7  8  1  0
  8  6  1  0
  1  9  1  0
  1 10  1  0
  1 11  1  0
  2 12  1  0
  2 13  1  0
  4 14  1  0
  4 15  1  0
  4 16  1  0
  5 17  1  0
  6 18  1  0
  7 19  1  0
  7 20  1  0
M  END
