
     RDKit          3D

 21 21  0  0  0  0  0  0  0  0999 V2000
    2.4084   -0.1412   -0.0238 C   0  0  0  0  0  0  0  0  0  0  0  0
    0.9573   -0.5590   -0.2577 C   0  0  0  0  0  0  0  0  0  0  0  0
    0.0179    0.3955    0.4516 C   0  0  0  0  0  0  0  0  0  0  0  0
    0.1962    1.8135   -0.0564 C   0  0  0  0  0  0  0  0  0  0  0  0
   -1.4207    0.0363    0.2198 C   0  0  0  0  0  0  0  0  0  0  0  0
   -1.8010   -1.3411    0.6983 C   0  0  0  0  0  0  0  0  0  0  0  0
   -1.3281   -1.8004   -0.5462 O   0  0  0  0  0  0  0  0  0  0  0  0
   -1.6394   -0.5657   -1.0953 C   0  0  0  0  0  0  0  0  0  0  0  0
   -1.9738   -0.0761   -2.2148 O   0  0  0  0  0  0  0  0  0  0  0  0
    3.0719   -1.0114    0.1202 H   0  0  0  0  0  0  0  0  0  0  0  0
    2.7823    0.3939   -0.9272 H   0  0  0  0  0  0  0  0  0  0  0  0
    2.4397    0.5018    0.8720 H   0  0  0  0  0  0  0  0  0  0  0  0
    0.7560   -0.6201   -1.3398 H   0  0  0  0  0  0  0  0  0  0  0  0
    0.8745   -1.5839    0.1582 H   0  0  0  0  0  0  0  0  0  0  0  0
    0.2500    0.3384    1.5288 H   0  0  0  0  0  0  0  0  0  0  0  0
   -0.6308    2.1015   -0.7646 H   0  0  0  0  0  0  0  0  0  0  0  0
    0.1152    2.5040    0.8048 H   0  0  0  0  0  0  0  0  0  0  0  0
    1.1326    1.8864   -0.6102 H   0  0  0  0  0  0  0  0  0  0  0  0
   -2.1592    0.7971    0.5441 H   0  0  0  0  0  0  0  0  0  0  0  0
   -2.8840   -1.4407    0.8658 H   0  0  0  0  0  0  0  0  0  0  0  0
   -1.1650   -1.6286    1.5724 H   0  0  0  0  0  0  0  0  0  0  0  0
  1  2  1  0
  2  3  1  0
  3  4  1  0
  3  5  1  0
  5  6  1  0
  6  7  1  0
  7  8  1  0
  8  9  2  0
  8  5  1  0
  1 10  1  0
  1 11  1  0
  1 12  1  0
  2 13  1  0
  2 14  1  0
  3 15  1  0
  4 16  1  0
  4 17  1  0
  4 18  1  0
  5 19  1  0
  6 20  1  0
  6 21  1  0
M  END
