
     RDKit          3D

 23 23  0  0  0  0  0  0  0  0999 V2000
   -2.6553    0.7841   -0.6420 C   0  0  0  0  0  0  0  0  0  0  0  0
   -1.4118   -0.0430   -0.6987 C   0  0  0  0  0  0  0  0  0  0  0  0
   -0.5289    0.2131    0.4650 C   0  0  0  0  0  0  0  0  0  0  0  0
   -1.2477   -0.1110    1.6321 O   0  0  0  0  0  0  0  0  0  0  0  0
    0.7148   -0.6276    0.4730 C   0  0  0  0  0  0  0  0  0  0  0  0
    0.5791   -2.1177    0.3837 C   0  0  0  0  0  0  0  0  0  0  0  0
    1.4825   -0.2891    1.6982 O   0  0  0  0  0  0  0  0  0  0  0  0
    2.0463   -0.0380    0.4462 C   0  0  0  0  0  0  0  0  0  0  0  0
    2.3067    1.3802    0.0349 C   0  0  0  0  0  0  0  0  0  0  0  0
   -2.4872    1.8645   -0.6655 H   0  0  0  0  0  0  0  0  0  0  0  0
   -3.2440    0.4468    0.2377 H   0  0  0  0  0  0  0  0  0  0  0  0
   -3.2999    0.5363   -1.5358 H   0  0  0  0  0  0  0  0  0  0  0  0
   -1.7269   -1.1132   -0.7486 H   0  0  0  0  0  0  0  0  0  0  0  0
   -0.8507    0.1289   -1.6589 H   0  0  0  0  0  0  0  0  0  0  0  0
   -0.2328    1.2651    0.5042 H   0  0  0  0  0  0  0  0  0  0  0  0
   -1.2280    0.6584    2.2558 H   0  0  0  0  0  0  0  0  0  0  0  0
    1.5642   -2.5876    0.2181 H   0  0  0  0  0  0  0  0  0  0  0  0
    0.1630   -2.5479    1.3131 H   0  0  0  0  0  0  0  0  0  0  0  0
   -0.0454   -2.3588   -0.4867 H   0  0  0  0  0  0  0  0  0  0  0  0
    2.8934   -0.7283    0.2206 H   0  0  0  0  0  0  0  0  0  0  0  0
    3.3486    1.5211   -0.3765 H   0  0  0  0  0  0  0  0  0  0  0  0
    2.2287    2.1001    0.8881 H   0  0  0  0  0  0  0  0  0  0  0  0
    1.6313    1.6633   -0.7902 H   0  0  0  0  0  0  0  0  0  0  0  0
  1  2  1  0
  2  3  1  0
  3  4  1  0
  3  5  1  0
  5  6  1  0
  5  7  1  0
  7  8  1  0
  8  9  1  0
  8  5  1  0
  1 10  1  0
  1 11  1  0
  1 12  1  0
  2 13  1  0
  2 14  1  0
  3 15  1  0
  4 16  1  0
  6 17  1  0
  6 18  1  0
  6 19  1  0
  8 20  1  0
  9 21  1  0
  9 22  1  0
  9 23  1  0
M  END
