
     RDKit          3D

 26 25  0  0  0  0  0  0  0  0999 V2000
    2.7891    0.4085   -0.0091 C   0  0  0  0  0  0  0  0  0  0  0  0
    2.0497   -0.8184    0.3934 C   0  0  0  0  0  0  0  0  0  0  0  0
    0.5741   -0.7787   -0.0042 C   0  0  0  0  0  0  0  0  0  0  0  0
    0.5323   -0.6435   -1.5043 C   0  0  0  0  0  0  0  0  0  0  0  0
   -0.0387    0.3540    0.7237 C   0  0  0  0  0  0  0  0  0  0  0  0
   -1.4691    0.6352    0.5492 C   0  0  0  0  0  0  0  0  0  0  0  0
   -1.9689    0.9667   -0.8070 C   0  0  0  0  0  0  0  0  0  0  0  0
   -2.3821   -0.4369    1.1180 C   0  0  0  0  0  0  0  0  0  0  0  0
    2.8501    1.0944    0.8600 H   0  0  0  0  0  0  0  0  0  0  0  0
    3.8595    0.1936   -0.2956 H   0  0  0  0  0  0  0  0  0  0  0  0
    2.2984    0.9756   -0.8312 H   0  0  0  0  0  0  0  0  0  0  0  0
    2.1459   -0.9524    1.4906 H   0  0  0  0  0  0  0  0  0  0  0  0
    2.5510   -1.6983   -0.0666 H   0  0  0  0  0  0  0  0  0  0  0  0
    0.1707   -1.7691    0.2669 H   0  0  0  0  0  0  0  0  0  0  0  0
    1.5075   -0.9570   -1.9560 H   0  0  0  0  0  0  0  0  0  0  0  0
   -0.2486   -1.3493   -1.8798 H   0  0  0  0  0  0  0  0  0  0  0  0
    0.3116    0.4059   -1.7524 H   0  0  0  0  0  0  0  0  0  0  0  0
    0.5116    1.3016    0.4337 H   0  0  0  0  0  0  0  0  0  0  0  0
    0.1679    0.2680    1.8173 H   0  0  0  0  0  0  0  0  0  0  0  0
   -1.6890    1.5461    1.1891 H   0  0  0  0  0  0  0  0  0  0  0  0
   -2.0500    0.1343   -1.5164 H   0  0  0  0  0  0  0  0  0  0  0  0
   -1.4713    1.8765   -1.2518 H   0  0  0  0  0  0  0  0  0  0  0  0
   -3.0544    1.2849   -0.6565 H   0  0  0  0  0  0  0  0  0  0  0  0
   -2.3120   -0.5079    2.2147 H   0  0  0  0  0  0  0  0  0  0  0  0
   -3.4186   -0.1226    0.8626 H   0  0  0  0  0  0  0  0  0  0  0  0
   -2.2168   -1.4114    0.6119 H   0  0  0  0  0  0  0  0  0  0  0  0
  1  2  1  0
  2  3  1  0
  3  4  1  0
  3  5  1  0
  5  6  1  0
  6  7  1  0
  6  8  1  0
  1  9  1  0
  1 10  1  0
  1 11  1  0
  2 12  1  0
  2 13  1  0
  3 14  1  0
  4 15  1  0
  4 16  1  0
  4 17  1  0
  5 18  1  0
  5 19  1  0
  6 20  1  0
  7 21  1  0
  7 22  1  0
  7 23  1  0
  8 24  1  0
  8 25  1  0
  8 26  1  0
M  END
