
     RDKit          3D

 23 23  0  0  0  0  0  0  0  0999 V2000
   -2.6187    1.1671   -0.3003 C   0  0  0  0  0  0  0  0  0  0  0  0
   -1.0956    1.1729   -0.3659 C   0  0  0  0  0  0  0  0  0  0  0  0
   -0.6061   -0.2601   -0.2228 C   0  0  0  0  0  0  0  0  0  0  0  0
   -1.0270   -0.8770    1.0729 C   0  0  0  0  0  0  0  0  0  0  0  0
   -1.2328   -0.9815   -1.2536 O   0  0  0  0  0  0  0  0  0  0  0  0
    0.8709   -0.2637   -0.4554 C   0  0  0  0  0  0  0  0  0  0  0  0
    1.5633   -1.4690   -0.5022 O   0  0  0  0  0  0  0  0  0  0  0  0
    1.8626   -0.5500    0.5666 C   0  0  0  0  0  0  0  0  0  0  0  0
    3.2510    0.0497    0.4203 C   0  0  0  0  0  0  0  0  0  0  0  0
   -2.9892    0.2760   -0.8538 H   0  0  0  0  0  0  0  0  0  0  0  0
   -2.9861    1.2402    0.7274 H   0  0  0  0  0  0  0  0  0  0  0  0
   -2.9388    2.0504   -0.9250 H   0  0  0  0  0  0  0  0  0  0  0  0
   -0.7597    1.5039   -1.3724 H   0  0  0  0  0  0  0  0  0  0  0  0
   -0.6618    1.8340    0.4100 H   0  0  0  0  0  0  0  0  0  0  0  0
   -0.9164   -0.2172    1.9446 H   0  0  0  0  0  0  0  0  0  0  0  0
   -0.4832   -1.8357    1.1833 H   0  0  0  0  0  0  0  0  0  0  0  0
   -2.1230   -1.1272    0.9775 H   0  0  0  0  0  0  0  0  0  0  0  0
   -0.7479   -1.8177   -1.4430 H   0  0  0  0  0  0  0  0  0  0  0  0
    1.1908    0.4503   -1.2671 H   0  0  0  0  0  0  0  0  0  0  0  0
    1.6493   -0.9638    1.5533 H   0  0  0  0  0  0  0  0  0  0  0  0
    3.3882    0.4279   -0.6326 H   0  0  0  0  0  0  0  0  0  0  0  0
    4.0531   -0.6887    0.5803 H   0  0  0  0  0  0  0  0  0  0  0  0
    3.3571    0.8793    1.1387 H   0  0  0  0  0  0  0  0  0  0  0  0
  1  2  1  0
  2  3  1  0
  3  4  1  0
  3  5  1  0
  3  6  1  0
  6  7  1  0
  7  8  1  0
  8  9  1  0
  8  6  1  0
  1 10  1  0
  1 11  1  0
  1 12  1  0
  2 13  1  0
  2 14  1  0
  4 15  1  0
  4 16  1  0
  4 17  1  0
  5 18  1  0
  6 19  1  0
  8 20  1  0
  9 21  1  0
  9 22  1  0
  9 23  1  0
M  END
