
     RDKit          3D

 20 20  0  0  0  0  0  0  0  0999 V2000
   -1.8836   -1.2847   -0.3000 C   0  0  0  0  0  0  0  0  0  0  0  0
   -0.6025   -0.8633    0.3452 C   0  0  0  0  0  0  0  0  0  0  0  0
    0.1769    0.1456   -0.4254 C   0  0  0  0  0  0  0  0  0  0  0  0
   -0.5744    1.4330   -0.6565 C   0  0  0  0  0  0  0  0  0  0  0  0
   -0.9122    2.0214    0.5615 O   0  0  0  0  0  0  0  0  0  0  0  0
    1.4402    0.4567    0.3122 C   0  0  0  0  0  0  0  0  0  0  0  0
    2.3500   -0.7166    0.5366 C   0  0  0  0  0  0  0  0  0  0  0  0
    2.6672    0.3597   -0.2907 O   0  0  0  0  0  0  0  0  0  0  0  0
   -2.6352   -0.4846   -0.2012 H   0  0  0  0  0  0  0  0  0  0  0  0
   -2.2693   -2.1626    0.2569 H   0  0  0  0  0  0  0  0  0  0  0  0
   -1.6906   -1.5945   -1.3425 H   0  0  0  0  0  0  0  0  0  0  0  0
   -0.8041   -0.4606    1.3714 H   0  0  0  0  0  0  0  0  0  0  0  0
    0.0426   -1.7516    0.4952 H   0  0  0  0  0  0  0  0  0  0  0  0
    0.3798   -0.2822   -1.4462 H   0  0  0  0  0  0  0  0  0  0  0  0
   -1.4803    1.2955   -1.2891 H   0  0  0  0  0  0  0  0  0  0  0  0
    0.0852    2.1514   -1.1817 H   0  0  0  0  0  0  0  0  0  0  0  0
   -0.5629    2.9518    0.6455 H   0  0  0  0  0  0  0  0  0  0  0  0
    1.3512    1.2147    1.0961 H   0  0  0  0  0  0  0  0  0  0  0  0
    2.7711   -0.7767    1.5531 H   0  0  0  0  0  0  0  0  0  0  0  0
    2.1510   -1.6524   -0.0404 H   0  0  0  0  0  0  0  0  0  0  0  0
  1  2  1  0
  2  3  1  0
  3  4  1  0
  4  5  1  0
  3  6  1  0
  6  7  1  0
  7  8  1  0
  8  6  1  0
  1  9  1  0
  1 10  1  0
  1 11  1  0
  2 12  1  0
  2 13  1  0
  3 14  1  0
  4 15  1  0
  4 16  1  0
  5 17  1  0
  6 18  1  0
  7 19  1  0
  7 20  1  0
M  END
