
     RDKit          3D

 23 23  0  0  0  0  0  0  0  0999 V2000
    3.5483    0.2043    0.1950 C   0  0  0  0  0  0  0  0  0  0  0  0
    2.2620   -0.5734    0.0017 C   0  0  0  0  0  0  0  0  0  0  0  0
    1.2187    0.0915    0.8283 C   0  0  0  0  0  0  0  0  0  0  0  0
    1.1819   -0.1148    2.0130 O   0  0  0  0  0  0  0  0  0  0  0  0
    0.2077    1.0115    0.2372 C   0  0  0  0  0  0  0  0  0  0  0  0
   -1.1392    0.3049    0.3763 C   0  0  0  0  0  0  0  0  0  0  0  0
   -1.2017   -1.0266   -0.3328 C   0  0  0  0  0  0  0  0  0  0  0  0
   -2.0273    0.1663   -0.7827 C   0  0  0  0  0  0  0  0  0  0  0  0
   -3.5113    0.0280   -0.5775 C   0  0  0  0  0  0  0  0  0  0  0  0
    3.5405    0.6279    1.2181 H   0  0  0  0  0  0  0  0  0  0  0  0
    4.4206   -0.4566    0.0161 H   0  0  0  0  0  0  0  0  0  0  0  0
    3.5019    1.0597   -0.5141 H   0  0  0  0  0  0  0  0  0  0  0  0
    2.4281   -1.6251    0.3044 H   0  0  0  0  0  0  0  0  0  0  0  0
    1.9652   -0.5991   -1.0882 H   0  0  0  0  0  0  0  0  0  0  0  0
    0.4517    1.2109   -0.8256 H   0  0  0  0  0  0  0  0  0  0  0  0
    0.1974    1.9797    0.7762 H   0  0  0  0  0  0  0  0  0  0  0  0
   -1.6138    0.4144    1.3689 H   0  0  0  0  0  0  0  0  0  0  0  0
   -0.3376   -1.3550   -0.9421 H   0  0  0  0  0  0  0  0  0  0  0  0
   -1.7461   -1.8139    0.2649 H   0  0  0  0  0  0  0  0  0  0  0  0
   -1.6779    0.6109   -1.7374 H   0  0  0  0  0  0  0  0  0  0  0  0
   -3.8647   -0.9088   -1.0691 H   0  0  0  0  0  0  0  0  0  0  0  0
   -3.7425   -0.0956    0.5077 H   0  0  0  0  0  0  0  0  0  0  0  0
   -4.0620    0.8590   -1.0481 H   0  0  0  0  0  0  0  0  0  0  0  0
  1  2  1  0
  2  3  1  0
  3  4  2  0
  3  5  1  0
  5  6  1  0
  6  7  1  0
  7  8  1  0
  8  9  1  0
  8  6  1  0
  1 10  1  0
  1 11  1  0
  1 12  1  0
  2 13  1  0
  2 14  1  0
  5 15  1  0
  5 16  1  0
  6 17  1  0
  7 18  1  0
  7 19  1  0
  8 20  1  0
  9 21  1  0
  9 22  1  0
  9 23  1  0
M  END
