
     RDKit          3D

 25 25  0  0  0  0  0  0  0  0999 V2000
   -2.7307   -1.1027    0.0659 C   0  0  0  0  0  0  0  0  0  0  0  0
   -1.2977   -1.2440    0.4960 C   0  0  0  0  0  0  0  0  0  0  0  0
   -0.5230    0.0350    0.3058 C   0  0  0  0  0  0  0  0  0  0  0  0
   -0.4931    0.4604   -1.0167 O   0  0  0  0  0  0  0  0  0  0  0  0
   -1.1015    1.6994   -1.1521 C   0  0  0  0  0  0  0  0  0  0  0  0
    0.8822   -0.0392    0.7965 C   0  0  0  0  0  0  0  0  0  0  0  0
    1.7853   -1.0584    0.1842 C   0  0  0  0  0  0  0  0  0  0  0  0
    2.9044   -0.0071    0.2279 C   0  0  0  0  0  0  0  0  0  0  0  0
    1.7829    1.0401    0.2306 C   0  0  0  0  0  0  0  0  0  0  0  0
   -2.8390   -0.5828   -0.9057 H   0  0  0  0  0  0  0  0  0  0  0  0
   -3.2425   -2.0784   -0.0565 H   0  0  0  0  0  0  0  0  0  0  0  0
   -3.3223   -0.5519    0.8468 H   0  0  0  0  0  0  0  0  0  0  0  0
   -0.8765   -2.0968   -0.0554 H   0  0  0  0  0  0  0  0  0  0  0  0
   -1.2641   -1.4876    1.5723 H   0  0  0  0  0  0  0  0  0  0  0  0
   -1.0390    0.8238    0.8892 H   0  0  0  0  0  0  0  0  0  0  0  0
   -1.0969    2.0683   -2.1883 H   0  0  0  0  0  0  0  0  0  0  0  0
   -2.1368    1.7029   -0.7376 H   0  0  0  0  0  0  0  0  0  0  0  0
   -0.5526    2.4687   -0.5537 H   0  0  0  0  0  0  0  0  0  0  0  0
    0.9851   -0.0522    1.9028 H   0  0  0  0  0  0  0  0  0  0  0  0
    2.0256   -1.9045    0.8485 H   0  0  0  0  0  0  0  0  0  0  0  0
    1.6286   -1.3416   -0.8477 H   0  0  0  0  0  0  0  0  0  0  0  0
    3.4699    0.0064    1.1647 H   0  0  0  0  0  0  0  0  0  0  0  0
    3.5343    0.0135   -0.6687 H   0  0  0  0  0  0  0  0  0  0  0  0
    1.9724    1.8957    0.9098 H   0  0  0  0  0  0  0  0  0  0  0  0
    1.5449    1.3330   -0.8194 H   0  0  0  0  0  0  0  0  0  0  0  0
  1  2  1  0
  2  3  1  0
  3  4  1  0
  4  5  1  0
  3  6  1  0
  6  7  1  0
  7  8  1  0
  8  9  1  0
  9  6  1  0
  1 10  1  0
  1 11  1  0
  1 12  1  0
  2 13  1  0
  2 14  1  0
  3 15  1  0
  5 16  1  0
  5 17  1  0
  5 18  1  0
  6 19  1  0
  7 20  1  0
  7 21  1  0
  8 22  1  0
  8 23  1  0
  9 24  1  0
  9 25  1  0
M  END
