
     RDKit          3D

 25 24  0  0  0  0  0  0  0  0999 V2000
   -2.2642    0.3790   -0.3657 C   0  0  0  0  0  0  0  0  0  0  0  0
   -0.8464    0.1862   -0.8432 C   0  0  0  0  0  0  0  0  0  0  0  0
    0.1163   -0.0933    0.2818 C   0  0  0  0  0  0  0  0  0  0  0  0
    1.4802   -0.2679   -0.2979 C   0  0  0  0  0  0  0  0  0  0  0  0
    1.9225    0.9749   -1.0354 C   0  0  0  0  0  0  0  0  0  0  0  0
    0.0907    1.0424    1.3116 C   0  0  0  0  0  0  0  0  0  0  0  0
    0.9185    0.7309    2.3862 O   0  0  0  0  0  0  0  0  0  0  0  0
   -0.3444   -1.1944    0.9717 O   0  0  0  0  0  0  0  0  0  0  0  0
   -0.4636   -2.3441    0.2665 C   0  0  0  0  0  0  0  0  0  0  0  0
   -2.9292    0.0785   -1.2020 H   0  0  0  0  0  0  0  0  0  0  0  0
   -2.4956    1.4395   -0.1407 H   0  0  0  0  0  0  0  0  0  0  0  0
   -2.4238   -0.2951    0.5032 H   0  0  0  0  0  0  0  0  0  0  0  0
   -0.7947   -0.6034   -1.5961 H   0  0  0  0  0  0  0  0  0  0  0  0
   -0.5811    1.1420   -1.3824 H   0  0  0  0  0  0  0  0  0  0  0  0
    2.2188   -0.5917    0.4541 H   0  0  0  0  0  0  0  0  0  0  0  0
    1.3752   -1.0496   -1.1093 H   0  0  0  0  0  0  0  0  0  0  0  0
    1.3564    1.0708   -2.0034 H   0  0  0  0  0  0  0  0  0  0  0  0
    2.9933    0.8760   -1.3760 H   0  0  0  0  0  0  0  0  0  0  0  0
    1.7683    1.9132   -0.4959 H   0  0  0  0  0  0  0  0  0  0  0  0
    0.2930    2.0210    0.8856 H   0  0  0  0  0  0  0  0  0  0  0  0
   -0.9445    1.1087    1.7602 H   0  0  0  0  0  0  0  0  0  0  0  0
    1.2735    1.5864    2.7441 H   0  0  0  0  0  0  0  0  0  0  0  0
   -0.8477   -3.1282    0.9843 H   0  0  0  0  0  0  0  0  0  0  0  0
   -1.2934   -2.2407   -0.4926 H   0  0  0  0  0  0  0  0  0  0  0  0
    0.4219   -2.7410   -0.2087 H   0  0  0  0  0  0  0  0  0  0  0  0
  1  2  1  0
  2  3  1  0
  3  4  1  0
  4  5  1  0
  3  6  1  0
  6  7  1  0
  3  8  1  0
  8  9  1  0
  1 10  1  0
  1 11  1  0
  1 12  1  0
  2 13  1  0
  2 14  1  0
  4 15  1  0
  4 16  1  0
  5 17  1  0
  5 18  1  0
  5 19  1  0
  6 20  1  0
  6 21  1  0
  7 22  1  0
  9 23  1  0
  9 24  1  0
  9 25  1  0
M  END
