
     RDKit          3D

 27 27  0  0  0  0  0  0  0  0999 V2000
   -2.5977    1.1524    0.4970 C   0  0  0  0  0  0  0  0  0  0  0  0
   -2.0674    0.5740   -0.7715 C   0  0  0  0  0  0  0  0  0  0  0  0
   -1.0449   -0.5110   -0.5242 C   0  0  0  0  0  0  0  0  0  0  0  0
   -1.7041   -1.6083    0.2676 C   0  0  0  0  0  0  0  0  0  0  0  0
    0.0941    0.1026    0.2342 C   0  0  0  0  0  0  0  0  0  0  0  0
    1.2268   -0.8600    0.5715 C   0  0  0  0  0  0  0  0  0  0  0  0
    2.1370    0.3657    0.3838 C   0  0  0  0  0  0  0  0  0  0  0  0
    3.4977    0.0309   -0.1726 C   0  0  0  0  0  0  0  0  0  0  0  0
    1.1237    0.8096   -0.6579 C   0  0  0  0  0  0  0  0  0  0  0  0
   -2.9096    0.4267    1.2492 H   0  0  0  0  0  0  0  0  0  0  0  0
   -3.5035    1.7637    0.2388 H   0  0  0  0  0  0  0  0  0  0  0  0
   -1.8807    1.8796    0.9421 H   0  0  0  0  0  0  0  0  0  0  0  0
   -2.9090    0.2058   -1.4191 H   0  0  0  0  0  0  0  0  0  0  0  0
   -1.5143    1.3995   -1.3000 H   0  0  0  0  0  0  0  0  0  0  0  0
   -0.6746   -0.9226   -1.4589 H   0  0  0  0  0  0  0  0  0  0  0  0
   -2.6648   -1.8445   -0.2542 H   0  0  0  0  0  0  0  0  0  0  0  0
   -1.1015   -2.5444    0.2542 H   0  0  0  0  0  0  0  0  0  0  0  0
   -1.8910   -1.3395    1.3147 H   0  0  0  0  0  0  0  0  0  0  0  0
   -0.1443    0.7123    1.1040 H   0  0  0  0  0  0  0  0  0  0  0  0
    1.4540   -1.5730   -0.2581 H   0  0  0  0  0  0  0  0  0  0  0  0
    1.2139   -1.2713    1.5772 H   0  0  0  0  0  0  0  0  0  0  0  0
    2.1266    0.9629    1.2940 H   0  0  0  0  0  0  0  0  0  0  0  0
    3.9224    0.9795   -0.5724 H   0  0  0  0  0  0  0  0  0  0  0  0
    4.1369   -0.2453    0.6902 H   0  0  0  0  0  0  0  0  0  0  0  0
    3.4284   -0.7692   -0.9057 H   0  0  0  0  0  0  0  0  0  0  0  0
    0.9601    1.8829   -0.7384 H   0  0  0  0  0  0  0  0  0  0  0  0
    1.2858    0.2409   -1.5855 H   0  0  0  0  0  0  0  0  0  0  0  0
  1  2  1  0
  2  3  1  0
  3  4  1  0
  3  5  1  0
  5  6  1  0
  6  7  1  0
  7  8  1  0
  7  9  1  0
  9  5  1  0
  1 10  1  0
  1 11  1  0
  1 12  1  0
  2 13  1  0
  2 14  1  0
  3 15  1  0
  4 16  1  0
  4 17  1  0
  4 18  1  0
  5 19  1  0
  6 20  1  0
  6 21  1  0
  7 22  1  0
  8 23  1  0
  8 24  1  0
  8 25  1  0
  9 26  1  0
  9 27  1  0
M  END
