
     RDKit          3D

 17 16  0  0  0  0  0  0  0  0999 V2000
   -2.4961    0.5342   -0.0175 C   0  0  0  0  0  0  0  0  0  0  0  0
   -1.5519   -0.6421   -0.1659 C   0  0  0  0  0  0  0  0  0  0  0  0
   -0.1946   -0.0939   -0.5376 C   0  0  0  0  0  0  0  0  0  0  0  0
   -0.1792    0.5958   -1.5525 O   0  0  0  0  0  0  0  0  0  0  0  0
    1.0082   -0.3797    0.2817 C   0  0  0  0  0  0  0  0  0  0  0  0
    2.1913    0.3146   -0.4093 C   0  0  0  0  0  0  0  0  0  0  0  0
    3.3648    0.1269    0.2744 O   0  0  0  0  0  0  0  0  0  0  0  0
   -3.0135    0.8054   -0.9546 H   0  0  0  0  0  0  0  0  0  0  0  0
   -1.9387    1.4524    0.2859 H   0  0  0  0  0  0  0  0  0  0  0  0
   -3.2455    0.2646    0.7846 H   0  0  0  0  0  0  0  0  0  0  0  0
   -1.9310   -1.1929   -1.0812 H   0  0  0  0  0  0  0  0  0  0  0  0
   -1.4742   -1.2831    0.7012 H   0  0  0  0  0  0  0  0  0  0  0  0
    1.2115   -1.4606    0.3769 H   0  0  0  0  0  0  0  0  0  0  0  0
    0.8317    0.0918    1.2905 H   0  0  0  0  0  0  0  0  0  0  0  0
    2.2179   -0.1271   -1.4427 H   0  0  0  0  0  0  0  0  0  0  0  0
    1.9277    1.3958   -0.4385 H   0  0  0  0  0  0  0  0  0  0  0  0
    3.2716   -0.4021    1.1018 H   0  0  0  0  0  0  0  0  0  0  0  0
  1  2  1  0
  2  3  1  0
  3  4  2  0
  3  5  1  0
  5  6  1  0
  6  7  1  0
  1  8  1  0
  1  9  1  0
  1 10  1  0
  2 11  1  0
  2 12  1  0
  5 13  1  0
  5 14  1  0
  6 15  1  0
  6 16  1  0
  7 17  1  0
M  END
