
     RDKit          3D

 25 24  0  0  0  0  0  0  0  0999 V2000
   -1.8506    1.4860    0.3059 C   0  0  0  0  0  0  0  0  0  0  0  0
   -2.0163   -0.0042    0.3901 C   0  0  0  0  0  0  0  0  0  0  0  0
   -1.1016   -0.7803   -0.4856 C   0  0  0  0  0  0  0  0  0  0  0  0
   -1.4719   -2.2777   -0.2606 C   0  0  0  0  0  0  0  0  0  0  0  0
    0.3479   -0.7167   -0.2031 C   0  0  0  0  0  0  0  0  0  0  0  0
    1.0373    0.5891   -0.2541 C   0  0  0  0  0  0  0  0  0  0  0  0
    2.5199    0.2685    0.0563 C   0  0  0  0  0  0  0  0  0  0  0  0
    3.3273    1.5003    0.0365 C   0  0  0  0  0  0  0  0  0  0  0  0
    2.8978    2.6161   -0.1907 O   0  0  0  0  0  0  0  0  0  0  0  0
   -1.2643    1.8278   -0.5718 H   0  0  0  0  0  0  0  0  0  0  0  0
   -1.4464    1.8737    1.2745 H   0  0  0  0  0  0  0  0  0  0  0  0
   -2.8989    1.9227    0.2112 H   0  0  0  0  0  0  0  0  0  0  0  0
   -3.0933   -0.2328    0.1276 H   0  0  0  0  0  0  0  0  0  0  0  0
   -1.9408   -0.3423    1.4535 H   0  0  0  0  0  0  0  0  0  0  0  0
   -1.3394   -0.6028   -1.5522 H   0  0  0  0  0  0  0  0  0  0  0  0
   -1.1210   -2.4872    0.7719 H   0  0  0  0  0  0  0  0  0  0  0  0
   -0.8377   -2.8509   -0.9430 H   0  0  0  0  0  0  0  0  0  0  0  0
   -2.5421   -2.4277   -0.3882 H   0  0  0  0  0  0  0  0  0  0  0  0
    0.5626   -1.1742    0.7955 H   0  0  0  0  0  0  0  0  0  0  0  0
    0.8535   -1.4065   -0.9493 H   0  0  0  0  0  0  0  0  0  0  0  0
    0.9508    1.1693   -1.1705 H   0  0  0  0  0  0  0  0  0  0  0  0
    0.6976    1.2552    0.5874 H   0  0  0  0  0  0  0  0  0  0  0  0
    2.5048   -0.1056    1.1075 H   0  0  0  0  0  0  0  0  0  0  0  0
    2.8381   -0.5041   -0.6472 H   0  0  0  0  0  0  0  0  0  0  0  0
    4.3867    1.4045    0.2402 H   0  0  0  0  0  0  0  0  0  0  0  0
  1  2  1  0
  2  3  1  0
  3  4  1  0
  3  5  1  0
  5  6  1  0
  6  7  1  0
  7  8  1  0
  8  9  2  0
  1 10  1  0
  1 11  1  0
  1 12  1  0
  2 13  1  0
  2 14  1  0
  3 15  1  0
  4 16  1  0
  4 17  1  0
  4 18  1  0
  5 19  1  0
  5 20  1  0
  6 21  1  0
  6 22  1  0
  7 23  1  0
  7 24  1  0
  8 25  1  0
M  END
