
     RDKit          3D

 27 27  0  0  0  0  0  0  0  0999 V2000
   -1.4788   -2.3828    0.3676 C   0  0  0  0  0  0  0  0  0  0  0  0
   -0.3464   -1.4616   -0.0187 C   0  0  0  0  0  0  0  0  0  0  0  0
   -0.7071   -0.0121    0.0642 C   0  0  0  0  0  0  0  0  0  0  0  0
   -1.8486    0.3771   -0.8254 C   0  0  0  0  0  0  0  0  0  0  0  0
   -2.0795    1.8782   -0.6152 C   0  0  0  0  0  0  0  0  0  0  0  0
    0.5349    0.7892   -0.2704 C   0  0  0  0  0  0  0  0  0  0  0  0
    1.5941    0.4365    0.7324 C   0  0  0  0  0  0  0  0  0  0  0  0
    2.9294    1.0910    0.6300 C   0  0  0  0  0  0  0  0  0  0  0  0
    2.8297   -0.3331    0.1998 C   0  0  0  0  0  0  0  0  0  0  0  0
   -2.2097   -2.4245   -0.4714 H   0  0  0  0  0  0  0  0  0  0  0  0
   -1.9502   -2.0600    1.3217 H   0  0  0  0  0  0  0  0  0  0  0  0
   -1.0329   -3.3821    0.5549 H   0  0  0  0  0  0  0  0  0  0  0  0
    0.4758   -1.6448    0.7034 H   0  0  0  0  0  0  0  0  0  0  0  0
    0.0147   -1.7607   -1.0134 H   0  0  0  0  0  0  0  0  0  0  0  0
   -0.9922    0.2269    1.1062 H   0  0  0  0  0  0  0  0  0  0  0  0
   -2.7614   -0.1216   -0.4767 H   0  0  0  0  0  0  0  0  0  0  0  0
   -1.6589    0.2124   -1.8920 H   0  0  0  0  0  0  0  0  0  0  0  0
   -1.7285    2.1652    0.4194 H   0  0  0  0  0  0  0  0  0  0  0  0
   -3.1619    2.0880   -0.6799 H   0  0  0  0  0  0  0  0  0  0  0  0
   -1.4611    2.4595   -1.3100 H   0  0  0  0  0  0  0  0  0  0  0  0
    0.8700    0.4316   -1.2756 H   0  0  0  0  0  0  0  0  0  0  0  0
    0.3352    1.8753   -0.3237 H   0  0  0  0  0  0  0  0  0  0  0  0
    1.2885    0.0943    1.7538 H   0  0  0  0  0  0  0  0  0  0  0  0
    2.9921    1.8776   -0.1670 H   0  0  0  0  0  0  0  0  0  0  0  0
    3.4864    1.2673    1.5601 H   0  0  0  0  0  0  0  0  0  0  0  0
    2.8356   -0.5453   -0.8873 H   0  0  0  0  0  0  0  0  0  0  0  0
    3.2306   -1.1416    0.8133 H   0  0  0  0  0  0  0  0  0  0  0  0
  1  2  1  0
  2  3  1  0
  3  4  1  0
  4  5  1  0
  3  6  1  0
  6  7  1  0
  7  8  1  0
  8  9  1  0
  9  7  1  0
  1 10  1  0
  1 11  1  0
  1 12  1  0
  2 13  1  0
  2 14  1  0
  3 15  1  0
  4 16  1  0
  4 17  1  0
  5 18  1  0
  5 19  1  0
  5 20  1  0
  6 21  1  0
  6 22  1  0
  7 23  1  0
  8 24  1  0
  8 25  1  0
  9 26  1  0
  9 27  1  0
M  END
