
     RDKit          3D

 21 20  0  0  0  0  0  0  0  0999 V2000
    2.4185    1.4699    0.3372 C   0  0  0  0  0  0  0  0  0  0  0  0
    1.8483    0.1373   -0.1050 C   0  0  0  0  0  0  0  0  0  0  0  0
    0.4166    0.2269   -0.4433 C   0  0  0  0  0  0  0  0  0  0  0  0
    0.0479    1.0221   -1.2890 O   0  0  0  0  0  0  0  0  0  0  0  0
   -0.5615   -0.6311    0.2292 C   0  0  0  0  0  0  0  0  0  0  0  0
   -0.1574   -2.0855   -0.0215 C   0  0  0  0  0  0  0  0  0  0  0  0
   -1.9488   -0.4138   -0.1853 C   0  0  0  0  0  0  0  0  0  0  0  0
   -2.5951    0.9127   -0.0676 C   0  0  0  0  0  0  0  0  0  0  0  0
   -2.5879   -1.3331   -0.6349 O   0  0  0  0  0  0  0  0  0  0  0  0
    2.8661    2.0331   -0.5023 H   0  0  0  0  0  0  0  0  0  0  0  0
    3.2369    1.2605    1.0839 H   0  0  0  0  0  0  0  0  0  0  0  0
    1.6620    2.0548    0.9008 H   0  0  0  0  0  0  0  0  0  0  0  0
    2.0881   -0.6203    0.6665 H   0  0  0  0  0  0  0  0  0  0  0  0
    2.4225   -0.1810   -1.0188 H   0  0  0  0  0  0  0  0  0  0  0  0
   -0.5087   -0.3922    1.3164 H   0  0  0  0  0  0  0  0  0  0  0  0
    0.8726   -2.1613   -0.3868 H   0  0  0  0  0  0  0  0  0  0  0  0
   -0.2771   -2.6032    0.9716 H   0  0  0  0  0  0  0  0  0  0  0  0
   -0.8957   -2.4888   -0.7336 H   0  0  0  0  0  0  0  0  0  0  0  0
   -2.8753    1.2861   -1.0736 H   0  0  0  0  0  0  0  0  0  0  0  0
   -3.5507    0.8498    0.5320 H   0  0  0  0  0  0  0  0  0  0  0  0
   -1.9214    1.6572    0.4237 H   0  0  0  0  0  0  0  0  0  0  0  0
  1  2  1  0
  2  3  1  0
  3  4  2  0
  3  5  1  0
  5  6  1  0
  5  7  1  0
  7  8  1  0
  7  9  2  0
  1 10  1  0
  1 11  1  0
  1 12  1  0
  2 13  1  0
  2 14  1  0
  5 15  1  0
  6 16  1  0
  6 17  1  0
  6 18  1  0
  8 19  1  0
  8 20  1  0
  8 21  1  0
M  END
