
     RDKit          3D

 23 22  0  0  0  0  0  0  0  0999 V2000
   -2.8317    0.7083   -0.0678 C   0  0  0  0  0  0  0  0  0  0  0  0
   -1.4162    1.0279    0.3372 C   0  0  0  0  0  0  0  0  0  0  0  0
   -0.4242    0.0264   -0.2778 C   0  0  0  0  0  0  0  0  0  0  0  0
   -0.7630   -1.3689    0.1990 C   0  0  0  0  0  0  0  0  0  0  0  0
   -0.5102    0.0932   -1.6639 O   0  0  0  0  0  0  0  0  0  0  0  0
    0.9220    0.3960    0.2427 C   0  0  0  0  0  0  0  0  0  0  0  0
    2.0278   -0.4395   -0.2264 C   0  0  0  0  0  0  0  0  0  0  0  0
    3.4020   -0.1091    0.2777 C   0  0  0  0  0  0  0  0  0  0  0  0
    1.9549   -1.3808   -0.9868 O   0  0  0  0  0  0  0  0  0  0  0  0
   -3.1827   -0.1176    0.5888 H   0  0  0  0  0  0  0  0  0  0  0  0
   -3.4342    1.6235    0.1219 H   0  0  0  0  0  0  0  0  0  0  0  0
   -2.9286    0.4521   -1.1365 H   0  0  0  0  0  0  0  0  0  0  0  0
   -1.1475    2.0290   -0.0061 H   0  0  0  0  0  0  0  0  0  0  0  0
   -1.3128    0.9239    1.4330 H   0  0  0  0  0  0  0  0  0  0  0  0
   -1.3457   -1.2518    1.1461 H   0  0  0  0  0  0  0  0  0  0  0  0
   -1.3548   -1.8723   -0.5909 H   0  0  0  0  0  0  0  0  0  0  0  0
    0.1770   -1.8779    0.4344 H   0  0  0  0  0  0  0  0  0  0  0  0
   -1.2053   -0.5780   -1.9341 H   0  0  0  0  0  0  0  0  0  0  0  0
    0.8796    0.2968    1.3603 H   0  0  0  0  0  0  0  0  0  0  0  0
    1.1834    1.4658    0.0646 H   0  0  0  0  0  0  0  0  0  0  0  0
    4.0782    0.0400   -0.6141 H   0  0  0  0  0  0  0  0  0  0  0  0
    3.8028   -0.9431    0.9142 H   0  0  0  0  0  0  0  0  0  0  0  0
    3.4292    0.8563    0.8187 H   0  0  0  0  0  0  0  0  0  0  0  0
  1  2  1  0
  2  3  1  0
  3  4  1  0
  3  5  1  0
  3  6  1  0
  6  7  1  0
  7  8  1  0
  7  9  2  0
  1 10  1  0
  1 11  1  0
  1 12  1  0
  2 13  1  0
  2 14  1  0
  4 15  1  0
  4 16  1  0
  4 17  1  0
  5 18  1  0
  6 19  1  0
  6 20  1  0
  8 21  1  0
  8 22  1  0
  8 23  1  0
M  END
