
     RDKit          3D

 23 23  0  0  0  0  0  0  0  0999 V2000
    0.7697   -2.3007   -0.2753 C   0  0  0  0  0  0  0  0  0  0  0  0
    0.9856   -0.9016   -0.7774 C   0  0  0  0  0  0  0  0  0  0  0  0
    0.4791    0.1800    0.1338 C   0  0  0  0  0  0  0  0  0  0  0  0
    0.8269    1.4128   -0.5041 O   0  0  0  0  0  0  0  0  0  0  0  0
    1.6635    2.1448    0.3357 C   0  0  0  0  0  0  0  0  0  0  0  0
   -0.9949    0.2592    0.3208 C   0  0  0  0  0  0  0  0  0  0  0  0
   -1.8557   -0.9597    0.4037 C   0  0  0  0  0  0  0  0  0  0  0  0
   -1.7394    1.4879   -0.2158 C   0  0  0  0  0  0  0  0  0  0  0  0
   -1.3594    1.3686    1.1248 O   0  0  0  0  0  0  0  0  0  0  0  0
    1.6022   -2.9793   -0.6378 H   0  0  0  0  0  0  0  0  0  0  0  0
   -0.1595   -2.7138   -0.6964 H   0  0  0  0  0  0  0  0  0  0  0  0
    0.7974   -2.3436    0.8496 H   0  0  0  0  0  0  0  0  0  0  0  0
    2.0970   -0.7772   -0.9362 H   0  0  0  0  0  0  0  0  0  0  0  0
    0.4730   -0.7378   -1.7619 H   0  0  0  0  0  0  0  0  0  0  0  0
    0.9660    0.1295    1.1294 H   0  0  0  0  0  0  0  0  0  0  0  0
    1.9468    3.1023   -0.1342 H   0  0  0  0  0  0  0  0  0  0  0  0
    1.1807    2.3405    1.2982 H   0  0  0  0  0  0  0  0  0  0  0  0
    2.6044    1.5456    0.4292 H   0  0  0  0  0  0  0  0  0  0  0  0
   -2.0298   -1.3283   -0.6279 H   0  0  0  0  0  0  0  0  0  0  0  0
   -2.8962   -0.6830    0.7559 H   0  0  0  0  0  0  0  0  0  0  0  0
   -1.4383   -1.7419    1.0476 H   0  0  0  0  0  0  0  0  0  0  0  0
   -1.1064    2.0923   -0.8896 H   0  0  0  0  0  0  0  0  0  0  0  0
   -2.8126    1.4035   -0.3721 H   0  0  0  0  0  0  0  0  0  0  0  0
  1  2  1  0
  2  3  1  0
  3  4  1  0
  4  5  1  0
  3  6  1  0
  6  7  1  0
  6  8  1  0
  8  9  1  0
  9  6  1  0
  1 10  1  0
  1 11  1  0
  1 12  1  0
  2 13  1  0
  2 14  1  0
  3 15  1  0
  5 16  1  0
  5 17  1  0
  5 18  1  0
  7 19  1  0
  7 20  1  0
  7 21  1  0
  8 22  1  0
  8 23  1  0
M  END
