
     RDKit          3D

 25 25  0  0  0  0  0  0  0  0999 V2000
   -1.0516    1.7427    0.2926 C   0  0  0  0  0  0  0  0  0  0  0  0
   -1.4001    0.4493   -0.3905 C   0  0  0  0  0  0  0  0  0  0  0  0
   -0.4363   -0.6679   -0.1556 C   0  0  0  0  0  0  0  0  0  0  0  0
   -0.2840   -1.0451    1.2808 C   0  0  0  0  0  0  0  0  0  0  0  0
   -1.0571   -1.9024   -0.8420 C   0  0  0  0  0  0  0  0  0  0  0  0
    0.8697   -0.4568   -0.8890 C   0  0  0  0  0  0  0  0  0  0  0  0
    1.5879    0.7847   -0.5002 C   0  0  0  0  0  0  0  0  0  0  0  0
    2.0590    1.1007    0.8277 C   0  0  0  0  0  0  0  0  0  0  0  0
    2.9696    0.4506   -0.0938 O   0  0  0  0  0  0  0  0  0  0  0  0
   -0.3618    2.3799   -0.3216 H   0  0  0  0  0  0  0  0  0  0  0  0
   -2.0093    2.3443    0.3126 H   0  0  0  0  0  0  0  0  0  0  0  0
   -0.7411    1.6533    1.3291 H   0  0  0  0  0  0  0  0  0  0  0  0
   -2.4433    0.1785   -0.1343 H   0  0  0  0  0  0  0  0  0  0  0  0
   -1.4353    0.6870   -1.4938 H   0  0  0  0  0  0  0  0  0  0  0  0
   -0.3643   -0.2303    1.9990 H   0  0  0  0  0  0  0  0  0  0  0  0
    0.6759   -1.5866    1.4817 H   0  0  0  0  0  0  0  0  0  0  0  0
   -1.0709   -1.7927    1.6029 H   0  0  0  0  0  0  0  0  0  0  0  0
   -0.3540   -2.7331   -0.6753 H   0  0  0  0  0  0  0  0  0  0  0  0
   -2.0762   -2.0851   -0.4871 H   0  0  0  0  0  0  0  0  0  0  0  0
   -1.0406   -1.6701   -1.9223 H   0  0  0  0  0  0  0  0  0  0  0  0
    0.5651   -0.4317   -1.9817 H   0  0  0  0  0  0  0  0  0  0  0  0
    1.4684   -1.3606   -0.7266 H   0  0  0  0  0  0  0  0  0  0  0  0
    1.6894    1.5868   -1.2700 H   0  0  0  0  0  0  0  0  0  0  0  0
    1.9115    0.4464    1.7077 H   0  0  0  0  0  0  0  0  0  0  0  0
    2.3293    2.1582    1.0494 H   0  0  0  0  0  0  0  0  0  0  0  0
  1  2  1  0
  2  3  1  0
  3  4  1  0
  3  5  1  0
  3  6  1  0
  6  7  1  0
  7  8  1  0
  8  9  1  0
  9  7  1  0
  1 10  1  0
  1 11  1  0
  1 12  1  0
  2 13  1  0
  2 14  1  0
  4 15  1  0
  4 16  1  0
  4 17  1  0
  5 18  1  0
  5 19  1  0
  5 20  1  0
  6 21  1  0
  6 22  1  0
  7 23  1  0
  8 24  1  0
  8 25  1  0
M  END
