
     RDKit          3D

 23 23  0  0  0  0  0  0  0  0999 V2000
    2.9792    0.7643    0.2762 C   0  0  0  0  0  0  0  0  0  0  0  0
    2.0033   -0.2702   -0.2585 C   0  0  0  0  0  0  0  0  0  0  0  0
    1.2858   -0.9736    0.8058 C   0  0  0  0  0  0  0  0  0  0  0  0
    1.9243   -1.8626    1.3966 O   0  0  0  0  0  0  0  0  0  0  0  0
   -0.0804   -0.7705    1.2668 C   0  0  0  0  0  0  0  0  0  0  0  0
   -0.8866    0.2650    0.5959 C   0  0  0  0  0  0  0  0  0  0  0  0
   -1.1569    0.1681   -0.8558 C   0  0  0  0  0  0  0  0  0  0  0  0
   -2.6438    0.4146   -0.5657 C   0  0  0  0  0  0  0  0  0  0  0  0
   -2.3800   -0.0032    0.8392 C   0  0  0  0  0  0  0  0  0  0  0  0
    3.9059    0.2511    0.5344 H   0  0  0  0  0  0  0  0  0  0  0  0
    3.2143    1.5133   -0.5069 H   0  0  0  0  0  0  0  0  0  0  0  0
    2.5573    1.3028    1.1522 H   0  0  0  0  0  0  0  0  0  0  0  0
    2.6334   -1.0182   -0.8264 H   0  0  0  0  0  0  0  0  0  0  0  0
    1.3893    0.2272   -1.0099 H   0  0  0  0  0  0  0  0  0  0  0  0
   -0.6030   -1.7699    1.2336 H   0  0  0  0  0  0  0  0  0  0  0  0
   -0.0415   -0.5244    2.3590 H   0  0  0  0  0  0  0  0  0  0  0  0
   -0.6779    1.3189    0.9338 H   0  0  0  0  0  0  0  0  0  0  0  0
   -0.8193    0.9984   -1.5097 H   0  0  0  0  0  0  0  0  0  0  0  0
   -1.0056   -0.8518   -1.2354 H   0  0  0  0  0  0  0  0  0  0  0  0
   -2.9122    1.5117   -0.5869 H   0  0  0  0  0  0  0  0  0  0  0  0
   -3.3092   -0.2251   -1.1726 H   0  0  0  0  0  0  0  0  0  0  0  0
   -2.5643   -1.0911    0.9601 H   0  0  0  0  0  0  0  0  0  0  0  0
   -2.8122    0.6253    1.6387 H   0  0  0  0  0  0  0  0  0  0  0  0
  1  2  1  0
  2  3  1  0
  3  4  2  0
  3  5  1  0
  5  6  1  0
  6  7  1  0
  7  8  1  0
  8  9  1  0
  9  6  1  0
  1 10  1  0
  1 11  1  0
  1 12  1  0
  2 13  1  0
  2 14  1  0
  5 15  1  0
  5 16  1  0
  6 17  1  0
  7 18  1  0
  7 19  1  0
  8 20  1  0
  8 21  1  0
  9 22  1  0
  9 23  1  0
M  END
