
     RDKit          3D

 25 24  0  0  0  0  0  0  0  0999 V2000
    2.4287    0.4351    1.1708 C   0  0  0  0  0  0  0  0  0  0  0  0
    2.0097    0.4361   -0.2584 C   0  0  0  0  0  0  0  0  0  0  0  0
    0.5990   -0.1011   -0.4664 C   0  0  0  0  0  0  0  0  0  0  0  0
    0.4686   -1.5049    0.0091 C   0  0  0  0  0  0  0  0  0  0  0  0
    0.4389   -0.1246   -1.8748 O   0  0  0  0  0  0  0  0  0  0  0  0
   -0.4007    0.8774    0.0464 C   0  0  0  0  0  0  0  0  0  0  0  0
   -1.8315    0.5508   -0.0713 C   0  0  0  0  0  0  0  0  0  0  0  0
   -2.3233   -0.6739    0.6314 C   0  0  0  0  0  0  0  0  0  0  0  0
   -2.5408    1.6303    0.5198 O   0  0  0  0  0  0  0  0  0  0  0  0
    2.5174    1.5029    1.5133 H   0  0  0  0  0  0  0  0  0  0  0  0
    3.4503    0.0023    1.3145 H   0  0  0  0  0  0  0  0  0  0  0  0
    1.7136   -0.0420    1.8636 H   0  0  0  0  0  0  0  0  0  0  0  0
    2.0073    1.4692   -0.6862 H   0  0  0  0  0  0  0  0  0  0  0  0
    2.7603   -0.1282   -0.8499 H   0  0  0  0  0  0  0  0  0  0  0  0
   -0.0707   -2.1277   -0.7445 H   0  0  0  0  0  0  0  0  0  0  0  0
    1.5121   -1.9390   -0.0153 H   0  0  0  0  0  0  0  0  0  0  0  0
    0.0056   -1.6672    0.9769 H   0  0  0  0  0  0  0  0  0  0  0  0
    0.8837   -0.9560   -2.1791 H   0  0  0  0  0  0  0  0  0  0  0  0
   -0.1981    1.8527   -0.4629 H   0  0  0  0  0  0  0  0  0  0  0  0
   -0.1626    1.0387    1.1389 H   0  0  0  0  0  0  0  0  0  0  0  0
   -2.2089    0.5211   -1.1207 H   0  0  0  0  0  0  0  0  0  0  0  0
   -2.2079   -1.6181    0.1011 H   0  0  0  0  0  0  0  0  0  0  0  0
   -2.0066   -0.6916    1.7066 H   0  0  0  0  0  0  0  0  0  0  0  0
   -3.4572   -0.5460    0.7009 H   0  0  0  0  0  0  0  0  0  0  0  0
   -3.3870    1.8037    0.0485 H   0  0  0  0  0  0  0  0  0  0  0  0
  1  2  1  0
  2  3  1  0
  3  4  1  0
  3  5  1  0
  3  6  1  0
  6  7  1  0
  7  8  1  0
  7  9  1  0
  1 10  1  0
  1 11  1  0
  1 12  1  0
  2 13  1  0
  2 14  1  0
  4 15  1  0
  4 16  1  0
  4 17  1  0
  5 18  1  0
  6 19  1  0
  6 20  1  0
  7 21  1  0
  8 22  1  0
  8 23  1  0
  8 24  1  0
  9 25  1  0
M  END
