
     RDKit          3D

 18 18  0  0  0  0  0  0  0  0999 V2000
   -2.9152   -0.0090    0.4804 C   0  0  0  0  0  0  0  0  0  0  0  0
   -1.5900    0.5860    0.0593 C   0  0  0  0  0  0  0  0  0  0  0  0
   -0.6164   -0.4377   -0.3506 C   0  0  0  0  0  0  0  0  0  0  0  0
   -0.9846   -1.5999   -0.2962 O   0  0  0  0  0  0  0  0  0  0  0  0
    0.7458   -0.1453   -0.8126 C   0  0  0  0  0  0  0  0  0  0  0  0
    1.7704   -0.2846    0.3251 C   0  0  0  0  0  0  0  0  0  0  0  0
    3.1351   -0.0272   -0.0014 C   0  0  0  0  0  0  0  0  0  0  0  0
    2.3780    0.8803    0.7772 O   0  0  0  0  0  0  0  0  0  0  0  0
   -3.7599    0.2837   -0.1735 H   0  0  0  0  0  0  0  0  0  0  0  0
   -2.8659   -1.1152    0.5605 H   0  0  0  0  0  0  0  0  0  0  0  0
   -3.1587    0.4513    1.4826 H   0  0  0  0  0  0  0  0  0  0  0  0
   -1.1000    1.1363    0.9175 H   0  0  0  0  0  0  0  0  0  0  0  0
   -1.8430    1.3161   -0.7633 H   0  0  0  0  0  0  0  0  0  0  0  0
    1.0904   -0.9000   -1.5796 H   0  0  0  0  0  0  0  0  0  0  0  0
    0.8392    0.8399   -1.3129 H   0  0  0  0  0  0  0  0  0  0  0  0
    1.4661   -0.9850    1.1361 H   0  0  0  0  0  0  0  0  0  0  0  0
    4.0302   -0.3738    0.5498 H   0  0  0  0  0  0  0  0  0  0  0  0
    3.3783    0.3842   -0.9986 H   0  0  0  0  0  0  0  0  0  0  0  0
  1  2  1  0
  2  3  1  0
  3  4  2  0
  3  5  1  0
  5  6  1  0
  6  7  1  0
  7  8  1  0
  8  6  1  0
  1  9  1  0
  1 10  1  0
  1 11  1  0
  2 12  1  0
  2 13  1  0
  5 14  1  0
  5 15  1  0
  6 16  1  0
  7 17  1  0
  7 18  1  0
M  END
