
     RDKit          3D

 23 22  0  0  0  0  0  0  0  0999 V2000
   -1.2122    1.9880    0.2297 C   0  0  0  0  0  0  0  0  0  0  0  0
   -1.1129    1.0452   -0.9069 C   0  0  0  0  0  0  0  0  0  0  0  0
   -0.2279   -0.1442   -0.6675 C   0  0  0  0  0  0  0  0  0  0  0  0
    1.1893    0.2051   -0.3625 C   0  0  0  0  0  0  0  0  0  0  0  0
    1.8912   -0.9843   -0.1640 O   0  0  0  0  0  0  0  0  0  0  0  0
    3.2357   -0.6566    0.1257 C   0  0  0  0  0  0  0  0  0  0  0  0
   -0.7816   -1.0371    0.3805 C   0  0  0  0  0  0  0  0  0  0  0  0
   -2.1339   -1.6683    0.1946 C   0  0  0  0  0  0  0  0  0  0  0  0
   -0.1397   -1.2672    1.4068 O   0  0  0  0  0  0  0  0  0  0  0  0
   -1.4563    3.0182   -0.1034 H   0  0  0  0  0  0  0  0  0  0  0  0
   -0.3086    2.0692    0.8599 H   0  0  0  0  0  0  0  0  0  0  0  0
   -2.0417    1.7013    0.9369 H   0  0  0  0  0  0  0  0  0  0  0  0
   -0.8140    1.5899   -1.8252 H   0  0  0  0  0  0  0  0  0  0  0  0
   -2.1401    0.6408   -1.1107 H   0  0  0  0  0  0  0  0  0  0  0  0
   -0.2255   -0.7373   -1.6215 H   0  0  0  0  0  0  0  0  0  0  0  0
    1.6852    0.7279   -1.1968 H   0  0  0  0  0  0  0  0  0  0  0  0
    1.2374    0.7655    0.5914 H   0  0  0  0  0  0  0  0  0  0  0  0
    3.2598   -0.0226    1.0569 H   0  0  0  0  0  0  0  0  0  0  0  0
    3.6952   -0.0939   -0.6854 H   0  0  0  0  0  0  0  0  0  0  0  0
    3.8145   -1.5632    0.3765 H   0  0  0  0  0  0  0  0  0  0  0  0
   -2.9400   -0.9159    0.2490 H   0  0  0  0  0  0  0  0  0  0  0  0
   -2.1663   -2.2734   -0.7449 H   0  0  0  0  0  0  0  0  0  0  0  0
   -2.3078   -2.3872    1.0186 H   0  0  0  0  0  0  0  0  0  0  0  0
  1  2  1  0
  2  3  1  0
  3  4  1  0
  4  5  1  0
  5  6  1  0
  3  7  1  0
  7  8  1  0
  7  9  2  0
  1 10  1  0
  1 11  1  0
  1 12  1  0
  2 13  1  0
  2 14  1  0
  3 15  1  0
  4 16  1  0
  4 17  1  0
  6 18  1  0
  6 19  1  0
  6 20  1  0
  8 21  1  0
  8 22  1  0
  8 23  1  0
M  END
