
     RDKit          3D

 23 22  0  0  0  0  0  0  0  0999 V2000
   -0.9949   -1.7546   -0.7657 C   0  0  0  0  0  0  0  0  0  0  0  0
   -1.1972   -0.3485   -0.3572 C   0  0  0  0  0  0  0  0  0  0  0  0
   -0.0183    0.4294    0.0786 C   0  0  0  0  0  0  0  0  0  0  0  0
   -0.5103    1.8361    0.4488 C   0  0  0  0  0  0  0  0  0  0  0  0
   -1.1497    2.5277   -0.6797 C   0  0  0  0  0  0  0  0  0  0  0  0
   -2.3244    2.3874   -0.9635 O   0  0  0  0  0  0  0  0  0  0  0  0
    0.7244   -0.0764    1.2616 C   0  0  0  0  0  0  0  0  0  0  0  0
    1.2699   -1.3441    1.1423 O   0  0  0  0  0  0  0  0  0  0  0  0
    2.2170   -1.4218    0.1352 C   0  0  0  0  0  0  0  0  0  0  0  0
   -0.4888   -1.7968   -1.7703 H   0  0  0  0  0  0  0  0  0  0  0  0
   -2.0188   -2.1926   -0.9464 H   0  0  0  0  0  0  0  0  0  0  0  0
   -0.5009   -2.4022   -0.0494 H   0  0  0  0  0  0  0  0  0  0  0  0
   -1.9842   -0.2752    0.4460 H   0  0  0  0  0  0  0  0  0  0  0  0
   -1.6236    0.2005   -1.2503 H   0  0  0  0  0  0  0  0  0  0  0  0
    0.7227    0.5348   -0.7633 H   0  0  0  0  0  0  0  0  0  0  0  0
    0.3169    2.4567    0.8281 H   0  0  0  0  0  0  0  0  0  0  0  0
   -1.2440    1.7775    1.2863 H   0  0  0  0  0  0  0  0  0  0  0  0
   -0.5203    3.1983   -1.2827 H   0  0  0  0  0  0  0  0  0  0  0  0
    1.6159    0.6117    1.3843 H   0  0  0  0  0  0  0  0  0  0  0  0
    0.1712    0.0464    2.2172 H   0  0  0  0  0  0  0  0  0  0  0  0
    1.8052   -1.1694   -0.8447 H   0  0  0  0  0  0  0  0  0  0  0  0
    3.0889   -0.7621    0.3502 H   0  0  0  0  0  0  0  0  0  0  0  0
    2.6432   -2.4629    0.0946 H   0  0  0  0  0  0  0  0  0  0  0  0
  1  2  1  0
  2  3  1  0
  3  4  1  0
  4  5  1  0
  5  6  2  0
  3  7  1  0
  7  8  1  0
  8  9  1  0
  1 10  1  0
  1 11  1  0
  1 12  1  0
  2 13  1  0
  2 14  1  0
  3 15  1  0
  4 16  1  0
  4 17  1  0
  5 18  1  0
  7 19  1  0
  7 20  1  0
  9 21  1  0
  9 22  1  0
  9 23  1  0
M  END
