
     RDKit          3D

 25 25  0  0  0  0  0  0  0  0999 V2000
   -2.0767    1.5719   -0.7541 C   0  0  0  0  0  0  0  0  0  0  0  0
   -1.8808    0.0826   -0.7471 C   0  0  0  0  0  0  0  0  0  0  0  0
   -0.9074   -0.3578    0.3324 C   0  0  0  0  0  0  0  0  0  0  0  0
   -0.8172   -1.8755    0.2106 C   0  0  0  0  0  0  0  0  0  0  0  0
    0.4200    0.2819    0.0887 C   0  0  0  0  0  0  0  0  0  0  0  0
    1.5051   -0.0593    1.0873 C   0  0  0  0  0  0  0  0  0  0  0  0
    2.4686    0.0874   -0.1026 C   0  0  0  0  0  0  0  0  0  0  0  0
    2.6779    1.4269   -0.3553 O   0  0  0  0  0  0  0  0  0  0  0  0
    1.2970   -0.4309   -0.9497 C   0  0  0  0  0  0  0  0  0  0  0  0
   -2.3369    1.9429    0.2727 H   0  0  0  0  0  0  0  0  0  0  0  0
   -1.2079    2.1349   -1.1292 H   0  0  0  0  0  0  0  0  0  0  0  0
   -2.9168    1.7885   -1.4489 H   0  0  0  0  0  0  0  0  0  0  0  0
   -2.8630   -0.3775   -0.5148 H   0  0  0  0  0  0  0  0  0  0  0  0
   -1.5658   -0.2389   -1.7479 H   0  0  0  0  0  0  0  0  0  0  0  0
   -1.2978   -0.0564    1.3113 H   0  0  0  0  0  0  0  0  0  0  0  0
   -0.7294   -2.1706   -0.8492 H   0  0  0  0  0  0  0  0  0  0  0  0
   -0.0278   -2.2717    0.8620 H   0  0  0  0  0  0  0  0  0  0  0  0
   -1.7757   -2.3283    0.5890 H   0  0  0  0  0  0  0  0  0  0  0  0
    0.4078    1.3529   -0.1547 H   0  0  0  0  0  0  0  0  0  0  0  0
    1.7222    0.7508    1.8150 H   0  0  0  0  0  0  0  0  0  0  0  0
    1.4950   -1.0728    1.4858 H   0  0  0  0  0  0  0  0  0  0  0  0
    3.3334   -0.5674   -0.0676 H   0  0  0  0  0  0  0  0  0  0  0  0
    2.6423    1.9149    0.5081 H   0  0  0  0  0  0  0  0  0  0  0  0
    1.2061   -1.5280   -0.8575 H   0  0  0  0  0  0  0  0  0  0  0  0
    1.2279   -0.0003   -1.9442 H   0  0  0  0  0  0  0  0  0  0  0  0
  1  2  1  0
  2  3  1  0
  3  4  1  0
  3  5  1  0
  5  6  1  0
  6  7  1  0
  7  8  1  0
  7  9  1  0
  9  5  1  0
  1 10  1  0
  1 11  1  0
  1 12  1  0
  2 13  1  0
  2 14  1  0
  3 15  1  0
  4 16  1  0
  4 17  1  0
  4 18  1  0
  5 19  1  0
  6 20  1  0
  6 21  1  0
  7 22  1  0
  8 23  1  0
  9 24  1  0
  9 25  1  0
M  END
