
     RDKit          3D

 21 20  0  0  0  0  0  0  0  0999 V2000
    2.6319   -0.1809   -0.2382 C   0  0  0  0  0  0  0  0  0  0  0  0
    1.2738   -0.3354    0.4032 C   0  0  0  0  0  0  0  0  0  0  0  0
    0.1845    0.2928   -0.4314 C   0  0  0  0  0  0  0  0  0  0  0  0
    0.4735    1.6516   -0.5658 O   0  0  0  0  0  0  0  0  0  0  0  0
   -1.1657    0.2091    0.2588 C   0  0  0  0  0  0  0  0  0  0  0  0
   -1.5036   -1.2771    0.3294 C   0  0  0  0  0  0  0  0  0  0  0  0
   -1.1657    0.8017    1.4954 O   0  0  0  0  0  0  0  0  0  0  0  0
   -2.1602    0.9084   -0.5994 C   0  0  0  0  0  0  0  0  0  0  0  0
   -2.8101    1.8424   -0.1648 O   0  0  0  0  0  0  0  0  0  0  0  0
    2.6454    0.6228   -1.0053 H   0  0  0  0  0  0  0  0  0  0  0  0
    2.9857   -1.1373   -0.6523 H   0  0  0  0  0  0  0  0  0  0  0  0
    3.3621    0.0995    0.5765 H   0  0  0  0  0  0  0  0  0  0  0  0
    1.2440    0.1286    1.4242 H   0  0  0  0  0  0  0  0  0  0  0  0
    1.1090   -1.4192    0.5649 H   0  0  0  0  0  0  0  0  0  0  0  0
    0.1061   -0.2277   -1.4060 H   0  0  0  0  0  0  0  0  0  0  0  0
    0.4090    1.9754   -1.4798 H   0  0  0  0  0  0  0  0  0  0  0  0
   -2.5803   -1.4517    0.3956 H   0  0  0  0  0  0  0  0  0  0  0  0
   -1.1417   -1.7280   -0.6149 H   0  0  0  0  0  0  0  0  0  0  0  0
   -0.9156   -1.7006    1.1485 H   0  0  0  0  0  0  0  0  0  0  0  0
   -0.6477    0.3122    2.1821 H   0  0  0  0  0  0  0  0  0  0  0  0
   -2.3343    0.6136   -1.6205 H   0  0  0  0  0  0  0  0  0  0  0  0
  1  2  1  0
  2  3  1  0
  3  4  1  0
  3  5  1  0
  5  6  1  0
  5  7  1  0
  5  8  1  0
  8  9  2  0
  1 10  1  0
  1 11  1  0
  1 12  1  0
  2 13  1  0
  2 14  1  0
  3 15  1  0
  4 16  1  0
  6 17  1  0
  6 18  1  0
  6 19  1  0
  7 20  1  0
  8 21  1  0
M  END
