
     RDKit          3D

 25 25  0  0  0  0  0  0  0  0999 V2000
    2.3773    0.7338   -0.3149 C   0  0  0  0  0  0  0  0  0  0  0  0
    1.7921   -0.5165    0.3114 C   0  0  0  0  0  0  0  0  0  0  0  0
    0.3233   -0.3143    0.6385 C   0  0  0  0  0  0  0  0  0  0  0  0
   -0.2600   -1.5287    1.2509 C   0  0  0  0  0  0  0  0  0  0  0  0
   -0.3960    0.2367   -0.5502 C   0  0  0  0  0  0  0  0  0  0  0  0
   -0.3670   -0.6019   -1.7715 C   0  0  0  0  0  0  0  0  0  0  0  0
   -1.7999    0.6784   -0.2520 C   0  0  0  0  0  0  0  0  0  0  0  0
   -2.1674    1.6782    0.6850 C   0  0  0  0  0  0  0  0  0  0  0  0
   -2.3396    0.2466    1.0199 O   0  0  0  0  0  0  0  0  0  0  0  0
    2.2415    0.7807   -1.3938 H   0  0  0  0  0  0  0  0  0  0  0  0
    3.4648    0.8429   -0.0631 H   0  0  0  0  0  0  0  0  0  0  0  0
    1.8830    1.5959    0.2048 H   0  0  0  0  0  0  0  0  0  0  0  0
    1.9253   -1.3364   -0.4143 H   0  0  0  0  0  0  0  0  0  0  0  0
    2.3555   -0.7847    1.2421 H   0  0  0  0  0  0  0  0  0  0  0  0
    0.3048    0.4837    1.4214 H   0  0  0  0  0  0  0  0  0  0  0  0
    0.5965   -2.1682    1.6182 H   0  0  0  0  0  0  0  0  0  0  0  0
   -0.9292   -1.2730    2.0979 H   0  0  0  0  0  0  0  0  0  0  0  0
   -0.8369   -2.1771    0.5773 H   0  0  0  0  0  0  0  0  0  0  0  0
    0.1581    1.1936   -0.8074 H   0  0  0  0  0  0  0  0  0  0  0  0
    0.1346   -1.5733   -1.6725 H   0  0  0  0  0  0  0  0  0  0  0  0
   -1.4107   -0.8301   -2.1413 H   0  0  0  0  0  0  0  0  0  0  0  0
    0.1189   -0.0994   -2.6560 H   0  0  0  0  0  0  0  0  0  0  0  0
   -2.5375    0.4094   -1.0404 H   0  0  0  0  0  0  0  0  0  0  0  0
   -1.5057    2.1090    1.4444 H   0  0  0  0  0  0  0  0  0  0  0  0
   -3.1256    2.2145    0.5655 H   0  0  0  0  0  0  0  0  0  0  0  0
  1  2  1  0
  2  3  1  0
  3  4  1  0
  3  5  1  0
  5  6  1  0
  5  7  1  0
  7  8  1  0
  8  9  1  0
  9  7  1  0
  1 10  1  0
  1 11  1  0
  1 12  1  0
  2 13  1  0
  2 14  1  0
  3 15  1  0
  4 16  1  0
  4 17  1  0
  4 18  1  0
  5 19  1  0
  6 20  1  0
  6 21  1  0
  6 22  1  0
  7 23  1  0
  8 24  1  0
  8 25  1  0
M  END
