
     RDKit          3D

 14 13  0  0  0  0  0  0  0  0999 V2000
   -2.1424   -0.1709   -0.5974 C   0  0  0  0  0  0  0  0  0  0  0  0
   -1.0592    0.1568    0.3744 C   0  0  0  0  0  0  0  0  0  0  0  0
    0.2934   -0.0737   -0.1752 C   0  0  0  0  0  0  0  0  0  0  0  0
    0.3935   -0.5005   -1.3449 O   0  0  0  0  0  0  0  0  0  0  0  0
    1.4750    0.1912    0.6293 C   0  0  0  0  0  0  0  0  0  0  0  0
    1.3653    0.6224    1.8108 O   0  0  0  0  0  0  0  0  0  0  0  0
    2.8007   -0.0287    0.1071 C   0  0  0  0  0  0  0  0  0  0  0  0
    2.9460   -0.4536   -1.0543 O   0  0  0  0  0  0  0  0  0  0  0  0
   -2.9584    0.5641   -0.4801 H   0  0  0  0  0  0  0  0  0  0  0  0
   -2.5813   -1.1605   -0.3290 H   0  0  0  0  0  0  0  0  0  0  0  0
   -1.8081   -0.1411   -1.6527 H   0  0  0  0  0  0  0  0  0  0  0  0
   -1.2231   -0.4174    1.3100 H   0  0  0  0  0  0  0  0  0  0  0  0
   -1.1519    1.2393    0.6866 H   0  0  0  0  0  0  0  0  0  0  0  0
    3.6508    0.1726    0.7154 H   0  0  0  0  0  0  0  0  0  0  0  0
  1  2  1  0
  2  3  1  0
  3  4  2  0
  3  5  1  0
  5  6  2  0
  5  7  1  0
  7  8  2  0
  1  9  1  0
  1 10  1  0
  1 11  1  0
  2 12  1  0
  2 13  1  0
  7 14  1  0
M  END
