
     RDKit          3D

 21 21  0  0  0  0  0  0  0  0999 V2000
    2.8859    0.4740   -0.5148 C   0  0  0  0  0  0  0  0  0  0  0  0
    1.3813    0.5036   -0.7444 C   0  0  0  0  0  0  0  0  0  0  0  0
    0.7362   -0.2670    0.3457 C   0  0  0  0  0  0  0  0  0  0  0  0
    1.2273   -1.5850    0.2933 O   0  0  0  0  0  0  0  0  0  0  0  0
   -0.7545   -0.3497    0.2609 C   0  0  0  0  0  0  0  0  0  0  0  0
   -1.4392    0.9448    0.1987 C   0  0  0  0  0  0  0  0  0  0  0  0
   -2.5525    0.7296   -0.4972 C   0  0  0  0  0  0  0  0  0  0  0  0
   -2.5511   -0.7174   -0.8672 C   0  0  0  0  0  0  0  0  0  0  0  0
   -1.1795   -0.9656   -0.9395 O   0  0  0  0  0  0  0  0  0  0  0  0
    3.3909   -0.1716   -1.2744 H   0  0  0  0  0  0  0  0  0  0  0  0
    3.1385    0.0136    0.4701 H   0  0  0  0  0  0  0  0  0  0  0  0
    3.3220    1.4928   -0.5100 H   0  0  0  0  0  0  0  0  0  0  0  0
    1.0782    1.5720   -0.7490 H   0  0  0  0  0  0  0  0  0  0  0  0
    1.1787    0.1210   -1.7609 H   0  0  0  0  0  0  0  0  0  0  0  0
    1.0286    0.1381    1.3113 H   0  0  0  0  0  0  0  0  0  0  0  0
    0.7570   -2.0664    1.0233 H   0  0  0  0  0  0  0  0  0  0  0  0
   -1.1183   -1.0153    1.0703 H   0  0  0  0  0  0  0  0  0  0  0  0
   -1.1930    1.9233    0.5913 H   0  0  0  0  0  0  0  0  0  0  0  0
   -3.3218    1.4625   -0.7522 H   0  0  0  0  0  0  0  0  0  0  0  0
   -2.9422   -1.3447   -0.0408 H   0  0  0  0  0  0  0  0  0  0  0  0
   -3.0725   -0.8924   -1.8226 H   0  0  0  0  0  0  0  0  0  0  0  0
  1  2  1  0
  2  3  1  0
  3  4  1  0
  3  5  1  0
  5  6  1  0
  6  7  2  0
  7  8  1  0
  8  9  1  0
  9  5  1  0
  1 10  1  0
  1 11  1  0
  1 12  1  0
  2 13  1  0
  2 14  1  0
  3 15  1  0
  4 16  1  0
  5 17  1  0
  6 18  1  0
  7 19  1  0
  8 20  1  0
  8 21  1  0
M  END
