
     RDKit          3D

 23 22  0  0  0  0  0  0  0  0999 V2000
    3.1544   -0.0348   -0.3849 C   0  0  0  0  0  0  0  0  0  0  0  0
    1.8338   -0.7211   -0.0629 C   0  0  0  0  0  0  0  0  0  0  0  0
    0.6608    0.2245   -0.2186 C   0  0  0  0  0  0  0  0  0  0  0  0
    0.7336    1.3973    0.6535 C   0  0  0  0  0  0  0  0  0  0  0  0
    1.5682    2.2529    0.4107 O   0  0  0  0  0  0  0  0  0  0  0  0
   -0.5946   -0.5749   -0.0685 C   0  0  0  0  0  0  0  0  0  0  0  0
   -1.8517    0.2342   -0.1996 C   0  0  0  0  0  0  0  0  0  0  0  0
   -3.0212   -0.7377   -0.0201 C   0  0  0  0  0  0  0  0  0  0  0  0
   -1.9861    0.8712   -1.4098 O   0  0  0  0  0  0  0  0  0  0  0  0
    3.3806    0.7622    0.3303 H   0  0  0  0  0  0  0  0  0  0  0  0
    3.9357   -0.8063   -0.2833 H   0  0  0  0  0  0  0  0  0  0  0  0
    3.0685    0.3379   -1.4448 H   0  0  0  0  0  0  0  0  0  0  0  0
    1.8593   -1.1368    0.9622 H   0  0  0  0  0  0  0  0  0  0  0  0
    1.7051   -1.5242   -0.8207 H   0  0  0  0  0  0  0  0  0  0  0  0
    0.6922    0.5918   -1.2811 H   0  0  0  0  0  0  0  0  0  0  0  0
    0.0949    1.5799    1.5208 H   0  0  0  0  0  0  0  0  0  0  0  0
   -0.6078   -1.0835    0.9053 H   0  0  0  0  0  0  0  0  0  0  0  0
   -0.6118   -1.3220   -0.9166 H   0  0  0  0  0  0  0  0  0  0  0  0
   -1.8810    0.9324    0.6744 H   0  0  0  0  0  0  0  0  0  0  0  0
   -3.9641   -0.2122    0.1933 H   0  0  0  0  0  0  0  0  0  0  0  0
   -2.7869   -1.4951    0.7712 H   0  0  0  0  0  0  0  0  0  0  0  0
   -3.0663   -1.3361   -0.9719 H   0  0  0  0  0  0  0  0  0  0  0  0
   -2.3157    1.8004   -1.2221 H   0  0  0  0  0  0  0  0  0  0  0  0
  1  2  1  0
  2  3  1  0
  3  4  1  0
  4  5  2  0
  3  6  1  0
  6  7  1  0
  7  8  1  0
  7  9  1  0
  1 10  1  0
  1 11  1  0
  1 12  1  0
  2 13  1  0
  2 14  1  0
  3 15  1  0
  4 16  1  0
  6 17  1  0
  6 18  1  0
  7 19  1  0
  8 20  1  0
  8 21  1  0
  8 22  1  0
  9 23  1  0
M  END
