
     RDKit          3D

 21 20  0  0  0  0  0  0  0  0999 V2000
    2.1144    0.4815    0.1302 C   0  0  0  0  0  0  0  0  0  0  0  0
    1.0223   -0.0299    1.0001 C   0  0  0  0  0  0  0  0  0  0  0  0
   -0.2374   -0.4009    0.3070 C   0  0  0  0  0  0  0  0  0  0  0  0
   -0.0217   -1.4919   -0.7169 C   0  0  0  0  0  0  0  0  0  0  0  0
   -1.2197   -1.8280   -1.3586 O   0  0  0  0  0  0  0  0  0  0  0  0
   -0.8917    0.7582   -0.4119 C   0  0  0  0  0  0  0  0  0  0  0  0
   -2.0460    0.2409   -1.0000 O   0  0  0  0  0  0  0  0  0  0  0  0
   -1.1626    1.9056    0.4589 C   0  0  0  0  0  0  0  0  0  0  0  0
   -2.2950    2.3088    0.6058 O   0  0  0  0  0  0  0  0  0  0  0  0
    2.2257   -0.0451   -0.8353 H   0  0  0  0  0  0  0  0  0  0  0  0
    3.0999    0.3765    0.6562 H   0  0  0  0  0  0  0  0  0  0  0  0
    2.0060    1.5682   -0.1341 H   0  0  0  0  0  0  0  0  0  0  0  0
    0.8106    0.6984    1.8032 H   0  0  0  0  0  0  0  0  0  0  0  0
    1.4012   -0.9460    1.5166 H   0  0  0  0  0  0  0  0  0  0  0  0
   -0.9413   -0.8027    1.0651 H   0  0  0  0  0  0  0  0  0  0  0  0
    0.6984   -1.2063   -1.5099 H   0  0  0  0  0  0  0  0  0  0  0  0
    0.3438   -2.4409   -0.2516 H   0  0  0  0  0  0  0  0  0  0  0  0
   -1.7913   -2.4149   -0.8051 H   0  0  0  0  0  0  0  0  0  0  0  0
   -0.1711    1.0479   -1.2311 H   0  0  0  0  0  0  0  0  0  0  0  0
   -2.5675   -0.1948   -0.2734 H   0  0  0  0  0  0  0  0  0  0  0  0
   -0.3769    2.4156    0.9849 H   0  0  0  0  0  0  0  0  0  0  0  0
  1  2  1  0
  2  3  1  0
  3  4  1  0
  4  5  1  0
  3  6  1  0
  6  7  1  0
  6  8  1  0
  8  9  2  0
  1 10  1  0
  1 11  1  0
  1 12  1  0
  2 13  1  0
  2 14  1  0
  3 15  1  0
  4 16  1  0
  4 17  1  0
  5 18  1  0
  6 19  1  0
  7 20  1  0
  8 21  1  0
M  END
