
     RDKit          3D

 25 24  0  0  0  0  0  0  0  0999 V2000
    3.3409    0.0998   -0.5230 C   0  0  0  0  0  0  0  0  0  0  0  0
    2.2089   -0.5033    0.3010 C   0  0  0  0  0  0  0  0  0  0  0  0
    0.9161   -0.0709   -0.3223 C   0  0  0  0  0  0  0  0  0  0  0  0
    0.8589    1.3212   -0.3009 O   0  0  0  0  0  0  0  0  0  0  0  0
   -0.2846   -0.5873    0.4138 C   0  0  0  0  0  0  0  0  0  0  0  0
   -1.5568   -0.1275   -0.2487 C   0  0  0  0  0  0  0  0  0  0  0  0
   -1.6927    1.3576   -0.3040 C   0  0  0  0  0  0  0  0  0  0  0  0
   -2.7473   -0.6460    0.5631 C   0  0  0  0  0  0  0  0  0  0  0  0
   -1.6448   -0.7152   -1.5122 O   0  0  0  0  0  0  0  0  0  0  0  0
    4.2387    0.1657    0.1272 H   0  0  0  0  0  0  0  0  0  0  0  0
    3.1032    1.1499   -0.8311 H   0  0  0  0  0  0  0  0  0  0  0  0
    3.5336   -0.4892   -1.4376 H   0  0  0  0  0  0  0  0  0  0  0  0
    2.2882   -1.6082    0.1538 H   0  0  0  0  0  0  0  0  0  0  0  0
    2.2936   -0.2402    1.3647 H   0  0  0  0  0  0  0  0  0  0  0  0
    0.9132   -0.4614   -1.3716 H   0  0  0  0  0  0  0  0  0  0  0  0
    1.1648    1.7090   -1.1597 H   0  0  0  0  0  0  0  0  0  0  0  0
   -0.2796   -1.6829    0.5749 H   0  0  0  0  0  0  0  0  0  0  0  0
   -0.2683   -0.1253    1.4370 H   0  0  0  0  0  0  0  0  0  0  0  0
   -2.7969    1.5803   -0.3819 H   0  0  0  0  0  0  0  0  0  0  0  0
   -1.3718    1.7920    0.6525 H   0  0  0  0  0  0  0  0  0  0  0  0
   -1.2415    1.8287   -1.1924 H   0  0  0  0  0  0  0  0  0  0  0  0
   -3.6482   -0.1917    0.1026 H   0  0  0  0  0  0  0  0  0  0  0  0
   -2.7679   -1.7309    0.6227 H   0  0  0  0  0  0  0  0  0  0  0  0
   -2.6594   -0.1519    1.5738 H   0  0  0  0  0  0  0  0  0  0  0  0
   -1.9004   -1.6725   -1.3536 H   0  0  0  0  0  0  0  0  0  0  0  0
  1  2  1  0
  2  3  1  0
  3  4  1  0
  3  5  1  0
  5  6  1  0
  6  7  1  0
  6  8  1  0
  6  9  1  0
  1 10  1  0
  1 11  1  0
  1 12  1  0
  2 13  1  0
  2 14  1  0
  3 15  1  0
  4 16  1  0
  5 17  1  0
  5 18  1  0
  7 19  1  0
  7 20  1  0
  7 21  1  0
  8 22  1  0
  8 23  1  0
  8 24  1  0
  9 25  1  0
M  END
