
     RDKit          3D

 25 24  0  0  0  0  0  0  0  0999 V2000
   -3.5948    0.3152    0.0684 C   0  0  0  0  0  0  0  0  0  0  0  0
   -2.1160    0.5002    0.4333 C   0  0  0  0  0  0  0  0  0  0  0  0
   -1.4904   -0.8704    0.3442 C   0  0  0  0  0  0  0  0  0  0  0  0
   -1.6276   -1.3656   -0.9452 O   0  0  0  0  0  0  0  0  0  0  0  0
   -0.0387   -0.8514    0.7972 C   0  0  0  0  0  0  0  0  0  0  0  0
    0.6693   -0.0469   -0.0663 O   0  0  0  0  0  0  0  0  0  0  0  0
    2.0047    0.0647    0.2220 C   0  0  0  0  0  0  0  0  0  0  0  0
    2.4578    1.4563    0.5484 C   0  0  0  0  0  0  0  0  0  0  0  0
    2.9076   -0.4857   -0.8533 C   0  0  0  0  0  0  0  0  0  0  0  0
   -3.6693    0.1089   -1.0194 H   0  0  0  0  0  0  0  0  0  0  0  0
   -3.9064   -0.6138    0.6205 H   0  0  0  0  0  0  0  0  0  0  0  0
   -4.1895    1.1911    0.3478 H   0  0  0  0  0  0  0  0  0  0  0  0
   -1.6342    1.2501   -0.2061 H   0  0  0  0  0  0  0  0  0  0  0  0
   -2.1205    0.8811    1.4749 H   0  0  0  0  0  0  0  0  0  0  0  0
   -2.0759   -1.5339    1.0158 H   0  0  0  0  0  0  0  0  0  0  0  0
   -1.3380   -0.7184   -1.6354 H   0  0  0  0  0  0  0  0  0  0  0  0
   -0.0587   -0.4082    1.8315 H   0  0  0  0  0  0  0  0  0  0  0  0
    0.3376   -1.8671    0.9076 H   0  0  0  0  0  0  0  0  0  0  0  0
    2.2005   -0.5621    1.1412 H   0  0  0  0  0  0  0  0  0  0  0  0
    3.1030    1.4940    1.4681 H   0  0  0  0  0  0  0  0  0  0  0  0
    1.6078    2.1434    0.7354 H   0  0  0  0  0  0  0  0  0  0  0  0
    3.1247    1.8539   -0.2719 H   0  0  0  0  0  0  0  0  0  0  0  0
    2.9771   -1.6021   -0.7540 H   0  0  0  0  0  0  0  0  0  0  0  0
    3.9292   -0.1050   -0.7323 H   0  0  0  0  0  0  0  0  0  0  0  0
    2.5406   -0.2284   -1.8670 H   0  0  0  0  0  0  0  0  0  0  0  0
  1  2  1  0
  2  3  1  0
  3  4  1  0
  3  5  1  0
  5  6  1  0
  6  7  1  0
  7  8  1  0
  7  9  1  0
  1 10  1  0
  1 11  1  0
  1 12  1  0
  2 13  1  0
  2 14  1  0
  3 15  1  0
  4 16  1  0
  5 17  1  0
  5 18  1  0
  7 19  1  0
  8 20  1  0
  8 21  1  0
  8 22  1  0
  9 23  1  0
  9 24  1  0
  9 25  1  0
M  END
