
     RDKit          3D

 23 22  0  0  0  0  0  0  0  0999 V2000
    1.4400    2.0652    0.3241 C   0  0  0  0  0  0  0  0  0  0  0  0
    0.4156    1.3799   -0.5556 C   0  0  0  0  0  0  0  0  0  0  0  0
   -0.4560    0.4316    0.2362 C   0  0  0  0  0  0  0  0  0  0  0  0
   -1.4417   -0.2011   -0.7290 C   0  0  0  0  0  0  0  0  0  0  0  0
   -2.3557   -1.1755    0.0160 C   0  0  0  0  0  0  0  0  0  0  0  0
    0.3076   -0.5515    1.0036 C   0  0  0  0  0  0  0  0  0  0  0  0
    0.1949   -0.5791    2.2211 O   0  0  0  0  0  0  0  0  0  0  0  0
    1.2398   -1.5459    0.3557 C   0  0  0  0  0  0  0  0  0  0  0  0
    1.2691   -1.4161   -1.0113 O   0  0  0  0  0  0  0  0  0  0  0  0
    0.9998    2.4345    1.2662 H   0  0  0  0  0  0  0  0  0  0  0  0
    2.3136    1.4127    0.4674 H   0  0  0  0  0  0  0  0  0  0  0  0
    1.7948    2.9542   -0.2392 H   0  0  0  0  0  0  0  0  0  0  0  0
    0.9387    0.8632   -1.3579 H   0  0  0  0  0  0  0  0  0  0  0  0
   -0.1878    2.1909   -1.0135 H   0  0  0  0  0  0  0  0  0  0  0  0
   -1.0599    1.0613    0.9199 H   0  0  0  0  0  0  0  0  0  0  0  0
   -2.1156    0.5802   -1.1370 H   0  0  0  0  0  0  0  0  0  0  0  0
   -0.9636   -0.7037   -1.5723 H   0  0  0  0  0  0  0  0  0  0  0  0
   -1.8013   -2.0639    0.3742 H   0  0  0  0  0  0  0  0  0  0  0  0
   -3.2630   -1.3949   -0.5454 H   0  0  0  0  0  0  0  0  0  0  0  0
   -2.6832   -0.6186    0.9419 H   0  0  0  0  0  0  0  0  0  0  0  0
    2.2619   -1.3209    0.7353 H   0  0  0  0  0  0  0  0  0  0  0  0
    1.0035   -2.5758    0.6848 H   0  0  0  0  0  0  0  0  0  0  0  0
    2.1484   -1.2267   -1.3852 H   0  0  0  0  0  0  0  0  0  0  0  0
  1  2  1  0
  2  3  1  0
  3  4  1  0
  4  5  1  0
  3  6  1  0
  6  7  2  0
  6  8  1  0
  8  9  1  0
  1 10  1  0
  1 11  1  0
  1 12  1  0
  2 13  1  0
  2 14  1  0
  3 15  1  0
  4 16  1  0
  4 17  1  0
  5 18  1  0
  5 19  1  0
  5 20  1  0
  8 21  1  0
  8 22  1  0
  9 23  1  0
M  END
