
     RDKit          3D

 21 22  0  0  0  0  0  0  0  0999 V2000
    2.8804   -0.1483    0.3274 C   0  0  0  0  0  0  0  0  0  0  0  0
    1.4406   -0.4879   -0.0397 C   0  0  0  0  0  0  0  0  0  0  0  0
    0.5721    0.6080    0.5566 C   0  0  0  0  0  0  0  0  0  0  0  0
    0.9572    1.8469    0.0159 O   0  0  0  0  0  0  0  0  0  0  0  0
   -0.8876    0.3604    0.4276 C   0  0  0  0  0  0  0  0  0  0  0  0
   -1.5961    0.2017   -0.8480 C   0  0  0  0  0  0  0  0  0  0  0  0
   -3.0249   -0.2679   -0.7697 C   0  0  0  0  0  0  0  0  0  0  0  0
   -2.6121   -1.3831   -0.0567 O   0  0  0  0  0  0  0  0  0  0  0  0
   -1.2712   -1.0142   -0.0634 C   0  0  0  0  0  0  0  0  0  0  0  0
    3.3049    0.5775   -0.3808 H   0  0  0  0  0  0  0  0  0  0  0  0
    3.5250   -1.0563    0.3147 H   0  0  0  0  0  0  0  0  0  0  0  0
    2.8901    0.2506    1.3798 H   0  0  0  0  0  0  0  0  0  0  0  0
    1.3084   -0.5711   -1.1152 H   0  0  0  0  0  0  0  0  0  0  0  0
    1.2449   -1.4594    0.4574 H   0  0  0  0  0  0  0  0  0  0  0  0
    0.8347    0.6558    1.6355 H   0  0  0  0  0  0  0  0  0  0  0  0
    0.7256    2.5548    0.6738 H   0  0  0  0  0  0  0  0  0  0  0  0
   -1.5046    0.7976    1.2640 H   0  0  0  0  0  0  0  0  0  0  0  0
   -1.1191    0.3215   -1.8303 H   0  0  0  0  0  0  0  0  0  0  0  0
   -3.5255   -0.4712   -1.7323 H   0  0  0  0  0  0  0  0  0  0  0  0
   -3.6019    0.4135   -0.0837 H   0  0  0  0  0  0  0  0  0  0  0  0
   -0.5407   -1.7288   -0.4377 H   0  0  0  0  0  0  0  0  0  0  0  0
  1  2  1  0
  2  3  1  0
  3  4  1  0
  3  5  1  0
  5  6  1  0
  6  7  1  0
  7  8  1  0
  8  9  1  0
  9  5  1  0
  9  6  1  0
  1 10  1  0
  1 11  1  0
  1 12  1  0
  2 13  1  0
  2 14  1  0
  3 15  1  0
  4 16  1  0
  5 17  1  0
  6 18  1  0
  7 19  1  0
  7 20  1  0
  9 21  1  0
M  END
