
     RDKit          3D

 24 23  0  0  0  0  0  0  0  0999 V2000
   -0.0724    2.3645    0.6428 C   0  0  0  0  0  0  0  0  0  0  0  0
    0.3600    1.3220   -0.3495 C   0  0  0  0  0  0  0  0  0  0  0  0
    0.0062   -0.0793    0.1052 C   0  0  0  0  0  0  0  0  0  0  0  0
    0.6618   -0.2881    1.3150 O   0  0  0  0  0  0  0  0  0  0  0  0
   -1.4728   -0.1651    0.2471 C   0  0  0  0  0  0  0  0  0  0  0  0
   -1.9699   -1.5096    0.6957 C   0  0  0  0  0  0  0  0  0  0  0  0
    0.5661   -1.0660   -0.8930 C   0  0  0  0  0  0  0  0  0  0  0  0
    2.0639   -0.9585   -1.0073 C   0  0  0  0  0  0  0  0  0  0  0  0
    0.3766    3.3345    0.2992 H   0  0  0  0  0  0  0  0  0  0  0  0
   -1.1533    2.5161    0.6642 H   0  0  0  0  0  0  0  0  0  0  0  0
    0.2750    2.1585    1.6715 H   0  0  0  0  0  0  0  0  0  0  0  0
    1.4565    1.4310   -0.5488 H   0  0  0  0  0  0  0  0  0  0  0  0
   -0.1686    1.5562   -1.3110 H   0  0  0  0  0  0  0  0  0  0  0  0
    1.4997    0.2231    1.3273 H   0  0  0  0  0  0  0  0  0  0  0  0
   -1.9610    0.0579   -0.7230 H   0  0  0  0  0  0  0  0  0  0  0  0
   -1.7934    0.5744    1.0058 H   0  0  0  0  0  0  0  0  0  0  0  0
   -2.1710   -2.2036   -0.1588 H   0  0  0  0  0  0  0  0  0  0  0  0
   -1.2921   -1.9464    1.4510 H   0  0  0  0  0  0  0  0  0  0  0  0
   -2.9477   -1.3526    1.1980 H   0  0  0  0  0  0  0  0  0  0  0  0
    0.3249   -2.1096   -0.6332 H   0  0  0  0  0  0  0  0  0  0  0  0
    0.1097   -0.8938   -1.9038 H   0  0  0  0  0  0  0  0  0  0  0  0
    2.4070   -0.0724   -1.5486 H   0  0  0  0  0  0  0  0  0  0  0  0
    2.4947   -1.0275    0.0332 H   0  0  0  0  0  0  0  0  0  0  0  0
    2.4005   -1.8657   -1.5790 H   0  0  0  0  0  0  0  0  0  0  0  0
  1  2  1  0
  2  3  1  0
  3  4  1  0
  3  5  1  0
  5  6  1  0
  3  7  1  0
  7  8  1  0
  1  9  1  0
  1 10  1  0
  1 11  1  0
  2 12  1  0
  2 13  1  0
  4 14  1  0
  5 15  1  0
  5 16  1  0
  6 17  1  0
  6 18  1  0
  6 19  1  0
  7 20  1  0
  7 21  1  0
  8 22  1  0
  8 23  1  0
  8 24  1  0
M  END
