
     RDKit          3D

 17 16  0  0  0  0  0  0  0  0999 V2000
    1.7422   -0.5248   -0.1655 C   0  0  0  0  0  0  0  0  0  0  0  0
    0.7354    0.4661   -0.6179 C   0  0  0  0  0  0  0  0  0  0  0  0
   -0.6156    0.3228    0.0304 C   0  0  0  0  0  0  0  0  0  0  0  0
   -1.1776   -1.0650   -0.2832 C   0  0  0  0  0  0  0  0  0  0  0  0
   -1.4678    1.2310   -0.5904 O   0  0  0  0  0  0  0  0  0  0  0  0
   -0.6123    0.5932    1.4729 C   0  0  0  0  0  0  0  0  0  0  0  0
   -1.2955    1.4991    1.9102 O   0  0  0  0  0  0  0  0  0  0  0  0
    2.3878   -0.8319   -1.0290 H   0  0  0  0  0  0  0  0  0  0  0  0
    2.4477   -0.0190    0.5458 H   0  0  0  0  0  0  0  0  0  0  0  0
    1.3278   -1.4551    0.2627 H   0  0  0  0  0  0  0  0  0  0  0  0
    0.5825    0.3294   -1.7190 H   0  0  0  0  0  0  0  0  0  0  0  0
    1.1396    1.4910   -0.5016 H   0  0  0  0  0  0  0  0  0  0  0  0
   -1.1426   -1.7192    0.6103 H   0  0  0  0  0  0  0  0  0  0  0  0
   -0.5654   -1.5137   -1.1126 H   0  0  0  0  0  0  0  0  0  0  0  0
   -2.2122   -1.0123   -0.6682 H   0  0  0  0  0  0  0  0  0  0  0  0
   -1.2379    2.1699   -0.3478 H   0  0  0  0  0  0  0  0  0  0  0  0
   -0.0362    0.0385    2.2029 H   0  0  0  0  0  0  0  0  0  0  0  0
  1  2  1  0
  2  3  1  0
  3  4  1  0
  3  5  1  0
  3  6  1  0
  6  7  2  0
  1  8  1  0
  1  9  1  0
  1 10  1  0
  2 11  1  0
  2 12  1  0
  4 13  1  0
  4 14  1  0
  4 15  1  0
  5 16  1  0
  6 17  1  0
M  END
