
     RDKit          3D

 25 25  0  0  0  0  0  0  0  0999 V2000
   -2.8871   -1.0891   -0.1144 C   0  0  0  0  0  0  0  0  0  0  0  0
   -1.3982   -1.2803   -0.0761 C   0  0  0  0  0  0  0  0  0  0  0  0
   -0.7400   -0.0082    0.4160 C   0  0  0  0  0  0  0  0  0  0  0  0
   -1.0384    1.1648   -0.4737 C   0  0  0  0  0  0  0  0  0  0  0  0
   -0.6211    1.0210   -1.7674 O   0  0  0  0  0  0  0  0  0  0  0  0
    0.7231   -0.1975    0.6900 C   0  0  0  0  0  0  0  0  0  0  0  0
    1.4771    0.9806    1.1779 C   0  0  0  0  0  0  0  0  0  0  0  0
    1.7825    0.3417   -0.1643 C   0  0  0  0  0  0  0  0  0  0  0  0
    3.1179   -0.4101   -0.1906 C   0  0  0  0  0  0  0  0  0  0  0  0
   -3.4438   -2.0524    0.0505 H   0  0  0  0  0  0  0  0  0  0  0  0
   -3.1601   -0.4520    0.7640 H   0  0  0  0  0  0  0  0  0  0  0  0
   -3.2354   -0.6622   -1.0627 H   0  0  0  0  0  0  0  0  0  0  0  0
   -0.9818   -1.6090   -1.0507 H   0  0  0  0  0  0  0  0  0  0  0  0
   -1.1787   -2.0791    0.6621 H   0  0  0  0  0  0  0  0  0  0  0  0
   -1.2201    0.2206    1.3990 H   0  0  0  0  0  0  0  0  0  0  0  0
   -2.1530    1.2810   -0.4838 H   0  0  0  0  0  0  0  0  0  0  0  0
   -0.6368    2.0758   -0.0170 H   0  0  0  0  0  0  0  0  0  0  0  0
   -0.4553    1.9449   -2.1310 H   0  0  0  0  0  0  0  0  0  0  0  0
    0.9490   -1.1548    1.2118 H   0  0  0  0  0  0  0  0  0  0  0  0
    2.2110    0.8314    2.0153 H   0  0  0  0  0  0  0  0  0  0  0  0
    0.9943    1.9620    1.2106 H   0  0  0  0  0  0  0  0  0  0  0  0
    1.6118    0.9015   -1.0880 H   0  0  0  0  0  0  0  0  0  0  0  0
    3.8835    0.3078   -0.5539 H   0  0  0  0  0  0  0  0  0  0  0  0
    3.3210   -0.7989    0.8200 H   0  0  0  0  0  0  0  0  0  0  0  0
    3.0786   -1.2395   -0.9476 H   0  0  0  0  0  0  0  0  0  0  0  0
  1  2  1  0
  2  3  1  0
  3  4  1  0
  4  5  1  0
  3  6  1  0
  6  7  1  0
  7  8  1  0
  8  9  1  0
  8  6  1  0
  1 10  1  0
  1 11  1  0
  1 12  1  0
  2 13  1  0
  2 14  1  0
  3 15  1  0
  4 16  1  0
  4 17  1  0
  5 18  1  0
  6 19  1  0
  7 20  1  0
  7 21  1  0
  8 22  1  0
  9 23  1  0
  9 24  1  0
  9 25  1  0
M  END
