
     RDKit          3D

 25 26  0  0  0  0  0  0  0  0999 V2000
    1.9475    1.3330    0.7143 C   0  0  0  0  0  0  0  0  0  0  0  0
    1.9694    0.1833   -0.2402 C   0  0  0  0  0  0  0  0  0  0  0  0
    0.5788   -0.1121   -0.8177 C   0  0  0  0  0  0  0  0  0  0  0  0
    0.7632   -1.2938   -1.7601 C   0  0  0  0  0  0  0  0  0  0  0  0
   -0.3464   -0.4354    0.2853 C   0  0  0  0  0  0  0  0  0  0  0  0
   -1.7646   -0.7642   -0.0022 C   0  0  0  0  0  0  0  0  0  0  0  0
   -2.0058   -0.4451    1.4625 C   0  0  0  0  0  0  0  0  0  0  0  0
   -1.0941    0.6585    0.9749 C   0  0  0  0  0  0  0  0  0  0  0  0
   -1.9933    0.6931   -0.2246 C   0  0  0  0  0  0  0  0  0  0  0  0
    1.2657    2.1299    0.3502 H   0  0  0  0  0  0  0  0  0  0  0  0
    3.0062    1.7166    0.7899 H   0  0  0  0  0  0  0  0  0  0  0  0
    1.6979    1.0213    1.7694 H   0  0  0  0  0  0  0  0  0  0  0  0
    2.7013    0.4002   -1.0390 H   0  0  0  0  0  0  0  0  0  0  0  0
    2.3563   -0.7282    0.2929 H   0  0  0  0  0  0  0  0  0  0  0  0
    0.3248    0.7471   -1.4290 H   0  0  0  0  0  0  0  0  0  0  0  0
    1.5664   -1.0451   -2.4970 H   0  0  0  0  0  0  0  0  0  0  0  0
   -0.1474   -1.5067   -2.3494 H   0  0  0  0  0  0  0  0  0  0  0  0
    1.1351   -2.1508   -1.1792 H   0  0  0  0  0  0  0  0  0  0  0  0
    0.0695   -1.1590    1.0381 H   0  0  0  0  0  0  0  0  0  0  0  0
   -2.1474   -1.5429   -0.4969 H   0  0  0  0  0  0  0  0  0  0  0  0
   -3.0205   -0.1621    1.7325 H   0  0  0  0  0  0  0  0  0  0  0  0
   -1.4641   -1.1274    2.1522 H   0  0  0  0  0  0  0  0  0  0  0  0
   -0.7418    1.4228    1.5088 H   0  0  0  0  0  0  0  0  0  0  0  0
   -1.6315    1.1628   -1.1323 H   0  0  0  0  0  0  0  0  0  0  0  0
   -3.0250    1.0041    0.0966 H   0  0  0  0  0  0  0  0  0  0  0  0
  1  2  1  0
  2  3  1  0
  3  4  1  0
  3  5  1  0
  5  6  1  0
  6  7  1  0
  7  8  1  0
  8  9  1  0
  8  5  1  0
  9  6  1  0
  1 10  1  0
  1 11  1  0
  1 12  1  0
  2 13  1  0
  2 14  1  0
  3 15  1  0
  4 16  1  0
  4 17  1  0
  4 18  1  0
  5 19  1  0
  6 20  1  0
  7 21  1  0
  7 22  1  0
  8 23  1  0
  9 24  1  0
  9 25  1  0
M  END
