
     RDKit          3D

 25 24  0  0  0  0  0  0  0  0999 V2000
   -1.7310    1.3851   -1.0881 C   0  0  0  0  0  0  0  0  0  0  0  0
   -0.4441    1.4445   -0.3705 C   0  0  0  0  0  0  0  0  0  0  0  0
    0.3108    0.1848   -0.1546 C   0  0  0  0  0  0  0  0  0  0  0  0
   -0.3079   -0.8893    0.6318 C   0  0  0  0  0  0  0  0  0  0  0  0
   -1.5919   -1.4216    0.0846 C   0  0  0  0  0  0  0  0  0  0  0  0
   -2.0904   -2.4762    0.8884 O   0  0  0  0  0  0  0  0  0  0  0  0
    1.6798    0.6031    0.3424 C   0  0  0  0  0  0  0  0  0  0  0  0
    2.5956   -0.5310    0.6196 C   0  0  0  0  0  0  0  0  0  0  0  0
    2.2511    1.3746   -0.6873 O   0  0  0  0  0  0  0  0  0  0  0  0
   -1.7569    2.2733   -1.8056 H   0  0  0  0  0  0  0  0  0  0  0  0
   -1.8653    0.5230   -1.7651 H   0  0  0  0  0  0  0  0  0  0  0  0
   -2.6421    1.5997   -0.4597 H   0  0  0  0  0  0  0  0  0  0  0  0
    0.2196    2.2052   -0.8787 H   0  0  0  0  0  0  0  0  0  0  0  0
   -0.6537    1.9078    0.6391 H   0  0  0  0  0  0  0  0  0  0  0  0
    0.5204   -0.2259   -1.1968 H   0  0  0  0  0  0  0  0  0  0  0  0
   -0.4982   -0.6049    1.7076 H   0  0  0  0  0  0  0  0  0  0  0  0
    0.3565   -1.7965    0.7494 H   0  0  0  0  0  0  0  0  0  0  0  0
   -1.5760   -1.7533   -0.9528 H   0  0  0  0  0  0  0  0  0  0  0  0
   -2.3866   -0.6228    0.2084 H   0  0  0  0  0  0  0  0  0  0  0  0
   -2.8847   -2.8091    0.3907 H   0  0  0  0  0  0  0  0  0  0  0  0
    1.5570    1.2359    1.2189 H   0  0  0  0  0  0  0  0  0  0  0  0
    2.4607   -1.0044    1.6123 H   0  0  0  0  0  0  0  0  0  0  0  0
    2.5550   -1.3142   -0.1540 H   0  0  0  0  0  0  0  0  0  0  0  0
    3.6350   -0.1383    0.6145 H   0  0  0  0  0  0  0  0  0  0  0  0
    2.2870    0.8504   -1.5397 H   0  0  0  0  0  0  0  0  0  0  0  0
  1  2  1  0
  2  3  1  0
  3  4  1  0
  4  5  1  0
  5  6  1  0
  3  7  1  0
  7  8  1  0
  7  9  1  0
  1 10  1  0
  1 11  1  0
  1 12  1  0
  2 13  1  0
  2 14  1  0
  3 15  1  0
  4 16  1  0
  4 17  1  0
  5 18  1  0
  5 19  1  0
  6 20  1  0
  7 21  1  0
  8 22  1  0
  8 23  1  0
  8 24  1  0
  9 25  1  0
M  END
