
     RDKit          3D

 19 18  0  0  0  0  0  0  0  0999 V2000
   -2.4262    0.1809    0.4064 C   0  0  0  0  0  0  0  0  0  0  0  0
   -1.5488   -0.6369   -0.4884 C   0  0  0  0  0  0  0  0  0  0  0  0
   -0.1415   -0.7616   -0.0073 C   0  0  0  0  0  0  0  0  0  0  0  0
   -0.0610   -1.3648    1.2487 O   0  0  0  0  0  0  0  0  0  0  0  0
    0.6077    0.5337    0.0241 C   0  0  0  0  0  0  0  0  0  0  0  0
    1.9926    0.2526    0.5236 C   0  0  0  0  0  0  0  0  0  0  0  0
    2.3560   -0.9102    0.8344 O   0  0  0  0  0  0  0  0  0  0  0  0
    2.9532    1.3258    0.6608 C   0  0  0  0  0  0  0  0  0  0  0  0
    2.5954    2.4884    0.3519 O   0  0  0  0  0  0  0  0  0  0  0  0
   -3.4590    0.1429   -0.0230 H   0  0  0  0  0  0  0  0  0  0  0  0
   -2.0865    1.2497    0.3903 H   0  0  0  0  0  0  0  0  0  0  0  0
   -2.3742   -0.1458    1.4447 H   0  0  0  0  0  0  0  0  0  0  0  0
   -1.5235   -0.2029   -1.5080 H   0  0  0  0  0  0  0  0  0  0  0  0
   -1.9817   -1.6591   -0.5373 H   0  0  0  0  0  0  0  0  0  0  0  0
    0.3952   -1.4375   -0.7124 H   0  0  0  0  0  0  0  0  0  0  0  0
   -0.0538   -2.3608    1.1623 H   0  0  0  0  0  0  0  0  0  0  0  0
    0.7038    0.8848   -1.0401 H   0  0  0  0  0  0  0  0  0  0  0  0
    0.1092    1.3170    0.6002 H   0  0  0  0  0  0  0  0  0  0  0  0
    3.9431    1.1037    1.0213 H   0  0  0  0  0  0  0  0  0  0  0  0
  1  2  1  0
  2  3  1  0
  3  4  1  0
  3  5  1  0
  5  6  1  0
  6  7  2  0
  6  8  1  0
  8  9  2  0
  1 10  1  0
  1 11  1  0
  1 12  1  0
  2 13  1  0
  2 14  1  0
  3 15  1  0
  4 16  1  0
  5 17  1  0
  5 18  1  0
  8 19  1  0
M  END
