
     RDKit          3D

 23 22  0  0  0  0  0  0  0  0999 V2000
   -1.7472   -1.1614   -0.4625 C   0  0  0  0  0  0  0  0  0  0  0  0
   -1.1259    0.0131   -1.1204 C   0  0  0  0  0  0  0  0  0  0  0  0
   -0.2205    0.8347   -0.2762 C   0  0  0  0  0  0  0  0  0  0  0  0
   -0.9464    1.4103    0.9401 C   0  0  0  0  0  0  0  0  0  0  0  0
    1.0612    0.2068    0.1160 C   0  0  0  0  0  0  0  0  0  0  0  0
    0.9617   -1.0476    0.9047 C   0  0  0  0  0  0  0  0  0  0  0  0
    1.7622    1.1471    0.9057 O   0  0  0  0  0  0  0  0  0  0  0  0
    1.9162   -0.0539   -1.0700 C   0  0  0  0  0  0  0  0  0  0  0  0
    2.9836    0.4607   -1.2681 O   0  0  0  0  0  0  0  0  0  0  0  0
   -1.6338   -1.2135    0.6292 H   0  0  0  0  0  0  0  0  0  0  0  0
   -1.3912   -2.1114   -0.9239 H   0  0  0  0  0  0  0  0  0  0  0  0
   -2.8635   -1.1732   -0.6410 H   0  0  0  0  0  0  0  0  0  0  0  0
   -0.5627   -0.2519   -2.0523 H   0  0  0  0  0  0  0  0  0  0  0  0
   -1.9436    0.7013   -1.4883 H   0  0  0  0  0  0  0  0  0  0  0  0
    0.0441    1.7475   -0.8907 H   0  0  0  0  0  0  0  0  0  0  0  0
   -0.2839    2.1730    1.3996 H   0  0  0  0  0  0  0  0  0  0  0  0
   -1.8462    1.9718    0.5855 H   0  0  0  0  0  0  0  0  0  0  0  0
   -1.2040    0.6238    1.6747 H   0  0  0  0  0  0  0  0  0  0  0  0
    0.6362   -1.9355    0.3440 H   0  0  0  0  0  0  0  0  0  0  0  0
    2.0088   -1.2941    1.2558 H   0  0  0  0  0  0  0  0  0  0  0  0
    0.3952   -0.9135    1.8709 H   0  0  0  0  0  0  0  0  0  0  0  0
    2.4403    0.6286    1.3909 H   0  0  0  0  0  0  0  0  0  0  0  0
    1.5593   -0.7627   -1.8235 H   0  0  0  0  0  0  0  0  0  0  0  0
  1  2  1  0
  2  3  1  0
  3  4  1  0
  3  5  1  0
  5  6  1  0
  5  7  1  0
  5  8  1  0
  8  9  2  0
  1 10  1  0
  1 11  1  0
  1 12  1  0
  2 13  1  0
  2 14  1  0
  3 15  1  0
  4 16  1  0
  4 17  1  0
  4 18  1  0
  6 19  1  0
  6 20  1  0
  6 21  1  0
  7 22  1  0
  8 23  1  0
M  END
