
     RDKit          3D

 24 23  0  0  0  0  0  0  0  0999 V2000
    2.3922    0.1423    0.3682 C   0  0  0  0  0  0  0  0  0  0  0  0
    1.3252    0.4003   -0.6254 C   0  0  0  0  0  0  0  0  0  0  0  0
   -0.0763    0.3926   -0.0497 C   0  0  0  0  0  0  0  0  0  0  0  0
   -0.1744    1.4655    1.0070 C   0  0  0  0  0  0  0  0  0  0  0  0
   -0.4077   -0.9333    0.5910 C   0  0  0  0  0  0  0  0  0  0  0  0
   -0.3277   -2.0704   -0.4100 C   0  0  0  0  0  0  0  0  0  0  0  0
   -0.9235    0.5885   -1.1076 O   0  0  0  0  0  0  0  0  0  0  0  0
   -2.2599    0.6252   -0.8591 C   0  0  0  0  0  0  0  0  0  0  0  0
    3.1978   -0.4627   -0.1438 H   0  0  0  0  0  0  0  0  0  0  0  0
    2.0976   -0.3702    1.2824 H   0  0  0  0  0  0  0  0  0  0  0  0
    2.9179    1.1103    0.6222 H   0  0  0  0  0  0  0  0  0  0  0  0
    1.3594   -0.2902   -1.4989 H   0  0  0  0  0  0  0  0  0  0  0  0
    1.4618    1.4259   -1.0699 H   0  0  0  0  0  0  0  0  0  0  0  0
   -0.0028    2.4666    0.5767 H   0  0  0  0  0  0  0  0  0  0  0  0
   -1.1298    1.3967    1.5552 H   0  0  0  0  0  0  0  0  0  0  0  0
    0.6318    1.2701    1.7472 H   0  0  0  0  0  0  0  0  0  0  0  0
   -1.4481   -0.8996    0.9708 H   0  0  0  0  0  0  0  0  0  0  0  0
    0.2196   -1.1351    1.4858 H   0  0  0  0  0  0  0  0  0  0  0  0
    0.7328   -2.4054   -0.4890 H   0  0  0  0  0  0  0  0  0  0  0  0
   -0.8997   -2.9240    0.0257 H   0  0  0  0  0  0  0  0  0  0  0  0
   -0.7362   -1.7275   -1.3658 H   0  0  0  0  0  0  0  0  0  0  0  0
   -2.5970    1.4122   -0.1617 H   0  0  0  0  0  0  0  0  0  0  0  0
   -2.6072   -0.3965   -0.6104 H   0  0  0  0  0  0  0  0  0  0  0  0
   -2.7457    0.9186   -1.8410 H   0  0  0  0  0  0  0  0  0  0  0  0
  1  2  1  0
  2  3  1  0
  3  4  1  0
  3  5  1  0
  5  6  1  0
  3  7  1  0
  7  8  1  0
  1  9  1  0
  1 10  1  0
  1 11  1  0
  2 12  1  0
  2 13  1  0
  4 14  1  0
  4 15  1  0
  4 16  1  0
  5 17  1  0
  5 18  1  0
  6 19  1  0
  6 20  1  0
  6 21  1  0
  8 22  1  0
  8 23  1  0
  8 24  1  0
M  END
