
     RDKit          3D

 23 23  0  0  0  0  0  0  0  0999 V2000
    2.6457   -0.9891    0.0877 C   0  0  0  0  0  0  0  0  0  0  0  0
    1.3717   -0.5341   -0.5994 C   0  0  0  0  0  0  0  0  0  0  0  0
    0.6525    0.3799    0.3666 C   0  0  0  0  0  0  0  0  0  0  0  0
    1.5475    1.5169    0.6576 C   0  0  0  0  0  0  0  0  0  0  0  0
    1.8606    2.2717   -0.2257 O   0  0  0  0  0  0  0  0  0  0  0  0
   -0.6161    0.9485   -0.2245 C   0  0  0  0  0  0  0  0  0  0  0  0
   -1.6071   -0.0841   -0.6176 C   0  0  0  0  0  0  0  0  0  0  0  0
   -2.1863   -1.0367    0.3523 C   0  0  0  0  0  0  0  0  0  0  0  0
   -3.0211    0.1105   -0.0776 C   0  0  0  0  0  0  0  0  0  0  0  0
    3.3481   -0.1433    0.1911 H   0  0  0  0  0  0  0  0  0  0  0  0
    3.1562   -1.7477   -0.5424 H   0  0  0  0  0  0  0  0  0  0  0  0
    2.4573   -1.3801    1.1091 H   0  0  0  0  0  0  0  0  0  0  0  0
    1.6844    0.0629   -1.4867 H   0  0  0  0  0  0  0  0  0  0  0  0
    0.7602   -1.3797   -0.9182 H   0  0  0  0  0  0  0  0  0  0  0  0
    0.4305   -0.2075    1.2865 H   0  0  0  0  0  0  0  0  0  0  0  0
    1.9066    1.6541    1.6545 H   0  0  0  0  0  0  0  0  0  0  0  0
   -0.3376    1.5601   -1.1039 H   0  0  0  0  0  0  0  0  0  0  0  0
   -1.0502    1.6225    0.5194 H   0  0  0  0  0  0  0  0  0  0  0  0
   -1.5811   -0.3759   -1.6844 H   0  0  0  0  0  0  0  0  0  0  0  0
   -2.4768   -2.0277   -0.0479 H   0  0  0  0  0  0  0  0  0  0  0  0
   -1.8722   -1.0625    1.4145 H   0  0  0  0  0  0  0  0  0  0  0  0
   -3.1994    0.9308    0.6427 H   0  0  0  0  0  0  0  0  0  0  0  0
   -3.8734   -0.0892   -0.7538 H   0  0  0  0  0  0  0  0  0  0  0  0
  1  2  1  0
  2  3  1  0
  3  4  1  0
  4  5  2  0
  3  6  1  0
  6  7  1  0
  7  8  1  0
  8  9  1  0
  9  7  1  0
  1 10  1  0
  1 11  1  0
  1 12  1  0
  2 13  1  0
  2 14  1  0
  3 15  1  0
  4 16  1  0
  6 17  1  0
  6 18  1  0
  7 19  1  0
  8 20  1  0
  8 21  1  0
  9 22  1  0
  9 23  1  0
M  END
