
     RDKit          3D

 25 24  0  0  0  0  0  0  0  0999 V2000
    1.5119   -1.6145   -0.2159 C   0  0  0  0  0  0  0  0  0  0  0  0
    1.5402   -0.1436   -0.3908 C   0  0  0  0  0  0  0  0  0  0  0  0
    0.6325    0.6978    0.3969 C   0  0  0  0  0  0  0  0  0  0  0  0
    0.9845    2.1641   -0.0266 C   0  0  0  0  0  0  0  0  0  0  0  0
   -0.8391    0.6057    0.1992 C   0  0  0  0  0  0  0  0  0  0  0  0
   -1.1970    0.9287   -1.2545 C   0  0  0  0  0  0  0  0  0  0  0  0
   -1.5867   -0.4957    0.7472 C   0  0  0  0  0  0  0  0  0  0  0  0
   -1.5914   -1.9235    0.3890 C   0  0  0  0  0  0  0  0  0  0  0  0
   -2.3791   -0.2290    1.6943 O   0  0  0  0  0  0  0  0  0  0  0  0
    1.2744   -1.9447    0.8113 H   0  0  0  0  0  0  0  0  0  0  0  0
    2.5890   -1.9945   -0.3473 H   0  0  0  0  0  0  0  0  0  0  0  0
    0.9739   -2.1599   -0.9912 H   0  0  0  0  0  0  0  0  0  0  0  0
    2.5953    0.1990   -0.1235 H   0  0  0  0  0  0  0  0  0  0  0  0
    1.5078    0.0562   -1.4951 H   0  0  0  0  0  0  0  0  0  0  0  0
    0.8400    0.5892    1.4813 H   0  0  0  0  0  0  0  0  0  0  0  0
    0.1205    2.8245    0.1710 H   0  0  0  0  0  0  0  0  0  0  0  0
    1.8122    2.4796    0.6089 H   0  0  0  0  0  0  0  0  0  0  0  0
    1.2086    2.2049   -1.0925 H   0  0  0  0  0  0  0  0  0  0  0  0
   -1.2347    1.5573    0.7283 H   0  0  0  0  0  0  0  0  0  0  0  0
   -2.3060    1.0323   -1.3294 H   0  0  0  0  0  0  0  0  0  0  0  0
   -0.7693    0.2157   -1.9544 H   0  0  0  0  0  0  0  0  0  0  0  0
   -0.7821    1.9387   -1.4461 H   0  0  0  0  0  0  0  0  0  0  0  0
   -2.6408   -2.3345    0.5904 H   0  0  0  0  0  0  0  0  0  0  0  0
   -0.9619   -2.5094    1.0709 H   0  0  0  0  0  0  0  0  0  0  0  0
   -1.3026   -2.1445   -0.6434 H   0  0  0  0  0  0  0  0  0  0  0  0
  1  2  1  0
  2  3  1  0
  3  4  1  0
  3  5  1  0
  5  6  1  0
  5  7  1  0
  7  8  1  0
  7  9  2  0
  1 10  1  0
  1 11  1  0
  1 12  1  0
  2 13  1  0
  2 14  1  0
  3 15  1  0
  4 16  1  0
  4 17  1  0
  4 18  1  0
  5 19  1  0
  6 20  1  0
  6 21  1  0
  6 22  1  0
  8 23  1  0
  8 24  1  0
  8 25  1  0
M  END
