
     RDKit          3D

 25 25  0  0  0  0  0  0  0  0999 V2000
   -2.0859   -1.5860    0.2092 C   0  0  0  0  0  0  0  0  0  0  0  0
   -0.9084   -1.0305   -0.5141 C   0  0  0  0  0  0  0  0  0  0  0  0
    0.0075   -0.1881    0.3768 C   0  0  0  0  0  0  0  0  0  0  0  0
    1.1344    0.2857   -0.5113 C   0  0  0  0  0  0  0  0  0  0  0  0
    1.8430   -0.9400   -1.0523 C   0  0  0  0  0  0  0  0  0  0  0  0
    2.1609    1.0984    0.2360 C   0  0  0  0  0  0  0  0  0  0  0  0
   -0.7094    0.9155    1.0610 C   0  0  0  0  0  0  0  0  0  0  0  0
   -1.4156    1.9862    0.4373 C   0  0  0  0  0  0  0  0  0  0  0  0
   -2.1803    0.8236    0.8573 O   0  0  0  0  0  0  0  0  0  0  0  0
   -3.0058   -1.1046   -0.1631 H   0  0  0  0  0  0  0  0  0  0  0  0
   -2.2269   -2.6801    0.0412 H   0  0  0  0  0  0  0  0  0  0  0  0
   -1.9801   -1.4578    1.3070 H   0  0  0  0  0  0  0  0  0  0  0  0
   -0.3341   -1.8393   -0.9986 H   0  0  0  0  0  0  0  0  0  0  0  0
   -1.2569   -0.3470   -1.3096 H   0  0  0  0  0  0  0  0  0  0  0  0
    0.4553   -0.8968    1.1056 H   0  0  0  0  0  0  0  0  0  0  0  0
    0.7635    0.8443   -1.4055 H   0  0  0  0  0  0  0  0  0  0  0  0
    2.9127   -0.6923   -1.3002 H   0  0  0  0  0  0  0  0  0  0  0  0
    1.8839   -1.7437   -0.2623 H   0  0  0  0  0  0  0  0  0  0  0  0
    1.3982   -1.3452   -1.9561 H   0  0  0  0  0  0  0  0  0  0  0  0
    2.9550    0.4652    0.6950 H   0  0  0  0  0  0  0  0  0  0  0  0
    2.6253    1.8174   -0.4630 H   0  0  0  0  0  0  0  0  0  0  0  0
    1.7237    1.6858    1.0686 H   0  0  0  0  0  0  0  0  0  0  0  0
   -0.5600    0.9609    2.1742 H   0  0  0  0  0  0  0  0  0  0  0  0
   -1.7091    2.8622    1.0186 H   0  0  0  0  0  0  0  0  0  0  0  0
   -1.4910    2.1061   -0.6515 H   0  0  0  0  0  0  0  0  0  0  0  0
  1  2  1  0
  2  3  1  0
  3  4  1  0
  4  5  1  0
  4  6  1  0
  3  7  1  0
  7  8  1  0
  8  9  1  0
  9  7  1  0
  1 10  1  0
  1 11  1  0
  1 12  1  0
  2 13  1  0
  2 14  1  0
  3 15  1  0
  4 16  1  0
  5 17  1  0
  5 18  1  0
  5 19  1  0
  6 20  1  0
  6 21  1  0
  6 22  1  0
  7 23  1  0
  8 24  1  0
  8 25  1  0
M  END
