
     RDKit          3D

 19 18  0  0  0  0  0  0  0  0999 V2000
   -1.6373   -1.1309   -0.4215 C   0  0  0  0  0  0  0  0  0  0  0  0
   -1.1683   -0.5195    0.8585 C   0  0  0  0  0  0  0  0  0  0  0  0
   -0.4997    0.8118    0.6830 C   0  0  0  0  0  0  0  0  0  0  0  0
   -1.3497    1.8383    0.0748 C   0  0  0  0  0  0  0  0  0  0  0  0
   -1.6459    1.8695   -1.1172 O   0  0  0  0  0  0  0  0  0  0  0  0
    0.7541    0.5751   -0.1065 C   0  0  0  0  0  0  0  0  0  0  0  0
    0.9401    1.1226   -1.2070 O   0  0  0  0  0  0  0  0  0  0  0  0
    1.7063   -0.2632    0.4055 O   0  0  0  0  0  0  0  0  0  0  0  0
    2.9283   -0.5714   -0.2330 C   0  0  0  0  0  0  0  0  0  0  0  0
   -0.8883   -1.1025   -1.2274 H   0  0  0  0  0  0  0  0  0  0  0  0
   -2.6004   -0.6731   -0.7349 H   0  0  0  0  0  0  0  0  0  0  0  0
   -1.8691   -2.2032   -0.2152 H   0  0  0  0  0  0  0  0  0  0  0  0
   -0.4353   -1.2021    1.3349 H   0  0  0  0  0  0  0  0  0  0  0  0
   -2.0534   -0.4340    1.5339 H   0  0  0  0  0  0  0  0  0  0  0  0
   -0.1866    1.1587    1.6898 H   0  0  0  0  0  0  0  0  0  0  0  0
   -1.7734    2.6498    0.6713 H   0  0  0  0  0  0  0  0  0  0  0  0
    2.7774   -0.6310   -1.3104 H   0  0  0  0  0  0  0  0  0  0  0  0
    3.6916    0.2133    0.0397 H   0  0  0  0  0  0  0  0  0  0  0  0
    3.3097   -1.5082    0.2201 H   0  0  0  0  0  0  0  0  0  0  0  0
  1  2  1  0
  2  3  1  0
  3  4  1  0
  4  5  2  0
  3  6  1  0
  6  7  2  0
  6  8  1  0
  8  9  1  0
  1 10  1  0
  1 11  1  0
  1 12  1  0
  2 13  1  0
  2 14  1  0
  3 15  1  0
  4 16  1  0
  9 17  1  0
  9 18  1  0
  9 19  1  0
M  END
