
     RDKit          3D

 25 25  0  0  0  0  0  0  0  0999 V2000
   -2.3349    1.2305   -0.3080 C   0  0  0  0  0  0  0  0  0  0  0  0
   -2.0647   -0.0701    0.3649 C   0  0  0  0  0  0  0  0  0  0  0  0
   -0.8994   -0.8181   -0.1966 C   0  0  0  0  0  0  0  0  0  0  0  0
   -0.7706   -2.1144    0.6046 C   0  0  0  0  0  0  0  0  0  0  0  0
    0.3888   -0.1073   -0.0534 C   0  0  0  0  0  0  0  0  0  0  0  0
    0.6669    1.0893    0.4499 C   0  0  0  0  0  0  0  0  0  0  0  0
    2.1322    1.3549    0.3666 C   0  0  0  0  0  0  0  0  0  0  0  0
    2.4601    0.5212   -0.8798 C   0  0  0  0  0  0  0  0  0  0  0  0
    1.6774   -0.7229   -0.5091 C   0  0  0  0  0  0  0  0  0  0  0  0
   -2.4183    2.0121    0.4746 H   0  0  0  0  0  0  0  0  0  0  0  0
   -1.5348    1.5465   -1.0187 H   0  0  0  0  0  0  0  0  0  0  0  0
   -3.3199    1.2396   -0.8381 H   0  0  0  0  0  0  0  0  0  0  0  0
   -1.9692    0.0365    1.4438 H   0  0  0  0  0  0  0  0  0  0  0  0
   -2.9677   -0.7290    0.2000 H   0  0  0  0  0  0  0  0  0  0  0  0
   -1.0451   -1.1099   -1.2501 H   0  0  0  0  0  0  0  0  0  0  0  0
   -1.5602   -2.8309    0.3247 H   0  0  0  0  0  0  0  0  0  0  0  0
    0.2442   -2.5282    0.5456 H   0  0  0  0  0  0  0  0  0  0  0  0
   -0.9399   -1.8099    1.6769 H   0  0  0  0  0  0  0  0  0  0  0  0
   -0.0630    1.7734    0.8615 H   0  0  0  0  0  0  0  0  0  0  0  0
    2.3772    2.4087    0.2367 H   0  0  0  0  0  0  0  0  0  0  0  0
    2.6453    0.8701    1.2239 H   0  0  0  0  0  0  0  0  0  0  0  0
    3.5288    0.3336   -0.9783 H   0  0  0  0  0  0  0  0  0  0  0  0
    1.9996    1.0246   -1.7524 H   0  0  0  0  0  0  0  0  0  0  0  0
    2.2229   -1.1848    0.3552 H   0  0  0  0  0  0  0  0  0  0  0  0
    1.5442   -1.4155   -1.3444 H   0  0  0  0  0  0  0  0  0  0  0  0
  1  2  1  0
  2  3  1  0
  3  4  1  0
  3  5  1  0
  5  6  2  0
  6  7  1  0
  7  8  1  0
  8  9  1  0
  9  5  1  0
  1 10  1  0
  1 11  1  0
  1 12  1  0
  2 13  1  0
  2 14  1  0
  3 15  1  0
  4 16  1  0
  4 17  1  0
  4 18  1  0
  6 19  1  0
  7 20  1  0
  7 21  1  0
  8 22  1  0
  8 23  1  0
  9 24  1  0
  9 25  1  0
M  END
