
     RDKit          3D

 27 26  0  0  0  0  0  0  0  0999 V2000
    0.9270    2.2840    0.3510 C   0  0  0  0  0  0  0  0  0  0  0  0
   -0.1907    1.2831    0.3988 C   0  0  0  0  0  0  0  0  0  0  0  0
    0.0096    0.0335   -0.3657 C   0  0  0  0  0  0  0  0  0  0  0  0
   -1.1855   -0.9051   -0.2671 C   0  0  0  0  0  0  0  0  0  0  0  0
   -1.4756   -1.3145    1.1411 C   0  0  0  0  0  0  0  0  0  0  0  0
   -2.4255   -0.3134   -0.8622 C   0  0  0  0  0  0  0  0  0  0  0  0
    1.2163   -0.7868   -0.0322 C   0  0  0  0  0  0  0  0  0  0  0  0
    2.5448   -0.1176   -0.2346 C   0  0  0  0  0  0  0  0  0  0  0  0
    1.2205   -1.8797   -0.9382 O   0  0  0  0  0  0  0  0  0  0  0  0
    1.5402    2.1969   -0.5490 H   0  0  0  0  0  0  0  0  0  0  0  0
    1.5117    2.3210    1.3022 H   0  0  0  0  0  0  0  0  0  0  0  0
    0.5095    3.3463    0.2822 H   0  0  0  0  0  0  0  0  0  0  0  0
   -1.1261    1.7996    0.0252 H   0  0  0  0  0  0  0  0  0  0  0  0
   -0.4340    1.0944    1.4894 H   0  0  0  0  0  0  0  0  0  0  0  0
    0.1065    0.3177   -1.4495 H   0  0  0  0  0  0  0  0  0  0  0  0
   -0.9295   -1.8088   -0.8763 H   0  0  0  0  0  0  0  0  0  0  0  0
   -1.7822   -0.4155    1.7291 H   0  0  0  0  0  0  0  0  0  0  0  0
   -0.6393   -1.7677    1.6787 H   0  0  0  0  0  0  0  0  0  0  0  0
   -2.2842   -2.0725    1.1040 H   0  0  0  0  0  0  0  0  0  0  0  0
   -2.9987    0.1664   -0.0269 H   0  0  0  0  0  0  0  0  0  0  0  0
   -3.0719   -1.1003   -1.3112 H   0  0  0  0  0  0  0  0  0  0  0  0
   -2.2245    0.4149   -1.6695 H   0  0  0  0  0  0  0  0  0  0  0  0
    1.1900   -1.1667    1.0149 H   0  0  0  0  0  0  0  0  0  0  0  0
    3.2997   -0.9760   -0.1979 H   0  0  0  0  0  0  0  0  0  0  0  0
    2.6600    0.2634   -1.2765 H   0  0  0  0  0  0  0  0  0  0  0  0
    2.8695    0.5557    0.5531 H   0  0  0  0  0  0  0  0  0  0  0  0
    1.1622   -1.4524   -1.8441 H   0  0  0  0  0  0  0  0  0  0  0  0
  1  2  1  0
  2  3  1  0
  3  4  1  0
  4  5  1  0
  4  6  1  0
  3  7  1  0
  7  8  1  0
  7  9  1  0
  1 10  1  0
  1 11  1  0
  1 12  1  0
  2 13  1  0
  2 14  1  0
  3 15  1  0
  4 16  1  0
  5 17  1  0
  5 18  1  0
  5 19  1  0
  6 20  1  0
  6 21  1  0
  6 22  1  0
  7 23  1  0
  8 24  1  0
  8 25  1  0
  8 26  1  0
  9 27  1  0
M  END
