
     RDKit          3D

 23 24  0  0  0  0  0  0  0  0999 V2000
    1.8576   -1.1669    0.5761 C   0  0  0  0  0  0  0  0  0  0  0  0
    1.5078    0.1224   -0.0751 C   0  0  0  0  0  0  0  0  0  0  0  0
    0.2376    0.7722    0.3172 C   0  0  0  0  0  0  0  0  0  0  0  0
    0.1726    2.0713   -0.5241 C   0  0  0  0  0  0  0  0  0  0  0  0
   -1.0458    0.1214    0.1368 C   0  0  0  0  0  0  0  0  0  0  0  0
   -1.3373   -0.2346   -1.3104 C   0  0  0  0  0  0  0  0  0  0  0  0
   -0.4457   -1.2928   -0.9561 O   0  0  0  0  0  0  0  0  0  0  0  0
   -1.2897   -1.4093    0.1255 C   0  0  0  0  0  0  0  0  0  0  0  0
   -1.5224   -0.6128    1.2829 C   0  0  0  0  0  0  0  0  0  0  0  0
    1.1072   -1.5425    1.2945 H   0  0  0  0  0  0  0  0  0  0  0  0
    2.0916   -1.9880   -0.1618 H   0  0  0  0  0  0  0  0  0  0  0  0
    2.8114   -1.1215    1.1863 H   0  0  0  0  0  0  0  0  0  0  0  0
    2.3222    0.8520    0.2457 H   0  0  0  0  0  0  0  0  0  0  0  0
    1.6789    0.1063   -1.1912 H   0  0  0  0  0  0  0  0  0  0  0  0
    0.4106    1.1836    1.3636 H   0  0  0  0  0  0  0  0  0  0  0  0
    0.5115    1.8635   -1.5548 H   0  0  0  0  0  0  0  0  0  0  0  0
   -0.8667    2.4358   -0.5873 H   0  0  0  0  0  0  0  0  0  0  0  0
    0.8001    2.8567   -0.0936 H   0  0  0  0  0  0  0  0  0  0  0  0
   -0.8662    0.4347   -2.0237 H   0  0  0  0  0  0  0  0  0  0  0  0
   -2.3558   -0.5657   -1.5253 H   0  0  0  0  0  0  0  0  0  0  0  0
   -2.2749   -1.7521   -0.3385 H   0  0  0  0  0  0  0  0  0  0  0  0
   -0.9383   -0.8337    2.2010 H   0  0  0  0  0  0  0  0  0  0  0  0
   -2.5662   -0.2999    1.6121 H   0  0  0  0  0  0  0  0  0  0  0  0
  1  2  1  0
  2  3  1  0
  3  4  1  0
  3  5  1  0
  5  6  1  0
  6  7  1  0
  7  8  1  0
  8  9  1  0
  8  5  1  0
  9  5  1  0
  1 10  1  0
  1 11  1  0
  1 12  1  0
  2 13  1  0
  2 14  1  0
  3 15  1  0
  4 16  1  0
  4 17  1  0
  4 18  1  0
  6 19  1  0
  6 20  1  0
  8 21  1  0
  9 22  1  0
  9 23  1  0
M  END
