
     RDKit          3D

 25 25  0  0  0  0  0  0  0  0999 V2000
    1.6944   -1.7722    0.2040 C   0  0  0  0  0  0  0  0  0  0  0  0
    1.6208   -0.4179   -0.4093 C   0  0  0  0  0  0  0  0  0  0  0  0
    0.5836    0.5293    0.0874 C   0  0  0  0  0  0  0  0  0  0  0  0
    0.6657    1.8569   -0.6350 C   0  0  0  0  0  0  0  0  0  0  0  0
   -0.2704    2.7311   -0.1288 O   0  0  0  0  0  0  0  0  0  0  0  0
   -0.7911   -0.0079    0.2720 C   0  0  0  0  0  0  0  0  0  0  0  0
   -0.9953   -1.1145    1.3346 C   0  0  0  0  0  0  0  0  0  0  0  0
   -1.9873    0.7418   -0.1180 C   0  0  0  0  0  0  0  0  0  0  0  0
   -1.5663   -0.3905   -0.9817 C   0  0  0  0  0  0  0  0  0  0  0  0
    1.0611   -2.5045   -0.3628 H   0  0  0  0  0  0  0  0  0  0  0  0
    1.4454   -1.7268    1.2737 H   0  0  0  0  0  0  0  0  0  0  0  0
    2.7467   -2.1889    0.0769 H   0  0  0  0  0  0  0  0  0  0  0  0
    1.4826   -0.6053   -1.5095 H   0  0  0  0  0  0  0  0  0  0  0  0
    2.6602    0.0446   -0.3348 H   0  0  0  0  0  0  0  0  0  0  0  0
    0.9361    0.8050    1.1495 H   0  0  0  0  0  0  0  0  0  0  0  0
    1.7136    2.2361   -0.4702 H   0  0  0  0  0  0  0  0  0  0  0  0
    0.5850    1.7284   -1.7339 H   0  0  0  0  0  0  0  0  0  0  0  0
    0.1353    3.2727    0.5948 H   0  0  0  0  0  0  0  0  0  0  0  0
   -0.4598   -0.9109    2.2565 H   0  0  0  0  0  0  0  0  0  0  0  0
   -2.1003   -1.0824    1.6074 H   0  0  0  0  0  0  0  0  0  0  0  0
   -0.8546   -2.0718    0.8407 H   0  0  0  0  0  0  0  0  0  0  0  0
   -2.8880    0.6054    0.5615 H   0  0  0  0  0  0  0  0  0  0  0  0
   -2.0689    1.6953   -0.6413 H   0  0  0  0  0  0  0  0  0  0  0  0
   -2.2157   -1.2810   -0.9720 H   0  0  0  0  0  0  0  0  0  0  0  0
   -1.1328   -0.1719   -1.9618 H   0  0  0  0  0  0  0  0  0  0  0  0
  1  2  1  0
  2  3  1  0
  3  4  1  0
  4  5  1  0
  3  6  1  0
  6  7  1  0
  6  8  1  0
  8  9  1  0
  9  6  1  0
  1 10  1  0
  1 11  1  0
  1 12  1  0
  2 13  1  0
  2 14  1  0
  3 15  1  0
  4 16  1  0
  4 17  1  0
  5 18  1  0
  7 19  1  0
  7 20  1  0
  7 21  1  0
  8 22  1  0
  8 23  1  0
  9 24  1  0
  9 25  1  0
M  END
