
     RDKit          3D

 19 18  0  0  0  0  0  0  0  0999 V2000
   -2.4235    0.9183   -1.0435 C   0  0  0  0  0  0  0  0  0  0  0  0
   -2.1546   -0.0020    0.1095 C   0  0  0  0  0  0  0  0  0  0  0  0
   -0.8383   -0.6433   -0.0867 C   0  0  0  0  0  0  0  0  0  0  0  0
   -0.7482   -1.5705   -0.8631 O   0  0  0  0  0  0  0  0  0  0  0  0
    0.3778   -0.1990    0.6277 C   0  0  0  0  0  0  0  0  0  0  0  0
    1.5316   -1.0678    0.1920 C   0  0  0  0  0  0  0  0  0  0  0  0
    2.7496   -0.7397    0.8067 O   0  0  0  0  0  0  0  0  0  0  0  0
    3.3536    0.4971    0.6883 C   0  0  0  0  0  0  0  0  0  0  0  0
    2.7979    1.3822   -0.0006 O   0  0  0  0  0  0  0  0  0  0  0  0
   -3.0875    0.4008   -1.7774 H   0  0  0  0  0  0  0  0  0  0  0  0
   -1.5048    1.2067   -1.5973 H   0  0  0  0  0  0  0  0  0  0  0  0
   -2.8703    1.8691   -0.6854 H   0  0  0  0  0  0  0  0  0  0  0  0
   -2.1702    0.5243    1.0980 H   0  0  0  0  0  0  0  0  0  0  0  0
   -2.9313   -0.8080    0.1907 H   0  0  0  0  0  0  0  0  0  0  0  0
    0.5668    0.8737    0.4368 H   0  0  0  0  0  0  0  0  0  0  0  0
    0.2345   -0.3016    1.7360 H   0  0  0  0  0  0  0  0  0  0  0  0
    1.2289   -2.1165    0.3841 H   0  0  0  0  0  0  0  0  0  0  0  0
    1.5942   -0.9734   -0.9322 H   0  0  0  0  0  0  0  0  0  0  0  0
    4.2937    0.7496    1.1643 H   0  0  0  0  0  0  0  0  0  0  0  0
  1  2  1  0
  2  3  1  0
  3  4  2  0
  3  5  1  0
  5  6  1  0
  6  7  1  0
  7  8  1  0
  8  9  2  0
  1 10  1  0
  1 11  1  0
  1 12  1  0
  2 13  1  0
  2 14  1  0
  5 15  1  0
  5 16  1  0
  6 17  1  0
  6 18  1  0
  8 19  1  0
M  END
