
     RDKit          3D

 17 17  0  0  0  0  0  0  0  0999 V2000
   -2.5083    0.2143   -0.0897 C   0  0  0  0  0  0  0  0  0  0  0  0
   -1.3559   -0.5438    0.5505 C   0  0  0  0  0  0  0  0  0  0  0  0
   -0.1986   -0.6532   -0.3660 C   0  0  0  0  0  0  0  0  0  0  0  0
   -0.2208   -1.4969   -1.2402 O   0  0  0  0  0  0  0  0  0  0  0  0
    0.9632    0.2298   -0.2388 C   0  0  0  0  0  0  0  0  0  0  0  0
    2.1206   -0.3617    0.5781 C   0  0  0  0  0  0  0  0  0  0  0  0
    2.2802    1.0763    0.9037 C   0  0  0  0  0  0  0  0  0  0  0  0
    3.1697    1.9066    1.1617 O   0  0  0  0  0  0  0  0  0  0  0  0
    0.8985    1.1835    0.8060 O   0  0  0  0  0  0  0  0  0  0  0  0
   -2.1686    1.1742   -0.5461 H   0  0  0  0  0  0  0  0  0  0  0  0
   -3.2256    0.4890    0.7155 H   0  0  0  0  0  0  0  0  0  0  0  0
   -3.0311   -0.4436   -0.8147 H   0  0  0  0  0  0  0  0  0  0  0  0
   -1.0537   -0.0685    1.5096 H   0  0  0  0  0  0  0  0  0  0  0  0
   -1.7686   -1.5586    0.8105 H   0  0  0  0  0  0  0  0  0  0  0  0
    1.4058    0.6117   -1.1908 H   0  0  0  0  0  0  0  0  0  0  0  0
    1.7839   -0.9362    1.4454 H   0  0  0  0  0  0  0  0  0  0  0  0
    2.9094   -0.8229   -0.0135 H   0  0  0  0  0  0  0  0  0  0  0  0
  1  2  1  0
  2  3  1  0
  3  4  2  0
  3  5  1  0
  5  6  1  0
  6  7  1  0
  7  8  2  0
  7  9  1  0
  9  5  1  0
  1 10  1  0
  1 11  1  0
  1 12  1  0
  2 13  1  0
  2 14  1  0
  5 15  1  0
  6 16  1  0
  6 17  1  0
M  END
