
     RDKit          3D

 23 22  0  0  0  0  0  0  0  0999 V2000
    2.8285   -1.0697    0.6611 C   0  0  0  0  0  0  0  0  0  0  0  0
    1.7153   -0.7793   -0.3015 C   0  0  0  0  0  0  0  0  0  0  0  0
    0.7632    0.2352    0.1955 C   0  0  0  0  0  0  0  0  0  0  0  0
    0.9519    0.7237    1.2848 O   0  0  0  0  0  0  0  0  0  0  0  0
   -0.3901    0.6513   -0.6027 C   0  0  0  0  0  0  0  0  0  0  0  0
   -1.3409   -0.4721   -0.9361 C   0  0  0  0  0  0  0  0  0  0  0  0
   -1.9259   -1.1352    0.2664 C   0  0  0  0  0  0  0  0  0  0  0  0
   -1.1940    1.7514    0.0618 C   0  0  0  0  0  0  0  0  0  0  0  0
   -0.3570    2.8581    0.2432 O   0  0  0  0  0  0  0  0  0  0  0  0
    3.2702   -2.0703    0.4588 H   0  0  0  0  0  0  0  0  0  0  0  0
    3.6843   -0.3459    0.5309 H   0  0  0  0  0  0  0  0  0  0  0  0
    2.4819   -0.9809    1.7111 H   0  0  0  0  0  0  0  0  0  0  0  0
    2.1825   -0.3851   -1.2427 H   0  0  0  0  0  0  0  0  0  0  0  0
    1.1767   -1.7024   -0.6143 H   0  0  0  0  0  0  0  0  0  0  0  0
   -0.0737    1.0833   -1.5981 H   0  0  0  0  0  0  0  0  0  0  0  0
   -2.1944    0.0053   -1.4973 H   0  0  0  0  0  0  0  0  0  0  0  0
   -0.8856   -1.1940   -1.6519 H   0  0  0  0  0  0  0  0  0  0  0  0
   -2.3220   -2.1365   -0.0632 H   0  0  0  0  0  0  0  0  0  0  0  0
   -1.2043   -1.2611    1.0970 H   0  0  0  0  0  0  0  0  0  0  0  0
   -2.8084   -0.5850    0.6644 H   0  0  0  0  0  0  0  0  0  0  0  0
   -2.0203    2.0010   -0.6607 H   0  0  0  0  0  0  0  0  0  0  0  0
   -1.6458    1.4064    1.0046 H   0  0  0  0  0  0  0  0  0  0  0  0
   -0.6921    3.4021    0.9892 H   0  0  0  0  0  0  0  0  0  0  0  0
  1  2  1  0
  2  3  1  0
  3  4  2  0
  3  5  1  0
  5  6  1  0
  6  7  1  0
  5  8  1  0
  8  9  1  0
  1 10  1  0
  1 11  1  0
  1 12  1  0
  2 13  1  0
  2 14  1  0
  5 15  1  0
  6 16  1  0
  6 17  1  0
  7 18  1  0
  7 19  1  0
  7 20  1  0
  8 21  1  0
  8 22  1  0
  9 23  1  0
M  END
