
     RDKit          3D

 27 26  0  0  0  0  0  0  0  0999 V2000
    1.4927    1.6238    0.4862 C   0  0  0  0  0  0  0  0  0  0  0  0
    1.8343    0.2379    0.1185 C   0  0  0  0  0  0  0  0  0  0  0  0
    0.8545   -0.8448    0.3639 C   0  0  0  0  0  0  0  0  0  0  0  0
    1.6588   -2.1248   -0.1100 C   0  0  0  0  0  0  0  0  0  0  0  0
   -0.3437   -0.8785   -0.4553 C   0  0  0  0  0  0  0  0  0  0  0  0
   -1.3719    0.1336   -0.5735 C   0  0  0  0  0  0  0  0  0  0  0  0
   -1.1540    1.4845   -1.0690 C   0  0  0  0  0  0  0  0  0  0  0  0
   -2.1362    0.2966    0.7727 C   0  0  0  0  0  0  0  0  0  0  0  0
   -2.3980   -0.4448   -1.3959 O   0  0  0  0  0  0  0  0  0  0  0  0
    1.4766    2.3659   -0.3476 H   0  0  0  0  0  0  0  0  0  0  0  0
    0.6168    1.7231    1.1685 H   0  0  0  0  0  0  0  0  0  0  0  0
    2.3409    2.0250    1.1337 H   0  0  0  0  0  0  0  0  0  0  0  0
    2.8533   -0.0049    0.5618 H   0  0  0  0  0  0  0  0  0  0  0  0
    2.0661    0.2386   -0.9873 H   0  0  0  0  0  0  0  0  0  0  0  0
    0.7224   -1.0935    1.4436 H   0  0  0  0  0  0  0  0  0  0  0  0
    2.0239   -1.9401   -1.1395 H   0  0  0  0  0  0  0  0  0  0  0  0
    2.4704   -2.3156    0.5919 H   0  0  0  0  0  0  0  0  0  0  0  0
    0.9717   -2.9763   -0.1391 H   0  0  0  0  0  0  0  0  0  0  0  0
   -0.9112   -1.8571   -0.2209 H   0  0  0  0  0  0  0  0  0  0  0  0
    0.0323   -1.1688   -1.5132 H   0  0  0  0  0  0  0  0  0  0  0  0
   -2.0212    1.7987   -1.7507 H   0  0  0  0  0  0  0  0  0  0  0  0
   -0.2802    1.5862   -1.7478 H   0  0  0  0  0  0  0  0  0  0  0  0
   -1.1142    2.3233   -0.3576 H   0  0  0  0  0  0  0  0  0  0  0  0
   -2.0859   -0.6259    1.3559 H   0  0  0  0  0  0  0  0  0  0  0  0
   -3.1870    0.5407    0.5993 H   0  0  0  0  0  0  0  0  0  0  0  0
   -1.7006    1.1381    1.3508 H   0  0  0  0  0  0  0  0  0  0  0  0
   -2.7107   -1.2408   -0.8923 H   0  0  0  0  0  0  0  0  0  0  0  0
  1  2  1  0
  2  3  1  0
  3  4  1  0
  3  5  1  0
  5  6  1  0
  6  7  1  0
  6  8  1  0
  6  9  1  0
  1 10  1  0
  1 11  1  0
  1 12  1  0
  2 13  1  0
  2 14  1  0
  3 15  1  0
  4 16  1  0
  4 17  1  0
  4 18  1  0
  5 19  1  0
  5 20  1  0
  7 21  1  0
  7 22  1  0
  7 23  1  0
  8 24  1  0
  8 25  1  0
  8 26  1  0
  9 27  1  0
M  END
