
     RDKit          3D

 19 18  0  0  0  0  0  0  0  0999 V2000
    2.5444    0.6174    0.8875 C   0  0  0  0  0  0  0  0  0  0  0  0
    2.3075   -0.8220    0.5513 C   0  0  0  0  0  0  0  0  0  0  0  0
    0.9081   -1.1263    0.2141 C   0  0  0  0  0  0  0  0  0  0  0  0
    0.6182   -2.3114   -0.0811 O   0  0  0  0  0  0  0  0  0  0  0  0
   -0.1758   -0.1467    0.1968 C   0  0  0  0  0  0  0  0  0  0  0  0
    0.0681    1.0522    0.4856 O   0  0  0  0  0  0  0  0  0  0  0  0
   -1.5684   -0.5122   -0.1514 C   0  0  0  0  0  0  0  0  0  0  0  0
   -2.4239    0.7030   -0.0764 C   0  0  0  0  0  0  0  0  0  0  0  0
   -3.7505    0.4736   -0.3841 O   0  0  0  0  0  0  0  0  0  0  0  0
    3.6217    0.7439    1.1470 H   0  0  0  0  0  0  0  0  0  0  0  0
    2.3476    1.2877    0.0371 H   0  0  0  0  0  0  0  0  0  0  0  0
    1.9910    0.9368    1.8055 H   0  0  0  0  0  0  0  0  0  0  0  0
    2.9285   -1.0636   -0.3357 H   0  0  0  0  0  0  0  0  0  0  0  0
    2.6858   -1.4506    1.3973 H   0  0  0  0  0  0  0  0  0  0  0  0
   -1.9407   -1.3448    0.5089 H   0  0  0  0  0  0  0  0  0  0  0  0
   -1.5824   -0.9354   -1.1764 H   0  0  0  0  0  0  0  0  0  0  0  0
   -2.3071    1.1932    0.9255 H   0  0  0  0  0  0  0  0  0  0  0  0
   -2.0381    1.4379   -0.8086 H   0  0  0  0  0  0  0  0  0  0  0  0
   -4.2339    1.2672   -0.6700 H   0  0  0  0  0  0  0  0  0  0  0  0
  1  2  1  0
  2  3  1  0
  3  4  2  0
  3  5  1  0
  5  6  2  0
  5  7  1  0
  7  8  1  0
  8  9  1  0
  1 10  1  0
  1 11  1  0
  1 12  1  0
  2 13  1  0
  2 14  1  0
  7 15  1  0
  7 16  1  0
  8 17  1  0
  8 18  1  0
  9 19  1  0
M  END
