
     RDKit          3D

 25 25  0  0  0  0  0  0  0  0999 V2000
   -1.6800   -1.9985   -0.4762 C   0  0  0  0  0  0  0  0  0  0  0  0
   -0.2746   -1.5827   -0.2139 C   0  0  0  0  0  0  0  0  0  0  0  0
    0.0337   -0.1405   -0.4552 C   0  0  0  0  0  0  0  0  0  0  0  0
   -0.7153    0.7791    0.4018 C   0  0  0  0  0  0  0  0  0  0  0  0
   -2.2059    0.8285    0.2989 C   0  0  0  0  0  0  0  0  0  0  0  0
    1.5015   -0.0034   -0.5460 C   0  0  0  0  0  0  0  0  0  0  0  0
    2.2295    1.2486   -0.7777 C   0  0  0  0  0  0  0  0  0  0  0  0
    2.2042    0.6977    0.6122 C   0  0  0  0  0  0  0  0  0  0  0  0
    1.5566    1.4592    1.5319 O   0  0  0  0  0  0  0  0  0  0  0  0
   -2.3433   -1.6747    0.3170 H   0  0  0  0  0  0  0  0  0  0  0  0
   -1.7166   -3.1389   -0.5467 H   0  0  0  0  0  0  0  0  0  0  0  0
   -1.9818   -1.5855   -1.4669 H   0  0  0  0  0  0  0  0  0  0  0  0
    0.0797   -1.9178    0.8006 H   0  0  0  0  0  0  0  0  0  0  0  0
    0.3510   -2.2388   -0.9129 H   0  0  0  0  0  0  0  0  0  0  0  0
   -0.3404    0.0999   -1.5322 H   0  0  0  0  0  0  0  0  0  0  0  0
   -0.4947    0.5889    1.5203 H   0  0  0  0  0  0  0  0  0  0  0  0
   -0.3679    1.8512    0.3172 H   0  0  0  0  0  0  0  0  0  0  0  0
   -2.5720    1.9199    0.3288 H   0  0  0  0  0  0  0  0  0  0  0  0
   -2.7125    0.3859    1.1902 H   0  0  0  0  0  0  0  0  0  0  0  0
   -2.5501    0.4618   -0.6528 H   0  0  0  0  0  0  0  0  0  0  0  0
    2.0109   -0.9428   -0.9284 H   0  0  0  0  0  0  0  0  0  0  0  0
    3.2203    1.1671   -1.2691 H   0  0  0  0  0  0  0  0  0  0  0  0
    1.7385    2.2125   -0.9776 H   0  0  0  0  0  0  0  0  0  0  0  0
    3.0962    0.1516    1.0023 H   0  0  0  0  0  0  0  0  0  0  0  0
    1.9332    1.3717    2.4344 H   0  0  0  0  0  0  0  0  0  0  0  0
  1  2  1  0
  2  3  1  0
  3  4  1  0
  4  5  1  0
  3  6  1  0
  6  7  1  0
  7  8  1  0
  8  9  1  0
  8  6  1  0
  1 10  1  0
  1 11  1  0
  1 12  1  0
  2 13  1  0
  2 14  1  0
  3 15  1  0
  4 16  1  0
  4 17  1  0
  5 18  1  0
  5 19  1  0
  5 20  1  0
  6 21  1  0
  7 22  1  0
  7 23  1  0
  8 24  1  0
  9 25  1  0
M  END
