
     RDKit          3D

 17 16  0  0  0  0  0  0  0  0999 V2000
    3.0776   -0.9715   -0.7827 C   0  0  0  0  0  0  0  0  0  0  0  0
    1.9146   -0.0832   -1.1744 C   0  0  0  0  0  0  0  0  0  0  0  0
    0.6352   -0.7929   -0.9094 C   0  0  0  0  0  0  0  0  0  0  0  0
    0.4713   -1.9092   -1.4427 O   0  0  0  0  0  0  0  0  0  0  0  0
   -0.3942   -0.2412   -0.0739 C   0  0  0  0  0  0  0  0  0  0  0  0
   -1.2645    0.2334    0.6171 C   0  0  0  0  0  0  0  0  0  0  0  0
   -2.3215    0.8351    1.4804 C   0  0  0  0  0  0  0  0  0  0  0  0
   -3.5796    0.1274    1.2150 C   0  0  0  0  0  0  0  0  0  0  0  0
   -3.6043   -0.7813    0.4225 O   0  0  0  0  0  0  0  0  0  0  0  0
    3.6948   -0.4661    0.0206 H   0  0  0  0  0  0  0  0  0  0  0  0
    3.7084   -1.1849   -1.6559 H   0  0  0  0  0  0  0  0  0  0  0  0
    2.7024   -1.9476   -0.3799 H   0  0  0  0  0  0  0  0  0  0  0  0
    1.9731    0.2597   -2.2434 H   0  0  0  0  0  0  0  0  0  0  0  0
    1.9279    0.8667   -0.5659 H   0  0  0  0  0  0  0  0  0  0  0  0
   -2.0054    0.8349    2.5374 H   0  0  0  0  0  0  0  0  0  0  0  0
   -2.4370    1.9233    1.2044 H   0  0  0  0  0  0  0  0  0  0  0  0
   -4.4990    0.4198    1.7307 H   0  0  0  0  0  0  0  0  0  0  0  0
  1  2  1  0
  2  3  1  0
  3  4  2  0
  3  5  1  0
  5  6  3  0
  6  7  1  0
  7  8  1  0
  8  9  2  0
  1 10  1  0
  1 11  1  0
  1 12  1  0
  2 13  1  0
  2 14  1  0
  7 15  1  0
  7 16  1  0
  8 17  1  0
M  END
