
     RDKit          3D

 21 21  0  0  0  0  0  0  0  0999 V2000
   -3.2205    0.6390    0.2406 C   0  0  0  0  0  0  0  0  0  0  0  0
   -1.7369    0.5263    0.5128 C   0  0  0  0  0  0  0  0  0  0  0  0
   -1.0340    0.7532   -0.7931 C   0  0  0  0  0  0  0  0  0  0  0  0
   -1.6670    0.9786   -1.8101 O   0  0  0  0  0  0  0  0  0  0  0  0
    0.4436    0.7138   -0.9025 C   0  0  0  0  0  0  0  0  0  0  0  0
    1.1558    1.2866    0.2920 C   0  0  0  0  0  0  0  0  0  0  0  0
    1.2393   -0.2000   -0.0507 C   0  0  0  0  0  0  0  0  0  0  0  0
    2.4866   -0.6031   -0.4549 O   0  0  0  0  0  0  0  0  0  0  0  0
    2.8592   -1.8524    0.0305 C   0  0  0  0  0  0  0  0  0  0  0  0
   -3.8002    0.0631    0.9939 H   0  0  0  0  0  0  0  0  0  0  0  0
   -3.3895    0.2430   -0.7828 H   0  0  0  0  0  0  0  0  0  0  0  0
   -3.5164    1.7176    0.2345 H   0  0  0  0  0  0  0  0  0  0  0  0
   -1.4035    1.2894    1.2639 H   0  0  0  0  0  0  0  0  0  0  0  0
   -1.5356   -0.5100    0.8878 H   0  0  0  0  0  0  0  0  0  0  0  0
    0.8562    0.8926   -1.9042 H   0  0  0  0  0  0  0  0  0  0  0  0
    0.6107    1.5933    1.1827 H   0  0  0  0  0  0  0  0  0  0  0  0
    2.0227    1.9307    0.0498 H   0  0  0  0  0  0  0  0  0  0  0  0
    0.6490   -0.8796    0.6079 H   0  0  0  0  0  0  0  0  0  0  0  0
    2.1310   -2.5856   -0.3315 H   0  0  0  0  0  0  0  0  0  0  0  0
    2.9854   -1.8547    1.1311 H   0  0  0  0  0  0  0  0  0  0  0  0
    3.8642   -2.0710   -0.3975 H   0  0  0  0  0  0  0  0  0  0  0  0
  1  2  1  0
  2  3  1  0
  3  4  2  0
  3  5  1  0
  5  6  1  0
  6  7  1  0
  7  8  1  0
  8  9  1  0
  7  5  1  0
  1 10  1  0
  1 11  1  0
  1 12  1  0
  2 13  1  0
  2 14  1  0
  5 15  1  0
  6 16  1  0
  6 17  1  0
  7 18  1  0
  9 19  1  0
  9 20  1  0
  9 21  1  0
M  END
