
     RDKit          3D

 23 23  0  0  0  0  0  0  0  0999 V2000
    2.9132    0.9111   -0.1078 C   0  0  0  0  0  0  0  0  0  0  0  0
    2.1291   -0.3995    0.0206 C   0  0  0  0  0  0  0  0  0  0  0  0
    0.8385   -0.1783    0.7126 C   0  0  0  0  0  0  0  0  0  0  0  0
    0.8681   -0.0786    1.9311 O   0  0  0  0  0  0  0  0  0  0  0  0
   -0.3900   -0.0913   -0.0838 C   0  0  0  0  0  0  0  0  0  0  0  0
   -0.2289   -0.2378   -1.5710 C   0  0  0  0  0  0  0  0  0  0  0  0
   -1.3280    1.0413    0.3998 C   0  0  0  0  0  0  0  0  0  0  0  0
   -1.7202   -0.3968    0.4861 C   0  0  0  0  0  0  0  0  0  0  0  0
   -2.7883   -0.8383   -0.4632 C   0  0  0  0  0  0  0  0  0  0  0  0
    3.9487    0.5889   -0.3757 H   0  0  0  0  0  0  0  0  0  0  0  0
    2.8956    1.4825    0.8452 H   0  0  0  0  0  0  0  0  0  0  0  0
    2.4846    1.5424   -0.8891 H   0  0  0  0  0  0  0  0  0  0  0  0
    2.7553   -1.1648    0.5277 H   0  0  0  0  0  0  0  0  0  0  0  0
    1.9344   -0.7638   -0.9945 H   0  0  0  0  0  0  0  0  0  0  0  0
    0.1183   -1.2884   -1.7563 H   0  0  0  0  0  0  0  0  0  0  0  0
    0.5763    0.4530   -1.9000 H   0  0  0  0  0  0  0  0  0  0  0  0
   -1.1537   -0.0993   -2.1461 H   0  0  0  0  0  0  0  0  0  0  0  0
   -1.7125    1.6801   -0.4246 H   0  0  0  0  0  0  0  0  0  0  0  0
   -1.0886    1.5522    1.3432 H   0  0  0  0  0  0  0  0  0  0  0  0
   -1.7547   -0.8477    1.4958 H   0  0  0  0  0  0  0  0  0  0  0  0
   -2.5403   -1.8179   -0.8950 H   0  0  0  0  0  0  0  0  0  0  0  0
   -2.9911   -0.0995   -1.2849 H   0  0  0  0  0  0  0  0  0  0  0  0
   -3.7657   -0.9495    0.0918 H   0  0  0  0  0  0  0  0  0  0  0  0
  1  2  1  0
  2  3  1  0
  3  4  2  0
  3  5  1  0
  5  6  1  0
  5  7  1  0
  7  8  1  0
  8  9  1  0
  8  5  1  0
  1 10  1  0
  1 11  1  0
  1 12  1  0
  2 13  1  0
  2 14  1  0
  6 15  1  0
  6 16  1  0
  6 17  1  0
  7 18  1  0
  7 19  1  0
  8 20  1  0
  9 21  1  0
  9 22  1  0
  9 23  1  0
M  END
