
     RDKit          3D

 22 22  0  0  0  0  0  0  0  0999 V2000
    2.8192    0.2932    0.3470 C   0  0  0  0  0  0  0  0  0  0  0  0
    1.4196    0.8046    0.1772 C   0  0  0  0  0  0  0  0  0  0  0  0
    0.3836   -0.2399    0.6022 C   0  0  0  0  0  0  0  0  0  0  0  0
    0.4868   -1.4896   -0.1926 C   0  0  0  0  0  0  0  0  0  0  0  0
   -0.9467    0.4299    0.5678 C   0  0  0  0  0  0  0  0  0  0  0  0
   -2.1462   -0.3603    0.9390 C   0  0  0  0  0  0  0  0  0  0  0  0
   -2.7400    0.6915   -0.0121 C   0  0  0  0  0  0  0  0  0  0  0  0
   -1.5140    0.5950   -0.6965 O   0  0  0  0  0  0  0  0  0  0  0  0
    3.4735    1.1737    0.5206 H   0  0  0  0  0  0  0  0  0  0  0  0
    2.8907   -0.3649    1.2481 H   0  0  0  0  0  0  0  0  0  0  0  0
    3.2060   -0.2146   -0.5617 H   0  0  0  0  0  0  0  0  0  0  0  0
    1.2847    1.0803   -0.8958 H   0  0  0  0  0  0  0  0  0  0  0  0
    1.2897    1.7336    0.7539 H   0  0  0  0  0  0  0  0  0  0  0  0
    0.6169   -0.4793    1.6632 H   0  0  0  0  0  0  0  0  0  0  0  0
    0.8690   -1.3495   -1.2233 H   0  0  0  0  0  0  0  0  0  0  0  0
    1.1574   -2.2197    0.3354 H   0  0  0  0  0  0  0  0  0  0  0  0
   -0.4972   -1.9621   -0.2736 H   0  0  0  0  0  0  0  0  0  0  0  0
   -0.9224    1.3966    1.0887 H   0  0  0  0  0  0  0  0  0  0  0  0
   -2.4392   -0.2131    1.9997 H   0  0  0  0  0  0  0  0  0  0  0  0
   -2.2747   -1.3577    0.5234 H   0  0  0  0  0  0  0  0  0  0  0  0
   -3.6167    0.3494   -0.5724 H   0  0  0  0  0  0  0  0  0  0  0  0
   -2.8001    1.7028    0.4411 H   0  0  0  0  0  0  0  0  0  0  0  0
  1  2  1  0
  2  3  1  0
  3  4  1  0
  3  5  1  0
  5  6  1  0
  6  7  1  0
  7  8  1  0
  8  5  1  0
  1  9  1  0
  1 10  1  0
  1 11  1  0
  2 12  1  0
  2 13  1  0
  3 14  1  0
  4 15  1  0
  4 16  1  0
  4 17  1  0
  5 18  1  0
  6 19  1  0
  6 20  1  0
  7 21  1  0
  7 22  1  0
M  END
