
     RDKit          3D

 25 24  0  0  0  0  0  0  0  0999 V2000
    1.9853   -1.0054    1.1746 C   0  0  0  0  0  0  0  0  0  0  0  0
    0.5484   -1.1424    0.8354 C   0  0  0  0  0  0  0  0  0  0  0  0
    0.0276   -0.0208   -0.0296 C   0  0  0  0  0  0  0  0  0  0  0  0
    0.8128   -0.0319   -1.2812 C   0  0  0  0  0  0  0  0  0  0  0  0
    1.8857    0.5197   -1.3623 O   0  0  0  0  0  0  0  0  0  0  0  0
   -1.4339   -0.1733   -0.3410 C   0  0  0  0  0  0  0  0  0  0  0  0
   -1.7733   -1.4365   -1.0729 C   0  0  0  0  0  0  0  0  0  0  0  0
    0.1765    1.3037    0.7155 C   0  0  0  0  0  0  0  0  0  0  0  0
   -0.3249    2.4602   -0.0936 C   0  0  0  0  0  0  0  0  0  0  0  0
    2.6033   -1.8841    0.8280 H   0  0  0  0  0  0  0  0  0  0  0  0
    2.4891   -0.1162    0.8043 H   0  0  0  0  0  0  0  0  0  0  0  0
    2.1316   -1.0073    2.2935 H   0  0  0  0  0  0  0  0  0  0  0  0
   -0.0543   -1.1714    1.7698 H   0  0  0  0  0  0  0  0  0  0  0  0
    0.4340   -2.0929    0.2513 H   0  0  0  0  0  0  0  0  0  0  0  0
    0.4355   -0.5378   -2.1492 H   0  0  0  0  0  0  0  0  0  0  0  0
   -2.0607   -0.1337    0.5747 H   0  0  0  0  0  0  0  0  0  0  0  0
   -1.7554    0.6845   -0.9674 H   0  0  0  0  0  0  0  0  0  0  0  0
   -2.2654   -2.1819   -0.4136 H   0  0  0  0  0  0  0  0  0  0  0  0
   -2.4865   -1.2318   -1.9029 H   0  0  0  0  0  0  0  0  0  0  0  0
   -0.8991   -1.9443   -1.5161 H   0  0  0  0  0  0  0  0  0  0  0  0
    1.2408    1.4837    1.0125 H   0  0  0  0  0  0  0  0  0  0  0  0
   -0.3947    1.2922    1.6665 H   0  0  0  0  0  0  0  0  0  0  0  0
    0.2375    3.3601    0.2349 H   0  0  0  0  0  0  0  0  0  0  0  0
   -0.1599    2.3402   -1.1796 H   0  0  0  0  0  0  0  0  0  0  0  0
   -1.4001    2.6672    0.1483 H   0  0  0  0  0  0  0  0  0  0  0  0
  1  2  1  0
  2  3  1  0
  3  4  1  0
  4  5  2  0
  3  6  1  0
  6  7  1  0
  3  8  1  0
  8  9  1  0
  1 10  1  0
  1 11  1  0
  1 12  1  0
  2 13  1  0
  2 14  1  0
  4 15  1  0
  6 16  1  0
  6 17  1  0
  7 18  1  0
  7 19  1  0
  7 20  1  0
  8 21  1  0
  8 22  1  0
  9 23  1  0
  9 24  1  0
  9 25  1  0
M  END
