
     RDKit          3D

 25 24  0  0  0  0  0  0  0  0999 V2000
   -2.5466   -0.8838    0.6853 C   0  0  0  0  0  0  0  0  0  0  0  0
   -2.0762   -0.6127   -0.6886 C   0  0  0  0  0  0  0  0  0  0  0  0
   -0.7625    0.1286   -0.7676 C   0  0  0  0  0  0  0  0  0  0  0  0
   -0.8022    1.4681   -0.1087 C   0  0  0  0  0  0  0  0  0  0  0  0
   -1.7906    2.2976   -0.7053 O   0  0  0  0  0  0  0  0  0  0  0  0
    0.2850   -0.7287   -0.1562 C   0  0  0  0  0  0  0  0  0  0  0  0
    1.6222   -0.0446   -0.2052 C   0  0  0  0  0  0  0  0  0  0  0  0
    2.5367   -0.9396    0.3724 O   0  0  0  0  0  0  0  0  0  0  0  0
    3.8079   -0.3391    0.3482 C   0  0  0  0  0  0  0  0  0  0  0  0
   -2.1269   -0.2605    1.4775 H   0  0  0  0  0  0  0  0  0  0  0  0
   -3.6675   -0.7578    0.7490 H   0  0  0  0  0  0  0  0  0  0  0  0
   -2.3801   -1.9495    0.9991 H   0  0  0  0  0  0  0  0  0  0  0  0
   -2.8651   -0.0764   -1.2660 H   0  0  0  0  0  0  0  0  0  0  0  0
   -1.9264   -1.5800   -1.2146 H   0  0  0  0  0  0  0  0  0  0  0  0
   -0.5470    0.2878   -1.8445 H   0  0  0  0  0  0  0  0  0  0  0  0
    0.1560    1.9989   -0.3950 H   0  0  0  0  0  0  0  0  0  0  0  0
   -0.8392    1.4765    0.9788 H   0  0  0  0  0  0  0  0  0  0  0  0
   -2.3629    2.6026    0.0475 H   0  0  0  0  0  0  0  0  0  0  0  0
    0.0618   -0.8990    0.9353 H   0  0  0  0  0  0  0  0  0  0  0  0
    0.3442   -1.7481   -0.5976 H   0  0  0  0  0  0  0  0  0  0  0  0
    1.8690    0.1878   -1.2458 H   0  0  0  0  0  0  0  0  0  0  0  0
    1.6182    0.9163    0.3629 H   0  0  0  0  0  0  0  0  0  0  0  0
    4.5004   -1.0722    0.8104 H   0  0  0  0  0  0  0  0  0  0  0  0
    3.7688    0.5967    0.9599 H   0  0  0  0  0  0  0  0  0  0  0  0
    4.1229   -0.0691   -0.6741 H   0  0  0  0  0  0  0  0  0  0  0  0
  1  2  1  0
  2  3  1  0
  3  4  1  0
  4  5  1  0
  3  6  1  0
  6  7  1  0
  7  8  1  0
  8  9  1  0
  1 10  1  0
  1 11  1  0
  1 12  1  0
  2 13  1  0
  2 14  1  0
  3 15  1  0
  4 16  1  0
  4 17  1  0
  5 18  1  0
  6 19  1  0
  6 20  1  0
  7 21  1  0
  7 22  1  0
  9 23  1  0
  9 24  1  0
  9 25  1  0
M  END
