
     RDKit          3D

 21 22  0  0  0  0  0  0  0  0999 V2000
   -2.6591   -0.2669    0.6080 C   0  0  0  0  0  0  0  0  0  0  0  0
   -2.0034    0.8455   -0.1798 C   0  0  0  0  0  0  0  0  0  0  0  0
   -0.5920    1.0720    0.2306 C   0  0  0  0  0  0  0  0  0  0  0  0
   -0.3992    1.6893    1.2604 O   0  0  0  0  0  0  0  0  0  0  0  0
    0.4997    0.5579   -0.5964 C   0  0  0  0  0  0  0  0  0  0  0  0
    0.5092   -0.9519   -0.7910 C   0  0  0  0  0  0  0  0  0  0  0  0
    2.0265   -0.8251   -0.6770 C   0  0  0  0  0  0  0  0  0  0  0  0
    2.4973   -0.5376    0.6829 C   0  0  0  0  0  0  0  0  0  0  0  0
    1.8704    0.5750   -0.0372 C   0  0  0  0  0  0  0  0  0  0  0  0
   -2.1648   -0.4481    1.5597 H   0  0  0  0  0  0  0  0  0  0  0  0
   -3.7242   -0.0143    0.7810 H   0  0  0  0  0  0  0  0  0  0  0  0
   -2.6148   -1.2263    0.0156 H   0  0  0  0  0  0  0  0  0  0  0  0
   -2.6194    1.7609   -0.0864 H   0  0  0  0  0  0  0  0  0  0  0  0
   -2.0712    0.5492   -1.2619 H   0  0  0  0  0  0  0  0  0  0  0  0
    0.4898    1.0248   -1.6250 H   0  0  0  0  0  0  0  0  0  0  0  0
    0.0722   -1.4288    0.1032 H   0  0  0  0  0  0  0  0  0  0  0  0
    0.1610   -1.3003   -1.7689 H   0  0  0  0  0  0  0  0  0  0  0  0
    2.6423   -0.8315   -1.5681 H   0  0  0  0  0  0  0  0  0  0  0  0
    1.9549   -1.0987    1.4991 H   0  0  0  0  0  0  0  0  0  0  0  0
    3.5766   -0.5157    0.8446 H   0  0  0  0  0  0  0  0  0  0  0  0
    2.5484    1.3705   -0.4024 H   0  0  0  0  0  0  0  0  0  0  0  0
  1  2  1  0
  2  3  1  0
  3  4  2  0
  3  5  1  0
  5  6  1  0
  6  7  1  0
  7  8  1  0
  8  9  1  0
  9  5  1  0
  9  7  1  0
  1 10  1  0
  1 11  1  0
  1 12  1  0
  2 13  1  0
  2 14  1  0
  5 15  1  0
  6 16  1  0
  6 17  1  0
  7 18  1  0
  8 19  1  0
  8 20  1  0
  9 21  1  0
M  END
