
     RDKit          3D

 25 25  0  0  0  0  0  0  0  0999 V2000
    2.0619    0.8101   -1.1932 C   0  0  0  0  0  0  0  0  0  0  0  0
    1.8873   -0.0713    0.0240 C   0  0  0  0  0  0  0  0  0  0  0  0
    0.4843    0.1095    0.6180 C   0  0  0  0  0  0  0  0  0  0  0  0
    0.3097   -0.7682    1.8302 C   0  0  0  0  0  0  0  0  0  0  0  0
   -0.4997   -0.1798   -0.4734 C   0  0  0  0  0  0  0  0  0  0  0  0
   -0.4587   -1.5404   -1.0809 C   0  0  0  0  0  0  0  0  0  0  0  0
   -0.7138    0.9399   -1.3061 O   0  0  0  0  0  0  0  0  0  0  0  0
   -1.7914    0.5423   -0.5670 C   0  0  0  0  0  0  0  0  0  0  0  0
   -2.2181    1.2368    0.6849 C   0  0  0  0  0  0  0  0  0  0  0  0
    1.5098    0.3637   -2.0477 H   0  0  0  0  0  0  0  0  0  0  0  0
    1.6573    1.8212   -1.0046 H   0  0  0  0  0  0  0  0  0  0  0  0
    3.1311    0.8058   -1.4644 H   0  0  0  0  0  0  0  0  0  0  0  0
    2.6356    0.2489    0.7822 H   0  0  0  0  0  0  0  0  0  0  0  0
    2.0514   -1.1121   -0.3099 H   0  0  0  0  0  0  0  0  0  0  0  0
    0.4455    1.1676    0.9533 H   0  0  0  0  0  0  0  0  0  0  0  0
    0.0656   -1.8122    1.5455 H   0  0  0  0  0  0  0  0  0  0  0  0
    1.2842   -0.7654    2.3932 H   0  0  0  0  0  0  0  0  0  0  0  0
   -0.4668   -0.3904    2.4982 H   0  0  0  0  0  0  0  0  0  0  0  0
   -1.4042   -2.0689   -0.7593 H   0  0  0  0  0  0  0  0  0  0  0  0
   -0.5547   -1.4331   -2.1795 H   0  0  0  0  0  0  0  0  0  0  0  0
    0.3674   -2.1763   -0.7566 H   0  0  0  0  0  0  0  0  0  0  0  0
   -2.6081    0.0760   -1.1389 H   0  0  0  0  0  0  0  0  0  0  0  0
   -1.4614    1.8737    1.1424 H   0  0  0  0  0  0  0  0  0  0  0  0
   -3.1184    1.8587    0.4222 H   0  0  0  0  0  0  0  0  0  0  0  0
   -2.5957    0.4639    1.3874 H   0  0  0  0  0  0  0  0  0  0  0  0
  1  2  1  0
  2  3  1  0
  3  4  1  0
  3  5  1  0
  5  6  1  0
  5  7  1  0
  7  8  1  0
  8  9  1  0
  8  5  1  0
  1 10  1  0
  1 11  1  0
  1 12  1  0
  2 13  1  0
  2 14  1  0
  3 15  1  0
  4 16  1  0
  4 17  1  0
  4 18  1  0
  6 19  1  0
  6 20  1  0
  6 21  1  0
  8 22  1  0
  9 23  1  0
  9 24  1  0
  9 25  1  0
M  END
