
     RDKit          3D

 21 20  0  0  0  0  0  0  0  0999 V2000
   -2.2000   -0.8609    0.4007 C   0  0  0  0  0  0  0  0  0  0  0  0
   -0.7819   -0.5866    0.7712 C   0  0  0  0  0  0  0  0  0  0  0  0
   -0.0365    0.1930   -0.2874 C   0  0  0  0  0  0  0  0  0  0  0  0
   -0.6789    1.5403   -0.5518 C   0  0  0  0  0  0  0  0  0  0  0  0
    0.0358   -0.4866   -1.4771 O   0  0  0  0  0  0  0  0  0  0  0  0
    1.3693    0.4821    0.2129 C   0  0  0  0  0  0  0  0  0  0  0  0
    2.0426    1.2643   -0.7402 O   0  0  0  0  0  0  0  0  0  0  0  0
    2.1373   -0.7524    0.4835 C   0  0  0  0  0  0  0  0  0  0  0  0
    3.1865   -0.9457   -0.1042 O   0  0  0  0  0  0  0  0  0  0  0  0
   -2.3993   -1.9468    0.4213 H   0  0  0  0  0  0  0  0  0  0  0  0
   -2.5031   -0.4457   -0.5806 H   0  0  0  0  0  0  0  0  0  0  0  0
   -2.8773   -0.4169    1.1767 H   0  0  0  0  0  0  0  0  0  0  0  0
   -0.7230   -0.0636    1.7390 H   0  0  0  0  0  0  0  0  0  0  0  0
   -0.2363   -1.5468    0.8978 H   0  0  0  0  0  0  0  0  0  0  0  0
   -0.5176    2.2215    0.3265 H   0  0  0  0  0  0  0  0  0  0  0  0
   -0.0863    1.9827   -1.3939 H   0  0  0  0  0  0  0  0  0  0  0  0
   -1.7384    1.4584   -0.8174 H   0  0  0  0  0  0  0  0  0  0  0  0
    0.4469   -1.3771   -1.4206 H   0  0  0  0  0  0  0  0  0  0  0  0
    1.3392    1.1182    1.1374 H   0  0  0  0  0  0  0  0  0  0  0  0
    2.4440    0.6519   -1.3903 H   0  0  0  0  0  0  0  0  0  0  0  0
    1.7770   -1.4834    1.1965 H   0  0  0  0  0  0  0  0  0  0  0  0
  1  2  1  0
  2  3  1  0
  3  4  1  0
  3  5  1  0
  3  6  1  0
  6  7  1  0
  6  8  1  0
  8  9  2  0
  1 10  1  0
  1 11  1  0
  1 12  1  0
  2 13  1  0
  2 14  1  0
  4 15  1  0
  4 16  1  0
  4 17  1  0
  5 18  1  0
  6 19  1  0
  7 20  1  0
  8 21  1  0
M  END
