
     RDKit          3D

 21 20  0  0  0  0  0  0  0  0999 V2000
   -2.3307    1.0612   -0.6514 C   0  0  0  0  0  0  0  0  0  0  0  0
   -2.3968   -0.3256   -0.0599 C   0  0  0  0  0  0  0  0  0  0  0  0
   -1.3163   -1.2284   -0.6092 C   0  0  0  0  0  0  0  0  0  0  0  0
   -1.3911   -1.3873   -1.9713 O   0  0  0  0  0  0  0  0  0  0  0  0
    0.0165   -0.6663   -0.3088 C   0  0  0  0  0  0  0  0  0  0  0  0
    1.0964   -0.1934   -0.0501 C   0  0  0  0  0  0  0  0  0  0  0  0
    2.4110    0.3857    0.2900 C   0  0  0  0  0  0  0  0  0  0  0  0
    3.0212   -0.3986    1.4572 C   0  0  0  0  0  0  0  0  0  0  0  0
    2.2883    1.7162    0.6934 O   0  0  0  0  0  0  0  0  0  0  0  0
   -2.1754    1.0496   -1.7524 H   0  0  0  0  0  0  0  0  0  0  0  0
   -3.3052    1.5663   -0.3989 H   0  0  0  0  0  0  0  0  0  0  0  0
   -1.5529    1.6460   -0.1140 H   0  0  0  0  0  0  0  0  0  0  0  0
   -2.2187   -0.2302    1.0345 H   0  0  0  0  0  0  0  0  0  0  0  0
   -3.3748   -0.7561   -0.2633 H   0  0  0  0  0  0  0  0  0  0  0  0
   -1.4442   -2.2206   -0.1317 H   0  0  0  0  0  0  0  0  0  0  0  0
   -1.0948   -0.5402   -2.4349 H   0  0  0  0  0  0  0  0  0  0  0  0
    3.0786    0.2630   -0.5611 H   0  0  0  0  0  0  0  0  0  0  0  0
    2.7218   -1.4583    1.3265 H   0  0  0  0  0  0  0  0  0  0  0  0
    2.5405    0.0019    2.3787 H   0  0  0  0  0  0  0  0  0  0  0  0
    4.1015   -0.2419    1.4141 H   0  0  0  0  0  0  0  0  0  0  0  0
    1.3251    1.9571    0.5996 H   0  0  0  0  0  0  0  0  0  0  0  0
  1  2  1  0
  2  3  1  0
  3  4  1  0
  3  5  1  0
  5  6  3  0
  6  7  1  0
  7  8  1  0
  7  9  1  0
  1 10  1  0
  1 11  1  0
  1 12  1  0
  2 13  1  0
  2 14  1  0
  3 15  1  0
  4 16  1  0
  7 17  1  0
  8 18  1  0
  8 19  1  0
  8 20  1  0
  9 21  1  0
M  END
