
     RDKit          3D

 22 21  0  0  0  0  0  0  0  0999 V2000
   -1.3952   -1.6591    0.8065 C   0  0  0  0  0  0  0  0  0  0  0  0
   -1.2623   -0.1392    0.9384 C   0  0  0  0  0  0  0  0  0  0  0  0
   -0.5566    0.3362   -0.3037 C   0  0  0  0  0  0  0  0  0  0  0  0
    0.7858   -0.3265   -0.3706 C   0  0  0  0  0  0  0  0  0  0  0  0
    1.5509    0.0992    0.7225 O   0  0  0  0  0  0  0  0  0  0  0  0
    2.8117   -0.5153    0.6707 C   0  0  0  0  0  0  0  0  0  0  0  0
   -0.3962    1.7026   -0.3488 O   0  0  0  0  0  0  0  0  0  0  0  0
   -1.0196    2.2887   -1.4419 C   0  0  0  0  0  0  0  0  0  0  0  0
   -0.4606   -2.1751    1.0681 H   0  0  0  0  0  0  0  0  0  0  0  0
   -2.1694   -2.0087    1.5400 H   0  0  0  0  0  0  0  0  0  0  0  0
   -1.6737   -1.9380   -0.2267 H   0  0  0  0  0  0  0  0  0  0  0  0
   -2.2865    0.2648    1.0293 H   0  0  0  0  0  0  0  0  0  0  0  0
   -0.7167    0.1200    1.8502 H   0  0  0  0  0  0  0  0  0  0  0  0
   -1.1692   -0.0064   -1.1804 H   0  0  0  0  0  0  0  0  0  0  0  0
    0.7481   -1.4193   -0.3963 H   0  0  0  0  0  0  0  0  0  0  0  0
    1.3122    0.0424   -1.2943 H   0  0  0  0  0  0  0  0  0  0  0  0
    2.6155   -1.6096    0.7131 H   0  0  0  0  0  0  0  0  0  0  0  0
    3.3081   -0.2615    1.6329 H   0  0  0  0  0  0  0  0  0  0  0  0
    3.3991   -0.1960   -0.1920 H   0  0  0  0  0  0  0  0  0  0  0  0
   -0.5622    1.8378   -2.3488 H   0  0  0  0  0  0  0  0  0  0  0  0
   -2.1093    2.2031   -1.4183 H   0  0  0  0  0  0  0  0  0  0  0  0
   -0.7540    3.3600   -1.4498 H   0  0  0  0  0  0  0  0  0  0  0  0
  1  2  1  0
  2  3  1  0
  3  4  1  0
  4  5  1  0
  5  6  1  0
  3  7  1  0
  7  8  1  0
  1  9  1  0
  1 10  1  0
  1 11  1  0
  2 12  1  0
  2 13  1  0
  3 14  1  0
  4 15  1  0
  4 16  1  0
  6 17  1  0
  6 18  1  0
  6 19  1  0
  8 20  1  0
  8 21  1  0
  8 22  1  0
M  END
