
     RDKit          3D

 19 18  0  0  0  0  0  0  0  0999 V2000
    2.0605    0.0682    0.1388 C   0  0  0  0  0  0  0  0  0  0  0  0
    0.7981    0.7993   -0.1782 C   0  0  0  0  0  0  0  0  0  0  0  0
   -0.4331   -0.0671   -0.0958 C   0  0  0  0  0  0  0  0  0  0  0  0
   -0.6359   -0.6549    1.2734 C   0  0  0  0  0  0  0  0  0  0  0  0
   -1.6195    0.8411   -0.3782 C   0  0  0  0  0  0  0  0  0  0  0  0
   -0.3444   -1.1737   -1.0803 C   0  0  0  0  0  0  0  0  0  0  0  0
   -0.7469   -0.9972   -2.2181 O   0  0  0  0  0  0  0  0  0  0  0  0
    2.6979   -0.1258   -0.7729 H   0  0  0  0  0  0  0  0  0  0  0  0
    2.6942    0.7663    0.7612 H   0  0  0  0  0  0  0  0  0  0  0  0
    1.9059   -0.8918    0.6516 H   0  0  0  0  0  0  0  0  0  0  0  0
    0.6549    1.7141    0.4177 H   0  0  0  0  0  0  0  0  0  0  0  0
    0.8710    1.1381   -1.2446 H   0  0  0  0  0  0  0  0  0  0  0  0
   -0.2865   -0.0019    2.0905 H   0  0  0  0  0  0  0  0  0  0  0  0
   -1.7497   -0.7614    1.4326 H   0  0  0  0  0  0  0  0  0  0  0  0
   -0.2456   -1.6953    1.3518 H   0  0  0  0  0  0  0  0  0  0  0  0
   -1.3798    1.8792   -0.0218 H   0  0  0  0  0  0  0  0  0  0  0  0
   -1.8089    0.8105   -1.4695 H   0  0  0  0  0  0  0  0  0  0  0  0
   -2.4947    0.5065    0.1993 H   0  0  0  0  0  0  0  0  0  0  0  0
    0.0625   -2.1542   -0.8575 H   0  0  0  0  0  0  0  0  0  0  0  0
  1  2  1  0
  2  3  1  0
  3  4  1  0
  3  5  1  0
  3  6  1  0
  6  7  2  0
  1  8  1  0
  1  9  1  0
  1 10  1  0
  2 11  1  0
  2 12  1  0
  4 13  1  0
  4 14  1  0
  4 15  1  0
  5 16  1  0
  5 17  1  0
  5 18  1  0
  6 19  1  0
M  END
