
     RDKit          3D

 23 22  0  0  0  0  0  0  0  0999 V2000
    2.1525   -1.1162   -0.5430 C   0  0  0  0  0  0  0  0  0  0  0  0
    1.5527   -0.4572    0.6627 C   0  0  0  0  0  0  0  0  0  0  0  0
    0.8805    0.8789    0.3255 C   0  0  0  0  0  0  0  0  0  0  0  0
    1.8886    1.7280   -0.2266 O   0  0  0  0  0  0  0  0  0  0  0  0
   -0.1852    0.7649   -0.6616 C   0  0  0  0  0  0  0  0  0  0  0  0
    0.0691    1.1724   -1.8231 O   0  0  0  0  0  0  0  0  0  0  0  0
   -1.5450    0.2385   -0.4985 C   0  0  0  0  0  0  0  0  0  0  0  0
   -1.5192   -1.2120   -0.1264 C   0  0  0  0  0  0  0  0  0  0  0  0
   -2.3464    1.0314    0.5273 C   0  0  0  0  0  0  0  0  0  0  0  0
    2.3165   -2.1800   -0.3187 H   0  0  0  0  0  0  0  0  0  0  0  0
    1.4839   -0.9624   -1.4380 H   0  0  0  0  0  0  0  0  0  0  0  0
    3.1176   -0.6241   -0.7569 H   0  0  0  0  0  0  0  0  0  0  0  0
    2.3828   -0.2478    1.4014 H   0  0  0  0  0  0  0  0  0  0  0  0
    0.8380   -1.0836    1.2117 H   0  0  0  0  0  0  0  0  0  0  0  0
    0.5300    1.3146    1.2681 H   0  0  0  0  0  0  0  0  0  0  0  0
    2.7469    1.5639    0.2161 H   0  0  0  0  0  0  0  0  0  0  0  0
   -2.1368    0.2925   -1.4620 H   0  0  0  0  0  0  0  0  0  0  0  0
   -2.4593   -1.7018   -0.5011 H   0  0  0  0  0  0  0  0  0  0  0  0
   -1.4722   -1.3205    0.9961 H   0  0  0  0  0  0  0  0  0  0  0  0
   -0.6254   -1.7059   -0.5432 H   0  0  0  0  0  0  0  0  0  0  0  0
   -2.0531    2.0955    0.5348 H   0  0  0  0  0  0  0  0  0  0  0  0
   -3.4238    0.9948    0.2507 H   0  0  0  0  0  0  0  0  0  0  0  0
   -2.1928    0.5363    1.5048 H   0  0  0  0  0  0  0  0  0  0  0  0
  1  2  1  0
  2  3  1  0
  3  4  1  0
  3  5  1  0
  5  6  2  0
  5  7  1  0
  7  8  1  0
  7  9  1  0
  1 10  1  0
  1 11  1  0
  1 12  1  0
  2 13  1  0
  2 14  1  0
  3 15  1  0
  4 16  1  0
  7 17  1  0
  8 18  1  0
  8 19  1  0
  8 20  1  0
  9 21  1  0
  9 22  1  0
  9 23  1  0
M  END
