
     RDKit          3D

 19 18  0  0  0  0  0  0  0  0999 V2000
    2.5756    0.6605   -0.0557 C   0  0  0  0  0  0  0  0  0  0  0  0
    1.6445   -0.5174    0.1823 C   0  0  0  0  0  0  0  0  0  0  0  0
    0.3148   -0.0952    0.6574 C   0  0  0  0  0  0  0  0  0  0  0  0
    0.1523    0.2971    1.7850 O   0  0  0  0  0  0  0  0  0  0  0  0
   -0.8349   -0.1561   -0.2687 C   0  0  0  0  0  0  0  0  0  0  0  0
   -1.1063   -1.5238   -0.7814 C   0  0  0  0  0  0  0  0  0  0  0  0
   -2.2398   -1.9936   -0.8518 O   0  0  0  0  0  0  0  0  0  0  0  0
   -2.1088    0.3751    0.3494 C   0  0  0  0  0  0  0  0  0  0  0  0
   -1.9947    1.7029    0.7382 O   0  0  0  0  0  0  0  0  0  0  0  0
    2.5753    1.3344    0.8172 H   0  0  0  0  0  0  0  0  0  0  0  0
    3.6033    0.2712   -0.1481 H   0  0  0  0  0  0  0  0  0  0  0  0
    2.2466    1.1497   -0.9860 H   0  0  0  0  0  0  0  0  0  0  0  0
    1.5867   -1.0629   -0.7924 H   0  0  0  0  0  0  0  0  0  0  0  0
    2.1775   -1.2025    0.8780 H   0  0  0  0  0  0  0  0  0  0  0  0
   -0.5936    0.5312   -1.1135 H   0  0  0  0  0  0  0  0  0  0  0  0
   -0.2997   -2.1462   -1.1084 H   0  0  0  0  0  0  0  0  0  0  0  0
   -2.8832    0.3405   -0.4601 H   0  0  0  0  0  0  0  0  0  0  0  0
   -2.4731   -0.2879    1.1557 H   0  0  0  0  0  0  0  0  0  0  0  0
   -2.3425    2.3231    0.0346 H   0  0  0  0  0  0  0  0  0  0  0  0
  1  2  1  0
  2  3  1  0
  3  4  2  0
  3  5  1  0
  5  6  1  0
  6  7  2  0
  5  8  1  0
  8  9  1  0
  1 10  1  0
  1 11  1  0
  1 12  1  0
  2 13  1  0
  2 14  1  0
  5 15  1  0
  6 16  1  0
  8 17  1  0
  8 18  1  0
  9 19  1  0
M  END
