
     RDKit          3D

 25 24  0  0  0  0  0  0  0  0999 V2000
   -1.0929   -2.4385   -0.1169 C   0  0  0  0  0  0  0  0  0  0  0  0
   -1.1486   -1.1164    0.6006 C   0  0  0  0  0  0  0  0  0  0  0  0
   -0.7345    0.0484   -0.2989 C   0  0  0  0  0  0  0  0  0  0  0  0
   -0.8364    1.2934    0.4775 C   0  0  0  0  0  0  0  0  0  0  0  0
   -0.5037    2.5365   -0.2903 C   0  0  0  0  0  0  0  0  0  0  0  0
    0.4877   -0.2025   -1.0465 C   0  0  0  0  0  0  0  0  0  0  0  0
    1.7705   -0.5185   -0.4245 C   0  0  0  0  0  0  0  0  0  0  0  0
    2.4745    0.4092    0.4386 C   0  0  0  0  0  0  0  0  0  0  0  0
    2.2299    1.5361    0.7239 O   0  0  0  0  0  0  0  0  0  0  0  0
   -1.9499   -2.4744   -0.8364 H   0  0  0  0  0  0  0  0  0  0  0  0
   -1.3213   -3.2282    0.6332 H   0  0  0  0  0  0  0  0  0  0  0  0
   -0.1952   -2.6112   -0.7003 H   0  0  0  0  0  0  0  0  0  0  0  0
   -2.2155   -0.9296    0.8427 H   0  0  0  0  0  0  0  0  0  0  0  0
   -0.6030   -1.1237    1.5482 H   0  0  0  0  0  0  0  0  0  0  0  0
   -1.5767    0.0277   -1.0941 H   0  0  0  0  0  0  0  0  0  0  0  0
   -1.9255    1.4426    0.8354 H   0  0  0  0  0  0  0  0  0  0  0  0
   -0.2785    1.2131    1.4592 H   0  0  0  0  0  0  0  0  0  0  0  0
    0.0847    3.2123    0.4014 H   0  0  0  0  0  0  0  0  0  0  0  0
   -1.4225    3.1264   -0.5424 H   0  0  0  0  0  0  0  0  0  0  0  0
    0.1397    2.3980   -1.1613 H   0  0  0  0  0  0  0  0  0  0  0  0
    0.3089   -1.0265   -1.8544 H   0  0  0  0  0  0  0  0  0  0  0  0
    0.6773    0.6760   -1.7468 H   0  0  0  0  0  0  0  0  0  0  0  0
    1.6942   -1.4911    0.1560 H   0  0  0  0  0  0  0  0  0  0  0  0
    2.5310   -0.7619   -1.2618 H   0  0  0  0  0  0  0  0  0  0  0  0
    3.4059    0.0028    0.9192 H   0  0  0  0  0  0  0  0  0  0  0  0
  1  2  1  0
  2  3  1  0
  3  4  1  0
  4  5  1  0
  3  6  1  0
  6  7  1  0
  7  8  1  0
  8  9  2  0
  1 10  1  0
  1 11  1  0
  1 12  1  0
  2 13  1  0
  2 14  1  0
  3 15  1  0
  4 16  1  0
  4 17  1  0
  5 18  1  0
  5 19  1  0
  5 20  1  0
  6 21  1  0
  6 22  1  0
  7 23  1  0
  7 24  1  0
  8 25  1  0
M  END
