
     RDKit          3D

 25 24  0  0  0  0  0  0  0  0999 V2000
    2.4399    0.9138   -0.0007 C   0  0  0  0  0  0  0  0  0  0  0  0
    0.9623    1.1360    0.1269 C   0  0  0  0  0  0  0  0  0  0  0  0
    0.1458   -0.1005   -0.1194 C   0  0  0  0  0  0  0  0  0  0  0  0
    0.4295   -0.5811   -1.5264 C   0  0  0  0  0  0  0  0  0  0  0  0
    0.4986   -1.2283    0.8188 C   0  0  0  0  0  0  0  0  0  0  0  0
   -1.3021    0.2976   -0.0380 C   0  0  0  0  0  0  0  0  0  0  0  0
   -2.2449   -0.8512   -0.2665 C   0  0  0  0  0  0  0  0  0  0  0  0
   -1.6574    0.9330    1.2478 C   0  0  0  0  0  0  0  0  0  0  0  0
   -2.0826    0.3368    2.2169 O   0  0  0  0  0  0  0  0  0  0  0  0
    2.8001    0.0896    0.6179 H   0  0  0  0  0  0  0  0  0  0  0  0
    2.7557    0.7789   -1.0613 H   0  0  0  0  0  0  0  0  0  0  0  0
    2.9460    1.8392    0.3537 H   0  0  0  0  0  0  0  0  0  0  0  0
    0.7795    1.5235    1.1603 H   0  0  0  0  0  0  0  0  0  0  0  0
    0.6295    1.9142   -0.5666 H   0  0  0  0  0  0  0  0  0  0  0  0
   -0.1635   -1.4916   -1.7769 H   0  0  0  0  0  0  0  0  0  0  0  0
    1.5028   -0.8814   -1.5418 H   0  0  0  0  0  0  0  0  0  0  0  0
    0.2326    0.2538   -2.2210 H   0  0  0  0  0  0  0  0  0  0  0  0
    1.5047   -1.6073    0.4797 H   0  0  0  0  0  0  0  0  0  0  0  0
    0.6251   -0.9119    1.8517 H   0  0  0  0  0  0  0  0  0  0  0  0
   -0.2037   -2.0441    0.6532 H   0  0  0  0  0  0  0  0  0  0  0  0
   -1.4729    1.0353   -0.8597 H   0  0  0  0  0  0  0  0  0  0  0  0
   -3.2750   -0.4388   -0.2325 H   0  0  0  0  0  0  0  0  0  0  0  0
   -2.1898   -1.5813    0.5808 H   0  0  0  0  0  0  0  0  0  0  0  0
   -2.1261   -1.3361   -1.2399 H   0  0  0  0  0  0  0  0  0  0  0  0
   -1.5341    2.0018    1.3431 H   0  0  0  0  0  0  0  0  0  0  0  0
  1  2  1  0
  2  3  1  0
  3  4  1  0
  3  5  1  0
  3  6  1  0
  6  7  1  0
  6  8  1  0
  8  9  2  0
  1 10  1  0
  1 11  1  0
  1 12  1  0
  2 13  1  0
  2 14  1  0
  4 15  1  0
  4 16  1  0
  4 17  1  0
  5 18  1  0
  5 19  1  0
  5 20  1  0
  6 21  1  0
  7 22  1  0
  7 23  1  0
  7 24  1  0
  8 25  1  0
M  END
