
     RDKit          3D

 16 15  0  0  0  0  0  0  0  0999 V2000
   -2.1654    0.3839    0.3328 C   0  0  0  0  0  0  0  0  0  0  0  0
   -1.1327   -0.7184    0.3013 C   0  0  0  0  0  0  0  0  0  0  0  0
   -0.0279   -0.3477   -0.6072 C   0  0  0  0  0  0  0  0  0  0  0  0
   -0.2716   -0.0666   -1.7528 O   0  0  0  0  0  0  0  0  0  0  0  0
    1.3984   -0.3039   -0.1573 C   0  0  0  0  0  0  0  0  0  0  0  0
    1.5482   -0.6064    1.1663 O   0  0  0  0  0  0  0  0  0  0  0  0
    1.8870    1.0582   -0.5254 C   0  0  0  0  0  0  0  0  0  0  0  0
    1.7446    1.3518   -1.7036 O   0  0  0  0  0  0  0  0  0  0  0  0
   -1.6913    1.3782    0.1896 H   0  0  0  0  0  0  0  0  0  0  0  0
   -2.6565    0.4320    1.3269 H   0  0  0  0  0  0  0  0  0  0  0  0
   -2.9439    0.2689   -0.4248 H   0  0  0  0  0  0  0  0  0  0  0  0
   -1.6525   -1.6077   -0.1826 H   0  0  0  0  0  0  0  0  0  0  0  0
   -0.8157   -1.0170    1.3094 H   0  0  0  0  0  0  0  0  0  0  0  0
    2.0023   -1.0209   -0.7671 H   0  0  0  0  0  0  0  0  0  0  0  0
    2.4505   -0.9415    1.3622 H   0  0  0  0  0  0  0  0  0  0  0  0
    2.3264    1.7571    0.1324 H   0  0  0  0  0  0  0  0  0  0  0  0
  1  2  1  0
  2  3  1  0
  3  4  2  0
  3  5  1  0
  5  6  1  0
  5  7  1  0
  7  8  2  0
  1  9  1  0
  1 10  1  0
  1 11  1  0
  2 12  1  0
  2 13  1  0
  5 14  1  0
  6 15  1  0
  7 16  1  0
M  END
