
     RDKit          3D

 20 19  0  0  0  0  0  0  0  0999 V2000
   -2.7756    0.4862   -0.6330 C   0  0  0  0  0  0  0  0  0  0  0  0
   -1.8003   -0.5365   -0.0749 C   0  0  0  0  0  0  0  0  0  0  0  0
   -0.4343   -0.3183   -0.6163 C   0  0  0  0  0  0  0  0  0  0  0  0
   -0.2993   -0.3100   -1.8206 O   0  0  0  0  0  0  0  0  0  0  0  0
    0.7679   -0.1073    0.2292 C   0  0  0  0  0  0  0  0  0  0  0  0
    0.5867    1.1129    1.1336 C   0  0  0  0  0  0  0  0  0  0  0  0
    1.9156    0.0734   -0.4983 O   0  0  0  0  0  0  0  0  0  0  0  0
    2.9292   -0.8234   -0.2144 C   0  0  0  0  0  0  0  0  0  0  0  0
   -2.8004    0.4959   -1.7284 H   0  0  0  0  0  0  0  0  0  0  0  0
   -2.4989    1.5195   -0.2906 H   0  0  0  0  0  0  0  0  0  0  0  0
   -3.7755    0.2455   -0.2597 H   0  0  0  0  0  0  0  0  0  0  0  0
   -2.1278   -1.5334   -0.4645 H   0  0  0  0  0  0  0  0  0  0  0  0
   -1.8595   -0.5642    1.0144 H   0  0  0  0  0  0  0  0  0  0  0  0
    0.9074   -0.9729    0.9063 H   0  0  0  0  0  0  0  0  0  0  0  0
    1.5162    1.6587    1.2462 H   0  0  0  0  0  0  0  0  0  0  0  0
   -0.1460    1.7765    0.5823 H   0  0  0  0  0  0  0  0  0  0  0  0
    0.1351    0.8696    2.0999 H   0  0  0  0  0  0  0  0  0  0  0  0
    2.6910   -1.8804   -0.3814 H   0  0  0  0  0  0  0  0  0  0  0  0
    3.3156   -0.5932    0.7894 H   0  0  0  0  0  0  0  0  0  0  0  0
    3.7531   -0.5986   -0.9603 H   0  0  0  0  0  0  0  0  0  0  0  0
  1  2  1  0
  2  3  1  0
  3  4  2  0
  3  5  1  0
  5  6  1  0
  5  7  1  0
  7  8  1  0
  1  9  1  0
  1 10  1  0
  1 11  1  0
  2 12  1  0
  2 13  1  0
  5 14  1  0
  6 15  1  0
  6 16  1  0
  6 17  1  0
  8 18  1  0
  8 19  1  0
  8 20  1  0
M  END
