
     RDKit          3D

 25 24  0  0  0  0  0  0  0  0999 V2000
   -1.7630    1.3514    1.0547 C   0  0  0  0  0  0  0  0  0  0  0  0
   -0.4089    1.1026    0.5131 C   0  0  0  0  0  0  0  0  0  0  0  0
    0.0784   -0.2875    0.3740 C   0  0  0  0  0  0  0  0  0  0  0  0
   -0.6397   -1.1751   -0.5478 C   0  0  0  0  0  0  0  0  0  0  0  0
   -2.0486   -1.5234   -0.4140 C   0  0  0  0  0  0  0  0  0  0  0  0
   -3.0132   -0.5769   -0.5235 O   0  0  0  0  0  0  0  0  0  0  0  0
    1.5494   -0.1758   -0.1382 C   0  0  0  0  0  0  0  0  0  0  0  0
    2.3047    0.5262    0.7742 O   0  0  0  0  0  0  0  0  0  0  0  0
    3.6279    0.6522    0.3598 C   0  0  0  0  0  0  0  0  0  0  0  0
   -1.6486    2.2064    1.8363 H   0  0  0  0  0  0  0  0  0  0  0  0
   -2.4351    1.8220    0.2967 H   0  0  0  0  0  0  0  0  0  0  0  0
   -2.2136    0.5650    1.6633 H   0  0  0  0  0  0  0  0  0  0  0  0
    0.3614    1.7242    1.0942 H   0  0  0  0  0  0  0  0  0  0  0  0
   -0.3279    1.6201   -0.5125 H   0  0  0  0  0  0  0  0  0  0  0  0
    0.1463   -0.7485    1.4162 H   0  0  0  0  0  0  0  0  0  0  0  0
   -0.0713   -2.1841   -0.6044 H   0  0  0  0  0  0  0  0  0  0  0  0
   -0.4803   -0.8233   -1.6447 H   0  0  0  0  0  0  0  0  0  0  0  0
   -2.2879   -2.2996   -1.2209 H   0  0  0  0  0  0  0  0  0  0  0  0
   -2.2430   -2.0837    0.5448 H   0  0  0  0  0  0  0  0  0  0  0  0
   -3.8550   -0.9318   -0.1413 H   0  0  0  0  0  0  0  0  0  0  0  0
    1.9370   -1.1902   -0.3445 H   0  0  0  0  0  0  0  0  0  0  0  0
    1.5524    0.3795   -1.0939 H   0  0  0  0  0  0  0  0  0  0  0  0
    3.6133    1.1977   -0.6150 H   0  0  0  0  0  0  0  0  0  0  0  0
    4.1814    1.1954    1.1406 H   0  0  0  0  0  0  0  0  0  0  0  0
    4.0836   -0.3428    0.1239 H   0  0  0  0  0  0  0  0  0  0  0  0
  1  2  1  0
  2  3  1  0
  3  4  1  0
  4  5  1  0
  5  6  1  0
  3  7  1  0
  7  8  1  0
  8  9  1  0
  1 10  1  0
  1 11  1  0
  1 12  1  0
  2 13  1  0
  2 14  1  0
  3 15  1  0
  4 16  1  0
  4 17  1  0
  5 18  1  0
  5 19  1  0
  6 20  1  0
  7 21  1  0
  7 22  1  0
  9 23  1  0
  9 24  1  0
  9 25  1  0
M  END
