
     RDKit          3D

 25 24  0  0  0  0  0  0  0  0999 V2000
    2.7851   -0.2274    0.0873 C   0  0  0  0  0  0  0  0  0  0  0  0
    1.3689   -0.4764    0.5400 C   0  0  0  0  0  0  0  0  0  0  0  0
    0.3901   -0.0246   -0.5244 C   0  0  0  0  0  0  0  0  0  0  0  0
    0.5590    1.4621   -0.7985 C   0  0  0  0  0  0  0  0  0  0  0  0
   -1.0230   -0.2106   -0.0588 C   0  0  0  0  0  0  0  0  0  0  0  0
   -1.3537   -1.6459    0.2628 C   0  0  0  0  0  0  0  0  0  0  0  0
   -1.3307    0.6156    1.1711 C   0  0  0  0  0  0  0  0  0  0  0  0
   -1.9492    0.2403   -1.1352 C   0  0  0  0  0  0  0  0  0  0  0  0
   -2.6012    1.2839   -1.0508 O   0  0  0  0  0  0  0  0  0  0  0  0
    3.1176   -0.9828   -0.6339 H   0  0  0  0  0  0  0  0  0  0  0  0
    2.8888    0.7605   -0.3843 H   0  0  0  0  0  0  0  0  0  0  0  0
    3.4142   -0.2056    1.0051 H   0  0  0  0  0  0  0  0  0  0  0  0
    1.2507   -1.5767    0.6336 H   0  0  0  0  0  0  0  0  0  0  0  0
    1.1283    0.0571    1.4686 H   0  0  0  0  0  0  0  0  0  0  0  0
    0.5205   -0.6142   -1.4485 H   0  0  0  0  0  0  0  0  0  0  0  0
    1.4177    1.6727   -1.4640 H   0  0  0  0  0  0  0  0  0  0  0  0
   -0.3441    1.8178   -1.3405 H   0  0  0  0  0  0  0  0  0  0  0  0
    0.6837    1.9905    0.1758 H   0  0  0  0  0  0  0  0  0  0  0  0
   -0.7164   -2.0773    1.0315 H   0  0  0  0  0  0  0  0  0  0  0  0
   -2.3978   -1.6399    0.6774 H   0  0  0  0  0  0  0  0  0  0  0  0
   -1.3554   -2.2872   -0.6411 H   0  0  0  0  0  0  0  0  0  0  0  0
   -0.8200    0.2551    2.0750 H   0  0  0  0  0  0  0  0  0  0  0  0
   -2.4346    0.4985    1.3528 H   0  0  0  0  0  0  0  0  0  0  0  0
   -1.1628    1.7009    1.0100 H   0  0  0  0  0  0  0  0  0  0  0  0
   -2.0355   -0.3864   -2.0111 H   0  0  0  0  0  0  0  0  0  0  0  0
  1  2  1  0
  2  3  1  0
  3  4  1  0
  3  5  1  0
  5  6  1  0
  5  7  1  0
  5  8  1  0
  8  9  2  0
  1 10  1  0
  1 11  1  0
  1 12  1  0
  2 13  1  0
  2 14  1  0
  3 15  1  0
  4 16  1  0
  4 17  1  0
  4 18  1  0
  6 19  1  0
  6 20  1  0
  6 21  1  0
  7 22  1  0
  7 23  1  0
  7 24  1  0
  8 25  1  0
M  END
