
     RDKit          3D

 21 21  0  0  0  0  0  0  0  0999 V2000
   -1.5402    0.8871    0.8256 C   0  0  0  0  0  0  0  0  0  0  0  0
   -0.8967    0.8571   -0.5212 C   0  0  0  0  0  0  0  0  0  0  0  0
   -0.1302   -0.3984   -0.8036 C   0  0  0  0  0  0  0  0  0  0  0  0
   -1.0472   -1.5780   -0.7308 C   0  0  0  0  0  0  0  0  0  0  0  0
    1.1131   -0.5635    0.0008 C   0  0  0  0  0  0  0  0  0  0  0  0
    2.1880    0.4555   -0.1056 C   0  0  0  0  0  0  0  0  0  0  0  0
    1.4346    0.2029    1.1968 C   0  0  0  0  0  0  0  0  0  0  0  0
   -1.3596    1.8650    1.3377 H   0  0  0  0  0  0  0  0  0  0  0  0
   -2.6665    0.8227    0.7534 H   0  0  0  0  0  0  0  0  0  0  0  0
   -1.2571    0.0376    1.4832 H   0  0  0  0  0  0  0  0  0  0  0  0
   -1.7096    0.9229   -1.2849 H   0  0  0  0  0  0  0  0  0  0  0  0
   -0.2945    1.7770   -0.6472 H   0  0  0  0  0  0  0  0  0  0  0  0
    0.1972   -0.3264   -1.8847 H   0  0  0  0  0  0  0  0  0  0  0  0
   -1.9921   -1.3175   -1.2360 H   0  0  0  0  0  0  0  0  0  0  0  0
   -1.1700   -2.0015    0.2734 H   0  0  0  0  0  0  0  0  0  0  0  0
   -0.5872   -2.3923   -1.3547 H   0  0  0  0  0  0  0  0  0  0  0  0
    1.4987   -1.6260   -0.0130 H   0  0  0  0  0  0  0  0  0  0  0  0
    1.9875    1.3949   -0.6609 H   0  0  0  0  0  0  0  0  0  0  0  0
    3.2564    0.1560   -0.1651 H   0  0  0  0  0  0  0  0  0  0  0  0
    0.8994    1.0864    1.5535 H   0  0  0  0  0  0  0  0  0  0  0  0
    2.0760   -0.2616    1.9832 H   0  0  0  0  0  0  0  0  0  0  0  0
  1  2  1  0
  2  3  1  0
  3  4  1  0
  3  5  1  0
  5  6  1  0
  6  7  1  0
  7  5  1  0
  1  8  1  0
  1  9  1  0
  1 10  1  0
  2 11  1  0
  2 12  1  0
  3 13  1  0
  4 14  1  0
  4 15  1  0
  4 16  1  0
  5 17  1  0
  6 18  1  0
  6 19  1  0
  7 20  1  0
  7 21  1  0
M  END
