
     RDKit          3D

 27 27  0  0  0  0  0  0  0  0999 V2000
    2.3919    0.9157    0.7737 C   0  0  0  0  0  0  0  0  0  0  0  0
    1.9642    0.8649   -0.6746 C   0  0  0  0  0  0  0  0  0  0  0  0
    0.8373   -0.0615   -0.9477 C   0  0  0  0  0  0  0  0  0  0  0  0
    1.2140   -1.4755   -0.5591 C   0  0  0  0  0  0  0  0  0  0  0  0
   -0.4853    0.3355   -0.4071 C   0  0  0  0  0  0  0  0  0  0  0  0
   -1.5091   -0.7435   -0.7953 C   0  0  0  0  0  0  0  0  0  0  0  0
   -2.7202   -0.2031   -0.0435 C   0  0  0  0  0  0  0  0  0  0  0  0
   -2.1541    0.3373    1.2310 C   0  0  0  0  0  0  0  0  0  0  0  0
   -0.6257    0.3143    1.0704 C   0  0  0  0  0  0  0  0  0  0  0  0
    3.4869    0.8916    0.8537 H   0  0  0  0  0  0  0  0  0  0  0  0
    2.0742    1.8585    1.2681 H   0  0  0  0  0  0  0  0  0  0  0  0
    1.9730    0.0255    1.2939 H   0  0  0  0  0  0  0  0  0  0  0  0
    1.7678    1.8765   -1.0867 H   0  0  0  0  0  0  0  0  0  0  0  0
    2.8530    0.4925   -1.2479 H   0  0  0  0  0  0  0  0  0  0  0  0
    0.7247   -0.0933   -2.0733 H   0  0  0  0  0  0  0  0  0  0  0  0
    0.5637   -2.1590   -1.1689 H   0  0  0  0  0  0  0  0  0  0  0  0
    1.1575   -1.6718    0.5086 H   0  0  0  0  0  0  0  0  0  0  0  0
    2.2526   -1.6305   -0.9762 H   0  0  0  0  0  0  0  0  0  0  0  0
   -0.8512    1.2776   -0.8021 H   0  0  0  0  0  0  0  0  0  0  0  0
   -1.2520   -1.7176   -0.3410 H   0  0  0  0  0  0  0  0  0  0  0  0
   -1.6490   -0.7633   -1.8757 H   0  0  0  0  0  0  0  0  0  0  0  0
   -3.1179    0.6260   -0.7002 H   0  0  0  0  0  0  0  0  0  0  0  0
   -3.4989   -0.9710    0.1036 H   0  0  0  0  0  0  0  0  0  0  0  0
   -2.4650   -0.2321    2.1275 H   0  0  0  0  0  0  0  0  0  0  0  0
   -2.4291    1.4043    1.3382 H   0  0  0  0  0  0  0  0  0  0  0  0
   -0.1890    1.1561    1.6096 H   0  0  0  0  0  0  0  0  0  0  0  0
   -0.3140   -0.6541    1.5210 H   0  0  0  0  0  0  0  0  0  0  0  0
  1  2  1  0
  2  3  1  0
  3  4  1  0
  3  5  1  0
  5  6  1  0
  6  7  1  0
  7  8  1  0
  8  9  1  0
  9  5  1  0
  1 10  1  0
  1 11  1  0
  1 12  1  0
  2 13  1  0
  2 14  1  0
  3 15  1  0
  4 16  1  0
  4 17  1  0
  4 18  1  0
  5 19  1  0
  6 20  1  0
  6 21  1  0
  7 22  1  0
  7 23  1  0
  8 24  1  0
  8 25  1  0
  9 26  1  0
  9 27  1  0
M  END
