
     RDKit          3D

 23 23  0  0  0  0  0  0  0  0999 V2000
    2.8519    0.6161    0.2618 C   0  0  0  0  0  0  0  0  0  0  0  0
    1.6811   -0.0436   -0.4222 C   0  0  0  0  0  0  0  0  0  0  0  0
    0.3585    0.3822    0.1834 C   0  0  0  0  0  0  0  0  0  0  0  0
    0.3669    0.0203    1.5094 O   0  0  0  0  0  0  0  0  0  0  0  0
   -0.7169   -0.3756   -0.5558 C   0  0  0  0  0  0  0  0  0  0  0  0
   -0.4437   -1.8477   -0.3445 C   0  0  0  0  0  0  0  0  0  0  0  0
   -2.0978   -0.0617   -0.1175 C   0  0  0  0  0  0  0  0  0  0  0  0
   -2.7341    1.2033   -0.1508 C   0  0  0  0  0  0  0  0  0  0  0  0
   -2.0753    0.7956    1.0968 O   0  0  0  0  0  0  0  0  0  0  0  0
    3.7354    0.4806   -0.3937 H   0  0  0  0  0  0  0  0  0  0  0  0
    2.6770    1.7020    0.3368 H   0  0  0  0  0  0  0  0  0  0  0  0
    3.0838    0.1266    1.2164 H   0  0  0  0  0  0  0  0  0  0  0  0
    1.6782    0.1619   -1.5159 H   0  0  0  0  0  0  0  0  0  0  0  0
    1.8208   -1.1520   -0.3298 H   0  0  0  0  0  0  0  0  0  0  0  0
    0.2550    1.4716    0.0209 H   0  0  0  0  0  0  0  0  0  0  0  0
    0.1733    0.7733    2.1162 H   0  0  0  0  0  0  0  0  0  0  0  0
   -0.5913   -0.1538   -1.6302 H   0  0  0  0  0  0  0  0  0  0  0  0
    0.2650   -2.2127   -1.1134 H   0  0  0  0  0  0  0  0  0  0  0  0
   -1.4197   -2.3694   -0.3805 H   0  0  0  0  0  0  0  0  0  0  0  0
   -0.0218   -1.9578    0.6620 H   0  0  0  0  0  0  0  0  0  0  0  0
   -2.7426   -0.9614    0.0624 H   0  0  0  0  0  0  0  0  0  0  0  0
   -3.8255    1.2644   -0.0019 H   0  0  0  0  0  0  0  0  0  0  0  0
   -2.2782    2.1381   -0.5098 H   0  0  0  0  0  0  0  0  0  0  0  0
  1  2  1  0
  2  3  1  0
  3  4  1  0
  3  5  1  0
  5  6  1  0
  5  7  1  0
  7  8  1  0
  8  9  1  0
  9  7  1  0
  1 10  1  0
  1 11  1  0
  1 12  1  0
  2 13  1  0
  2 14  1  0
  3 15  1  0
  4 16  1  0
  5 17  1  0
  6 18  1  0
  6 19  1  0
  6 20  1  0
  7 21  1  0
  8 22  1  0
  8 23  1  0
M  END
