
     RDKit          3D

 21 21  0  0  0  0  0  0  0  0999 V2000
   -2.5804    0.6512    0.4632 C   0  0  0  0  0  0  0  0  0  0  0  0
   -1.2483   -0.0515    0.5159 C   0  0  0  0  0  0  0  0  0  0  0  0
   -0.4479    0.1370   -0.7506 C   0  0  0  0  0  0  0  0  0  0  0  0
   -0.1773    1.4429   -1.0137 O   0  0  0  0  0  0  0  0  0  0  0  0
    0.7015   -0.7947   -0.7546 C   0  0  0  0  0  0  0  0  0  0  0  0
    0.2815   -2.0901   -0.4475 O   0  0  0  0  0  0  0  0  0  0  0  0
    1.8877   -0.4725    0.0464 C   0  0  0  0  0  0  0  0  0  0  0  0
    2.0742    0.4052    1.1212 C   0  0  0  0  0  0  0  0  0  0  0  0
    2.3775    0.9099   -0.2679 O   0  0  0  0  0  0  0  0  0  0  0  0
   -3.0119    0.6126    1.4850 H   0  0  0  0  0  0  0  0  0  0  0  0
   -2.5376    1.6704    0.0790 H   0  0  0  0  0  0  0  0  0  0  0  0
   -3.2956    0.0768   -0.1940 H   0  0  0  0  0  0  0  0  0  0  0  0
   -0.6872    0.1430    1.4337 H   0  0  0  0  0  0  0  0  0  0  0  0
   -1.4950   -1.1551    0.5459 H   0  0  0  0  0  0  0  0  0  0  0  0
   -1.1659   -0.1757   -1.5752 H   0  0  0  0  0  0  0  0  0  0  0  0
    0.5762    1.5276   -1.6529 H   0  0  0  0  0  0  0  0  0  0  0  0
    1.0433   -0.8798   -1.8350 H   0  0  0  0  0  0  0  0  0  0  0  0
    0.4559   -2.3400    0.4899 H   0  0  0  0  0  0  0  0  0  0  0  0
    2.7655   -1.1343   -0.2392 H   0  0  0  0  0  0  0  0  0  0  0  0
    3.0389    0.3310    1.7110 H   0  0  0  0  0  0  0  0  0  0  0  0
    1.4449    1.1860    1.5518 H   0  0  0  0  0  0  0  0  0  0  0  0
  1  2  1  0
  2  3  1  0
  3  4  1  0
  3  5  1  0
  5  6  1  0
  5  7  1  0
  7  8  1  0
  8  9  1  0
  9  7  1  0
  1 10  1  0
  1 11  1  0
  1 12  1  0
  2 13  1  0
  2 14  1  0
  3 15  1  0
  4 16  1  0
  5 17  1  0
  6 18  1  0
  7 19  1  0
  8 20  1  0
  8 21  1  0
M  END
