
     RDKit          3D

 25 24  0  0  0  0  0  0  0  0999 V2000
    2.6585   -0.3770    0.3803 C   0  0  0  0  0  0  0  0  0  0  0  0
    1.3510   -0.8502   -0.1880 C   0  0  0  0  0  0  0  0  0  0  0  0
    0.1922    0.0595    0.2086 C   0  0  0  0  0  0  0  0  0  0  0  0
    0.4695    1.4749   -0.3191 C   0  0  0  0  0  0  0  0  0  0  0  0
   -0.6239    2.4208    0.0319 C   0  0  0  0  0  0  0  0  0  0  0  0
   -1.0157   -0.4290   -0.5244 C   0  0  0  0  0  0  0  0  0  0  0  0
   -2.0987    0.3681   -0.1962 O   0  0  0  0  0  0  0  0  0  0  0  0
   -1.3732   -1.8598   -0.2227 C   0  0  0  0  0  0  0  0  0  0  0  0
   -1.6801   -2.0572    1.1225 O   0  0  0  0  0  0  0  0  0  0  0  0
    2.5019    0.4312    1.1476 H   0  0  0  0  0  0  0  0  0  0  0  0
    3.2386   -1.2156    0.8551 H   0  0  0  0  0  0  0  0  0  0  0  0
    3.3190    0.0168   -0.4177 H   0  0  0  0  0  0  0  0  0  0  0  0
    1.1748   -1.8740    0.1416 H   0  0  0  0  0  0  0  0  0  0  0  0
    1.3666   -0.8517   -1.3078 H   0  0  0  0  0  0  0  0  0  0  0  0
    0.0705    0.0963    1.3038 H   0  0  0  0  0  0  0  0  0  0  0  0
    0.5716    1.4546   -1.4235 H   0  0  0  0  0  0  0  0  0  0  0  0
    1.4640    1.8223    0.0716 H   0  0  0  0  0  0  0  0  0  0  0  0
   -1.1642    2.1656    0.9696 H   0  0  0  0  0  0  0  0  0  0  0  0
   -1.4027    2.5321   -0.7556 H   0  0  0  0  0  0  0  0  0  0  0  0
   -0.1657    3.4466    0.1320 H   0  0  0  0  0  0  0  0  0  0  0  0
   -0.8006   -0.3678   -1.6091 H   0  0  0  0  0  0  0  0  0  0  0  0
   -2.4872    0.1046    0.6558 H   0  0  0  0  0  0  0  0  0  0  0  0
   -0.6256   -2.5893   -0.5349 H   0  0  0  0  0  0  0  0  0  0  0  0
   -2.3054   -2.0840   -0.7894 H   0  0  0  0  0  0  0  0  0  0  0  0
   -2.6353   -1.8375    1.2680 H   0  0  0  0  0  0  0  0  0  0  0  0
  1  2  1  0
  2  3  1  0
  3  4  1  0
  4  5  1  0
  3  6  1  0
  6  7  1  0
  6  8  1  0
  8  9  1  0
  1 10  1  0
  1 11  1  0
  1 12  1  0
  2 13  1  0
  2 14  1  0
  3 15  1  0
  4 16  1  0
  4 17  1  0
  5 18  1  0
  5 19  1  0
  5 20  1  0
  6 21  1  0
  7 22  1  0
  8 23  1  0
  8 24  1  0
  9 25  1  0
M  END
