
     RDKit          3D

 21 20  0  0  0  0  0  0  0  0999 V2000
    2.1106    0.4481   -0.7828 C   0  0  0  0  0  0  0  0  0  0  0  0
    1.1886   -0.3482    0.1137 C   0  0  0  0  0  0  0  0  0  0  0  0
   -0.2298    0.1780    0.0690 C   0  0  0  0  0  0  0  0  0  0  0  0
   -1.0384   -0.7176    1.0154 C   0  0  0  0  0  0  0  0  0  0  0  0
   -0.9767   -2.1511    0.5456 C   0  0  0  0  0  0  0  0  0  0  0  0
   -0.3206    1.4896    0.4661 O   0  0  0  0  0  0  0  0  0  0  0  0
   -0.9598    2.2310   -0.5156 C   0  0  0  0  0  0  0  0  0  0  0  0
    1.6950    0.5849   -1.7860 H   0  0  0  0  0  0  0  0  0  0  0  0
    2.4188    1.3801   -0.2864 H   0  0  0  0  0  0  0  0  0  0  0  0
    3.0478   -0.1710   -0.8762 H   0  0  0  0  0  0  0  0  0  0  0  0
    1.5438   -0.3213    1.1443 H   0  0  0  0  0  0  0  0  0  0  0  0
    1.1785   -1.3850   -0.2819 H   0  0  0  0  0  0  0  0  0  0  0  0
   -0.6899    0.0419   -0.9353 H   0  0  0  0  0  0  0  0  0  0  0  0
   -0.5229   -0.6559    1.9986 H   0  0  0  0  0  0  0  0  0  0  0  0
   -2.0646   -0.3539    1.1504 H   0  0  0  0  0  0  0  0  0  0  0  0
   -0.9790   -2.2363   -0.5498 H   0  0  0  0  0  0  0  0  0  0  0  0
   -1.8334   -2.6865    1.0308 H   0  0  0  0  0  0  0  0  0  0  0  0
   -0.0558   -2.6230    0.9197 H   0  0  0  0  0  0  0  0  0  0  0  0
   -1.0610    3.3004   -0.2475 H   0  0  0  0  0  0  0  0  0  0  0  0
   -0.4503    2.1445   -1.5081 H   0  0  0  0  0  0  0  0  0  0  0  0
   -2.0010    1.8513   -0.6827 H   0  0  0  0  0  0  0  0  0  0  0  0
  1  2  1  0
  2  3  1  0
  3  4  1  0
  4  5  1  0
  3  6  1  0
  6  7  1  0
  1  8  1  0
  1  9  1  0
  1 10  1  0
  2 11  1  0
  2 12  1  0
  3 13  1  0
  4 14  1  0
  4 15  1  0
  5 16  1  0
  5 17  1  0
  5 18  1  0
  7 19  1  0
  7 20  1  0
  7 21  1  0
M  END
