
     RDKit          3D

 22 22  0  0  0  0  0  0  0  0999 V2000
   -1.8852    1.0846   -1.0334 C   0  0  0  0  0  0  0  0  0  0  0  0
   -1.9476   -0.2165   -0.2955 C   0  0  0  0  0  0  0  0  0  0  0  0
   -0.6009   -0.7859    0.0325 C   0  0  0  0  0  0  0  0  0  0  0  0
   -0.7705   -2.0725    0.7618 C   0  0  0  0  0  0  0  0  0  0  0  0
    0.2511    0.1097    0.6393 O   0  0  0  0  0  0  0  0  0  0  0  0
    1.3760    0.4268   -0.0921 C   0  0  0  0  0  0  0  0  0  0  0  0
    2.6737    0.3592    0.7274 C   0  0  0  0  0  0  0  0  0  0  0  0
    2.1714    1.6289    0.1283 C   0  0  0  0  0  0  0  0  0  0  0  0
   -2.0401    0.9869   -2.1180 H   0  0  0  0  0  0  0  0  0  0  0  0
   -2.6988    1.7415   -0.6543 H   0  0  0  0  0  0  0  0  0  0  0  0
   -0.9334    1.6385   -0.7973 H   0  0  0  0  0  0  0  0  0  0  0  0
   -2.6225   -0.1515    0.5915 H   0  0  0  0  0  0  0  0  0  0  0  0
   -2.4509   -0.9573   -0.9773 H   0  0  0  0  0  0  0  0  0  0  0  0
   -0.1184   -1.0337   -0.9607 H   0  0  0  0  0  0  0  0  0  0  0  0
   -1.7929   -2.4662    0.5803 H   0  0  0  0  0  0  0  0  0  0  0  0
   -0.0740   -2.8682    0.4323 H   0  0  0  0  0  0  0  0  0  0  0  0
   -0.7125   -1.9276    1.8768 H   0  0  0  0  0  0  0  0  0  0  0  0
    1.4748   -0.0710   -1.0872 H   0  0  0  0  0  0  0  0  0  0  0  0
    3.5254   -0.1849    0.3165 H   0  0  0  0  0  0  0  0  0  0  0  0
    2.5830    0.2736    1.8303 H   0  0  0  0  0  0  0  0  0  0  0  0
    2.7352    2.0507   -0.7386 H   0  0  0  0  0  0  0  0  0  0  0  0
    1.8571    2.4350    0.8374 H   0  0  0  0  0  0  0  0  0  0  0  0
  1  2  1  0
  2  3  1  0
  3  4  1  0
  3  5  1  0
  5  6  1  0
  6  7  1  0
  7  8  1  0
  8  6  1  0
  1  9  1  0
  1 10  1  0
  1 11  1  0
  2 12  1  0
  2 13  1  0
  3 14  1  0
  4 15  1  0
  4 16  1  0
  4 17  1  0
  6 18  1  0
  7 19  1  0
  7 20  1  0
  8 21  1  0
  8 22  1  0
M  END
