
     RDKit          3D

 17 17  0  0  0  0  0  0  0  0999 V2000
    2.4559    0.1346    0.1686 C   0  0  0  0  0  0  0  0  0  0  0  0
    1.2029   -0.6957    0.3691 C   0  0  0  0  0  0  0  0  0  0  0  0
    0.0263    0.1662    0.6595 C   0  0  0  0  0  0  0  0  0  0  0  0
   -0.1142    0.5506    1.8074 O   0  0  0  0  0  0  0  0  0  0  0  0
   -0.9445    0.5589   -0.3621 C   0  0  0  0  0  0  0  0  0  0  0  0
   -1.6629   -0.5636   -1.0738 C   0  0  0  0  0  0  0  0  0  0  0  0
   -2.9073   -0.1697   -0.5749 O   0  0  0  0  0  0  0  0  0  0  0  0
   -2.2971    0.8687    0.1187 C   0  0  0  0  0  0  0  0  0  0  0  0
   -2.8030    1.7456    0.8858 O   0  0  0  0  0  0  0  0  0  0  0  0
    2.4930    1.0309    0.7910 H   0  0  0  0  0  0  0  0  0  0  0  0
    2.5071    0.3772   -0.9269 H   0  0  0  0  0  0  0  0  0  0  0  0
    3.3233   -0.5381    0.3950 H   0  0  0  0  0  0  0  0  0  0  0  0
    1.3918   -1.4026    1.1838 H   0  0  0  0  0  0  0  0  0  0  0  0
    1.0284   -1.2839   -0.5436 H   0  0  0  0  0  0  0  0  0  0  0  0
   -0.6126    1.3015   -1.1121 H   0  0  0  0  0  0  0  0  0  0  0  0
   -1.4137   -1.5918   -0.7469 H   0  0  0  0  0  0  0  0  0  0  0  0
   -1.6733   -0.4890   -2.1871 H   0  0  0  0  0  0  0  0  0  0  0  0
  1  2  1  0
  2  3  1  0
  3  4  2  0
  3  5  1  0
  5  6  1  0
  6  7  1  0
  7  8  1  0
  8  9  2  0
  8  5  1  0
  1 10  1  0
  1 11  1  0
  1 12  1  0
  2 13  1  0
  2 14  1  0
  5 15  1  0
  6 16  1  0
  6 17  1  0
M  END
