
     RDKit          3D

 23 22  0  0  0  0  0  0  0  0999 V2000
    2.2524    0.0222   -0.8427 C   0  0  0  0  0  0  0  0  0  0  0  0
    1.7750   -0.1299    0.5525 C   0  0  0  0  0  0  0  0  0  0  0  0
    0.3726   -0.5997    0.7162 C   0  0  0  0  0  0  0  0  0  0  0  0
    0.1811   -1.8504    0.1348 O   0  0  0  0  0  0  0  0  0  0  0  0
   -0.6887    0.3188    0.2449 C   0  0  0  0  0  0  0  0  0  0  0  0
   -0.8049    0.3062   -1.2650 C   0  0  0  0  0  0  0  0  0  0  0  0
   -0.5936    1.6070    0.7630 O   0  0  0  0  0  0  0  0  0  0  0  0
   -2.0334   -0.2224    0.7605 C   0  0  0  0  0  0  0  0  0  0  0  0
   -3.0888    0.5740    0.3186 O   0  0  0  0  0  0  0  0  0  0  0  0
    2.0889    1.0574   -1.2581 H   0  0  0  0  0  0  0  0  0  0  0  0
    1.9300   -0.7662   -1.5433 H   0  0  0  0  0  0  0  0  0  0  0  0
    3.3814   -0.0638   -0.8167 H   0  0  0  0  0  0  0  0  0  0  0  0
    1.9933    0.7959    1.1058 H   0  0  0  0  0  0  0  0  0  0  0  0
    2.4289   -0.9163    1.0355 H   0  0  0  0  0  0  0  0  0  0  0  0
    0.2255   -0.7731    1.8250 H   0  0  0  0  0  0  0  0  0  0  0  0
    1.0250   -2.3568    0.2240 H   0  0  0  0  0  0  0  0  0  0  0  0
   -0.4665   -0.7084   -1.5949 H   0  0  0  0  0  0  0  0  0  0  0  0
   -0.2538    1.0962   -1.7624 H   0  0  0  0  0  0  0  0  0  0  0  0
   -1.8887    0.3780   -1.5783 H   0  0  0  0  0  0  0  0  0  0  0  0
   -0.5086    2.2879    0.0278 H   0  0  0  0  0  0  0  0  0  0  0  0
   -2.0307   -0.2910    1.8681 H   0  0  0  0  0  0  0  0  0  0  0  0
   -2.2223   -1.2452    0.3847 H   0  0  0  0  0  0  0  0  0  0  0  0
   -3.0743    1.4796    0.7000 H   0  0  0  0  0  0  0  0  0  0  0  0
  1  2  1  0
  2  3  1  0
  3  4  1  0
  3  5  1  0
  5  6  1  0
  5  7  1  0
  5  8  1  0
  8  9  1  0
  1 10  1  0
  1 11  1  0
  1 12  1  0
  2 13  1  0
  2 14  1  0
  3 15  1  0
  4 16  1  0
  6 17  1  0
  6 18  1  0
  6 19  1  0
  7 20  1  0
  8 21  1  0
  8 22  1  0
  9 23  1  0
M  END
