
     RDKit          3D

 25 25  0  0  0  0  0  0  0  0999 V2000
   -1.9836    1.7017   -0.5546 C   0  0  0  0  0  0  0  0  0  0  0  0
   -2.0447    0.2663   -0.1727 C   0  0  0  0  0  0  0  0  0  0  0  0
   -0.7911   -0.5069   -0.3244 C   0  0  0  0  0  0  0  0  0  0  0  0
   -1.1211   -1.9411    0.1077 C   0  0  0  0  0  0  0  0  0  0  0  0
    0.4475   -0.0214    0.2888 C   0  0  0  0  0  0  0  0  0  0  0  0
    1.0149    1.2594   -0.1155 C   0  0  0  0  0  0  0  0  0  0  0  0
    2.3493    1.2148    0.0859 C   0  0  0  0  0  0  0  0  0  0  0  0
    2.7513   -0.0971    0.6347 C   0  0  0  0  0  0  0  0  0  0  0  0
    1.5933   -1.0127    0.2165 C   0  0  0  0  0  0  0  0  0  0  0  0
   -1.6319    2.3895    0.2143 H   0  0  0  0  0  0  0  0  0  0  0  0
   -3.0771    2.0180   -0.6996 H   0  0  0  0  0  0  0  0  0  0  0  0
   -1.4980    1.7784   -1.5486 H   0  0  0  0  0  0  0  0  0  0  0  0
   -2.5199    0.1266    0.8376 H   0  0  0  0  0  0  0  0  0  0  0  0
   -2.7982   -0.2283   -0.8711 H   0  0  0  0  0  0  0  0  0  0  0  0
   -0.6010   -0.6004   -1.4385 H   0  0  0  0  0  0  0  0  0  0  0  0
   -0.4116   -2.6655   -0.3225 H   0  0  0  0  0  0  0  0  0  0  0  0
   -2.1185   -2.1599   -0.3298 H   0  0  0  0  0  0  0  0  0  0  0  0
   -1.1902   -2.0109    1.2015 H   0  0  0  0  0  0  0  0  0  0  0  0
    0.2840    0.0815    1.4265 H   0  0  0  0  0  0  0  0  0  0  0  0
    0.5297    2.1731   -0.5298 H   0  0  0  0  0  0  0  0  0  0  0  0
    3.0134    2.0560   -0.1384 H   0  0  0  0  0  0  0  0  0  0  0  0
    2.9167   -0.1010    1.7120 H   0  0  0  0  0  0  0  0  0  0  0  0
    3.6354   -0.4650    0.0648 H   0  0  0  0  0  0  0  0  0  0  0  0
    1.5093   -1.7807    1.0089 H   0  0  0  0  0  0  0  0  0  0  0  0
    1.7421   -1.4745   -0.7536 H   0  0  0  0  0  0  0  0  0  0  0  0
  1  2  1  0
  2  3  1  0
  3  4  1  0
  3  5  1  0
  5  6  1  0
  6  7  2  0
  7  8  1  0
  8  9  1  0
  9  5  1  0
  1 10  1  0
  1 11  1  0
  1 12  1  0
  2 13  1  0
  2 14  1  0
  3 15  1  0
  4 16  1  0
  4 17  1  0
  4 18  1  0
  5 19  1  0
  6 20  1  0
  7 21  1  0
  8 22  1  0
  8 23  1  0
  9 24  1  0
  9 25  1  0
M  END
