
     RDKit          3D

 18 17  0  0  0  0  0  0  0  0999 V2000
    1.8679    0.9049   -0.5403 C   0  0  0  0  0  0  0  0  0  0  0  0
    1.1291   -0.3965   -0.4734 C   0  0  0  0  0  0  0  0  0  0  0  0
   -0.2250   -0.2297    0.1989 C   0  0  0  0  0  0  0  0  0  0  0  0
   -0.9665   -1.5442    0.2643 C   0  0  0  0  0  0  0  0  0  0  0  0
   -1.2367   -2.0569   -1.0005 O   0  0  0  0  0  0  0  0  0  0  0  0
   -0.9457    0.7605   -0.4868 O   0  0  0  0  0  0  0  0  0  0  0  0
   -1.3478    1.9603    0.0833 C   0  0  0  0  0  0  0  0  0  0  0  0
   -1.0351    2.1482    1.2895 O   0  0  0  0  0  0  0  0  0  0  0  0
    1.5051    1.5542   -1.3795 H   0  0  0  0  0  0  0  0  0  0  0  0
    1.9118    1.4468    0.4039 H   0  0  0  0  0  0  0  0  0  0  0  0
    2.9335    0.6588   -0.8163 H   0  0  0  0  0  0  0  0  0  0  0  0
    1.0090   -0.7843   -1.5040 H   0  0  0  0  0  0  0  0  0  0  0  0
    1.6994   -1.1252    0.1188 H   0  0  0  0  0  0  0  0  0  0  0  0
   -0.0149    0.0647    1.2568 H   0  0  0  0  0  0  0  0  0  0  0  0
   -1.8913   -1.4161    0.8620 H   0  0  0  0  0  0  0  0  0  0  0  0
   -0.3281   -2.2482    0.8579 H   0  0  0  0  0  0  0  0  0  0  0  0
   -2.1623   -2.4120   -0.9807 H   0  0  0  0  0  0  0  0  0  0  0  0
   -1.9025    2.7147   -0.4562 H   0  0  0  0  0  0  0  0  0  0  0  0
  1  2  1  0
  2  3  1  0
  3  4  1  0
  4  5  1  0
  3  6  1  0
  6  7  1  0
  7  8  2  0
  1  9  1  0
  1 10  1  0
  1 11  1  0
  2 12  1  0
  2 13  1  0
  3 14  1  0
  4 15  1  0
  4 16  1  0
  5 17  1  0
  7 18  1  0
M  END
