
     RDKit          3D

 23 22  0  0  0  0  0  0  0  0999 V2000
   -2.0423    1.3771   -0.1506 C   0  0  0  0  0  0  0  0  0  0  0  0
   -1.5346    0.0944    0.4150 C   0  0  0  0  0  0  0  0  0  0  0  0
   -0.2710   -0.4028   -0.2455 C   0  0  0  0  0  0  0  0  0  0  0  0
    0.1240   -1.6971    0.4220 C   0  0  0  0  0  0  0  0  0  0  0  0
   -0.5588   -0.5777   -1.5966 O   0  0  0  0  0  0  0  0  0  0  0  0
    0.8595    0.5917   -0.1389 C   0  0  0  0  0  0  0  0  0  0  0  0
    2.0586   -0.0523   -0.8491 C   0  0  0  0  0  0  0  0  0  0  0  0
    1.2814    0.8146    1.2642 C   0  0  0  0  0  0  0  0  0  0  0  0
    0.9194    1.8157    1.8497 O   0  0  0  0  0  0  0  0  0  0  0  0
   -1.7627    2.2259    0.4954 H   0  0  0  0  0  0  0  0  0  0  0  0
   -1.7180    1.5158   -1.1892 H   0  0  0  0  0  0  0  0  0  0  0  0
   -3.1658    1.3535   -0.1519 H   0  0  0  0  0  0  0  0  0  0  0  0
   -2.3088   -0.6984    0.2207 H   0  0  0  0  0  0  0  0  0  0  0  0
   -1.4101    0.1106    1.5174 H   0  0  0  0  0  0  0  0  0  0  0  0
   -0.7807   -2.2114    0.8397 H   0  0  0  0  0  0  0  0  0  0  0  0
    0.5936   -2.3399   -0.3652 H   0  0  0  0  0  0  0  0  0  0  0  0
    0.8064   -1.5257    1.2651 H   0  0  0  0  0  0  0  0  0  0  0  0
   -0.7059   -1.5379   -1.7454 H   0  0  0  0  0  0  0  0  0  0  0  0
    0.6171    1.5311   -0.6575 H   0  0  0  0  0  0  0  0  0  0  0  0
    2.2520   -1.0411   -0.4118 H   0  0  0  0  0  0  0  0  0  0  0  0
    1.9076   -0.0819   -1.9428 H   0  0  0  0  0  0  0  0  0  0  0  0
    2.9321    0.6183   -0.6463 H   0  0  0  0  0  0  0  0  0  0  0  0
    1.9068    0.1172    1.8016 H   0  0  0  0  0  0  0  0  0  0  0  0
  1  2  1  0
  2  3  1  0
  3  4  1  0
  3  5  1  0
  3  6  1  0
  6  7  1  0
  6  8  1  0
  8  9  2  0
  1 10  1  0
  1 11  1  0
  1 12  1  0
  2 13  1  0
  2 14  1  0
  4 15  1  0
  4 16  1  0
  4 17  1  0
  5 18  1  0
  6 19  1  0
  7 20  1  0
  7 21  1  0
  7 22  1  0
  8 23  1  0
M  END
