
     RDKit          3D

 25 24  0  0  0  0  0  0  0  0999 V2000
   -2.3336    1.8297    0.5914 C   0  0  0  0  0  0  0  0  0  0  0  0
   -1.1994    1.0592   -0.1479 C   0  0  0  0  0  0  0  0  0  0  0  0
   -1.4807   -0.3782   -0.0969 C   0  0  0  0  0  0  0  0  0  0  0  0
   -2.7630   -0.5346   -0.7352 O   0  0  0  0  0  0  0  0  0  0  0  0
   -0.5532   -1.3914   -0.5942 C   0  0  0  0  0  0  0  0  0  0  0  0
    0.7814   -1.6612   -0.0980 C   0  0  0  0  0  0  0  0  0  0  0  0
    1.9023   -0.7278   -0.1015 C   0  0  0  0  0  0  0  0  0  0  0  0
    1.8538    0.4076    0.6295 O   0  0  0  0  0  0  0  0  0  0  0  0
    3.0249    1.1301    0.4690 C   0  0  0  0  0  0  0  0  0  0  0  0
   -2.2542    1.6759    1.6747 H   0  0  0  0  0  0  0  0  0  0  0  0
   -2.3317    2.8686    0.2600 H   0  0  0  0  0  0  0  0  0  0  0  0
   -3.2681    1.3442    0.2352 H   0  0  0  0  0  0  0  0  0  0  0  0
   -1.3257    1.4312   -1.2079 H   0  0  0  0  0  0  0  0  0  0  0  0
   -0.2999    1.4602    0.3094 H   0  0  0  0  0  0  0  0  0  0  0  0
   -1.7443   -0.6699    0.9794 H   0  0  0  0  0  0  0  0  0  0  0  0
   -3.1730   -1.3682   -0.3886 H   0  0  0  0  0  0  0  0  0  0  0  0
   -0.5560   -1.3949   -1.7612 H   0  0  0  0  0  0  0  0  0  0  0  0
   -1.1301   -2.3995   -0.4537 H   0  0  0  0  0  0  0  0  0  0  0  0
    1.1442   -2.6071   -0.6744 H   0  0  0  0  0  0  0  0  0  0  0  0
    0.6563   -2.1305    0.9513 H   0  0  0  0  0  0  0  0  0  0  0  0
    2.8375   -1.3461    0.1540 H   0  0  0  0  0  0  0  0  0  0  0  0
    2.1607   -0.4186   -1.1771 H   0  0  0  0  0  0  0  0  0  0  0  0
    3.0359    2.0691    1.0470 H   0  0  0  0  0  0  0  0  0  0  0  0
    3.1559    1.3124   -0.6285 H   0  0  0  0  0  0  0  0  0  0  0  0
    3.8599    0.4399    0.7642 H   0  0  0  0  0  0  0  0  0  0  0  0
  1  2  1  0
  2  3  1  0
  3  4  1  0
  3  5  1  0
  5  6  1  0
  6  7  1  0
  7  8  1  0
  8  9  1  0
  1 10  1  0
  1 11  1  0
  1 12  1  0
  2 13  1  0
  2 14  1  0
  3 15  1  0
  4 16  1  0
  5 17  1  0
  5 18  1  0
  6 19  1  0
  6 20  1  0
  7 21  1  0
  7 22  1  0
  9 23  1  0
  9 24  1  0
  9 25  1  0
M  END
