
     RDKit          3D

 23 22  0  0  0  0  0  0  0  0999 V2000
    3.3779    0.0148    0.4231 C   0  0  0  0  0  0  0  0  0  0  0  0
    2.1096   -0.2295   -0.3605 C   0  0  0  0  0  0  0  0  0  0  0  0
    0.9162    0.0422    0.4641 C   0  0  0  0  0  0  0  0  0  0  0  0
    1.1053    0.4097    1.6112 O   0  0  0  0  0  0  0  0  0  0  0  0
   -0.4802   -0.1108   -0.0372 C   0  0  0  0  0  0  0  0  0  0  0  0
   -0.6754    0.7895   -1.1871 C   0  0  0  0  0  0  0  0  0  0  0  0
   -1.4363    0.0259    1.0921 C   0  0  0  0  0  0  0  0  0  0  0  0
   -2.8746   -0.1052    0.7370 C   0  0  0  0  0  0  0  0  0  0  0  0
   -3.1946   -1.3315    0.1741 O   0  0  0  0  0  0  0  0  0  0  0  0
    3.8824   -0.9445    0.7035 H   0  0  0  0  0  0  0  0  0  0  0  0
    3.1023    0.4798    1.4128 H   0  0  0  0  0  0  0  0  0  0  0  0
    4.0940    0.6692   -0.1271 H   0  0  0  0  0  0  0  0  0  0  0  0
    2.1349    0.4821   -1.2288 H   0  0  0  0  0  0  0  0  0  0  0  0
    2.1127   -1.2412   -0.8078 H   0  0  0  0  0  0  0  0  0  0  0  0
   -0.5463   -1.1744   -0.4121 H   0  0  0  0  0  0  0  0  0  0  0  0
   -0.2540    1.8092   -0.9513 H   0  0  0  0  0  0  0  0  0  0  0  0
   -1.7010    0.8598   -1.5767 H   0  0  0  0  0  0  0  0  0  0  0  0
   -0.0516    0.4123   -2.0328 H   0  0  0  0  0  0  0  0  0  0  0  0
   -1.3000    1.0282    1.5718 H   0  0  0  0  0  0  0  0  0  0  0  0
   -1.2104   -0.7122    1.8895 H   0  0  0  0  0  0  0  0  0  0  0  0
   -3.2533    0.7501    0.1140 H   0  0  0  0  0  0  0  0  0  0  0  0
   -3.4612   -0.0340    1.6848 H   0  0  0  0  0  0  0  0  0  0  0  0
   -2.3967   -1.8896    0.0624 H   0  0  0  0  0  0  0  0  0  0  0  0
  1  2  1  0
  2  3  1  0
  3  4  2  0
  3  5  1  0
  5  6  1  0
  5  7  1  0
  7  8  1  0
  8  9  1  0
  1 10  1  0
  1 11  1  0
  1 12  1  0
  2 13  1  0
  2 14  1  0
  5 15  1  0
  6 16  1  0
  6 17  1  0
  6 18  1  0
  7 19  1  0
  7 20  1  0
  8 21  1  0
  8 22  1  0
  9 23  1  0
M  END
