
     RDKit          3D

 25 24  0  0  0  0  0  0  0  0999 V2000
   -3.3860    0.3058    0.2543 C   0  0  0  0  0  0  0  0  0  0  0  0
   -2.0323    0.3046    0.8817 C   0  0  0  0  0  0  0  0  0  0  0  0
   -0.9164    0.1561   -0.1310 C   0  0  0  0  0  0  0  0  0  0  0  0
   -0.9200    1.1900   -1.0588 O   0  0  0  0  0  0  0  0  0  0  0  0
    0.4139    0.0937    0.5729 C   0  0  0  0  0  0  0  0  0  0  0  0
    1.5551   -0.0557   -0.4208 C   0  0  0  0  0  0  0  0  0  0  0  0
    1.3795   -1.3300   -1.2233 C   0  0  0  0  0  0  0  0  0  0  0  0
    2.8644   -0.2003    0.3363 C   0  0  0  0  0  0  0  0  0  0  0  0
    3.0905    0.9193    1.1245 O   0  0  0  0  0  0  0  0  0  0  0  0
   -3.4571   -0.3730   -0.6387 H   0  0  0  0  0  0  0  0  0  0  0  0
   -4.1103   -0.0897    0.9963 H   0  0  0  0  0  0  0  0  0  0  0  0
   -3.7481    1.3257   -0.0068 H   0  0  0  0  0  0  0  0  0  0  0  0
   -1.8831    1.2967    1.3690 H   0  0  0  0  0  0  0  0  0  0  0  0
   -1.9855   -0.5044    1.6261 H   0  0  0  0  0  0  0  0  0  0  0  0
   -1.1261   -0.7840   -0.6887 H   0  0  0  0  0  0  0  0  0  0  0  0
   -1.8279    1.4227   -1.3617 H   0  0  0  0  0  0  0  0  0  0  0  0
    0.5513    0.9839    1.1891 H   0  0  0  0  0  0  0  0  0  0  0  0
    0.4286   -0.7950    1.2112 H   0  0  0  0  0  0  0  0  0  0  0  0
    1.5671    0.8190   -1.0916 H   0  0  0  0  0  0  0  0  0  0  0  0
    1.0625   -2.1123   -0.4973 H   0  0  0  0  0  0  0  0  0  0  0  0
    2.3825   -1.6677   -1.6015 H   0  0  0  0  0  0  0  0  0  0  0  0
    0.6684   -1.2008   -2.0424 H   0  0  0  0  0  0  0  0  0  0  0  0
    3.6784   -0.3807   -0.3927 H   0  0  0  0  0  0  0  0  0  0  0  0
    2.8222   -1.0851    1.0006 H   0  0  0  0  0  0  0  0  0  0  0  0
    2.9285    1.7615    0.5932 H   0  0  0  0  0  0  0  0  0  0  0  0
  1  2  1  0
  2  3  1  0
  3  4  1  0
  3  5  1  0
  5  6  1  0
  6  7  1  0
  6  8  1  0
  8  9  1  0
  1 10  1  0
  1 11  1  0
  1 12  1  0
  2 13  1  0
  2 14  1  0
  3 15  1  0
  4 16  1  0
  5 17  1  0
  5 18  1  0
  6 19  1  0
  7 20  1  0
  7 21  1  0
  7 22  1  0
  8 23  1  0
  8 24  1  0
  9 25  1  0
M  END
