
     RDKit          3D

 23 23  0  0  0  0  0  0  0  0999 V2000
    2.0241    1.1283   -0.5452 C   0  0  0  0  0  0  0  0  0  0  0  0
    1.7934   -0.3383   -0.4366 C   0  0  0  0  0  0  0  0  0  0  0  0
    0.8557   -0.7936    0.6119 C   0  0  0  0  0  0  0  0  0  0  0  0
    0.8292   -2.2231    0.5194 O   0  0  0  0  0  0  0  0  0  0  0  0
   -0.5404   -0.3716    0.5651 C   0  0  0  0  0  0  0  0  0  0  0  0
   -0.8734    1.0794    0.6187 C   0  0  0  0  0  0  0  0  0  0  0  0
   -2.3794    0.9705    0.4031 C   0  0  0  0  0  0  0  0  0  0  0  0
   -2.6208   -0.0836   -0.3632 C   0  0  0  0  0  0  0  0  0  0  0  0
   -1.3148   -0.7196   -0.6924 C   0  0  0  0  0  0  0  0  0  0  0  0
    1.5364    1.5667   -1.4213 H   0  0  0  0  0  0  0  0  0  0  0  0
    3.1273    1.3689   -0.7017 H   0  0  0  0  0  0  0  0  0  0  0  0
    1.7276    1.6587    0.3961 H   0  0  0  0  0  0  0  0  0  0  0  0
    1.5120   -0.8031   -1.4068 H   0  0  0  0  0  0  0  0  0  0  0  0
    2.7987   -0.7977   -0.1911 H   0  0  0  0  0  0  0  0  0  0  0  0
    1.2542   -0.6020    1.6236 H   0  0  0  0  0  0  0  0  0  0  0  0
    1.4974   -2.6217    1.1119 H   0  0  0  0  0  0  0  0  0  0  0  0
   -1.0859   -0.8904    1.3941 H   0  0  0  0  0  0  0  0  0  0  0  0
   -0.5256    1.6336   -0.2897 H   0  0  0  0  0  0  0  0  0  0  0  0
   -0.6348    1.5967    1.5467 H   0  0  0  0  0  0  0  0  0  0  0  0
   -3.1391    1.6247    0.7949 H   0  0  0  0  0  0  0  0  0  0  0  0
   -3.5797   -0.4492   -0.7093 H   0  0  0  0  0  0  0  0  0  0  0  0
   -1.3841   -1.7950   -0.8758 H   0  0  0  0  0  0  0  0  0  0  0  0
   -0.8780   -0.1386   -1.5108 H   0  0  0  0  0  0  0  0  0  0  0  0
  1  2  1  0
  2  3  1  0
  3  4  1  0
  3  5  1  0
  5  6  1  0
  6  7  1  0
  7  8  2  0
  8  9  1  0
  9  5  1  0
  1 10  1  0
  1 11  1  0
  1 12  1  0
  2 13  1  0
  2 14  1  0
  3 15  1  0
  4 16  1  0
  5 17  1  0
  6 18  1  0
  6 19  1  0
  7 20  1  0
  8 21  1  0
  9 22  1  0
  9 23  1  0
M  END
