
     RDKit          3D

 21 20  0  0  0  0  0  0  0  0999 V2000
   -1.8352   -1.1374    0.1151 C   0  0  0  0  0  0  0  0  0  0  0  0
   -1.7444    0.3289    0.3014 C   0  0  0  0  0  0  0  0  0  0  0  0
   -0.3738    0.9163    0.3938 C   0  0  0  0  0  0  0  0  0  0  0  0
   -0.5808    2.3172    0.5714 O   0  0  0  0  0  0  0  0  0  0  0  0
    0.4209    0.8297   -0.8948 C   0  0  0  0  0  0  0  0  0  0  0  0
    0.7091   -0.4821   -1.1404 O   0  0  0  0  0  0  0  0  0  0  0  0
    1.4662   -1.1268   -0.2068 C   0  0  0  0  0  0  0  0  0  0  0  0
    2.7944   -0.4768   -0.0820 C   0  0  0  0  0  0  0  0  0  0  0  0
    3.5905   -0.9256    0.7251 O   0  0  0  0  0  0  0  0  0  0  0  0
   -1.3753   -1.4367   -0.8465 H   0  0  0  0  0  0  0  0  0  0  0  0
   -1.3470   -1.7371    0.9081 H   0  0  0  0  0  0  0  0  0  0  0  0
   -2.9430   -1.3824    0.0950 H   0  0  0  0  0  0  0  0  0  0  0  0
   -2.2793    0.6063    1.2415 H   0  0  0  0  0  0  0  0  0  0  0  0
   -2.2676    0.8101   -0.5693 H   0  0  0  0  0  0  0  0  0  0  0  0
    0.2009    0.5798    1.2615 H   0  0  0  0  0  0  0  0  0  0  0  0
   -1.1681    2.6389   -0.1571 H   0  0  0  0  0  0  0  0  0  0  0  0
    1.3326    1.4423   -0.7674 H   0  0  0  0  0  0  0  0  0  0  0  0
   -0.1942    1.2984   -1.7062 H   0  0  0  0  0  0  0  0  0  0  0  0
    1.5797   -2.1911   -0.5758 H   0  0  0  0  0  0  0  0  0  0  0  0
    0.9771   -1.2462    0.7893 H   0  0  0  0  0  0  0  0  0  0  0  0
    3.0373    0.3746   -0.6993 H   0  0  0  0  0  0  0  0  0  0  0  0
  1  2  1  0
  2  3  1  0
  3  4  1  0
  3  5  1  0
  5  6  1  0
  6  7  1  0
  7  8  1  0
  8  9  2  0
  1 10  1  0
  1 11  1  0
  1 12  1  0
  2 13  1  0
  2 14  1  0
  3 15  1  0
  4 16  1  0
  5 17  1  0
  5 18  1  0
  7 19  1  0
  7 20  1  0
  8 21  1  0
M  END
