
     RDKit          3D

 21 21  0  0  0  0  0  0  0  0999 V2000
    2.5361   -0.8325   -0.4969 C   0  0  0  0  0  0  0  0  0  0  0  0
    2.0059    0.3372    0.2694 C   0  0  0  0  0  0  0  0  0  0  0  0
    0.8120    0.9791   -0.2481 C   0  0  0  0  0  0  0  0  0  0  0  0
    0.8924    2.0276   -0.8851 O   0  0  0  0  0  0  0  0  0  0  0  0
   -0.5320    0.3812   -0.0160 C   0  0  0  0  0  0  0  0  0  0  0  0
   -0.4647   -0.7995    0.6899 O   0  0  0  0  0  0  0  0  0  0  0  0
   -1.6389   -1.4299    0.9616 C   0  0  0  0  0  0  0  0  0  0  0  0
   -1.5234    0.6316   -1.0818 C   0  0  0  0  0  0  0  0  0  0  0  0
   -1.6053    1.3797    0.2503 C   0  0  0  0  0  0  0  0  0  0  0  0
    2.5485   -0.6643   -1.5925 H   0  0  0  0  0  0  0  0  0  0  0  0
    3.5760   -1.0284   -0.0956 H   0  0  0  0  0  0  0  0  0  0  0  0
    1.9741   -1.7558   -0.2060 H   0  0  0  0  0  0  0  0  0  0  0  0
    1.8008    0.0037    1.3308 H   0  0  0  0  0  0  0  0  0  0  0  0
    2.8039    1.1317    0.3498 H   0  0  0  0  0  0  0  0  0  0  0  0
   -2.1515   -1.6856    0.0128 H   0  0  0  0  0  0  0  0  0  0  0  0
   -1.3676   -2.4436    1.3790 H   0  0  0  0  0  0  0  0  0  0  0  0
   -2.3250   -0.9030    1.6173 H   0  0  0  0  0  0  0  0  0  0  0  0
   -2.2299   -0.1628   -1.3149 H   0  0  0  0  0  0  0  0  0  0  0  0
   -1.2238    1.2415   -1.9768 H   0  0  0  0  0  0  0  0  0  0  0  0
   -1.3873    2.4691    0.1811 H   0  0  0  0  0  0  0  0  0  0  0  0
   -2.5003    1.1229    0.8717 H   0  0  0  0  0  0  0  0  0  0  0  0
  1  2  1  0
  2  3  1  0
  3  4  2  0
  3  5  1  0
  5  6  1  0
  6  7  1  0
  5  8  1  0
  8  9  1  0
  9  5  1  0
  1 10  1  0
  1 11  1  0
  1 12  1  0
  2 13  1  0
  2 14  1  0
  7 15  1  0
  7 16  1  0
  7 17  1  0
  8 18  1  0
  8 19  1  0
  9 20  1  0
  9 21  1  0
M  END
