
     RDKit          3D

 25 25  0  0  0  0  0  0  0  0999 V2000
    1.4998    1.9025   -0.1221 C   0  0  0  0  0  0  0  0  0  0  0  0
    1.4450    0.5448    0.5126 C   0  0  0  0  0  0  0  0  0  0  0  0
    0.4839   -0.3992   -0.1228 C   0  0  0  0  0  0  0  0  0  0  0  0
    0.5423   -1.7112    0.6202 C   0  0  0  0  0  0  0  0  0  0  0  0
    0.9722   -0.6817   -1.5480 C   0  0  0  0  0  0  0  0  0  0  0  0
   -0.9091    0.0668   -0.2357 C   0  0  0  0  0  0  0  0  0  0  0  0
   -1.6447    0.4090    1.0253 C   0  0  0  0  0  0  0  0  0  0  0  0
   -2.7696   -0.1440    0.1382 C   0  0  0  0  0  0  0  0  0  0  0  0
   -1.7855   -1.0453   -0.3303 O   0  0  0  0  0  0  0  0  0  0  0  0
    2.0836    1.9034   -1.0675 H   0  0  0  0  0  0  0  0  0  0  0  0
    2.0432    2.5794    0.5711 H   0  0  0  0  0  0  0  0  0  0  0  0
    0.4944    2.3616   -0.2620 H   0  0  0  0  0  0  0  0  0  0  0  0
    1.2398    0.6265    1.6002 H   0  0  0  0  0  0  0  0  0  0  0  0
    2.4650    0.1026    0.4265 H   0  0  0  0  0  0  0  0  0  0  0  0
    0.3611   -1.5947    1.7107 H   0  0  0  0  0  0  0  0  0  0  0  0
    1.5817   -2.1147    0.5259 H   0  0  0  0  0  0  0  0  0  0  0  0
   -0.1318   -2.4755    0.1774 H   0  0  0  0  0  0  0  0  0  0  0  0
    0.0967   -1.0914   -2.1226 H   0  0  0  0  0  0  0  0  0  0  0  0
    1.7779   -1.4250   -1.5529 H   0  0  0  0  0  0  0  0  0  0  0  0
    1.2220    0.2867   -1.9861 H   0  0  0  0  0  0  0  0  0  0  0  0
   -1.1713    0.7635   -1.0413 H   0  0  0  0  0  0  0  0  0  0  0  0
   -1.7721    1.4673    1.2537 H   0  0  0  0  0  0  0  0  0  0  0  0
   -1.5094   -0.2884    1.8716 H   0  0  0  0  0  0  0  0  0  0  0  0
   -3.0133    0.5475   -0.7086 H   0  0  0  0  0  0  0  0  0  0  0  0
   -3.6017   -0.5903    0.6667 H   0  0  0  0  0  0  0  0  0  0  0  0
  1  2  1  0
  2  3  1  0
  3  4  1  0
  3  5  1  0
  3  6  1  0
  6  7  1  0
  7  8  1  0
  8  9  1  0
  9  6  1  0
  1 10  1  0
  1 11  1  0
  1 12  1  0
  2 13  1  0
  2 14  1  0
  4 15  1  0
  4 16  1  0
  4 17  1  0
  5 18  1  0
  5 19  1  0
  5 20  1  0
  6 21  1  0
  7 22  1  0
  7 23  1  0
  8 24  1  0
  8 25  1  0
M  END
