
     RDKit          3D

 19 18  0  0  0  0  0  0  0  0999 V2000
   -1.5129   -1.2374    0.2643 C   0  0  0  0  0  0  0  0  0  0  0  0
   -1.4202    0.1776   -0.1910 C   0  0  0  0  0  0  0  0  0  0  0  0
   -0.2214    0.9387    0.2979 C   0  0  0  0  0  0  0  0  0  0  0  0
   -0.3847    2.3299   -0.2899 C   0  0  0  0  0  0  0  0  0  0  0  0
   -0.4825    2.3493   -1.5058 O   0  0  0  0  0  0  0  0  0  0  0  0
    1.0712    0.4120   -0.1770 C   0  0  0  0  0  0  0  0  0  0  0  0
    1.8142    1.1428   -0.8440 O   0  0  0  0  0  0  0  0  0  0  0  0
    1.5580   -0.9618    0.0943 C   0  0  0  0  0  0  0  0  0  0  0  0
    2.8664   -1.1157   -0.4215 O   0  0  0  0  0  0  0  0  0  0  0  0
   -1.4256   -1.9729   -0.5629 H   0  0  0  0  0  0  0  0  0  0  0  0
   -2.5413   -1.3934    0.6978 H   0  0  0  0  0  0  0  0  0  0  0  0
   -0.8341   -1.4366    1.1188 H   0  0  0  0  0  0  0  0  0  0  0  0
   -2.3121    0.7371    0.1594 H   0  0  0  0  0  0  0  0  0  0  0  0
   -1.4582    0.2683   -1.3082 H   0  0  0  0  0  0  0  0  0  0  0  0
   -0.2333    1.0701    1.3957 H   0  0  0  0  0  0  0  0  0  0  0  0
   -0.4104    3.2107    0.3190 H   0  0  0  0  0  0  0  0  0  0  0  0
    0.9227   -1.7101   -0.4478 H   0  0  0  0  0  0  0  0  0  0  0  0
    1.5885   -1.1999    1.1779 H   0  0  0  0  0  0  0  0  0  0  0  0
    3.4157   -1.6086    0.2229 H   0  0  0  0  0  0  0  0  0  0  0  0
  1  2  1  0
  2  3  1  0
  3  4  1  0
  4  5  2  0
  3  6  1  0
  6  7  2  0
  6  8  1  0
  8  9  1  0
  1 10  1  0
  1 11  1  0
  1 12  1  0
  2 13  1  0
  2 14  1  0
  3 15  1  0
  4 16  1  0
  8 17  1  0
  8 18  1  0
  9 19  1  0
M  END
