
     RDKit          3D

 23 23  0  0  0  0  0  0  0  0999 V2000
   -2.1412   -1.1694   -0.2309 C   0  0  0  0  0  0  0  0  0  0  0  0
   -0.7325   -1.0861   -0.7354 C   0  0  0  0  0  0  0  0  0  0  0  0
    0.1224   -0.1336    0.0587 C   0  0  0  0  0  0  0  0  0  0  0  0
    0.2070   -0.5505    1.5181 C   0  0  0  0  0  0  0  0  0  0  0  0
   -0.4775    1.2663    0.0658 C   0  0  0  0  0  0  0  0  0  0  0  0
   -0.5863    1.7628   -1.2075 O   0  0  0  0  0  0  0  0  0  0  0  0
    1.4546   -0.0395   -0.5956 C   0  0  0  0  0  0  0  0  0  0  0  0
    2.5327    0.7807   -0.1104 C   0  0  0  0  0  0  0  0  0  0  0  0
    2.5177   -0.5823    0.2882 O   0  0  0  0  0  0  0  0  0  0  0  0
   -2.2053   -1.6244    0.7798 H   0  0  0  0  0  0  0  0  0  0  0  0
   -2.7181   -1.8189   -0.9059 H   0  0  0  0  0  0  0  0  0  0  0  0
   -2.5906   -0.1631   -0.2897 H   0  0  0  0  0  0  0  0  0  0  0  0
   -0.2506   -2.0681   -0.7910 H   0  0  0  0  0  0  0  0  0  0  0  0
   -0.7767   -0.6875   -1.7737 H   0  0  0  0  0  0  0  0  0  0  0  0
    0.7650   -1.4883    1.6601 H   0  0  0  0  0  0  0  0  0  0  0  0
    0.6723    0.3167    2.0635 H   0  0  0  0  0  0  0  0  0  0  0  0
   -0.8143   -0.6409    1.9017 H   0  0  0  0  0  0  0  0  0  0  0  0
   -1.4600    1.2987    0.5736 H   0  0  0  0  0  0  0  0  0  0  0  0
    0.2508    1.9048    0.6410 H   0  0  0  0  0  0  0  0  0  0  0  0
   -1.0780    2.6218   -1.1560 H   0  0  0  0  0  0  0  0  0  0  0  0
    1.5192   -0.4296   -1.6339 H   0  0  0  0  0  0  0  0  0  0  0  0
    3.3843    0.9863   -0.7984 H   0  0  0  0  0  0  0  0  0  0  0  0
    2.4050    1.5440    0.6779 H   0  0  0  0  0  0  0  0  0  0  0  0
  1  2  1  0
  2  3  1  0
  3  4  1  0
  3  5  1  0
  5  6  1  0
  3  7  1  0
  7  8  1  0
  8  9  1  0
  9  7  1  0
  1 10  1  0
  1 11  1  0
  1 12  1  0
  2 13  1  0
  2 14  1  0
  4 15  1  0
  4 16  1  0
  4 17  1  0
  5 18  1  0
  5 19  1  0
  6 20  1  0
  7 21  1  0
  8 22  1  0
  8 23  1  0
M  END
