
     RDKit          3D

 23 22  0  0  0  0  0  0  0  0999 V2000
   -1.9232   -1.4389   -0.0968 C   0  0  0  0  0  0  0  0  0  0  0  0
   -0.3940   -1.4360   -0.1261 C   0  0  0  0  0  0  0  0  0  0  0  0
    0.0645    0.0271   -0.1222 C   0  0  0  0  0  0  0  0  0  0  0  0
   -0.5616    0.6139   -1.3974 C   0  0  0  0  0  0  0  0  0  0  0  0
    1.5384    0.1456   -0.2883 C   0  0  0  0  0  0  0  0  0  0  0  0
    2.3270   -0.5194    0.7678 C   0  0  0  0  0  0  0  0  0  0  0  0
    1.8816   -1.1215    1.7097 O   0  0  0  0  0  0  0  0  0  0  0  0
   -0.4551    0.5986    1.0069 O   0  0  0  0  0  0  0  0  0  0  0  0
   -0.1595    1.9226    1.2023 C   0  0  0  0  0  0  0  0  0  0  0  0
   -2.3651   -1.1034   -1.0336 H   0  0  0  0  0  0  0  0  0  0  0  0
   -2.2014   -2.5260    0.0261 H   0  0  0  0  0  0  0  0  0  0  0  0
   -2.2810   -0.9282    0.8074 H   0  0  0  0  0  0  0  0  0  0  0  0
   -0.0398   -1.9279   -1.0422 H   0  0  0  0  0  0  0  0  0  0  0  0
   -0.0717   -1.9805    0.7597 H   0  0  0  0  0  0  0  0  0  0  0  0
   -1.6310    0.7826   -1.2926 H   0  0  0  0  0  0  0  0  0  0  0  0
   -0.3726   -0.1497   -2.1816 H   0  0  0  0  0  0  0  0  0  0  0  0
    0.0021    1.5242   -1.7144 H   0  0  0  0  0  0  0  0  0  0  0  0
    1.8021   -0.2262   -1.2975 H   0  0  0  0  0  0  0  0  0  0  0  0
    1.7993    1.2218   -0.2797 H   0  0  0  0  0  0  0  0  0  0  0  0
    3.4086   -0.4584    0.6852 H   0  0  0  0  0  0  0  0  0  0  0  0
    0.9048    2.1658    1.2872 H   0  0  0  0  0  0  0  0  0  0  0  0
   -0.6261    2.2205    2.1759 H   0  0  0  0  0  0  0  0  0  0  0  0
   -0.6463    2.5938    0.4444 H   0  0  0  0  0  0  0  0  0  0  0  0
  1  2  1  0
  2  3  1  0
  3  4  1  0
  3  5  1  0
  5  6  1  0
  6  7  2  0
  3  8  1  0
  8  9  1  0
  1 10  1  0
  1 11  1  0
  1 12  1  0
  2 13  1  0
  2 14  1  0
  4 15  1  0
  4 16  1  0
  4 17  1  0
  5 18  1  0
  5 19  1  0
  6 20  1  0
  9 21  1  0
  9 22  1  0
  9 23  1  0
M  END
