
     RDKit          3D

 23 23  0  0  0  0  0  0  0  0999 V2000
    2.5566    0.5938   -0.0979 C   0  0  0  0  0  0  0  0  0  0  0  0
    1.4967    0.5899    0.9617 C   0  0  0  0  0  0  0  0  0  0  0  0
    0.4554   -0.4732    0.7742 C   0  0  0  0  0  0  0  0  0  0  0  0
   -0.4564   -0.3745    1.8042 O   0  0  0  0  0  0  0  0  0  0  0  0
   -0.1639   -0.4027   -0.5895 C   0  0  0  0  0  0  0  0  0  0  0  0
    0.7921   -0.5065   -1.6199 O   0  0  0  0  0  0  0  0  0  0  0  0
   -1.4068   -1.2119   -0.8533 C   0  0  0  0  0  0  0  0  0  0  0  0
   -1.3767    0.3242   -0.9026 C   0  0  0  0  0  0  0  0  0  0  0  0
   -2.2844    0.9668    0.0900 C   0  0  0  0  0  0  0  0  0  0  0  0
    3.4415    1.1449    0.3337 H   0  0  0  0  0  0  0  0  0  0  0  0
    2.2759    1.1898   -1.0002 H   0  0  0  0  0  0  0  0  0  0  0  0
    2.9355   -0.4141   -0.3515 H   0  0  0  0  0  0  0  0  0  0  0  0
    2.0187    0.3533    1.9351 H   0  0  0  0  0  0  0  0  0  0  0  0
    1.0721    1.6026    1.0215 H   0  0  0  0  0  0  0  0  0  0  0  0
    0.9741   -1.4653    0.8505 H   0  0  0  0  0  0  0  0  0  0  0  0
   -0.5415   -1.2121    2.2967 H   0  0  0  0  0  0  0  0  0  0  0  0
    0.9055   -1.4789   -1.7803 H   0  0  0  0  0  0  0  0  0  0  0  0
   -1.9358   -1.6969   -0.0205 H   0  0  0  0  0  0  0  0  0  0  0  0
   -1.5148   -1.7508   -1.8196 H   0  0  0  0  0  0  0  0  0  0  0  0
   -1.4875    0.7509   -1.9436 H   0  0  0  0  0  0  0  0  0  0  0  0
   -2.5167    0.3518    0.9731 H   0  0  0  0  0  0  0  0  0  0  0  0
   -3.2774    1.1191   -0.4297 H   0  0  0  0  0  0  0  0  0  0  0  0
   -1.9624    1.9998    0.3679 H   0  0  0  0  0  0  0  0  0  0  0  0
  1  2  1  0
  2  3  1  0
  3  4  1  0
  3  5  1  0
  5  6  1  0
  5  7  1  0
  7  8  1  0
  8  9  1  0
  8  5  1  0
  1 10  1  0
  1 11  1  0
  1 12  1  0
  2 13  1  0
  2 14  1  0
  3 15  1  0
  4 16  1  0
  6 17  1  0
  7 18  1  0
  7 19  1  0
  8 20  1  0
  9 21  1  0
  9 22  1  0
  9 23  1  0
M  END
