
     RDKit          3D

 22 21  0  0  0  0  0  0  0  0999 V2000
    2.9430   -0.7091   -0.5799 C   0  0  0  0  0  0  0  0  0  0  0  0
    2.3334    0.0289    0.5786 C   0  0  0  0  0  0  0  0  0  0  0  0
    0.8867   -0.2699    0.7384 C   0  0  0  0  0  0  0  0  0  0  0  0
    0.5830   -1.3353    1.2431 O   0  0  0  0  0  0  0  0  0  0  0  0
   -0.1353    0.6832    0.3041 C   0  0  0  0  0  0  0  0  0  0  0  0
   -1.5402    0.2063    0.5470 C   0  0  0  0  0  0  0  0  0  0  0  0
   -1.7991   -1.0747   -0.1925 C   0  0  0  0  0  0  0  0  0  0  0  0
   -2.4609    1.2799   -0.0440 C   0  0  0  0  0  0  0  0  0  0  0  0
    3.4117    0.0482   -1.2623 H   0  0  0  0  0  0  0  0  0  0  0  0
    2.1872   -1.3176   -1.1396 H   0  0  0  0  0  0  0  0  0  0  0  0
    3.7613   -1.3977   -0.2835 H   0  0  0  0  0  0  0  0  0  0  0  0
    2.4588    1.1252    0.4751 H   0  0  0  0  0  0  0  0  0  0  0  0
    2.8863   -0.2805    1.4904 H   0  0  0  0  0  0  0  0  0  0  0  0
   -0.0651    0.8931   -0.8028 H   0  0  0  0  0  0  0  0  0  0  0  0
    0.0359    1.6707    0.7850 H   0  0  0  0  0  0  0  0  0  0  0  0
   -1.8004    0.1314    1.6104 H   0  0  0  0  0  0  0  0  0  0  0  0
   -2.5053   -0.9432   -1.0389 H   0  0  0  0  0  0  0  0  0  0  0  0
   -0.8754   -1.5504   -0.5776 H   0  0  0  0  0  0  0  0  0  0  0  0
   -2.2661   -1.8445    0.4876 H   0  0  0  0  0  0  0  0  0  0  0  0
   -2.7616    0.9690   -1.0601 H   0  0  0  0  0  0  0  0  0  0  0  0
   -3.3495    1.4402    0.5748 H   0  0  0  0  0  0  0  0  0  0  0  0
   -1.9283    2.2468   -0.1490 H   0  0  0  0  0  0  0  0  0  0  0  0
  1  2  1  0
  2  3  1  0
  3  4  2  0
  3  5  1  0
  5  6  1  0
  6  7  1  0
  6  8  1  0
  1  9  1  0
  1 10  1  0
  1 11  1  0
  2 12  1  0
  2 13  1  0
  5 14  1  0
  5 15  1  0
  6 16  1  0
  7 17  1  0
  7 18  1  0
  7 19  1  0
  8 20  1  0
  8 21  1  0
  8 22  1  0
M  END
