
     RDKit          3D

 23 22  0  0  0  0  0  0  0  0999 V2000
   -1.7506    1.1486    1.1481 C   0  0  0  0  0  0  0  0  0  0  0  0
   -1.7051    0.1660    0.0155 C   0  0  0  0  0  0  0  0  0  0  0  0
   -0.3028    0.0094   -0.5355 C   0  0  0  0  0  0  0  0  0  0  0  0
   -0.2919   -0.9846   -1.6718 C   0  0  0  0  0  0  0  0  0  0  0  0
    0.2305    1.3102   -1.0648 C   0  0  0  0  0  0  0  0  0  0  0  0
    0.6201   -0.5552    0.5402 C   0  0  0  0  0  0  0  0  0  0  0  0
    1.9185   -0.6814   -0.0287 O   0  0  0  0  0  0  0  0  0  0  0  0
    2.9976   -1.1670    0.6854 C   0  0  0  0  0  0  0  0  0  0  0  0
    2.7780   -1.5022    1.8927 O   0  0  0  0  0  0  0  0  0  0  0  0
   -2.3709    2.0170    0.7923 H   0  0  0  0  0  0  0  0  0  0  0  0
   -0.7623    1.5591    1.4293 H   0  0  0  0  0  0  0  0  0  0  0  0
   -2.2162    0.7150    2.0742 H   0  0  0  0  0  0  0  0  0  0  0  0
   -2.0261   -0.8354    0.3680 H   0  0  0  0  0  0  0  0  0  0  0  0
   -2.3560    0.4639   -0.8444 H   0  0  0  0  0  0  0  0  0  0  0  0
   -0.9796   -0.7264   -2.4782 H   0  0  0  0  0  0  0  0  0  0  0  0
   -0.5696   -1.9958   -1.2601 H   0  0  0  0  0  0  0  0  0  0  0  0
    0.7737   -1.0720   -2.0026 H   0  0  0  0  0  0  0  0  0  0  0  0
   -0.2280    1.5134   -2.0713 H   0  0  0  0  0  0  0  0  0  0  0  0
    1.3218    1.1853   -1.2575 H   0  0  0  0  0  0  0  0  0  0  0  0
    0.0262    2.1404   -0.3588 H   0  0  0  0  0  0  0  0  0  0  0  0
    0.2396   -1.5306    0.8570 H   0  0  0  0  0  0  0  0  0  0  0  0
    0.6583    0.0969    1.4355 H   0  0  0  0  0  0  0  0  0  0  0  0
    3.9950   -1.2746    0.2815 H   0  0  0  0  0  0  0  0  0  0  0  0
  1  2  1  0
  2  3  1  0
  3  4  1  0
  3  5  1  0
  3  6  1  0
  6  7  1  0
  7  8  1  0
  8  9  2  0
  1 10  1  0
  1 11  1  0
  1 12  1  0
  2 13  1  0
  2 14  1  0
  4 15  1  0
  4 16  1  0
  4 17  1  0
  5 18  1  0
  5 19  1  0
  5 20  1  0
  6 21  1  0
  6 22  1  0
  8 23  1  0
M  END
