
     RDKit          3D

 21 21  0  0  0  0  0  0  0  0999 V2000
    2.6715   -0.5040    0.0432 C   0  0  0  0  0  0  0  0  0  0  0  0
    1.3350   -0.2994   -0.6285 C   0  0  0  0  0  0  0  0  0  0  0  0
    0.2920    0.1068    0.3619 C   0  0  0  0  0  0  0  0  0  0  0  0
    0.6653    1.3024    0.9782 O   0  0  0  0  0  0  0  0  0  0  0  0
   -1.0387    0.3051   -0.2774 C   0  0  0  0  0  0  0  0  0  0  0  0
   -0.9854    1.3179   -1.2301 O   0  0  0  0  0  0  0  0  0  0  0  0
   -2.1762    0.4660    0.7101 C   0  0  0  0  0  0  0  0  0  0  0  0
   -2.7028   -0.7765    0.3359 O   0  0  0  0  0  0  0  0  0  0  0  0
   -1.7905   -0.9056   -0.7163 C   0  0  0  0  0  0  0  0  0  0  0  0
    3.2443    0.4114    0.1694 H   0  0  0  0  0  0  0  0  0  0  0  0
    2.4453   -0.9353    1.0579 H   0  0  0  0  0  0  0  0  0  0  0  0
    3.2309   -1.3203   -0.4868 H   0  0  0  0  0  0  0  0  0  0  0  0
    1.4009    0.3589   -1.5122 H   0  0  0  0  0  0  0  0  0  0  0  0
    1.0375   -1.3084   -1.0217 H   0  0  0  0  0  0  0  0  0  0  0  0
    0.2013   -0.7089    1.1094 H   0  0  0  0  0  0  0  0  0  0  0  0
    1.5851    1.2296    1.3291 H   0  0  0  0  0  0  0  0  0  0  0  0
   -1.0866    2.1832   -0.7330 H   0  0  0  0  0  0  0  0  0  0  0  0
   -2.9009    1.2584    0.4422 H   0  0  0  0  0  0  0  0  0  0  0  0
   -1.8539    0.5087    1.7652 H   0  0  0  0  0  0  0  0  0  0  0  0
   -2.2927   -0.8139   -1.6916 H   0  0  0  0  0  0  0  0  0  0  0  0
   -1.2813   -1.8761   -0.6471 H   0  0  0  0  0  0  0  0  0  0  0  0
  1  2  1  0
  2  3  1  0
  3  4  1  0
  3  5  1  0
  5  6  1  0
  5  7  1  0
  7  8  1  0
  8  9  1  0
  9  5  1  0
  1 10  1  0
  1 11  1  0
  1 12  1  0
  2 13  1  0
  2 14  1  0
  3 15  1  0
  4 16  1  0
  6 17  1  0
  7 18  1  0
  7 19  1  0
  9 20  1  0
  9 21  1  0
M  END
