
     RDKit          3D

 21 20  0  0  0  0  0  0  0  0999 V2000
    3.2449    0.1829   -0.1476 C   0  0  0  0  0  0  0  0  0  0  0  0
    1.8562    0.6917    0.0282 C   0  0  0  0  0  0  0  0  0  0  0  0
    0.8393   -0.3688   -0.3679 C   0  0  0  0  0  0  0  0  0  0  0  0
    0.9773   -1.4944    0.3988 O   0  0  0  0  0  0  0  0  0  0  0  0
   -0.5146    0.1953   -0.4027 C   0  0  0  0  0  0  0  0  0  0  0  0
   -0.6815    1.1967   -1.0729 O   0  0  0  0  0  0  0  0  0  0  0  0
   -1.6888   -0.3505    0.3066 C   0  0  0  0  0  0  0  0  0  0  0  0
   -2.9014    0.5058    0.0246 C   0  0  0  0  0  0  0  0  0  0  0  0
   -4.0331    0.0453    0.6615 O   0  0  0  0  0  0  0  0  0  0  0  0
    3.2909   -0.8270   -0.6257 H   0  0  0  0  0  0  0  0  0  0  0  0
    3.7644    0.1190    0.8199 H   0  0  0  0  0  0  0  0  0  0  0  0
    3.8058    0.9214   -0.7627 H   0  0  0  0  0  0  0  0  0  0  0  0
    1.6461    1.6417   -0.4931 H   0  0  0  0  0  0  0  0  0  0  0  0
    1.6647    0.8955    1.1173 H   0  0  0  0  0  0  0  0  0  0  0  0
    1.1057   -0.6462   -1.4285 H   0  0  0  0  0  0  0  0  0  0  0  0
    0.7121   -2.3353   -0.0269 H   0  0  0  0  0  0  0  0  0  0  0  0
   -1.9022   -1.4063    0.0550 H   0  0  0  0  0  0  0  0  0  0  0  0
   -1.5311   -0.2654    1.4223 H   0  0  0  0  0  0  0  0  0  0  0  0
   -3.0445    0.4740   -1.0915 H   0  0  0  0  0  0  0  0  0  0  0  0
   -2.7280    1.5440    0.3333 H   0  0  0  0  0  0  0  0  0  0  0  0
   -3.8820   -0.7192    1.2521 H   0  0  0  0  0  0  0  0  0  0  0  0
  1  2  1  0
  2  3  1  0
  3  4  1  0
  3  5  1  0
  5  6  2  0
  5  7  1  0
  7  8  1  0
  8  9  1  0
  1 10  1  0
  1 11  1  0
  1 12  1  0
  2 13  1  0
  2 14  1  0
  3 15  1  0
  4 16  1  0
  7 17  1  0
  7 18  1  0
  8 19  1  0
  8 20  1  0
  9 21  1  0
M  END
