
     RDKit          3D

 21 21  0  0  0  0  0  0  0  0999 V2000
    2.9295    0.1209   -0.0563 C   0  0  0  0  0  0  0  0  0  0  0  0
    1.5495    0.7531    0.0537 C   0  0  0  0  0  0  0  0  0  0  0  0
    0.5326   -0.3222   -0.2043 C   0  0  0  0  0  0  0  0  0  0  0  0
    0.6125   -1.3675    0.6954 O   0  0  0  0  0  0  0  0  0  0  0  0
   -0.8784    0.1985   -0.1860 C   0  0  0  0  0  0  0  0  0  0  0  0
   -1.8233   -0.9797   -0.3386 C   0  0  0  0  0  0  0  0  0  0  0  0
   -2.9875   -0.4664    0.2286 O   0  0  0  0  0  0  0  0  0  0  0  0
   -2.6523    0.6539    0.9457 C   0  0  0  0  0  0  0  0  0  0  0  0
   -1.2525    0.6596    1.0805 O   0  0  0  0  0  0  0  0  0  0  0  0
    2.8669   -0.9651   -0.2997 H   0  0  0  0  0  0  0  0  0  0  0  0
    3.4826    0.5865   -0.9044 H   0  0  0  0  0  0  0  0  0  0  0  0
    3.4941    0.1869    0.8969 H   0  0  0  0  0  0  0  0  0  0  0  0
    1.4152    1.5409   -0.7102 H   0  0  0  0  0  0  0  0  0  0  0  0
    1.4491    1.2057    1.0622 H   0  0  0  0  0  0  0  0  0  0  0  0
    0.7184   -0.7260   -1.2196 H   0  0  0  0  0  0  0  0  0  0  0  0
    1.1930   -1.1112    1.4636 H   0  0  0  0  0  0  0  0  0  0  0  0
   -1.1095    0.9035   -0.9908 H   0  0  0  0  0  0  0  0  0  0  0  0
   -1.4919   -1.8507    0.2648 H   0  0  0  0  0  0  0  0  0  0  0  0
   -1.9718   -1.2568   -1.4078 H   0  0  0  0  0  0  0  0  0  0  0  0
   -2.9281    1.5996    0.3998 H   0  0  0  0  0  0  0  0  0  0  0  0
   -3.1479    0.6366    1.9389 H   0  0  0  0  0  0  0  0  0  0  0  0
  1  2  1  0
  2  3  1  0
  3  4  1  0
  3  5  1  0
  5  6  1  0
  6  7  1  0
  7  8  1  0
  8  9  1  0
  9  5  1  0
  1 10  1  0
  1 11  1  0
  1 12  1  0
  2 13  1  0
  2 14  1  0
  3 15  1  0
  4 16  1  0
  5 17  1  0
  6 18  1  0
  6 19  1  0
  8 20  1  0
  8 21  1  0
M  END
