
     RDKit          3D

 22 21  0  0  0  0  0  0  0  0999 V2000
    2.5831   -0.3041    0.2808 C   0  0  0  0  0  0  0  0  0  0  0  0
    1.2220   -0.8852    0.0865 C   0  0  0  0  0  0  0  0  0  0  0  0
    0.1119    0.1151    0.0027 C   0  0  0  0  0  0  0  0  0  0  0  0
    0.2340    1.0944   -1.1165 C   0  0  0  0  0  0  0  0  0  0  0  0
    0.1077    0.8375    1.1997 O   0  0  0  0  0  0  0  0  0  0  0  0
   -1.1912   -0.6828   -0.1015 C   0  0  0  0  0  0  0  0  0  0  0  0
   -2.3954    0.2042   -0.0738 C   0  0  0  0  0  0  0  0  0  0  0  0
   -1.2218   -1.5372    1.0043 O   0  0  0  0  0  0  0  0  0  0  0  0
    2.7966    0.6183   -0.2533 H   0  0  0  0  0  0  0  0  0  0  0  0
    2.8339   -0.1507    1.3609 H   0  0  0  0  0  0  0  0  0  0  0  0
    3.3204   -1.0682   -0.1034 H   0  0  0  0  0  0  0  0  0  0  0  0
    1.2086   -1.6164   -0.7491 H   0  0  0  0  0  0  0  0  0  0  0  0
    1.0062   -1.5087    1.0054 H   0  0  0  0  0  0  0  0  0  0  0  0
    1.2574    1.3955   -1.3323 H   0  0  0  0  0  0  0  0  0  0  0  0
   -0.3165    2.0256   -0.8003 H   0  0  0  0  0  0  0  0  0  0  0  0
   -0.3032    0.7462   -2.0380 H   0  0  0  0  0  0  0  0  0  0  0  0
   -0.3515    1.6877    1.0135 H   0  0  0  0  0  0  0  0  0  0  0  0
   -1.2157   -1.2784   -1.0316 H   0  0  0  0  0  0  0  0  0  0  0  0
   -2.9895    0.1173   -1.0269 H   0  0  0  0  0  0  0  0  0  0  0  0
   -3.0889   -0.1108    0.7335 H   0  0  0  0  0  0  0  0  0  0  0  0
   -2.1512    1.2699    0.1348 H   0  0  0  0  0  0  0  0  0  0  0  0
   -1.4568   -0.9693    1.8046 H   0  0  0  0  0  0  0  0  0  0  0  0
  1  2  1  0
  2  3  1  0
  3  4  1  0
  3  5  1  0
  3  6  1  0
  6  7  1  0
  6  8  1  0
  1  9  1  0
  1 10  1  0
  1 11  1  0
  2 12  1  0
  2 13  1  0
  4 14  1  0
  4 15  1  0
  4 16  1  0
  5 17  1  0
  6 18  1  0
  7 19  1  0
  7 20  1  0
  7 21  1  0
  8 22  1  0
M  END
