
     RDKit          3D

 21 21  0  0  0  0  0  0  0  0999 V2000
    2.9598    0.0226   -0.1769 C   0  0  0  0  0  0  0  0  0  0  0  0
    2.2283    1.2354    0.4119 C   0  0  0  0  0  0  0  0  0  0  0  0
    0.7784    1.1323    0.1025 C   0  0  0  0  0  0  0  0  0  0  0  0
    0.0616    2.0805   -0.2690 O   0  0  0  0  0  0  0  0  0  0  0  0
    0.1696   -0.0867    0.2303 O   0  0  0  0  0  0  0  0  0  0  0  0
   -1.1393   -0.4458    0.0001 C   0  0  0  0  0  0  0  0  0  0  0  0
   -1.3770   -1.9449    0.2761 C   0  0  0  0  0  0  0  0  0  0  0  0
   -2.0025    0.1313   -1.0388 C   0  0  0  0  0  0  0  0  0  0  0  0
   -2.2160    0.4716    0.4155 C   0  0  0  0  0  0  0  0  0  0  0  0
    3.3449    0.3292   -1.1619 H   0  0  0  0  0  0  0  0  0  0  0  0
    2.2094   -0.7801   -0.3266 H   0  0  0  0  0  0  0  0  0  0  0  0
    3.7426   -0.3259    0.5281 H   0  0  0  0  0  0  0  0  0  0  0  0
    2.3296    1.1167    1.5257 H   0  0  0  0  0  0  0  0  0  0  0  0
    2.7029    2.1489    0.0556 H   0  0  0  0  0  0  0  0  0  0  0  0
   -1.9164   -2.0971    1.2153 H   0  0  0  0  0  0  0  0  0  0  0  0
   -0.4067   -2.4933    0.3585 H   0  0  0  0  0  0  0  0  0  0  0  0
   -1.8939   -2.4019   -0.5895 H   0  0  0  0  0  0  0  0  0  0  0  0
   -1.6444    0.8743   -1.7435 H   0  0  0  0  0  0  0  0  0  0  0  0
   -2.8261   -0.5024   -1.4510 H   0  0  0  0  0  0  0  0  0  0  0  0
   -3.0696    0.0197    0.9711 H   0  0  0  0  0  0  0  0  0  0  0  0
   -2.0352    1.5155    0.6665 H   0  0  0  0  0  0  0  0  0  0  0  0
  1  2  1  0
  2  3  1  0
  3  4  2  0
  3  5  1  0
  5  6  1  0
  6  7  1  0
  6  8  1  0
  8  9  1  0
  9  6  1  0
  1 10  1  0
  1 11  1  0
  1 12  1  0
  2 13  1  0
  2 14  1  0
  7 15  1  0
  7 16  1  0
  7 17  1  0
  8 18  1  0
  8 19  1  0
  9 20  1  0
  9 21  1  0
M  END
