
     RDKit          3D

 26 25  0  0  0  0  0  0  0  0999 V2000
    2.3537    1.0148    0.3938 C   0  0  0  0  0  0  0  0  0  0  0  0
    1.5055    0.0403    1.1482 C   0  0  0  0  0  0  0  0  0  0  0  0
    0.6203   -0.8000    0.2911 C   0  0  0  0  0  0  0  0  0  0  0  0
    1.3870   -1.6442   -0.7012 C   0  0  0  0  0  0  0  0  0  0  0  0
   -0.4880   -0.0238   -0.3466 C   0  0  0  0  0  0  0  0  0  0  0  0
   -1.3773   -0.8855   -1.2151 C   0  0  0  0  0  0  0  0  0  0  0  0
   -1.3772    0.6268    0.6808 C   0  0  0  0  0  0  0  0  0  0  0  0
   -2.5038    1.4094    0.0456 C   0  0  0  0  0  0  0  0  0  0  0  0
    2.0113    2.0385    0.6738 H   0  0  0  0  0  0  0  0  0  0  0  0
    3.4344    0.9770    0.6876 H   0  0  0  0  0  0  0  0  0  0  0  0
    2.2477    0.9402   -0.7034 H   0  0  0  0  0  0  0  0  0  0  0  0
    2.2214   -0.6378    1.7063 H   0  0  0  0  0  0  0  0  0  0  0  0
    0.8880    0.5146    1.9345 H   0  0  0  0  0  0  0  0  0  0  0  0
    0.1240   -1.5416    0.9878 H   0  0  0  0  0  0  0  0  0  0  0  0
    2.3898   -1.8472   -0.2311 H   0  0  0  0  0  0  0  0  0  0  0  0
    1.5883   -1.1386   -1.6492 H   0  0  0  0  0  0  0  0  0  0  0  0
    0.9091   -2.6429   -0.8216 H   0  0  0  0  0  0  0  0  0  0  0  0
   -0.0927    0.7885   -0.9920 H   0  0  0  0  0  0  0  0  0  0  0  0
   -1.7623   -0.3438   -2.1040 H   0  0  0  0  0  0  0  0  0  0  0  0
   -0.8912   -1.8022   -1.5688 H   0  0  0  0  0  0  0  0  0  0  0  0
   -2.2768   -1.2134   -0.6191 H   0  0  0  0  0  0  0  0  0  0  0  0
   -1.8455   -0.1040    1.3712 H   0  0  0  0  0  0  0  0  0  0  0  0
   -0.7819    1.3979    1.2506 H   0  0  0  0  0  0  0  0  0  0  0  0
   -2.0707    2.3561   -0.3315 H   0  0  0  0  0  0  0  0  0  0  0  0
   -3.1982    1.6800    0.8678 H   0  0  0  0  0  0  0  0  0  0  0  0
   -3.0151    0.8408   -0.7556 H   0  0  0  0  0  0  0  0  0  0  0  0
  1  2  1  0
  2  3  1  0
  3  4  1  0
  3  5  1  0
  5  6  1  0
  5  7  1  0
  7  8  1  0
  1  9  1  0
  1 10  1  0
  1 11  1  0
  2 12  1  0
  2 13  1  0
  3 14  1  0
  4 15  1  0
  4 16  1  0
  4 17  1  0
  5 18  1  0
  6 19  1  0
  6 20  1  0
  6 21  1  0
  7 22  1  0
  7 23  1  0
  8 24  1  0
  8 25  1  0
  8 26  1  0
M  END
