
     RDKit          3D

 21 20  0  0  0  0  0  0  0  0999 V2000
    2.2040   -0.9302   -0.0799 C   0  0  0  0  0  0  0  0  0  0  0  0
    1.4411    0.3313    0.1799 C   0  0  0  0  0  0  0  0  0  0  0  0
   -0.0097    0.2753   -0.1993 C   0  0  0  0  0  0  0  0  0  0  0  0
   -0.1360    0.0096   -1.5602 O   0  0  0  0  0  0  0  0  0  0  0  0
   -0.5208    1.6997    0.0102 C   0  0  0  0  0  0  0  0  0  0  0  0
   -1.8478    1.8299   -0.3780 O   0  0  0  0  0  0  0  0  0  0  0  0
   -0.8118   -0.6526    0.6017 C   0  0  0  0  0  0  0  0  0  0  0  0
   -1.6561   -1.7380    0.0960 C   0  0  0  0  0  0  0  0  0  0  0  0
   -0.7920   -0.5298    1.8192 O   0  0  0  0  0  0  0  0  0  0  0  0
    2.0635   -1.3135   -1.1210 H   0  0  0  0  0  0  0  0  0  0  0  0
    3.2937   -0.6410   -0.0549 H   0  0  0  0  0  0  0  0  0  0  0  0
    2.0833   -1.7004    0.6880 H   0  0  0  0  0  0  0  0  0  0  0  0
    1.5419    0.5981    1.2283 H   0  0  0  0  0  0  0  0  0  0  0  0
    1.9071    1.1324   -0.4458 H   0  0  0  0  0  0  0  0  0  0  0  0
   -0.6477    0.7096   -2.0443 H   0  0  0  0  0  0  0  0  0  0  0  0
   -0.5084    1.8704    1.1221 H   0  0  0  0  0  0  0  0  0  0  0  0
    0.1278    2.4455   -0.4543 H   0  0  0  0  0  0  0  0  0  0  0  0
   -1.9597    2.7512   -0.7269 H   0  0  0  0  0  0  0  0  0  0  0  0
   -1.4518   -2.0437   -0.9400 H   0  0  0  0  0  0  0  0  0  0  0  0
   -2.7560   -1.4802    0.1209 H   0  0  0  0  0  0  0  0  0  0  0  0
   -1.5645   -2.6237    0.7633 H   0  0  0  0  0  0  0  0  0  0  0  0
  1  2  1  0
  2  3  1  0
  3  4  1  0
  3  5  1  0
  5  6  1  0
  3  7  1  0
  7  8  1  0
  7  9  2  0
  1 10  1  0
  1 11  1  0
  1 12  1  0
  2 13  1  0
  2 14  1  0
  4 15  1  0
  5 16  1  0
  5 17  1  0
  6 18  1  0
  8 19  1  0
  8 20  1  0
  8 21  1  0
M  END
