
     RDKit          3D

 21 20  0  0  0  0  0  0  0  0999 V2000
   -2.3769   -0.7068    0.1711 C   0  0  0  0  0  0  0  0  0  0  0  0
   -0.9625   -0.4491    0.6338 C   0  0  0  0  0  0  0  0  0  0  0  0
   -0.1041    0.1582   -0.4459 C   0  0  0  0  0  0  0  0  0  0  0  0
   -0.0381   -0.6809   -1.5269 O   0  0  0  0  0  0  0  0  0  0  0  0
   -0.6849    1.4915   -0.7728 C   0  0  0  0  0  0  0  0  0  0  0  0
   -0.7722    2.2892    0.1494 O   0  0  0  0  0  0  0  0  0  0  0  0
    1.2672    0.4084    0.1735 C   0  0  0  0  0  0  0  0  0  0  0  0
    1.8984   -0.8625    0.6758 C   0  0  0  0  0  0  0  0  0  0  0  0
    2.1404    0.9912   -0.7453 O   0  0  0  0  0  0  0  0  0  0  0  0
   -2.4446   -1.5375   -0.5407 H   0  0  0  0  0  0  0  0  0  0  0  0
   -2.9845   -0.8706    1.0915 H   0  0  0  0  0  0  0  0  0  0  0  0
   -2.7966    0.2307   -0.2960 H   0  0  0  0  0  0  0  0  0  0  0  0
   -0.5363   -1.4517    0.8994 H   0  0  0  0  0  0  0  0  0  0  0  0
   -1.0140    0.1678    1.5375 H   0  0  0  0  0  0  0  0  0  0  0  0
    0.5101   -0.3579   -2.2588 H   0  0  0  0  0  0  0  0  0  0  0  0
   -1.0179    1.7596   -1.7678 H   0  0  0  0  0  0  0  0  0  0  0  0
    1.1926    1.1015    1.0357 H   0  0  0  0  0  0  0  0  0  0  0  0
    3.0182   -0.7984    0.5523 H   0  0  0  0  0  0  0  0  0  0  0  0
    1.7459   -1.0147    1.7675 H   0  0  0  0  0  0  0  0  0  0  0  0
    1.5569   -1.7653    0.1482 H   0  0  0  0  0  0  0  0  0  0  0  0
    2.4027    1.8973   -0.4817 H   0  0  0  0  0  0  0  0  0  0  0  0
  1  2  1  0
  2  3  1  0
  3  4  1  0
  3  5  1  0
  5  6  2  0
  3  7  1  0
  7  8  1  0
  7  9  1  0
  1 10  1  0
  1 11  1  0
  1 12  1  0
  2 13  1  0
  2 14  1  0
  4 15  1  0
  5 16  1  0
  7 17  1  0
  8 18  1  0
  8 19  1  0
  8 20  1  0
  9 21  1  0
M  END
