
     RDKit          3D

 21 20  0  0  0  0  0  0  0  0999 V2000
   -1.6327    1.3302    0.3459 C   0  0  0  0  0  0  0  0  0  0  0  0
   -0.7945    0.2712    1.0020 C   0  0  0  0  0  0  0  0  0  0  0  0
   -0.1216   -0.6432    0.0263 C   0  0  0  0  0  0  0  0  0  0  0  0
   -1.2277   -1.3194   -0.7850 C   0  0  0  0  0  0  0  0  0  0  0  0
    0.7618    0.1320   -0.9465 C   0  0  0  0  0  0  0  0  0  0  0  0
    1.7536    0.8365   -0.3283 O   0  0  0  0  0  0  0  0  0  0  0  0
    2.6333    0.0823    0.4033 C   0  0  0  0  0  0  0  0  0  0  0  0
   -1.9096    1.0774   -0.6949 H   0  0  0  0  0  0  0  0  0  0  0  0
   -1.1723    2.3393    0.3993 H   0  0  0  0  0  0  0  0  0  0  0  0
   -2.6063    1.4263    0.9041 H   0  0  0  0  0  0  0  0  0  0  0  0
   -1.4437   -0.3556    1.6495 H   0  0  0  0  0  0  0  0  0  0  0  0
    0.0124    0.7311    1.6338 H   0  0  0  0  0  0  0  0  0  0  0  0
    0.4009   -1.4355    0.5552 H   0  0  0  0  0  0  0  0  0  0  0  0
   -1.4226   -0.7174   -1.6739 H   0  0  0  0  0  0  0  0  0  0  0  0
   -0.8762   -2.3475   -1.0644 H   0  0  0  0  0  0  0  0  0  0  0  0
   -2.1410   -1.4125   -0.1705 H   0  0  0  0  0  0  0  0  0  0  0  0
    1.1120   -0.4953   -1.7669 H   0  0  0  0  0  0  0  0  0  0  0  0
    0.0670    0.8896   -1.4163 H   0  0  0  0  0  0  0  0  0  0  0  0
    2.0598   -0.4443    1.1936 H   0  0  0  0  0  0  0  0  0  0  0  0
    3.3643    0.7258    0.9299 H   0  0  0  0  0  0  0  0  0  0  0  0
    3.1830   -0.6709   -0.1963 H   0  0  0  0  0  0  0  0  0  0  0  0
  1  2  1  0
  2  3  1  0
  3  4  1  0
  3  5  1  0
  5  6  1  0
  6  7  1  0
  1  8  1  0
  1  9  1  0
  1 10  1  0
  2 11  1  0
  2 12  1  0
  3 13  1  0
  4 14  1  0
  4 15  1  0
  4 16  1  0
  5 17  1  0
  5 18  1  0
  7 19  1  0
  7 20  1  0
  7 21  1  0
M  END
