
     RDKit          3D

 21 20  0  0  0  0  0  0  0  0999 V2000
   -1.8771    1.0431   -0.3010 C   0  0  0  0  0  0  0  0  0  0  0  0
   -0.8573    0.1718   -0.9598 C   0  0  0  0  0  0  0  0  0  0  0  0
    0.0425   -0.5393    0.0254 C   0  0  0  0  0  0  0  0  0  0  0  0
   -0.8619   -1.3927    0.8893 C   0  0  0  0  0  0  0  0  0  0  0  0
    0.8831   -1.3496   -0.7170 O   0  0  0  0  0  0  0  0  0  0  0  0
    0.8219    0.3811    0.8851 C   0  0  0  0  0  0  0  0  0  0  0  0
    1.6762    1.2749    0.2716 O   0  0  0  0  0  0  0  0  0  0  0  0
    2.7736    1.0531   -0.5047 C   0  0  0  0  0  0  0  0  0  0  0  0
    3.1231   -0.1281   -0.7361 O   0  0  0  0  0  0  0  0  0  0  0  0
   -1.9711    1.9738   -0.9277 H   0  0  0  0  0  0  0  0  0  0  0  0
   -1.6162    1.3547    0.7247 H   0  0  0  0  0  0  0  0  0  0  0  0
   -2.9031    0.5958   -0.2867 H   0  0  0  0  0  0  0  0  0  0  0  0
   -0.2547    0.6955   -1.7353 H   0  0  0  0  0  0  0  0  0  0  0  0
   -1.4066   -0.6338   -1.5149 H   0  0  0  0  0  0  0  0  0  0  0  0
   -1.5624   -0.6906    1.3946 H   0  0  0  0  0  0  0  0  0  0  0  0
   -1.4852   -2.0493    0.2585 H   0  0  0  0  0  0  0  0  0  0  0  0
   -0.2373   -1.9589    1.6076 H   0  0  0  0  0  0  0  0  0  0  0  0
    0.6891   -2.3130   -0.5948 H   0  0  0  0  0  0  0  0  0  0  0  0
    1.4423   -0.2846    1.5659 H   0  0  0  0  0  0  0  0  0  0  0  0
    0.1946    0.9565    1.6067 H   0  0  0  0  0  0  0  0  0  0  0  0
    3.3863    1.8397   -0.9512 H   0  0  0  0  0  0  0  0  0  0  0  0
  1  2  1  0
  2  3  1  0
  3  4  1  0
  3  5  1  0
  3  6  1  0
  6  7  1  0
  7  8  1  0
  8  9  2  0
  1 10  1  0
  1 11  1  0
  1 12  1  0
  2 13  1  0
  2 14  1  0
  4 15  1  0
  4 16  1  0
  4 17  1  0
  5 18  1  0
  6 19  1  0
  6 20  1  0
  8 21  1  0
M  END
