
     RDKit          3D

 17 17  0  0  0  0  0  0  0  0999 V2000
    2.2221    0.3293   -0.6271 C   0  0  0  0  0  0  0  0  0  0  0  0
    1.2714   -0.4038    0.2162 C   0  0  0  0  0  0  0  0  0  0  0  0
    0.1595    0.3435    0.8127 C   0  0  0  0  0  0  0  0  0  0  0  0
    0.2779    1.0931    1.7874 O   0  0  0  0  0  0  0  0  0  0  0  0
   -1.2138    0.1735    0.2238 C   0  0  0  0  0  0  0  0  0  0  0  0
   -1.3752    0.6642   -1.1203 C   0  0  0  0  0  0  0  0  0  0  0  0
   -2.3323    0.3766   -1.8411 O   0  0  0  0  0  0  0  0  0  0  0  0
   -2.0081   -0.8705    0.8244 C   0  0  0  0  0  0  0  0  0  0  0  0
   -2.3264    0.4686    1.1341 O   0  0  0  0  0  0  0  0  0  0  0  0
    2.8006    1.0835   -0.0559 H   0  0  0  0  0  0  0  0  0  0  0  0
    1.7384    0.8208   -1.4657 H   0  0  0  0  0  0  0  0  0  0  0  0
    2.9462   -0.3952   -1.1005 H   0  0  0  0  0  0  0  0  0  0  0  0
    1.8614   -0.8169    1.1001 H   0  0  0  0  0  0  0  0  0  0  0  0
    0.9085   -1.3512   -0.2910 H   0  0  0  0  0  0  0  0  0  0  0  0
   -0.6211    1.3406   -1.5626 H   0  0  0  0  0  0  0  0  0  0  0  0
   -2.7511   -1.4538    0.2518 H   0  0  0  0  0  0  0  0  0  0  0  0
   -1.5577   -1.4024    1.7136 H   0  0  0  0  0  0  0  0  0  0  0  0
  1  2  1  0
  2  3  1  0
  3  4  2  0
  3  5  1  0
  5  6  1  0
  6  7  2  0
  5  8  1  0
  8  9  1  0
  9  5  1  0
  1 10  1  0
  1 11  1  0
  1 12  1  0
  2 13  1  0
  2 14  1  0
  6 15  1  0
  8 16  1  0
  8 17  1  0
M  END
