
     RDKit          3D

 23 22  0  0  0  0  0  0  0  0999 V2000
    2.5693   -0.1503    0.6636 C   0  0  0  0  0  0  0  0  0  0  0  0
    1.3518    0.5773    0.1466 C   0  0  0  0  0  0  0  0  0  0  0  0
    0.1506   -0.3421    0.0726 C   0  0  0  0  0  0  0  0  0  0  0  0
    0.4830   -1.4617   -0.8498 C   0  0  0  0  0  0  0  0  0  0  0  0
   -1.0826    0.4252   -0.2793 C   0  0  0  0  0  0  0  0  0  0  0  0
   -1.3571    1.4853    0.7650 C   0  0  0  0  0  0  0  0  0  0  0  0
   -2.2840   -0.4305   -0.5509 C   0  0  0  0  0  0  0  0  0  0  0  0
    2.3026   -0.7579    1.5396 H   0  0  0  0  0  0  0  0  0  0  0  0
    3.3210    0.6112    0.9680 H   0  0  0  0  0  0  0  0  0  0  0  0
    2.9822   -0.7431   -0.1799 H   0  0  0  0  0  0  0  0  0  0  0  0
    1.0784    1.4019    0.8546 H   0  0  0  0  0  0  0  0  0  0  0  0
    1.5055    1.0137   -0.8425 H   0  0  0  0  0  0  0  0  0  0  0  0
    0.0068   -0.7770    1.0925 H   0  0  0  0  0  0  0  0  0  0  0  0
    0.8114   -1.0400   -1.8241 H   0  0  0  0  0  0  0  0  0  0  0  0
    1.3640   -1.9943   -0.4329 H   0  0  0  0  0  0  0  0  0  0  0  0
   -0.3102   -2.2215   -0.9481 H   0  0  0  0  0  0  0  0  0  0  0  0
   -0.8689    0.9739   -1.2223 H   0  0  0  0  0  0  0  0  0  0  0  0
   -2.4014    1.8442    0.6515 H   0  0  0  0  0  0  0  0  0  0  0  0
   -1.1421    1.1362    1.7959 H   0  0  0  0  0  0  0  0  0  0  0  0
   -0.6965    2.3442    0.5370 H   0  0  0  0  0  0  0  0  0  0  0  0
   -3.1668    0.2319   -0.5968 H   0  0  0  0  0  0  0  0  0  0  0  0
   -2.4753   -1.2067    0.1851 H   0  0  0  0  0  0  0  0  0  0  0  0
   -2.1419   -0.9197   -1.5456 H   0  0  0  0  0  0  0  0  0  0  0  0
  1  2  1  0
  2  3  1  0
  3  4  1  0
  3  5  1  0
  5  6  1  0
  5  7  1  0
  1  8  1  0
  1  9  1  0
  1 10  1  0
  2 11  1  0
  2 12  1  0
  3 13  1  0
  4 14  1  0
  4 15  1  0
  4 16  1  0
  5 17  1  0
  6 18  1  0
  6 19  1  0
  6 20  1  0
  7 21  1  0
  7 22  1  0
  7 23  1  0
M  END
