
     RDKit          3D

 25 24  0  0  0  0  0  0  0  0999 V2000
   -2.2416   -1.4706    0.6261 C   0  0  0  0  0  0  0  0  0  0  0  0
   -0.8574   -0.9836    0.9858 C   0  0  0  0  0  0  0  0  0  0  0  0
   -0.4184    0.1595    0.0674 C   0  0  0  0  0  0  0  0  0  0  0  0
   -0.3903   -0.2821   -1.3778 C   0  0  0  0  0  0  0  0  0  0  0  0
    1.0297    0.4566    0.4541 C   0  0  0  0  0  0  0  0  0  0  0  0
    1.7544   -0.6925    0.1588 O   0  0  0  0  0  0  0  0  0  0  0  0
    3.1025   -0.5629    0.4633 C   0  0  0  0  0  0  0  0  0  0  0  0
   -1.2581    1.2143    0.3054 O   0  0  0  0  0  0  0  0  0  0  0  0
   -0.9995    2.3380   -0.4466 C   0  0  0  0  0  0  0  0  0  0  0  0
   -2.9092   -1.2587    1.4994 H   0  0  0  0  0  0  0  0  0  0  0  0
   -2.6759   -0.9339   -0.2285 H   0  0  0  0  0  0  0  0  0  0  0  0
   -2.1914   -2.5629    0.4487 H   0  0  0  0  0  0  0  0  0  0  0  0
   -0.8250   -0.5526    2.0190 H   0  0  0  0  0  0  0  0  0  0  0  0
   -0.1307   -1.8129    0.9847 H   0  0  0  0  0  0  0  0  0  0  0  0
   -0.0245   -1.3371   -1.3995 H   0  0  0  0  0  0  0  0  0  0  0  0
   -1.3581   -0.2087   -1.8803 H   0  0  0  0  0  0  0  0  0  0  0  0
    0.3764    0.2977   -1.9558 H   0  0  0  0  0  0  0  0  0  0  0  0
    1.4556    1.2716   -0.1363 H   0  0  0  0  0  0  0  0  0  0  0  0
    1.0721    0.6034    1.5413 H   0  0  0  0  0  0  0  0  0  0  0  0
    3.2900   -0.3529    1.5356 H   0  0  0  0  0  0  0  0  0  0  0  0
    3.5613   -1.5673    0.2672 H   0  0  0  0  0  0  0  0  0  0  0  0
    3.5796    0.1528   -0.2144 H   0  0  0  0  0  0  0  0  0  0  0  0
   -1.7596    3.1086   -0.1450 H   0  0  0  0  0  0  0  0  0  0  0  0
   -0.0121    2.7981   -0.2453 H   0  0  0  0  0  0  0  0  0  0  0  0
   -1.1698    2.1780   -1.5418 H   0  0  0  0  0  0  0  0  0  0  0  0
  1  2  1  0
  2  3  1  0
  3  4  1  0
  3  5  1  0
  5  6  1  0
  6  7  1  0
  3  8  1  0
  8  9  1  0
  1 10  1  0
  1 11  1  0
  1 12  1  0
  2 13  1  0
  2 14  1  0
  4 15  1  0
  4 16  1  0
  4 17  1  0
  5 18  1  0
  5 19  1  0
  7 20  1  0
  7 21  1  0
  7 22  1  0
  9 23  1  0
  9 24  1  0
  9 25  1  0
M  END
