
     RDKit          3D

 23 22  0  0  0  0  0  0  0  0999 V2000
   -2.4460    1.0641    0.2441 C   0  0  0  0  0  0  0  0  0  0  0  0
   -0.9360    1.0080    0.3544 C   0  0  0  0  0  0  0  0  0  0  0  0
   -0.3672   -0.2632   -0.1692 C   0  0  0  0  0  0  0  0  0  0  0  0
   -0.9163   -1.4807    0.5771 C   0  0  0  0  0  0  0  0  0  0  0  0
    1.1184   -0.3876   -0.1073 C   0  0  0  0  0  0  0  0  0  0  0  0
    1.4845   -1.7151   -0.6736 C   0  0  0  0  0  0  0  0  0  0  0  0
    2.2934   -2.4593   -0.1613 O   0  0  0  0  0  0  0  0  0  0  0  0
    1.9178    0.7142   -0.6909 C   0  0  0  0  0  0  0  0  0  0  0  0
    1.7295    1.9587   -0.1174 O   0  0  0  0  0  0  0  0  0  0  0  0
   -2.8395    0.5444   -0.6259 H   0  0  0  0  0  0  0  0  0  0  0  0
   -2.7152    2.1372    0.1501 H   0  0  0  0  0  0  0  0  0  0  0  0
   -2.9054    0.7221    1.2166 H   0  0  0  0  0  0  0  0  0  0  0  0
   -0.6819    1.2434    1.4022 H   0  0  0  0  0  0  0  0  0  0  0  0
   -0.5206    1.8465   -0.2786 H   0  0  0  0  0  0  0  0  0  0  0  0
   -0.6741   -0.3655   -1.2301 H   0  0  0  0  0  0  0  0  0  0  0  0
   -0.8431   -2.3460   -0.1224 H   0  0  0  0  0  0  0  0  0  0  0  0
   -1.9179   -1.3067    0.9683 H   0  0  0  0  0  0  0  0  0  0  0  0
   -0.2528   -1.7293    1.4316 H   0  0  0  0  0  0  0  0  0  0  0  0
    1.4113   -0.4579    0.9833 H   0  0  0  0  0  0  0  0  0  0  0  0
    1.0018   -2.0240   -1.5860 H   0  0  0  0  0  0  0  0  0  0  0  0
    1.8557    0.7749   -1.8046 H   0  0  0  0  0  0  0  0  0  0  0  0
    3.0024    0.4545   -0.5052 H   0  0  0  0  0  0  0  0  0  0  0  0
    2.2010    2.0670    0.7448 H   0  0  0  0  0  0  0  0  0  0  0  0
  1  2  1  0
  2  3  1  0
  3  4  1  0
  3  5  1  0
  5  6  1  0
  6  7  2  0
  5  8  1  0
  8  9  1  0
  1 10  1  0
  1 11  1  0
  1 12  1  0
  2 13  1  0
  2 14  1  0
  3 15  1  0
  4 16  1  0
  4 17  1  0
  4 18  1  0
  5 19  1  0
  6 20  1  0
  8 21  1  0
  8 22  1  0
  9 23  1  0
M  END
