
     RDKit          3D

 23 23  0  0  0  0  0  0  0  0999 V2000
    3.3916   -0.3162    0.2718 C   0  0  0  0  0  0  0  0  0  0  0  0
    2.2454    0.3477   -0.4636 C   0  0  0  0  0  0  0  0  0  0  0  0
    1.1456   -0.6185   -0.6879 C   0  0  0  0  0  0  0  0  0  0  0  0
    1.2156   -1.4179   -1.5762 O   0  0  0  0  0  0  0  0  0  0  0  0
   -0.0112   -0.5737    0.1964 C   0  0  0  0  0  0  0  0  0  0  0  0
   -0.6447    0.8240    0.1233 C   0  0  0  0  0  0  0  0  0  0  0  0
   -1.9519    0.0922    0.4309 C   0  0  0  0  0  0  0  0  0  0  0  0
   -3.1707    0.7327   -0.1361 C   0  0  0  0  0  0  0  0  0  0  0  0
   -1.3434   -1.0315   -0.4241 C   0  0  0  0  0  0  0  0  0  0  0  0
    3.0519   -0.5187    1.2986 H   0  0  0  0  0  0  0  0  0  0  0  0
    4.2411    0.4004    0.3258 H   0  0  0  0  0  0  0  0  0  0  0  0
    3.6795   -1.2736   -0.2410 H   0  0  0  0  0  0  0  0  0  0  0  0
    1.9255    1.1954    0.1947 H   0  0  0  0  0  0  0  0  0  0  0  0
    2.5705    0.7759   -1.4348 H   0  0  0  0  0  0  0  0  0  0  0  0
    0.1288   -0.9590    1.2191 H   0  0  0  0  0  0  0  0  0  0  0  0
   -0.6262    1.1453   -0.9342 H   0  0  0  0  0  0  0  0  0  0  0  0
   -0.3050    1.5280    0.8793 H   0  0  0  0  0  0  0  0  0  0  0  0
   -2.0336   -0.2372    1.4788 H   0  0  0  0  0  0  0  0  0  0  0  0
   -3.1869    0.6999   -1.2392 H   0  0  0  0  0  0  0  0  0  0  0  0
   -3.2423    1.7950    0.2416 H   0  0  0  0  0  0  0  0  0  0  0  0
   -4.0557    0.2229    0.3211 H   0  0  0  0  0  0  0  0  0  0  0  0
   -1.6503   -2.0347   -0.1490 H   0  0  0  0  0  0  0  0  0  0  0  0
   -1.3736   -0.7784   -1.5035 H   0  0  0  0  0  0  0  0  0  0  0  0
  1  2  1  0
  2  3  1  0
  3  4  2  0
  3  5  1  0
  5  6  1  0
  6  7  1  0
  7  8  1  0
  7  9  1  0
  9  5  1  0
  1 10  1  0
  1 11  1  0
  1 12  1  0
  2 13  1  0
  2 14  1  0
  5 15  1  0
  6 16  1  0
  6 17  1  0
  7 18  1  0
  8 19  1  0
  8 20  1  0
  8 21  1  0
  9 22  1  0
  9 23  1  0
M  END
