
     RDKit          3D

 21 21  0  0  0  0  0  0  0  0999 V2000
   -2.2258   -0.2314    0.7020 C   0  0  0  0  0  0  0  0  0  0  0  0
   -1.4972   -0.1916   -0.6031 C   0  0  0  0  0  0  0  0  0  0  0  0
   -0.0627   -0.6490   -0.5107 C   0  0  0  0  0  0  0  0  0  0  0  0
    0.5266   -0.5554   -1.8902 C   0  0  0  0  0  0  0  0  0  0  0  0
    0.7351    0.5837   -2.3017 O   0  0  0  0  0  0  0  0  0  0  0  0
    0.7831    0.1897    0.3868 C   0  0  0  0  0  0  0  0  0  0  0  0
    2.2310   -0.2938    0.4669 C   0  0  0  0  0  0  0  0  0  0  0  0
    0.4024    1.2841    1.1878 C   0  0  0  0  0  0  0  0  0  0  0  0
    0.8641    1.5781   -0.1972 O   0  0  0  0  0  0  0  0  0  0  0  0
   -2.7009    0.7518    0.8936 H   0  0  0  0  0  0  0  0  0  0  0  0
   -2.9657   -1.0581    0.7638 H   0  0  0  0  0  0  0  0  0  0  0  0
   -1.5336   -0.4089    1.5655 H   0  0  0  0  0  0  0  0  0  0  0  0
   -2.0154   -0.9328   -1.2810 H   0  0  0  0  0  0  0  0  0  0  0  0
   -1.6094    0.7953   -1.0564 H   0  0  0  0  0  0  0  0  0  0  0  0
   -0.0099   -1.6915   -0.2048 H   0  0  0  0  0  0  0  0  0  0  0  0
    0.7596   -1.4019   -2.4968 H   0  0  0  0  0  0  0  0  0  0  0  0
    2.2764   -1.3415    0.7797 H   0  0  0  0  0  0  0  0  0  0  0  0
    2.8459    0.3698    1.1082 H   0  0  0  0  0  0  0  0  0  0  0  0
    2.6291   -0.2171   -0.5625 H   0  0  0  0  0  0  0  0  0  0  0  0
   -0.5690    1.7663    1.2958 H   0  0  0  0  0  0  0  0  0  0  0  0
    1.1361    1.6544    1.9544 H   0  0  0  0  0  0  0  0  0  0  0  0
  1  2  1  0
  2  3  1  0
  3  4  1  0
  4  5  2  0
  3  6  1  0
  6  7  1  0
  6  8  1  0
  8  9  1  0
  9  6  1  0
  1 10  1  0
  1 11  1  0
  1 12  1  0
  2 13  1  0
  2 14  1  0
  3 15  1  0
  4 16  1  0
  7 17  1  0
  7 18  1  0
  7 19  1  0
  8 20  1  0
  8 21  1  0
M  END
