
     RDKit          3D

 25 25  0  0  0  0  0  0  0  0999 V2000
    2.6457   -1.1104    0.9848 C   0  0  0  0  0  0  0  0  0  0  0  0
    1.3344   -0.4254    1.3106 C   0  0  0  0  0  0  0  0  0  0  0  0
    0.6352    0.0278    0.0445 C   0  0  0  0  0  0  0  0  0  0  0  0
    1.5416    1.0055   -0.6910 C   0  0  0  0  0  0  0  0  0  0  0  0
   -0.6573    0.7138    0.3086 C   0  0  0  0  0  0  0  0  0  0  0  0
   -1.3713    1.1752   -0.9625 C   0  0  0  0  0  0  0  0  0  0  0  0
   -1.9690    0.1593   -0.0413 C   0  0  0  0  0  0  0  0  0  0  0  0
   -2.1593   -1.2629   -0.4868 C   0  0  0  0  0  0  0  0  0  0  0  0
   -3.0622    0.6518    0.6993 O   0  0  0  0  0  0  0  0  0  0  0  0
    2.5090   -1.5992   -0.0020 H   0  0  0  0  0  0  0  0  0  0  0  0
    2.8407   -1.9128    1.7235 H   0  0  0  0  0  0  0  0  0  0  0  0
    3.4975   -0.4028    0.9948 H   0  0  0  0  0  0  0  0  0  0  0  0
    0.7095   -1.1845    1.8263 H   0  0  0  0  0  0  0  0  0  0  0  0
    1.4840    0.4260    1.9960 H   0  0  0  0  0  0  0  0  0  0  0  0
    0.5423   -0.8580   -0.6149 H   0  0  0  0  0  0  0  0  0  0  0  0
    0.8785    1.6196   -1.3505 H   0  0  0  0  0  0  0  0  0  0  0  0
    2.0050    1.7349    0.0163 H   0  0  0  0  0  0  0  0  0  0  0  0
    2.2896    0.4934   -1.3055 H   0  0  0  0  0  0  0  0  0  0  0  0
   -0.6067    1.4590    1.1494 H   0  0  0  0  0  0  0  0  0  0  0  0
   -1.0161    0.8222   -1.9345 H   0  0  0  0  0  0  0  0  0  0  0  0
   -1.7563    2.2104   -0.9760 H   0  0  0  0  0  0  0  0  0  0  0  0
   -1.2846   -1.6689   -1.0227 H   0  0  0  0  0  0  0  0  0  0  0  0
   -3.0259   -1.3734   -1.1815 H   0  0  0  0  0  0  0  0  0  0  0  0
   -2.3917   -1.8577    0.4378 H   0  0  0  0  0  0  0  0  0  0  0  0
   -3.6123    1.1570    0.0471 H   0  0  0  0  0  0  0  0  0  0  0  0
  1  2  1  0
  2  3  1  0
  3  4  1  0
  3  5  1  0
  5  6  1  0
  6  7  1  0
  7  8  1  0
  7  9  1  0
  7  5  1  0
  1 10  1  0
  1 11  1  0
  1 12  1  0
  2 13  1  0
  2 14  1  0
  3 15  1  0
  4 16  1  0
  4 17  1  0
  4 18  1  0
  5 19  1  0
  6 20  1  0
  6 21  1  0
  8 22  1  0
  8 23  1  0
  8 24  1  0
  9 25  1  0
M  END
