
     RDKit          3D

 20 20  0  0  0  0  0  0  0  0999 V2000
    2.7047    0.1008    0.0433 C   0  0  0  0  0  0  0  0  0  0  0  0
    1.3461    0.7486    0.0380 C   0  0  0  0  0  0  0  0  0  0  0  0
    0.2866   -0.3069    0.1273 C   0  0  0  0  0  0  0  0  0  0  0  0
    0.3908   -1.1723   -0.9664 O   0  0  0  0  0  0  0  0  0  0  0  0
   -1.0856    0.2823    0.2643 C   0  0  0  0  0  0  0  0  0  0  0  0
   -1.2422    1.1442    1.3289 O   0  0  0  0  0  0  0  0  0  0  0  0
   -1.9804    0.4826   -0.8919 C   0  0  0  0  0  0  0  0  0  0  0  0
   -2.2036   -0.7153   -0.0460 C   0  0  0  0  0  0  0  0  0  0  0  0
    3.4478    0.9114   -0.1851 H   0  0  0  0  0  0  0  0  0  0  0  0
    2.9850   -0.3164    1.0063 H   0  0  0  0  0  0  0  0  0  0  0  0
    2.6942   -0.6650   -0.7757 H   0  0  0  0  0  0  0  0  0  0  0  0
    1.2314    1.3424   -0.8951 H   0  0  0  0  0  0  0  0  0  0  0  0
    1.2655    1.3792    0.9557 H   0  0  0  0  0  0  0  0  0  0  0  0
    0.4829   -0.9393    1.0218 H   0  0  0  0  0  0  0  0  0  0  0  0
    0.1712   -2.1165   -0.6890 H   0  0  0  0  0  0  0  0  0  0  0  0
   -1.1555    0.6743    2.1793 H   0  0  0  0  0  0  0  0  0  0  0  0
   -2.7696    1.2578   -0.8023 H   0  0  0  0  0  0  0  0  0  0  0  0
   -1.6356    0.3468   -1.9401 H   0  0  0  0  0  0  0  0  0  0  0  0
   -2.9996   -0.7508    0.7221 H   0  0  0  0  0  0  0  0  0  0  0  0
   -1.9340   -1.6880   -0.4954 H   0  0  0  0  0  0  0  0  0  0  0  0
  1  2  1  0
  2  3  1  0
  3  4  1  0
  3  5  1  0
  5  6  1  0
  5  7  1  0
  7  8  1  0
  8  5  1  0
  1  9  1  0
  1 10  1  0
  1 11  1  0
  2 12  1  0
  2 13  1  0
  3 14  1  0
  4 15  1  0
  6 16  1  0
  7 17  1  0
  7 18  1  0
  8 19  1  0
  8 20  1  0
M  END
