
     RDKit          3D

 22 21  0  0  0  0  0  0  0  0999 V2000
   -1.3733    1.5908    0.2160 C   0  0  0  0  0  0  0  0  0  0  0  0
   -1.3791    0.1725   -0.2713 C   0  0  0  0  0  0  0  0  0  0  0  0
   -0.2413   -0.6882    0.1273 C   0  0  0  0  0  0  0  0  0  0  0  0
   -0.6301   -2.0942   -0.4903 C   0  0  0  0  0  0  0  0  0  0  0  0
   -0.1993   -0.8350    1.5059 O   0  0  0  0  0  0  0  0  0  0  0  0
    1.0883   -0.4723   -0.4867 C   0  0  0  0  0  0  0  0  0  0  0  0
    1.7978    0.7994   -0.3666 C   0  0  0  0  0  0  0  0  0  0  0  0
    1.1995    1.8999   -0.9477 O   0  0  0  0  0  0  0  0  0  0  0  0
   -1.3858    2.2687   -0.6557 H   0  0  0  0  0  0  0  0  0  0  0  0
   -2.3930    1.8285    0.7039 H   0  0  0  0  0  0  0  0  0  0  0  0
   -0.5966    1.8205    0.9679 H   0  0  0  0  0  0  0  0  0  0  0  0
   -1.5292    0.1810   -1.3833 H   0  0  0  0  0  0  0  0  0  0  0  0
   -2.3639   -0.2781    0.0851 H   0  0  0  0  0  0  0  0  0  0  0  0
    0.1267   -2.7767   -0.1053 H   0  0  0  0  0  0  0  0  0  0  0  0
   -0.5616   -1.8866   -1.5790 H   0  0  0  0  0  0  0  0  0  0  0  0
   -1.6646   -2.3182   -0.2489 H   0  0  0  0  0  0  0  0  0  0  0  0
    0.4873   -1.5059    1.7891 H   0  0  0  0  0  0  0  0  0  0  0  0
    1.7672   -1.2863   -0.0546 H   0  0  0  0  0  0  0  0  0  0  0  0
    1.0585   -0.7807   -1.5735 H   0  0  0  0  0  0  0  0  0  0  0  0
    2.1112    1.0654    0.6721 H   0  0  0  0  0  0  0  0  0  0  0  0
    2.7934    0.6948   -0.9070 H   0  0  0  0  0  0  0  0  0  0  0  0
    1.8879    2.6004   -1.1664 H   0  0  0  0  0  0  0  0  0  0  0  0
  1  2  1  0
  2  3  1  0
  3  4  1  0
  3  5  1  0
  3  6  1  0
  6  7  1  0
  7  8  1  0
  1  9  1  0
  1 10  1  0
  1 11  1  0
  2 12  1  0
  2 13  1  0
  4 14  1  0
  4 15  1  0
  4 16  1  0
  5 17  1  0
  6 18  1  0
  6 19  1  0
  7 20  1  0
  7 21  1  0
  8 22  1  0
M  END
