
     RDKit          3D

 23 22  0  0  0  0  0  0  0  0999 V2000
    1.5782   -1.5055    0.6744 C   0  0  0  0  0  0  0  0  0  0  0  0
    0.9893   -0.1412    0.9211 C   0  0  0  0  0  0  0  0  0  0  0  0
    0.1258    0.3191   -0.2325 C   0  0  0  0  0  0  0  0  0  0  0  0
    1.0108    0.3611   -1.4378 C   0  0  0  0  0  0  0  0  0  0  0  0
    1.9142    1.1842   -1.5542 O   0  0  0  0  0  0  0  0  0  0  0  0
   -0.9959   -0.6081   -0.5208 C   0  0  0  0  0  0  0  0  0  0  0  0
   -1.9534   -0.8117    0.6127 C   0  0  0  0  0  0  0  0  0  0  0  0
   -0.2995    1.7345    0.0618 C   0  0  0  0  0  0  0  0  0  0  0  0
   -1.1155    2.2385   -0.9778 O   0  0  0  0  0  0  0  0  0  0  0  0
    2.6010   -1.5134    1.0499 H   0  0  0  0  0  0  0  0  0  0  0  0
    1.4814   -1.7823   -0.4007 H   0  0  0  0  0  0  0  0  0  0  0  0
    0.9644   -2.2272    1.2824 H   0  0  0  0  0  0  0  0  0  0  0  0
    0.4764   -0.0977    1.8895 H   0  0  0  0  0  0  0  0  0  0  0  0
    1.8317    0.6072    0.9868 H   0  0  0  0  0  0  0  0  0  0  0  0
    0.8976   -0.3337   -2.2680 H   0  0  0  0  0  0  0  0  0  0  0  0
   -1.5310   -0.2487   -1.4208 H   0  0  0  0  0  0  0  0  0  0  0  0
   -0.5654   -1.5984   -0.7753 H   0  0  0  0  0  0  0  0  0  0  0  0
   -2.5210   -1.7484    0.4028 H   0  0  0  0  0  0  0  0  0  0  0  0
   -2.6520    0.0408    0.6539 H   0  0  0  0  0  0  0  0  0  0  0  0
   -1.3802   -0.9600    1.5353 H   0  0  0  0  0  0  0  0  0  0  0  0
    0.5854    2.4039    0.0796 H   0  0  0  0  0  0  0  0  0  0  0  0
   -0.8168    1.8582    1.0183 H   0  0  0  0  0  0  0  0  0  0  0  0
   -0.6252    2.8287   -1.5808 H   0  0  0  0  0  0  0  0  0  0  0  0
  1  2  1  0
  2  3  1  0
  3  4  1  0
  4  5  2  0
  3  6  1  0
  6  7  1  0
  3  8  1  0
  8  9  1  0
  1 10  1  0
  1 11  1  0
  1 12  1  0
  2 13  1  0
  2 14  1  0
  4 15  1  0
  6 16  1  0
  6 17  1  0
  7 18  1  0
  7 19  1  0
  7 20  1  0
  8 21  1  0
  8 22  1  0
  9 23  1  0
M  END
