
     RDKit          3D

 23 23  0  0  0  0  0  0  0  0999 V2000
   -2.5037    0.5936    0.0543 C   0  0  0  0  0  0  0  0  0  0  0  0
   -1.3681    0.7371    1.0093 C   0  0  0  0  0  0  0  0  0  0  0  0
   -0.1660   -0.1090    0.6621 C   0  0  0  0  0  0  0  0  0  0  0  0
   -0.5514   -1.5720    0.6485 C   0  0  0  0  0  0  0  0  0  0  0  0
    0.4089    0.3779   -0.6223 C   0  0  0  0  0  0  0  0  0  0  0  0
    1.6107   -0.2680   -1.2202 C   0  0  0  0  0  0  0  0  0  0  0  0
    2.0715   -1.4119   -0.5782 O   0  0  0  0  0  0  0  0  0  0  0  0
    1.7792    1.0537   -0.5162 C   0  0  0  0  0  0  0  0  0  0  0  0
    2.4222    1.0158    0.7122 O   0  0  0  0  0  0  0  0  0  0  0  0
   -2.2081    0.4768   -0.9988 H   0  0  0  0  0  0  0  0  0  0  0  0
   -3.0944    1.5559    0.0896 H   0  0  0  0  0  0  0  0  0  0  0  0
   -3.2404   -0.1831    0.3730 H   0  0  0  0  0  0  0  0  0  0  0  0
   -1.1091    1.8084    1.1128 H   0  0  0  0  0  0  0  0  0  0  0  0
   -1.7399    0.4188    2.0245 H   0  0  0  0  0  0  0  0  0  0  0  0
    0.5925   -0.0003    1.4627 H   0  0  0  0  0  0  0  0  0  0  0  0
    0.3222   -2.1882    0.9115 H   0  0  0  0  0  0  0  0  0  0  0  0
   -1.0416   -1.8863   -0.2751 H   0  0  0  0  0  0  0  0  0  0  0  0
   -1.2868   -1.7101    1.4797 H   0  0  0  0  0  0  0  0  0  0  0  0
   -0.2540    0.8841   -1.3821 H   0  0  0  0  0  0  0  0  0  0  0  0
    1.7677   -0.2292   -2.2982 H   0  0  0  0  0  0  0  0  0  0  0  0
    3.0520   -1.4061   -0.4482 H   0  0  0  0  0  0  0  0  0  0  0  0
    1.9639    1.9679   -1.1336 H   0  0  0  0  0  0  0  0  0  0  0  0
    2.5725    0.0741    0.9777 H   0  0  0  0  0  0  0  0  0  0  0  0
  1  2  1  0
  2  3  1  0
  3  4  1  0
  3  5  1  0
  5  6  1  0
  6  7  1  0
  6  8  1  0
  8  9  1  0
  8  5  1  0
  1 10  1  0
  1 11  1  0
  1 12  1  0
  2 13  1  0
  2 14  1  0
  3 15  1  0
  4 16  1  0
  4 17  1  0
  4 18  1  0
  5 19  1  0
  6 20  1  0
  7 21  1  0
  8 22  1  0
  9 23  1  0
M  END
