
     RDKit          3D

 23 22  0  0  0  0  0  0  0  0999 V2000
    2.0167   -1.3094    0.2554 C   0  0  0  0  0  0  0  0  0  0  0  0
    1.2486   -0.8748   -0.9402 C   0  0  0  0  0  0  0  0  0  0  0  0
    0.2728    0.2275   -0.6942 C   0  0  0  0  0  0  0  0  0  0  0  0
    0.9371    1.4851   -0.1796 C   0  0  0  0  0  0  0  0  0  0  0  0
   -0.1094    2.5544    0.0459 C   0  0  0  0  0  0  0  0  0  0  0  0
   -0.8454   -0.1736    0.1918 C   0  0  0  0  0  0  0  0  0  0  0  0
   -1.0274    0.4347    1.2810 O   0  0  0  0  0  0  0  0  0  0  0  0
   -1.7038   -1.1906   -0.1227 O   0  0  0  0  0  0  0  0  0  0  0  0
   -2.7854   -1.6100    0.6901 C   0  0  0  0  0  0  0  0  0  0  0  0
    3.1023   -1.0564    0.1230 H   0  0  0  0  0  0  0  0  0  0  0  0
    1.6614   -0.8973    1.2117 H   0  0  0  0  0  0  0  0  0  0  0  0
    1.9872   -2.4190    0.3208 H   0  0  0  0  0  0  0  0  0  0  0  0
    1.9479   -0.5278   -1.7398 H   0  0  0  0  0  0  0  0  0  0  0  0
    0.6852   -1.7225   -1.3981 H   0  0  0  0  0  0  0  0  0  0  0  0
   -0.1610    0.5050   -1.6966 H   0  0  0  0  0  0  0  0  0  0  0  0
    1.4415    1.3168    0.7803 H   0  0  0  0  0  0  0  0  0  0  0  0
    1.6783    1.8252   -0.9377 H   0  0  0  0  0  0  0  0  0  0  0  0
   -0.3729    2.6720    1.1120 H   0  0  0  0  0  0  0  0  0  0  0  0
   -0.9776    2.2956   -0.5902 H   0  0  0  0  0  0  0  0  0  0  0  0
    0.2915    3.5095   -0.3568 H   0  0  0  0  0  0  0  0  0  0  0  0
   -2.5549   -1.5668    1.7694 H   0  0  0  0  0  0  0  0  0  0  0  0
   -3.6142   -0.8726    0.5242 H   0  0  0  0  0  0  0  0  0  0  0  0
   -3.1185   -2.6049    0.3504 H   0  0  0  0  0  0  0  0  0  0  0  0
  1  2  1  0
  2  3  1  0
  3  4  1  0
  4  5  1  0
  3  6  1  0
  6  7  2  0
  6  8  1  0
  8  9  1  0
  1 10  1  0
  1 11  1  0
  1 12  1  0
  2 13  1  0
  2 14  1  0
  3 15  1  0
  4 16  1  0
  4 17  1  0
  5 18  1  0
  5 19  1  0
  5 20  1  0
  9 21  1  0
  9 22  1  0
  9 23  1  0
M  END
