
     RDKit          3D

 25 25  0  0  0  0  0  0  0  0999 V2000
    2.2725    1.4833    0.4229 C   0  0  0  0  0  0  0  0  0  0  0  0
    2.0561    0.1175   -0.1393 C   0  0  0  0  0  0  0  0  0  0  0  0
    0.8184   -0.5738    0.3324 C   0  0  0  0  0  0  0  0  0  0  0  0
    0.7947   -1.9463   -0.3564 C   0  0  0  0  0  0  0  0  0  0  0  0
   -0.4654    0.0928   -0.0457 C   0  0  0  0  0  0  0  0  0  0  0  0
   -1.6914   -0.6531    0.4631 C   0  0  0  0  0  0  0  0  0  0  0  0
   -2.9649    0.0426    0.0664 C   0  0  0  0  0  0  0  0  0  0  0  0
   -0.6206    1.3971   -0.5338 C   0  0  0  0  0  0  0  0  0  0  0  0
   -0.5836    0.2388   -1.4879 O   0  0  0  0  0  0  0  0  0  0  0  0
    2.4787    2.1962   -0.4018 H   0  0  0  0  0  0  0  0  0  0  0  0
    1.4477    1.8335    1.0906 H   0  0  0  0  0  0  0  0  0  0  0  0
    3.2040    1.5282    1.0624 H   0  0  0  0  0  0  0  0  0  0  0  0
    2.0451    0.1060   -1.2485 H   0  0  0  0  0  0  0  0  0  0  0  0
    2.9196   -0.5185    0.1624 H   0  0  0  0  0  0  0  0  0  0  0  0
    0.8028   -0.7497    1.4257 H   0  0  0  0  0  0  0  0  0  0  0  0
    0.1315   -2.6385    0.1844 H   0  0  0  0  0  0  0  0  0  0  0  0
    1.8191   -2.3108   -0.4835 H   0  0  0  0  0  0  0  0  0  0  0  0
    0.3836   -1.7544   -1.3751 H   0  0  0  0  0  0  0  0  0  0  0  0
   -1.6441   -0.7365    1.5516 H   0  0  0  0  0  0  0  0  0  0  0  0
   -1.7050   -1.6574    0.0185 H   0  0  0  0  0  0  0  0  0  0  0  0
   -3.1180    1.0088    0.5999 H   0  0  0  0  0  0  0  0  0  0  0  0
   -3.0573    0.1752   -1.0160 H   0  0  0  0  0  0  0  0  0  0  0  0
   -3.8038   -0.6174    0.3818 H   0  0  0  0  0  0  0  0  0  0  0  0
   -1.6584    1.8427   -0.5557 H   0  0  0  0  0  0  0  0  0  0  0  0
    0.1388    2.0937   -0.8960 H   0  0  0  0  0  0  0  0  0  0  0  0
  1  2  1  0
  2  3  1  0
  3  4  1  0
  3  5  1  0
  5  6  1  0
  6  7  1  0
  5  8  1  0
  8  9  1  0
  9  5  1  0
  1 10  1  0
  1 11  1  0
  1 12  1  0
  2 13  1  0
  2 14  1  0
  3 15  1  0
  4 16  1  0
  4 17  1  0
  4 18  1  0
  6 19  1  0
  6 20  1  0
  7 21  1  0
  7 22  1  0
  7 23  1  0
  8 24  1  0
  8 25  1  0
M  END
