
     RDKit          3D

 23 22  0  0  0  0  0  0  0  0999 V2000
    1.6797   -0.4157    1.3195 C   0  0  0  0  0  0  0  0  0  0  0  0
    1.5221    0.8839    0.6042 C   0  0  0  0  0  0  0  0  0  0  0  0
    0.6312    0.8152   -0.6050 C   0  0  0  0  0  0  0  0  0  0  0  0
    1.1126   -0.1287   -1.6302 C   0  0  0  0  0  0  0  0  0  0  0  0
    1.4456    0.1783   -2.7627 O   0  0  0  0  0  0  0  0  0  0  0  0
   -0.8057    0.5384   -0.3042 C   0  0  0  0  0  0  0  0  0  0  0  0
   -1.5284    0.5100   -1.6597 C   0  0  0  0  0  0  0  0  0  0  0  0
   -0.9837   -0.7186    0.2454 O   0  0  0  0  0  0  0  0  0  0  0  0
   -1.6926   -0.6369    1.4475 C   0  0  0  0  0  0  0  0  0  0  0  0
    1.2371   -1.2554    0.7286 H   0  0  0  0  0  0  0  0  0  0  0  0
    1.2332   -0.3897    2.3349 H   0  0  0  0  0  0  0  0  0  0  0  0
    2.7402   -0.6504    1.4491 H   0  0  0  0  0  0  0  0  0  0  0  0
    2.4969    1.2598    0.3009 H   0  0  0  0  0  0  0  0  0  0  0  0
    1.0788    1.6395    1.2874 H   0  0  0  0  0  0  0  0  0  0  0  0
    0.6615    1.8448   -1.0707 H   0  0  0  0  0  0  0  0  0  0  0  0
    1.1807   -1.1794   -1.3707 H   0  0  0  0  0  0  0  0  0  0  0  0
   -1.2771    1.2806    0.3674 H   0  0  0  0  0  0  0  0  0  0  0  0
   -1.3970   -0.4934   -2.1144 H   0  0  0  0  0  0  0  0  0  0  0  0
   -1.0920    1.2503   -2.3608 H   0  0  0  0  0  0  0  0  0  0  0  0
   -2.5943    0.7709   -1.5502 H   0  0  0  0  0  0  0  0  0  0  0  0
   -2.6967   -0.1890    1.3057 H   0  0  0  0  0  0  0  0  0  0  0  0
   -1.1234   -0.0024    2.1263 H   0  0  0  0  0  0  0  0  0  0  0  0
   -1.8288   -1.6272    1.9115 H   0  0  0  0  0  0  0  0  0  0  0  0
  1  2  1  0
  2  3  1  0
  3  4  1  0
  4  5  2  0
  3  6  1  0
  6  7  1  0
  6  8  1  0
  8  9  1  0
  1 10  1  0
  1 11  1  0
  1 12  1  0
  2 13  1  0
  2 14  1  0
  3 15  1  0
  4 16  1  0
  6 17  1  0
  7 18  1  0
  7 19  1  0
  7 20  1  0
  9 21  1  0
  9 22  1  0
  9 23  1  0
M  END
