
     RDKit          3D

 25 25  0  0  0  0  0  0  0  0999 V2000
    2.6656   -0.4583    0.5269 C   0  0  0  0  0  0  0  0  0  0  0  0
    1.1768   -0.2719    0.5830 C   0  0  0  0  0  0  0  0  0  0  0  0
    0.5997    0.3383   -0.6619 C   0  0  0  0  0  0  0  0  0  0  0  0
    1.2134    1.7089   -0.9004 C   0  0  0  0  0  0  0  0  0  0  0  0
    0.8696   -0.4342   -1.7649 O   0  0  0  0  0  0  0  0  0  0  0  0
   -0.8782    0.5547   -0.4409 C   0  0  0  0  0  0  0  0  0  0  0  0
   -1.6211   -0.7126   -0.1508 C   0  0  0  0  0  0  0  0  0  0  0  0
   -3.0950   -0.5442    0.0758 C   0  0  0  0  0  0  0  0  0  0  0  0
   -2.1812   -0.8165    1.2594 C   0  0  0  0  0  0  0  0  0  0  0  0
    2.8913   -1.5000    0.8345 H   0  0  0  0  0  0  0  0  0  0  0  0
    3.0956   -0.3256   -0.4827 H   0  0  0  0  0  0  0  0  0  0  0  0
    3.1829    0.1960    1.2822 H   0  0  0  0  0  0  0  0  0  0  0  0
    0.9442    0.3982    1.4554 H   0  0  0  0  0  0  0  0  0  0  0  0
    0.6612   -1.2352    0.7486 H   0  0  0  0  0  0  0  0  0  0  0  0
    1.8664    2.0178   -0.0384 H   0  0  0  0  0  0  0  0  0  0  0  0
    1.7912    1.7421   -1.8546 H   0  0  0  0  0  0  0  0  0  0  0  0
    0.4457    2.5054   -0.9838 H   0  0  0  0  0  0  0  0  0  0  0  0
    1.5224   -1.1306   -1.5005 H   0  0  0  0  0  0  0  0  0  0  0  0
   -1.3223    1.0275   -1.3414 H   0  0  0  0  0  0  0  0  0  0  0  0
   -0.9855    1.2920    0.3807 H   0  0  0  0  0  0  0  0  0  0  0  0
   -1.2621   -1.6755   -0.5741 H   0  0  0  0  0  0  0  0  0  0  0  0
   -3.7920   -1.3705   -0.1451 H   0  0  0  0  0  0  0  0  0  0  0  0
   -3.5513    0.4684   -0.0177 H   0  0  0  0  0  0  0  0  0  0  0  0
   -2.2263   -1.8069    1.7479 H   0  0  0  0  0  0  0  0  0  0  0  0
   -2.0112    0.0324    1.9630 H   0  0  0  0  0  0  0  0  0  0  0  0
  1  2  1  0
  2  3  1  0
  3  4  1  0
  3  5  1  0
  3  6  1  0
  6  7  1  0
  7  8  1  0
  8  9  1  0
  9  7  1  0
  1 10  1  0
  1 11  1  0
  1 12  1  0
  2 13  1  0
  2 14  1  0
  4 15  1  0
  4 16  1  0
  4 17  1  0
  5 18  1  0
  6 19  1  0
  6 20  1  0
  7 21  1  0
  8 22  1  0
  8 23  1  0
  9 24  1  0
  9 25  1  0
M  END
