
     RDKit          3D

 23 22  0  0  0  0  0  0  0  0999 V2000
    2.3316    0.9134    0.1335 C   0  0  0  0  0  0  0  0  0  0  0  0
    1.5392   -0.2928   -0.2856 C   0  0  0  0  0  0  0  0  0  0  0  0
    0.0389   -0.0690   -0.1361 C   0  0  0  0  0  0  0  0  0  0  0  0
   -0.3185    0.2331    1.3032 C   0  0  0  0  0  0  0  0  0  0  0  0
    0.1293   -0.8503    2.0611 O   0  0  0  0  0  0  0  0  0  0  0  0
   -0.6040   -1.3968   -0.4557 C   0  0  0  0  0  0  0  0  0  0  0  0
   -1.9715   -1.4022   -0.4289 O   0  0  0  0  0  0  0  0  0  0  0  0
   -0.3201    0.8759   -1.0215 O   0  0  0  0  0  0  0  0  0  0  0  0
   -1.5927    1.3040   -1.1228 C   0  0  0  0  0  0  0  0  0  0  0  0
    2.3027    1.1048    1.2136 H   0  0  0  0  0  0  0  0  0  0  0  0
    1.9547    1.8298   -0.3740 H   0  0  0  0  0  0  0  0  0  0  0  0
    3.3825    0.7365   -0.1634 H   0  0  0  0  0  0  0  0  0  0  0  0
    1.7177   -0.4593   -1.3682 H   0  0  0  0  0  0  0  0  0  0  0  0
    1.8369   -1.1722    0.2830 H   0  0  0  0  0  0  0  0  0  0  0  0
    0.1105    1.1518    1.6868 H   0  0  0  0  0  0  0  0  0  0  0  0
   -1.4384    0.2030    1.3538 H   0  0  0  0  0  0  0  0  0  0  0  0
   -0.4973   -0.9532    2.8313 H   0  0  0  0  0  0  0  0  0  0  0  0
   -0.1783   -1.7239   -1.4280 H   0  0  0  0  0  0  0  0  0  0  0  0
   -0.2241   -2.1103    0.3270 H   0  0  0  0  0  0  0  0  0  0  0  0
   -2.2684   -2.3422   -0.2310 H   0  0  0  0  0  0  0  0  0  0  0  0
   -2.0321    1.7370   -0.2041 H   0  0  0  0  0  0  0  0  0  0  0  0
   -1.5951    2.1201   -1.9219 H   0  0  0  0  0  0  0  0  0  0  0  0
   -2.3034    0.5628   -1.5235 H   0  0  0  0  0  0  0  0  0  0  0  0
  1  2  1  0
  2  3  1  0
  3  4  1  0
  4  5  1  0
  3  6  1  0
  6  7  1  0
  3  8  1  0
  8  9  1  0
  1 10  1  0
  1 11  1  0
  1 12  1  0
  2 13  1  0
  2 14  1  0
  4 15  1  0
  4 16  1  0
  5 17  1  0
  6 18  1  0
  6 19  1  0
  7 20  1  0
  9 21  1  0
  9 22  1  0
  9 23  1  0
M  END
