
     RDKit          3D

 23 22  0  0  0  0  0  0  0  0999 V2000
   -1.1921   -2.1650   -0.7440 C   0  0  0  0  0  0  0  0  0  0  0  0
   -1.6597   -0.9033   -0.0046 C   0  0  0  0  0  0  0  0  0  0  0  0
   -0.8813    0.2333   -0.5804 C   0  0  0  0  0  0  0  0  0  0  0  0
    0.5442   -0.0152   -0.3617 C   0  0  0  0  0  0  0  0  0  0  0  0
    1.7257   -0.2273   -0.2002 C   0  0  0  0  0  0  0  0  0  0  0  0
    3.1573   -0.4603    0.0012 C   0  0  0  0  0  0  0  0  0  0  0  0
    3.8027    0.6952    0.4811 O   0  0  0  0  0  0  0  0  0  0  0  0
   -1.3055    1.5818   -0.0666 C   0  0  0  0  0  0  0  0  0  0  0  0
   -1.1733    1.7491    1.4053 C   0  0  0  0  0  0  0  0  0  0  0  0
   -1.4762   -1.9985   -1.8047 H   0  0  0  0  0  0  0  0  0  0  0  0
   -0.0764   -2.1165   -0.7086 H   0  0  0  0  0  0  0  0  0  0  0  0
   -1.6064   -3.0733   -0.3122 H   0  0  0  0  0  0  0  0  0  0  0  0
   -2.7486   -0.7879   -0.0777 H   0  0  0  0  0  0  0  0  0  0  0  0
   -1.4243   -1.0491    1.0697 H   0  0  0  0  0  0  0  0  0  0  0  0
   -1.0191    0.2585   -1.6902 H   0  0  0  0  0  0  0  0  0  0  0  0
    3.6457   -0.7430   -0.9579 H   0  0  0  0  0  0  0  0  0  0  0  0
    3.2609   -1.2811    0.7358 H   0  0  0  0  0  0  0  0  0  0  0  0
    4.7642    0.5519    0.3364 H   0  0  0  0  0  0  0  0  0  0  0  0
   -0.6127    2.3287   -0.5520 H   0  0  0  0  0  0  0  0  0  0  0  0
   -2.3164    1.8634   -0.4086 H   0  0  0  0  0  0  0  0  0  0  0  0
   -0.9758    2.8357    1.6143 H   0  0  0  0  0  0  0  0  0  0  0  0
   -2.1184    1.5254    1.9580 H   0  0  0  0  0  0  0  0  0  0  0  0
   -0.3145    1.1975    1.8270 H   0  0  0  0  0  0  0  0  0  0  0  0
  1  2  1  0
  2  3  1  0
  3  4  1  0
  4  5  3  0
  5  6  1  0
  6  7  1  0
  3  8  1  0
  8  9  1  0
  1 10  1  0
  1 11  1  0
  1 12  1  0
  2 13  1  0
  2 14  1  0
  3 15  1  0
  6 16  1  0
  6 17  1  0
  7 18  1  0
  8 19  1  0
  8 20  1  0
  9 21  1  0
  9 22  1  0
  9 23  1  0
M  END
