
     RDKit          3D

 21 20  0  0  0  0  0  0  0  0999 V2000
    2.2018   -0.3090    0.3230 C   0  0  0  0  0  0  0  0  0  0  0  0
    1.2487    0.5947   -0.4090 C   0  0  0  0  0  0  0  0  0  0  0  0
   -0.1887    0.2950   -0.1404 C   0  0  0  0  0  0  0  0  0  0  0  0
   -0.4051    0.4662    1.3542 C   0  0  0  0  0  0  0  0  0  0  0  0
   -1.0137    1.3106   -0.8369 C   0  0  0  0  0  0  0  0  0  0  0  0
   -1.2663    2.3457   -0.2662 O   0  0  0  0  0  0  0  0  0  0  0  0
   -0.6252   -1.0594   -0.6188 C   0  0  0  0  0  0  0  0  0  0  0  0
   -2.0407   -1.2978   -0.3290 C   0  0  0  0  0  0  0  0  0  0  0  0
   -2.5844   -2.3388   -0.6389 O   0  0  0  0  0  0  0  0  0  0  0  0
    3.2288   -0.0265   -0.0007 H   0  0  0  0  0  0  0  0  0  0  0  0
    2.0756   -1.3697    0.1008 H   0  0  0  0  0  0  0  0  0  0  0  0
    2.1896   -0.1239    1.4344 H   0  0  0  0  0  0  0  0  0  0  0  0
    1.4478    1.6295   -0.0559 H   0  0  0  0  0  0  0  0  0  0  0  0
    1.5205    0.5733   -1.4770 H   0  0  0  0  0  0  0  0  0  0  0  0
   -1.4671    0.4594    1.6275 H   0  0  0  0  0  0  0  0  0  0  0  0
    0.2110   -0.2400    1.9274 H   0  0  0  0  0  0  0  0  0  0  0  0
   -0.0241    1.4894    1.5977 H   0  0  0  0  0  0  0  0  0  0  0  0
   -1.3634    1.0939   -1.8325 H   0  0  0  0  0  0  0  0  0  0  0  0
   -0.0360   -1.8887   -0.2078 H   0  0  0  0  0  0  0  0  0  0  0  0
   -0.4957   -1.0721   -1.7227 H   0  0  0  0  0  0  0  0  0  0  0  0
   -2.6133   -0.5317    0.1708 H   0  0  0  0  0  0  0  0  0  0  0  0
  1  2  1  0
  2  3  1  0
  3  4  1  0
  3  5  1  0
  5  6  2  0
  3  7  1  0
  7  8  1  0
  8  9  2  0
  1 10  1  0
  1 11  1  0
  1 12  1  0
  2 13  1  0
  2 14  1  0
  4 15  1  0
  4 16  1  0
  4 17  1  0
  5 18  1  0
  7 19  1  0
  7 20  1  0
  8 21  1  0
M  END
