
     RDKit          3D

 19 19  0  0  0  0  0  0  0  0999 V2000
   -2.1618   -0.8774    0.1925 C   0  0  0  0  0  0  0  0  0  0  0  0
   -0.7371   -1.1093   -0.2461 C   0  0  0  0  0  0  0  0  0  0  0  0
    0.1466    0.0933    0.0870 C   0  0  0  0  0  0  0  0  0  0  0  0
   -0.3859    1.2122   -0.5960 O   0  0  0  0  0  0  0  0  0  0  0  0
   -0.7680    2.3772    0.0558 C   0  0  0  0  0  0  0  0  0  0  0  0
   -0.6275    2.4160    1.2899 O   0  0  0  0  0  0  0  0  0  0  0  0
    1.4980   -0.1955   -0.5410 C   0  0  0  0  0  0  0  0  0  0  0  0
    2.7023   -0.0073    0.1448 C   0  0  0  0  0  0  0  0  0  0  0  0
    2.0946   -1.3800    0.1603 O   0  0  0  0  0  0  0  0  0  0  0  0
   -2.4953    0.0689   -0.2498 H   0  0  0  0  0  0  0  0  0  0  0  0
   -2.3095   -0.9487    1.2719 H   0  0  0  0  0  0  0  0  0  0  0  0
   -2.7710   -1.6886   -0.2847 H   0  0  0  0  0  0  0  0  0  0  0  0
   -0.7465   -1.1745   -1.3580 H   0  0  0  0  0  0  0  0  0  0  0  0
   -0.3483   -2.0319    0.2224 H   0  0  0  0  0  0  0  0  0  0  0  0
    0.2215    0.2496    1.1734 H   0  0  0  0  0  0  0  0  0  0  0  0
   -1.1641    3.1769   -0.5552 H   0  0  0  0  0  0  0  0  0  0  0  0
    1.4475   -0.4692   -1.6036 H   0  0  0  0  0  0  0  0  0  0  0  0
    3.6748   -0.0509   -0.3635 H   0  0  0  0  0  0  0  0  0  0  0  0
    2.7295    0.3390    1.1998 H   0  0  0  0  0  0  0  0  0  0  0  0
  1  2  1  0
  2  3  1  0
  3  4  1  0
  4  5  1  0
  5  6  2  0
  3  7  1  0
  7  8  1  0
  8  9  1  0
  9  7  1  0
  1 10  1  0
  1 11  1  0
  1 12  1  0
  2 13  1  0
  2 14  1  0
  3 15  1  0
  5 16  1  0
  7 17  1  0
  8 18  1  0
  8 19  1  0
M  END
