
     RDKit          3D

 21 21  0  0  0  0  0  0  0  0999 V2000
    2.9926    0.9962   -0.1810 C   0  0  0  0  0  0  0  0  0  0  0  0
    2.3964   -0.2237    0.5420 C   0  0  0  0  0  0  0  0  0  0  0  0
    1.1112   -0.5637   -0.1359 C   0  0  0  0  0  0  0  0  0  0  0  0
    1.1546   -0.7205   -1.3420 O   0  0  0  0  0  0  0  0  0  0  0  0
   -0.1691   -0.7029    0.5921 C   0  0  0  0  0  0  0  0  0  0  0  0
   -1.2541   -1.0553   -0.3873 C   0  0  0  0  0  0  0  0  0  0  0  0
   -1.3670    0.0106   -1.4165 O   0  0  0  0  0  0  0  0  0  0  0  0
   -2.4540   -0.3033   -0.5945 C   0  0  0  0  0  0  0  0  0  0  0  0
   -2.9471    0.7643    0.3607 C   0  0  0  0  0  0  0  0  0  0  0  0
    3.2854    0.6436   -1.1855 H   0  0  0  0  0  0  0  0  0  0  0  0
    3.8801    1.2887    0.4174 H   0  0  0  0  0  0  0  0  0  0  0  0
    2.2346    1.8153   -0.2017 H   0  0  0  0  0  0  0  0  0  0  0  0
    2.2359   -0.0069    1.6029 H   0  0  0  0  0  0  0  0  0  0  0  0
    3.1147   -1.0701    0.4244 H   0  0  0  0  0  0  0  0  0  0  0  0
   -0.3484    0.2956    1.0723 H   0  0  0  0  0  0  0  0  0  0  0  0
   -0.1307   -1.4100    1.4483 H   0  0  0  0  0  0  0  0  0  0  0  0
   -1.1571   -2.0478   -0.8835 H   0  0  0  0  0  0  0  0  0  0  0  0
   -3.2794   -0.8060   -1.1627 H   0  0  0  0  0  0  0  0  0  0  0  0
   -2.2520    0.9020    1.2072 H   0  0  0  0  0  0  0  0  0  0  0  0
   -3.1117    1.7320   -0.1837 H   0  0  0  0  0  0  0  0  0  0  0  0
   -3.9350    0.4618    0.7692 H   0  0  0  0  0  0  0  0  0  0  0  0
  1  2  1  0
  2  3  1  0
  3  4  2  0
  3  5  1  0
  5  6  1  0
  6  7  1  0
  7  8  1  0
  8  9  1  0
  8  6  1  0
  1 10  1  0
  1 11  1  0
  1 12  1  0
  2 13  1  0
  2 14  1  0
  5 15  1  0
  5 16  1  0
  6 17  1  0
  8 18  1  0
  9 19  1  0
  9 20  1  0
  9 21  1  0
M  END
