
     RDKit          3D

 25 25  0  0  0  0  0  0  0  0999 V2000
   -2.3256    0.2796   -1.4350 C   0  0  0  0  0  0  0  0  0  0  0  0
   -1.0368   -0.4446   -1.0274 C   0  0  0  0  0  0  0  0  0  0  0  0
   -0.5593   -0.0067    0.3040 C   0  0  0  0  0  0  0  0  0  0  0  0
   -1.6650   -0.3172    1.3486 C   0  0  0  0  0  0  0  0  0  0  0  0
   -1.1179    0.1324    2.5682 O   0  0  0  0  0  0  0  0  0  0  0  0
    0.6766   -0.5681    0.8448 C   0  0  0  0  0  0  0  0  0  0  0  0
    1.9939   -0.3913    0.2362 C   0  0  0  0  0  0  0  0  0  0  0  0
    2.6553    0.9159    0.0513 C   0  0  0  0  0  0  0  0  0  0  0  0
    2.3216   -0.0053   -1.1558 C   0  0  0  0  0  0  0  0  0  0  0  0
   -2.4728    0.0422   -2.5082 H   0  0  0  0  0  0  0  0  0  0  0  0
   -3.2009   -0.1683   -0.8929 H   0  0  0  0  0  0  0  0  0  0  0  0
   -2.2492    1.3591   -1.3298 H   0  0  0  0  0  0  0  0  0  0  0  0
   -1.3243   -1.5261   -1.0611 H   0  0  0  0  0  0  0  0  0  0  0  0
   -0.3412   -0.2656   -1.8413 H   0  0  0  0  0  0  0  0  0  0  0  0
   -0.5764    1.1274    0.2982 H   0  0  0  0  0  0  0  0  0  0  0  0
   -2.5569    0.2787    1.1680 H   0  0  0  0  0  0  0  0  0  0  0  0
   -1.8633   -1.3973    1.3904 H   0  0  0  0  0  0  0  0  0  0  0  0
   -1.1296    1.1266    2.5731 H   0  0  0  0  0  0  0  0  0  0  0  0
    0.7760   -0.2130    1.9402 H   0  0  0  0  0  0  0  0  0  0  0  0
    0.4583   -1.6849    1.0529 H   0  0  0  0  0  0  0  0  0  0  0  0
    2.7351   -1.1895    0.6190 H   0  0  0  0  0  0  0  0  0  0  0  0
    2.1311    1.8709    0.0964 H   0  0  0  0  0  0  0  0  0  0  0  0
    3.7336    1.0117    0.2848 H   0  0  0  0  0  0  0  0  0  0  0  0
    3.2481   -0.4587   -1.6452 H   0  0  0  0  0  0  0  0  0  0  0  0
    1.6898    0.4921   -1.8794 H   0  0  0  0  0  0  0  0  0  0  0  0
  1  2  1  0
  2  3  1  0
  3  4  1  0
  4  5  1  0
  3  6  1  0
  6  7  1  0
  7  8  1  0
  8  9  1  0
  9  7  1  0
  1 10  1  0
  1 11  1  0
  1 12  1  0
  2 13  1  0
  2 14  1  0
  3 15  1  0
  4 16  1  0
  4 17  1  0
  5 18  1  0
  6 19  1  0
  6 20  1  0
  7 21  1  0
  8 22  1  0
  8 23  1  0
  9 24  1  0
  9 25  1  0
M  END
