
     RDKit          3D

 21 20  0  0  0  0  0  0  0  0999 V2000
   -1.9583    0.6428   -0.7800 C   0  0  0  0  0  0  0  0  0  0  0  0
   -1.5304    0.2209    0.6281 C   0  0  0  0  0  0  0  0  0  0  0  0
   -0.4928   -0.8878    0.5526 C   0  0  0  0  0  0  0  0  0  0  0  0
   -0.1393   -1.2331    1.8375 O   0  0  0  0  0  0  0  0  0  0  0  0
    0.6505   -0.5117   -0.3265 C   0  0  0  0  0  0  0  0  0  0  0  0
    1.5391   -1.5717   -0.4353 O   0  0  0  0  0  0  0  0  0  0  0  0
    1.3817    0.7212    0.1584 C   0  0  0  0  0  0  0  0  0  0  0  0
    2.5117    1.0659   -0.7388 C   0  0  0  0  0  0  0  0  0  0  0  0
    3.1924    2.0404   -0.4694 O   0  0  0  0  0  0  0  0  0  0  0  0
   -1.7786   -0.1811   -1.5013 H   0  0  0  0  0  0  0  0  0  0  0  0
   -1.3993    1.5478   -1.1134 H   0  0  0  0  0  0  0  0  0  0  0  0
   -3.0718    0.8254   -0.8096 H   0  0  0  0  0  0  0  0  0  0  0  0
   -1.1279    1.0694    1.2051 H   0  0  0  0  0  0  0  0  0  0  0  0
   -2.4470   -0.1285    1.1355 H   0  0  0  0  0  0  0  0  0  0  0  0
   -1.0100   -1.7600    0.1040 H   0  0  0  0  0  0  0  0  0  0  0  0
   -0.8032   -1.8882    2.1892 H   0  0  0  0  0  0  0  0  0  0  0  0
    0.2501   -0.3248   -1.3435 H   0  0  0  0  0  0  0  0  0  0  0  0
    1.1086   -2.4006   -0.7178 H   0  0  0  0  0  0  0  0  0  0  0  0
    0.6695    1.5955    0.1024 H   0  0  0  0  0  0  0  0  0  0  0  0
    1.6699    0.6461    1.2218 H   0  0  0  0  0  0  0  0  0  0  0  0
    2.7850    0.5121   -1.6284 H   0  0  0  0  0  0  0  0  0  0  0  0
  1  2  1  0
  2  3  1  0
  3  4  1  0
  3  5  1  0
  5  6  1  0
  5  7  1  0
  7  8  1  0
  8  9  2  0
  1 10  1  0
  1 11  1  0
  1 12  1  0
  2 13  1  0
  2 14  1  0
  3 15  1  0
  4 16  1  0
  5 17  1  0
  6 18  1  0
  7 19  1  0
  7 20  1  0
  8 21  1  0
M  END
