
     RDKit          3D

 19 18  0  0  0  0  0  0  0  0999 V2000
   -2.9434    0.4759   -0.0126 C   0  0  0  0  0  0  0  0  0  0  0  0
   -1.5669    1.0313    0.3236 C   0  0  0  0  0  0  0  0  0  0  0  0
   -0.5694   -0.0209    0.0285 C   0  0  0  0  0  0  0  0  0  0  0  0
   -0.4766   -0.9815    0.8017 O   0  0  0  0  0  0  0  0  0  0  0  0
    0.2314    0.0922   -1.0987 O   0  0  0  0  0  0  0  0  0  0  0  0
    1.1904   -0.8791   -1.4075 C   0  0  0  0  0  0  0  0  0  0  0  0
    2.2303   -0.9056   -0.3568 C   0  0  0  0  0  0  0  0  0  0  0  0
    2.2284    0.0687    0.7471 C   0  0  0  0  0  0  0  0  0  0  0  0
    3.1246   -1.7449   -0.3848 O   0  0  0  0  0  0  0  0  0  0  0  0
   -3.3131   -0.0602    0.8912 H   0  0  0  0  0  0  0  0  0  0  0  0
   -3.6566    1.3040   -0.2178 H   0  0  0  0  0  0  0  0  0  0  0  0
   -2.9114   -0.1752   -0.9095 H   0  0  0  0  0  0  0  0  0  0  0  0
   -1.4850    1.2680    1.4042 H   0  0  0  0  0  0  0  0  0  0  0  0
   -1.3379    1.9221   -0.2839 H   0  0  0  0  0  0  0  0  0  0  0  0
    0.7421   -1.8873   -1.5672 H   0  0  0  0  0  0  0  0  0  0  0  0
    1.6885   -0.5327   -2.3572 H   0  0  0  0  0  0  0  0  0  0  0  0
    1.9876   -0.3956    1.7369 H   0  0  0  0  0  0  0  0  0  0  0  0
    1.5719    0.9245    0.6081 H   0  0  0  0  0  0  0  0  0  0  0  0
    3.2651    0.4963    0.7875 H   0  0  0  0  0  0  0  0  0  0  0  0
  1  2  1  0
  2  3  1  0
  3  4  2  0
  3  5  1  0
  5  6  1  0
  6  7  1  0
  7  8  1  0
  7  9  2  0
  1 10  1  0
  1 11  1  0
  1 12  1  0
  2 13  1  0
  2 14  1  0
  6 15  1  0
  6 16  1  0
  8 17  1  0
  8 18  1  0
  8 19  1  0
M  END
