
     RDKit          3D

 23 22  0  0  0  0  0  0  0  0999 V2000
    2.0584   -1.3156   -0.3294 C   0  0  0  0  0  0  0  0  0  0  0  0
    0.5983   -1.1338    0.0002 C   0  0  0  0  0  0  0  0  0  0  0  0
    0.1220    0.2691   -0.1441 C   0  0  0  0  0  0  0  0  0  0  0  0
    0.2510    0.7998   -1.4066 O   0  0  0  0  0  0  0  0  0  0  0  0
    0.7970    1.2219    0.8227 C   0  0  0  0  0  0  0  0  0  0  0  0
    0.2097    2.4756    0.7841 O   0  0  0  0  0  0  0  0  0  0  0  0
   -1.3775    0.2538    0.1808 C   0  0  0  0  0  0  0  0  0  0  0  0
   -2.0091   -0.7086   -0.7948 C   0  0  0  0  0  0  0  0  0  0  0  0
   -1.5802   -0.2769    1.4578 O   0  0  0  0  0  0  0  0  0  0  0  0
    2.3129   -2.3775   -0.1080 H   0  0  0  0  0  0  0  0  0  0  0  0
    2.2545   -1.1654   -1.4114 H   0  0  0  0  0  0  0  0  0  0  0  0
    2.6866   -0.6746    0.3165 H   0  0  0  0  0  0  0  0  0  0  0  0
    0.4509   -1.4432    1.0495 H   0  0  0  0  0  0  0  0  0  0  0  0
    0.0144   -1.7656   -0.6995 H   0  0  0  0  0  0  0  0  0  0  0  0
    0.2615    1.7779   -1.3973 H   0  0  0  0  0  0  0  0  0  0  0  0
    1.8615    1.3378    0.5492 H   0  0  0  0  0  0  0  0  0  0  0  0
    0.7379    0.8619    1.8608 H   0  0  0  0  0  0  0  0  0  0  0  0
    0.7518    3.1123    0.2219 H   0  0  0  0  0  0  0  0  0  0  0  0
   -1.7756    1.2820    0.0962 H   0  0  0  0  0  0  0  0  0  0  0  0
   -3.0467   -0.3720   -1.0112 H   0  0  0  0  0  0  0  0  0  0  0  0
   -1.4325   -0.7686   -1.7421 H   0  0  0  0  0  0  0  0  0  0  0  0
   -2.0944   -1.7156   -0.3540 H   0  0  0  0  0  0  0  0  0  0  0  0
   -2.0523    0.3253    2.0586 H   0  0  0  0  0  0  0  0  0  0  0  0
  1  2  1  0
  2  3  1  0
  3  4  1  0
  3  5  1  0
  5  6  1  0
  3  7  1  0
  7  8  1  0
  7  9  1  0
  1 10  1  0
  1 11  1  0
  1 12  1  0
  2 13  1  0
  2 14  1  0
  4 15  1  0
  5 16  1  0
  5 17  1  0
  6 18  1  0
  7 19  1  0
  8 20  1  0
  8 21  1  0
  8 22  1  0
  9 23  1  0
M  END
