
     RDKit          3D

 23 23  0  0  0  0  0  0  0  0999 V2000
   -1.8755    1.1794    0.2868 C   0  0  0  0  0  0  0  0  0  0  0  0
   -1.3917    0.1134    1.2345 C   0  0  0  0  0  0  0  0  0  0  0  0
   -1.0042   -1.1545    0.6179 C   0  0  0  0  0  0  0  0  0  0  0  0
   -2.1273   -1.6694   -0.0776 O   0  0  0  0  0  0  0  0  0  0  0  0
    0.1716   -1.2733   -0.2364 C   0  0  0  0  0  0  0  0  0  0  0  0
    0.3128   -0.4779   -1.4955 C   0  0  0  0  0  0  0  0  0  0  0  0
    1.3037   -0.3591   -0.3236 C   0  0  0  0  0  0  0  0  0  0  0  0
    1.3900    0.8500    0.3007 O   0  0  0  0  0  0  0  0  0  0  0  0
    2.7179    1.2173    0.4682 C   0  0  0  0  0  0  0  0  0  0  0  0
   -2.7051    1.7655    0.7566 H   0  0  0  0  0  0  0  0  0  0  0  0
   -2.3270    0.6450   -0.5898 H   0  0  0  0  0  0  0  0  0  0  0  0
   -1.1130    1.8793   -0.0616 H   0  0  0  0  0  0  0  0  0  0  0  0
   -2.2629   -0.0977    1.9263 H   0  0  0  0  0  0  0  0  0  0  0  0
   -0.6383    0.6007    1.8805 H   0  0  0  0  0  0  0  0  0  0  0  0
   -0.8844   -1.9598    1.4377 H   0  0  0  0  0  0  0  0  0  0  0  0
   -2.0179   -1.3929   -1.0219 H   0  0  0  0  0  0  0  0  0  0  0  0
    0.4365   -2.3693   -0.4228 H   0  0  0  0  0  0  0  0  0  0  0  0
    0.6943   -0.9714   -2.4306 H   0  0  0  0  0  0  0  0  0  0  0  0
   -0.2611    0.4199   -1.7089 H   0  0  0  0  0  0  0  0  0  0  0  0
    2.3104   -0.8026   -0.5702 H   0  0  0  0  0  0  0  0  0  0  0  0
    2.8099    2.1895    0.9699 H   0  0  0  0  0  0  0  0  0  0  0  0
    3.2547    1.2753   -0.5070 H   0  0  0  0  0  0  0  0  0  0  0  0
    3.2066    0.3924    1.0310 H   0  0  0  0  0  0  0  0  0  0  0  0
  1  2  1  0
  2  3  1  0
  3  4  1  0
  3  5  1  0
  5  6  1  0
  6  7  1  0
  7  8  1  0
  8  9  1  0
  7  5  1  0
  1 10  1  0
  1 11  1  0
  1 12  1  0
  2 13  1  0
  2 14  1  0
  3 15  1  0
  4 16  1  0
  5 17  1  0
  6 18  1  0
  6 19  1  0
  7 20  1  0
  9 21  1  0
  9 22  1  0
  9 23  1  0
M  END
