
     RDKit          3D

 21 21  0  0  0  0  0  0  0  0999 V2000
    3.4046    0.1771    0.0806 C   0  0  0  0  0  0  0  0  0  0  0  0
    2.1655   -0.1640   -0.7216 C   0  0  0  0  0  0  0  0  0  0  0  0
    0.9032    0.2331   -0.0619 C   0  0  0  0  0  0  0  0  0  0  0  0
    0.7386    1.3820    0.3003 O   0  0  0  0  0  0  0  0  0  0  0  0
   -0.1496   -0.7843    0.1501 C   0  0  0  0  0  0  0  0  0  0  0  0
   -1.3831   -0.2599    0.8058 C   0  0  0  0  0  0  0  0  0  0  0  0
   -2.1346    0.8294    0.1010 C   0  0  0  0  0  0  0  0  0  0  0  0
   -3.3736   -0.0398    0.3286 C   0  0  0  0  0  0  0  0  0  0  0  0
   -2.4712   -1.0962    0.5620 O   0  0  0  0  0  0  0  0  0  0  0  0
    3.7961    1.1924   -0.2279 H   0  0  0  0  0  0  0  0  0  0  0  0
    3.2102    0.2324    1.1660 H   0  0  0  0  0  0  0  0  0  0  0  0
    4.2464   -0.5378   -0.0990 H   0  0  0  0  0  0  0  0  0  0  0  0
    2.2807    0.3538   -1.7183 H   0  0  0  0  0  0  0  0  0  0  0  0
    2.1828   -1.2556   -0.9415 H   0  0  0  0  0  0  0  0  0  0  0  0
   -0.3217   -1.2838   -0.8064 H   0  0  0  0  0  0  0  0  0  0  0  0
    0.3171   -1.5406    0.8388 H   0  0  0  0  0  0  0  0  0  0  0  0
   -1.2545   -0.1178    1.8997 H   0  0  0  0  0  0  0  0  0  0  0  0
   -1.9256    0.8852   -0.9883 H   0  0  0  0  0  0  0  0  0  0  0  0
   -2.2635    1.7828    0.6381 H   0  0  0  0  0  0  0  0  0  0  0  0
   -3.9717    0.2165    1.2139 H   0  0  0  0  0  0  0  0  0  0  0  0
   -3.9962   -0.2050   -0.5661 H   0  0  0  0  0  0  0  0  0  0  0  0
  1  2  1  0
  2  3  1  0
  3  4  2  0
  3  5  1  0
  5  6  1  0
  6  7  1  0
  7  8  1  0
  8  9  1  0
  9  6  1  0
  1 10  1  0
  1 11  1  0
  1 12  1  0
  2 13  1  0
  2 14  1  0
  5 15  1  0
  5 16  1  0
  6 17  1  0
  7 18  1  0
  7 19  1  0
  8 20  1  0
  8 21  1  0
M  END
