
     RDKit          3D

 21 21  0  0  0  0  0  0  0  0999 V2000
    1.4333   -1.5685   -0.1044 C   0  0  0  0  0  0  0  0  0  0  0  0
    1.2138   -0.2661    0.6242 C   0  0  0  0  0  0  0  0  0  0  0  0
    0.2626    0.6564   -0.0291 C   0  0  0  0  0  0  0  0  0  0  0  0
    0.2071    1.8388    0.8095 O   0  0  0  0  0  0  0  0  0  0  0  0
    0.6478    3.0408    0.2805 C   0  0  0  0  0  0  0  0  0  0  0  0
    1.0700    3.0388   -0.8940 O   0  0  0  0  0  0  0  0  0  0  0  0
   -1.1359    0.2153   -0.2167 C   0  0  0  0  0  0  0  0  0  0  0  0
   -1.5687   -0.9632   -0.9927 C   0  0  0  0  0  0  0  0  0  0  0  0
   -1.8044   -0.8490    0.5390 C   0  0  0  0  0  0  0  0  0  0  0  0
    1.4151   -1.4514   -1.2084 H   0  0  0  0  0  0  0  0  0  0  0  0
    0.7632   -2.3636    0.2137 H   0  0  0  0  0  0  0  0  0  0  0  0
    2.4747   -1.9726    0.1068 H   0  0  0  0  0  0  0  0  0  0  0  0
    2.2299    0.2263    0.6662 H   0  0  0  0  0  0  0  0  0  0  0  0
    0.9821   -0.4998    1.6808 H   0  0  0  0  0  0  0  0  0  0  0  0
    0.6801    0.9275   -1.0326 H   0  0  0  0  0  0  0  0  0  0  0  0
    0.6016    3.9131    0.9136 H   0  0  0  0  0  0  0  0  0  0  0  0
   -1.8130    1.1135   -0.4104 H   0  0  0  0  0  0  0  0  0  0  0  0
   -2.5360   -0.9253   -1.5834 H   0  0  0  0  0  0  0  0  0  0  0  0
   -0.9274   -1.7660   -1.3406 H   0  0  0  0  0  0  0  0  0  0  0  0
   -1.3150   -1.6264    1.1171 H   0  0  0  0  0  0  0  0  0  0  0  0
   -2.8808   -0.7185    0.8609 H   0  0  0  0  0  0  0  0  0  0  0  0
  1  2  1  0
  2  3  1  0
  3  4  1  0
  4  5  1  0
  5  6  2  0
  3  7  1  0
  7  8  1  0
  8  9  1  0
  9  7  1  0
  1 10  1  0
  1 11  1  0
  1 12  1  0
  2 13  1  0
  2 14  1  0
  3 15  1  0
  5 16  1  0
  7 17  1  0
  8 18  1  0
  8 19  1  0
  9 20  1  0
  9 21  1  0
M  END
