
     RDKit          3D

 23 22  0  0  0  0  0  0  0  0999 V2000
   -2.7258   -0.8022    0.5108 C   0  0  0  0  0  0  0  0  0  0  0  0
   -1.4781   -0.0119    0.7323 C   0  0  0  0  0  0  0  0  0  0  0  0
   -0.9559    0.6670   -0.5095 C   0  0  0  0  0  0  0  0  0  0  0  0
   -0.6135   -0.2772   -1.6176 C   0  0  0  0  0  0  0  0  0  0  0  0
    0.2702    1.4489   -0.1062 C   0  0  0  0  0  0  0  0  0  0  0  0
    1.3462    0.6005    0.4636 C   0  0  0  0  0  0  0  0  0  0  0  0
    1.3202    0.2384    1.6887 O   0  0  0  0  0  0  0  0  0  0  0  0
    2.4444    0.1363   -0.2580 O   0  0  0  0  0  0  0  0  0  0  0  0
    3.4425   -0.6829    0.3749 C   0  0  0  0  0  0  0  0  0  0  0  0
   -3.0203   -0.9261   -0.5399 H   0  0  0  0  0  0  0  0  0  0  0  0
   -3.5555   -0.2545    1.0461 H   0  0  0  0  0  0  0  0  0  0  0  0
   -2.6615   -1.8010    0.9896 H   0  0  0  0  0  0  0  0  0  0  0  0
   -1.5820    0.7251    1.5209 H   0  0  0  0  0  0  0  0  0  0  0  0
   -0.6786   -0.7491    1.0332 H   0  0  0  0  0  0  0  0  0  0  0  0
   -1.6822    1.4263   -0.8987 H   0  0  0  0  0  0  0  0  0  0  0  0
    0.1787    0.1799   -2.2714 H   0  0  0  0  0  0  0  0  0  0  0  0
   -0.2866   -1.2675   -1.2723 H   0  0  0  0  0  0  0  0  0  0  0  0
   -1.5175   -0.4076   -2.2808 H   0  0  0  0  0  0  0  0  0  0  0  0
    0.5899    2.0315   -0.9746 H   0  0  0  0  0  0  0  0  0  0  0  0
    0.0009    2.1818    0.7081 H   0  0  0  0  0  0  0  0  0  0  0  0
    4.4221   -0.2720    0.0192 H   0  0  0  0  0  0  0  0  0  0  0  0
    3.4201   -0.4393    1.4751 H   0  0  0  0  0  0  0  0  0  0  0  0
    3.3222   -1.7444    0.1666 H   0  0  0  0  0  0  0  0  0  0  0  0
  1  2  1  0
  2  3  1  0
  3  4  1  0
  3  5  1  0
  5  6  1  0
  6  7  2  0
  6  8  1  0
  8  9  1  0
  1 10  1  0
  1 11  1  0
  1 12  1  0
  2 13  1  0
  2 14  1  0
  3 15  1  0
  4 16  1  0
  4 17  1  0
  4 18  1  0
  5 19  1  0
  5 20  1  0
  9 21  1  0
  9 22  1  0
  9 23  1  0
M  END
