
     RDKit          3D

 25 24  0  0  0  0  0  0  0  0999 V2000
   -1.6565    1.8047   -0.6144 C   0  0  0  0  0  0  0  0  0  0  0  0
   -1.2990    0.4339   -1.1840 C   0  0  0  0  0  0  0  0  0  0  0  0
   -0.8944   -0.4330   -0.0595 C   0  0  0  0  0  0  0  0  0  0  0  0
    0.2988    0.1716    0.6408 C   0  0  0  0  0  0  0  0  0  0  0  0
    1.5000    0.3388   -0.2398 C   0  0  0  0  0  0  0  0  0  0  0  0
    2.5985    0.9549    0.6332 C   0  0  0  0  0  0  0  0  0  0  0  0
    1.9920   -0.8399   -0.7368 O   0  0  0  0  0  0  0  0  0  0  0  0
   -0.5699   -1.7300   -0.3878 O   0  0  0  0  0  0  0  0  0  0  0  0
   -1.3223   -2.6855    0.2655 C   0  0  0  0  0  0  0  0  0  0  0  0
   -0.7193    2.3785   -0.5423 H   0  0  0  0  0  0  0  0  0  0  0  0
   -2.0402    1.6811    0.4194 H   0  0  0  0  0  0  0  0  0  0  0  0
   -2.3987    2.3322   -1.2174 H   0  0  0  0  0  0  0  0  0  0  0  0
   -2.1875    0.0848   -1.7455 H   0  0  0  0  0  0  0  0  0  0  0  0
   -0.5073    0.6179   -1.9346 H   0  0  0  0  0  0  0  0  0  0  0  0
   -1.7265   -0.4993    0.6902 H   0  0  0  0  0  0  0  0  0  0  0  0
    0.5838   -0.5402    1.4477 H   0  0  0  0  0  0  0  0  0  0  0  0
    0.0103    1.1635    1.0529 H   0  0  0  0  0  0  0  0  0  0  0  0
    1.2927    1.0059   -1.1175 H   0  0  0  0  0  0  0  0  0  0  0  0
    3.4681    0.2779    0.7332 H   0  0  0  0  0  0  0  0  0  0  0  0
    2.9669    1.8684    0.1278 H   0  0  0  0  0  0  0  0  0  0  0  0
    2.2443    1.1664    1.6603 H   0  0  0  0  0  0  0  0  0  0  0  0
    2.8445   -0.6375   -1.2059 H   0  0  0  0  0  0  0  0  0  0  0  0
   -1.2038   -2.6098    1.3481 H   0  0  0  0  0  0  0  0  0  0  0  0
   -2.3773   -2.6249   -0.0834 H   0  0  0  0  0  0  0  0  0  0  0  0
   -0.8971   -3.6804   -0.0301 H   0  0  0  0  0  0  0  0  0  0  0  0
  1  2  1  0
  2  3  1  0
  3  4  1  0
  4  5  1  0
  5  6  1  0
  5  7  1  0
  3  8  1  0
  8  9  1  0
  1 10  1  0
  1 11  1  0
  1 12  1  0
  2 13  1  0
  2 14  1  0
  3 15  1  0
  4 16  1  0
  4 17  1  0
  5 18  1  0
  6 19  1  0
  6 20  1  0
  6 21  1  0
  7 22  1  0
  9 23  1  0
  9 24  1  0
  9 25  1  0
M  END
