
     RDKit          3D

 22 21  0  0  0  0  0  0  0  0999 V2000
    1.9832   -1.3975    0.0359 C   0  0  0  0  0  0  0  0  0  0  0  0
    1.5425   -0.0172   -0.3730 C   0  0  0  0  0  0  0  0  0  0  0  0
    0.3441    0.4678    0.3839 C   0  0  0  0  0  0  0  0  0  0  0  0
    0.0074    1.8575   -0.1201 C   0  0  0  0  0  0  0  0  0  0  0  0
   -0.8368   -0.4597    0.2062 C   0  0  0  0  0  0  0  0  0  0  0  0
   -2.0326    0.0446    0.9748 C   0  0  0  0  0  0  0  0  0  0  0  0
   -1.2358   -0.6111   -1.2053 C   0  0  0  0  0  0  0  0  0  0  0  0
   -1.7026   -1.6581   -1.5897 O   0  0  0  0  0  0  0  0  0  0  0  0
    2.7933   -1.6951   -0.6903 H   0  0  0  0  0  0  0  0  0  0  0  0
    2.4547   -1.3551    1.0508 H   0  0  0  0  0  0  0  0  0  0  0  0
    1.2119   -2.1617   -0.0416 H   0  0  0  0  0  0  0  0  0  0  0  0
    1.3407   -0.0078   -1.4430 H   0  0  0  0  0  0  0  0  0  0  0  0
    2.3987    0.6639   -0.1902 H   0  0  0  0  0  0  0  0  0  0  0  0
    0.5320    0.5630    1.4708 H   0  0  0  0  0  0  0  0  0  0  0  0
   -1.0266    2.1311    0.1757 H   0  0  0  0  0  0  0  0  0  0  0  0
    0.1833    1.9619   -1.2112 H   0  0  0  0  0  0  0  0  0  0  0  0
    0.7533    2.5504    0.3649 H   0  0  0  0  0  0  0  0  0  0  0  0
   -0.5550   -1.4386    0.6773 H   0  0  0  0  0  0  0  0  0  0  0  0
   -2.6119    0.8021    0.4001 H   0  0  0  0  0  0  0  0  0  0  0  0
   -2.7283   -0.8412    1.0730 H   0  0  0  0  0  0  0  0  0  0  0  0
   -1.6973    0.4033    1.9521 H   0  0  0  0  0  0  0  0  0  0  0  0
   -1.1181    0.1977   -1.9014 H   0  0  0  0  0  0  0  0  0  0  0  0
  1  2  1  0
  2  3  1  0
  3  4  1  0
  3  5  1  0
  5  6  1  0
  5  7  1  0
  7  8  2  0
  1  9  1  0
  1 10  1  0
  1 11  1  0
  2 12  1  0
  2 13  1  0
  3 14  1  0
  4 15  1  0
  4 16  1  0
  4 17  1  0
  5 18  1  0
  6 19  1  0
  6 20  1  0
  6 21  1  0
  7 22  1  0
M  END
