
     RDKit          3D

 21 20  0  0  0  0  0  0  0  0999 V2000
    1.9532   -0.6961    1.0128 C   0  0  0  0  0  0  0  0  0  0  0  0
    1.3191   -0.4507   -0.3169 C   0  0  0  0  0  0  0  0  0  0  0  0
   -0.0452    0.1470   -0.2469 C   0  0  0  0  0  0  0  0  0  0  0  0
   -0.1022    1.4736    0.4354 C   0  0  0  0  0  0  0  0  0  0  0  0
   -0.5167    0.3522   -1.6939 C   0  0  0  0  0  0  0  0  0  0  0  0
   -1.0052   -0.8163    0.3552 C   0  0  0  0  0  0  0  0  0  0  0  0
   -0.5960   -1.9470    0.7138 O   0  0  0  0  0  0  0  0  0  0  0  0
   -2.4126   -0.5009    0.5482 C   0  0  0  0  0  0  0  0  0  0  0  0
   -2.8557    0.6303    0.1970 O   0  0  0  0  0  0  0  0  0  0  0  0
    1.8401    0.1493    1.7221 H   0  0  0  0  0  0  0  0  0  0  0  0
    1.6127   -1.6473    1.4160 H   0  0  0  0  0  0  0  0  0  0  0  0
    3.0599   -0.8003    0.8321 H   0  0  0  0  0  0  0  0  0  0  0  0
    1.2196   -1.4438   -0.8241 H   0  0  0  0  0  0  0  0  0  0  0  0
    1.9675    0.1565   -0.9970 H   0  0  0  0  0  0  0  0  0  0  0  0
   -0.7981    2.1831   -0.0652 H   0  0  0  0  0  0  0  0  0  0  0  0
   -0.4552    1.3042    1.4810 H   0  0  0  0  0  0  0  0  0  0  0  0
    0.8675    1.9906    0.5147 H   0  0  0  0  0  0  0  0  0  0  0  0
    0.3378    0.5954   -2.3376 H   0  0  0  0  0  0  0  0  0  0  0  0
   -1.3054    1.1352   -1.6931 H   0  0  0  0  0  0  0  0  0  0  0  0
   -1.0181   -0.5764   -2.0444 H   0  0  0  0  0  0  0  0  0  0  0  0
   -3.0668   -1.2386    0.9909 H   0  0  0  0  0  0  0  0  0  0  0  0
  1  2  1  0
  2  3  1  0
  3  4  1  0
  3  5  1  0
  3  6  1  0
  6  7  2  0
  6  8  1  0
  8  9  2  0
  1 10  1  0
  1 11  1  0
  1 12  1  0
  2 13  1  0
  2 14  1  0
  4 15  1  0
  4 16  1  0
  4 17  1  0
  5 18  1  0
  5 19  1  0
  5 20  1  0
  8 21  1  0
M  END
