
     RDKit          3D

 23 22  0  0  0  0  0  0  0  0999 V2000
    2.2527    0.8075    0.0777 C   0  0  0  0  0  0  0  0  0  0  0  0
    1.6334   -0.5415    0.2875 C   0  0  0  0  0  0  0  0  0  0  0  0
    0.3741   -0.7841   -0.4860 C   0  0  0  0  0  0  0  0  0  0  0  0
   -0.0082   -2.1189   -0.1448 O   0  0  0  0  0  0  0  0  0  0  0  0
   -0.8028    0.0437   -0.0926 C   0  0  0  0  0  0  0  0  0  0  0  0
   -0.6482    1.5199   -0.2222 C   0  0  0  0  0  0  0  0  0  0  0  0
   -1.9775   -0.3984   -0.9446 C   0  0  0  0  0  0  0  0  0  0  0  0
   -1.1095   -0.2259    1.3533 C   0  0  0  0  0  0  0  0  0  0  0  0
   -1.8807   -1.1221    1.6285 O   0  0  0  0  0  0  0  0  0  0  0  0
    1.7657    1.5804    0.6754 H   0  0  0  0  0  0  0  0  0  0  0  0
    2.2639    1.0038   -1.0245 H   0  0  0  0  0  0  0  0  0  0  0  0
    3.3258    0.8036    0.3882 H   0  0  0  0  0  0  0  0  0  0  0  0
    2.4323   -1.2934    0.0267 H   0  0  0  0  0  0  0  0  0  0  0  0
    1.3830   -0.7381    1.3558 H   0  0  0  0  0  0  0  0  0  0  0  0
    0.5509   -0.8087   -1.5694 H   0  0  0  0  0  0  0  0  0  0  0  0
    0.0429   -2.2351    0.8428 H   0  0  0  0  0  0  0  0  0  0  0  0
   -1.6516    1.9209   -0.5824 H   0  0  0  0  0  0  0  0  0  0  0  0
   -0.5441    2.0284    0.7719 H   0  0  0  0  0  0  0  0  0  0  0  0
    0.0625    1.8593   -0.9808 H   0  0  0  0  0  0  0  0  0  0  0  0
   -1.6398   -1.0464   -1.8033 H   0  0  0  0  0  0  0  0  0  0  0  0
   -2.5118    0.4564   -1.4064 H   0  0  0  0  0  0  0  0  0  0  0  0
   -2.6292   -1.0433   -0.3261 H   0  0  0  0  0  0  0  0  0  0  0  0
   -0.6837    0.3322    2.1753 H   0  0  0  0  0  0  0  0  0  0  0  0
  1  2  1  0
  2  3  1  0
  3  4  1  0
  3  5  1  0
  5  6  1  0
  5  7  1  0
  5  8  1  0
  8  9  2  0
  1 10  1  0
  1 11  1  0
  1 12  1  0
  2 13  1  0
  2 14  1  0
  3 15  1  0
  4 16  1  0
  6 17  1  0
  6 18  1  0
  6 19  1  0
  7 20  1  0
  7 21  1  0
  7 22  1  0
  8 23  1  0
M  END
