
     RDKit          3D

 23 23  0  0  0  0  0  0  0  0999 V2000
    2.7851   -0.7439    0.3243 C   0  0  0  0  0  0  0  0  0  0  0  0
    1.3106   -0.9557    0.0444 C   0  0  0  0  0  0  0  0  0  0  0  0
    0.5678    0.3032    0.4442 C   0  0  0  0  0  0  0  0  0  0  0  0
    1.1593    1.4248   -0.4195 C   0  0  0  0  0  0  0  0  0  0  0  0
   -0.8884    0.1695    0.2066 C   0  0  0  0  0  0  0  0  0  0  0  0
   -1.4790   -0.9275   -0.2430 C   0  0  0  0  0  0  0  0  0  0  0  0
   -2.9370   -0.6539   -0.3432 C   0  0  0  0  0  0  0  0  0  0  0  0
   -3.1245    0.3789    0.5437 O   0  0  0  0  0  0  0  0  0  0  0  0
   -1.9765    1.1555    0.3993 C   0  0  0  0  0  0  0  0  0  0  0  0
    3.2940   -0.5061   -0.6488 H   0  0  0  0  0  0  0  0  0  0  0  0
    2.9551    0.0467    1.0805 H   0  0  0  0  0  0  0  0  0  0  0  0
    3.2003   -1.7238    0.7016 H   0  0  0  0  0  0  0  0  0  0  0  0
    1.1504   -1.1670   -1.0482 H   0  0  0  0  0  0  0  0  0  0  0  0
    0.9243   -1.8484    0.5771 H   0  0  0  0  0  0  0  0  0  0  0  0
    0.7971    0.5237    1.4974 H   0  0  0  0  0  0  0  0  0  0  0  0
    2.2556    1.2373   -0.4355 H   0  0  0  0  0  0  0  0  0  0  0  0
    0.7947    1.2175   -1.4586 H   0  0  0  0  0  0  0  0  0  0  0  0
    0.8804    2.4142   -0.0505 H   0  0  0  0  0  0  0  0  0  0  0  0
   -1.0444   -1.8865   -0.5102 H   0  0  0  0  0  0  0  0  0  0  0  0
   -3.1554   -0.3869   -1.3996 H   0  0  0  0  0  0  0  0  0  0  0  0
   -3.4983   -1.5783   -0.0585 H   0  0  0  0  0  0  0  0  0  0  0  0
   -1.8739    1.7563    1.3125 H   0  0  0  0  0  0  0  0  0  0  0  0
   -2.0973    1.7505   -0.5161 H   0  0  0  0  0  0  0  0  0  0  0  0
  1  2  1  0
  2  3  1  0
  3  4  1  0
  3  5  1  0
  5  6  2  0
  6  7  1  0
  7  8  1  0
  8  9  1  0
  9  5  1  0
  1 10  1  0
  1 11  1  0
  1 12  1  0
  2 13  1  0
  2 14  1  0
  3 15  1  0
  4 16  1  0
  4 17  1  0
  4 18  1  0
  6 19  1  0
  7 20  1  0
  7 21  1  0
  9 22  1  0
  9 23  1  0
M  END
