
     RDKit          3D

 23 22  0  0  0  0  0  0  0  0999 V2000
    2.9286    0.5922   -0.1086 C   0  0  0  0  0  0  0  0  0  0  0  0
    1.6076    0.0267   -0.5165 C   0  0  0  0  0  0  0  0  0  0  0  0
    0.6337   -0.0625    0.5842 C   0  0  0  0  0  0  0  0  0  0  0  0
    0.9101    0.2993    1.7096 O   0  0  0  0  0  0  0  0  0  0  0  0
   -0.7190   -0.6032    0.3309 C   0  0  0  0  0  0  0  0  0  0  0  0
   -1.0026   -1.7946    1.2305 C   0  0  0  0  0  0  0  0  0  0  0  0
   -0.8107   -0.9499   -1.0091 O   0  0  0  0  0  0  0  0  0  0  0  0
   -1.7926    0.4429    0.5799 C   0  0  0  0  0  0  0  0  0  0  0  0
   -1.6390    1.6421   -0.2927 C   0  0  0  0  0  0  0  0  0  0  0  0
    2.9260    0.9997    0.9230 H   0  0  0  0  0  0  0  0  0  0  0  0
    3.6888   -0.2123   -0.1481 H   0  0  0  0  0  0  0  0  0  0  0  0
    3.2854    1.3878   -0.8114 H   0  0  0  0  0  0  0  0  0  0  0  0
    1.1729    0.7221   -1.2780 H   0  0  0  0  0  0  0  0  0  0  0  0
    1.7411   -0.9752   -0.9841 H   0  0  0  0  0  0  0  0  0  0  0  0
   -1.6583   -1.4575    2.0721 H   0  0  0  0  0  0  0  0  0  0  0  0
   -1.6014   -2.5370    0.6551 H   0  0  0  0  0  0  0  0  0  0  0  0
   -0.0965   -2.3067    1.5679 H   0  0  0  0  0  0  0  0  0  0  0  0
   -0.1723   -1.6739   -1.2308 H   0  0  0  0  0  0  0  0  0  0  0  0
   -2.7677   -0.0394    0.3596 H   0  0  0  0  0  0  0  0  0  0  0  0
   -1.8333    0.7253    1.6644 H   0  0  0  0  0  0  0  0  0  0  0  0
   -2.3713    2.3955    0.0084 H   0  0  0  0  0  0  0  0  0  0  0  0
   -1.8153    1.3173   -1.3519 H   0  0  0  0  0  0  0  0  0  0  0  0
   -0.6141    2.0611   -0.2782 H   0  0  0  0  0  0  0  0  0  0  0  0
  1  2  1  0
  2  3  1  0
  3  4  2  0
  3  5  1  0
  5  6  1  0
  5  7  1  0
  5  8  1  0
  8  9  1  0
  1 10  1  0
  1 11  1  0
  1 12  1  0
  2 13  1  0
  2 14  1  0
  6 15  1  0
  6 16  1  0
  6 17  1  0
  7 18  1  0
  8 19  1  0
  8 20  1  0
  9 21  1  0
  9 22  1  0
  9 23  1  0
M  END
