
     RDKit          3D

 21 20  0  0  0  0  0  0  0  0999 V2000
    1.8821    0.9705    0.3604 C   0  0  0  0  0  0  0  0  0  0  0  0
    1.4310   -0.1301   -0.5608 C   0  0  0  0  0  0  0  0  0  0  0  0
    0.3071   -0.9588   -0.1100 C   0  0  0  0  0  0  0  0  0  0  0  0
    0.0855   -1.9144   -1.1411 O   0  0  0  0  0  0  0  0  0  0  0  0
   -0.9912   -0.3505    0.2069 C   0  0  0  0  0  0  0  0  0  0  0  0
   -1.0153    0.6729    1.3085 C   0  0  0  0  0  0  0  0  0  0  0  0
   -1.7400    0.2019   -0.9858 C   0  0  0  0  0  0  0  0  0  0  0  0
    2.9977    1.0301    0.3713 H   0  0  0  0  0  0  0  0  0  0  0  0
    1.5662    0.7472    1.3743 H   0  0  0  0  0  0  0  0  0  0  0  0
    1.4998    1.9632    0.0461 H   0  0  0  0  0  0  0  0  0  0  0  0
    2.3188   -0.8290   -0.6645 H   0  0  0  0  0  0  0  0  0  0  0  0
    1.3320    0.3010   -1.5793 H   0  0  0  0  0  0  0  0  0  0  0  0
    0.6544   -1.5719    0.7692 H   0  0  0  0  0  0  0  0  0  0  0  0
    0.5721   -2.7405   -0.9738 H   0  0  0  0  0  0  0  0  0  0  0  0
   -1.6608   -1.1856    0.5856 H   0  0  0  0  0  0  0  0  0  0  0  0
   -0.6252    1.6545    1.0586 H   0  0  0  0  0  0  0  0  0  0  0  0
   -2.1167    0.8212    1.5454 H   0  0  0  0  0  0  0  0  0  0  0  0
   -0.5916    0.2848    2.2566 H   0  0  0  0  0  0  0  0  0  0  0  0
   -1.5707    1.3025   -1.1156 H   0  0  0  0  0  0  0  0  0  0  0  0
   -2.8400    0.0956   -0.8470 H   0  0  0  0  0  0  0  0  0  0  0  0
   -1.4951   -0.3646   -1.9050 H   0  0  0  0  0  0  0  0  0  0  0  0
  1  2  1  0
  2  3  1  0
  3  4  1  0
  3  5  1  0
  5  6  1  0
  5  7  1  0
  1  8  1  0
  1  9  1  0
  1 10  1  0
  2 11  1  0
  2 12  1  0
  3 13  1  0
  4 14  1  0
  5 15  1  0
  6 16  1  0
  6 17  1  0
  6 18  1  0
  7 19  1  0
  7 20  1  0
  7 21  1  0
M  END
