
     RDKit          3D

 27 26  0  0  0  0  0  0  0  0999 V2000
    2.4743    1.0103   -0.1673 C   0  0  0  0  0  0  0  0  0  0  0  0
    1.9193   -0.2156   -0.8118 C   0  0  0  0  0  0  0  0  0  0  0  0
    0.8303   -0.8752   -0.0113 C   0  0  0  0  0  0  0  0  0  0  0  0
    0.3999   -2.1004   -0.8248 C   0  0  0  0  0  0  0  0  0  0  0  0
   -0.3481    0.0202    0.2762 C   0  0  0  0  0  0  0  0  0  0  0  0
   -1.3606   -0.7782    1.0908 C   0  0  0  0  0  0  0  0  0  0  0  0
   -2.5777    0.0419    1.4256 C   0  0  0  0  0  0  0  0  0  0  0  0
   -0.9159    0.5761   -0.8422 O   0  0  0  0  0  0  0  0  0  0  0  0
   -0.9511    1.9499   -0.8411 C   0  0  0  0  0  0  0  0  0  0  0  0
    3.5443    0.8861    0.0222 H   0  0  0  0  0  0  0  0  0  0  0  0
    1.9766    1.1955    0.8013 H   0  0  0  0  0  0  0  0  0  0  0  0
    2.3684    1.8561   -0.8734 H   0  0  0  0  0  0  0  0  0  0  0  0
    1.6167   -0.0409   -1.8695 H   0  0  0  0  0  0  0  0  0  0  0  0
    2.7383   -0.9693   -0.8822 H   0  0  0  0  0  0  0  0  0  0  0  0
    1.2599   -1.2400    0.9340 H   0  0  0  0  0  0  0  0  0  0  0  0
   -0.1138   -1.7870   -1.7407 H   0  0  0  0  0  0  0  0  0  0  0  0
   -0.1150   -2.8450   -0.2204 H   0  0  0  0  0  0  0  0  0  0  0  0
    1.3663   -2.5723   -1.1603 H   0  0  0  0  0  0  0  0  0  0  0  0
   -0.0256    0.8414    0.9445 H   0  0  0  0  0  0  0  0  0  0  0  0
   -0.8682   -1.0143    2.0580 H   0  0  0  0  0  0  0  0  0  0  0  0
   -1.6242   -1.7045    0.5542 H   0  0  0  0  0  0  0  0  0  0  0  0
   -3.2122   -0.5772    2.0929 H   0  0  0  0  0  0  0  0  0  0  0  0
   -2.3220    0.9507    1.9840 H   0  0  0  0  0  0  0  0  0  0  0  0
   -3.1851    0.3130    0.5557 H   0  0  0  0  0  0  0  0  0  0  0  0
   -1.4225    2.3538   -1.7702 H   0  0  0  0  0  0  0  0  0  0  0  0
   -1.4951    2.2896    0.0678 H   0  0  0  0  0  0  0  0  0  0  0  0
    0.0429    2.4352   -0.7921 H   0  0  0  0  0  0  0  0  0  0  0  0
  1  2  1  0
  2  3  1  0
  3  4  1  0
  3  5  1  0
  5  6  1  0
  6  7  1  0
  5  8  1  0
  8  9  1  0
  1 10  1  0
  1 11  1  0
  1 12  1  0
  2 13  1  0
  2 14  1  0
  3 15  1  0
  4 16  1  0
  4 17  1  0
  4 18  1  0
  5 19  1  0
  6 20  1  0
  6 21  1  0
  7 22  1  0
  7 23  1  0
  7 24  1  0
  9 25  1  0
  9 26  1  0
  9 27  1  0
M  END
