
     RDKit          3D

 19 18  0  0  0  0  0  0  0  0999 V2000
    1.9480   -0.7340   -0.2467 C   0  0  0  0  0  0  0  0  0  0  0  0
    0.9562   -0.0212    0.5963 C   0  0  0  0  0  0  0  0  0  0  0  0
   -0.1705    0.6165   -0.1708 C   0  0  0  0  0  0  0  0  0  0  0  0
    0.2910    1.5649   -1.0850 O   0  0  0  0  0  0  0  0  0  0  0  0
   -1.0251    1.3269    0.8145 C   0  0  0  0  0  0  0  0  0  0  0  0
   -1.1953    2.5247    0.7051 O   0  0  0  0  0  0  0  0  0  0  0  0
   -1.0484   -0.3776   -0.8643 C   0  0  0  0  0  0  0  0  0  0  0  0
   -1.6424   -1.2784    0.1274 C   0  0  0  0  0  0  0  0  0  0  0  0
   -2.4052   -2.1893   -0.2284 O   0  0  0  0  0  0  0  0  0  0  0  0
    1.5072   -1.3788   -1.0320 H   0  0  0  0  0  0  0  0  0  0  0  0
    2.5353   -1.4225    0.4123 H   0  0  0  0  0  0  0  0  0  0  0  0
    2.7014   -0.0665   -0.7266 H   0  0  0  0  0  0  0  0  0  0  0  0
    1.4906    0.8113    1.1204 H   0  0  0  0  0  0  0  0  0  0  0  0
    0.5604   -0.6729    1.3720 H   0  0  0  0  0  0  0  0  0  0  0  0
    0.7584    2.2762   -0.5895 H   0  0  0  0  0  0  0  0  0  0  0  0
   -1.5198    0.8384    1.6454 H   0  0  0  0  0  0  0  0  0  0  0  0
   -0.4736   -0.8922   -1.6564 H   0  0  0  0  0  0  0  0  0  0  0  0
   -1.8613    0.2130   -1.3691 H   0  0  0  0  0  0  0  0  0  0  0  0
   -1.4069   -1.1385    1.1753 H   0  0  0  0  0  0  0  0  0  0  0  0
  1  2  1  0
  2  3  1  0
  3  4  1  0
  3  5  1  0
  5  6  2  0
  3  7  1  0
  7  8  1  0
  8  9  2  0
  1 10  1  0
  1 11  1  0
  1 12  1  0
  2 13  1  0
  2 14  1  0
  4 15  1  0
  5 16  1  0
  7 17  1  0
  7 18  1  0
  8 19  1  0
M  END
