
     RDKit          3D

 15 14  0  0  0  0  0  0  0  0999 V2000
   -2.4221    0.3419    0.1445 C   0  0  0  0  0  0  0  0  0  0  0  0
   -1.2111   -0.4664   -0.1579 C   0  0  0  0  0  0  0  0  0  0  0  0
    0.0578    0.2295    0.0609 C   0  0  0  0  0  0  0  0  0  0  0  0
    0.0834    1.4217    0.4745 O   0  0  0  0  0  0  0  0  0  0  0  0
    1.3080   -0.4641   -0.2024 C   0  0  0  0  0  0  0  0  0  0  0  0
    2.6300    0.1901    0.0010 C   0  0  0  0  0  0  0  0  0  0  0  0
    1.2947   -1.6531   -0.6151 O   0  0  0  0  0  0  0  0  0  0  0  0
   -2.2195    1.4257    0.2677 H   0  0  0  0  0  0  0  0  0  0  0  0
   -2.9496   -0.0213    1.0679 H   0  0  0  0  0  0  0  0  0  0  0  0
   -3.1595    0.1867   -0.6858 H   0  0  0  0  0  0  0  0  0  0  0  0
   -1.2208   -1.3614    0.5172 H   0  0  0  0  0  0  0  0  0  0  0  0
   -1.2102   -0.8334   -1.2178 H   0  0  0  0  0  0  0  0  0  0  0  0
    3.0025    0.6805   -0.9181 H   0  0  0  0  0  0  0  0  0  0  0  0
    2.6328    0.9192    0.8185 H   0  0  0  0  0  0  0  0  0  0  0  0
    3.3834   -0.5955    0.2508 H   0  0  0  0  0  0  0  0  0  0  0  0
  1  2  1  0
  2  3  1  0
  3  4  2  0
  3  5  1  0
  5  6  1  0
  5  7  2  0
  1  8  1  0
  1  9  1  0
  1 10  1  0
  2 11  1  0
  2 12  1  0
  6 13  1  0
  6 14  1  0
  6 15  1  0
M  END
