
     RDKit          3D

 23 24  0  0  0  0  0  0  0  0999 V2000
    1.7923    1.1357   -0.2291 C   0  0  0  0  0  0  0  0  0  0  0  0
    1.3188    0.4440    1.0084 C   0  0  0  0  0  0  0  0  0  0  0  0
    0.4495   -0.7476    0.7330 C   0  0  0  0  0  0  0  0  0  0  0  0
    1.2024   -1.7734   -0.0816 C   0  0  0  0  0  0  0  0  0  0  0  0
   -0.8572   -0.4387    0.1133 C   0  0  0  0  0  0  0  0  0  0  0  0
   -1.8181    0.4580    0.8516 C   0  0  0  0  0  0  0  0  0  0  0  0
   -2.4396    0.7739   -0.5158 C   0  0  0  0  0  0  0  0  0  0  0  0
   -1.2509   -0.0035   -1.1016 C   0  0  0  0  0  0  0  0  0  0  0  0
   -1.3261   -1.3580   -0.8046 O   0  0  0  0  0  0  0  0  0  0  0  0
    2.9182    1.0990   -0.3027 H   0  0  0  0  0  0  0  0  0  0  0  0
    1.5377    2.2175   -0.2482 H   0  0  0  0  0  0  0  0  0  0  0  0
    1.4272    0.6697   -1.1708 H   0  0  0  0  0  0  0  0  0  0  0  0
    2.2080    0.0659    1.5883 H   0  0  0  0  0  0  0  0  0  0  0  0
    0.7753    1.1118    1.7159 H   0  0  0  0  0  0  0  0  0  0  0  0
    0.2491   -1.2302    1.7332 H   0  0  0  0  0  0  0  0  0  0  0  0
    0.4664   -2.5179   -0.4269 H   0  0  0  0  0  0  0  0  0  0  0  0
    1.7698   -1.3246   -0.9135 H   0  0  0  0  0  0  0  0  0  0  0  0
    1.9130   -2.3062    0.5990 H   0  0  0  0  0  0  0  0  0  0  0  0
   -1.2478    1.3470    1.2403 H   0  0  0  0  0  0  0  0  0  0  0  0
   -2.4895   -0.0116    1.5663 H   0  0  0  0  0  0  0  0  0  0  0  0
   -2.4342    1.8257   -0.7938 H   0  0  0  0  0  0  0  0  0  0  0  0
   -3.3666    0.2028   -0.6273 H   0  0  0  0  0  0  0  0  0  0  0  0
   -0.7978    0.3608   -2.0159 H   0  0  0  0  0  0  0  0  0  0  0  0
  1  2  1  0
  2  3  1  0
  3  4  1  0
  3  5  1  0
  5  6  1  0
  6  7  1  0
  7  8  1  0
  8  9  1  0
  8  5  1  0
  9  5  1  0
  1 10  1  0
  1 11  1  0
  1 12  1  0
  2 13  1  0
  2 14  1  0
  3 15  1  0
  4 16  1  0
  4 17  1  0
  4 18  1  0
  6 19  1  0
  6 20  1  0
  7 21  1  0
  7 22  1  0
  8 23  1  0
M  END
