
     RDKit          3D

 18 18  0  0  0  0  0  0  0  0999 V2000
    3.2661    0.2141    0.0577 C   0  0  0  0  0  0  0  0  0  0  0  0
    2.0456   -0.2510    0.8118 C   0  0  0  0  0  0  0  0  0  0  0  0
    0.7961    0.0921    0.0707 C   0  0  0  0  0  0  0  0  0  0  0  0
    0.7956    0.6898   -1.0335 O   0  0  0  0  0  0  0  0  0  0  0  0
   -0.4356   -0.2518    0.6005 O   0  0  0  0  0  0  0  0  0  0  0  0
   -1.6659    0.0228   -0.0122 C   0  0  0  0  0  0  0  0  0  0  0  0
   -2.7281    0.5197    0.9781 C   0  0  0  0  0  0  0  0  0  0  0  0
   -2.8743   -0.7771    0.2550 C   0  0  0  0  0  0  0  0  0  0  0  0
    3.5755    1.2326    0.3337 H   0  0  0  0  0  0  0  0  0  0  0  0
    4.0742   -0.5337    0.1656 H   0  0  0  0  0  0  0  0  0  0  0  0
    2.9776    0.2288   -1.0283 H   0  0  0  0  0  0  0  0  0  0  0  0
    2.0043    0.2560    1.8008 H   0  0  0  0  0  0  0  0  0  0  0  0
    2.0836   -1.3428    1.0335 H   0  0  0  0  0  0  0  0  0  0  0  0
   -1.5967    0.5508   -0.9819 H   0  0  0  0  0  0  0  0  0  0  0  0
   -2.5236    0.4352    2.0539 H   0  0  0  0  0  0  0  0  0  0  0  0
   -3.2952    1.4165    0.6833 H   0  0  0  0  0  0  0  0  0  0  0  0
   -3.6527   -0.7788   -0.5348 H   0  0  0  0  0  0  0  0  0  0  0  0
   -2.8466   -1.7232    0.8297 H   0  0  0  0  0  0  0  0  0  0  0  0
  1  2  1  0
  2  3  1  0
  3  4  2  0
  3  5  1  0
  5  6  1  0
  6  7  1  0
  7  8  1  0
  8  6  1  0
  1  9  1  0
  1 10  1  0
  1 11  1  0
  2 12  1  0
  2 13  1  0
  6 14  1  0
  7 15  1  0
  7 16  1  0
  8 17  1  0
  8 18  1  0
M  END
