
     RDKit          3D

 25 24  0  0  0  0  0  0  0  0999 V2000
   -3.3481    0.4526    0.2225 C   0  0  0  0  0  0  0  0  0  0  0  0
   -2.0820    0.2447   -0.5840 C   0  0  0  0  0  0  0  0  0  0  0  0
   -1.0096   -0.2207    0.4007 C   0  0  0  0  0  0  0  0  0  0  0  0
   -1.5079   -1.5052    1.0154 C   0  0  0  0  0  0  0  0  0  0  0  0
    0.2047   -0.4302   -0.2422 O   0  0  0  0  0  0  0  0  0  0  0  0
    1.2024    0.4203    0.2305 C   0  0  0  0  0  0  0  0  0  0  0  0
    2.4644    0.0705   -0.5668 C   0  0  0  0  0  0  0  0  0  0  0  0
    3.5485    1.0193   -0.1071 C   0  0  0  0  0  0  0  0  0  0  0  0
    2.8008   -1.2541   -0.3580 O   0  0  0  0  0  0  0  0  0  0  0  0
   -3.2808    1.4666    0.6603 H   0  0  0  0  0  0  0  0  0  0  0  0
   -3.4463   -0.3203    1.0070 H   0  0  0  0  0  0  0  0  0  0  0  0
   -4.1929    0.3554   -0.4889 H   0  0  0  0  0  0  0  0  0  0  0  0
   -2.2477   -0.5843   -1.3137 H   0  0  0  0  0  0  0  0  0  0  0  0
   -1.7716    1.1839   -1.0878 H   0  0  0  0  0  0  0  0  0  0  0  0
   -0.9021    0.5890    1.1546 H   0  0  0  0  0  0  0  0  0  0  0  0
   -0.6814   -2.2606    1.0129 H   0  0  0  0  0  0  0  0  0  0  0  0
   -1.8444   -1.3031    2.0540 H   0  0  0  0  0  0  0  0  0  0  0  0
   -2.3581   -1.9494    0.4356 H   0  0  0  0  0  0  0  0  0  0  0  0
    1.3835    0.3346    1.3065 H   0  0  0  0  0  0  0  0  0  0  0  0
    0.8959    1.4650    0.0250 H   0  0  0  0  0  0  0  0  0  0  0  0
    2.2851    0.2016   -1.6510 H   0  0  0  0  0  0  0  0  0  0  0  0
    4.3675    0.5001    0.4311 H   0  0  0  0  0  0  0  0  0  0  0  0
    3.1561    1.8017    0.5928 H   0  0  0  0  0  0  0  0  0  0  0  0
    3.9497    1.5706   -0.9841 H   0  0  0  0  0  0  0  0  0  0  0  0
    2.4145   -1.8482   -1.0748 H   0  0  0  0  0  0  0  0  0  0  0  0
  1  2  1  0
  2  3  1  0
  3  4  1  0
  3  5  1  0
  5  6  1  0
  6  7  1  0
  7  8  1  0
  7  9  1  0
  1 10  1  0
  1 11  1  0
  1 12  1  0
  2 13  1  0
  2 14  1  0
  3 15  1  0
  4 16  1  0
  4 17  1  0
  4 18  1  0
  6 19  1  0
  6 20  1  0
  7 21  1  0
  8 22  1  0
  8 23  1  0
  8 24  1  0
  9 25  1  0
M  END
