
     RDKit          3D

 25 24  0  0  0  0  0  0  0  0999 V2000
    0.6711    2.4855   -0.6935 C   0  0  0  0  0  0  0  0  0  0  0  0
   -0.1003    1.2282   -0.8567 C   0  0  0  0  0  0  0  0  0  0  0  0
    0.4117    0.0831   -0.0230 C   0  0  0  0  0  0  0  0  0  0  0  0
    0.3906    0.3570    1.4434 C   0  0  0  0  0  0  0  0  0  0  0  0
    0.9274   -0.8677    2.1563 C   0  0  0  0  0  0  0  0  0  0  0  0
   -0.4227   -1.1515   -0.2937 C   0  0  0  0  0  0  0  0  0  0  0  0
   -0.3496   -1.5457   -1.7664 C   0  0  0  0  0  0  0  0  0  0  0  0
   -1.8452   -0.9433    0.0571 C   0  0  0  0  0  0  0  0  0  0  0  0
   -2.4176   -1.5687    0.9303 O   0  0  0  0  0  0  0  0  0  0  0  0
    1.6672    2.3535   -0.2281 H   0  0  0  0  0  0  0  0  0  0  0  0
    0.7224    3.0132   -1.6686 H   0  0  0  0  0  0  0  0  0  0  0  0
    0.1122    3.1933   -0.0148 H   0  0  0  0  0  0  0  0  0  0  0  0
   -0.0440    0.9078   -1.9179 H   0  0  0  0  0  0  0  0  0  0  0  0
   -1.1812    1.4405   -0.6607 H   0  0  0  0  0  0  0  0  0  0  0  0
    1.4545   -0.1112   -0.3356 H   0  0  0  0  0  0  0  0  0  0  0  0
    0.9774    1.2431    1.7432 H   0  0  0  0  0  0  0  0  0  0  0  0
   -0.6425    0.5109    1.8300 H   0  0  0  0  0  0  0  0  0  0  0  0
    1.6718   -1.3338    1.4776 H   0  0  0  0  0  0  0  0  0  0  0  0
    1.3677   -0.6144    3.1413 H   0  0  0  0  0  0  0  0  0  0  0  0
    0.0744   -1.5903    2.2799 H   0  0  0  0  0  0  0  0  0  0  0  0
    0.0256   -1.9942    0.2812 H   0  0  0  0  0  0  0  0  0  0  0  0
    0.6339   -1.3170   -2.2083 H   0  0  0  0  0  0  0  0  0  0  0  0
   -0.5401   -2.6176   -1.9098 H   0  0  0  0  0  0  0  0  0  0  0  0
   -1.1718   -0.9681   -2.2630 H   0  0  0  0  0  0  0  0  0  0  0  0
   -2.3928   -0.1926   -0.5001 H   0  0  0  0  0  0  0  0  0  0  0  0
  1  2  1  0
  2  3  1  0
  3  4  1  0
  4  5  1  0
  3  6  1  0
  6  7  1  0
  6  8  1  0
  8  9  2  0
  1 10  1  0
  1 11  1  0
  1 12  1  0
  2 13  1  0
  2 14  1  0
  3 15  1  0
  4 16  1  0
  4 17  1  0
  5 18  1  0
  5 19  1  0
  5 20  1  0
  6 21  1  0
  7 22  1  0
  7 23  1  0
  7 24  1  0
  8 25  1  0
M  END
