
     RDKit          3D

 21 21  0  0  0  0  0  0  0  0999 V2000
    3.4627   -0.2390   -0.0513 C   0  0  0  0  0  0  0  0  0  0  0  0
    2.1125    0.3651   -0.4207 C   0  0  0  0  0  0  0  0  0  0  0  0
    1.0290   -0.6415   -0.2989 C   0  0  0  0  0  0  0  0  0  0  0  0
    1.3231   -1.7644    0.0596 O   0  0  0  0  0  0  0  0  0  0  0  0
   -0.3550   -0.2692   -0.6082 C   0  0  0  0  0  0  0  0  0  0  0  0
   -1.0273    0.4505    0.5686 C   0  0  0  0  0  0  0  0  0  0  0  0
   -2.1991   -0.4262    0.1974 C   0  0  0  0  0  0  0  0  0  0  0  0
   -3.1619    0.3176   -0.6945 C   0  0  0  0  0  0  0  0  0  0  0  0
   -1.3064   -1.2573   -0.4719 O   0  0  0  0  0  0  0  0  0  0  0  0
    4.0989    0.5872    0.3348 H   0  0  0  0  0  0  0  0  0  0  0  0
    3.2617   -0.9762    0.7755 H   0  0  0  0  0  0  0  0  0  0  0  0
    3.9342   -0.7341   -0.9163 H   0  0  0  0  0  0  0  0  0  0  0  0
    1.8634    1.1829    0.3070 H   0  0  0  0  0  0  0  0  0  0  0  0
    2.1565    0.8285   -1.4251 H   0  0  0  0  0  0  0  0  0  0  0  0
   -0.5166    0.2801   -1.5581 H   0  0  0  0  0  0  0  0  0  0  0  0
   -1.1201    1.5126    0.3529 H   0  0  0  0  0  0  0  0  0  0  0  0
   -0.6076    0.1460    1.5347 H   0  0  0  0  0  0  0  0  0  0  0  0
   -2.6948   -0.9342    1.0410 H   0  0  0  0  0  0  0  0  0  0  0  0
   -3.4231   -0.2605   -1.6029 H   0  0  0  0  0  0  0  0  0  0  0  0
   -2.7563    1.3117   -0.9829 H   0  0  0  0  0  0  0  0  0  0  0  0
   -4.0737    0.5202   -0.0878 H   0  0  0  0  0  0  0  0  0  0  0  0
  1  2  1  0
  2  3  1  0
  3  4  2  0
  3  5  1  0
  5  6  1  0
  6  7  1  0
  7  8  1  0
  7  9  1  0
  9  5  1  0
  1 10  1  0
  1 11  1  0
  1 12  1  0
  2 13  1  0
  2 14  1  0
  5 15  1  0
  6 16  1  0
  6 17  1  0
  7 18  1  0
  8 19  1  0
  8 20  1  0
  8 21  1  0
M  END
