
     RDKit          3D

 23 23  0  0  0  0  0  0  0  0999 V2000
   -1.3891    1.8861   -0.3129 C   0  0  0  0  0  0  0  0  0  0  0  0
   -1.7968    0.5033    0.0322 C   0  0  0  0  0  0  0  0  0  0  0  0
   -0.6537   -0.4350    0.3161 C   0  0  0  0  0  0  0  0  0  0  0  0
   -1.3440   -1.7788    0.6412 C   0  0  0  0  0  0  0  0  0  0  0  0
    0.2391   -0.6887   -0.8256 C   0  0  0  0  0  0  0  0  0  0  0  0
    0.9575    0.2919   -1.4917 O   0  0  0  0  0  0  0  0  0  0  0  0
    1.7341   -0.6336   -0.6803 C   0  0  0  0  0  0  0  0  0  0  0  0
    2.4068   -0.0147    0.5001 C   0  0  0  0  0  0  0  0  0  0  0  0
    3.3191    0.9801    0.1288 O   0  0  0  0  0  0  0  0  0  0  0  0
   -1.9483    2.5863    0.3677 H   0  0  0  0  0  0  0  0  0  0  0  0
   -1.7484    2.1412   -1.3359 H   0  0  0  0  0  0  0  0  0  0  0  0
   -0.3191    2.1110   -0.1618 H   0  0  0  0  0  0  0  0  0  0  0  0
   -2.3819    0.0435   -0.8053 H   0  0  0  0  0  0  0  0  0  0  0  0
   -2.4736    0.4631    0.9148 H   0  0  0  0  0  0  0  0  0  0  0  0
   -0.1541   -0.1492    1.2346 H   0  0  0  0  0  0  0  0  0  0  0  0
   -1.9116   -1.6106    1.5545 H   0  0  0  0  0  0  0  0  0  0  0  0
   -2.0938   -1.9018   -0.1888 H   0  0  0  0  0  0  0  0  0  0  0  0
   -0.6260   -2.5972    0.6582 H   0  0  0  0  0  0  0  0  0  0  0  0
   -0.0812   -1.4957   -1.5678 H   0  0  0  0  0  0  0  0  0  0  0  0
    2.3620   -1.2304   -1.3903 H   0  0  0  0  0  0  0  0  0  0  0  0
    2.9742   -0.7411    1.1020 H   0  0  0  0  0  0  0  0  0  0  0  0
    1.6874    0.4732    1.1543 H   0  0  0  0  0  0  0  0  0  0  0  0
    3.2414    1.7968    0.6752 H   0  0  0  0  0  0  0  0  0  0  0  0
  1  2  1  0
  2  3  1  0
  3  4  1  0
  3  5  1  0
  5  6  1  0
  6  7  1  0
  7  8  1  0
  8  9  1  0
  7  5  1  0
  1 10  1  0
  1 11  1  0
  1 12  1  0
  2 13  1  0
  2 14  1  0
  3 15  1  0
  4 16  1  0
  4 17  1  0
  4 18  1  0
  5 19  1  0
  7 20  1  0
  8 21  1  0
  8 22  1  0
  9 23  1  0
M  END
