
     RDKit          3D

 21 20  0  0  0  0  0  0  0  0999 V2000
   -2.9684    0.0257    0.6844 C   0  0  0  0  0  0  0  0  0  0  0  0
   -1.5182    0.4547    0.7211 C   0  0  0  0  0  0  0  0  0  0  0  0
   -0.6507   -0.4535   -0.0695 C   0  0  0  0  0  0  0  0  0  0  0  0
   -1.1103   -1.4279   -0.6669 O   0  0  0  0  0  0  0  0  0  0  0  0
    0.7994   -0.1575   -0.1246 C   0  0  0  0  0  0  0  0  0  0  0  0
    1.0712    1.2625   -0.5736 C   0  0  0  0  0  0  0  0  0  0  0  0
    0.7039    1.4825   -1.8887 O   0  0  0  0  0  0  0  0  0  0  0  0
    1.4928   -1.0752   -0.8898 O   0  0  0  0  0  0  0  0  0  0  0  0
    2.4146   -1.7705   -0.1198 C   0  0  0  0  0  0  0  0  0  0  0  0
   -3.3019   -0.4009    1.6568 H   0  0  0  0  0  0  0  0  0  0  0  0
   -3.1680   -0.7404   -0.0843 H   0  0  0  0  0  0  0  0  0  0  0  0
   -3.5799    0.9504    0.5325 H   0  0  0  0  0  0  0  0  0  0  0  0
   -1.4030    1.4754    0.2620 H   0  0  0  0  0  0  0  0  0  0  0  0
   -1.1900    0.5049    1.7624 H   0  0  0  0  0  0  0  0  0  0  0  0
    1.1735   -0.2217    0.9301 H   0  0  0  0  0  0  0  0  0  0  0  0
    0.5582    2.0021    0.0725 H   0  0  0  0  0  0  0  0  0  0  0  0
    2.1541    1.4829   -0.4913 H   0  0  0  0  0  0  0  0  0  0  0  0
    0.4580    2.4467   -1.9749 H   0  0  0  0  0  0  0  0  0  0  0  0
    2.9588   -2.4988   -0.7472 H   0  0  0  0  0  0  0  0  0  0  0  0
    3.1648   -1.0415    0.2729 H   0  0  0  0  0  0  0  0  0  0  0  0
    1.9411   -2.3002    0.7359 H   0  0  0  0  0  0  0  0  0  0  0  0
  1  2  1  0
  2  3  1  0
  3  4  2  0
  3  5  1  0
  5  6  1  0
  6  7  1  0
  5  8  1  0
  8  9  1  0
  1 10  1  0
  1 11  1  0
  1 12  1  0
  2 13  1  0
  2 14  1  0
  5 15  1  0
  6 16  1  0
  6 17  1  0
  7 18  1  0
  9 19  1  0
  9 20  1  0
  9 21  1  0
M  END
