
     RDKit          3D

 16 15  0  0  0  0  0  0  0  0999 V2000
    1.7170   -0.2583    0.0864 C   0  0  0  0  0  0  0  0  0  0  0  0
    0.6263   -0.0630   -0.9198 C   0  0  0  0  0  0  0  0  0  0  0  0
   -0.7194    0.1999   -0.2912 C   0  0  0  0  0  0  0  0  0  0  0  0
   -1.1758   -0.9237    0.5935 C   0  0  0  0  0  0  0  0  0  0  0  0
   -0.7393    1.4623    0.4880 C   0  0  0  0  0  0  0  0  0  0  0  0
   -1.7987    2.0567    0.5935 O   0  0  0  0  0  0  0  0  0  0  0  0
    2.4628   -0.9610   -0.3480 H   0  0  0  0  0  0  0  0  0  0  0  0
    2.2606    0.7206    0.1759 H   0  0  0  0  0  0  0  0  0  0  0  0
    1.3419   -0.5621    1.0674 H   0  0  0  0  0  0  0  0  0  0  0  0
    0.8362    0.7675   -1.6238 H   0  0  0  0  0  0  0  0  0  0  0  0
    0.5299   -0.9808   -1.5316 H   0  0  0  0  0  0  0  0  0  0  0  0
   -1.4471    0.3159   -1.1218 H   0  0  0  0  0  0  0  0  0  0  0  0
   -0.6370   -1.8739    0.3968 H   0  0  0  0  0  0  0  0  0  0  0  0
   -2.2707   -1.1367    0.4368 H   0  0  0  0  0  0  0  0  0  0  0  0
   -1.1080   -0.6537    1.6843 H   0  0  0  0  0  0  0  0  0  0  0  0
    0.1215    1.8904    0.9683 H   0  0  0  0  0  0  0  0  0  0  0  0
  1  2  1  0
  2  3  1  0
  3  4  1  0
  3  5  1  0
  5  6  2  0
  1  7  1  0
  1  8  1  0
  1  9  1  0
  2 10  1  0
  2 11  1  0
  3 12  1  0
  4 13  1  0
  4 14  1  0
  4 15  1  0
  5 16  1  0
M  END
