
     RDKit          3D

 23 23  0  0  0  0  0  0  0  0999 V2000
    3.0161    0.6057   -0.7095 C   0  0  0  0  0  0  0  0  0  0  0  0
    2.4495   -0.7461   -0.2948 C   0  0  0  0  0  0  0  0  0  0  0  0
    1.2678   -0.5172    0.5720 C   0  0  0  0  0  0  0  0  0  0  0  0
    1.3228   -0.7119    1.7843 O   0  0  0  0  0  0  0  0  0  0  0  0
   -0.0642   -0.1070    0.0127 C   0  0  0  0  0  0  0  0  0  0  0  0
   -1.2636   -0.7744    0.6803 C   0  0  0  0  0  0  0  0  0  0  0  0
   -2.3028   -1.2281   -0.3171 C   0  0  0  0  0  0  0  0  0  0  0  0
   -0.9814    0.6693    0.8905 C   0  0  0  0  0  0  0  0  0  0  0  0
   -2.0015    1.6156    0.3329 C   0  0  0  0  0  0  0  0  0  0  0  0
    2.3323    1.0084   -1.4661 H   0  0  0  0  0  0  0  0  0  0  0  0
    4.0435    0.4279   -1.0564 H   0  0  0  0  0  0  0  0  0  0  0  0
    2.9868    1.2739    0.1683 H   0  0  0  0  0  0  0  0  0  0  0  0
    2.2095   -1.2746   -1.2322 H   0  0  0  0  0  0  0  0  0  0  0  0
    3.2283   -1.2344    0.3053 H   0  0  0  0  0  0  0  0  0  0  0  0
   -0.0586    0.0114   -1.0778 H   0  0  0  0  0  0  0  0  0  0  0  0
   -1.0698   -1.5043    1.5029 H   0  0  0  0  0  0  0  0  0  0  0  0
   -2.7122   -0.4057   -0.9293 H   0  0  0  0  0  0  0  0  0  0  0  0
   -3.1340   -1.7912    0.1621 H   0  0  0  0  0  0  0  0  0  0  0  0
   -1.8562   -1.9514   -1.0465 H   0  0  0  0  0  0  0  0  0  0  0  0
   -0.5295    0.9915    1.8426 H   0  0  0  0  0  0  0  0  0  0  0  0
   -1.7639    1.9647   -0.7006 H   0  0  0  0  0  0  0  0  0  0  0  0
   -3.0062    1.1267    0.3878 H   0  0  0  0  0  0  0  0  0  0  0  0
   -2.1126    2.5511    0.9330 H   0  0  0  0  0  0  0  0  0  0  0  0
  1  2  1  0
  2  3  1  0
  3  4  2  0
  3  5  1  0
  5  6  1  0
  6  7  1  0
  6  8  1  0
  8  9  1  0
  8  5  1  0
  1 10  1  0
  1 11  1  0
  1 12  1  0
  2 13  1  0
  2 14  1  0
  5 15  1  0
  6 16  1  0
  7 17  1  0
  7 18  1  0
  7 19  1  0
  8 20  1  0
  9 21  1  0
  9 22  1  0
  9 23  1  0
M  END
