
     RDKit          3D

 27 26  0  0  0  0  0  0  0  0999 V2000
    3.0434    0.6990   -0.3848 C   0  0  0  0  0  0  0  0  0  0  0  0
    1.7580    0.1460   -0.9265 C   0  0  0  0  0  0  0  0  0  0  0  0
    0.8094   -0.2792    0.2056 C   0  0  0  0  0  0  0  0  0  0  0  0
    1.5788   -1.3409    0.9718 C   0  0  0  0  0  0  0  0  0  0  0  0
   -0.3246   -0.7451   -0.3807 O   0  0  0  0  0  0  0  0  0  0  0  0
   -1.4815   -0.0898   -0.1783 C   0  0  0  0  0  0  0  0  0  0  0  0
   -1.9551    0.0314    1.2323 C   0  0  0  0  0  0  0  0  0  0  0  0
   -2.5552   -0.7755   -1.0401 C   0  0  0  0  0  0  0  0  0  0  0  0
   -1.3647    1.3166   -0.7349 C   0  0  0  0  0  0  0  0  0  0  0  0
    3.8862   -0.0335   -0.4673 H   0  0  0  0  0  0  0  0  0  0  0  0
    3.3341    1.5512   -1.0351 H   0  0  0  0  0  0  0  0  0  0  0  0
    2.9416    1.1032    0.6409 H   0  0  0  0  0  0  0  0  0  0  0  0
    1.2696    0.8581   -1.6164 H   0  0  0  0  0  0  0  0  0  0  0  0
    2.0273   -0.7426   -1.5553 H   0  0  0  0  0  0  0  0  0  0  0  0
    0.6272    0.6179    0.7998 H   0  0  0  0  0  0  0  0  0  0  0  0
    2.4826   -0.8357    1.3757 H   0  0  0  0  0  0  0  0  0  0  0  0
    1.8507   -2.1250    0.2260 H   0  0  0  0  0  0  0  0  0  0  0  0
    0.9883   -1.8236    1.7505 H   0  0  0  0  0  0  0  0  0  0  0  0
   -3.0717    0.0699    1.2074 H   0  0  0  0  0  0  0  0  0  0  0  0
   -1.6303    0.9796    1.7041 H   0  0  0  0  0  0  0  0  0  0  0  0
   -1.6787   -0.7846    1.8931 H   0  0  0  0  0  0  0  0  0  0  0  0
   -2.5400   -0.3305   -2.0674 H   0  0  0  0  0  0  0  0  0  0  0  0
   -3.5514   -0.5968   -0.6137 H   0  0  0  0  0  0  0  0  0  0  0  0
   -2.3237   -1.8490   -1.1727 H   0  0  0  0  0  0  0  0  0  0  0  0
   -0.6645    1.8950   -0.1171 H   0  0  0  0  0  0  0  0  0  0  0  0
   -1.0857    1.2645   -1.8087 H   0  0  0  0  0  0  0  0  0  0  0  0
   -2.3701    1.8193   -0.6224 H   0  0  0  0  0  0  0  0  0  0  0  0
  1  2  1  0
  2  3  1  0
  3  4  1  0
  3  5  1  0
  5  6  1  0
  6  7  1  0
  6  8  1  0
  6  9  1  0
  1 10  1  0
  1 11  1  0
  1 12  1  0
  2 13  1  0
  2 14  1  0
  3 15  1  0
  4 16  1  0
  4 17  1  0
  4 18  1  0
  7 19  1  0
  7 20  1  0
  7 21  1  0
  8 22  1  0
  8 23  1  0
  8 24  1  0
  9 25  1  0
  9 26  1  0
  9 27  1  0
M  END
