
     RDKit          3D

 23 23  0  0  0  0  0  0  0  0999 V2000
   -2.3067   -0.4589   -1.3361 C   0  0  0  0  0  0  0  0  0  0  0  0
   -1.7957   -0.9393   -0.0237 C   0  0  0  0  0  0  0  0  0  0  0  0
   -0.7748   -0.0411    0.6118 C   0  0  0  0  0  0  0  0  0  0  0  0
   -1.4116    1.3143    0.8352 C   0  0  0  0  0  0  0  0  0  0  0  0
    0.3639    0.1304   -0.1213 O   0  0  0  0  0  0  0  0  0  0  0  0
    1.5307   -0.2258    0.4960 C   0  0  0  0  0  0  0  0  0  0  0  0
    2.4892   -0.9980   -0.4269 C   0  0  0  0  0  0  0  0  0  0  0  0
    2.8512    0.3233    0.1229 C   0  0  0  0  0  0  0  0  0  0  0  0
    2.8331    1.4432   -0.7062 O   0  0  0  0  0  0  0  0  0  0  0  0
   -1.9439    0.5127   -1.6630 H   0  0  0  0  0  0  0  0  0  0  0  0
   -2.0362   -1.1871   -2.1555 H   0  0  0  0  0  0  0  0  0  0  0  0
   -3.4279   -0.4138   -1.3782 H   0  0  0  0  0  0  0  0  0  0  0  0
   -2.6566   -1.0019    0.7045 H   0  0  0  0  0  0  0  0  0  0  0  0
   -1.4414   -1.9834   -0.1321 H   0  0  0  0  0  0  0  0  0  0  0  0
   -0.5776   -0.4591    1.6367 H   0  0  0  0  0  0  0  0  0  0  0  0
   -2.2207    1.2438    1.5950 H   0  0  0  0  0  0  0  0  0  0  0  0
   -1.7525    1.7954   -0.0884 H   0  0  0  0  0  0  0  0  0  0  0  0
   -0.5921    1.9717    1.2412 H   0  0  0  0  0  0  0  0  0  0  0  0
    1.4369   -0.6221    1.5397 H   0  0  0  0  0  0  0  0  0  0  0  0
    2.9600   -1.9151    0.0129 H   0  0  0  0  0  0  0  0  0  0  0  0
    2.2595   -1.0571   -1.4926 H   0  0  0  0  0  0  0  0  0  0  0  0
    3.6454    0.3292    0.9024 H   0  0  0  0  0  0  0  0  0  0  0  0
    2.5678    2.2389   -0.1743 H   0  0  0  0  0  0  0  0  0  0  0  0
  1  2  1  0
  2  3  1  0
  3  4  1  0
  3  5  1  0
  5  6  1  0
  6  7  1  0
  7  8  1  0
  8  9  1  0
  8  6  1  0
  1 10  1  0
  1 11  1  0
  1 12  1  0
  2 13  1  0
  2 14  1  0
  3 15  1  0
  4 16  1  0
  4 17  1  0
  4 18  1  0
  6 19  1  0
  7 20  1  0
  7 21  1  0
  8 22  1  0
  9 23  1  0
M  END
