
     RDKit          3D

 21 20  0  0  0  0  0  0  0  0999 V2000
   -1.2366    1.3332   -0.2915 C   0  0  0  0  0  0  0  0  0  0  0  0
   -1.9946    0.0525   -0.5466 C   0  0  0  0  0  0  0  0  0  0  0  0
   -1.4054   -1.0408    0.3044 C   0  0  0  0  0  0  0  0  0  0  0  0
   -1.4880   -0.7240    1.6576 O   0  0  0  0  0  0  0  0  0  0  0  0
    0.0085   -1.3414   -0.1197 C   0  0  0  0  0  0  0  0  0  0  0  0
    0.7906   -0.1944    0.1438 O   0  0  0  0  0  0  0  0  0  0  0  0
    2.1568   -0.1394   -0.1349 C   0  0  0  0  0  0  0  0  0  0  0  0
    2.9625    1.0929    0.1558 C   0  0  0  0  0  0  0  0  0  0  0  0
    2.6668   -1.1667   -0.6364 O   0  0  0  0  0  0  0  0  0  0  0  0
   -0.8491    1.3309    0.7585 H   0  0  0  0  0  0  0  0  0  0  0  0
   -0.4193    1.3974   -1.0353 H   0  0  0  0  0  0  0  0  0  0  0  0
   -1.8671    2.2309   -0.4794 H   0  0  0  0  0  0  0  0  0  0  0  0
   -3.0656    0.1418   -0.2507 H   0  0  0  0  0  0  0  0  0  0  0  0
   -1.9217   -0.1698   -1.6273 H   0  0  0  0  0  0  0  0  0  0  0  0
   -2.0259   -1.9750    0.2028 H   0  0  0  0  0  0  0  0  0  0  0  0
   -2.2488   -1.1464    2.1166 H   0  0  0  0  0  0  0  0  0  0  0  0
    0.0479   -1.6313   -1.1955 H   0  0  0  0  0  0  0  0  0  0  0  0
    0.4145   -2.2391    0.4213 H   0  0  0  0  0  0  0  0  0  0  0  0
    2.4785    1.7026    0.9297 H   0  0  0  0  0  0  0  0  0  0  0  0
    3.9895    0.7781    0.3995 H   0  0  0  0  0  0  0  0  0  0  0  0
    3.0065    1.7079   -0.7725 H   0  0  0  0  0  0  0  0  0  0  0  0
  1  2  1  0
  2  3  1  0
  3  4  1  0
  3  5  1  0
  5  6  1  0
  6  7  1  0
  7  8  1  0
  7  9  2  0
  1 10  1  0
  1 11  1  0
  1 12  1  0
  2 13  1  0
  2 14  1  0
  3 15  1  0
  4 16  1  0
  5 17  1  0
  5 18  1  0
  8 19  1  0
  8 20  1  0
  8 21  1  0
M  END
