
     RDKit          3D

 23 22  0  0  0  0  0  0  0  0999 V2000
    3.5915    0.4754    0.1895 C   0  0  0  0  0  0  0  0  0  0  0  0
    2.4715   -0.3169   -0.4961 C   0  0  0  0  0  0  0  0  0  0  0  0
    1.1346    0.0326    0.0479 C   0  0  0  0  0  0  0  0  0  0  0  0
    0.8404    1.1832    0.2295 O   0  0  0  0  0  0  0  0  0  0  0  0
    0.1937   -1.0631    0.3567 C   0  0  0  0  0  0  0  0  0  0  0  0
   -1.0510   -0.6970    0.7721 O   0  0  0  0  0  0  0  0  0  0  0  0
   -1.7749    0.0635   -0.1294 C   0  0  0  0  0  0  0  0  0  0  0  0
   -3.0075   -0.6986   -0.6164 C   0  0  0  0  0  0  0  0  0  0  0  0
   -2.1889    1.3346    0.5506 C   0  0  0  0  0  0  0  0  0  0  0  0
    4.4388    0.4862   -0.5245 H   0  0  0  0  0  0  0  0  0  0  0  0
    3.2842    1.4594    0.5345 H   0  0  0  0  0  0  0  0  0  0  0  0
    3.9643   -0.1805    1.0441 H   0  0  0  0  0  0  0  0  0  0  0  0
    2.7269   -1.3857   -0.3942 H   0  0  0  0  0  0  0  0  0  0  0  0
    2.5131   -0.0615   -1.6033 H   0  0  0  0  0  0  0  0  0  0  0  0
    0.1888   -1.8275   -0.4689 H   0  0  0  0  0  0  0  0  0  0  0  0
    0.6629   -1.5619    1.2744 H   0  0  0  0  0  0  0  0  0  0  0  0
   -1.2098    0.2958   -1.0416 H   0  0  0  0  0  0  0  0  0  0  0  0
   -3.4978   -0.0833   -1.3780 H   0  0  0  0  0  0  0  0  0  0  0  0
   -3.7236   -0.8294    0.2082 H   0  0  0  0  0  0  0  0  0  0  0  0
   -2.6696   -1.6396   -1.0801 H   0  0  0  0  0  0  0  0  0  0  0  0
   -1.8970    1.3651    1.6324 H   0  0  0  0  0  0  0  0  0  0  0  0
   -1.6972    2.1781    0.0337 H   0  0  0  0  0  0  0  0  0  0  0  0
   -3.2933    1.4711    0.5251 H   0  0  0  0  0  0  0  0  0  0  0  0
  1  2  1  0
  2  3  1  0
  3  4  2  0
  3  5  1  0
  5  6  1  0
  6  7  1  0
  7  8  1  0
  7  9  1  0
  1 10  1  0
  1 11  1  0
  1 12  1  0
  2 13  1  0
  2 14  1  0
  5 15  1  0
  5 16  1  0
  7 17  1  0
  8 18  1  0
  8 19  1  0
  8 20  1  0
  9 21  1  0
  9 22  1  0
  9 23  1  0
M  END
