
     RDKit          3D

 19 20  0  0  0  0  0  0  0  0999 V2000
    3.0526    0.3384   -0.2870 C   0  0  0  0  0  0  0  0  0  0  0  0
    1.7410   -0.0465    0.3571 C   0  0  0  0  0  0  0  0  0  0  0  0
    0.7078   -0.3583   -0.6426 C   0  0  0  0  0  0  0  0  0  0  0  0
    0.9904   -0.2811   -1.8199 O   0  0  0  0  0  0  0  0  0  0  0  0
   -0.6471   -0.7578   -0.2577 C   0  0  0  0  0  0  0  0  0  0  0  0
   -0.9299   -0.8344    1.0795 O   0  0  0  0  0  0  0  0  0  0  0  0
   -2.0420   -0.0282    1.1096 C   0  0  0  0  0  0  0  0  0  0  0  0
   -3.0277    0.0169    0.0172 C   0  0  0  0  0  0  0  0  0  0  0  0
   -1.6513    0.3994   -0.3391 C   0  0  0  0  0  0  0  0  0  0  0  0
    3.8413    0.3327    0.4702 H   0  0  0  0  0  0  0  0  0  0  0  0
    3.0145    1.3435   -0.7589 H   0  0  0  0  0  0  0  0  0  0  0  0
    3.2673   -0.3733   -1.1282 H   0  0  0  0  0  0  0  0  0  0  0  0
    1.3604    0.7877    0.9829 H   0  0  0  0  0  0  0  0  0  0  0  0
    1.9223   -0.9551    0.9630 H   0  0  0  0  0  0  0  0  0  0  0  0
   -1.0637   -1.5980   -0.8623 H   0  0  0  0  0  0  0  0  0  0  0  0
   -2.0819    0.7619    1.8635 H   0  0  0  0  0  0  0  0  0  0  0  0
   -3.3803   -0.9649   -0.3961 H   0  0  0  0  0  0  0  0  0  0  0  0
   -3.7868    0.7966    0.0529 H   0  0  0  0  0  0  0  0  0  0  0  0
   -1.2871    1.4205   -0.4040 H   0  0  0  0  0  0  0  0  0  0  0  0
  1  2  1  0
  2  3  1  0
  3  4  2  0
  3  5  1  0
  5  6  1  0
  6  7  1  0
  7  8  1  0
  8  9  1  0
  9  5  1  0
  9  7  1  0
  1 10  1  0
  1 11  1  0
  1 12  1  0
  2 13  1  0
  2 14  1  0
  5 15  1  0
  7 16  1  0
  8 17  1  0
  8 18  1  0
  9 19  1  0
M  END
