
     RDKit          3D

 19 18  0  0  0  0  0  0  0  0999 V2000
   -2.7834   -0.0192    0.0362 C   0  0  0  0  0  0  0  0  0  0  0  0
   -1.4269    0.5679   -0.3545 C   0  0  0  0  0  0  0  0  0  0  0  0
   -0.4394   -0.0109    0.6598 C   0  0  0  0  0  0  0  0  0  0  0  0
   -0.5019   -1.4023    0.5104 O   0  0  0  0  0  0  0  0  0  0  0  0
    0.9506    0.4543    0.3864 C   0  0  0  0  0  0  0  0  0  0  0  0
    1.2338    1.6294    0.5262 O   0  0  0  0  0  0  0  0  0  0  0  0
    2.0145   -0.4815   -0.0573 C   0  0  0  0  0  0  0  0  0  0  0  0
    3.2707    0.2967   -0.1961 C   0  0  0  0  0  0  0  0  0  0  0  0
    3.7290    0.9654    0.7178 O   0  0  0  0  0  0  0  0  0  0  0  0
   -3.5917    0.4538   -0.5601 H   0  0  0  0  0  0  0  0  0  0  0  0
   -2.9133    0.1946    1.0952 H   0  0  0  0  0  0  0  0  0  0  0  0
   -2.7469   -1.1298   -0.1093 H   0  0  0  0  0  0  0  0  0  0  0  0
   -1.5191    1.6665   -0.2607 H   0  0  0  0  0  0  0  0  0  0  0  0
   -1.2064    0.2289   -1.3719 H   0  0  0  0  0  0  0  0  0  0  0  0
   -0.7176    0.3361    1.6520 H   0  0  0  0  0  0  0  0  0  0  0  0
   -1.0679   -1.7431    1.2497 H   0  0  0  0  0  0  0  0  0  0  0  0
    2.1685   -1.3004    0.7197 H   0  0  0  0  0  0  0  0  0  0  0  0
    1.7648   -0.9573   -1.0296 H   0  0  0  0  0  0  0  0  0  0  0  0
    3.7827    0.2509   -1.1730 H   0  0  0  0  0  0  0  0  0  0  0  0
  1  2  1  0
  2  3  1  0
  3  4  1  0
  3  5  1  0
  5  6  2  0
  5  7  1  0
  7  8  1  0
  8  9  2  0
  1 10  1  0
  1 11  1  0
  1 12  1  0
  2 13  1  0
  2 14  1  0
  3 15  1  0
  4 16  1  0
  7 17  1  0
  7 18  1  0
  8 19  1  0
M  END
