
     RDKit          3D

 21 21  0  0  0  0  0  0  0  0999 V2000
    2.1625   -1.1506   -0.1742 C   0  0  0  0  0  0  0  0  0  0  0  0
    1.7057   -0.1638    0.8691 C   0  0  0  0  0  0  0  0  0  0  0  0
    0.7754    0.7876    0.2060 C   0  0  0  0  0  0  0  0  0  0  0  0
    1.1720    1.3868   -0.7718 O   0  0  0  0  0  0  0  0  0  0  0  0
   -0.5697    0.9577    0.7549 C   0  0  0  0  0  0  0  0  0  0  0  0
   -1.4063    1.9417   -0.0647 C   0  0  0  0  0  0  0  0  0  0  0  0
   -1.7061    0.8663   -0.9185 O   0  0  0  0  0  0  0  0  0  0  0  0
   -1.6417    0.0539    0.2086 C   0  0  0  0  0  0  0  0  0  0  0  0
   -1.2389   -1.3286   -0.1664 C   0  0  0  0  0  0  0  0  0  0  0  0
    3.2620   -1.2133   -0.1229 H   0  0  0  0  0  0  0  0  0  0  0  0
    1.9196   -0.7912   -1.1984 H   0  0  0  0  0  0  0  0  0  0  0  0
    1.6504   -2.1063   -0.0012 H   0  0  0  0  0  0  0  0  0  0  0  0
    2.5753    0.3674    1.3226 H   0  0  0  0  0  0  0  0  0  0  0  0
    1.2299   -0.7176    1.6905 H   0  0  0  0  0  0  0  0  0  0  0  0
   -0.6651    1.1822    1.8210 H   0  0  0  0  0  0  0  0  0  0  0  0
   -2.3322    2.2046    0.4945 H   0  0  0  0  0  0  0  0  0  0  0  0
   -0.8547    2.7448   -0.5548 H   0  0  0  0  0  0  0  0  0  0  0  0
   -2.5736    0.1419    0.7916 H   0  0  0  0  0  0  0  0  0  0  0  0
   -0.6842   -1.8108    0.6872 H   0  0  0  0  0  0  0  0  0  0  0  0
   -0.6114   -1.3920   -1.0751 H   0  0  0  0  0  0  0  0  0  0  0  0
   -2.1688   -1.9606   -0.2933 H   0  0  0  0  0  0  0  0  0  0  0  0
  1  2  1  0
  2  3  1  0
  3  4  2  0
  3  5  1  0
  5  6  1  0
  6  7  1  0
  7  8  1  0
  8  9  1  0
  8  5  1  0
  1 10  1  0
  1 11  1  0
  1 12  1  0
  2 13  1  0
  2 14  1  0
  5 15  1  0
  6 16  1  0
  6 17  1  0
  8 18  1  0
  9 19  1  0
  9 20  1  0
  9 21  1  0
M  END
