
     RDKit          3D

 16 15  0  0  0  0  0  0  0  0999 V2000
   -3.0510   -0.1569   -0.5924 C   0  0  0  0  0  0  0  0  0  0  0  0
   -1.5585   -0.2684   -0.7139 C   0  0  0  0  0  0  0  0  0  0  0  0
   -0.8876    0.0669    0.5879 C   0  0  0  0  0  0  0  0  0  0  0  0
   -1.6136    0.3801    1.5585 O   0  0  0  0  0  0  0  0  0  0  0  0
    0.5279    0.0102    0.6456 C   0  0  0  0  0  0  0  0  0  0  0  0
    1.7498   -0.0456    0.6875 C   0  0  0  0  0  0  0  0  0  0  0  0
    3.2118   -0.0907    0.7449 C   0  0  0  0  0  0  0  0  0  0  0  0
    3.7473    1.1799    1.0215 O   0  0  0  0  0  0  0  0  0  0  0  0
   -3.4401    0.3809   -1.4740 H   0  0  0  0  0  0  0  0  0  0  0  0
   -3.3505    0.4049    0.3088 H   0  0  0  0  0  0  0  0  0  0  0  0
   -3.4709   -1.1830   -0.6372 H   0  0  0  0  0  0  0  0  0  0  0  0
   -1.1863    0.4861   -1.4398 H   0  0  0  0  0  0  0  0  0  0  0  0
   -1.2247   -1.2572   -1.0723 H   0  0  0  0  0  0  0  0  0  0  0  0
    3.5097   -0.8124    1.5542 H   0  0  0  0  0  0  0  0  0  0  0  0
    3.5855   -0.4772   -0.2380 H   0  0  0  0  0  0  0  0  0  0  0  0
    3.4511    1.3824    1.9595 H   0  0  0  0  0  0  0  0  0  0  0  0
  1  2  1  0
  2  3  1  0
  3  4  2  0
  3  5  1  0
  5  6  3  0
  6  7  1  0
  7  8  1  0
  1  9  1  0
  1 10  1  0
  1 11  1  0
  2 12  1  0
  2 13  1  0
  7 14  1  0
  7 15  1  0
  8 16  1  0
M  END
