
     RDKit          3D

 23 24  0  0  0  0  0  0  0  0999 V2000
   -2.7557   -0.0103   -0.8235 C   0  0  0  0  0  0  0  0  0  0  0  0
   -1.6939    0.6296    0.0319 C   0  0  0  0  0  0  0  0  0  0  0  0
   -0.3453   -0.0587   -0.1849 C   0  0  0  0  0  0  0  0  0  0  0  0
   -0.4939   -1.5183    0.1946 C   0  0  0  0  0  0  0  0  0  0  0  0
    0.6242    0.5380    0.8227 C   0  0  0  0  0  0  0  0  0  0  0  0
    1.9962   -0.0168    0.7571 C   0  0  0  0  0  0  0  0  0  0  0  0
    2.5711   -0.1289   -0.6480 C   0  0  0  0  0  0  0  0  0  0  0  0
    2.4299    1.2573   -0.7471 O   0  0  0  0  0  0  0  0  0  0  0  0
    1.6938    1.4550    0.3985 C   0  0  0  0  0  0  0  0  0  0  0  0
   -3.4097   -0.6715   -0.2016 H   0  0  0  0  0  0  0  0  0  0  0  0
   -3.4527    0.7597   -1.2584 H   0  0  0  0  0  0  0  0  0  0  0  0
   -2.3331   -0.5703   -1.6872 H   0  0  0  0  0  0  0  0  0  0  0  0
   -1.6108    1.7159   -0.1786 H   0  0  0  0  0  0  0  0  0  0  0  0
   -1.9702    0.5307    1.1020 H   0  0  0  0  0  0  0  0  0  0  0  0
   -0.0234    0.0757   -1.2229 H   0  0  0  0  0  0  0  0  0  0  0  0
    0.4820   -2.0303    0.2173 H   0  0  0  0  0  0  0  0  0  0  0  0
   -1.2489   -2.0421   -0.4201 H   0  0  0  0  0  0  0  0  0  0  0  0
   -0.8521   -1.5127    1.2653 H   0  0  0  0  0  0  0  0  0  0  0  0
    0.1853    0.7179    1.8126 H   0  0  0  0  0  0  0  0  0  0  0  0
    2.6325   -0.1607    1.6258 H   0  0  0  0  0  0  0  0  0  0  0  0
    3.5897   -0.5119   -0.5984 H   0  0  0  0  0  0  0  0  0  0  0  0
    1.9475   -0.6710   -1.3615 H   0  0  0  0  0  0  0  0  0  0  0  0
    2.0373    2.2236    1.1044 H   0  0  0  0  0  0  0  0  0  0  0  0
  1  2  1  0
  2  3  1  0
  3  4  1  0
  3  5  1  0
  5  6  1  0
  6  7  1  0
  7  8  1  0
  8  9  1  0
  9  5  1  0
  9  6  1  0
  1 10  1  0
  1 11  1  0
  1 12  1  0
  2 13  1  0
  2 14  1  0
  3 15  1  0
  4 16  1  0
  4 17  1  0
  4 18  1  0
  5 19  1  0
  6 20  1  0
  7 21  1  0
  7 22  1  0
  9 23  1  0
M  END
