
     RDKit          3D

 25 24  0  0  0  0  0  0  0  0999 V2000
    3.2077    0.6576    0.1195 C   0  0  0  0  0  0  0  0  0  0  0  0
    2.1643   -0.2988   -0.3326 C   0  0  0  0  0  0  0  0  0  0  0  0
    0.7837    0.2594   -0.2667 C   0  0  0  0  0  0  0  0  0  0  0  0
    0.6710    1.3986    0.1372 O   0  0  0  0  0  0  0  0  0  0  0  0
   -0.3165   -0.6107   -0.6933 C   0  0  0  0  0  0  0  0  0  0  0  0
   -0.2917   -1.8436    0.2166 C   0  0  0  0  0  0  0  0  0  0  0  0
   -1.6764    0.0026   -0.5653 C   0  0  0  0  0  0  0  0  0  0  0  0
   -2.0052    0.3881    0.8595 C   0  0  0  0  0  0  0  0  0  0  0  0
   -1.8996    1.1902   -1.4350 C   0  0  0  0  0  0  0  0  0  0  0  0
    3.3966    0.5607    1.2093 H   0  0  0  0  0  0  0  0  0  0  0  0
    4.1850    0.4847   -0.3783 H   0  0  0  0  0  0  0  0  0  0  0  0
    2.9081    1.6963   -0.1627 H   0  0  0  0  0  0  0  0  0  0  0  0
    2.3815   -0.5439   -1.4131 H   0  0  0  0  0  0  0  0  0  0  0  0
    2.2597   -1.2352    0.2291 H   0  0  0  0  0  0  0  0  0  0  0  0
   -0.1024   -0.9748   -1.7173 H   0  0  0  0  0  0  0  0  0  0  0  0
   -0.2157   -1.5085    1.2768 H   0  0  0  0  0  0  0  0  0  0  0  0
    0.6330   -2.4532    0.0084 H   0  0  0  0  0  0  0  0  0  0  0  0
   -1.1994   -2.4546    0.0467 H   0  0  0  0  0  0  0  0  0  0  0  0
   -2.4177   -0.7790   -0.8576 H   0  0  0  0  0  0  0  0  0  0  0  0
   -1.3966    1.2435    1.2163 H   0  0  0  0  0  0  0  0  0  0  0  0
   -1.9607   -0.4831    1.5432 H   0  0  0  0  0  0  0  0  0  0  0  0
   -3.0638    0.7668    0.8518 H   0  0  0  0  0  0  0  0  0  0  0  0
   -2.9948    1.2484   -1.6565 H   0  0  0  0  0  0  0  0  0  0  0  0
   -1.6488    2.1660   -0.9320 H   0  0  0  0  0  0  0  0  0  0  0  0
   -1.4013    1.1223   -2.4333 H   0  0  0  0  0  0  0  0  0  0  0  0
  1  2  1  0
  2  3  1  0
  3  4  2  0
  3  5  1  0
  5  6  1  0
  5  7  1  0
  7  8  1  0
  7  9  1  0
  1 10  1  0
  1 11  1  0
  1 12  1  0
  2 13  1  0
  2 14  1  0
  5 15  1  0
  6 16  1  0
  6 17  1  0
  6 18  1  0
  7 19  1  0
  8 20  1  0
  8 21  1  0
  8 22  1  0
  9 23  1  0
  9 24  1  0
  9 25  1  0
M  END
