
     RDKit          3D

 27 27  0  0  0  0  0  0  0  0999 V2000
   -1.7654    1.4356    0.9705 C   0  0  0  0  0  0  0  0  0  0  0  0
   -2.1894    0.5170   -0.1404 C   0  0  0  0  0  0  0  0  0  0  0  0
   -1.3242   -0.7248   -0.2400 C   0  0  0  0  0  0  0  0  0  0  0  0
   -1.4051   -1.4861    1.0371 C   0  0  0  0  0  0  0  0  0  0  0  0
    0.0440   -0.4475   -0.7319 C   0  0  0  0  0  0  0  0  0  0  0  0
    0.9290   -1.7011   -0.8362 C   0  0  0  0  0  0  0  0  0  0  0  0
    1.2724   -0.5250    0.0553 C   0  0  0  0  0  0  0  0  0  0  0  0
    2.4957    0.2176   -0.3750 C   0  0  0  0  0  0  0  0  0  0  0  0
    2.2894    1.7100   -0.4544 C   0  0  0  0  0  0  0  0  0  0  0  0
   -0.7877    1.1590    1.4116 H   0  0  0  0  0  0  0  0  0  0  0  0
   -2.5496    1.5286    1.7520 H   0  0  0  0  0  0  0  0  0  0  0  0
   -1.6408    2.4522    0.5421 H   0  0  0  0  0  0  0  0  0  0  0  0
   -3.2387    0.2027    0.0532 H   0  0  0  0  0  0  0  0  0  0  0  0
   -2.1915    1.0233   -1.1281 H   0  0  0  0  0  0  0  0  0  0  0  0
   -1.8383   -1.3578   -1.0255 H   0  0  0  0  0  0  0  0  0  0  0  0
   -2.3570   -1.2676    1.6066 H   0  0  0  0  0  0  0  0  0  0  0  0
   -1.4555   -2.6028    0.8690 H   0  0  0  0  0  0  0  0  0  0  0  0
   -0.5958   -1.3254    1.7459 H   0  0  0  0  0  0  0  0  0  0  0  0
    0.0788    0.2488   -1.6129 H   0  0  0  0  0  0  0  0  0  0  0  0
    0.5687   -2.6339   -0.3942 H   0  0  0  0  0  0  0  0  0  0  0  0
    1.4760   -1.8396   -1.7863 H   0  0  0  0  0  0  0  0  0  0  0  0
    1.2718   -0.7990    1.1335 H   0  0  0  0  0  0  0  0  0  0  0  0
    3.3354    0.0694    0.3672 H   0  0  0  0  0  0  0  0  0  0  0  0
    2.9049   -0.1687   -1.3306 H   0  0  0  0  0  0  0  0  0  0  0  0
    1.8966    1.9752   -1.4576 H   0  0  0  0  0  0  0  0  0  0  0  0
    1.5417    2.0654    0.2825 H   0  0  0  0  0  0  0  0  0  0  0  0
    3.2346    2.2747   -0.3132 H   0  0  0  0  0  0  0  0  0  0  0  0
  1  2  1  0
  2  3  1  0
  3  4  1  0
  3  5  1  0
  5  6  1  0
  6  7  1  0
  7  8  1  0
  8  9  1  0
  7  5  1  0
  1 10  1  0
  1 11  1  0
  1 12  1  0
  2 13  1  0
  2 14  1  0
  3 15  1  0
  4 16  1  0
  4 17  1  0
  4 18  1  0
  5 19  1  0
  6 20  1  0
  6 21  1  0
  7 22  1  0
  8 23  1  0
  8 24  1  0
  9 25  1  0
  9 26  1  0
  9 27  1  0
M  END
