
     RDKit          3D

 23 22  0  0  0  0  0  0  0  0999 V2000
    2.2912   -0.7012   -0.2909 C   0  0  0  0  0  0  0  0  0  0  0  0
    0.7922   -0.8162   -0.4773 C   0  0  0  0  0  0  0  0  0  0  0  0
    0.1100    0.4310   -0.0034 C   0  0  0  0  0  0  0  0  0  0  0  0
    0.6113    1.6581   -0.7897 C   0  0  0  0  0  0  0  0  0  0  0  0
    0.4422    0.6563    1.4154 C   0  0  0  0  0  0  0  0  0  0  0  0
   -0.1901    1.4508    2.0908 O   0  0  0  0  0  0  0  0  0  0  0  0
   -1.3654    0.4212   -0.2009 C   0  0  0  0  0  0  0  0  0  0  0  0
   -2.1176   -0.6644    0.4897 C   0  0  0  0  0  0  0  0  0  0  0  0
   -1.7947   -1.9451    0.1487 O   0  0  0  0  0  0  0  0  0  0  0  0
    2.7355   -1.6040    0.1775 H   0  0  0  0  0  0  0  0  0  0  0  0
    2.7585   -0.6462   -1.3160 H   0  0  0  0  0  0  0  0  0  0  0  0
    2.5843    0.1604    0.3340 H   0  0  0  0  0  0  0  0  0  0  0  0
    0.5397   -0.9816   -1.5394 H   0  0  0  0  0  0  0  0  0  0  0  0
    0.4846   -1.6461    0.1964 H   0  0  0  0  0  0  0  0  0  0  0  0
    0.0437    1.6605   -1.7414 H   0  0  0  0  0  0  0  0  0  0  0  0
    0.3489    2.5302   -0.1674 H   0  0  0  0  0  0  0  0  0  0  0  0
    1.6692    1.5757   -1.0383 H   0  0  0  0  0  0  0  0  0  0  0  0
    1.2582    0.1161    1.8826 H   0  0  0  0  0  0  0  0  0  0  0  0
   -1.6284    0.4872   -1.2793 H   0  0  0  0  0  0  0  0  0  0  0  0
   -1.7503    1.3911    0.2358 H   0  0  0  0  0  0  0  0  0  0  0  0
   -2.0733   -0.4593    1.5811 H   0  0  0  0  0  0  0  0  0  0  0  0
   -3.2010   -0.5164    0.2117 H   0  0  0  0  0  0  0  0  0  0  0  0
   -2.5489   -2.5581    0.0803 H   0  0  0  0  0  0  0  0  0  0  0  0
  1  2  1  0
  2  3  1  0
  3  4  1  0
  3  5  1  0
  5  6  2  0
  3  7  1  0
  7  8  1  0
  8  9  1  0
  1 10  1  0
  1 11  1  0
  1 12  1  0
  2 13  1  0
  2 14  1  0
  4 15  1  0
  4 16  1  0
  4 17  1  0
  5 18  1  0
  7 19  1  0
  7 20  1  0
  8 21  1  0
  8 22  1  0
  9 23  1  0
M  END
