
     RDKit          3D

 19 18  0  0  0  0  0  0  0  0999 V2000
   -1.1073   -1.3490    1.1276 C   0  0  0  0  0  0  0  0  0  0  0  0
   -0.3502   -0.0639    1.1639 C   0  0  0  0  0  0  0  0  0  0  0  0
    0.1951    0.3501   -0.1825 C   0  0  0  0  0  0  0  0  0  0  0  0
   -0.8851    0.4985   -1.0448 O   0  0  0  0  0  0  0  0  0  0  0  0
   -1.0328    1.8150   -1.3926 C   0  0  0  0  0  0  0  0  0  0  0  0
    1.1491   -0.5983   -0.7422 C   0  0  0  0  0  0  0  0  0  0  0  0
    0.9340   -1.1452   -1.8453 O   0  0  0  0  0  0  0  0  0  0  0  0
    2.3693   -0.9272   -0.0295 C   0  0  0  0  0  0  0  0  0  0  0  0
    2.6672   -0.4222    1.0900 O   0  0  0  0  0  0  0  0  0  0  0  0
   -2.0545   -1.2655    1.7009 H   0  0  0  0  0  0  0  0  0  0  0  0
   -1.3403   -1.6693    0.0822 H   0  0  0  0  0  0  0  0  0  0  0  0
   -0.5377   -2.1822    1.6333 H   0  0  0  0  0  0  0  0  0  0  0  0
    0.4690   -0.1401    1.9200 H   0  0  0  0  0  0  0  0  0  0  0  0
   -1.0282    0.7342    1.5287 H   0  0  0  0  0  0  0  0  0  0  0  0
    0.6337    1.3663   -0.0233 H   0  0  0  0  0  0  0  0  0  0  0  0
   -0.1058    2.1988   -1.9108 H   0  0  0  0  0  0  0  0  0  0  0  0
   -1.8655    1.9514   -2.1142 H   0  0  0  0  0  0  0  0  0  0  0  0
   -1.2021    2.4788   -0.5334 H   0  0  0  0  0  0  0  0  0  0  0  0
    3.0923   -1.6302   -0.4280 H   0  0  0  0  0  0  0  0  0  0  0  0
  1  2  1  0
  2  3  1  0
  3  4  1  0
  4  5  1  0
  3  6  1  0
  6  7  2  0
  6  8  1  0
  8  9  2  0
  1 10  1  0
  1 11  1  0
  1 12  1  0
  2 13  1  0
  2 14  1  0
  3 15  1  0
  5 16  1  0
  5 17  1  0
  5 18  1  0
  8 19  1  0
M  END
