
     RDKit          3D

 25 24  0  0  0  0  0  0  0  0999 V2000
   -2.0717    0.8479    0.7975 C   0  0  0  0  0  0  0  0  0  0  0  0
   -0.6157    0.4604    0.9142 C   0  0  0  0  0  0  0  0  0  0  0  0
   -0.1313   -0.2659   -0.3023 C   0  0  0  0  0  0  0  0  0  0  0  0
   -0.9800   -1.5182   -0.4446 C   0  0  0  0  0  0  0  0  0  0  0  0
   -0.3988    0.5960   -1.5120 C   0  0  0  0  0  0  0  0  0  0  0  0
    1.3000   -0.6334   -0.1363 C   0  0  0  0  0  0  0  0  0  0  0  0
    1.5115   -1.4564    0.9639 O   0  0  0  0  0  0  0  0  0  0  0  0
    2.2717    0.5033   -0.1994 C   0  0  0  0  0  0  0  0  0  0  0  0
    2.2591    1.3486    0.8833 O   0  0  0  0  0  0  0  0  0  0  0  0
   -2.5656    0.3769   -0.0855 H   0  0  0  0  0  0  0  0  0  0  0  0
   -2.6699    0.5253    1.6806 H   0  0  0  0  0  0  0  0  0  0  0  0
   -2.1865    1.9412    0.7049 H   0  0  0  0  0  0  0  0  0  0  0  0
   -0.5196   -0.1277    1.8498 H   0  0  0  0  0  0  0  0  0  0  0  0
   -0.0485    1.3983    1.0866 H   0  0  0  0  0  0  0  0  0  0  0  0
   -1.8598   -1.5044    0.2540 H   0  0  0  0  0  0  0  0  0  0  0  0
   -1.3065   -1.6369   -1.4966 H   0  0  0  0  0  0  0  0  0  0  0  0
   -0.3530   -2.3860   -0.1958 H   0  0  0  0  0  0  0  0  0  0  0  0
   -1.4591    0.4363   -1.8006 H   0  0  0  0  0  0  0  0  0  0  0  0
    0.1998    0.2527   -2.3979 H   0  0  0  0  0  0  0  0  0  0  0  0
   -0.2701    1.6626   -1.3010 H   0  0  0  0  0  0  0  0  0  0  0  0
    1.5458   -1.2960   -1.0265 H   0  0  0  0  0  0  0  0  0  0  0  0
    0.6792   -1.7206    1.4300 H   0  0  0  0  0  0  0  0  0  0  0  0
    2.0693    1.1415   -1.1004 H   0  0  0  0  0  0  0  0  0  0  0  0
    3.3167    0.1382   -0.3215 H   0  0  0  0  0  0  0  0  0  0  0  0
    2.2829    0.9162    1.7556 H   0  0  0  0  0  0  0  0  0  0  0  0
  1  2  1  0
  2  3  1  0
  3  4  1  0
  3  5  1  0
  3  6  1  0
  6  7  1  0
  6  8  1  0
  8  9  1  0
  1 10  1  0
  1 11  1  0
  1 12  1  0
  2 13  1  0
  2 14  1  0
  4 15  1  0
  4 16  1  0
  4 17  1  0
  5 18  1  0
  5 19  1  0
  5 20  1  0
  6 21  1  0
  7 22  1  0
  8 23  1  0
  8 24  1  0
  9 25  1  0
M  END
