
     RDKit          3D

 23 23  0  0  0  0  0  0  0  0999 V2000
    2.9250    0.3512   -0.3186 C   0  0  0  0  0  0  0  0  0  0  0  0
    1.8003    0.8491    0.5592 C   0  0  0  0  0  0  0  0  0  0  0  0
    0.7521   -0.1943    0.7564 C   0  0  0  0  0  0  0  0  0  0  0  0
    0.9834   -1.0671    1.5745 O   0  0  0  0  0  0  0  0  0  0  0  0
   -0.5180   -0.2080    0.0182 C   0  0  0  0  0  0  0  0  0  0  0  0
   -0.3367   -0.3076   -1.4790 C   0  0  0  0  0  0  0  0  0  0  0  0
   -1.5306    0.8440    0.4338 C   0  0  0  0  0  0  0  0  0  0  0  0
   -2.6043   -0.2383    0.2544 C   0  0  0  0  0  0  0  0  0  0  0  0
   -1.4840   -1.2458    0.5473 C   0  0  0  0  0  0  0  0  0  0  0  0
    2.6275   -0.5760   -0.8588 H   0  0  0  0  0  0  0  0  0  0  0  0
    3.8376    0.0873    0.2548 H   0  0  0  0  0  0  0  0  0  0  0  0
    3.2308    1.1492   -1.0560 H   0  0  0  0  0  0  0  0  0  0  0  0
    2.2258    1.0657    1.5669 H   0  0  0  0  0  0  0  0  0  0  0  0
    1.3685    1.8079    0.2068 H   0  0  0  0  0  0  0  0  0  0  0  0
   -0.0741   -1.3448   -1.7968 H   0  0  0  0  0  0  0  0  0  0  0  0
   -1.2850   -0.0588   -1.9966 H   0  0  0  0  0  0  0  0  0  0  0  0
    0.4335    0.4368   -1.7571 H   0  0  0  0  0  0  0  0  0  0  0  0
   -1.6243    1.6947   -0.2540 H   0  0  0  0  0  0  0  0  0  0  0  0
   -1.4158    1.0785    1.5077 H   0  0  0  0  0  0  0  0  0  0  0  0
   -3.3920   -0.2054    1.0247 H   0  0  0  0  0  0  0  0  0  0  0  0
   -2.9313   -0.3591   -0.7846 H   0  0  0  0  0  0  0  0  0  0  0  0
   -1.4271   -1.3883    1.6477 H   0  0  0  0  0  0  0  0  0  0  0  0
   -1.5614   -2.1710   -0.0509 H   0  0  0  0  0  0  0  0  0  0  0  0
  1  2  1  0
  2  3  1  0
  3  4  2  0
  3  5  1  0
  5  6  1  0
  5  7  1  0
  7  8  1  0
  8  9  1  0
  9  5  1  0
  1 10  1  0
  1 11  1  0
  1 12  1  0
  2 13  1  0
  2 14  1  0
  6 15  1  0
  6 16  1  0
  6 17  1  0
  7 18  1  0
  7 19  1  0
  8 20  1  0
  8 21  1  0
  9 22  1  0
  9 23  1  0
M  END
