
     RDKit          3D

 21 22  0  0  0  0  0  0  0  0999 V2000
   -2.6140    0.3702    0.2842 C   0  0  0  0  0  0  0  0  0  0  0  0
   -1.6356   -0.7562    0.1196 C   0  0  0  0  0  0  0  0  0  0  0  0
   -0.5944   -0.5190   -0.9186 C   0  0  0  0  0  0  0  0  0  0  0  0
    0.2285   -1.6528   -0.9450 O   0  0  0  0  0  0  0  0  0  0  0  0
    0.2702    0.6685   -0.6915 C   0  0  0  0  0  0  0  0  0  0  0  0
    1.2071    0.7608   -1.7458 O   0  0  0  0  0  0  0  0  0  0  0  0
    2.1065    0.1124   -0.9207 C   0  0  0  0  0  0  0  0  0  0  0  0
    2.7297    0.9486    0.1307 C   0  0  0  0  0  0  0  0  0  0  0  0
    1.3473    0.4714    0.3272 C   0  0  0  0  0  0  0  0  0  0  0  0
   -3.1026    0.5673   -0.7005 H   0  0  0  0  0  0  0  0  0  0  0  0
   -3.4389   -0.0138    0.9407 H   0  0  0  0  0  0  0  0  0  0  0  0
   -2.2018    1.2690    0.7474 H   0  0  0  0  0  0  0  0  0  0  0  0
   -1.1765   -1.0268    1.0905 H   0  0  0  0  0  0  0  0  0  0  0  0
   -2.2215   -1.6506   -0.1974 H   0  0  0  0  0  0  0  0  0  0  0  0
   -1.0793   -0.4859   -1.9331 H   0  0  0  0  0  0  0  0  0  0  0  0
    0.3644   -2.0084   -0.0103 H   0  0  0  0  0  0  0  0  0  0  0  0
   -0.2288    1.6477   -0.5949 H   0  0  0  0  0  0  0  0  0  0  0  0
    2.4397   -0.9049   -1.1172 H   0  0  0  0  0  0  0  0  0  0  0  0
    3.5301    0.4486    0.7161 H   0  0  0  0  0  0  0  0  0  0  0  0
    2.9113    2.0133   -0.1190 H   0  0  0  0  0  0  0  0  0  0  0  0
    1.1586   -0.2595    1.1122 H   0  0  0  0  0  0  0  0  0  0  0  0
  1  2  1  0
  2  3  1  0
  3  4  1  0
  3  5  1  0
  5  6  1  0
  6  7  1  0
  7  8  1  0
  8  9  1  0
  9  5  1  0
  9  7  1  0
  1 10  1  0
  1 11  1  0
  1 12  1  0
  2 13  1  0
  2 14  1  0
  3 15  1  0
  4 16  1  0
  5 17  1  0
  7 18  1  0
  8 19  1  0
  8 20  1  0
  9 21  1  0
M  END
