
     RDKit          3D

 25 25  0  0  0  0  0  0  0  0999 V2000
   -2.5428    0.9239   -0.5899 C   0  0  0  0  0  0  0  0  0  0  0  0
   -1.5050   -0.0367   -1.1636 C   0  0  0  0  0  0  0  0  0  0  0  0
   -0.7022   -0.6855   -0.0467 C   0  0  0  0  0  0  0  0  0  0  0  0
   -1.6774   -1.4295    0.8155 C   0  0  0  0  0  0  0  0  0  0  0  0
    0.0743    0.2211    0.4980 O   0  0  0  0  0  0  0  0  0  0  0  0
    1.3991    0.2312    0.4827 C   0  0  0  0  0  0  0  0  0  0  0  0
    1.9549    1.4641    1.2271 C   0  0  0  0  0  0  0  0  0  0  0  0
    2.0339    0.0637   -0.9133 C   0  0  0  0  0  0  0  0  0  0  0  0
    2.3481   -0.8410    0.2762 C   0  0  0  0  0  0  0  0  0  0  0  0
   -2.4799    1.9167   -1.0927 H   0  0  0  0  0  0  0  0  0  0  0  0
   -2.3860    1.0877    0.5008 H   0  0  0  0  0  0  0  0  0  0  0  0
   -3.5825    0.5611   -0.7824 H   0  0  0  0  0  0  0  0  0  0  0  0
   -0.7972    0.5710   -1.7604 H   0  0  0  0  0  0  0  0  0  0  0  0
   -2.0539   -0.7765   -1.7642 H   0  0  0  0  0  0  0  0  0  0  0  0
   -0.0816   -1.4823   -0.5547 H   0  0  0  0  0  0  0  0  0  0  0  0
   -2.5966   -1.6920    0.2380 H   0  0  0  0  0  0  0  0  0  0  0  0
   -1.2594   -2.4091    1.1303 H   0  0  0  0  0  0  0  0  0  0  0  0
   -2.0340   -0.8238    1.6750 H   0  0  0  0  0  0  0  0  0  0  0  0
    3.0328    1.3659    1.4033 H   0  0  0  0  0  0  0  0  0  0  0  0
    1.3632    1.6065    2.1614 H   0  0  0  0  0  0  0  0  0  0  0  0
    1.7732    2.3125    0.5041 H   0  0  0  0  0  0  0  0  0  0  0  0
    2.8007    0.7913   -1.2284 H   0  0  0  0  0  0  0  0  0  0  0  0
    1.4222   -0.3236   -1.7307 H   0  0  0  0  0  0  0  0  0  0  0  0
    2.1119   -1.8951    0.0593 H   0  0  0  0  0  0  0  0  0  0  0  0
    3.3840   -0.7216    0.6555 H   0  0  0  0  0  0  0  0  0  0  0  0
  1  2  1  0
  2  3  1  0
  3  4  1  0
  3  5  1  0
  5  6  1  0
  6  7  1  0
  6  8  1  0
  8  9  1  0
  9  6  1  0
  1 10  1  0
  1 11  1  0
  1 12  1  0
  2 13  1  0
  2 14  1  0
  3 15  1  0
  4 16  1  0
  4 17  1  0
  4 18  1  0
  7 19  1  0
  7 20  1  0
  7 21  1  0
  8 22  1  0
  8 23  1  0
  9 24  1  0
  9 25  1  0
M  END
