
     RDKit          3D

 27 26  0  0  0  0  0  0  0  0999 V2000
    2.6954    0.3235    0.3909 C   0  0  0  0  0  0  0  0  0  0  0  0
    1.8087   -0.8750    0.1389 C   0  0  0  0  0  0  0  0  0  0  0  0
    0.8931   -0.7103   -1.0234 C   0  0  0  0  0  0  0  0  0  0  0  0
    1.6103   -0.4864   -2.2220 O   0  0  0  0  0  0  0  0  0  0  0  0
   -0.1476    0.3245   -0.9356 C   0  0  0  0  0  0  0  0  0  0  0  0
   -1.1716    0.2415    0.1282 C   0  0  0  0  0  0  0  0  0  0  0  0
   -1.9869   -1.0355    0.0750 C   0  0  0  0  0  0  0  0  0  0  0  0
   -2.1642    1.3972   -0.1982 C   0  0  0  0  0  0  0  0  0  0  0  0
   -0.7326    0.4714    1.5224 C   0  0  0  0  0  0  0  0  0  0  0  0
    2.9634    0.3265    1.4635 H   0  0  0  0  0  0  0  0  0  0  0  0
    2.2382    1.2832    0.0771 H   0  0  0  0  0  0  0  0  0  0  0  0
    3.6583    0.2445   -0.1740 H   0  0  0  0  0  0  0  0  0  0  0  0
    1.2646   -1.1006    1.0674 H   0  0  0  0  0  0  0  0  0  0  0  0
    2.4706   -1.7839   -0.0241 H   0  0  0  0  0  0  0  0  0  0  0  0
    0.4079   -1.7184   -1.2117 H   0  0  0  0  0  0  0  0  0  0  0  0
    2.1953   -1.2671   -2.3795 H   0  0  0  0  0  0  0  0  0  0  0  0
   -0.6705    0.5076   -1.9212 H   0  0  0  0  0  0  0  0  0  0  0  0
    0.3909    1.3143   -0.7748 H   0  0  0  0  0  0  0  0  0  0  0  0
   -2.2165   -1.3430   -0.9575 H   0  0  0  0  0  0  0  0  0  0  0  0
   -2.9464   -0.8131    0.5896 H   0  0  0  0  0  0  0  0  0  0  0  0
   -1.4892   -1.8275    0.6689 H   0  0  0  0  0  0  0  0  0  0  0  0
   -2.2915    1.3922   -1.2841 H   0  0  0  0  0  0  0  0  0  0  0  0
   -3.0767    1.2815    0.3839 H   0  0  0  0  0  0  0  0  0  0  0  0
   -1.6385    2.3251    0.0889 H   0  0  0  0  0  0  0  0  0  0  0  0
    0.2276    0.9628    1.6703 H   0  0  0  0  0  0  0  0  0  0  0  0
   -1.5658    1.0494    2.0478 H   0  0  0  0  0  0  0  0  0  0  0  0
   -0.7261   -0.4846    2.1326 H   0  0  0  0  0  0  0  0  0  0  0  0
  1  2  1  0
  2  3  1  0
  3  4  1  0
  3  5  1  0
  5  6  1  0
  6  7  1  0
  6  8  1  0
  6  9  1  0
  1 10  1  0
  1 11  1  0
  1 12  1  0
  2 13  1  0
  2 14  1  0
  3 15  1  0
  4 16  1  0
  5 17  1  0
  5 18  1  0
  7 19  1  0
  7 20  1  0
  7 21  1  0
  8 22  1  0
  8 23  1  0
  8 24  1  0
  9 25  1  0
  9 26  1  0
  9 27  1  0
M  END
