
     RDKit          3D

 21 21  0  0  0  0  0  0  0  0999 V2000
    2.9124    0.7361   -0.1939 C   0  0  0  0  0  0  0  0  0  0  0  0
    1.4197    0.4955   -0.2597 C   0  0  0  0  0  0  0  0  0  0  0  0
    0.9408   -0.4028    0.8249 C   0  0  0  0  0  0  0  0  0  0  0  0
    1.8195   -0.7916    1.5959 O   0  0  0  0  0  0  0  0  0  0  0  0
   -0.4253   -0.8391    1.0364 C   0  0  0  0  0  0  0  0  0  0  0  0
   -1.0685   -1.4389   -0.2436 C   0  0  0  0  0  0  0  0  0  0  0  0
   -1.6324   -0.2275    0.5082 C   0  0  0  0  0  0  0  0  0  0  0  0
   -1.6981    1.0013   -0.3241 C   0  0  0  0  0  0  0  0  0  0  0  0
   -2.8461   -0.5192    1.1526 O   0  0  0  0  0  0  0  0  0  0  0  0
    3.5024   -0.1882   -0.2719 H   0  0  0  0  0  0  0  0  0  0  0  0
    3.1397    1.1853    0.7943 H   0  0  0  0  0  0  0  0  0  0  0  0
    3.1558    1.4681   -0.9801 H   0  0  0  0  0  0  0  0  0  0  0  0
    0.9573    1.5022   -0.2055 H   0  0  0  0  0  0  0  0  0  0  0  0
    1.2129   -0.0235   -1.2192 H   0  0  0  0  0  0  0  0  0  0  0  0
   -0.5616   -1.5114    1.9193 H   0  0  0  0  0  0  0  0  0  0  0  0
   -1.5794   -2.4024   -0.1604 H   0  0  0  0  0  0  0  0  0  0  0  0
   -0.5660   -1.2725   -1.1998 H   0  0  0  0  0  0  0  0  0  0  0  0
   -2.7480    1.2115   -0.6333 H   0  0  0  0  0  0  0  0  0  0  0  0
   -1.1216    0.9637   -1.2614 H   0  0  0  0  0  0  0  0  0  0  0  0
   -1.3656    1.9038    0.2271 H   0  0  0  0  0  0  0  0  0  0  0  0
   -3.4477   -0.8507    0.4149 H   0  0  0  0  0  0  0  0  0  0  0  0
  1  2  1  0
  2  3  1  0
  3  4  2  0
  3  5  1  0
  5  6  1  0
  6  7  1  0
  7  8  1  0
  7  9  1  0
  7  5  1  0
  1 10  1  0
  1 11  1  0
  1 12  1  0
  2 13  1  0
  2 14  1  0
  5 15  1  0
  6 16  1  0
  6 17  1  0
  8 18  1  0
  8 19  1  0
  8 20  1  0
  9 21  1  0
M  END
