
     RDKit          3D

 22 22  0  0  0  0  0  0  0  0999 V2000
   -2.1759    0.5674   -0.8410 C   0  0  0  0  0  0  0  0  0  0  0  0
   -1.7707    0.6303    0.6142 C   0  0  0  0  0  0  0  0  0  0  0  0
   -0.5856   -0.2783    0.8193 C   0  0  0  0  0  0  0  0  0  0  0  0
   -0.9198   -1.7215    0.4594 C   0  0  0  0  0  0  0  0  0  0  0  0
    0.5370    0.1673   -0.0769 C   0  0  0  0  0  0  0  0  0  0  0  0
    1.0051    1.4813    0.1259 O   0  0  0  0  0  0  0  0  0  0  0  0
    1.8675    0.4373    0.5441 C   0  0  0  0  0  0  0  0  0  0  0  0
    3.1279    0.3824   -0.2753 C   0  0  0  0  0  0  0  0  0  0  0  0
   -2.7280   -0.3622   -1.0110 H   0  0  0  0  0  0  0  0  0  0  0  0
   -1.2517    0.5654   -1.4445 H   0  0  0  0  0  0  0  0  0  0  0  0
   -2.7955    1.4620   -1.1284 H   0  0  0  0  0  0  0  0  0  0  0  0
   -2.5990    0.3678    1.3014 H   0  0  0  0  0  0  0  0  0  0  0  0
   -1.4267    1.6620    0.8064 H   0  0  0  0  0  0  0  0  0  0  0  0
   -0.3056   -0.2554    1.8964 H   0  0  0  0  0  0  0  0  0  0  0  0
    0.0073   -2.3132    0.6502 H   0  0  0  0  0  0  0  0  0  0  0  0
   -1.7588   -2.1147    1.0331 H   0  0  0  0  0  0  0  0  0  0  0  0
   -1.0909   -1.7824   -0.6534 H   0  0  0  0  0  0  0  0  0  0  0  0
    0.5872   -0.2531   -1.1020 H   0  0  0  0  0  0  0  0  0  0  0  0
    1.9245    0.2372    1.6330 H   0  0  0  0  0  0  0  0  0  0  0  0
    3.0350   -0.3735   -1.0694 H   0  0  0  0  0  0  0  0  0  0  0  0
    3.3495    1.3542   -0.7487 H   0  0  0  0  0  0  0  0  0  0  0  0
    3.9671    0.1397    0.4257 H   0  0  0  0  0  0  0  0  0  0  0  0
  1  2  1  0
  2  3  1  0
  3  4  1  0
  3  5  1  0
  5  6  1  0
  6  7  1  0
  7  8  1  0
  7  5  1  0
  1  9  1  0
  1 10  1  0
  1 11  1  0
  2 12  1  0
  2 13  1  0
  3 14  1  0
  4 15  1  0
  4 16  1  0
  4 17  1  0
  5 18  1  0
  7 19  1  0
  8 20  1  0
  8 21  1  0
  8 22  1  0
M  END
