
     RDKit          3D

 17 16  0  0  0  0  0  0  0  0999 V2000
   -1.6021    0.1436    1.1444 C   0  0  0  0  0  0  0  0  0  0  0  0
   -1.1753   -0.0709   -0.2862 C   0  0  0  0  0  0  0  0  0  0  0  0
    0.3396   -0.1720   -0.4013 C   0  0  0  0  0  0  0  0  0  0  0  0
    0.6896   -0.3847   -1.8511 C   0  0  0  0  0  0  0  0  0  0  0  0
    1.0004    0.9045    0.1845 O   0  0  0  0  0  0  0  0  0  0  0  0
    1.8521    0.7254    1.2637 C   0  0  0  0  0  0  0  0  0  0  0  0
    1.9919   -0.4571    1.6796 O   0  0  0  0  0  0  0  0  0  0  0  0
   -2.6557   -0.2234    1.2872 H   0  0  0  0  0  0  0  0  0  0  0  0
   -1.5924    1.2181    1.4262 H   0  0  0  0  0  0  0  0  0  0  0  0
   -0.9350   -0.3932    1.8524 H   0  0  0  0  0  0  0  0  0  0  0  0
   -1.5728   -1.0397   -0.6549 H   0  0  0  0  0  0  0  0  0  0  0  0
   -1.5782    0.7366   -0.9166 H   0  0  0  0  0  0  0  0  0  0  0  0
    0.6255   -1.0958    0.1398 H   0  0  0  0  0  0  0  0  0  0  0  0
    0.0609   -1.2573   -2.1949 H   0  0  0  0  0  0  0  0  0  0  0  0
    1.7604   -0.6532   -1.9138 H   0  0  0  0  0  0  0  0  0  0  0  0
    0.4090    0.4551   -2.4975 H   0  0  0  0  0  0  0  0  0  0  0  0
    2.3820    1.5640    1.7386 H   0  0  0  0  0  0  0  0  0  0  0  0
  1  2  1  0
  2  3  1  0
  3  4  1  0
  3  5  1  0
  5  6  1  0
  6  7  2  0
  1  8  1  0
  1  9  1  0
  1 10  1  0
  2 11  1  0
  2 12  1  0
  3 13  1  0
  4 14  1  0
  4 15  1  0
  4 16  1  0
  6 17  1  0
M  END
