
     RDKit          3D

 22 22  0  0  0  0  0  0  0  0999 V2000
    2.8827    0.6326    0.3367 C   0  0  0  0  0  0  0  0  0  0  0  0
    1.4846    0.7252   -0.1728 C   0  0  0  0  0  0  0  0  0  0  0  0
    0.6981   -0.5703    0.0719 C   0  0  0  0  0  0  0  0  0  0  0  0
    0.6390   -0.8429    1.4265 O   0  0  0  0  0  0  0  0  0  0  0  0
   -0.6498   -0.3195   -0.5404 C   0  0  0  0  0  0  0  0  0  0  0  0
   -1.3590    0.8741    0.1047 C   0  0  0  0  0  0  0  0  0  0  0  0
   -2.6477    0.0731   -0.0232 C   0  0  0  0  0  0  0  0  0  0  0  0
   -1.7714   -1.1794   -0.0905 C   0  0  0  0  0  0  0  0  0  0  0  0
    3.4826    1.4126   -0.1928 H   0  0  0  0  0  0  0  0  0  0  0  0
    2.8950    0.8063    1.4272 H   0  0  0  0  0  0  0  0  0  0  0  0
    3.3306   -0.3476    0.1023 H   0  0  0  0  0  0  0  0  0  0  0  0
    1.4800    0.8532   -1.2848 H   0  0  0  0  0  0  0  0  0  0  0  0
    0.9232    1.5483    0.3124 H   0  0  0  0  0  0  0  0  0  0  0  0
    1.1788   -1.4174   -0.4608 H   0  0  0  0  0  0  0  0  0  0  0  0
    0.4311   -1.7875    1.5597 H   0  0  0  0  0  0  0  0  0  0  0  0
   -0.5442   -0.1609   -1.6307 H   0  0  0  0  0  0  0  0  0  0  0  0
   -1.3071    1.7752   -0.5256 H   0  0  0  0  0  0  0  0  0  0  0  0
   -1.0260    1.0481    1.1491 H   0  0  0  0  0  0  0  0  0  0  0  0
   -3.2509    0.1638    0.8812 H   0  0  0  0  0  0  0  0  0  0  0  0
   -3.1232    0.2658   -0.9828 H   0  0  0  0  0  0  0  0  0  0  0  0
   -2.1117   -1.8498   -0.9317 H   0  0  0  0  0  0  0  0  0  0  0  0
   -1.6348   -1.7030    0.8523 H   0  0  0  0  0  0  0  0  0  0  0  0
  1  2  1  0
  2  3  1  0
  3  4  1  0
  3  5  1  0
  5  6  1  0
  6  7  1  0
  7  8  1  0
  8  5  1  0
  1  9  1  0
  1 10  1  0
  1 11  1  0
  2 12  1  0
  2 13  1  0
  3 14  1  0
  4 15  1  0
  5 16  1  0
  6 17  1  0
  6 18  1  0
  7 19  1  0
  7 20  1  0
  8 21  1  0
  8 22  1  0
M  END
