
     RDKit          3D

 19 18  0  0  0  0  0  0  0  0999 V2000
   -1.9319    0.7361   -0.5851 C   0  0  0  0  0  0  0  0  0  0  0  0
   -1.7268   -0.6246    0.0171 C   0  0  0  0  0  0  0  0  0  0  0  0
   -0.3902   -1.2285   -0.3257 C   0  0  0  0  0  0  0  0  0  0  0  0
   -0.4156   -2.4956    0.3298 O   0  0  0  0  0  0  0  0  0  0  0  0
    0.7684   -0.4618    0.1692 C   0  0  0  0  0  0  0  0  0  0  0  0
    1.3399   -0.8766    1.2469 O   0  0  0  0  0  0  0  0  0  0  0  0
    1.3397    0.7163   -0.4343 C   0  0  0  0  0  0  0  0  0  0  0  0
    2.4793    1.4035    0.2286 C   0  0  0  0  0  0  0  0  0  0  0  0
    0.9071    1.1763   -1.4951 O   0  0  0  0  0  0  0  0  0  0  0  0
   -1.3414    1.5043   -0.0620 H   0  0  0  0  0  0  0  0  0  0  0  0
   -3.0239    1.0266   -0.4934 H   0  0  0  0  0  0  0  0  0  0  0  0
   -1.7211    0.6531   -1.6713 H   0  0  0  0  0  0  0  0  0  0  0  0
   -2.5635   -1.2626   -0.3810 H   0  0  0  0  0  0  0  0  0  0  0  0
   -1.8776   -0.6033    1.1372 H   0  0  0  0  0  0  0  0  0  0  0  0
   -0.3056   -1.4123   -1.4001 H   0  0  0  0  0  0  0  0  0  0  0  0
    0.1999   -3.1095   -0.1438 H   0  0  0  0  0  0  0  0  0  0  0  0
    2.4720    1.2286    1.3375 H   0  0  0  0  0  0  0  0  0  0  0  0
    3.4507    1.1343   -0.1821 H   0  0  0  0  0  0  0  0  0  0  0  0
    2.3406    2.4957    0.1029 H   0  0  0  0  0  0  0  0  0  0  0  0
  1  2  1  0
  2  3  1  0
  3  4  1  0
  3  5  1  0
  5  6  2  0
  5  7  1  0
  7  8  1  0
  7  9  2  0
  1 10  1  0
  1 11  1  0
  1 12  1  0
  2 13  1  0
  2 14  1  0
  3 15  1  0
  4 16  1  0
  8 17  1  0
  8 18  1  0
  8 19  1  0
M  END
