
     RDKit          3D

 23 22  0  0  0  0  0  0  0  0999 V2000
    3.1488   -0.5740    0.4136 C   0  0  0  0  0  0  0  0  0  0  0  0
    1.6797   -0.1819    0.6401 C   0  0  0  0  0  0  0  0  0  0  0  0
    1.1723    0.3142   -0.6843 C   0  0  0  0  0  0  0  0  0  0  0  0
    1.9710    1.4098   -1.0387 O   0  0  0  0  0  0  0  0  0  0  0  0
   -0.2951    0.6958   -0.6651 C   0  0  0  0  0  0  0  0  0  0  0  0
   -1.0939   -0.4845   -0.2959 C   0  0  0  0  0  0  0  0  0  0  0  0
   -2.5527   -0.2810   -0.2373 C   0  0  0  0  0  0  0  0  0  0  0  0
   -3.3664   -0.0827    0.9589 C   0  0  0  0  0  0  0  0  0  0  0  0
   -3.1297   -0.2805   -1.3204 O   0  0  0  0  0  0  0  0  0  0  0  0
    3.1060   -1.5471   -0.1194 H   0  0  0  0  0  0  0  0  0  0  0  0
    3.6252    0.1502   -0.2632 H   0  0  0  0  0  0  0  0  0  0  0  0
    3.6726   -0.7105    1.3742 H   0  0  0  0  0  0  0  0  0  0  0  0
    1.1839   -1.1069    0.9956 H   0  0  0  0  0  0  0  0  0  0  0  0
    1.6978    0.5895    1.4224 H   0  0  0  0  0  0  0  0  0  0  0  0
    1.3829   -0.4615   -1.4507 H   0  0  0  0  0  0  0  0  0  0  0  0
    1.4451    2.1502   -1.4119 H   0  0  0  0  0  0  0  0  0  0  0  0
   -0.4858    1.6090   -0.0971 H   0  0  0  0  0  0  0  0  0  0  0  0
   -0.5419    0.9537   -1.7371 H   0  0  0  0  0  0  0  0  0  0  0  0
   -0.8970   -1.2970   -1.0260 H   0  0  0  0  0  0  0  0  0  0  0  0
   -0.7955   -0.8198    0.7411 H   0  0  0  0  0  0  0  0  0  0  0  0
   -3.9110   -1.0187    1.2652 H   0  0  0  0  0  0  0  0  0  0  0  0
   -4.1874    0.6425    0.7067 H   0  0  0  0  0  0  0  0  0  0  0  0
   -2.8288    0.3311    1.8294 H   0  0  0  0  0  0  0  0  0  0  0  0
  1  2  1  0
  2  3  1  0
  3  4  1  0
  3  5  1  0
  5  6  1  0
  6  7  1  0
  7  8  1  0
  7  9  2  0
  1 10  1  0
  1 11  1  0
  1 12  1  0
  2 13  1  0
  2 14  1  0
  3 15  1  0
  4 16  1  0
  5 17  1  0
  5 18  1  0
  6 19  1  0
  6 20  1  0
  8 21  1  0
  8 22  1  0
  8 23  1  0
M  END
