
     RDKit          3D

 19 19  0  0  0  0  0  0  0  0999 V2000
    2.6349    0.7005    0.2191 C   0  0  0  0  0  0  0  0  0  0  0  0
    1.7916   -0.2872   -0.5557 C   0  0  0  0  0  0  0  0  0  0  0  0
    0.7363   -0.9037    0.2622 C   0  0  0  0  0  0  0  0  0  0  0  0
    0.9943   -1.8442    1.0647 O   0  0  0  0  0  0  0  0  0  0  0  0
   -0.6382   -0.4462    0.1697 C   0  0  0  0  0  0  0  0  0  0  0  0
   -1.0213    0.5270   -0.6331 C   0  0  0  0  0  0  0  0  0  0  0  0
   -2.4807    0.7148   -0.4576 C   0  0  0  0  0  0  0  0  0  0  0  0
   -2.9048   -0.3100    0.3438 O   0  0  0  0  0  0  0  0  0  0  0  0
   -1.8155   -0.9269    0.8933 C   0  0  0  0  0  0  0  0  0  0  0  0
    2.1602    1.7169    0.0919 H   0  0  0  0  0  0  0  0  0  0  0  0
    2.7461    0.4421    1.2799 H   0  0  0  0  0  0  0  0  0  0  0  0
    3.6099    0.7867   -0.3213 H   0  0  0  0  0  0  0  0  0  0  0  0
    2.4448   -1.1229   -0.9191 H   0  0  0  0  0  0  0  0  0  0  0  0
    1.3901    0.2170   -1.4329 H   0  0  0  0  0  0  0  0  0  0  0  0
   -0.4326    1.1220   -1.3193 H   0  0  0  0  0  0  0  0  0  0  0  0
   -2.9426    0.6278   -1.4645 H   0  0  0  0  0  0  0  0  0  0  0  0
   -2.6479    1.7228   -0.0190 H   0  0  0  0  0  0  0  0  0  0  0  0
   -1.6831   -0.6920    1.9760 H   0  0  0  0  0  0  0  0  0  0  0  0
   -1.9416   -2.0447    0.8220 H   0  0  0  0  0  0  0  0  0  0  0  0
  1  2  1  0
  2  3  1  0
  3  4  2  0
  3  5  1  0
  5  6  2  0
  6  7  1  0
  7  8  1  0
  8  9  1  0
  9  5  1  0
  1 10  1  0
  1 11  1  0
  1 12  1  0
  2 13  1  0
  2 14  1  0
  6 15  1  0
  7 16  1  0
  7 17  1  0
  9 18  1  0
  9 19  1  0
M  END
