
     RDKit          3D

 25 25  0  0  0  0  0  0  0  0999 V2000
   -1.9663   -1.2510   -0.5816 C   0  0  0  0  0  0  0  0  0  0  0  0
   -1.8122    0.0877    0.0271 C   0  0  0  0  0  0  0  0  0  0  0  0
   -0.5075    0.7746   -0.1750 C   0  0  0  0  0  0  0  0  0  0  0  0
   -0.6309    2.1291    0.5545 C   0  0  0  0  0  0  0  0  0  0  0  0
   -0.2427    1.1078   -1.4930 O   0  0  0  0  0  0  0  0  0  0  0  0
    0.5925    0.0554    0.5093 C   0  0  0  0  0  0  0  0  0  0  0  0
    0.9238   -1.3375    0.1647 C   0  0  0  0  0  0  0  0  0  0  0  0
    2.4303   -1.0276    0.1819 C   0  0  0  0  0  0  0  0  0  0  0  0
    2.0138    0.4403    0.1065 C   0  0  0  0  0  0  0  0  0  0  0  0
   -3.0628   -1.5122   -0.6724 H   0  0  0  0  0  0  0  0  0  0  0  0
   -1.5215   -2.0502    0.0460 H   0  0  0  0  0  0  0  0  0  0  0  0
   -1.5638   -1.3626   -1.5958 H   0  0  0  0  0  0  0  0  0  0  0  0
   -1.9759    0.0010    1.1370 H   0  0  0  0  0  0  0  0  0  0  0  0
   -2.6837    0.7198   -0.3176 H   0  0  0  0  0  0  0  0  0  0  0  0
   -0.0436    2.9075    0.0498 H   0  0  0  0  0  0  0  0  0  0  0  0
   -0.3951    2.0109    1.6298 H   0  0  0  0  0  0  0  0  0  0  0  0
   -1.7023    2.4693    0.5206 H   0  0  0  0  0  0  0  0  0  0  0  0
   -0.3627    0.3798   -2.1276 H   0  0  0  0  0  0  0  0  0  0  0  0
    0.5222    0.1799    1.6278 H   0  0  0  0  0  0  0  0  0  0  0  0
    0.7129   -2.1090    0.9193 H   0  0  0  0  0  0  0  0  0  0  0  0
    0.6762   -1.7186   -0.8438 H   0  0  0  0  0  0  0  0  0  0  0  0
    2.9875   -1.3957   -0.6950 H   0  0  0  0  0  0  0  0  0  0  0  0
    2.9305   -1.3008    1.1139 H   0  0  0  0  0  0  0  0  0  0  0  0
    2.1144    0.7779   -0.9357 H   0  0  0  0  0  0  0  0  0  0  0  0
    2.5670    1.0240    0.8493 H   0  0  0  0  0  0  0  0  0  0  0  0
  1  2  1  0
  2  3  1  0
  3  4  1  0
  3  5  1  0
  3  6  1  0
  6  7  1  0
  7  8  1  0
  8  9  1  0
  9  6  1  0
  1 10  1  0
  1 11  1  0
  1 12  1  0
  2 13  1  0
  2 14  1  0
  4 15  1  0
  4 16  1  0
  4 17  1  0
  5 18  1  0
  6 19  1  0
  7 20  1  0
  7 21  1  0
  8 22  1  0
  8 23  1  0
  9 24  1  0
  9 25  1  0
M  END
