
     RDKit          3D

 21 21  0  0  0  0  0  0  0  0999 V2000
    2.4224    0.9819   -1.3794 C   0  0  0  0  0  0  0  0  0  0  0  0
    1.5911   -0.0908   -0.7662 C   0  0  0  0  0  0  0  0  0  0  0  0
    0.5012    0.4797    0.1484 C   0  0  0  0  0  0  0  0  0  0  0  0
    1.1551    1.2379    1.2085 C   0  0  0  0  0  0  0  0  0  0  0  0
    1.8756    2.1792    0.9391 O   0  0  0  0  0  0  0  0  0  0  0  0
   -0.2828   -0.5520    0.5396 O   0  0  0  0  0  0  0  0  0  0  0  0
   -1.5626   -0.5781    0.0662 C   0  0  0  0  0  0  0  0  0  0  0  0
   -2.4239   -1.7464    0.0095 C   0  0  0  0  0  0  0  0  0  0  0  0
   -2.6009   -0.8281    1.1810 C   0  0  0  0  0  0  0  0  0  0  0  0
    2.7190    0.6922   -2.4014 H   0  0  0  0  0  0  0  0  0  0  0  0
    3.3642    1.1832   -0.7992 H   0  0  0  0  0  0  0  0  0  0  0  0
    1.7955    1.9098   -1.4381 H   0  0  0  0  0  0  0  0  0  0  0  0
    2.2550   -0.7892   -0.2042 H   0  0  0  0  0  0  0  0  0  0  0  0
    1.1431   -0.6955   -1.5819 H   0  0  0  0  0  0  0  0  0  0  0  0
   -0.1102    1.1427   -0.5308 H   0  0  0  0  0  0  0  0  0  0  0  0
    1.0366    1.0090    2.2580 H   0  0  0  0  0  0  0  0  0  0  0  0
   -1.8053    0.2890   -0.6085 H   0  0  0  0  0  0  0  0  0  0  0  0
   -2.0967   -2.7750    0.2207 H   0  0  0  0  0  0  0  0  0  0  0  0
   -3.2754   -1.7142   -0.7156 H   0  0  0  0  0  0  0  0  0  0  0  0
   -2.2537   -1.2045    2.1426 H   0  0  0  0  0  0  0  0  0  0  0  0
   -3.4474   -0.1309    1.2329 H   0  0  0  0  0  0  0  0  0  0  0  0
  1  2  1  0
  2  3  1  0
  3  4  1  0
  4  5  2  0
  3  6  1  0
  6  7  1  0
  7  8  1  0
  8  9  1  0
  9  7  1  0
  1 10  1  0
  1 11  1  0
  1 12  1  0
  2 13  1  0
  2 14  1  0
  3 15  1  0
  4 16  1  0
  7 17  1  0
  8 18  1  0
  8 19  1  0
  9 20  1  0
  9 21  1  0
M  END
