
     RDKit          3D

 21 20  0  0  0  0  0  0  0  0999 V2000
    1.7118   -0.9589    0.2841 C   0  0  0  0  0  0  0  0  0  0  0  0
    1.2214    0.3754   -0.1425 C   0  0  0  0  0  0  0  0  0  0  0  0
   -0.2756    0.5831    0.0521 C   0  0  0  0  0  0  0  0  0  0  0  0
   -0.5169    2.0192   -0.4546 C   0  0  0  0  0  0  0  0  0  0  0  0
   -0.5877    0.6277    1.4957 C   0  0  0  0  0  0  0  0  0  0  0  0
    0.1674    1.1754    2.2564 O   0  0  0  0  0  0  0  0  0  0  0  0
   -1.1038   -0.3717   -0.6919 C   0  0  0  0  0  0  0  0  0  0  0  0
   -1.0667   -1.8408   -0.4917 C   0  0  0  0  0  0  0  0  0  0  0  0
   -1.8769    0.0609   -1.5326 O   0  0  0  0  0  0  0  0  0  0  0  0
    2.0285   -1.5166   -0.6281 H   0  0  0  0  0  0  0  0  0  0  0  0
    2.6865   -0.8053    0.8382 H   0  0  0  0  0  0  0  0  0  0  0  0
    1.0685   -1.5211    0.9604 H   0  0  0  0  0  0  0  0  0  0  0  0
    1.7149    1.1815    0.4596 H   0  0  0  0  0  0  0  0  0  0  0  0
    1.4813    0.5930   -1.1994 H   0  0  0  0  0  0  0  0  0  0  0  0
   -0.2804    2.0043   -1.5300 H   0  0  0  0  0  0  0  0  0  0  0  0
   -1.6049    2.2296   -0.3716 H   0  0  0  0  0  0  0  0  0  0  0  0
    0.1056    2.6951    0.1433 H   0  0  0  0  0  0  0  0  0  0  0  0
   -1.4881    0.1679    1.8436 H   0  0  0  0  0  0  0  0  0  0  0  0
   -1.2385   -2.0172    0.5944 H   0  0  0  0  0  0  0  0  0  0  0  0
   -1.9520   -2.3366   -0.9826 H   0  0  0  0  0  0  0  0  0  0  0  0
   -0.1947   -2.3447   -0.9028 H   0  0  0  0  0  0  0  0  0  0  0  0
  1  2  1  0
  2  3  1  0
  3  4  1  0
  3  5  1  0
  5  6  2  0
  3  7  1  0
  7  8  1  0
  7  9  2  0
  1 10  1  0
  1 11  1  0
  1 12  1  0
  2 13  1  0
  2 14  1  0
  4 15  1  0
  4 16  1  0
  4 17  1  0
  5 18  1  0
  8 19  1  0
  8 20  1  0
  8 21  1  0
M  END
