
     RDKit          3D

 25 24  0  0  0  0  0  0  0  0999 V2000
   -1.5822    1.6170   -0.3656 C   0  0  0  0  0  0  0  0  0  0  0  0
   -0.6940    0.5794   -0.9808 C   0  0  0  0  0  0  0  0  0  0  0  0
    0.3667    0.0410   -0.0804 C   0  0  0  0  0  0  0  0  0  0  0  0
   -0.1393   -0.6230    1.1566 C   0  0  0  0  0  0  0  0  0  0  0  0
   -1.0268   -1.7963    0.9335 C   0  0  0  0  0  0  0  0  0  0  0  0
    1.3520    1.1014    0.3723 C   0  0  0  0  0  0  0  0  0  0  0  0
    0.7637    2.1234    1.0657 O   0  0  0  0  0  0  0  0  0  0  0  0
    1.2042   -0.9054   -0.9331 C   0  0  0  0  0  0  0  0  0  0  0  0
    0.4085   -1.9299   -1.4283 O   0  0  0  0  0  0  0  0  0  0  0  0
   -1.9938    1.2147    0.6024 H   0  0  0  0  0  0  0  0  0  0  0  0
   -2.4306    1.7730   -1.0833 H   0  0  0  0  0  0  0  0  0  0  0  0
   -1.1129    2.5999   -0.2438 H   0  0  0  0  0  0  0  0  0  0  0  0
   -1.3095   -0.2385   -1.3435 H   0  0  0  0  0  0  0  0  0  0  0  0
   -0.1947    1.0401   -1.8560 H   0  0  0  0  0  0  0  0  0  0  0  0
    0.7468   -0.9679    1.7337 H   0  0  0  0  0  0  0  0  0  0  0  0
   -0.6377    0.1383    1.7779 H   0  0  0  0  0  0  0  0  0  0  0  0
   -1.6050   -1.9550    1.8809 H   0  0  0  0  0  0  0  0  0  0  0  0
   -1.7373   -1.7172    0.1229 H   0  0  0  0  0  0  0  0  0  0  0  0
   -0.4593   -2.7549    0.7836 H   0  0  0  0  0  0  0  0  0  0  0  0
    2.0565    0.5806    1.0798 H   0  0  0  0  0  0  0  0  0  0  0  0
    1.9753    1.4148   -0.4838 H   0  0  0  0  0  0  0  0  0  0  0  0
    1.4665    2.5537    1.6266 H   0  0  0  0  0  0  0  0  0  0  0  0
    2.0841   -1.2836   -0.3739 H   0  0  0  0  0  0  0  0  0  0  0  0
    1.5908   -0.2778   -1.7742 H   0  0  0  0  0  0  0  0  0  0  0  0
    0.9082   -2.3279   -2.1892 H   0  0  0  0  0  0  0  0  0  0  0  0
  1  2  1  0
  2  3  1  0
  3  4  1  0
  4  5  1  0
  3  6  1  0
  6  7  1  0
  3  8  1  0
  8  9  1  0
  1 10  1  0
  1 11  1  0
  1 12  1  0
  2 13  1  0
  2 14  1  0
  4 15  1  0
  4 16  1  0
  5 17  1  0
  5 18  1  0
  5 19  1  0
  6 20  1  0
  6 21  1  0
  7 22  1  0
  8 23  1  0
  8 24  1  0
  9 25  1  0
M  END
