
     RDKit          3D

 22 22  0  0  0  0  0  0  0  0999 V2000
    2.5019    0.2386   -0.6258 C   0  0  0  0  0  0  0  0  0  0  0  0
    1.2138    0.6757   -0.0071 C   0  0  0  0  0  0  0  0  0  0  0  0
    0.1484   -0.3882   -0.0304 C   0  0  0  0  0  0  0  0  0  0  0  0
    0.5220   -1.6302    0.6954 C   0  0  0  0  0  0  0  0  0  0  0  0
   -1.1367    0.2312    0.5121 C   0  0  0  0  0  0  0  0  0  0  0  0
   -1.6056    1.4109   -0.3109 C   0  0  0  0  0  0  0  0  0  0  0  0
   -2.9067    0.9629   -0.1689 O   0  0  0  0  0  0  0  0  0  0  0  0
   -2.3946   -0.3447   -0.0960 C   0  0  0  0  0  0  0  0  0  0  0  0
    2.3687   -0.1708   -1.6519 H   0  0  0  0  0  0  0  0  0  0  0  0
    3.1136   -0.4220    0.0250 H   0  0  0  0  0  0  0  0  0  0  0  0
    3.1283    1.1658   -0.7610 H   0  0  0  0  0  0  0  0  0  0  0  0
    1.4396    1.0109    1.0315 H   0  0  0  0  0  0  0  0  0  0  0  0
    0.8631    1.5803   -0.5442 H   0  0  0  0  0  0  0  0  0  0  0  0
   -0.0526   -0.6390   -1.0925 H   0  0  0  0  0  0  0  0  0  0  0  0
    1.1983   -1.4978    1.5440 H   0  0  0  0  0  0  0  0  0  0  0  0
    0.9477   -2.3845   -0.0160 H   0  0  0  0  0  0  0  0  0  0  0  0
   -0.4261   -2.0684    1.1245 H   0  0  0  0  0  0  0  0  0  0  0  0
   -1.1665    0.3612    1.6014 H   0  0  0  0  0  0  0  0  0  0  0  0
   -1.3761    2.3681    0.2146 H   0  0  0  0  0  0  0  0  0  0  0  0
   -1.1714    1.3275   -1.3333 H   0  0  0  0  0  0  0  0  0  0  0  0
   -2.2023   -0.8202   -1.0742 H   0  0  0  0  0  0  0  0  0  0  0  0
   -3.0070   -0.9673    0.6164 H   0  0  0  0  0  0  0  0  0  0  0  0
  1  2  1  0
  2  3  1  0
  3  4  1  0
  3  5  1  0
  5  6  1  0
  6  7  1  0
  7  8  1  0
  8  5  1  0
  1  9  1  0
  1 10  1  0
  1 11  1  0
  2 12  1  0
  2 13  1  0
  3 14  1  0
  4 15  1  0
  4 16  1  0
  4 17  1  0
  5 18  1  0
  6 19  1  0
  6 20  1  0
  8 21  1  0
  8 22  1  0
M  END
