
     RDKit          3D

 23 23  0  0  0  0  0  0  0  0999 V2000
    3.0413   -0.7849   -0.0249 C   0  0  0  0  0  0  0  0  0  0  0  0
    1.6055   -0.3537   -0.2222 C   0  0  0  0  0  0  0  0  0  0  0  0
    1.0688    0.0218    1.1053 C   0  0  0  0  0  0  0  0  0  0  0  0
    1.7193   -0.0298    2.1322 O   0  0  0  0  0  0  0  0  0  0  0  0
   -0.3444    0.4870    1.1812 C   0  0  0  0  0  0  0  0  0  0  0  0
   -0.4581    1.7126    0.3138 C   0  0  0  0  0  0  0  0  0  0  0  0
   -1.2177   -0.6477    0.6814 C   0  0  0  0  0  0  0  0  0  0  0  0
   -2.7283   -0.3325    0.6927 C   0  0  0  0  0  0  0  0  0  0  0  0
   -1.9767   -0.5274   -0.5730 C   0  0  0  0  0  0  0  0  0  0  0  0
    3.6219    0.1527    0.1769 H   0  0  0  0  0  0  0  0  0  0  0  0
    3.3895   -1.3340   -0.8993 H   0  0  0  0  0  0  0  0  0  0  0  0
    3.1356   -1.3939    0.8936 H   0  0  0  0  0  0  0  0  0  0  0  0
    1.5074    0.5063   -0.8963 H   0  0  0  0  0  0  0  0  0  0  0  0
    1.0652   -1.2208   -0.6717 H   0  0  0  0  0  0  0  0  0  0  0  0
   -0.6207    0.7531    2.2182 H   0  0  0  0  0  0  0  0  0  0  0  0
   -0.2647    1.5040   -0.7437 H   0  0  0  0  0  0  0  0  0  0  0  0
   -1.4358    2.2455    0.4702 H   0  0  0  0  0  0  0  0  0  0  0  0
    0.3130    2.4340    0.6875 H   0  0  0  0  0  0  0  0  0  0  0  0
   -0.9396   -1.6785    0.9847 H   0  0  0  0  0  0  0  0  0  0  0  0
   -3.0218    0.7120    0.9162 H   0  0  0  0  0  0  0  0  0  0  0  0
   -3.3923   -1.1071    1.0981 H   0  0  0  0  0  0  0  0  0  0  0  0
   -1.8568    0.3418   -1.2658 H   0  0  0  0  0  0  0  0  0  0  0  0
   -2.2106   -1.4604   -1.1404 H   0  0  0  0  0  0  0  0  0  0  0  0
  1  2  1  0
  2  3  1  0
  3  4  2  0
  3  5  1  0
  5  6  1  0
  5  7  1  0
  7  8  1  0
  8  9  1  0
  9  7  1  0
  1 10  1  0
  1 11  1  0
  1 12  1  0
  2 13  1  0
  2 14  1  0
  5 15  1  0
  6 16  1  0
  6 17  1  0
  6 18  1  0
  7 19  1  0
  8 20  1  0
  8 21  1  0
  9 22  1  0
  9 23  1  0
M  END
