
     RDKit          3D

 23 22  0  0  0  0  0  0  0  0999 V2000
    3.1671    0.5776   -0.3101 C   0  0  0  0  0  0  0  0  0  0  0  0
    1.8578    0.6829    0.3974 C   0  0  0  0  0  0  0  0  0  0  0  0
    0.6931    0.1541   -0.3687 C   0  0  0  0  0  0  0  0  0  0  0  0
    0.8169   -1.3057   -0.7180 C   0  0  0  0  0  0  0  0  0  0  0  0
   -0.5344    0.3132    0.4523 C   0  0  0  0  0  0  0  0  0  0  0  0
   -0.4952    0.8030    1.5510 O   0  0  0  0  0  0  0  0  0  0  0  0
   -1.8210   -0.1459   -0.1095 C   0  0  0  0  0  0  0  0  0  0  0  0
   -2.9781    0.0799    0.8356 C   0  0  0  0  0  0  0  0  0  0  0  0
   -4.1457   -0.3794    0.2286 O   0  0  0  0  0  0  0  0  0  0  0  0
    3.9720    0.1948    0.3805 H   0  0  0  0  0  0  0  0  0  0  0  0
    3.4996    1.6253   -0.5516 H   0  0  0  0  0  0  0  0  0  0  0  0
    3.1733   -0.0457   -1.2025 H   0  0  0  0  0  0  0  0  0  0  0  0
    1.6170    1.7352    0.6835 H   0  0  0  0  0  0  0  0  0  0  0  0
    1.9468    0.1349    1.3674 H   0  0  0  0  0  0  0  0  0  0  0  0
    0.6307    0.7096   -1.3280 H   0  0  0  0  0  0  0  0  0  0  0  0
    1.7248   -1.4758   -1.3328 H   0  0  0  0  0  0  0  0  0  0  0  0
    0.7900   -1.9700    0.1468 H   0  0  0  0  0  0  0  0  0  0  0  0
   -0.0494   -1.5359   -1.4038 H   0  0  0  0  0  0  0  0  0  0  0  0
   -2.0215    0.3574   -1.0752 H   0  0  0  0  0  0  0  0  0  0  0  0
   -1.7187   -1.2579   -0.2649 H   0  0  0  0  0  0  0  0  0  0  0  0
   -3.1045    1.1715    0.9972 H   0  0  0  0  0  0  0  0  0  0  0  0
   -2.8518   -0.4331    1.7907 H   0  0  0  0  0  0  0  0  0  0  0  0
   -4.1687    0.0100   -0.6818 H   0  0  0  0  0  0  0  0  0  0  0  0
  1  2  1  0
  2  3  1  0
  3  4  1  0
  3  5  1  0
  5  6  2  0
  5  7  1  0
  7  8  1  0
  8  9  1  0
  1 10  1  0
  1 11  1  0
  1 12  1  0
  2 13  1  0
  2 14  1  0
  3 15  1  0
  4 16  1  0
  4 17  1  0
  4 18  1  0
  7 19  1  0
  7 20  1  0
  8 21  1  0
  8 22  1  0
  9 23  1  0
M  END
