
     RDKit          3D

 21 21  0  0  0  0  0  0  0  0999 V2000
    3.2406    0.2318   -0.3449 C   0  0  0  0  0  0  0  0  0  0  0  0
    1.8616   -0.1807   -0.8119 C   0  0  0  0  0  0  0  0  0  0  0  0
    0.9309   -0.0539    0.3434 C   0  0  0  0  0  0  0  0  0  0  0  0
    1.2968    0.3183    1.4212 O   0  0  0  0  0  0  0  0  0  0  0  0
   -0.4861   -0.4089    0.1133 C   0  0  0  0  0  0  0  0  0  0  0  0
   -1.1438    0.3969   -0.9191 C   0  0  0  0  0  0  0  0  0  0  0  0
   -2.4299    0.4990   -0.6080 C   0  0  0  0  0  0  0  0  0  0  0  0
   -2.7316   -0.2281    0.6538 C   0  0  0  0  0  0  0  0  0  0  0  0
   -1.3502   -0.1627    1.3287 C   0  0  0  0  0  0  0  0  0  0  0  0
    3.2739    1.3388   -0.3589 H   0  0  0  0  0  0  0  0  0  0  0  0
    3.3673   -0.1227    0.7050 H   0  0  0  0  0  0  0  0  0  0  0  0
    4.0072   -0.2266   -1.0237 H   0  0  0  0  0  0  0  0  0  0  0  0
    1.8551   -1.2205   -1.2071 H   0  0  0  0  0  0  0  0  0  0  0  0
    1.5685    0.5535   -1.6060 H   0  0  0  0  0  0  0  0  0  0  0  0
   -0.6140   -1.4793   -0.1572 H   0  0  0  0  0  0  0  0  0  0  0  0
   -0.6170    0.8139   -1.7721 H   0  0  0  0  0  0  0  0  0  0  0  0
   -3.1614    1.0480   -1.2080 H   0  0  0  0  0  0  0  0  0  0  0  0
   -3.5077    0.2362    1.2606 H   0  0  0  0  0  0  0  0  0  0  0  0
   -2.9156   -1.2845    0.3841 H   0  0  0  0  0  0  0  0  0  0  0  0
   -1.2757   -0.9371    2.0908 H   0  0  0  0  0  0  0  0  0  0  0  0
   -1.1691    0.8685    1.7160 H   0  0  0  0  0  0  0  0  0  0  0  0
  1  2  1  0
  2  3  1  0
  3  4  2  0
  3  5  1  0
  5  6  1  0
  6  7  2  0
  7  8  1  0
  8  9  1  0
  9  5  1  0
  1 10  1  0
  1 11  1  0
  1 12  1  0
  2 13  1  0
  2 14  1  0
  5 15  1  0
  6 16  1  0
  7 17  1  0
  8 18  1  0
  8 19  1  0
  9 20  1  0
  9 21  1  0
M  END
