
     RDKit          3D

 26 25  0  0  0  0  0  0  0  0999 V2000
    1.6165    1.7905   -0.4073 C   0  0  0  0  0  0  0  0  0  0  0  0
    1.5449    0.5268    0.3670 C   0  0  0  0  0  0  0  0  0  0  0  0
    0.3988   -0.3749    0.0806 C   0  0  0  0  0  0  0  0  0  0  0  0
    0.6059   -1.5853    1.0194 C   0  0  0  0  0  0  0  0  0  0  0  0
    0.4474   -0.9578   -1.3221 C   0  0  0  0  0  0  0  0  0  0  0  0
   -0.9531    0.1326    0.4331 C   0  0  0  0  0  0  0  0  0  0  0  0
   -1.4085    1.3781   -0.2301 C   0  0  0  0  0  0  0  0  0  0  0  0
   -1.9860   -0.9496    0.1220 C   0  0  0  0  0  0  0  0  0  0  0  0
    1.4028    2.6438    0.3021 H   0  0  0  0  0  0  0  0  0  0  0  0
    0.9483    1.8857   -1.2567 H   0  0  0  0  0  0  0  0  0  0  0  0
    2.6653    1.9718   -0.8025 H   0  0  0  0  0  0  0  0  0  0  0  0
    1.5419    0.7306    1.4640 H   0  0  0  0  0  0  0  0  0  0  0  0
    2.4955   -0.0499    0.1536 H   0  0  0  0  0  0  0  0  0  0  0  0
    1.6942   -1.8393    1.0372 H   0  0  0  0  0  0  0  0  0  0  0  0
    0.0096   -2.4335    0.6767 H   0  0  0  0  0  0  0  0  0  0  0  0
    0.2810   -1.2227    2.0213 H   0  0  0  0  0  0  0  0  0  0  0  0
   -0.0623   -1.9639   -1.2785 H   0  0  0  0  0  0  0  0  0  0  0  0
   -0.0579   -0.3425   -2.0617 H   0  0  0  0  0  0  0  0  0  0  0  0
    1.5067   -1.1797   -1.5364 H   0  0  0  0  0  0  0  0  0  0  0  0
   -1.0397    0.2838    1.5419 H   0  0  0  0  0  0  0  0  0  0  0  0
   -1.3458    1.2586   -1.3413 H   0  0  0  0  0  0  0  0  0  0  0  0
   -0.9490    2.3189    0.1336 H   0  0  0  0  0  0  0  0  0  0  0  0
   -2.5049    1.4635   -0.0223 H   0  0  0  0  0  0  0  0  0  0  0  0
   -2.9839   -0.4385    0.2475 H   0  0  0  0  0  0  0  0  0  0  0  0
   -1.9497   -1.2612   -0.9345 H   0  0  0  0  0  0  0  0  0  0  0  0
   -1.9180   -1.7860    0.8413 H   0  0  0  0  0  0  0  0  0  0  0  0
  1  2  1  0
  2  3  1  0
  3  4  1  0
  3  5  1  0
  3  6  1  0
  6  7  1  0
  6  8  1  0
  1  9  1  0
  1 10  1  0
  1 11  1  0
  2 12  1  0
  2 13  1  0
  4 14  1  0
  4 15  1  0
  4 16  1  0
  5 17  1  0
  5 18  1  0
  5 19  1  0
  6 20  1  0
  7 21  1  0
  7 22  1  0
  7 23  1  0
  8 24  1  0
  8 25  1  0
  8 26  1  0
M  END
