
     RDKit          3D

 17 16  0  0  0  0  0  0  0  0999 V2000
    1.9906   -0.0999   -0.0218 C   0  0  0  0  0  0  0  0  0  0  0  0
    0.7586    0.4439    0.6700 C   0  0  0  0  0  0  0  0  0  0  0  0
   -0.4153    0.2491   -0.2615 C   0  0  0  0  0  0  0  0  0  0  0  0
   -0.6569   -1.1833   -0.6077 C   0  0  0  0  0  0  0  0  0  0  0  0
   -1.6912    0.7952    0.3720 C   0  0  0  0  0  0  0  0  0  0  0  0
    1.9396   -1.1792   -0.1769 H   0  0  0  0  0  0  0  0  0  0  0  0
    2.0208    0.3865   -1.0378 H   0  0  0  0  0  0  0  0  0  0  0  0
    2.9248    0.2185    0.4810 H   0  0  0  0  0  0  0  0  0  0  0  0
    0.5960   -0.0508    1.6407 H   0  0  0  0  0  0  0  0  0  0  0  0
    0.8897    1.5233    0.8446 H   0  0  0  0  0  0  0  0  0  0  0  0
   -0.2148    0.8614   -1.1634 H   0  0  0  0  0  0  0  0  0  0  0  0
   -0.4743   -1.3157   -1.6957 H   0  0  0  0  0  0  0  0  0  0  0  0
    0.0273   -1.8892   -0.0680 H   0  0  0  0  0  0  0  0  0  0  0  0
   -1.6997   -1.5023   -0.4192 H   0  0  0  0  0  0  0  0  0  0  0  0
   -1.4459    1.7856    0.7647 H   0  0  0  0  0  0  0  0  0  0  0  0
   -2.4443    0.8624   -0.4456 H   0  0  0  0  0  0  0  0  0  0  0  0
   -2.1051    0.0946    1.1244 H   0  0  0  0  0  0  0  0  0  0  0  0
  1  2  1  0
  2  3  1  0
  3  4  1  0
  3  5  1  0
  1  6  1  0
  1  7  1  0
  1  8  1  0
  2  9  1  0
  2 10  1  0
  3 11  1  0
  4 12  1  0
  4 13  1  0
  4 14  1  0
  5 15  1  0
  5 16  1  0
  5 17  1  0
M  END
