
     RDKit          3D

 21 20  0  0  0  0  0  0  0  0999 V2000
   -1.7395    1.5041    0.2966 C   0  0  0  0  0  0  0  0  0  0  0  0
   -1.9584    0.0322    0.2623 C   0  0  0  0  0  0  0  0  0  0  0  0
   -0.6941   -0.7705    0.5121 C   0  0  0  0  0  0  0  0  0  0  0  0
   -1.0766   -2.1992    0.4458 C   0  0  0  0  0  0  0  0  0  0  0  0
   -0.5433   -2.9039   -0.3848 O   0  0  0  0  0  0  0  0  0  0  0  0
    0.2645   -0.5308   -0.4655 O   0  0  0  0  0  0  0  0  0  0  0  0
    1.4278   -0.0811    0.1677 C   0  0  0  0  0  0  0  0  0  0  0  0
    2.5269    0.2049   -0.8258 C   0  0  0  0  0  0  0  0  0  0  0  0
    2.1582    1.1765   -1.7355 O   0  0  0  0  0  0  0  0  0  0  0  0
   -0.9295    1.8433    0.9471 H   0  0  0  0  0  0  0  0  0  0  0  0
   -2.6999    1.9729    0.6590 H   0  0  0  0  0  0  0  0  0  0  0  0
   -1.5910    1.9039   -0.7269 H   0  0  0  0  0  0  0  0  0  0  0  0
   -2.3414   -0.2886   -0.7379 H   0  0  0  0  0  0  0  0  0  0  0  0
   -2.7063   -0.2976    1.0032 H   0  0  0  0  0  0  0  0  0  0  0  0
   -0.2990   -0.5482    1.5239 H   0  0  0  0  0  0  0  0  0  0  0  0
   -1.8118   -2.6275    1.1119 H   0  0  0  0  0  0  0  0  0  0  0  0
    1.2433    0.8416    0.7576 H   0  0  0  0  0  0  0  0  0  0  0  0
    1.8187   -0.8736    0.8526 H   0  0  0  0  0  0  0  0  0  0  0  0
    2.7003   -0.7350   -1.3900 H   0  0  0  0  0  0  0  0  0  0  0  0
    3.4337    0.4749   -0.2773 H   0  0  0  0  0  0  0  0  0  0  0  0
    2.8177    1.9018   -1.7904 H   0  0  0  0  0  0  0  0  0  0  0  0
  1  2  1  0
  2  3  1  0
  3  4  1  0
  4  5  2  0
  3  6  1  0
  6  7  1  0
  7  8  1  0
  8  9  1  0
  1 10  1  0
  1 11  1  0
  1 12  1  0
  2 13  1  0
  2 14  1  0
  3 15  1  0
  4 16  1  0
  7 17  1  0
  7 18  1  0
  8 19  1  0
  8 20  1  0
  9 21  1  0
M  END
