
     RDKit          3D

 23 22  0  0  0  0  0  0  0  0999 V2000
   -1.5147    1.7533   -0.1844 C   0  0  0  0  0  0  0  0  0  0  0  0
   -1.5204    0.2796   -0.5353 C   0  0  0  0  0  0  0  0  0  0  0  0
   -0.6640   -0.5299    0.3763 C   0  0  0  0  0  0  0  0  0  0  0  0
   -0.6992   -1.9965   -0.0108 C   0  0  0  0  0  0  0  0  0  0  0  0
   -1.2702   -0.4687    1.6410 O   0  0  0  0  0  0  0  0  0  0  0  0
    0.7350   -0.0785    0.5410 C   0  0  0  0  0  0  0  0  0  0  0  0
    1.5904   -0.0224   -0.6648 C   0  0  0  0  0  0  0  0  0  0  0  0
    2.9436    0.4566   -0.2533 C   0  0  0  0  0  0  0  0  0  0  0  0
    3.2283    0.7365    0.8981 O   0  0  0  0  0  0  0  0  0  0  0  0
   -1.9517    2.2902   -1.0522 H   0  0  0  0  0  0  0  0  0  0  0  0
   -0.4819    2.1120   -0.0790 H   0  0  0  0  0  0  0  0  0  0  0  0
   -2.1145    1.9238    0.7497 H   0  0  0  0  0  0  0  0  0  0  0  0
   -1.3021    0.1926   -1.5980 H   0  0  0  0  0  0  0  0  0  0  0  0
   -2.5754   -0.0644   -0.3929 H   0  0  0  0  0  0  0  0  0  0  0  0
    0.2115   -2.5160    0.3527 H   0  0  0  0  0  0  0  0  0  0  0  0
   -0.8234   -2.0597   -1.1116 H   0  0  0  0  0  0  0  0  0  0  0  0
   -1.5591   -2.5300    0.4532 H   0  0  0  0  0  0  0  0  0  0  0  0
   -0.9127    0.2587    2.1880 H   0  0  0  0  0  0  0  0  0  0  0  0
    1.2208   -0.7623    1.2711 H   0  0  0  0  0  0  0  0  0  0  0  0
    0.7522    0.9297    1.0349 H   0  0  0  0  0  0  0  0  0  0  0  0
    1.7605   -1.0562   -1.0860 H   0  0  0  0  0  0  0  0  0  0  0  0
    1.2550    0.6034   -1.4816 H   0  0  0  0  0  0  0  0  0  0  0  0
    3.6919    0.5481   -1.0563 H   0  0  0  0  0  0  0  0  0  0  0  0
  1  2  1  0
  2  3  1  0
  3  4  1  0
  3  5  1  0
  3  6  1  0
  6  7  1  0
  7  8  1  0
  8  9  2  0
  1 10  1  0
  1 11  1  0
  1 12  1  0
  2 13  1  0
  2 14  1  0
  4 15  1  0
  4 16  1  0
  4 17  1  0
  5 18  1  0
  6 19  1  0
  6 20  1  0
  7 21  1  0
  7 22  1  0
  8 23  1  0
M  END
