
     RDKit          3D

 25 24  0  0  0  0  0  0  0  0999 V2000
   -2.7629    0.6471    0.3064 C   0  0  0  0  0  0  0  0  0  0  0  0
   -2.0278   -0.5456    0.8226 C   0  0  0  0  0  0  0  0  0  0  0  0
   -0.7399   -0.8099    0.0448 C   0  0  0  0  0  0  0  0  0  0  0  0
   -1.0040   -1.0555   -1.3783 C   0  0  0  0  0  0  0  0  0  0  0  0
   -0.9538   -0.1353   -2.1979 O   0  0  0  0  0  0  0  0  0  0  0  0
    0.1582    0.3685    0.2755 C   0  0  0  0  0  0  0  0  0  0  0  0
    1.4811    0.2555   -0.4336 C   0  0  0  0  0  0  0  0  0  0  0  0
    2.2622   -0.9686    0.0174 C   0  0  0  0  0  0  0  0  0  0  0  0
    2.3016    1.4634   -0.0103 C   0  0  0  0  0  0  0  0  0  0  0  0
   -2.3960    1.6033    0.7228 H   0  0  0  0  0  0  0  0  0  0  0  0
   -3.8280    0.5601    0.6528 H   0  0  0  0  0  0  0  0  0  0  0  0
   -2.7961    0.7248   -0.7944 H   0  0  0  0  0  0  0  0  0  0  0  0
   -1.7677   -0.3544    1.8843 H   0  0  0  0  0  0  0  0  0  0  0  0
   -2.6802   -1.4536    0.8301 H   0  0  0  0  0  0  0  0  0  0  0  0
   -0.3161   -1.7468    0.4856 H   0  0  0  0  0  0  0  0  0  0  0  0
   -1.2521   -2.0276   -1.7902 H   0  0  0  0  0  0  0  0  0  0  0  0
    0.3806    0.4021    1.3738 H   0  0  0  0  0  0  0  0  0  0  0  0
   -0.3377    1.2789   -0.0533 H   0  0  0  0  0  0  0  0  0  0  0  0
    1.3121    0.2727   -1.5153 H   0  0  0  0  0  0  0  0  0  0  0  0
    3.3025   -0.8264   -0.3552 H   0  0  0  0  0  0  0  0  0  0  0  0
    1.8368   -1.9079   -0.3775 H   0  0  0  0  0  0  0  0  0  0  0  0
    2.2904   -0.9371    1.1264 H   0  0  0  0  0  0  0  0  0  0  0  0
    3.2071    1.4740   -0.6331 H   0  0  0  0  0  0  0  0  0  0  0  0
    1.7206    2.3984   -0.0526 H   0  0  0  0  0  0  0  0  0  0  0  0
    2.6093    1.3202    1.0492 H   0  0  0  0  0  0  0  0  0  0  0  0
  1  2  1  0
  2  3  1  0
  3  4  1  0
  4  5  2  0
  3  6  1  0
  6  7  1  0
  7  8  1  0
  7  9  1  0
  1 10  1  0
  1 11  1  0
  1 12  1  0
  2 13  1  0
  2 14  1  0
  3 15  1  0
  4 16  1  0
  6 17  1  0
  6 18  1  0
  7 19  1  0
  8 20  1  0
  8 21  1  0
  8 22  1  0
  9 23  1  0
  9 24  1  0
  9 25  1  0
M  END
