
     RDKit          3D

 19 18  0  0  0  0  0  0  0  0999 V2000
   -2.7396   -0.6988   -0.2962 C   0  0  0  0  0  0  0  0  0  0  0  0
   -1.7622   -0.1429    0.7209 C   0  0  0  0  0  0  0  0  0  0  0  0
   -0.3578   -0.2681    0.3240 C   0  0  0  0  0  0  0  0  0  0  0  0
    0.1205   -1.3299   -0.0046 O   0  0  0  0  0  0  0  0  0  0  0  0
    0.5008    0.9302    0.3192 C   0  0  0  0  0  0  0  0  0  0  0  0
    1.9315    0.6437   -0.0708 C   0  0  0  0  0  0  0  0  0  0  0  0
    2.0790    0.0965   -1.3147 O   0  0  0  0  0  0  0  0  0  0  0  0
    2.6551   -0.0745    1.0088 C   0  0  0  0  0  0  0  0  0  0  0  0
    3.2808   -1.0671    0.7353 O   0  0  0  0  0  0  0  0  0  0  0  0
   -3.7527   -0.5771    0.1435 H   0  0  0  0  0  0  0  0  0  0  0  0
   -2.5963   -1.7607   -0.5370 H   0  0  0  0  0  0  0  0  0  0  0  0
   -2.7546   -0.0997   -1.2329 H   0  0  0  0  0  0  0  0  0  0  0  0
   -2.0515    0.8958    0.9324 H   0  0  0  0  0  0  0  0  0  0  0  0
   -1.9899   -0.7079    1.6691 H   0  0  0  0  0  0  0  0  0  0  0  0
    0.4576    1.4102    1.3108 H   0  0  0  0  0  0  0  0  0  0  0  0
    0.0285    1.6253   -0.4303 H   0  0  0  0  0  0  0  0  0  0  0  0
    2.4185    1.6655   -0.1162 H   0  0  0  0  0  0  0  0  0  0  0  0
    1.9403   -0.8679   -1.3884 H   0  0  0  0  0  0  0  0  0  0  0  0
    2.5916    0.3275    2.0047 H   0  0  0  0  0  0  0  0  0  0  0  0
  1  2  1  0
  2  3  1  0
  3  4  2  0
  3  5  1  0
  5  6  1  0
  6  7  1  0
  6  8  1  0
  8  9  2  0
  1 10  1  0
  1 11  1  0
  1 12  1  0
  2 13  1  0
  2 14  1  0
  5 15  1  0
  5 16  1  0
  6 17  1  0
  7 18  1  0
  8 19  1  0
M  END
