
     RDKit          3D

 23 22  0  0  0  0  0  0  0  0999 V2000
   -1.1244   -1.9302    1.9454 C   0  0  0  0  0  0  0  0  0  0  0  0
   -1.4101   -0.4629    1.9130 C   0  0  0  0  0  0  0  0  0  0  0  0
   -0.8944    0.2016    0.6465 C   0  0  0  0  0  0  0  0  0  0  0  0
   -1.5200   -0.3888   -0.5891 C   0  0  0  0  0  0  0  0  0  0  0  0
    0.6030    0.0975    0.6456 C   0  0  0  0  0  0  0  0  0  0  0  0
    1.1286    0.7366   -0.5784 C   0  0  0  0  0  0  0  0  0  0  0  0
    1.5593    1.2331   -1.5706 C   0  0  0  0  0  0  0  0  0  0  0  0
    2.0766    1.8619   -2.8265 C   0  0  0  0  0  0  0  0  0  0  0  0
    2.6678    0.9358   -3.6481 O   0  0  0  0  0  0  0  0  0  0  0  0
   -0.5503   -2.2832    1.0530 H   0  0  0  0  0  0  0  0  0  0  0  0
   -2.0639   -2.4937    1.9632 H   0  0  0  0  0  0  0  0  0  0  0  0
   -0.5265   -2.2392    2.8323 H   0  0  0  0  0  0  0  0  0  0  0  0
   -2.4686   -0.2897    2.0833 H   0  0  0  0  0  0  0  0  0  0  0  0
   -0.8187    0.0100    2.7524 H   0  0  0  0  0  0  0  0  0  0  0  0
   -1.1722    1.2705    0.6958 H   0  0  0  0  0  0  0  0  0  0  0  0
   -1.6658    0.3729   -1.4038 H   0  0  0  0  0  0  0  0  0  0  0  0
   -2.4919   -0.8665   -0.4353 H   0  0  0  0  0  0  0  0  0  0  0  0
   -0.8322   -1.1696   -1.0198 H   0  0  0  0  0  0  0  0  0  0  0  0
    0.9544   -0.9506    0.7377 H   0  0  0  0  0  0  0  0  0  0  0  0
    0.9711    0.6233    1.5637 H   0  0  0  0  0  0  0  0  0  0  0  0
    1.1778    2.3020   -3.3210 H   0  0  0  0  0  0  0  0  0  0  0  0
    2.7962    2.6728   -2.5962 H   0  0  0  0  0  0  0  0  0  0  0  0
    3.6044    0.7567   -3.3139 H   0  0  0  0  0  0  0  0  0  0  0  0
  1  2  1  0
  2  3  1  0
  3  4  1  0
  3  5  1  0
  5  6  1  0
  6  7  3  0
  7  8  1  0
  8  9  1  0
  1 10  1  0
  1 11  1  0
  1 12  1  0
  2 13  1  0
  2 14  1  0
  3 15  1  0
  4 16  1  0
  4 17  1  0
  4 18  1  0
  5 19  1  0
  5 20  1  0
  8 21  1  0
  8 22  1  0
  9 23  1  0
M  END
