
     RDKit          3D

 21 21  0  0  0  0  0  0  0  0999 V2000
    2.4989   -0.4833    0.9159 C   0  0  0  0  0  0  0  0  0  0  0  0
    1.1563   -0.7340    0.2596 C   0  0  0  0  0  0  0  0  0  0  0  0
    0.4644    0.5868    0.0221 C   0  0  0  0  0  0  0  0  0  0  0  0
    1.3184    1.4329   -0.8718 C   0  0  0  0  0  0  0  0  0  0  0  0
    1.0911    1.5554   -2.0594 O   0  0  0  0  0  0  0  0  0  0  0  0
   -0.8759    0.4577   -0.6164 C   0  0  0  0  0  0  0  0  0  0  0  0
   -1.8089   -0.3576    0.2449 C   0  0  0  0  0  0  0  0  0  0  0  0
   -3.1672   -0.5657   -0.2622 C   0  0  0  0  0  0  0  0  0  0  0  0
   -2.8612    0.3092    0.8929 O   0  0  0  0  0  0  0  0  0  0  0  0
    3.0464    0.3344    0.4195 H   0  0  0  0  0  0  0  0  0  0  0  0
    3.0654   -1.4367    0.8756 H   0  0  0  0  0  0  0  0  0  0  0  0
    2.3545   -0.2437    1.9926 H   0  0  0  0  0  0  0  0  0  0  0  0
    0.5972   -1.3832    0.9313 H   0  0  0  0  0  0  0  0  0  0  0  0
    1.3806   -1.2467   -0.7096 H   0  0  0  0  0  0  0  0  0  0  0  0
    0.3924    1.0816    1.0279 H   0  0  0  0  0  0  0  0  0  0  0  0
    2.1711    1.9606   -0.4642 H   0  0  0  0  0  0  0  0  0  0  0  0
   -0.7281   -0.0966   -1.5900 H   0  0  0  0  0  0  0  0  0  0  0  0
   -1.3447    1.4125   -0.8837 H   0  0  0  0  0  0  0  0  0  0  0  0
   -1.4044   -1.1830    0.8647 H   0  0  0  0  0  0  0  0  0  0  0  0
   -3.7372   -1.4741    0.0536 H   0  0  0  0  0  0  0  0  0  0  0  0
   -3.6089    0.0733   -1.0436 H   0  0  0  0  0  0  0  0  0  0  0  0
  1  2  1  0
  2  3  1  0
  3  4  1  0
  4  5  2  0
  3  6  1  0
  6  7  1  0
  7  8  1  0
  8  9  1  0
  9  7  1  0
  1 10  1  0
  1 11  1  0
  1 12  1  0
  2 13  1  0
  2 14  1  0
  3 15  1  0
  4 16  1  0
  6 17  1  0
  6 18  1  0
  7 19  1  0
  8 20  1  0
  8 21  1  0
M  END
