
     RDKit          3D

 23 23  0  0  0  0  0  0  0  0999 V2000
    1.2079   -2.1701    0.2253 C   0  0  0  0  0  0  0  0  0  0  0  0
    0.8394   -1.0301   -0.7192 C   0  0  0  0  0  0  0  0  0  0  0  0
    0.5304    0.2265    0.0703 C   0  0  0  0  0  0  0  0  0  0  0  0
   -0.5943    0.0710    1.0174 C   0  0  0  0  0  0  0  0  0  0  0  0
   -1.9258   -0.2885    0.5091 C   0  0  0  0  0  0  0  0  0  0  0  0
   -2.6984    0.5017   -0.4469 C   0  0  0  0  0  0  0  0  0  0  0  0
   -2.1851   -0.7516   -0.7537 O   0  0  0  0  0  0  0  0  0  0  0  0
    0.4572    1.3266   -0.7557 O   0  0  0  0  0  0  0  0  0  0  0  0
    1.4950    2.2311   -0.5258 C   0  0  0  0  0  0  0  0  0  0  0  0
    1.7991   -2.9088   -0.3393 H   0  0  0  0  0  0  0  0  0  0  0  0
    1.7754   -1.7004    1.0626 H   0  0  0  0  0  0  0  0  0  0  0  0
    0.2822   -2.6303    0.6639 H   0  0  0  0  0  0  0  0  0  0  0  0
    1.7600   -0.8270   -1.3413 H   0  0  0  0  0  0  0  0  0  0  0  0
   -0.0073   -1.2845   -1.3507 H   0  0  0  0  0  0  0  0  0  0  0  0
    1.4461    0.3794    0.7220 H   0  0  0  0  0  0  0  0  0  0  0  0
   -0.6870    1.0119    1.6203 H   0  0  0  0  0  0  0  0  0  0  0  0
   -0.2724   -0.6996    1.7785 H   0  0  0  0  0  0  0  0  0  0  0  0
   -2.5736   -0.7928    1.2945 H   0  0  0  0  0  0  0  0  0  0  0  0
   -3.7982    0.6341   -0.3329 H   0  0  0  0  0  0  0  0  0  0  0  0
   -2.1861    1.3442   -0.9919 H   0  0  0  0  0  0  0  0  0  0  0  0
    1.4255    3.0952   -1.1846 H   0  0  0  0  0  0  0  0  0  0  0  0
    2.4715    1.7213   -0.7546 H   0  0  0  0  0  0  0  0  0  0  0  0
    1.4385    2.5409    0.5326 H   0  0  0  0  0  0  0  0  0  0  0  0
  1  2  1  0
  2  3  1  0
  3  4  1  0
  4  5  1  0
  5  6  1  0
  6  7  1  0
  3  8  1  0
  8  9  1  0
  7  5  1  0
  1 10  1  0
  1 11  1  0
  1 12  1  0
  2 13  1  0
  2 14  1  0
  3 15  1  0
  4 16  1  0
  4 17  1  0
  5 18  1  0
  6 19  1  0
  6 20  1  0
  9 21  1  0
  9 22  1  0
  9 23  1  0
M  END
