
     RDKit          3D

 19 18  0  0  0  0  0  0  0  0999 V2000
   -2.8191    0.1006    0.4697 C   0  0  0  0  0  0  0  0  0  0  0  0
   -1.5962    0.5862   -0.2711 C   0  0  0  0  0  0  0  0  0  0  0  0
   -0.6517   -0.5465   -0.4082 C   0  0  0  0  0  0  0  0  0  0  0  0
   -0.9455   -1.6255    0.0528 O   0  0  0  0  0  0  0  0  0  0  0  0
    0.6502   -0.3935   -1.0986 C   0  0  0  0  0  0  0  0  0  0  0  0
    1.2983   -1.6254   -1.0638 O   0  0  0  0  0  0  0  0  0  0  0  0
    1.4999    0.6638   -0.4492 C   0  0  0  0  0  0  0  0  0  0  0  0
    2.8231    0.3328    0.1233 C   0  0  0  0  0  0  0  0  0  0  0  0
    1.0732    1.7988   -0.4059 O   0  0  0  0  0  0  0  0  0  0  0  0
   -3.0507   -0.9115    0.0749 H   0  0  0  0  0  0  0  0  0  0  0  0
   -3.7072    0.7285    0.2892 H   0  0  0  0  0  0  0  0  0  0  0  0
   -2.5354    0.0501    1.5516 H   0  0  0  0  0  0  0  0  0  0  0  0
   -1.8592    1.0371   -1.2543 H   0  0  0  0  0  0  0  0  0  0  0  0
   -1.1126    1.4224    0.3127 H   0  0  0  0  0  0  0  0  0  0  0  0
    0.5075   -0.1560   -2.1792 H   0  0  0  0  0  0  0  0  0  0  0  0
    0.8495   -2.2627   -0.4332 H   0  0  0  0  0  0  0  0  0  0  0  0
    3.0173    0.9290    1.0414 H   0  0  0  0  0  0  0  0  0  0  0  0
    3.6544    0.6097   -0.5824 H   0  0  0  0  0  0  0  0  0  0  0  0
    2.9045   -0.7379    0.4246 H   0  0  0  0  0  0  0  0  0  0  0  0
  1  2  1  0
  2  3  1  0
  3  4  2  0
  3  5  1  0
  5  6  1  0
  5  7  1  0
  7  8  1  0
  7  9  2  0
  1 10  1  0
  1 11  1  0
  1 12  1  0
  2 13  1  0
  2 14  1  0
  5 15  1  0
  6 16  1  0
  8 17  1  0
  8 18  1  0
  8 19  1  0
M  END
