
     RDKit          3D

 25 25  0  0  0  0  0  0  0  0999 V2000
    0.2151    2.1478   -1.2167 C   0  0  0  0  0  0  0  0  0  0  0  0
    0.9165    0.8831   -0.8322 C   0  0  0  0  0  0  0  0  0  0  0  0
    0.0739    0.0097    0.0825 C   0  0  0  0  0  0  0  0  0  0  0  0
   -0.2733    0.7249    1.3626 C   0  0  0  0  0  0  0  0  0  0  0  0
   -1.1593   -0.3443   -0.7206 C   0  0  0  0  0  0  0  0  0  0  0  0
   -2.1189   -1.2152    0.0342 C   0  0  0  0  0  0  0  0  0  0  0  0
    0.7640   -1.2598    0.4639 C   0  0  0  0  0  0  0  0  0  0  0  0
    1.9925   -1.3735    1.1512 C   0  0  0  0  0  0  0  0  0  0  0  0
    1.9792   -1.4506   -0.3576 O   0  0  0  0  0  0  0  0  0  0  0  0
   -0.4645    2.0287   -2.0819 H   0  0  0  0  0  0  0  0  0  0  0  0
    0.9884    2.8866   -1.5139 H   0  0  0  0  0  0  0  0  0  0  0  0
   -0.2963    2.5930   -0.3282 H   0  0  0  0  0  0  0  0  0  0  0  0
    1.8743    1.1712   -0.3454 H   0  0  0  0  0  0  0  0  0  0  0  0
    1.1884    0.2962   -1.7337 H   0  0  0  0  0  0  0  0  0  0  0  0
   -0.3875    0.0071    2.2257 H   0  0  0  0  0  0  0  0  0  0  0  0
   -1.2251    1.2785    1.3122 H   0  0  0  0  0  0  0  0  0  0  0  0
    0.5069    1.4325    1.6672 H   0  0  0  0  0  0  0  0  0  0  0  0
   -1.7269    0.5804   -1.0171 H   0  0  0  0  0  0  0  0  0  0  0  0
   -0.9023   -0.8472   -1.6685 H   0  0  0  0  0  0  0  0  0  0  0  0
   -1.8628   -2.2689   -0.2072 H   0  0  0  0  0  0  0  0  0  0  0  0
   -1.9913   -1.1212    1.1366 H   0  0  0  0  0  0  0  0  0  0  0  0
   -3.1720   -1.0719   -0.2734 H   0  0  0  0  0  0  0  0  0  0  0  0
    0.0933   -2.1602    0.4527 H   0  0  0  0  0  0  0  0  0  0  0  0
    2.7013   -0.5718    1.3972 H   0  0  0  0  0  0  0  0  0  0  0  0
    2.2861   -2.3550    1.5747 H   0  0  0  0  0  0  0  0  0  0  0  0
  1  2  1  0
  2  3  1  0
  3  4  1  0
  3  5  1  0
  5  6  1  0
  3  7  1  0
  7  8  1  0
  8  9  1  0
  9  7  1  0
  1 10  1  0
  1 11  1  0
  1 12  1  0
  2 13  1  0
  2 14  1  0
  4 15  1  0
  4 16  1  0
  4 17  1  0
  5 18  1  0
  5 19  1  0
  6 20  1  0
  6 21  1  0
  6 22  1  0
  7 23  1  0
  8 24  1  0
  8 25  1  0
M  END
