
     RDKit          3D

 23 23  0  0  0  0  0  0  0  0999 V2000
   -2.3631   -0.2007   -0.9398 C   0  0  0  0  0  0  0  0  0  0  0  0
   -0.8370   -0.3728   -0.9762 C   0  0  0  0  0  0  0  0  0  0  0  0
   -0.2924    0.3282    0.2256 C   0  0  0  0  0  0  0  0  0  0  0  0
   -0.8985   -0.3282    1.4534 C   0  0  0  0  0  0  0  0  0  0  0  0
   -0.7588    1.6640    0.2537 O   0  0  0  0  0  0  0  0  0  0  0  0
    1.1749    0.3173    0.3787 C   0  0  0  0  0  0  0  0  0  0  0  0
    1.6073    0.9006    1.5953 O   0  0  0  0  0  0  0  0  0  0  0  0
    2.1453    0.2625   -0.7143 C   0  0  0  0  0  0  0  0  0  0  0  0
    1.8271   -1.0198    0.0165 C   0  0  0  0  0  0  0  0  0  0  0  0
   -2.8370   -0.6305   -1.8397 H   0  0  0  0  0  0  0  0  0  0  0  0
   -2.7783   -0.7441   -0.0678 H   0  0  0  0  0  0  0  0  0  0  0  0
   -2.5336    0.8986   -0.8552 H   0  0  0  0  0  0  0  0  0  0  0  0
   -0.4886   -0.0099   -1.9359 H   0  0  0  0  0  0  0  0  0  0  0  0
   -0.6868   -1.4711   -0.9399 H   0  0  0  0  0  0  0  0  0  0  0  0
   -0.8625   -1.4338    1.3814 H   0  0  0  0  0  0  0  0  0  0  0  0
   -1.9324    0.0034    1.6327 H   0  0  0  0  0  0  0  0  0  0  0  0
   -0.2656   -0.0089    2.3132 H   0  0  0  0  0  0  0  0  0  0  0  0
   -0.1452    2.2521   -0.2578 H   0  0  0  0  0  0  0  0  0  0  0  0
    2.0517    1.7587    1.3659 H   0  0  0  0  0  0  0  0  0  0  0  0
    1.8789    0.3514   -1.7806 H   0  0  0  0  0  0  0  0  0  0  0  0
    3.1658    0.6430   -0.4979 H   0  0  0  0  0  0  0  0  0  0  0  0
    2.5351   -1.4069    0.7716 H   0  0  0  0  0  0  0  0  0  0  0  0
    1.2939   -1.7532   -0.5832 H   0  0  0  0  0  0  0  0  0  0  0  0
  1  2  1  0
  2  3  1  0
  3  4  1  0
  3  5  1  0
  3  6  1  0
  6  7  1  0
  6  8  1  0
  8  9  1  0
  9  6  1  0
  1 10  1  0
  1 11  1  0
  1 12  1  0
  2 13  1  0
  2 14  1  0
  4 15  1  0
  4 16  1  0
  4 17  1  0
  5 18  1  0
  7 19  1  0
  8 20  1  0
  8 21  1  0
  9 22  1  0
  9 23  1  0
M  END
