
     RDKit          3D

 18 18  0  0  0  0  0  0  0  0999 V2000
    2.3132    0.1365    0.2251 C   0  0  0  0  0  0  0  0  0  0  0  0
    1.2267   -0.9281    0.0215 C   0  0  0  0  0  0  0  0  0  0  0  0
    0.2308   -0.3546   -0.9294 C   0  0  0  0  0  0  0  0  0  0  0  0
    0.2911   -0.3234   -2.0722 O   0  0  0  0  0  0  0  0  0  0  0  0
   -0.9900    0.2223   -0.2600 C   0  0  0  0  0  0  0  0  0  0  0  0
   -1.7305   -0.7496    0.6368 C   0  0  0  0  0  0  0  0  0  0  0  0
   -1.4746    1.5534   -0.4402 C   0  0  0  0  0  0  0  0  0  0  0  0
   -0.5054    1.3864    0.5204 O   0  0  0  0  0  0  0  0  0  0  0  0
    1.9939    1.1334   -0.1377 H   0  0  0  0  0  0  0  0  0  0  0  0
    3.1925   -0.1811   -0.3599 H   0  0  0  0  0  0  0  0  0  0  0  0
    2.5495    0.2405    1.2918 H   0  0  0  0  0  0  0  0  0  0  0  0
    1.7046   -1.8441   -0.4497 H   0  0  0  0  0  0  0  0  0  0  0  0
    0.8333   -1.2138    0.9939 H   0  0  0  0  0  0  0  0  0  0  0  0
   -2.7483   -0.8557    0.0995 H   0  0  0  0  0  0  0  0  0  0  0  0
   -1.8662   -0.3933    1.6456 H   0  0  0  0  0  0  0  0  0  0  0  0
   -1.3045   -1.7565    0.5819 H   0  0  0  0  0  0  0  0  0  0  0  0
   -1.2346    2.1361   -1.3546 H   0  0  0  0  0  0  0  0  0  0  0  0
   -2.4816    1.7918   -0.0126 H   0  0  0  0  0  0  0  0  0  0  0  0
  1  2  1  0
  2  3  1  0
  3  4  2  0
  3  5  1  0
  5  6  1  0
  5  7  1  0
  7  8  1  0
  8  5  1  0
  1  9  1  0
  1 10  1  0
  1 11  1  0
  2 12  1  0
  2 13  1  0
  6 14  1  0
  6 15  1  0
  6 16  1  0
  7 17  1  0
  7 18  1  0
M  END
