
     RDKit          3D

 21 20  0  0  0  0  0  0  0  0999 V2000
   -2.7501   -0.9890    0.3577 C   0  0  0  0  0  0  0  0  0  0  0  0
   -2.1789    0.2233   -0.3347 C   0  0  0  0  0  0  0  0  0  0  0  0
   -1.0570    0.8556    0.4548 C   0  0  0  0  0  0  0  0  0  0  0  0
   -0.6245    1.9658   -0.3060 O   0  0  0  0  0  0  0  0  0  0  0  0
    0.1016   -0.0490    0.5871 C   0  0  0  0  0  0  0  0  0  0  0  0
   -0.0381   -1.0879    1.2135 O   0  0  0  0  0  0  0  0  0  0  0  0
    1.4374    0.2473   -0.0098 C   0  0  0  0  0  0  0  0  0  0  0  0
    2.3409   -0.7786    0.2728 O   0  0  0  0  0  0  0  0  0  0  0  0
    3.5881   -0.5417   -0.2623 C   0  0  0  0  0  0  0  0  0  0  0  0
   -3.1369   -0.7126    1.3525 H   0  0  0  0  0  0  0  0  0  0  0  0
   -3.6423   -1.3004   -0.2537 H   0  0  0  0  0  0  0  0  0  0  0  0
   -2.0742   -1.8549    0.3592 H   0  0  0  0  0  0  0  0  0  0  0  0
   -2.9945    0.9588   -0.4498 H   0  0  0  0  0  0  0  0  0  0  0  0
   -1.7930   -0.0212   -1.3282 H   0  0  0  0  0  0  0  0  0  0  0  0
   -1.4045    1.2765    1.4201 H   0  0  0  0  0  0  0  0  0  0  0  0
   -0.8022    1.7811   -1.2800 H   0  0  0  0  0  0  0  0  0  0  0  0
    1.8483    1.2190    0.3333 H   0  0  0  0  0  0  0  0  0  0  0  0
    1.2784    0.3224   -1.1143 H   0  0  0  0  0  0  0  0  0  0  0  0
    3.5849   -0.4397   -1.3630 H   0  0  0  0  0  0  0  0  0  0  0  0
    4.0963    0.3495    0.1541 H   0  0  0  0  0  0  0  0  0  0  0  0
    4.2204   -1.4243   -0.0334 H   0  0  0  0  0  0  0  0  0  0  0  0
  1  2  1  0
  2  3  1  0
  3  4  1  0
  3  5  1  0
  5  6  2  0
  5  7  1  0
  7  8  1  0
  8  9  1  0
  1 10  1  0
  1 11  1  0
  1 12  1  0
  2 13  1  0
  2 14  1  0
  3 15  1  0
  4 16  1  0
  7 17  1  0
  7 18  1  0
  9 19  1  0
  9 20  1  0
  9 21  1  0
M  END
