
     RDKit          3D

 21 21  0  0  0  0  0  0  0  0999 V2000
    2.7079    0.4512    0.0030 C   0  0  0  0  0  0  0  0  0  0  0  0
    1.3269    1.1445    0.3060 C   0  0  0  0  0  0  0  0  0  0  0  0
    0.4294    0.0474    0.8101 C   0  0  0  0  0  0  0  0  0  0  0  0
    0.7395   -0.5068    1.8555 O   0  0  0  0  0  0  0  0  0  0  0  0
   -0.7884   -0.3840    0.0964 C   0  0  0  0  0  0  0  0  0  0  0  0
   -1.8011    0.6436   -0.1890 C   0  0  0  0  0  0  0  0  0  0  0  0
   -1.5083    1.7376   -0.9168 O   0  0  0  0  0  0  0  0  0  0  0  0
   -1.3055   -1.7892    0.4001 C   0  0  0  0  0  0  0  0  0  0  0  0
   -0.5889   -1.5272   -0.8629 C   0  0  0  0  0  0  0  0  0  0  0  0
    3.3910    1.2785   -0.2903 H   0  0  0  0  0  0  0  0  0  0  0  0
    2.6071   -0.3176   -0.7604 H   0  0  0  0  0  0  0  0  0  0  0  0
    3.1242    0.0031    0.8945 H   0  0  0  0  0  0  0  0  0  0  0  0
    0.9795    1.5653   -0.6351 H   0  0  0  0  0  0  0  0  0  0  0  0
    1.5647    1.9043    1.0416 H   0  0  0  0  0  0  0  0  0  0  0  0
   -2.2726    0.8990    0.8087 H   0  0  0  0  0  0  0  0  0  0  0  0
   -2.6483    0.0474   -0.7474 H   0  0  0  0  0  0  0  0  0  0  0  0
   -2.0551    2.5023   -0.4964 H   0  0  0  0  0  0  0  0  0  0  0  0
   -2.3749   -2.0149    0.3315 H   0  0  0  0  0  0  0  0  0  0  0  0
   -0.8213   -2.3182    1.2488 H   0  0  0  0  0  0  0  0  0  0  0  0
    0.4552   -1.8083   -1.0204 H   0  0  0  0  0  0  0  0  0  0  0  0
   -1.1611   -1.5579   -1.8019 H   0  0  0  0  0  0  0  0  0  0  0  0
  1  2  1  0
  2  3  1  0
  3  4  2  0
  3  5  1  0
  5  6  1  0
  6  7  1  0
  5  8  1  0
  8  9  1  0
  9  5  1  0
  1 10  1  0
  1 11  1  0
  1 12  1  0
  2 13  1  0
  2 14  1  0
  6 15  1  0
  6 16  1  0
  7 17  1  0
  8 18  1  0
  8 19  1  0
  9 20  1  0
  9 21  1  0
M  END
