
     RDKit          3D

 25 25  0  0  0  0  0  0  0  0999 V2000
    2.3471   -0.6014    0.4582 C   0  0  0  0  0  0  0  0  0  0  0  0
    0.9410   -1.0801    0.4660 C   0  0  0  0  0  0  0  0  0  0  0  0
   -0.0282    0.0656    0.2820 C   0  0  0  0  0  0  0  0  0  0  0  0
    0.1643    1.0680    1.4218 C   0  0  0  0  0  0  0  0  0  0  0  0
    0.3069    0.7702   -1.0028 C   0  0  0  0  0  0  0  0  0  0  0  0
    1.6130    1.2764   -0.9996 O   0  0  0  0  0  0  0  0  0  0  0  0
   -1.4415   -0.3643    0.2611 C   0  0  0  0  0  0  0  0  0  0  0  0
   -2.0277   -1.3104   -0.7042 C   0  0  0  0  0  0  0  0  0  0  0  0
   -2.2876    0.1374   -0.9113 C   0  0  0  0  0  0  0  0  0  0  0  0
    2.8526   -0.6250   -0.5247 H   0  0  0  0  0  0  0  0  0  0  0  0
    2.5154    0.3707    0.9375 H   0  0  0  0  0  0  0  0  0  0  0  0
    2.9410   -1.3330    1.0854 H   0  0  0  0  0  0  0  0  0  0  0  0
    0.8072   -1.7454   -0.4316 H   0  0  0  0  0  0  0  0  0  0  0  0
    0.7382   -1.6619    1.3721 H   0  0  0  0  0  0  0  0  0  0  0  0
   -0.7459    1.7053    1.4096 H   0  0  0  0  0  0  0  0  0  0  0  0
    1.0194    1.7241    1.2474 H   0  0  0  0  0  0  0  0  0  0  0  0
    0.2046    0.5109    2.3849 H   0  0  0  0  0  0  0  0  0  0  0  0
   -0.3535    1.6769   -1.1553 H   0  0  0  0  0  0  0  0  0  0  0  0
    0.1265    0.1171   -1.8741 H   0  0  0  0  0  0  0  0  0  0  0  0
    1.6339    2.2407   -0.7570 H   0  0  0  0  0  0  0  0  0  0  0  0
   -1.9550   -0.2936    1.2658 H   0  0  0  0  0  0  0  0  0  0  0  0
   -1.3853   -1.8563   -1.4338 H   0  0  0  0  0  0  0  0  0  0  0  0
   -2.8714   -1.9343   -0.3456 H   0  0  0  0  0  0  0  0  0  0  0  0
   -3.2702    0.5839   -0.6457 H   0  0  0  0  0  0  0  0  0  0  0  0
   -1.8448    0.5584   -1.8059 H   0  0  0  0  0  0  0  0  0  0  0  0
  1  2  1  0
  2  3  1  0
  3  4  1  0
  3  5  1  0
  5  6  1  0
  3  7  1  0
  7  8  1  0
  8  9  1  0
  9  7  1  0
  1 10  1  0
  1 11  1  0
  1 12  1  0
  2 13  1  0
  2 14  1  0
  4 15  1  0
  4 16  1  0
  4 17  1  0
  5 18  1  0
  5 19  1  0
  6 20  1  0
  7 21  1  0
  8 22  1  0
  8 23  1  0
  9 24  1  0
  9 25  1  0
M  END
