
     RDKit          3D

 27 27  0  0  0  0  0  0  0  0999 V2000
   -1.6859    0.9712   -1.6648 C   0  0  0  0  0  0  0  0  0  0  0  0
   -1.8047   -0.3868   -1.0443 C   0  0  0  0  0  0  0  0  0  0  0  0
   -1.0805   -0.4867    0.2838 C   0  0  0  0  0  0  0  0  0  0  0  0
   -1.6008    0.4828    1.3051 C   0  0  0  0  0  0  0  0  0  0  0  0
    0.4136   -0.3532    0.0637 C   0  0  0  0  0  0  0  0  0  0  0  0
    0.9514   -1.4564   -0.8609 C   0  0  0  0  0  0  0  0  0  0  0  0
    1.0328    0.9550   -0.1563 C   0  0  0  0  0  0  0  0  0  0  0  0
    1.2534    0.1913    1.1362 C   0  0  0  0  0  0  0  0  0  0  0  0
    2.6686   -0.2215    1.3734 C   0  0  0  0  0  0  0  0  0  0  0  0
   -0.6600    1.2257   -1.9875 H   0  0  0  0  0  0  0  0  0  0  0  0
   -2.3101    0.9709   -2.5822 H   0  0  0  0  0  0  0  0  0  0  0  0
   -2.0009    1.7216   -0.9197 H   0  0  0  0  0  0  0  0  0  0  0  0
   -2.8862   -0.6107   -0.9379 H   0  0  0  0  0  0  0  0  0  0  0  0
   -1.3920   -1.1927   -1.6905 H   0  0  0  0  0  0  0  0  0  0  0  0
   -1.3212   -1.5144    0.6764 H   0  0  0  0  0  0  0  0  0  0  0  0
   -1.4138    0.0292    2.3139 H   0  0  0  0  0  0  0  0  0  0  0  0
   -2.6650    0.7181    1.1793 H   0  0  0  0  0  0  0  0  0  0  0  0
   -0.9608    1.3947    1.2823 H   0  0  0  0  0  0  0  0  0  0  0  0
    0.3317   -2.3634   -0.7625 H   0  0  0  0  0  0  0  0  0  0  0  0
    2.0269   -1.6253   -0.6823 H   0  0  0  0  0  0  0  0  0  0  0  0
    0.7769   -1.0720   -1.9052 H   0  0  0  0  0  0  0  0  0  0  0  0
    0.5259    1.9188   -0.0094 H   0  0  0  0  0  0  0  0  0  0  0  0
    1.9071    1.0562   -0.8647 H   0  0  0  0  0  0  0  0  0  0  0  0
    0.7220    0.5344    2.0488 H   0  0  0  0  0  0  0  0  0  0  0  0
    2.7437   -1.1942    1.9259 H   0  0  0  0  0  0  0  0  0  0  0  0
    3.1373    0.5457    2.0325 H   0  0  0  0  0  0  0  0  0  0  0  0
    3.2905   -0.2384    0.4466 H   0  0  0  0  0  0  0  0  0  0  0  0
  1  2  1  0
  2  3  1  0
  3  4  1  0
  3  5  1  0
  5  6  1  0
  5  7  1  0
  7  8  1  0
  8  9  1  0
  8  5  1  0
  1 10  1  0
  1 11  1  0
  1 12  1  0
  2 13  1  0
  2 14  1  0
  3 15  1  0
  4 16  1  0
  4 17  1  0
  4 18  1  0
  6 19  1  0
  6 20  1  0
  6 21  1  0
  7 22  1  0
  7 23  1  0
  8 24  1  0
  9 25  1  0
  9 26  1  0
  9 27  1  0
M  END
