
     RDKit          3D

 25 24  0  0  0  0  0  0  0  0999 V2000
    2.2599    0.8767    0.6972 C   0  0  0  0  0  0  0  0  0  0  0  0
    1.4880    1.0297   -0.5956 C   0  0  0  0  0  0  0  0  0  0  0  0
    0.6093   -0.1794   -0.8600 C   0  0  0  0  0  0  0  0  0  0  0  0
    1.4917   -1.2806   -0.9363 O   0  0  0  0  0  0  0  0  0  0  0  0
   -0.3356   -0.4559    0.2580 C   0  0  0  0  0  0  0  0  0  0  0  0
   -1.2875    0.6563    0.5597 C   0  0  0  0  0  0  0  0  0  0  0  0
   -2.1716    1.0143   -0.6070 C   0  0  0  0  0  0  0  0  0  0  0  0
   -1.1783   -1.6643   -0.1562 C   0  0  0  0  0  0  0  0  0  0  0  0
   -0.2929   -2.7086   -0.3590 O   0  0  0  0  0  0  0  0  0  0  0  0
    1.5201    0.8866    1.5339 H   0  0  0  0  0  0  0  0  0  0  0  0
    2.8970   -0.0341    0.7050 H   0  0  0  0  0  0  0  0  0  0  0  0
    2.8711    1.8063    0.8040 H   0  0  0  0  0  0  0  0  0  0  0  0
    0.8941    1.9529   -0.5102 H   0  0  0  0  0  0  0  0  0  0  0  0
    2.2406    1.1394   -1.4004 H   0  0  0  0  0  0  0  0  0  0  0  0
    0.1351   -0.1217   -1.8605 H   0  0  0  0  0  0  0  0  0  0  0  0
    2.1348   -1.1801   -1.6750 H   0  0  0  0  0  0  0  0  0  0  0  0
    0.2488   -0.6658    1.1656 H   0  0  0  0  0  0  0  0  0  0  0  0
   -0.7394    1.5313    0.9567 H   0  0  0  0  0  0  0  0  0  0  0  0
   -1.9562    0.3137    1.3775 H   0  0  0  0  0  0  0  0  0  0  0  0
   -2.5579    2.0399   -0.4168 H   0  0  0  0  0  0  0  0  0  0  0  0
   -3.0515    0.3479   -0.6905 H   0  0  0  0  0  0  0  0  0  0  0  0
   -1.5874    1.0071   -1.5350 H   0  0  0  0  0  0  0  0  0  0  0  0
   -1.9108   -1.9344    0.6396 H   0  0  0  0  0  0  0  0  0  0  0  0
   -1.7243   -1.3705   -1.0701 H   0  0  0  0  0  0  0  0  0  0  0  0
    0.0030   -3.0067    0.5546 H   0  0  0  0  0  0  0  0  0  0  0  0
  1  2  1  0
  2  3  1  0
  3  4  1  0
  3  5  1  0
  5  6  1  0
  6  7  1  0
  5  8  1  0
  8  9  1  0
  1 10  1  0
  1 11  1  0
  1 12  1  0
  2 13  1  0
  2 14  1  0
  3 15  1  0
  4 16  1  0
  5 17  1  0
  6 18  1  0
  6 19  1  0
  7 20  1  0
  7 21  1  0
  7 22  1  0
  8 23  1  0
  8 24  1  0
  9 25  1  0
M  END
