
     RDKit          3D

 27 27  0  0  0  0  0  0  0  0999 V2000
    1.9878    0.2247   -1.1816 C   0  0  0  0  0  0  0  0  0  0  0  0
    1.5601   -0.5622    0.0376 C   0  0  0  0  0  0  0  0  0  0  0  0
    0.2764   -0.0303    0.6327 C   0  0  0  0  0  0  0  0  0  0  0  0
    0.4977    1.4136    1.0377 C   0  0  0  0  0  0  0  0  0  0  0  0
    0.0115   -0.7843    1.9182 C   0  0  0  0  0  0  0  0  0  0  0  0
   -0.8624   -0.1617   -0.3522 C   0  0  0  0  0  0  0  0  0  0  0  0
   -1.1738   -1.5741   -0.8036 C   0  0  0  0  0  0  0  0  0  0  0  0
   -1.1546    0.9493   -1.3036 C   0  0  0  0  0  0  0  0  0  0  0  0
   -2.0905    0.6934   -0.1608 C   0  0  0  0  0  0  0  0  0  0  0  0
    2.4677    1.1831   -0.9339 H   0  0  0  0  0  0  0  0  0  0  0  0
    2.7876   -0.4005   -1.6776 H   0  0  0  0  0  0  0  0  0  0  0  0
    1.1774    0.2976   -1.9202 H   0  0  0  0  0  0  0  0  0  0  0  0
    2.3791   -0.5377    0.7836 H   0  0  0  0  0  0  0  0  0  0  0  0
    1.4674   -1.6177   -0.2842 H   0  0  0  0  0  0  0  0  0  0  0  0
    0.9145    2.0271    0.2212 H   0  0  0  0  0  0  0  0  0  0  0  0
    1.3126    1.3785    1.8213 H   0  0  0  0  0  0  0  0  0  0  0  0
   -0.3688    1.8579    1.5366 H   0  0  0  0  0  0  0  0  0  0  0  0
   -0.8369   -0.3122    2.4857 H   0  0  0  0  0  0  0  0  0  0  0  0
    0.9225   -0.6588    2.5457 H   0  0  0  0  0  0  0  0  0  0  0  0
   -0.1453   -1.8568    1.7683 H   0  0  0  0  0  0  0  0  0  0  0  0
   -1.1502   -2.2854    0.0442 H   0  0  0  0  0  0  0  0  0  0  0  0
   -2.2237   -1.6479   -1.2144 H   0  0  0  0  0  0  0  0  0  0  0  0
   -0.5146   -1.8869   -1.6440 H   0  0  0  0  0  0  0  0  0  0  0  0
   -1.4792    0.7455   -2.3440 H   0  0  0  0  0  0  0  0  0  0  0  0
   -0.5162    1.8480   -1.2220 H   0  0  0  0  0  0  0  0  0  0  0  0
   -3.0966    0.2661   -0.4284 H   0  0  0  0  0  0  0  0  0  0  0  0
   -2.1497    1.4317    0.6377 H   0  0  0  0  0  0  0  0  0  0  0  0
  1  2  1  0
  2  3  1  0
  3  4  1  0
  3  5  1  0
  3  6  1  0
  6  7  1  0
  6  8  1  0
  8  9  1  0
  9  6  1  0
  1 10  1  0
  1 11  1  0
  1 12  1  0
  2 13  1  0
  2 14  1  0
  4 15  1  0
  4 16  1  0
  4 17  1  0
  5 18  1  0
  5 19  1  0
  5 20  1  0
  7 21  1  0
  7 22  1  0
  7 23  1  0
  8 24  1  0
  8 25  1  0
  9 26  1  0
  9 27  1  0
M  END
