
     RDKit          3D

 19 20  0  0  0  0  0  0  0  0999 V2000
   -2.9750    0.2549   -0.1571 C   0  0  0  0  0  0  0  0  0  0  0  0
   -1.6185   -0.0288   -0.7188 C   0  0  0  0  0  0  0  0  0  0  0  0
   -0.5401    0.1167    0.3056 C   0  0  0  0  0  0  0  0  0  0  0  0
   -0.9242    0.4434    1.4410 O   0  0  0  0  0  0  0  0  0  0  0  0
    0.7771   -0.0902    0.0323 C   0  0  0  0  0  0  0  0  0  0  0  0
    1.8788    0.9262    0.1832 C   0  0  0  0  0  0  0  0  0  0  0  0
    2.4863   -0.3367   -0.3187 C   0  0  0  0  0  0  0  0  0  0  0  0
    1.6921   -1.0714    0.7092 C   0  0  0  0  0  0  0  0  0  0  0  0
    1.3572   -0.4484   -1.1466 O   0  0  0  0  0  0  0  0  0  0  0  0
   -3.1337    1.3654   -0.1594 H   0  0  0  0  0  0  0  0  0  0  0  0
   -3.7829   -0.2061   -0.7198 H   0  0  0  0  0  0  0  0  0  0  0  0
   -3.0122   -0.0290    0.9309 H   0  0  0  0  0  0  0  0  0  0  0  0
   -1.4064    0.6603   -1.5716 H   0  0  0  0  0  0  0  0  0  0  0  0
   -1.6027   -1.0943   -1.0501 H   0  0  0  0  0  0  0  0  0  0  0  0
    2.1353    1.2391    1.1928 H   0  0  0  0  0  0  0  0  0  0  0  0
    1.7966    1.7577   -0.5473 H   0  0  0  0  0  0  0  0  0  0  0  0
    3.4365   -0.5046   -0.6065 H   0  0  0  0  0  0  0  0  0  0  0  0
    1.5583   -2.1261    0.4448 H   0  0  0  0  0  0  0  0  0  0  0  0
    1.8773   -0.8280    1.7562 H   0  0  0  0  0  0  0  0  0  0  0  0
  1  2  1  0
  2  3  1  0
  3  4  2  0
  3  5  1  0
  5  6  1  0
  6  7  1  0
  7  8  1  0
  7  9  1  0
  8  5  1  0
  9  5  1  0
  1 10  1  0
  1 11  1  0
  1 12  1  0
  2 13  1  0
  2 14  1  0
  6 15  1  0
  6 16  1  0
  7 17  1  0
  8 18  1  0
  8 19  1  0
M  END
