
     RDKit          3D

 20 19  0  0  0  0  0  0  0  0999 V2000
    2.3163    0.2691    0.3423 C   0  0  0  0  0  0  0  0  0  0  0  0
    1.1320   -0.5313   -0.0622 C   0  0  0  0  0  0  0  0  0  0  0  0
   -0.0801    0.2756   -0.4135 C   0  0  0  0  0  0  0  0  0  0  0  0
   -0.5783    1.1334    0.7083 C   0  0  0  0  0  0  0  0  0  0  0  0
   -1.7058    1.8235    0.2359 O   0  0  0  0  0  0  0  0  0  0  0  0
   -1.1864   -0.6682   -0.8225 C   0  0  0  0  0  0  0  0  0  0  0  0
   -1.5476   -1.6154    0.2665 C   0  0  0  0  0  0  0  0  0  0  0  0
   -2.4357   -2.4131    0.0143 O   0  0  0  0  0  0  0  0  0  0  0  0
    2.3130    0.4910    1.4294 H   0  0  0  0  0  0  0  0  0  0  0  0
    2.4485    1.2022   -0.2741 H   0  0  0  0  0  0  0  0  0  0  0  0
    3.2563   -0.3184    0.1664 H   0  0  0  0  0  0  0  0  0  0  0  0
    1.3860   -1.1519   -0.9485 H   0  0  0  0  0  0  0  0  0  0  0  0
    0.8908   -1.2399    0.7554 H   0  0  0  0  0  0  0  0  0  0  0  0
    0.1444    0.9063   -1.2983 H   0  0  0  0  0  0  0  0  0  0  0  0
    0.1414    1.8707    1.0715 H   0  0  0  0  0  0  0  0  0  0  0  0
   -0.9258    0.4983    1.5515 H   0  0  0  0  0  0  0  0  0  0  0  0
   -1.5097    2.3263   -0.5947 H   0  0  0  0  0  0  0  0  0  0  0  0
   -0.9015   -1.2170   -1.7278 H   0  0  0  0  0  0  0  0  0  0  0  0
   -2.0968   -0.0239   -0.9904 H   0  0  0  0  0  0  0  0  0  0  0  0
   -1.0608   -1.6172    1.2447 H   0  0  0  0  0  0  0  0  0  0  0  0
  1  2  1  0
  2  3  1  0
  3  4  1  0
  4  5  1  0
  3  6  1  0
  6  7  1  0
  7  8  2  0
  1  9  1  0
  1 10  1  0
  1 11  1  0
  2 12  1  0
  2 13  1  0
  3 14  1  0
  4 15  1  0
  4 16  1  0
  5 17  1  0
  6 18  1  0
  6 19  1  0
  7 20  1  0
M  END
