
     RDKit          3D

 27 26  0  0  0  0  0  0  0  0999 V2000
   -1.6147    1.7778   -0.1248 C   0  0  0  0  0  0  0  0  0  0  0  0
   -1.4927    0.3457   -0.6029 C   0  0  0  0  0  0  0  0  0  0  0  0
   -0.7301   -0.5110    0.3803 C   0  0  0  0  0  0  0  0  0  0  0  0
   -1.4914   -0.4823    1.6977 C   0  0  0  0  0  0  0  0  0  0  0  0
   -0.7989   -1.9381   -0.1240 C   0  0  0  0  0  0  0  0  0  0  0  0
    0.5364   -0.0693    0.6246 O   0  0  0  0  0  0  0  0  0  0  0  0
    1.3681   -0.0055   -0.4620 C   0  0  0  0  0  0  0  0  0  0  0  0
    1.8692    1.4344   -0.5745 C   0  0  0  0  0  0  0  0  0  0  0  0
    2.5924   -0.8572   -0.1781 C   0  0  0  0  0  0  0  0  0  0  0  0
   -0.7526    1.9799    0.5378 H   0  0  0  0  0  0  0  0  0  0  0  0
   -1.5962    2.4678   -0.9938 H   0  0  0  0  0  0  0  0  0  0  0  0
   -2.5880    1.9457    0.3778 H   0  0  0  0  0  0  0  0  0  0  0  0
   -1.0276    0.3717   -1.5969 H   0  0  0  0  0  0  0  0  0  0  0  0
   -2.5282   -0.0258   -0.7431 H   0  0  0  0  0  0  0  0  0  0  0  0
   -1.0498    0.2943    2.3523 H   0  0  0  0  0  0  0  0  0  0  0  0
   -2.5801   -0.3615    1.5478 H   0  0  0  0  0  0  0  0  0  0  0  0
   -1.3345   -1.4511    2.2378 H   0  0  0  0  0  0  0  0  0  0  0  0
   -0.8204   -1.9757   -1.2458 H   0  0  0  0  0  0  0  0  0  0  0  0
   -1.7447   -2.4467    0.2007 H   0  0  0  0  0  0  0  0  0  0  0  0
    0.0470   -2.5561    0.2004 H   0  0  0  0  0  0  0  0  0  0  0  0
    0.8818   -0.3287   -1.4026 H   0  0  0  0  0  0  0  0  0  0  0  0
    1.4427    1.9244   -1.4862 H   0  0  0  0  0  0  0  0  0  0  0  0
    1.6481    2.0148    0.3443 H   0  0  0  0  0  0  0  0  0  0  0  0
    2.9709    1.4734   -0.7106 H   0  0  0  0  0  0  0  0  0  0  0  0
    3.0954   -0.3702    0.7028 H   0  0  0  0  0  0  0  0  0  0  0  0
    2.3542   -1.8916    0.0535 H   0  0  0  0  0  0  0  0  0  0  0  0
    3.3437   -0.7592   -1.0124 H   0  0  0  0  0  0  0  0  0  0  0  0
  1  2  1  0
  2  3  1  0
  3  4  1  0
  3  5  1  0
  3  6  1  0
  6  7  1  0
  7  8  1  0
  7  9  1  0
  1 10  1  0
  1 11  1  0
  1 12  1  0
  2 13  1  0
  2 14  1  0
  4 15  1  0
  4 16  1  0
  4 17  1  0
  5 18  1  0
  5 19  1  0
  5 20  1  0
  7 21  1  0
  8 22  1  0
  8 23  1  0
  8 24  1  0
  9 25  1  0
  9 26  1  0
  9 27  1  0
M  END
