
     RDKit          3D

 23 24  0  0  0  0  0  0  0  0999 V2000
    1.8843   -0.8673   -0.6777 C   0  0  0  0  0  0  0  0  0  0  0  0
    1.5975   -0.5668    0.7604 C   0  0  0  0  0  0  0  0  0  0  0  0
    0.4799    0.4517    0.9488 C   0  0  0  0  0  0  0  0  0  0  0  0
    0.8168    1.7491    0.2966 C   0  0  0  0  0  0  0  0  0  0  0  0
   -0.8066   -0.1611    0.6316 C   0  0  0  0  0  0  0  0  0  0  0  0
   -1.1220   -0.7174   -0.6880 C   0  0  0  0  0  0  0  0  0  0  0  0
   -2.5706   -0.6523   -0.2865 C   0  0  0  0  0  0  0  0  0  0  0  0
   -1.9125    0.6572    0.0767 C   0  0  0  0  0  0  0  0  0  0  0  0
   -1.2873    0.5819   -1.1540 O   0  0  0  0  0  0  0  0  0  0  0  0
    2.9934   -0.8083   -0.8997 H   0  0  0  0  0  0  0  0  0  0  0  0
    1.6319   -1.9263   -0.8777 H   0  0  0  0  0  0  0  0  0  0  0  0
    1.3305   -0.1916   -1.3676 H   0  0  0  0  0  0  0  0  0  0  0  0
    1.3578   -1.5205    1.2764 H   0  0  0  0  0  0  0  0  0  0  0  0
    2.5339   -0.2113    1.2530 H   0  0  0  0  0  0  0  0  0  0  0  0
    0.4774    0.6764    2.0607 H   0  0  0  0  0  0  0  0  0  0  0  0
    1.9103    1.9354    0.4943 H   0  0  0  0  0  0  0  0  0  0  0  0
    0.2790    2.5708    0.7733 H   0  0  0  0  0  0  0  0  0  0  0  0
    0.7212    1.7446   -0.8058 H   0  0  0  0  0  0  0  0  0  0  0  0
   -1.1635   -0.8100    1.4619 H   0  0  0  0  0  0  0  0  0  0  0  0
   -0.6893   -1.4718   -1.2022 H   0  0  0  0  0  0  0  0  0  0  0  0
   -2.7838   -1.2912    0.5928 H   0  0  0  0  0  0  0  0  0  0  0  0
   -3.3043   -0.6268   -1.0860 H   0  0  0  0  0  0  0  0  0  0  0  0
   -2.3739    1.4554    0.4837 H   0  0  0  0  0  0  0  0  0  0  0  0
  1  2  1  0
  2  3  1  0
  3  4  1  0
  3  5  1  0
  5  6  1  0
  6  7  1  0
  7  8  1  0
  8  9  1  0
  8  5  1  0
  9  6  1  0
  1 10  1  0
  1 11  1  0
  1 12  1  0
  2 13  1  0
  2 14  1  0
  3 15  1  0
  4 16  1  0
  4 17  1  0
  4 18  1  0
  5 19  1  0
  6 20  1  0
  7 21  1  0
  7 22  1  0
  8 23  1  0
M  END
