
     RDKit          3D

 24 23  0  0  0  0  0  0  0  0999 V2000
    2.2003   -0.8257   -0.7766 C   0  0  0  0  0  0  0  0  0  0  0  0
    1.2330    0.3105   -1.1214 C   0  0  0  0  0  0  0  0  0  0  0  0
    0.3001    0.4525    0.0543 C   0  0  0  0  0  0  0  0  0  0  0  0
   -0.6367    1.4413   -0.1033 O   0  0  0  0  0  0  0  0  0  0  0  0
   -0.5684    2.4430    0.8505 C   0  0  0  0  0  0  0  0  0  0  0  0
   -0.3911   -0.8721    0.2486 C   0  0  0  0  0  0  0  0  0  0  0  0
   -1.3482   -0.8132    1.4136 C   0  0  0  0  0  0  0  0  0  0  0  0
   -1.2122   -1.1948   -0.9861 C   0  0  0  0  0  0  0  0  0  0  0  0
    1.7901   -1.8003   -1.1145 H   0  0  0  0  0  0  0  0  0  0  0  0
    3.1923   -0.6749   -1.2183 H   0  0  0  0  0  0  0  0  0  0  0  0
    2.3173   -0.8933    0.3427 H   0  0  0  0  0  0  0  0  0  0  0  0
    0.7303    0.0136   -2.0528 H   0  0  0  0  0  0  0  0  0  0  0  0
    1.8665    1.2190   -1.2594 H   0  0  0  0  0  0  0  0  0  0  0  0
    0.9290    0.6809    0.9433 H   0  0  0  0  0  0  0  0  0  0  0  0
   -1.3678    3.1775    0.6202 H   0  0  0  0  0  0  0  0  0  0  0  0
   -0.7527    2.0867    1.8753 H   0  0  0  0  0  0  0  0  0  0  0  0
    0.4098    2.9477    0.7319 H   0  0  0  0  0  0  0  0  0  0  0  0
    0.3317   -1.7079    0.3772 H   0  0  0  0  0  0  0  0  0  0  0  0
   -1.9069   -1.7616    1.4751 H   0  0  0  0  0  0  0  0  0  0  0  0
   -2.0904   -0.0243    1.1795 H   0  0  0  0  0  0  0  0  0  0  0  0
   -0.8639   -0.5244    2.3564 H   0  0  0  0  0  0  0  0  0  0  0  0
   -0.5239   -1.5661   -1.7476 H   0  0  0  0  0  0  0  0  0  0  0  0
   -2.0235   -1.9073   -0.7396 H   0  0  0  0  0  0  0  0  0  0  0  0
   -1.6146   -0.2070   -1.3491 H   0  0  0  0  0  0  0  0  0  0  0  0
  1  2  1  0
  2  3  1  0
  3  4  1  0
  4  5  1  0
  3  6  1  0
  6  7  1  0
  6  8  1  0
  1  9  1  0
  1 10  1  0
  1 11  1  0
  2 12  1  0
  2 13  1  0
  3 14  1  0
  5 15  1  0
  5 16  1  0
  5 17  1  0
  6 18  1  0
  7 19  1  0
  7 20  1  0
  7 21  1  0
  8 22  1  0
  8 23  1  0
  8 24  1  0
M  END
