
     RDKit          3D

 19 18  0  0  0  0  0  0  0  0999 V2000
   -3.3112    0.7740    0.0599 C   0  0  0  0  0  0  0  0  0  0  0  0
   -2.2805   -0.3219    0.4021 C   0  0  0  0  0  0  0  0  0  0  0  0
   -1.4882   -0.4929   -0.8505 C   0  0  0  0  0  0  0  0  0  0  0  0
   -2.1355   -0.6932   -1.9070 O   0  0  0  0  0  0  0  0  0  0  0  0
   -0.0601   -0.4176   -0.7902 C   0  0  0  0  0  0  0  0  0  0  0  0
    1.1393   -0.3741   -0.7466 C   0  0  0  0  0  0  0  0  0  0  0  0
    2.6071   -0.3000   -0.6979 C   0  0  0  0  0  0  0  0  0  0  0  0
    3.0716    0.4004    0.5606 C   0  0  0  0  0  0  0  0  0  0  0  0
    2.6768   -0.2272    1.7209 O   0  0  0  0  0  0  0  0  0  0  0  0
   -2.7175    1.7276   -0.0068 H   0  0  0  0  0  0  0  0  0  0  0  0
   -4.1051    0.8227    0.8426 H   0  0  0  0  0  0  0  0  0  0  0  0
   -3.7361    0.4726   -0.9191 H   0  0  0  0  0  0  0  0  0  0  0  0
   -1.6882   -0.0789    1.2838 H   0  0  0  0  0  0  0  0  0  0  0  0
   -2.9054   -1.2531    0.5597 H   0  0  0  0  0  0  0  0  0  0  0  0
    3.0458   -1.3106   -0.7675 H   0  0  0  0  0  0  0  0  0  0  0  0
    3.0021    0.2921   -1.5555 H   0  0  0  0  0  0  0  0  0  0  0  0
    2.7031    1.4517    0.6022 H   0  0  0  0  0  0  0  0  0  0  0  0
    4.1765    0.4516    0.5749 H   0  0  0  0  0  0  0  0  0  0  0  0
    2.0057   -0.9231    1.6343 H   0  0  0  0  0  0  0  0  0  0  0  0
  1  2  1  0
  2  3  1  0
  3  4  2  0
  3  5  1  0
  5  6  3  0
  6  7  1  0
  7  8  1  0
  8  9  1  0
  1 10  1  0
  1 11  1  0
  1 12  1  0
  2 13  1  0
  2 14  1  0
  7 15  1  0
  7 16  1  0
  8 17  1  0
  8 18  1  0
  9 19  1  0
M  END
