
     RDKit          3D

 23 22  0  0  0  0  0  0  0  0999 V2000
    2.7918    0.9607    0.3993 C   0  0  0  0  0  0  0  0  0  0  0  0
    1.9211    0.0882   -0.4830 C   0  0  0  0  0  0  0  0  0  0  0  0
    0.5579   -0.0019    0.1668 C   0  0  0  0  0  0  0  0  0  0  0  0
    0.7359   -0.5690    1.4253 O   0  0  0  0  0  0  0  0  0  0  0  0
   -0.4113   -0.7987   -0.6773 C   0  0  0  0  0  0  0  0  0  0  0  0
   -0.5255   -0.1600   -1.9101 O   0  0  0  0  0  0  0  0  0  0  0  0
   -1.7736   -0.7006    0.0090 C   0  0  0  0  0  0  0  0  0  0  0  0
   -2.1166    0.7152    0.3521 C   0  0  0  0  0  0  0  0  0  0  0  0
   -2.6992   -1.3244   -0.7931 O   0  0  0  0  0  0  0  0  0  0  0  0
    2.9467    1.9108   -0.1583 H   0  0  0  0  0  0  0  0  0  0  0  0
    2.2797    1.2226    1.3489 H   0  0  0  0  0  0  0  0  0  0  0  0
    3.7372    0.4664    0.6689 H   0  0  0  0  0  0  0  0  0  0  0  0
    1.8687    0.4480   -1.5164 H   0  0  0  0  0  0  0  0  0  0  0  0
    2.3711   -0.9391   -0.4761 H   0  0  0  0  0  0  0  0  0  0  0  0
    0.1870    1.0138    0.3004 H   0  0  0  0  0  0  0  0  0  0  0  0
    0.5179   -1.5417    1.3645 H   0  0  0  0  0  0  0  0  0  0  0  0
   -0.0955   -1.8458   -0.7969 H   0  0  0  0  0  0  0  0  0  0  0  0
   -0.3801    0.8216   -1.7465 H   0  0  0  0  0  0  0  0  0  0  0  0
   -1.7540   -1.2704    0.9805 H   0  0  0  0  0  0  0  0  0  0  0  0
   -1.6156    1.0419    1.2818 H   0  0  0  0  0  0  0  0  0  0  0  0
   -1.9036    1.4389   -0.4586 H   0  0  0  0  0  0  0  0  0  0  0  0
   -3.2221    0.7342    0.5717 H   0  0  0  0  0  0  0  0  0  0  0  0
   -3.4179   -1.7108   -0.2538 H   0  0  0  0  0  0  0  0  0  0  0  0
  1  2  1  0
  2  3  1  0
  3  4  1  0
  3  5  1  0
  5  6  1  0
  5  7  1  0
  7  8  1  0
  7  9  1  0
  1 10  1  0
  1 11  1  0
  1 12  1  0
  2 13  1  0
  2 14  1  0
  3 15  1  0
  4 16  1  0
  5 17  1  0
  6 18  1  0
  7 19  1  0
  8 20  1  0
  8 21  1  0
  8 22  1  0
  9 23  1  0
M  END
