
     RDKit          3D

 25 25  0  0  0  0  0  0  0  0999 V2000
   -2.7655   -0.4851   -1.0186 C   0  0  0  0  0  0  0  0  0  0  0  0
   -1.2717   -0.5816   -1.2405 C   0  0  0  0  0  0  0  0  0  0  0  0
   -0.5246    0.0623   -0.0921 C   0  0  0  0  0  0  0  0  0  0  0  0
   -0.9244    1.3986   -0.0511 O   0  0  0  0  0  0  0  0  0  0  0  0
   -1.6169    1.7157    1.0961 C   0  0  0  0  0  0  0  0  0  0  0  0
    0.9538    0.0313   -0.2661 C   0  0  0  0  0  0  0  0  0  0  0  0
    1.7311    0.6692    0.8689 C   0  0  0  0  0  0  0  0  0  0  0  0
    1.8579   -0.7896    0.5386 C   0  0  0  0  0  0  0  0  0  0  0  0
    3.1829   -1.1710   -0.0884 C   0  0  0  0  0  0  0  0  0  0  0  0
   -3.0809    0.5797   -1.1038 H   0  0  0  0  0  0  0  0  0  0  0  0
   -3.2791   -1.1426   -1.7480 H   0  0  0  0  0  0  0  0  0  0  0  0
   -2.9932   -0.8974   -0.0160 H   0  0  0  0  0  0  0  0  0  0  0  0
   -1.0461    0.0221   -2.1476 H   0  0  0  0  0  0  0  0  0  0  0  0
   -1.0199   -1.6542   -1.3614 H   0  0  0  0  0  0  0  0  0  0  0  0
   -0.8699   -0.4354    0.8359 H   0  0  0  0  0  0  0  0  0  0  0  0
   -1.8880    2.7870    1.0350 H   0  0  0  0  0  0  0  0  0  0  0  0
   -2.5706    1.1418    1.1769 H   0  0  0  0  0  0  0  0  0  0  0  0
   -1.0604    1.5164    2.0238 H   0  0  0  0  0  0  0  0  0  0  0  0
    1.2916    0.2993   -1.3073 H   0  0  0  0  0  0  0  0  0  0  0  0
    1.2428    0.8755    1.8282 H   0  0  0  0  0  0  0  0  0  0  0  0
    2.5243    1.3742    0.5650 H   0  0  0  0  0  0  0  0  0  0  0  0
    1.5026   -1.5351    1.2760 H   0  0  0  0  0  0  0  0  0  0  0  0
    4.0084   -0.5595    0.3074 H   0  0  0  0  0  0  0  0  0  0  0  0
    3.4464   -2.2277    0.0860 H   0  0  0  0  0  0  0  0  0  0  0  0
    3.1695   -0.9937   -1.1972 H   0  0  0  0  0  0  0  0  0  0  0  0
  1  2  1  0
  2  3  1  0
  3  4  1  0
  4  5  1  0
  3  6  1  0
  6  7  1  0
  7  8  1  0
  8  9  1  0
  8  6  1  0
  1 10  1  0
  1 11  1  0
  1 12  1  0
  2 13  1  0
  2 14  1  0
  3 15  1  0
  5 16  1  0
  5 17  1  0
  5 18  1  0
  6 19  1  0
  7 20  1  0
  7 21  1  0
  8 22  1  0
  9 23  1  0
  9 24  1  0
  9 25  1  0
M  END
