
     RDKit          3D

 23 23  0  0  0  0  0  0  0  0999 V2000
   -2.5994    1.0201   -0.0377 C   0  0  0  0  0  0  0  0  0  0  0  0
   -2.2476   -0.4030    0.2280 C   0  0  0  0  0  0  0  0  0  0  0  0
   -0.8110   -0.7447   -0.0597 C   0  0  0  0  0  0  0  0  0  0  0  0
   -0.6537   -2.1108    0.2423 O   0  0  0  0  0  0  0  0  0  0  0  0
    0.1654    0.0060    0.7935 C   0  0  0  0  0  0  0  0  0  0  0  0
    1.5523   -0.4645    0.3659 C   0  0  0  0  0  0  0  0  0  0  0  0
    1.8288   -0.1821   -1.1081 C   0  0  0  0  0  0  0  0  0  0  0  0
    2.5979    0.4774   -0.0039 C   0  0  0  0  0  0  0  0  0  0  0  0
    2.4826    1.8482    0.2071 O   0  0  0  0  0  0  0  0  0  0  0  0
   -3.6912    1.0548   -0.3153 H   0  0  0  0  0  0  0  0  0  0  0  0
   -2.4609    1.6303    0.8633 H   0  0  0  0  0  0  0  0  0  0  0  0
   -2.0638    1.4167   -0.9179 H   0  0  0  0  0  0  0  0  0  0  0  0
   -2.8659   -1.0449   -0.4448 H   0  0  0  0  0  0  0  0  0  0  0  0
   -2.5033   -0.6992    1.2548 H   0  0  0  0  0  0  0  0  0  0  0  0
   -0.5607   -0.5431   -1.1188 H   0  0  0  0  0  0  0  0  0  0  0  0
   -0.4533   -2.6031   -0.5928 H   0  0  0  0  0  0  0  0  0  0  0  0
    0.0617    1.1141    0.6549 H   0  0  0  0  0  0  0  0  0  0  0  0
    0.0168   -0.1834    1.8805 H   0  0  0  0  0  0  0  0  0  0  0  0
    1.8327   -1.4450    0.7716 H   0  0  0  0  0  0  0  0  0  0  0  0
    1.1579    0.4761   -1.6661 H   0  0  0  0  0  0  0  0  0  0  0  0
    2.2920   -1.0036   -1.6966 H   0  0  0  0  0  0  0  0  0  0  0  0
    3.6532    0.1142    0.1005 H   0  0  0  0  0  0  0  0  0  0  0  0
    3.2694    2.2693   -0.2186 H   0  0  0  0  0  0  0  0  0  0  0  0
  1  2  1  0
  2  3  1  0
  3  4  1  0
  3  5  1  0
  5  6  1  0
  6  7  1  0
  7  8  1  0
  8  9  1  0
  8  6  1  0
  1 10  1  0
  1 11  1  0
  1 12  1  0
  2 13  1  0
  2 14  1  0
  3 15  1  0
  4 16  1  0
  5 17  1  0
  5 18  1  0
  6 19  1  0
  7 20  1  0
  7 21  1  0
  8 22  1  0
  9 23  1  0
M  END
