
     RDKit          3D

 23 23  0  0  0  0  0  0  0  0999 V2000
    3.3495   -0.0060   -0.0130 C   0  0  0  0  0  0  0  0  0  0  0  0
    2.0351   -0.1288    0.7673 C   0  0  0  0  0  0  0  0  0  0  0  0
    0.9895    0.6558    0.0539 C   0  0  0  0  0  0  0  0  0  0  0  0
    0.9780    1.8622    0.2299 O   0  0  0  0  0  0  0  0  0  0  0  0
   -0.0185    0.0684   -0.8398 C   0  0  0  0  0  0  0  0  0  0  0  0
   -1.3688   -0.1054   -0.2068 C   0  0  0  0  0  0  0  0  0  0  0  0
   -1.3889   -1.0085    1.0198 C   0  0  0  0  0  0  0  0  0  0  0  0
   -2.3390    1.0249   -0.1489 C   0  0  0  0  0  0  0  0  0  0  0  0
   -2.5255   -0.0717   -1.1272 C   0  0  0  0  0  0  0  0  0  0  0  0
    3.2770    0.6987   -0.8438 H   0  0  0  0  0  0  0  0  0  0  0  0
    4.1671    0.3122    0.6660 H   0  0  0  0  0  0  0  0  0  0  0  0
    3.5921   -1.0359   -0.3976 H   0  0  0  0  0  0  0  0  0  0  0  0
    2.1359    0.3354    1.7794 H   0  0  0  0  0  0  0  0  0  0  0  0
    1.7325   -1.1842    0.8985 H   0  0  0  0  0  0  0  0  0  0  0  0
   -0.1126    0.6219   -1.8097 H   0  0  0  0  0  0  0  0  0  0  0  0
    0.3482   -0.9521   -1.1328 H   0  0  0  0  0  0  0  0  0  0  0  0
   -1.1816   -0.3491    1.8906 H   0  0  0  0  0  0  0  0  0  0  0  0
   -2.4018   -1.4319    1.1923 H   0  0  0  0  0  0  0  0  0  0  0  0
   -0.6050   -1.7973    0.9568 H   0  0  0  0  0  0  0  0  0  0  0  0
   -3.0671    1.0736    0.6751 H   0  0  0  0  0  0  0  0  0  0  0  0
   -1.9204    2.0074   -0.4371 H   0  0  0  0  0  0  0  0  0  0  0  0
   -3.3362   -0.7955   -0.9865 H   0  0  0  0  0  0  0  0  0  0  0  0
   -2.3394    0.2059   -2.1863 H   0  0  0  0  0  0  0  0  0  0  0  0
  1  2  1  0
  2  3  1  0
  3  4  2  0
  3  5  1  0
  5  6  1  0
  6  7  1  0
  6  8  1  0
  8  9  1  0
  9  6  1  0
  1 10  1  0
  1 11  1  0
  1 12  1  0
  2 13  1  0
  2 14  1  0
  5 15  1  0
  5 16  1  0
  7 17  1  0
  7 18  1  0
  7 19  1  0
  8 20  1  0
  8 21  1  0
  9 22  1  0
  9 23  1  0
M  END
