
     RDKit          3D

 25 24  0  0  0  0  0  0  0  0999 V2000
    2.2383   -0.8306    0.3954 C   0  0  0  0  0  0  0  0  0  0  0  0
    1.4038   -0.4319   -0.7589 C   0  0  0  0  0  0  0  0  0  0  0  0
    0.0502    0.1096   -0.4677 C   0  0  0  0  0  0  0  0  0  0  0  0
   -0.5772    0.4296   -1.8378 C   0  0  0  0  0  0  0  0  0  0  0  0
    0.0206    1.4109    0.2752 C   0  0  0  0  0  0  0  0  0  0  0  0
    0.6079    1.4070    1.5082 O   0  0  0  0  0  0  0  0  0  0  0  0
   -0.8192   -0.8645    0.2916 C   0  0  0  0  0  0  0  0  0  0  0  0
   -2.1910   -0.2917    0.5733 C   0  0  0  0  0  0  0  0  0  0  0  0
   -0.2216   -1.0581    1.5376 O   0  0  0  0  0  0  0  0  0  0  0  0
    3.2733   -1.0503   -0.0074 H   0  0  0  0  0  0  0  0  0  0  0  0
    2.3650   -0.0593    1.1688 H   0  0  0  0  0  0  0  0  0  0  0  0
    1.8819   -1.7770    0.8480 H   0  0  0  0  0  0  0  0  0  0  0  0
    1.9119    0.2805   -1.4451 H   0  0  0  0  0  0  0  0  0  0  0  0
    1.2409   -1.3582   -1.3847 H   0  0  0  0  0  0  0  0  0  0  0  0
    0.2296    0.9454   -2.4038 H   0  0  0  0  0  0  0  0  0  0  0  0
   -0.8941   -0.4709   -2.3575 H   0  0  0  0  0  0  0  0  0  0  0  0
   -1.3858    1.1932   -1.7118 H   0  0  0  0  0  0  0  0  0  0  0  0
   -1.0552    1.6965    0.4218 H   0  0  0  0  0  0  0  0  0  0  0  0
    0.4581    2.2451   -0.3112 H   0  0  0  0  0  0  0  0  0  0  0  0
    0.8803    2.3386    1.7418 H   0  0  0  0  0  0  0  0  0  0  0  0
   -0.9226   -1.8217   -0.2379 H   0  0  0  0  0  0  0  0  0  0  0  0
   -2.2291    0.2560    1.5473 H   0  0  0  0  0  0  0  0  0  0  0  0
   -2.5392    0.4007   -0.1936 H   0  0  0  0  0  0  0  0  0  0  0  0
   -2.9501   -1.1190    0.6568 H   0  0  0  0  0  0  0  0  0  0  0  0
   -0.7766   -1.5800    2.1515 H   0  0  0  0  0  0  0  0  0  0  0  0
  1  2  1  0
  2  3  1  0
  3  4  1  0
  3  5  1  0
  5  6  1  0
  3  7  1  0
  7  8  1  0
  7  9  1  0
  1 10  1  0
  1 11  1  0
  1 12  1  0
  2 13  1  0
  2 14  1  0
  4 15  1  0
  4 16  1  0
  4 17  1  0
  5 18  1  0
  5 19  1  0
  6 20  1  0
  7 21  1  0
  8 22  1  0
  8 23  1  0
  8 24  1  0
  9 25  1  0
M  END
