
     RDKit          3D

 25 24  0  0  0  0  0  0  0  0999 V2000
    1.4476   -0.5832    1.9448 C   0  0  0  0  0  0  0  0  0  0  0  0
    2.0693   -0.5948    0.5817 C   0  0  0  0  0  0  0  0  0  0  0  0
    0.9753   -0.6646   -0.4733 C   0  0  0  0  0  0  0  0  0  0  0  0
    1.6914   -0.6722   -1.8207 C   0  0  0  0  0  0  0  0  0  0  0  0
    0.2174    0.4661   -0.2928 O   0  0  0  0  0  0  0  0  0  0  0  0
   -1.0897    0.2949    0.0097 C   0  0  0  0  0  0  0  0  0  0  0  0
   -1.5720    0.9190    1.2749 C   0  0  0  0  0  0  0  0  0  0  0  0
   -1.9434    0.8670   -1.1284 C   0  0  0  0  0  0  0  0  0  0  0  0
   -3.3027    0.7132   -0.8612 O   0  0  0  0  0  0  0  0  0  0  0  0
    1.1696    0.4145    2.3110 H   0  0  0  0  0  0  0  0  0  0  0  0
    2.1964   -0.9998    2.6540 H   0  0  0  0  0  0  0  0  0  0  0  0
    0.5117   -1.1960    1.9362 H   0  0  0  0  0  0  0  0  0  0  0  0
    2.8213   -1.3903    0.4488 H   0  0  0  0  0  0  0  0  0  0  0  0
    2.5703    0.3916    0.4377 H   0  0  0  0  0  0  0  0  0  0  0  0
    0.4278   -1.6139   -0.3502 H   0  0  0  0  0  0  0  0  0  0  0  0
    1.6748    0.3425   -2.2793 H   0  0  0  0  0  0  0  0  0  0  0  0
    2.7690   -0.9336   -1.7099 H   0  0  0  0  0  0  0  0  0  0  0  0
    1.2635   -1.4426   -2.5017 H   0  0  0  0  0  0  0  0  0  0  0  0
   -1.3158   -0.7907    0.0575 H   0  0  0  0  0  0  0  0  0  0  0  0
   -2.6950    0.9715    1.2067 H   0  0  0  0  0  0  0  0  0  0  0  0
   -1.2438    1.9705    1.4051 H   0  0  0  0  0  0  0  0  0  0  0  0
   -1.3663    0.2832    2.1479 H   0  0  0  0  0  0  0  0  0  0  0  0
   -1.7148    0.4091   -2.0907 H   0  0  0  0  0  0  0  0  0  0  0  0
   -1.7725    1.9694   -1.2170 H   0  0  0  0  0  0  0  0  0  0  0  0
   -3.7895    0.8693   -1.6907 H   0  0  0  0  0  0  0  0  0  0  0  0
  1  2  1  0
  2  3  1  0
  3  4  1  0
  3  5  1  0
  5  6  1  0
  6  7  1  0
  6  8  1  0
  8  9  1  0
  1 10  1  0
  1 11  1  0
  1 12  1  0
  2 13  1  0
  2 14  1  0
  3 15  1  0
  4 16  1  0
  4 17  1  0
  4 18  1  0
  6 19  1  0
  7 20  1  0
  7 21  1  0
  7 22  1  0
  8 23  1  0
  8 24  1  0
  9 25  1  0
M  END
