
     RDKit          3D

 19 18  0  0  0  0  0  0  0  0999 V2000
   -4.0614   -0.5952   -0.5420 C   0  0  0  0  0  0  0  0  0  0  0  0
   -2.7413    0.0787   -0.3220 C   0  0  0  0  0  0  0  0  0  0  0  0
   -1.6052   -0.8580   -0.3127 C   0  0  0  0  0  0  0  0  0  0  0  0
   -1.8441   -2.0812   -0.4832 O   0  0  0  0  0  0  0  0  0  0  0  0
   -0.2904   -0.3220   -0.1097 C   0  0  0  0  0  0  0  0  0  0  0  0
    0.8147    0.1274    0.0734 C   0  0  0  0  0  0  0  0  0  0  0  0
    2.1452    0.6844    0.3045 C   0  0  0  0  0  0  0  0  0  0  0  0
    3.0843   -0.1366   -0.2800 O   0  0  0  0  0  0  0  0  0  0  0  0
    4.3790    0.2934   -0.1240 C   0  0  0  0  0  0  0  0  0  0  0  0
   -3.9847   -1.3840   -1.3035 H   0  0  0  0  0  0  0  0  0  0  0  0
   -4.7786    0.1857   -0.8820 H   0  0  0  0  0  0  0  0  0  0  0  0
   -4.4736   -0.9819    0.4206 H   0  0  0  0  0  0  0  0  0  0  0  0
   -2.7691    0.5743    0.6707 H   0  0  0  0  0  0  0  0  0  0  0  0
   -2.5818    0.7985   -1.1479 H   0  0  0  0  0  0  0  0  0  0  0  0
    2.1529    1.7129   -0.1171 H   0  0  0  0  0  0  0  0  0  0  0  0
    2.3155    0.7828    1.3824 H   0  0  0  0  0  0  0  0  0  0  0  0
    5.0477   -0.4343   -0.6284 H   0  0  0  0  0  0  0  0  0  0  0  0
    4.6171    0.2496    0.9706 H   0  0  0  0  0  0  0  0  0  0  0  0
    4.5738    1.3057   -0.5259 H   0  0  0  0  0  0  0  0  0  0  0  0
  1  2  1  0
  2  3  1  0
  3  4  2  0
  3  5  1  0
  5  6  3  0
  6  7  1  0
  7  8  1  0
  8  9  1  0
  1 10  1  0
  1 11  1  0
  1 12  1  0
  2 13  1  0
  2 14  1  0
  7 15  1  0
  7 16  1  0
  9 17  1  0
  9 18  1  0
  9 19  1  0
M  END
