
     RDKit          3D

 23 23  0  0  0  0  0  0  0  0999 V2000
    2.8476    0.0741   -0.7202 C   0  0  0  0  0  0  0  0  0  0  0  0
    1.3597    0.4310   -0.5981 C   0  0  0  0  0  0  0  0  0  0  0  0
    0.8695   -0.2378    0.6521 C   0  0  0  0  0  0  0  0  0  0  0  0
    1.6884    0.3055    1.6962 O   0  0  0  0  0  0  0  0  0  0  0  0
   -0.5149    0.0757    1.0792 C   0  0  0  0  0  0  0  0  0  0  0  0
   -1.6417   -0.2350    0.1832 C   0  0  0  0  0  0  0  0  0  0  0  0
   -1.6940    0.4395   -1.1690 C   0  0  0  0  0  0  0  0  0  0  0  0
   -2.5929   -1.3068    0.4023 C   0  0  0  0  0  0  0  0  0  0  0  0
   -2.9323   -0.0433    0.8995 O   0  0  0  0  0  0  0  0  0  0  0  0
    3.3748    0.9388   -1.1968 H   0  0  0  0  0  0  0  0  0  0  0  0
    2.9904   -0.7847   -1.4076 H   0  0  0  0  0  0  0  0  0  0  0  0
    3.3021   -0.1091    0.2694 H   0  0  0  0  0  0  0  0  0  0  0  0
    0.8380    0.0765   -1.5171 H   0  0  0  0  0  0  0  0  0  0  0  0
    1.2916    1.5138   -0.5367 H   0  0  0  0  0  0  0  0  0  0  0  0
    1.1092   -1.3182    0.6558 H   0  0  0  0  0  0  0  0  0  0  0  0
    1.7199    1.2967    1.5806 H   0  0  0  0  0  0  0  0  0  0  0  0
   -0.6299   -0.3631    2.1119 H   0  0  0  0  0  0  0  0  0  0  0  0
   -0.5157    1.1920    1.3052 H   0  0  0  0  0  0  0  0  0  0  0  0
   -2.7437    0.7426   -1.4206 H   0  0  0  0  0  0  0  0  0  0  0  0
   -1.4184   -0.3001   -1.9721 H   0  0  0  0  0  0  0  0  0  0  0  0
   -1.0960    1.3533   -1.2431 H   0  0  0  0  0  0  0  0  0  0  0  0
   -3.2169   -1.6297   -0.4539 H   0  0  0  0  0  0  0  0  0  0  0  0
   -2.3948   -2.1117    1.1366 H   0  0  0  0  0  0  0  0  0  0  0  0
  1  2  1  0
  2  3  1  0
  3  4  1  0
  3  5  1  0
  5  6  1  0
  6  7  1  0
  6  8  1  0
  8  9  1  0
  9  6  1  0
  1 10  1  0
  1 11  1  0
  1 12  1  0
  2 13  1  0
  2 14  1  0
  3 15  1  0
  4 16  1  0
  5 17  1  0
  5 18  1  0
  7 19  1  0
  7 20  1  0
  7 21  1  0
  8 22  1  0
  8 23  1  0
M  END
