
     RDKit          3D

 22 21  0  0  0  0  0  0  0  0999 V2000
    0.9620    1.9028   -0.3582 C   0  0  0  0  0  0  0  0  0  0  0  0
    1.0025    0.4309   -0.6779 C   0  0  0  0  0  0  0  0  0  0  0  0
    0.2321   -0.3489    0.3358 C   0  0  0  0  0  0  0  0  0  0  0  0
    0.7767   -0.1338    1.6052 O   0  0  0  0  0  0  0  0  0  0  0  0
   -1.2394   -0.2240    0.3028 C   0  0  0  0  0  0  0  0  0  0  0  0
   -1.8515    1.1023    0.5013 C   0  0  0  0  0  0  0  0  0  0  0  0
    0.5219   -1.8470    0.0443 C   0  0  0  0  0  0  0  0  0  0  0  0
   -0.0901   -2.6270    1.0149 O   0  0  0  0  0  0  0  0  0  0  0  0
    1.8618    2.3872   -0.8208 H   0  0  0  0  0  0  0  0  0  0  0  0
    0.0554    2.3773   -0.7531 H   0  0  0  0  0  0  0  0  0  0  0  0
    0.9983    2.1121    0.7379 H   0  0  0  0  0  0  0  0  0  0  0  0
    2.0741    0.1284   -0.7303 H   0  0  0  0  0  0  0  0  0  0  0  0
    0.5542    0.3137   -1.7077 H   0  0  0  0  0  0  0  0  0  0  0  0
    1.5550   -0.7448    1.7686 H   0  0  0  0  0  0  0  0  0  0  0  0
   -1.6248   -0.9322    1.1007 H   0  0  0  0  0  0  0  0  0  0  0  0
   -1.6286   -0.6459   -0.6686 H   0  0  0  0  0  0  0  0  0  0  0  0
   -2.1605    1.5726   -0.4796 H   0  0  0  0  0  0  0  0  0  0  0  0
   -2.8591    0.9593    1.0122 H   0  0  0  0  0  0  0  0  0  0  0  0
   -1.3259    1.8270    1.1159 H   0  0  0  0  0  0  0  0  0  0  0  0
    1.6061   -2.0345    0.1046 H   0  0  0  0  0  0  0  0  0  0  0  0
    0.1407   -2.1194   -0.9587 H   0  0  0  0  0  0  0  0  0  0  0  0
    0.4390   -3.4558    1.1314 H   0  0  0  0  0  0  0  0  0  0  0  0
  1  2  1  0
  2  3  1  0
  3  4  1  0
  3  5  1  0
  5  6  1  0
  3  7  1  0
  7  8  1  0
  1  9  1  0
  1 10  1  0
  1 11  1  0
  2 12  1  0
  2 13  1  0
  4 14  1  0
  5 15  1  0
  5 16  1  0
  6 17  1  0
  6 18  1  0
  6 19  1  0
  7 20  1  0
  7 21  1  0
  8 22  1  0
M  END
