
     RDKit          3D

 21 20  0  0  0  0  0  0  0  0999 V2000
   -2.6237   -0.8953   -0.3184 C   0  0  0  0  0  0  0  0  0  0  0  0
   -1.2348   -0.9036    0.2874 C   0  0  0  0  0  0  0  0  0  0  0  0
   -0.2560   -0.2907   -0.6572 C   0  0  0  0  0  0  0  0  0  0  0  0
   -0.5717    1.1389   -1.0104 C   0  0  0  0  0  0  0  0  0  0  0  0
   -0.5948    1.9780    0.0703 O   0  0  0  0  0  0  0  0  0  0  0  0
    1.0863   -0.3145   -0.0306 C   0  0  0  0  0  0  0  0  0  0  0  0
    1.2656   -0.7964    1.1178 O   0  0  0  0  0  0  0  0  0  0  0  0
    2.1892    0.2093   -0.7240 O   0  0  0  0  0  0  0  0  0  0  0  0
    3.4439    0.1622   -0.0830 C   0  0  0  0  0  0  0  0  0  0  0  0
   -2.9690    0.1551   -0.3199 H   0  0  0  0  0  0  0  0  0  0  0  0
   -3.2916   -1.5715    0.2478 H   0  0  0  0  0  0  0  0  0  0  0  0
   -2.5081   -1.2961   -1.3647 H   0  0  0  0  0  0  0  0  0  0  0  0
   -1.2205   -0.4557    1.2987 H   0  0  0  0  0  0  0  0  0  0  0  0
   -0.9558   -1.9708    0.4154 H   0  0  0  0  0  0  0  0  0  0  0  0
   -0.2348   -0.9016   -1.5752 H   0  0  0  0  0  0  0  0  0  0  0  0
    0.1566    1.5253   -1.7517 H   0  0  0  0  0  0  0  0  0  0  0  0
   -1.5726    1.1444   -1.5116 H   0  0  0  0  0  0  0  0  0  0  0  0
   -1.3343    2.6263   -0.0457 H   0  0  0  0  0  0  0  0  0  0  0  0
    4.2861    0.2031   -0.8041 H   0  0  0  0  0  0  0  0  0  0  0  0
    3.4755    1.0142    0.6418 H   0  0  0  0  0  0  0  0  0  0  0  0
    3.4646   -0.7606    0.5356 H   0  0  0  0  0  0  0  0  0  0  0  0
  1  2  1  0
  2  3  1  0
  3  4  1  0
  4  5  1  0
  3  6  1  0
  6  7  2  0
  6  8  1  0
  8  9  1  0
  1 10  1  0
  1 11  1  0
  1 12  1  0
  2 13  1  0
  2 14  1  0
  3 15  1  0
  4 16  1  0
  4 17  1  0
  5 18  1  0
  9 19  1  0
  9 20  1  0
  9 21  1  0
M  END
