
     RDKit          3D

 23 22  0  0  0  0  0  0  0  0999 V2000
   -2.1859    1.4213    0.3023 C   0  0  0  0  0  0  0  0  0  0  0  0
   -2.3446   -0.0678    0.5290 C   0  0  0  0  0  0  0  0  0  0  0  0
   -1.0489   -0.5627    1.1376 C   0  0  0  0  0  0  0  0  0  0  0  0
   -1.1467   -2.0610    1.3902 C   0  0  0  0  0  0  0  0  0  0  0  0
    0.0094   -0.2654    0.1592 C   0  0  0  0  0  0  0  0  0  0  0  0
    0.8955   -0.0148   -0.6324 C   0  0  0  0  0  0  0  0  0  0  0  0
    1.9744    0.2725   -1.5829 C   0  0  0  0  0  0  0  0  0  0  0  0
    3.3133    0.2505   -0.8389 C   0  0  0  0  0  0  0  0  0  0  0  0
    1.7392    1.5576   -2.0745 O   0  0  0  0  0  0  0  0  0  0  0  0
   -2.1049    1.9384    1.2798 H   0  0  0  0  0  0  0  0  0  0  0  0
   -3.0821    1.7581   -0.2717 H   0  0  0  0  0  0  0  0  0  0  0  0
   -1.2400    1.5780   -0.2492 H   0  0  0  0  0  0  0  0  0  0  0  0
   -2.4797   -0.5758   -0.4248 H   0  0  0  0  0  0  0  0  0  0  0  0
   -3.1691   -0.2933    1.2454 H   0  0  0  0  0  0  0  0  0  0  0  0
   -0.8943   -0.0317    2.0839 H   0  0  0  0  0  0  0  0  0  0  0  0
   -0.6466   -2.3563    2.3281 H   0  0  0  0  0  0  0  0  0  0  0  0
   -0.5812   -2.5544    0.5486 H   0  0  0  0  0  0  0  0  0  0  0  0
   -2.1883   -2.4248    1.3595 H   0  0  0  0  0  0  0  0  0  0  0  0
    1.9738   -0.4134   -2.4389 H   0  0  0  0  0  0  0  0  0  0  0  0
    3.2926   -0.5889   -0.1213 H   0  0  0  0  0  0  0  0  0  0  0  0
    3.4887    1.2240   -0.3276 H   0  0  0  0  0  0  0  0  0  0  0  0
    4.1018    0.0350   -1.5918 H   0  0  0  0  0  0  0  0  0  0  0  0
    2.3234    2.1747   -1.5711 H   0  0  0  0  0  0  0  0  0  0  0  0
  1  2  1  0
  2  3  1  0
  3  4  1  0
  3  5  1  0
  5  6  3  0
  6  7  1  0
  7  8  1  0
  7  9  1  0
  1 10  1  0
  1 11  1  0
  1 12  1  0
  2 13  1  0
  2 14  1  0
  3 15  1  0
  4 16  1  0
  4 17  1  0
  4 18  1  0
  7 19  1  0
  8 20  1  0
  8 21  1  0
  8 22  1  0
  9 23  1  0
M  END
