
     RDKit          3D

 21 21  0  0  0  0  0  0  0  0999 V2000
    3.1425    0.3710   -0.0234 C   0  0  0  0  0  0  0  0  0  0  0  0
    1.7431    0.6589    0.4708 C   0  0  0  0  0  0  0  0  0  0  0  0
    0.9152   -0.5442    0.2221 C   0  0  0  0  0  0  0  0  0  0  0  0
    1.4365   -1.5026   -0.3036 O   0  0  0  0  0  0  0  0  0  0  0  0
   -0.5217   -0.6352    0.5850 C   0  0  0  0  0  0  0  0  0  0  0  0
   -0.9886   -1.8930    0.2333 O   0  0  0  0  0  0  0  0  0  0  0  0
   -1.2391    0.4493   -0.2041 C   0  0  0  0  0  0  0  0  0  0  0  0
   -2.7039    0.6208   -0.0638 C   0  0  0  0  0  0  0  0  0  0  0  0
   -2.1768   -0.0830   -1.2581 C   0  0  0  0  0  0  0  0  0  0  0  0
    3.3425   -0.7003    0.1927 H   0  0  0  0  0  0  0  0  0  0  0  0
    3.1233    0.4858   -1.1259 H   0  0  0  0  0  0  0  0  0  0  0  0
    3.8681    1.0295    0.4716 H   0  0  0  0  0  0  0  0  0  0  0  0
    1.3643    1.5659   -0.0643 H   0  0  0  0  0  0  0  0  0  0  0  0
    1.7290    0.8832    1.5623 H   0  0  0  0  0  0  0  0  0  0  0  0
   -0.6665   -0.4449    1.6890 H   0  0  0  0  0  0  0  0  0  0  0  0
   -0.8825   -2.5047    0.9924 H   0  0  0  0  0  0  0  0  0  0  0  0
   -0.6201    1.3277   -0.4118 H   0  0  0  0  0  0  0  0  0  0  0  0
   -3.3047    0.0126    0.6435 H   0  0  0  0  0  0  0  0  0  0  0  0
   -3.0751    1.6673   -0.1548 H   0  0  0  0  0  0  0  0  0  0  0  0
   -2.1204    0.4103   -2.2521 H   0  0  0  0  0  0  0  0  0  0  0  0
   -2.3650   -1.1743   -1.3303 H   0  0  0  0  0  0  0  0  0  0  0  0
  1  2  1  0
  2  3  1  0
  3  4  2  0
  3  5  1  0
  5  6  1  0
  5  7  1  0
  7  8  1  0
  8  9  1  0
  9  7  1  0
  1 10  1  0
  1 11  1  0
  1 12  1  0
  2 13  1  0
  2 14  1  0
  5 15  1  0
  6 16  1  0
  7 17  1  0
  8 18  1  0
  8 19  1  0
  9 20  1  0
  9 21  1  0
M  END
