
     RDKit          3D

 15 14  0  0  0  0  0  0  0  0999 V2000
    1.5499    0.3686    0.4353 C   0  0  0  0  0  0  0  0  0  0  0  0
    0.6024    0.4809   -0.7080 C   0  0  0  0  0  0  0  0  0  0  0  0
   -0.7640   -0.0880   -0.4317 C   0  0  0  0  0  0  0  0  0  0  0  0
   -1.3910    0.6213    0.7165 C   0  0  0  0  0  0  0  0  0  0  0  0
   -1.6382    0.1242    1.7858 O   0  0  0  0  0  0  0  0  0  0  0  0
   -0.7606   -1.5546   -0.2636 C   0  0  0  0  0  0  0  0  0  0  0  0
   -1.2216   -2.3356   -1.0880 O   0  0  0  0  0  0  0  0  0  0  0  0
    2.5422   -0.0208    0.0722 H   0  0  0  0  0  0  0  0  0  0  0  0
    1.2102   -0.2989    1.2471 H   0  0  0  0  0  0  0  0  0  0  0  0
    1.7769    1.3480    0.9117 H   0  0  0  0  0  0  0  0  0  0  0  0
    0.4552    1.5702   -0.9185 H   0  0  0  0  0  0  0  0  0  0  0  0
    1.0136    0.0337   -1.6383 H   0  0  0  0  0  0  0  0  0  0  0  0
   -1.3952    0.1361   -1.3220 H   0  0  0  0  0  0  0  0  0  0  0  0
   -1.6429    1.6669    0.5741 H   0  0  0  0  0  0  0  0  0  0  0  0
   -0.3370   -2.0519    0.6276 H   0  0  0  0  0  0  0  0  0  0  0  0
  1  2  1  0
  2  3  1  0
  3  4  1  0
  4  5  2  0
  3  6  1  0
  6  7  2  0
  1  8  1  0
  1  9  1  0
  1 10  1  0
  2 11  1  0
  2 12  1  0
  3 13  1  0
  4 14  1  0
  6 15  1  0
M  END
