
     RDKit          3D

 19 18  0  0  0  0  0  0  0  0999 V2000
   -2.0202   -0.7598    0.5651 C   0  0  0  0  0  0  0  0  0  0  0  0
   -1.5729    0.4673   -0.1940 C   0  0  0  0  0  0  0  0  0  0  0  0
   -0.0725    0.5016   -0.3936 C   0  0  0  0  0  0  0  0  0  0  0  0
    0.2180    1.7517   -1.1469 C   0  0  0  0  0  0  0  0  0  0  0  0
    0.9725    2.5931   -0.7480 O   0  0  0  0  0  0  0  0  0  0  0  0
    0.6301    0.4539    0.7766 O   0  0  0  0  0  0  0  0  0  0  0  0
    1.4539   -0.6258    0.9468 C   0  0  0  0  0  0  0  0  0  0  0  0
    2.5084   -0.7840   -0.0554 C   0  0  0  0  0  0  0  0  0  0  0  0
    2.6361   -0.0029   -0.9768 O   0  0  0  0  0  0  0  0  0  0  0  0
   -1.6807   -0.7680    1.6058 H   0  0  0  0  0  0  0  0  0  0  0  0
   -3.1300   -0.7423    0.5714 H   0  0  0  0  0  0  0  0  0  0  0  0
   -1.7294   -1.6954    0.0093 H   0  0  0  0  0  0  0  0  0  0  0  0
   -1.9524    1.3509    0.3591 H   0  0  0  0  0  0  0  0  0  0  0  0
   -2.0969    0.4461   -1.1708 H   0  0  0  0  0  0  0  0  0  0  0  0
    0.1739   -0.3767   -1.0139 H   0  0  0  0  0  0  0  0  0  0  0  0
   -0.2765    1.8972   -2.0909 H   0  0  0  0  0  0  0  0  0  0  0  0
    1.8841   -0.5411    1.9853 H   0  0  0  0  0  0  0  0  0  0  0  0
    0.8468   -1.5611    0.9752 H   0  0  0  0  0  0  0  0  0  0  0  0
    3.2077   -1.6049   -0.0041 H   0  0  0  0  0  0  0  0  0  0  0  0
  1  2  1  0
  2  3  1  0
  3  4  1  0
  4  5  2  0
  3  6  1  0
  6  7  1  0
  7  8  1  0
  8  9  2  0
  1 10  1  0
  1 11  1  0
  1 12  1  0
  2 13  1  0
  2 14  1  0
  3 15  1  0
  4 16  1  0
  7 17  1  0
  7 18  1  0
  8 19  1  0
M  END
