
     RDKit          3D

 27 27  0  0  0  0  0  0  0  0999 V2000
    2.9271    0.6701   -0.0463 C   0  0  0  0  0  0  0  0  0  0  0  0
    1.5027    0.5924   -0.6178 C   0  0  0  0  0  0  0  0  0  0  0  0
    0.6419   -0.0263    0.4094 C   0  0  0  0  0  0  0  0  0  0  0  0
    1.2033   -1.4220    0.7002 C   0  0  0  0  0  0  0  0  0  0  0  0
   -0.8090   -0.0720    0.1345 C   0  0  0  0  0  0  0  0  0  0  0  0
   -1.5962   -0.7385    1.2709 C   0  0  0  0  0  0  0  0  0  0  0  0
   -1.3142   -0.5009   -1.1742 C   0  0  0  0  0  0  0  0  0  0  0  0
   -2.3631    0.6190   -1.0899 C   0  0  0  0  0  0  0  0  0  0  0  0
   -1.4086    1.2973   -0.0972 C   0  0  0  0  0  0  0  0  0  0  0  0
    3.4261    1.6191   -0.3325 H   0  0  0  0  0  0  0  0  0  0  0  0
    3.5600   -0.1468   -0.4498 H   0  0  0  0  0  0  0  0  0  0  0  0
    2.8805    0.6632    1.0684 H   0  0  0  0  0  0  0  0  0  0  0  0
    1.2606    1.5973   -0.9502 H   0  0  0  0  0  0  0  0  0  0  0  0
    1.5599   -0.1017   -1.4944 H   0  0  0  0  0  0  0  0  0  0  0  0
    0.7910    0.5425    1.3733 H   0  0  0  0  0  0  0  0  0  0  0  0
    0.9441   -1.7487    1.7258 H   0  0  0  0  0  0  0  0  0  0  0  0
    0.8606   -2.1615   -0.0336 H   0  0  0  0  0  0  0  0  0  0  0  0
    2.3123   -1.3175    0.6609 H   0  0  0  0  0  0  0  0  0  0  0  0
   -1.7065   -0.0280    2.1151 H   0  0  0  0  0  0  0  0  0  0  0  0
   -2.6230   -0.9920    0.9198 H   0  0  0  0  0  0  0  0  0  0  0  0
   -1.0894   -1.6712    1.5751 H   0  0  0  0  0  0  0  0  0  0  0  0
   -0.7171   -0.3394   -2.0733 H   0  0  0  0  0  0  0  0  0  0  0  0
   -1.8129   -1.4837   -1.1917 H   0  0  0  0  0  0  0  0  0  0  0  0
   -2.5209    1.1685   -2.0181 H   0  0  0  0  0  0  0  0  0  0  0  0
   -3.2884    0.3048   -0.5729 H   0  0  0  0  0  0  0  0  0  0  0  0
   -1.9166    1.7163    0.7923 H   0  0  0  0  0  0  0  0  0  0  0  0
   -0.7041    1.9596   -0.6037 H   0  0  0  0  0  0  0  0  0  0  0  0
  1  2  1  0
  2  3  1  0
  3  4  1  0
  3  5  1  0
  5  6  1  0
  5  7  1  0
  7  8  1  0
  8  9  1  0
  9  5  1  0
  1 10  1  0
  1 11  1  0
  1 12  1  0
  2 13  1  0
  2 14  1  0
  3 15  1  0
  4 16  1  0
  4 17  1  0
  4 18  1  0
  6 19  1  0
  6 20  1  0
  6 21  1  0
  7 22  1  0
  7 23  1  0
  8 24  1  0
  8 25  1  0
  9 26  1  0
  9 27  1  0
M  END
