
     RDKit          3D

 25 24  0  0  0  0  0  0  0  0999 V2000
   -2.3842   -1.1384    0.7167 C   0  0  0  0  0  0  0  0  0  0  0  0
   -1.1263   -0.9943   -0.0800 C   0  0  0  0  0  0  0  0  0  0  0  0
   -0.1346   -0.0218    0.5105 C   0  0  0  0  0  0  0  0  0  0  0  0
   -0.6184    1.3733    0.6579 C   0  0  0  0  0  0  0  0  0  0  0  0
   -1.0152    2.0269   -0.5971 C   0  0  0  0  0  0  0  0  0  0  0  0
   -2.1931    2.2860   -0.7903 O   0  0  0  0  0  0  0  0  0  0  0  0
    1.1572   -0.0544   -0.3004 C   0  0  0  0  0  0  0  0  0  0  0  0
    2.1569    0.9051    0.2562 C   0  0  0  0  0  0  0  0  0  0  0  0
    1.7612   -1.4420   -0.2523 C   0  0  0  0  0  0  0  0  0  0  0  0
   -3.3116   -0.8933    0.1689 H   0  0  0  0  0  0  0  0  0  0  0  0
   -2.5254   -2.1955    1.0926 H   0  0  0  0  0  0  0  0  0  0  0  0
   -2.2678   -0.5236    1.6389 H   0  0  0  0  0  0  0  0  0  0  0  0
   -1.3710   -0.7198   -1.1484 H   0  0  0  0  0  0  0  0  0  0  0  0
   -0.6005   -1.9949   -0.1010 H   0  0  0  0  0  0  0  0  0  0  0  0
    0.1318   -0.4245    1.5273 H   0  0  0  0  0  0  0  0  0  0  0  0
    0.1349    1.9584    1.1948 H   0  0  0  0  0  0  0  0  0  0  0  0
   -1.5088    1.3632    1.3700 H   0  0  0  0  0  0  0  0  0  0  0  0
   -0.3210    2.3055   -1.3876 H   0  0  0  0  0  0  0  0  0  0  0  0
    0.8954    0.1606   -1.3493 H   0  0  0  0  0  0  0  0  0  0  0  0
    3.1153    0.8127   -0.3291 H   0  0  0  0  0  0  0  0  0  0  0  0
    1.8828    1.9714    0.1694 H   0  0  0  0  0  0  0  0  0  0  0  0
    2.3551    0.6359    1.3090 H   0  0  0  0  0  0  0  0  0  0  0  0
    1.4949   -2.0293   -1.1556 H   0  0  0  0  0  0  0  0  0  0  0  0
    1.4300   -2.0132    0.6294 H   0  0  0  0  0  0  0  0  0  0  0  0
    2.8625   -1.3541   -0.2061 H   0  0  0  0  0  0  0  0  0  0  0  0
  1  2  1  0
  2  3  1  0
  3  4  1  0
  4  5  1  0
  5  6  2  0
  3  7  1  0
  7  8  1  0
  7  9  1  0
  1 10  1  0
  1 11  1  0
  1 12  1  0
  2 13  1  0
  2 14  1  0
  3 15  1  0
  4 16  1  0
  4 17  1  0
  5 18  1  0
  7 19  1  0
  8 20  1  0
  8 21  1  0
  8 22  1  0
  9 23  1  0
  9 24  1  0
  9 25  1  0
M  END
