
     RDKit          3D

 21 20  0  0  0  0  0  0  0  0999 V2000
    1.6588   -1.4099    0.1258 C   0  0  0  0  0  0  0  0  0  0  0  0
    1.5292    0.0921    0.1535 C   0  0  0  0  0  0  0  0  0  0  0  0
    0.0905    0.5326    0.3158 C   0  0  0  0  0  0  0  0  0  0  0  0
    0.1182    2.0653    0.3264 C   0  0  0  0  0  0  0  0  0  0  0  0
   -0.4581    0.1376    1.5103 O   0  0  0  0  0  0  0  0  0  0  0  0
   -0.7514    0.1281   -0.8160 C   0  0  0  0  0  0  0  0  0  0  0  0
   -0.4548    0.3763   -1.9701 O   0  0  0  0  0  0  0  0  0  0  0  0
   -2.0115   -0.6092   -0.5700 C   0  0  0  0  0  0  0  0  0  0  0  0
   -2.2463   -0.8356    0.7850 O   0  0  0  0  0  0  0  0  0  0  0  0
    1.0097   -1.8851   -0.6384 H   0  0  0  0  0  0  0  0  0  0  0  0
    2.7330   -1.6239   -0.1252 H   0  0  0  0  0  0  0  0  0  0  0  0
    1.5017   -1.8143    1.1366 H   0  0  0  0  0  0  0  0  0  0  0  0
    2.0925    0.4643    1.0240 H   0  0  0  0  0  0  0  0  0  0  0  0
    1.9169    0.5261   -0.7727 H   0  0  0  0  0  0  0  0  0  0  0  0
    0.9905    2.3853    0.9078 H   0  0  0  0  0  0  0  0  0  0  0  0
   -0.8004    2.4196    0.8113 H   0  0  0  0  0  0  0  0  0  0  0  0
    0.1462    2.4625   -0.7217 H   0  0  0  0  0  0  0  0  0  0  0  0
    0.1998    0.0709    2.2402 H   0  0  0  0  0  0  0  0  0  0  0  0
   -1.9852   -1.5936   -1.1028 H   0  0  0  0  0  0  0  0  0  0  0  0
   -2.9052   -0.0790   -0.9991 H   0  0  0  0  0  0  0  0  0  0  0  0
   -2.3740   -1.8100    0.9663 H   0  0  0  0  0  0  0  0  0  0  0  0
  1  2  1  0
  2  3  1  0
  3  4  1  0
  3  5  1  0
  3  6  1  0
  6  7  2  0
  6  8  1  0
  8  9  1  0
  1 10  1  0
  1 11  1  0
  1 12  1  0
  2 13  1  0
  2 14  1  0
  4 15  1  0
  4 16  1  0
  4 17  1  0
  5 18  1  0
  8 19  1  0
  8 20  1  0
  9 21  1  0
M  END
