
     RDKit          3D

 23 22  0  0  0  0  0  0  0  0999 V2000
    3.1451   -0.0379   -0.4200 C   0  0  0  0  0  0  0  0  0  0  0  0
    2.2708    0.7679    0.5545 C   0  0  0  0  0  0  0  0  0  0  0  0
    0.9095    0.6946    0.0199 C   0  0  0  0  0  0  0  0  0  0  0  0
    0.4421    1.6698   -0.5566 O   0  0  0  0  0  0  0  0  0  0  0  0
    0.0706   -0.5129    0.1503 C   0  0  0  0  0  0  0  0  0  0  0  0
   -1.2860   -0.2259   -0.4131 C   0  0  0  0  0  0  0  0  0  0  0  0
   -2.1987   -1.4326   -0.3385 C   0  0  0  0  0  0  0  0  0  0  0  0
   -1.9620    0.8405    0.4625 C   0  0  0  0  0  0  0  0  0  0  0  0
   -1.1387    0.2470   -1.7095 O   0  0  0  0  0  0  0  0  0  0  0  0
    3.1931    0.4757   -1.3994 H   0  0  0  0  0  0  0  0  0  0  0  0
    2.6419   -1.0263   -0.5224 H   0  0  0  0  0  0  0  0  0  0  0  0
    4.1620   -0.0948    0.0261 H   0  0  0  0  0  0  0  0  0  0  0  0
    2.3148    0.3056    1.5373 H   0  0  0  0  0  0  0  0  0  0  0  0
    2.6486    1.8123    0.4988 H   0  0  0  0  0  0  0  0  0  0  0  0
    0.5650   -1.2973   -0.4850 H   0  0  0  0  0  0  0  0  0  0  0  0
    0.0307   -0.8960    1.1991 H   0  0  0  0  0  0  0  0  0  0  0  0
   -2.0224   -2.1307   -1.1901 H   0  0  0  0  0  0  0  0  0  0  0  0
   -2.0420   -1.9102    0.6331 H   0  0  0  0  0  0  0  0  0  0  0  0
   -3.2344   -1.0512   -0.3490 H   0  0  0  0  0  0  0  0  0  0  0  0
   -3.0680    0.6505    0.4466 H   0  0  0  0  0  0  0  0  0  0  0  0
   -1.7792    1.8225   -0.0058 H   0  0  0  0  0  0  0  0  0  0  0  0
   -1.6508    0.7413    1.5010 H   0  0  0  0  0  0  0  0  0  0  0  0
   -2.0121    0.5882   -2.0445 H   0  0  0  0  0  0  0  0  0  0  0  0
  1  2  1  0
  2  3  1  0
  3  4  2  0
  3  5  1  0
  5  6  1  0
  6  7  1  0
  6  8  1  0
  6  9  1  0
  1 10  1  0
  1 11  1  0
  1 12  1  0
  2 13  1  0
  2 14  1  0
  5 15  1  0
  5 16  1  0
  7 17  1  0
  7 18  1  0
  7 19  1  0
  8 20  1  0
  8 21  1  0
  8 22  1  0
  9 23  1  0
M  END
