
     RDKit          3D

 19 18  0  0  0  0  0  0  0  0999 V2000
   -1.7258    0.5276    1.0470 C   0  0  0  0  0  0  0  0  0  0  0  0
   -0.2314    0.6304    1.0700 C   0  0  0  0  0  0  0  0  0  0  0  0
    0.4820    0.1285   -0.1292 C   0  0  0  0  0  0  0  0  0  0  0  0
    0.2862   -1.3154   -0.4711 C   0  0  0  0  0  0  0  0  0  0  0  0
   -1.1150   -1.7083   -0.7519 C   0  0  0  0  0  0  0  0  0  0  0  0
   -1.7958   -2.3065    0.0365 O   0  0  0  0  0  0  0  0  0  0  0  0
    1.8943    0.3571    0.0629 O   0  0  0  0  0  0  0  0  0  0  0  0
    2.5405    1.1809   -0.8268 C   0  0  0  0  0  0  0  0  0  0  0  0
    1.9284    1.7348   -1.8003 O   0  0  0  0  0  0  0  0  0  0  0  0
   -2.1000    0.4042    0.0199 H   0  0  0  0  0  0  0  0  0  0  0  0
   -2.0302   -0.2534    1.7627 H   0  0  0  0  0  0  0  0  0  0  0  0
   -2.1522    1.5008    1.4259 H   0  0  0  0  0  0  0  0  0  0  0  0
    0.1257    0.2016    2.0338 H   0  0  0  0  0  0  0  0  0  0  0  0
    0.0500    1.7273    1.1563 H   0  0  0  0  0  0  0  0  0  0  0  0
    0.1337    0.7089   -1.0112 H   0  0  0  0  0  0  0  0  0  0  0  0
    0.7432   -1.9903    0.2967 H   0  0  0  0  0  0  0  0  0  0  0  0
    0.8838   -1.5347   -1.3996 H   0  0  0  0  0  0  0  0  0  0  0  0
   -1.5294   -1.4253   -1.7370 H   0  0  0  0  0  0  0  0  0  0  0  0
    3.6120    1.4318   -0.7848 H   0  0  0  0  0  0  0  0  0  0  0  0
  1  2  1  0
  2  3  1  0
  3  4  1  0
  4  5  1  0
  5  6  2  0
  3  7  1  0
  7  8  1  0
  8  9  2  0
  1 10  1  0
  1 11  1  0
  1 12  1  0
  2 13  1  0
  2 14  1  0
  3 15  1  0
  4 16  1  0
  4 17  1  0
  5 18  1  0
  8 19  1  0
M  END
