
     RDKit          3D

 21 21  0  0  0  0  0  0  0  0999 V2000
    3.0503   -0.4882   -0.1640 C   0  0  0  0  0  0  0  0  0  0  0  0
    1.6151   -0.8276    0.1851 C   0  0  0  0  0  0  0  0  0  0  0  0
    0.9216    0.4334    0.6363 C   0  0  0  0  0  0  0  0  0  0  0  0
    1.4015    1.0600    1.5889 O   0  0  0  0  0  0  0  0  0  0  0  0
   -0.3105    0.8849   -0.0720 C   0  0  0  0  0  0  0  0  0  0  0  0
   -1.4634    0.8166    0.8680 C   0  0  0  0  0  0  0  0  0  0  0  0
   -2.3553   -0.2317    0.2543 C   0  0  0  0  0  0  0  0  0  0  0  0
   -1.9220   -0.1744   -1.1899 C   0  0  0  0  0  0  0  0  0  0  0  0
   -0.5524    0.0236   -1.1198 O   0  0  0  0  0  0  0  0  0  0  0  0
    3.4450   -1.3567   -0.7481 H   0  0  0  0  0  0  0  0  0  0  0  0
    3.1083    0.4594   -0.7521 H   0  0  0  0  0  0  0  0  0  0  0  0
    3.6307   -0.4101    0.7542 H   0  0  0  0  0  0  0  0  0  0  0  0
    1.0533   -1.2762   -0.6245 H   0  0  0  0  0  0  0  0  0  0  0  0
    1.6452   -1.5406    1.0600 H   0  0  0  0  0  0  0  0  0  0  0  0
   -0.1813    1.9177   -0.4702 H   0  0  0  0  0  0  0  0  0  0  0  0
   -1.1156    0.5406    1.8846 H   0  0  0  0  0  0  0  0  0  0  0  0
   -2.0072    1.8019    0.8974 H   0  0  0  0  0  0  0  0  0  0  0  0
   -3.4321    0.0030    0.3781 H   0  0  0  0  0  0  0  0  0  0  0  0
   -2.0810   -1.2180    0.6712 H   0  0  0  0  0  0  0  0  0  0  0  0
   -2.1104   -1.1144   -1.7464 H   0  0  0  0  0  0  0  0  0  0  0  0
   -2.3398    0.6968   -1.7291 H   0  0  0  0  0  0  0  0  0  0  0  0
  1  2  1  0
  2  3  1  0
  3  4  2  0
  3  5  1  0
  5  6  1  0
  6  7  1  0
  7  8  1  0
  8  9  1  0
  9  5  1  0
  1 10  1  0
  1 11  1  0
  1 12  1  0
  2 13  1  0
  2 14  1  0
  5 15  1  0
  6 16  1  0
  6 17  1  0
  7 18  1  0
  7 19  1  0
  8 20  1  0
  8 21  1  0
M  END
