
     RDKit          3D

 21 21  0  0  0  0  0  0  0  0999 V2000
    3.3026   -0.0329    0.2307 C   0  0  0  0  0  0  0  0  0  0  0  0
    1.8387   -0.0126    0.5771 C   0  0  0  0  0  0  0  0  0  0  0  0
    0.9857   -0.0612   -0.6336 C   0  0  0  0  0  0  0  0  0  0  0  0
    1.5560   -0.1094   -1.7098 O   0  0  0  0  0  0  0  0  0  0  0  0
   -0.4798   -0.0556   -0.6300 C   0  0  0  0  0  0  0  0  0  0  0  0
   -1.2916   -0.5320    0.5030 C   0  0  0  0  0  0  0  0  0  0  0  0
   -2.7087   -0.9787    0.2121 C   0  0  0  0  0  0  0  0  0  0  0  0
   -1.0599    0.9794    0.3602 C   0  0  0  0  0  0  0  0  0  0  0  0
   -2.1266    1.7485   -0.0846 O   0  0  0  0  0  0  0  0  0  0  0  0
    3.4450   -0.8123   -0.5420 H   0  0  0  0  0  0  0  0  0  0  0  0
    3.6154    0.9333   -0.1945 H   0  0  0  0  0  0  0  0  0  0  0  0
    3.9168   -0.2325    1.1190 H   0  0  0  0  0  0  0  0  0  0  0  0
    1.5627   -0.7602    1.3376 H   0  0  0  0  0  0  0  0  0  0  0  0
    1.6437    0.9915    1.0530 H   0  0  0  0  0  0  0  0  0  0  0  0
   -0.9669   -0.0962   -1.6228 H   0  0  0  0  0  0  0  0  0  0  0  0
   -0.8335   -0.9640    1.4214 H   0  0  0  0  0  0  0  0  0  0  0  0
   -3.3860   -0.0968    0.0137 H   0  0  0  0  0  0  0  0  0  0  0  0
   -2.6841   -1.5219   -0.7770 H   0  0  0  0  0  0  0  0  0  0  0  0
   -3.1324   -1.6013    1.0079 H   0  0  0  0  0  0  0  0  0  0  0  0
   -0.3975    1.4599    1.0721 H   0  0  0  0  0  0  0  0  0  0  0  0
   -2.7998    1.7547    0.6400 H   0  0  0  0  0  0  0  0  0  0  0  0
  1  2  1  0
  2  3  1  0
  3  4  2  0
  3  5  1  0
  5  6  1  0
  6  7  1  0
  6  8  1  0
  8  9  1  0
  8  5  1  0
  1 10  1  0
  1 11  1  0
  1 12  1  0
  2 13  1  0
  2 14  1  0
  5 15  1  0
  6 16  1  0
  7 17  1  0
  7 18  1  0
  7 19  1  0
  8 20  1  0
  9 21  1  0
M  END
