
     RDKit          3D

 22 21  0  0  0  0  0  0  0  0999 V2000
    2.6527   -0.5637    0.2620 C   0  0  0  0  0  0  0  0  0  0  0  0
    1.2633   -0.3355    0.8233 C   0  0  0  0  0  0  0  0  0  0  0  0
    0.2736    0.0232   -0.2376 C   0  0  0  0  0  0  0  0  0  0  0  0
    0.7269    1.2792   -0.9051 C   0  0  0  0  0  0  0  0  0  0  0  0
    1.4936    2.0490   -0.3501 O   0  0  0  0  0  0  0  0  0  0  0  0
   -1.1159    0.2059    0.1951 C   0  0  0  0  0  0  0  0  0  0  0  0
   -1.7743   -0.9768    0.8345 C   0  0  0  0  0  0  0  0  0  0  0  0
   -1.9554    0.6160   -0.9944 C   0  0  0  0  0  0  0  0  0  0  0  0
    3.2600    0.3688    0.2645 H   0  0  0  0  0  0  0  0  0  0  0  0
    3.2270   -1.2954    0.9018 H   0  0  0  0  0  0  0  0  0  0  0  0
    2.6246   -0.9951   -0.7507 H   0  0  0  0  0  0  0  0  0  0  0  0
    1.0033   -1.2024    1.4267 H   0  0  0  0  0  0  0  0  0  0  0  0
    1.3696    0.5342    1.5341 H   0  0  0  0  0  0  0  0  0  0  0  0
    0.3457   -0.7746   -1.0305 H   0  0  0  0  0  0  0  0  0  0  0  0
    0.3992    1.5601   -1.9008 H   0  0  0  0  0  0  0  0  0  0  0  0
   -1.1725    1.0478    0.9316 H   0  0  0  0  0  0  0  0  0  0  0  0
   -2.8657   -0.7227    0.9282 H   0  0  0  0  0  0  0  0  0  0  0  0
   -1.7466   -1.8749    0.1652 H   0  0  0  0  0  0  0  0  0  0  0  0
   -1.4303   -1.1911    1.8498 H   0  0  0  0  0  0  0  0  0  0  0  0
   -1.3887    0.5589   -1.9463 H   0  0  0  0  0  0  0  0  0  0  0  0
   -2.8800    0.0074   -1.0930 H   0  0  0  0  0  0  0  0  0  0  0  0
   -2.3102    1.6818   -0.9083 H   0  0  0  0  0  0  0  0  0  0  0  0
  1  2  1  0
  2  3  1  0
  3  4  1  0
  4  5  2  0
  3  6  1  0
  6  7  1  0
  6  8  1  0
  1  9  1  0
  1 10  1  0
  1 11  1  0
  2 12  1  0
  2 13  1  0
  3 14  1  0
  4 15  1  0
  6 16  1  0
  7 17  1  0
  7 18  1  0
  7 19  1  0
  8 20  1  0
  8 21  1  0
  8 22  1  0
M  END
