
     RDKit          3D

 25 24  0  0  0  0  0  0  0  0999 V2000
   -2.6283    0.8476    0.9570 C   0  0  0  0  0  0  0  0  0  0  0  0
   -1.3054    0.1747    1.2665 C   0  0  0  0  0  0  0  0  0  0  0  0
   -0.3325    0.3616    0.0956 C   0  0  0  0  0  0  0  0  0  0  0  0
   -0.8902   -0.2416   -1.1666 C   0  0  0  0  0  0  0  0  0  0  0  0
    1.0016   -0.2334    0.4440 C   0  0  0  0  0  0  0  0  0  0  0  0
    0.9155   -1.7091    0.7475 C   0  0  0  0  0  0  0  0  0  0  0  0
    1.9685   -0.0800   -0.6928 C   0  0  0  0  0  0  0  0  0  0  0  0
    2.2329    1.3113   -1.0518 C   0  0  0  0  0  0  0  0  0  0  0  0
    1.7643    2.2527   -0.4623 O   0  0  0  0  0  0  0  0  0  0  0  0
   -3.3517    0.1169    0.5433 H   0  0  0  0  0  0  0  0  0  0  0  0
   -3.0114    1.3911    1.8277 H   0  0  0  0  0  0  0  0  0  0  0  0
   -2.4763    1.6191    0.1463 H   0  0  0  0  0  0  0  0  0  0  0  0
   -0.9057    0.6438    2.1829 H   0  0  0  0  0  0  0  0  0  0  0  0
   -1.5347   -0.9082    1.4212 H   0  0  0  0  0  0  0  0  0  0  0  0
   -0.3116    1.4589   -0.0593 H   0  0  0  0  0  0  0  0  0  0  0  0
   -0.7295    0.4272   -2.0549 H   0  0  0  0  0  0  0  0  0  0  0  0
   -0.3334   -1.1676   -1.3893 H   0  0  0  0  0  0  0  0  0  0  0  0
   -1.9671   -0.4718   -1.0154 H   0  0  0  0  0  0  0  0  0  0  0  0
    1.4051    0.2386    1.3839 H   0  0  0  0  0  0  0  0  0  0  0  0
    1.9324   -1.9877    1.1566 H   0  0  0  0  0  0  0  0  0  0  0  0
    0.2059   -1.9593    1.5311 H   0  0  0  0  0  0  0  0  0  0  0  0
    0.8293   -2.3062   -0.1810 H   0  0  0  0  0  0  0  0  0  0  0  0
    2.9731   -0.5347   -0.4388 H   0  0  0  0  0  0  0  0  0  0  0  0
    1.6404   -0.7076   -1.5700 H   0  0  0  0  0  0  0  0  0  0  0  0
    2.9086    1.4635   -1.9226 H   0  0  0  0  0  0  0  0  0  0  0  0
  1  2  1  0
  2  3  1  0
  3  4  1  0
  3  5  1  0
  5  6  1  0
  5  7  1  0
  7  8  1  0
  8  9  2  0
  1 10  1  0
  1 11  1  0
  1 12  1  0
  2 13  1  0
  2 14  1  0
  3 15  1  0
  4 16  1  0
  4 17  1  0
  4 18  1  0
  5 19  1  0
  6 20  1  0
  6 21  1  0
  6 22  1  0
  7 23  1  0
  7 24  1  0
  8 25  1  0
M  END
