
     RDKit          3D

 23 23  0  0  0  0  0  0  0  0999 V2000
    1.9787    0.7824   -0.9662 C   0  0  0  0  0  0  0  0  0  0  0  0
    1.2213    1.1110    0.2930 C   0  0  0  0  0  0  0  0  0  0  0  0
    0.3771   -0.0303    0.7860 C   0  0  0  0  0  0  0  0  0  0  0  0
    1.2660   -1.2241    1.0805 C   0  0  0  0  0  0  0  0  0  0  0  0
   -0.6836   -0.4657   -0.1572 C   0  0  0  0  0  0  0  0  0  0  0  0
   -1.7169    0.5505   -0.5497 C   0  0  0  0  0  0  0  0  0  0  0  0
   -2.4453    0.1357    0.7344 C   0  0  0  0  0  0  0  0  0  0  0  0
   -1.7738   -1.1867    0.5881 C   0  0  0  0  0  0  0  0  0  0  0  0
   -1.9949   -2.3398    0.9175 O   0  0  0  0  0  0  0  0  0  0  0  0
    1.3719    0.9440   -1.8837 H   0  0  0  0  0  0  0  0  0  0  0  0
    2.4342   -0.2171   -0.9077 H   0  0  0  0  0  0  0  0  0  0  0  0
    2.8347    1.5115   -1.0593 H   0  0  0  0  0  0  0  0  0  0  0  0
    1.9986    1.2926    1.0864 H   0  0  0  0  0  0  0  0  0  0  0  0
    0.6705    2.0420    0.1843 H   0  0  0  0  0  0  0  0  0  0  0  0
   -0.0744    0.2841    1.7479 H   0  0  0  0  0  0  0  0  0  0  0  0
    1.4955   -1.7838    0.1409 H   0  0  0  0  0  0  0  0  0  0  0  0
    2.1553   -0.9687    1.6627 H   0  0  0  0  0  0  0  0  0  0  0  0
    0.6199   -1.9344    1.6753 H   0  0  0  0  0  0  0  0  0  0  0  0
   -0.3679   -1.1074   -1.0038 H   0  0  0  0  0  0  0  0  0  0  0  0
   -2.2994    0.1597   -1.4221 H   0  0  0  0  0  0  0  0  0  0  0  0
   -1.4113    1.5895   -0.5954 H   0  0  0  0  0  0  0  0  0  0  0  0
   -2.1200    0.7180    1.6196 H   0  0  0  0  0  0  0  0  0  0  0  0
   -3.5364    0.1369    0.5957 H   0  0  0  0  0  0  0  0  0  0  0  0
  1  2  1  0
  2  3  1  0
  3  4  1  0
  3  5  1  0
  5  6  1  0
  6  7  1  0
  7  8  1  0
  8  9  2  0
  8  5  1  0
  1 10  1  0
  1 11  1  0
  1 12  1  0
  2 13  1  0
  2 14  1  0
  3 15  1  0
  4 16  1  0
  4 17  1  0
  4 18  1  0
  5 19  1  0
  6 20  1  0
  6 21  1  0
  7 22  1  0
  7 23  1  0
M  END
