
     RDKit          3D

 25 24  0  0  0  0  0  0  0  0999 V2000
    2.8363    0.4050    1.2145 C   0  0  0  0  0  0  0  0  0  0  0  0
    1.4034    0.7299    0.7850 C   0  0  0  0  0  0  0  0  0  0  0  0
    0.7974   -0.3738    0.0156 C   0  0  0  0  0  0  0  0  0  0  0  0
    1.5108   -1.3955   -0.0598 O   0  0  0  0  0  0  0  0  0  0  0  0
   -0.4958   -0.4127   -0.6504 C   0  0  0  0  0  0  0  0  0  0  0  0
   -0.6496    0.6733   -1.7071 C   0  0  0  0  0  0  0  0  0  0  0  0
   -0.5793   -1.7224   -1.4441 C   0  0  0  0  0  0  0  0  0  0  0  0
   -1.6097   -0.3781    0.3429 C   0  0  0  0  0  0  0  0  0  0  0  0
   -1.6796    0.8252    1.2029 C   0  0  0  0  0  0  0  0  0  0  0  0
    2.8552   -0.6397    1.5375 H   0  0  0  0  0  0  0  0  0  0  0  0
    3.1225    1.0217    2.0879 H   0  0  0  0  0  0  0  0  0  0  0  0
    3.5603    0.6176    0.4149 H   0  0  0  0  0  0  0  0  0  0  0  0
    1.3422    1.6494    0.2100 H   0  0  0  0  0  0  0  0  0  0  0  0
    0.8590    0.8326    1.7632 H   0  0  0  0  0  0  0  0  0  0  0  0
    0.2467    0.6295   -2.3381 H   0  0  0  0  0  0  0  0  0  0  0  0
   -1.5010    0.3194   -2.3570 H   0  0  0  0  0  0  0  0  0  0  0  0
   -0.8864    1.6517   -1.2862 H   0  0  0  0  0  0  0  0  0  0  0  0
   -1.3123   -2.3969   -0.9547 H   0  0  0  0  0  0  0  0  0  0  0  0
    0.4369   -2.1948   -1.5298 H   0  0  0  0  0  0  0  0  0  0  0  0
   -0.9155   -1.5636   -2.4869 H   0  0  0  0  0  0  0  0  0  0  0  0
   -2.5911   -0.5722   -0.1450 H   0  0  0  0  0  0  0  0  0  0  0  0
   -1.4534   -1.2640    1.0267 H   0  0  0  0  0  0  0  0  0  0  0  0
   -1.1118    1.7085    0.8446 H   0  0  0  0  0  0  0  0  0  0  0  0
   -1.4216    0.6629    2.2785 H   0  0  0  0  0  0  0  0  0  0  0  0
   -2.7635    1.1869    1.2350 H   0  0  0  0  0  0  0  0  0  0  0  0
  1  2  1  0
  2  3  1  0
  3  4  2  0
  3  5  1  0
  5  6  1  0
  5  7  1  0
  5  8  1  0
  8  9  1  0
  1 10  1  0
  1 11  1  0
  1 12  1  0
  2 13  1  0
  2 14  1  0
  6 15  1  0
  6 16  1  0
  6 17  1  0
  7 18  1  0
  7 19  1  0
  7 20  1  0
  8 21  1  0
  8 22  1  0
  9 23  1  0
  9 24  1  0
  9 25  1  0
M  END
