
     RDKit          3D

 23 23  0  0  0  0  0  0  0  0999 V2000
    2.3633    0.6509    0.0994 C   0  0  0  0  0  0  0  0  0  0  0  0
    1.2780    0.2235    1.0281 C   0  0  0  0  0  0  0  0  0  0  0  0
    0.1411   -0.4917    0.3502 C   0  0  0  0  0  0  0  0  0  0  0  0
    0.6867   -1.7291   -0.3209 C   0  0  0  0  0  0  0  0  0  0  0  0
   -0.7481   -0.8903    1.3731 O   0  0  0  0  0  0  0  0  0  0  0  0
   -0.5815    0.3494   -0.6464 C   0  0  0  0  0  0  0  0  0  0  0  0
   -1.2430    1.6186   -0.1931 C   0  0  0  0  0  0  0  0  0  0  0  0
   -2.0761    0.4177   -0.6073 C   0  0  0  0  0  0  0  0  0  0  0  0
   -2.7811   -0.2780    0.3629 O   0  0  0  0  0  0  0  0  0  0  0  0
    3.3205    0.2274    0.4757 H   0  0  0  0  0  0  0  0  0  0  0  0
    2.4993    1.7545    0.0816 H   0  0  0  0  0  0  0  0  0  0  0  0
    2.2303    0.2935   -0.9417 H   0  0  0  0  0  0  0  0  0  0  0  0
    1.6519   -0.4143    1.8561 H   0  0  0  0  0  0  0  0  0  0  0  0
    0.8856    1.1506    1.5364 H   0  0  0  0  0  0  0  0  0  0  0  0
    0.5353   -2.6382    0.3274 H   0  0  0  0  0  0  0  0  0  0  0  0
    0.1883   -1.8774   -1.3183 H   0  0  0  0  0  0  0  0  0  0  0  0
    1.7749   -1.6510   -0.4813 H   0  0  0  0  0  0  0  0  0  0  0  0
   -1.1565   -1.7571    1.1724 H   0  0  0  0  0  0  0  0  0  0  0  0
   -0.1645    0.2918   -1.6786 H   0  0  0  0  0  0  0  0  0  0  0  0
   -1.1854    2.4870   -0.8533 H   0  0  0  0  0  0  0  0  0  0  0  0
   -1.2389    1.7922    0.8921 H   0  0  0  0  0  0  0  0  0  0  0  0
   -2.6382    0.5244   -1.5702 H   0  0  0  0  0  0  0  0  0  0  0  0
   -3.7419   -0.0547    0.2565 H   0  0  0  0  0  0  0  0  0  0  0  0
  1  2  1  0
  2  3  1  0
  3  4  1  0
  3  5  1  0
  3  6  1  0
  6  7  1  0
  7  8  1  0
  8  9  1  0
  8  6  1  0
  1 10  1  0
  1 11  1  0
  1 12  1  0
  2 13  1  0
  2 14  1  0
  4 15  1  0
  4 16  1  0
  4 17  1  0
  5 18  1  0
  6 19  1  0
  7 20  1  0
  7 21  1  0
  8 22  1  0
  9 23  1  0
M  END
