
     RDKit          3D

 24 23  0  0  0  0  0  0  0  0999 V2000
    1.4913   -1.5790   -0.5855 C   0  0  0  0  0  0  0  0  0  0  0  0
    1.4785   -0.1753   -0.1313 C   0  0  0  0  0  0  0  0  0  0  0  0
    0.2648    0.6154   -0.4238 C   0  0  0  0  0  0  0  0  0  0  0  0
    0.4947    2.0226    0.1415 C   0  0  0  0  0  0  0  0  0  0  0  0
    0.1037    0.7801   -1.7966 O   0  0  0  0  0  0  0  0  0  0  0  0
   -1.0093    0.1159    0.1511 C   0  0  0  0  0  0  0  0  0  0  0  0
   -0.9994    0.0361    1.6501 C   0  0  0  0  0  0  0  0  0  0  0  0
   -1.5174   -1.1573   -0.4908 C   0  0  0  0  0  0  0  0  0  0  0  0
    0.9028   -1.8172   -1.4705 H   0  0  0  0  0  0  0  0  0  0  0  0
    2.5587   -1.8470   -0.8465 H   0  0  0  0  0  0  0  0  0  0  0  0
    1.2591   -2.2700    0.2773 H   0  0  0  0  0  0  0  0  0  0  0  0
    1.6990   -0.1326    0.9760 H   0  0  0  0  0  0  0  0  0  0  0  0
    2.3490    0.3814   -0.5880 H   0  0  0  0  0  0  0  0  0  0  0  0
    1.3086    1.9972    0.9253 H   0  0  0  0  0  0  0  0  0  0  0  0
    0.7659    2.7409   -0.6453 H   0  0  0  0  0  0  0  0  0  0  0  0
   -0.4019    2.4000    0.6682 H   0  0  0  0  0  0  0  0  0  0  0  0
   -0.7310    1.2900   -1.9232 H   0  0  0  0  0  0  0  0  0  0  0  0
   -1.7875    0.8995   -0.1060 H   0  0  0  0  0  0  0  0  0  0  0  0
   -1.3753    0.9923    2.1207 H   0  0  0  0  0  0  0  0  0  0  0  0
   -0.0094   -0.1370    2.0897 H   0  0  0  0  0  0  0  0  0  0  0  0
   -1.7142   -0.7577    1.9641 H   0  0  0  0  0  0  0  0  0  0  0  0
   -1.1114   -2.0715   -0.0297 H   0  0  0  0  0  0  0  0  0  0  0  0
   -1.3838   -1.1034   -1.5873 H   0  0  0  0  0  0  0  0  0  0  0  0
   -2.6357   -1.2235   -0.3395 H   0  0  0  0  0  0  0  0  0  0  0  0
  1  2  1  0
  2  3  1  0
  3  4  1  0
  3  5  1  0
  3  6  1  0
  6  7  1  0
  6  8  1  0
  1  9  1  0
  1 10  1  0
  1 11  1  0
  2 12  1  0
  2 13  1  0
  4 14  1  0
  4 15  1  0
  4 16  1  0
  5 17  1  0
  6 18  1  0
  7 19  1  0
  7 20  1  0
  7 21  1  0
  8 22  1  0
  8 23  1  0
  8 24  1  0
M  END
