
     RDKit          3D

 21 21  0  0  0  0  0  0  0  0999 V2000
    2.6360    0.4000   -0.8035 C   0  0  0  0  0  0  0  0  0  0  0  0
    2.0505    0.0790    0.5262 C   0  0  0  0  0  0  0  0  0  0  0  0
    0.7806   -0.6710    0.4604 C   0  0  0  0  0  0  0  0  0  0  0  0
    0.7519   -1.8728    0.2345 O   0  0  0  0  0  0  0  0  0  0  0  0
   -0.5241    0.0019    0.6666 C   0  0  0  0  0  0  0  0  0  0  0  0
   -1.6868   -0.9549    0.5535 C   0  0  0  0  0  0  0  0  0  0  0  0
   -2.7528   -0.0228   -0.0271 C   0  0  0  0  0  0  0  0  0  0  0  0
   -2.1236    1.1244   -0.4326 O   0  0  0  0  0  0  0  0  0  0  0  0
   -0.7902    0.8420   -0.5946 C   0  0  0  0  0  0  0  0  0  0  0  0
    3.7224    0.1806   -0.8352 H   0  0  0  0  0  0  0  0  0  0  0  0
    2.1667   -0.1400   -1.6423 H   0  0  0  0  0  0  0  0  0  0  0  0
    2.5615    1.5015   -1.0225 H   0  0  0  0  0  0  0  0  0  0  0  0
    2.8096   -0.5363    1.0846 H   0  0  0  0  0  0  0  0  0  0  0  0
    1.8882    1.0099    1.1286 H   0  0  0  0  0  0  0  0  0  0  0  0
   -0.5693    0.6170    1.5798 H   0  0  0  0  0  0  0  0  0  0  0  0
   -1.9856   -1.4110    1.4914 H   0  0  0  0  0  0  0  0  0  0  0  0
   -1.4082   -1.6912   -0.2329 H   0  0  0  0  0  0  0  0  0  0  0  0
   -3.4743    0.1995    0.8124 H   0  0  0  0  0  0  0  0  0  0  0  0
   -3.2710   -0.5037   -0.8890 H   0  0  0  0  0  0  0  0  0  0  0  0
   -0.6468    0.1402   -1.4510 H   0  0  0  0  0  0  0  0  0  0  0  0
   -0.1346    1.7079   -0.6075 H   0  0  0  0  0  0  0  0  0  0  0  0
  1  2  1  0
  2  3  1  0
  3  4  2  0
  3  5  1  0
  5  6  1  0
  6  7  1  0
  7  8  1  0
  8  9  1  0
  9  5  1  0
  1 10  1  0
  1 11  1  0
  1 12  1  0
  2 13  1  0
  2 14  1  0
  5 15  1  0
  6 16  1  0
  6 17  1  0
  7 18  1  0
  7 19  1  0
  9 20  1  0
  9 21  1  0
M  END
