
     RDKit          3D

 27 26  0  0  0  0  0  0  0  0999 V2000
    1.5683    1.7341   -0.2111 C   0  0  0  0  0  0  0  0  0  0  0  0
    1.2498    0.6415    0.7786 C   0  0  0  0  0  0  0  0  0  0  0  0
    0.3807   -0.4352    0.2440 C   0  0  0  0  0  0  0  0  0  0  0  0
    0.1849   -1.4358    1.4007 C   0  0  0  0  0  0  0  0  0  0  0  0
    1.1223   -1.2355   -0.8221 C   0  0  0  0  0  0  0  0  0  0  0  0
   -0.9594   -0.0991   -0.2375 C   0  0  0  0  0  0  0  0  0  0  0  0
   -1.1257    0.8571   -1.3549 C   0  0  0  0  0  0  0  0  0  0  0  0
   -1.8855    0.3464    0.9082 C   0  0  0  0  0  0  0  0  0  0  0  0
   -1.5518   -1.3111   -0.6859 O   0  0  0  0  0  0  0  0  0  0  0  0
    1.4915    1.4226   -1.2615 H   0  0  0  0  0  0  0  0  0  0  0  0
    0.8985    2.6108    0.0168 H   0  0  0  0  0  0  0  0  0  0  0  0
    2.6098    2.1141    0.0133 H   0  0  0  0  0  0  0  0  0  0  0  0
    2.2475    0.2093    1.0934 H   0  0  0  0  0  0  0  0  0  0  0  0
    0.8737    1.1246    1.6990 H   0  0  0  0  0  0  0  0  0  0  0  0
    1.1402   -1.9792    1.5239 H   0  0  0  0  0  0  0  0  0  0  0  0
   -0.5651   -2.2073    1.0823 H   0  0  0  0  0  0  0  0  0  0  0  0
   -0.1314   -0.8660    2.2761 H   0  0  0  0  0  0  0  0  0  0  0  0
    2.1782   -1.4163   -0.5433 H   0  0  0  0  0  0  0  0  0  0  0  0
    0.9942   -0.8248   -1.8258 H   0  0  0  0  0  0  0  0  0  0  0  0
    0.6405   -2.2536   -0.8385 H   0  0  0  0  0  0  0  0  0  0  0  0
   -1.0719    1.9142   -1.1270 H   0  0  0  0  0  0  0  0  0  0  0  0
   -2.1829    0.7068   -1.7419 H   0  0  0  0  0  0  0  0  0  0  0  0
   -0.5092    0.5759   -2.2550 H   0  0  0  0  0  0  0  0  0  0  0  0
   -2.1672   -0.5357    1.5058 H   0  0  0  0  0  0  0  0  0  0  0  0
   -1.4445    1.1691    1.4868 H   0  0  0  0  0  0  0  0  0  0  0  0
   -2.8382    0.7207    0.4517 H   0  0  0  0  0  0  0  0  0  0  0  0
   -1.1473   -1.5477   -1.5760 H   0  0  0  0  0  0  0  0  0  0  0  0
  1  2  1  0
  2  3  1  0
  3  4  1  0
  3  5  1  0
  3  6  1  0
  6  7  1  0
  6  8  1  0
  6  9  1  0
  1 10  1  0
  1 11  1  0
  1 12  1  0
  2 13  1  0
  2 14  1  0
  4 15  1  0
  4 16  1  0
  4 17  1  0
  5 18  1  0
  5 19  1  0
  5 20  1  0
  7 21  1  0
  7 22  1  0
  7 23  1  0
  8 24  1  0
  8 25  1  0
  8 26  1  0
  9 27  1  0
M  END
