
     RDKit          3D

 21 20  0  0  0  0  0  0  0  0999 V2000
   -1.9906    0.9641    0.8036 C   0  0  0  0  0  0  0  0  0  0  0  0
   -1.6912   -0.3525    0.1690 C   0  0  0  0  0  0  0  0  0  0  0  0
   -0.4576   -0.3440   -0.6972 C   0  0  0  0  0  0  0  0  0  0  0  0
   -0.3172   -1.7676   -1.2543 C   0  0  0  0  0  0  0  0  0  0  0  0
   -0.1775   -2.6018   -0.1302 O   0  0  0  0  0  0  0  0  0  0  0  0
    0.7103   -0.0395    0.0444 O   0  0  0  0  0  0  0  0  0  0  0  0
    1.5321    0.9815   -0.3556 C   0  0  0  0  0  0  0  0  0  0  0  0
    2.7851    1.3655    0.3746 C   0  0  0  0  0  0  0  0  0  0  0  0
    1.2083    1.6258   -1.3938 O   0  0  0  0  0  0  0  0  0  0  0  0
   -1.7096    0.9094    1.8792 H   0  0  0  0  0  0  0  0  0  0  0  0
   -1.5847    1.8369    0.2858 H   0  0  0  0  0  0  0  0  0  0  0  0
   -3.1131    1.0822    0.8115 H   0  0  0  0  0  0  0  0  0  0  0  0
   -2.5276   -0.7211   -0.4724 H   0  0  0  0  0  0  0  0  0  0  0  0
   -1.5417   -1.1425    0.9392 H   0  0  0  0  0  0  0  0  0  0  0  0
   -0.5785    0.3231   -1.5720 H   0  0  0  0  0  0  0  0  0  0  0  0
   -1.2025   -2.0696   -1.8108 H   0  0  0  0  0  0  0  0  0  0  0  0
    0.6276   -1.8467   -1.8103 H   0  0  0  0  0  0  0  0  0  0  0  0
    0.7290   -2.4697    0.2904 H   0  0  0  0  0  0  0  0  0  0  0  0
    2.7986    0.8968    1.3756 H   0  0  0  0  0  0  0  0  0  0  0  0
    2.8825    2.4714    0.4115 H   0  0  0  0  0  0  0  0  0  0  0  0
    3.6182    0.8985   -0.2056 H   0  0  0  0  0  0  0  0  0  0  0  0
  1  2  1  0
  2  3  1  0
  3  4  1  0
  4  5  1  0
  3  6  1  0
  6  7  1  0
  7  8  1  0
  7  9  2  0
  1 10  1  0
  1 11  1  0
  1 12  1  0
  2 13  1  0
  2 14  1  0
  3 15  1  0
  4 16  1  0
  4 17  1  0
  5 18  1  0
  8 19  1  0
  8 20  1  0
  8 21  1  0
M  END
