
     RDKit          3D

 25 25  0  0  0  0  0  0  0  0999 V2000
    2.3226   -1.1393   -0.7218 C   0  0  0  0  0  0  0  0  0  0  0  0
    2.0884    0.3098   -0.3330 C   0  0  0  0  0  0  0  0  0  0  0  0
    0.9421    0.3127    0.6580 C   0  0  0  0  0  0  0  0  0  0  0  0
    0.6978    1.7442    1.0532 C   0  0  0  0  0  0  0  0  0  0  0  0
   -0.2800   -0.3015    0.0166 C   0  0  0  0  0  0  0  0  0  0  0  0
   -1.4640   -0.3283    0.9592 C   0  0  0  0  0  0  0  0  0  0  0  0
   -2.5900   -0.6055   -0.0447 C   0  0  0  0  0  0  0  0  0  0  0  0
   -2.0258   -0.0136   -1.2966 C   0  0  0  0  0  0  0  0  0  0  0  0
   -0.7619    0.4567   -1.0305 O   0  0  0  0  0  0  0  0  0  0  0  0
    3.3573   -1.3235   -1.0560 H   0  0  0  0  0  0  0  0  0  0  0  0
    1.5777   -1.3628   -1.5230 H   0  0  0  0  0  0  0  0  0  0  0  0
    2.0324   -1.8144    0.1335 H   0  0  0  0  0  0  0  0  0  0  0  0
    3.0027    0.7369    0.1028 H   0  0  0  0  0  0  0  0  0  0  0  0
    1.8573    0.8581   -1.2514 H   0  0  0  0  0  0  0  0  0  0  0  0
    1.2511   -0.2494    1.5537 H   0  0  0  0  0  0  0  0  0  0  0  0
    1.7083    2.1841    1.2807 H   0  0  0  0  0  0  0  0  0  0  0  0
    0.1158    1.8381    1.9885 H   0  0  0  0  0  0  0  0  0  0  0  0
    0.2481    2.3440    0.2609 H   0  0  0  0  0  0  0  0  0  0  0  0
   -0.1079   -1.3337   -0.3176 H   0  0  0  0  0  0  0  0  0  0  0  0
   -1.5943    0.6968    1.3869 H   0  0  0  0  0  0  0  0  0  0  0  0
   -1.3922   -1.1105    1.7225 H   0  0  0  0  0  0  0  0  0  0  0  0
   -2.7454   -1.7192   -0.1173 H   0  0  0  0  0  0  0  0  0  0  0  0
   -3.5429   -0.1799    0.2707 H   0  0  0  0  0  0  0  0  0  0  0  0
   -1.9685   -0.8083   -2.0840 H   0  0  0  0  0  0  0  0  0  0  0  0
   -2.7287    0.8085   -1.6114 H   0  0  0  0  0  0  0  0  0  0  0  0
  1  2  1  0
  2  3  1  0
  3  4  1  0
  3  5  1  0
  5  6  1  0
  6  7  1  0
  7  8  1  0
  8  9  1  0
  9  5  1  0
  1 10  1  0
  1 11  1  0
  1 12  1  0
  2 13  1  0
  2 14  1  0
  3 15  1  0
  4 16  1  0
  4 17  1  0
  4 18  1  0
  5 19  1  0
  6 20  1  0
  6 21  1  0
  7 22  1  0
  7 23  1  0
  8 24  1  0
  8 25  1  0
M  END
