
     RDKit          3D

 21 20  0  0  0  0  0  0  0  0999 V2000
   -2.2729    0.0057   -0.0119 C   0  0  0  0  0  0  0  0  0  0  0  0
   -0.9863   -0.3430    0.6861 C   0  0  0  0  0  0  0  0  0  0  0  0
    0.2290   -0.1154   -0.1528 C   0  0  0  0  0  0  0  0  0  0  0  0
    0.2197   -0.9241   -1.4032 C   0  0  0  0  0  0  0  0  0  0  0  0
   -0.1641   -0.4659   -2.4632 O   0  0  0  0  0  0  0  0  0  0  0  0
    1.4315   -0.5592    0.6558 C   0  0  0  0  0  0  0  0  0  0  0  0
    2.6234   -0.3864   -0.0420 O   0  0  0  0  0  0  0  0  0  0  0  0
    0.4343    1.3297   -0.5206 C   0  0  0  0  0  0  0  0  0  0  0  0
    0.5895    2.1788    0.5654 O   0  0  0  0  0  0  0  0  0  0  0  0
   -3.0843   -0.0750    0.7446 H   0  0  0  0  0  0  0  0  0  0  0  0
   -2.2540    1.0514   -0.4118 H   0  0  0  0  0  0  0  0  0  0  0  0
   -2.5270   -0.7283   -0.8100 H   0  0  0  0  0  0  0  0  0  0  0  0
   -1.0595   -1.4462    0.9180 H   0  0  0  0  0  0  0  0  0  0  0  0
   -0.9443    0.1626    1.6449 H   0  0  0  0  0  0  0  0  0  0  0  0
    0.5687   -1.9462   -1.3442 H   0  0  0  0  0  0  0  0  0  0  0  0
    1.4212    0.0287    1.5959 H   0  0  0  0  0  0  0  0  0  0  0  0
    1.2533   -1.6197    0.9235 H   0  0  0  0  0  0  0  0  0  0  0  0
    3.2696   -1.0396    0.3710 H   0  0  0  0  0  0  0  0  0  0  0  0
    1.3422    1.4632   -1.1497 H   0  0  0  0  0  0  0  0  0  0  0  0
   -0.4062    1.7068   -1.1759 H   0  0  0  0  0  0  0  0  0  0  0  0
    0.3163    1.7220    1.3802 H   0  0  0  0  0  0  0  0  0  0  0  0
  1  2  1  0
  2  3  1  0
  3  4  1  0
  4  5  2  0
  3  6  1  0
  6  7  1  0
  3  8  1  0
  8  9  1  0
  1 10  1  0
  1 11  1  0
  1 12  1  0
  2 13  1  0
  2 14  1  0
  4 15  1  0
  6 16  1  0
  6 17  1  0
  7 18  1  0
  8 19  1  0
  8 20  1  0
  9 21  1  0
M  END
