
     RDKit          3D

 20 19  0  0  0  0  0  0  0  0999 V2000
    2.1239    0.7921    0.4037 C   0  0  0  0  0  0  0  0  0  0  0  0
    1.7946   -0.4269   -0.3950 C   0  0  0  0  0  0  0  0  0  0  0  0
    0.3729   -0.6034   -0.6999 C   0  0  0  0  0  0  0  0  0  0  0  0
    0.0602   -1.5800   -1.3705 O   0  0  0  0  0  0  0  0  0  0  0  0
   -0.6864    0.3237   -0.2454 C   0  0  0  0  0  0  0  0  0  0  0  0
   -0.6907    0.3498    1.2660 C   0  0  0  0  0  0  0  0  0  0  0  0
   -2.0521   -0.0888   -0.7110 C   0  0  0  0  0  0  0  0  0  0  0  0
   -2.3459   -1.3573   -0.2107 O   0  0  0  0  0  0  0  0  0  0  0  0
    2.4513    0.5516    1.4463 H   0  0  0  0  0  0  0  0  0  0  0  0
    1.3016    1.5321    0.4242 H   0  0  0  0  0  0  0  0  0  0  0  0
    2.9939    1.2940   -0.0663 H   0  0  0  0  0  0  0  0  0  0  0  0
    2.2087   -1.3166    0.1264 H   0  0  0  0  0  0  0  0  0  0  0  0
    2.3225   -0.3616   -1.3779 H   0  0  0  0  0  0  0  0  0  0  0  0
   -0.4494    1.3543   -0.6033 H   0  0  0  0  0  0  0  0  0  0  0  0
   -1.5890   -0.2016    1.6429 H   0  0  0  0  0  0  0  0  0  0  0  0
   -0.7741    1.3861    1.6153 H   0  0  0  0  0  0  0  0  0  0  0  0
    0.1883   -0.1911    1.6678 H   0  0  0  0  0  0  0  0  0  0  0  0
   -2.7838    0.6137   -0.2234 H   0  0  0  0  0  0  0  0  0  0  0  0
   -2.2052   -0.0071   -1.7902 H   0  0  0  0  0  0  0  0  0  0  0  0
   -2.2412   -2.0632   -0.8991 H   0  0  0  0  0  0  0  0  0  0  0  0
  1  2  1  0
  2  3  1  0
  3  4  2  0
  3  5  1  0
  5  6  1  0
  5  7  1  0
  7  8  1  0
  1  9  1  0
  1 10  1  0
  1 11  1  0
  2 12  1  0
  2 13  1  0
  5 14  1  0
  6 15  1  0
  6 16  1  0
  6 17  1  0
  7 18  1  0
  7 19  1  0
  8 20  1  0
M  END
