
     RDKit          3D

 19 18  0  0  0  0  0  0  0  0999 V2000
    1.6761   -0.7145   -0.0022 C   0  0  0  0  0  0  0  0  0  0  0  0
    0.9489    0.1476   -0.9575 C   0  0  0  0  0  0  0  0  0  0  0  0
   -0.3554    0.7037   -0.4435 C   0  0  0  0  0  0  0  0  0  0  0  0
   -0.8528    1.4738   -1.4977 O   0  0  0  0  0  0  0  0  0  0  0  0
   -0.2046    1.5627    0.7332 C   0  0  0  0  0  0  0  0  0  0  0  0
   -0.5044    2.7396    0.6572 O   0  0  0  0  0  0  0  0  0  0  0  0
   -1.3369   -0.3592   -0.1400 C   0  0  0  0  0  0  0  0  0  0  0  0
   -1.1659   -1.3785    0.9276 C   0  0  0  0  0  0  0  0  0  0  0  0
   -2.3629   -0.4292   -0.7910 O   0  0  0  0  0  0  0  0  0  0  0  0
    1.7440   -0.3195    1.0276 H   0  0  0  0  0  0  0  0  0  0  0  0
    2.7409   -0.8324   -0.3383 H   0  0  0  0  0  0  0  0  0  0  0  0
    1.2791   -1.7468    0.0762 H   0  0  0  0  0  0  0  0  0  0  0  0
    1.5865    0.9855   -1.3060 H   0  0  0  0  0  0  0  0  0  0  0  0
    0.7051   -0.4591   -1.8638 H   0  0  0  0  0  0  0  0  0  0  0  0
   -0.5205    2.4213   -1.4546 H   0  0  0  0  0  0  0  0  0  0  0  0
    0.1620    1.2404    1.7027 H   0  0  0  0  0  0  0  0  0  0  0  0
   -0.9867   -2.4068    0.5005 H   0  0  0  0  0  0  0  0  0  0  0  0
   -2.1365   -1.4990    1.4934 H   0  0  0  0  0  0  0  0  0  0  0  0
   -0.4158   -1.1296    1.6760 H   0  0  0  0  0  0  0  0  0  0  0  0
  1  2  1  0
  2  3  1  0
  3  4  1  0
  3  5  1  0
  5  6  2  0
  3  7  1  0
  7  8  1  0
  7  9  2  0
  1 10  1  0
  1 11  1  0
  1 12  1  0
  2 13  1  0
  2 14  1  0
  4 15  1  0
  5 16  1  0
  8 17  1  0
  8 18  1  0
  8 19  1  0
M  END
