
     RDKit          3D

 23 22  0  0  0  0  0  0  0  0999 V2000
   -1.8502   -0.5435    1.0286 C   0  0  0  0  0  0  0  0  0  0  0  0
   -1.2819   -0.8206   -0.3157 C   0  0  0  0  0  0  0  0  0  0  0  0
   -0.2270    0.1093   -0.7972 C   0  0  0  0  0  0  0  0  0  0  0  0
   -0.6908    1.5527   -0.9014 C   0  0  0  0  0  0  0  0  0  0  0  0
   -1.1016    2.0164    0.3423 O   0  0  0  0  0  0  0  0  0  0  0  0
    1.0644    0.0783   -0.0553 C   0  0  0  0  0  0  0  0  0  0  0  0
    0.9506    0.3927    1.2762 O   0  0  0  0  0  0  0  0  0  0  0  0
    1.8316   -1.2164   -0.2727 C   0  0  0  0  0  0  0  0  0  0  0  0
    3.0919   -1.0538    0.2604 O   0  0  0  0  0  0  0  0  0  0  0  0
   -2.5063   -1.4219    1.2969 H   0  0  0  0  0  0  0  0  0  0  0  0
   -1.1406   -0.4395    1.8471 H   0  0  0  0  0  0  0  0  0  0  0  0
   -2.5500    0.3295    1.0434 H   0  0  0  0  0  0  0  0  0  0  0  0
   -0.8533   -1.8449   -0.3260 H   0  0  0  0  0  0  0  0  0  0  0  0
   -2.1253   -0.7670   -1.0529 H   0  0  0  0  0  0  0  0  0  0  0  0
    0.0159   -0.2250   -1.8526 H   0  0  0  0  0  0  0  0  0  0  0  0
   -1.5364    1.6744   -1.6019 H   0  0  0  0  0  0  0  0  0  0  0  0
    0.1963    2.1462   -1.1979 H   0  0  0  0  0  0  0  0  0  0  0  0
   -0.8388    2.9534    0.4976 H   0  0  0  0  0  0  0  0  0  0  0  0
    1.7127    0.8796   -0.5177 H   0  0  0  0  0  0  0  0  0  0  0  0
    1.3855   -0.2488    1.8910 H   0  0  0  0  0  0  0  0  0  0  0  0
    1.8776   -1.3622   -1.3891 H   0  0  0  0  0  0  0  0  0  0  0  0
    1.3110   -2.0609    0.2061 H   0  0  0  0  0  0  0  0  0  0  0  0
    3.2647   -0.1279    0.5908 H   0  0  0  0  0  0  0  0  0  0  0  0
  1  2  1  0
  2  3  1  0
  3  4  1  0
  4  5  1  0
  3  6  1  0
  6  7  1  0
  6  8  1  0
  8  9  1  0
  1 10  1  0
  1 11  1  0
  1 12  1  0
  2 13  1  0
  2 14  1  0
  3 15  1  0
  4 16  1  0
  4 17  1  0
  5 18  1  0
  6 19  1  0
  7 20  1  0
  8 21  1  0
  8 22  1  0
  9 23  1  0
M  END
