
     RDKit          3D

 20 19  0  0  0  0  0  0  0  0999 V2000
   -1.3329    0.0129    1.3479 C   0  0  0  0  0  0  0  0  0  0  0  0
   -1.2862    0.4993   -0.0557 C   0  0  0  0  0  0  0  0  0  0  0  0
   -0.0681    0.0627   -0.8397 C   0  0  0  0  0  0  0  0  0  0  0  0
    0.0015   -1.4363   -0.9127 C   0  0  0  0  0  0  0  0  0  0  0  0
   -0.3136    0.5081   -2.1629 O   0  0  0  0  0  0  0  0  0  0  0  0
    1.1216    0.7132   -0.3017 C   0  0  0  0  0  0  0  0  0  0  0  0
    1.7257    0.5050    1.0115 C   0  0  0  0  0  0  0  0  0  0  0  0
    1.6915    1.5382   -1.0363 O   0  0  0  0  0  0  0  0  0  0  0  0
   -2.3346   -0.4369    1.5567 H   0  0  0  0  0  0  0  0  0  0  0  0
   -0.5175   -0.6848    1.5580 H   0  0  0  0  0  0  0  0  0  0  0  0
   -1.2701    0.8782    2.0557 H   0  0  0  0  0  0  0  0  0  0  0  0
   -2.1799    0.1515   -0.6387 H   0  0  0  0  0  0  0  0  0  0  0  0
   -1.2951    1.6219   -0.0958 H   0  0  0  0  0  0  0  0  0  0  0  0
   -0.3034   -1.9628   -0.0038 H   0  0  0  0  0  0  0  0  0  0  0  0
    1.0467   -1.7308   -1.1299 H   0  0  0  0  0  0  0  0  0  0  0  0
   -0.6875   -1.7786   -1.7203 H   0  0  0  0  0  0  0  0  0  0  0  0
    0.3331    0.0395   -2.7627 H   0  0  0  0  0  0  0  0  0  0  0  0
    1.0969    1.0741    1.7567 H   0  0  0  0  0  0  0  0  0  0  0  0
    2.7222    0.9831    1.0753 H   0  0  0  0  0  0  0  0  0  0  0  0
    1.8498   -0.5575    1.2983 H   0  0  0  0  0  0  0  0  0  0  0  0
  1  2  1  0
  2  3  1  0
  3  4  1  0
  3  5  1  0
  3  6  1  0
  6  7  1  0
  6  8  2  0
  1  9  1  0
  1 10  1  0
  1 11  1  0
  2 12  1  0
  2 13  1  0
  4 14  1  0
  4 15  1  0
  4 16  1  0
  5 17  1  0
  7 18  1  0
  7 19  1  0
  7 20  1  0
M  END
