
     RDKit          3D

 23 22  0  0  0  0  0  0  0  0999 V2000
   -2.9259    0.4428   -0.6899 C   0  0  0  0  0  0  0  0  0  0  0  0
   -1.4719    0.1215   -0.9436 C   0  0  0  0  0  0  0  0  0  0  0  0
   -0.6795    0.3400    0.3267 C   0  0  0  0  0  0  0  0  0  0  0  0
   -1.1314   -0.4699    1.3646 O   0  0  0  0  0  0  0  0  0  0  0  0
    0.7789   -0.0057    0.1121 C   0  0  0  0  0  0  0  0  0  0  0  0
    0.9626   -1.4925   -0.1888 C   0  0  0  0  0  0  0  0  0  0  0  0
    2.3624   -1.6844   -0.2443 O   0  0  0  0  0  0  0  0  0  0  0  0
    1.3616    0.7346   -0.9047 O   0  0  0  0  0  0  0  0  0  0  0  0
    2.3852    1.5092   -0.3678 C   0  0  0  0  0  0  0  0  0  0  0  0
   -3.5577   -0.4703   -0.6433 H   0  0  0  0  0  0  0  0  0  0  0  0
   -3.2888    1.1248   -1.5033 H   0  0  0  0  0  0  0  0  0  0  0  0
   -3.0632    1.0363    0.2572 H   0  0  0  0  0  0  0  0  0  0  0  0
   -1.3724   -0.9429   -1.2443 H   0  0  0  0  0  0  0  0  0  0  0  0
   -1.0591    0.7394   -1.7407 H   0  0  0  0  0  0  0  0  0  0  0  0
   -0.7129    1.4049    0.6123 H   0  0  0  0  0  0  0  0  0  0  0  0
   -1.3608   -1.3593    1.0320 H   0  0  0  0  0  0  0  0  0  0  0  0
    1.2838    0.2129    1.0990 H   0  0  0  0  0  0  0  0  0  0  0  0
    0.4954   -1.7533   -1.1402 H   0  0  0  0  0  0  0  0  0  0  0  0
    0.5487   -2.0280    0.6905 H   0  0  0  0  0  0  0  0  0  0  0  0
    2.5683   -2.5555    0.1769 H   0  0  0  0  0  0  0  0  0  0  0  0
    1.9002    2.1760    0.4015 H   0  0  0  0  0  0  0  0  0  0  0  0
    3.0477    0.8351    0.2201 H   0  0  0  0  0  0  0  0  0  0  0  0
    2.9287    2.0844   -1.1260 H   0  0  0  0  0  0  0  0  0  0  0  0
  1  2  1  0
  2  3  1  0
  3  4  1  0
  3  5  1  0
  5  6  1  0
  6  7  1  0
  5  8  1  0
  8  9  1  0
  1 10  1  0
  1 11  1  0
  1 12  1  0
  2 13  1  0
  2 14  1  0
  3 15  1  0
  4 16  1  0
  5 17  1  0
  6 18  1  0
  6 19  1  0
  7 20  1  0
  9 21  1  0
  9 22  1  0
  9 23  1  0
M  END
