
     RDKit          3D

 25 24  0  0  0  0  0  0  0  0999 V2000
   -2.1157    1.4516    0.7986 C   0  0  0  0  0  0  0  0  0  0  0  0
   -0.7002    1.0384    0.3090 C   0  0  0  0  0  0  0  0  0  0  0  0
   -0.7143   -0.3467   -0.1907 C   0  0  0  0  0  0  0  0  0  0  0  0
   -1.7464   -0.4936   -1.3437 C   0  0  0  0  0  0  0  0  0  0  0  0
   -1.2209   -1.1828    0.8224 O   0  0  0  0  0  0  0  0  0  0  0  0
    0.5617   -0.8791   -0.6828 C   0  0  0  0  0  0  0  0  0  0  0  0
    1.7539   -1.0366    0.1421 C   0  0  0  0  0  0  0  0  0  0  0  0
    2.3403    0.1993    0.7135 C   0  0  0  0  0  0  0  0  0  0  0  0
    2.6469    1.1607   -0.2427 O   0  0  0  0  0  0  0  0  0  0  0  0
   -2.8500    1.3514   -0.0060 H   0  0  0  0  0  0  0  0  0  0  0  0
   -2.0162    2.5166    1.0931 H   0  0  0  0  0  0  0  0  0  0  0  0
   -2.3704    0.8186    1.6720 H   0  0  0  0  0  0  0  0  0  0  0  0
   -0.1160    1.1080    1.2419 H   0  0  0  0  0  0  0  0  0  0  0  0
   -0.3637    1.7552   -0.4369 H   0  0  0  0  0  0  0  0  0  0  0  0
   -1.5045   -1.4459   -1.8572 H   0  0  0  0  0  0  0  0  0  0  0  0
   -1.6555    0.3256   -2.0600 H   0  0  0  0  0  0  0  0  0  0  0  0
   -2.7582   -0.6062   -0.9069 H   0  0  0  0  0  0  0  0  0  0  0  0
   -1.1925   -2.1029    0.4287 H   0  0  0  0  0  0  0  0  0  0  0  0
    0.8294   -0.3371   -1.6802 H   0  0  0  0  0  0  0  0  0  0  0  0
    0.3549   -1.9326   -1.1451 H   0  0  0  0  0  0  0  0  0  0  0  0
    2.5521   -1.6425   -0.4077 H   0  0  0  0  0  0  0  0  0  0  0  0
    1.5719   -1.7181    1.0414 H   0  0  0  0  0  0  0  0  0  0  0  0
    3.3647   -0.1779    1.1406 H   0  0  0  0  0  0  0  0  0  0  0  0
    1.8315    0.5485    1.5980 H   0  0  0  0  0  0  0  0  0  0  0  0
    3.5172    1.6280   -0.0413 H   0  0  0  0  0  0  0  0  0  0  0  0
  1  2  1  0
  2  3  1  0
  3  4  1  0
  3  5  1  0
  3  6  1  0
  6  7  1  0
  7  8  1  0
  8  9  1  0
  1 10  1  0
  1 11  1  0
  1 12  1  0
  2 13  1  0
  2 14  1  0
  4 15  1  0
  4 16  1  0
  4 17  1  0
  5 18  1  0
  6 19  1  0
  6 20  1  0
  7 21  1  0
  7 22  1  0
  8 23  1  0
  8 24  1  0
  9 25  1  0
M  END
