
     RDKit          3D

 25 24  0  0  0  0  0  0  0  0999 V2000
    2.2052   -1.8077    0.6621 C   0  0  0  0  0  0  0  0  0  0  0  0
    1.7221   -0.9178   -0.4641 C   0  0  0  0  0  0  0  0  0  0  0  0
    0.7244    0.1123    0.0661 C   0  0  0  0  0  0  0  0  0  0  0  0
   -0.4243   -0.6638    0.6554 C   0  0  0  0  0  0  0  0  0  0  0  0
   -1.5141    0.1707    1.2277 C   0  0  0  0  0  0  0  0  0  0  0  0
   -2.1477    1.0056    0.3524 O   0  0  0  0  0  0  0  0  0  0  0  0
   -2.7861    0.3026   -0.6585 C   0  0  0  0  0  0  0  0  0  0  0  0
    0.3644    0.9784   -0.9306 O   0  0  0  0  0  0  0  0  0  0  0  0
    0.7043    2.2890   -0.7064 C   0  0  0  0  0  0  0  0  0  0  0  0
    2.0498   -1.2299    1.6105 H   0  0  0  0  0  0  0  0  0  0  0  0
    3.2985   -1.9745    0.5856 H   0  0  0  0  0  0  0  0  0  0  0  0
    1.6186   -2.7502    0.6639 H   0  0  0  0  0  0  0  0  0  0  0  0
    2.5978   -0.4286   -0.9361 H   0  0  0  0  0  0  0  0  0  0  0  0
    1.2672   -1.5747   -1.2276 H   0  0  0  0  0  0  0  0  0  0  0  0
    1.2381    0.6494    0.8907 H   0  0  0  0  0  0  0  0  0  0  0  0
   -0.0111   -1.2859    1.4946 H   0  0  0  0  0  0  0  0  0  0  0  0
   -0.8466   -1.4049   -0.0520 H   0  0  0  0  0  0  0  0  0  0  0  0
   -1.1991    0.7709    2.1094 H   0  0  0  0  0  0  0  0  0  0  0  0
   -2.2778   -0.5525    1.6374 H   0  0  0  0  0  0  0  0  0  0  0  0
   -3.2939    0.9963   -1.3590 H   0  0  0  0  0  0  0  0  0  0  0  0
   -2.0257   -0.2586   -1.2226 H   0  0  0  0  0  0  0  0  0  0  0  0
   -3.5118   -0.4349   -0.2313 H   0  0  0  0  0  0  0  0  0  0  0  0
    0.1912    2.6192    0.2333 H   0  0  0  0  0  0  0  0  0  0  0  0
    0.2837    2.8885   -1.5556 H   0  0  0  0  0  0  0  0  0  0  0  0
    1.7729    2.5009   -0.6704 H   0  0  0  0  0  0  0  0  0  0  0  0
  1  2  1  0
  2  3  1  0
  3  4  1  0
  4  5  1  0
  5  6  1  0
  6  7  1  0
  3  8  1  0
  8  9  1  0
  1 10  1  0
  1 11  1  0
  1 12  1  0
  2 13  1  0
  2 14  1  0
  3 15  1  0
  4 16  1  0
  4 17  1  0
  5 18  1  0
  5 19  1  0
  7 20  1  0
  7 21  1  0
  7 22  1  0
  9 23  1  0
  9 24  1  0
  9 25  1  0
M  END
