
     RDKit          3D

 25 24  0  0  0  0  0  0  0  0999 V2000
    0.9979    2.3508    0.4481 C   0  0  0  0  0  0  0  0  0  0  0  0
   -0.1939    1.4834    0.1672 C   0  0  0  0  0  0  0  0  0  0  0  0
    0.1263    0.1696   -0.4722 C   0  0  0  0  0  0  0  0  0  0  0  0
    1.0103   -0.7138    0.3146 C   0  0  0  0  0  0  0  0  0  0  0  0
    2.3896   -0.3672    0.7245 C   0  0  0  0  0  0  0  0  0  0  0  0
    0.5941   -1.8065    0.6594 O   0  0  0  0  0  0  0  0  0  0  0  0
   -1.2154   -0.5196   -0.7366 C   0  0  0  0  0  0  0  0  0  0  0  0
   -1.0500   -1.8558   -1.3794 C   0  0  0  0  0  0  0  0  0  0  0  0
   -2.0206   -0.6586    0.5187 C   0  0  0  0  0  0  0  0  0  0  0  0
    1.6162    2.3741   -0.4768 H   0  0  0  0  0  0  0  0  0  0  0  0
    0.6861    3.4213    0.6392 H   0  0  0  0  0  0  0  0  0  0  0  0
    1.5518    2.0502    1.3537 H   0  0  0  0  0  0  0  0  0  0  0  0
   -0.7262    1.3579    1.1470 H   0  0  0  0  0  0  0  0  0  0  0  0
   -0.9445    1.9873   -0.4856 H   0  0  0  0  0  0  0  0  0  0  0  0
    0.5835    0.3033   -1.4845 H   0  0  0  0  0  0  0  0  0  0  0  0
    2.8552    0.4373    0.1504 H   0  0  0  0  0  0  0  0  0  0  0  0
    3.0608   -1.2672    0.5688 H   0  0  0  0  0  0  0  0  0  0  0  0
    2.3363   -0.1544    1.8341 H   0  0  0  0  0  0  0  0  0  0  0  0
   -1.7967    0.1596   -1.4205 H   0  0  0  0  0  0  0  0  0  0  0  0
   -1.8382   -1.9880   -2.1695 H   0  0  0  0  0  0  0  0  0  0  0  0
   -0.0759   -1.9699   -1.9091 H   0  0  0  0  0  0  0  0  0  0  0  0
   -1.1906   -2.6356   -0.6018 H   0  0  0  0  0  0  0  0  0  0  0  0
   -2.5022   -1.6700    0.6037 H   0  0  0  0  0  0  0  0  0  0  0  0
   -2.8696    0.0650    0.5827 H   0  0  0  0  0  0  0  0  0  0  0  0
   -1.3843   -0.5530    1.4238 H   0  0  0  0  0  0  0  0  0  0  0  0
  1  2  1  0
  2  3  1  0
  3  4  1  0
  4  5  1  0
  4  6  2  0
  3  7  1  0
  7  8  1  0
  7  9  1  0
  1 10  1  0
  1 11  1  0
  1 12  1  0
  2 13  1  0
  2 14  1  0
  3 15  1  0
  5 16  1  0
  5 17  1  0
  5 18  1  0
  7 19  1  0
  8 20  1  0
  8 21  1  0
  8 22  1  0
  9 23  1  0
  9 24  1  0
  9 25  1  0
M  END
