
     RDKit          3D

 27 27  0  0  0  0  0  0  0  0999 V2000
   -3.0203    1.0681    0.2959 C   0  0  0  0  0  0  0  0  0  0  0  0
   -2.3571   -0.0841    0.9699 C   0  0  0  0  0  0  0  0  0  0  0  0
   -1.1605   -0.6080    0.2420 C   0  0  0  0  0  0  0  0  0  0  0  0
   -1.4279   -1.1013   -1.1320 C   0  0  0  0  0  0  0  0  0  0  0  0
   -0.0787    0.4497    0.3028 C   0  0  0  0  0  0  0  0  0  0  0  0
    1.1702    0.0192   -0.4024 C   0  0  0  0  0  0  0  0  0  0  0  0
    1.9206   -1.1889    0.0118 C   0  0  0  0  0  0  0  0  0  0  0  0
    2.4339    0.1325    0.4306 C   0  0  0  0  0  0  0  0  0  0  0  0
    3.5727    0.8013   -0.3009 C   0  0  0  0  0  0  0  0  0  0  0  0
   -3.0866    1.0147   -0.7853 H   0  0  0  0  0  0  0  0  0  0  0  0
   -2.4340    2.0030    0.5325 H   0  0  0  0  0  0  0  0  0  0  0  0
   -4.0624    1.1849    0.6837 H   0  0  0  0  0  0  0  0  0  0  0  0
   -1.9837    0.2863    1.9665 H   0  0  0  0  0  0  0  0  0  0  0  0
   -3.0617   -0.9096    1.2271 H   0  0  0  0  0  0  0  0  0  0  0  0
   -0.7692   -1.4745    0.8450 H   0  0  0  0  0  0  0  0  0  0  0  0
   -2.2392   -0.6156   -1.6705 H   0  0  0  0  0  0  0  0  0  0  0  0
   -0.4957   -0.9775   -1.7443 H   0  0  0  0  0  0  0  0  0  0  0  0
   -1.6436   -2.2035   -1.1389 H   0  0  0  0  0  0  0  0  0  0  0  0
    0.1123    0.7057    1.3646 H   0  0  0  0  0  0  0  0  0  0  0  0
   -0.4247    1.4005   -0.1746 H   0  0  0  0  0  0  0  0  0  0  0  0
    1.2087    0.2802   -1.4782 H   0  0  0  0  0  0  0  0  0  0  0  0
    2.4422   -1.7652   -0.7860 H   0  0  0  0  0  0  0  0  0  0  0  0
    1.5235   -1.8577    0.8173 H   0  0  0  0  0  0  0  0  0  0  0  0
    2.3652    0.3907    1.4868 H   0  0  0  0  0  0  0  0  0  0  0  0
    3.1448    1.7107   -0.8003 H   0  0  0  0  0  0  0  0  0  0  0  0
    3.9788    0.1787   -1.1177 H   0  0  0  0  0  0  0  0  0  0  0  0
    4.3721    1.1595    0.3543 H   0  0  0  0  0  0  0  0  0  0  0  0
  1  2  1  0
  2  3  1  0
  3  4  1  0
  3  5  1  0
  5  6  1  0
  6  7  1  0
  7  8  1  0
  8  9  1  0
  8  6  1  0
  1 10  1  0
  1 11  1  0
  1 12  1  0
  2 13  1  0
  2 14  1  0
  3 15  1  0
  4 16  1  0
  4 17  1  0
  4 18  1  0
  5 19  1  0
  5 20  1  0
  6 21  1  0
  7 22  1  0
  7 23  1  0
  8 24  1  0
  9 25  1  0
  9 26  1  0
  9 27  1  0
M  END
