
     RDKit          3D

 23 23  0  0  0  0  0  0  0  0999 V2000
   -2.1722    1.2221   -0.4345 C   0  0  0  0  0  0  0  0  0  0  0  0
   -0.6995    1.0046   -0.4420 C   0  0  0  0  0  0  0  0  0  0  0  0
   -0.2463   -0.1295    0.4426 C   0  0  0  0  0  0  0  0  0  0  0  0
   -0.8909   -1.4186   -0.0165 C   0  0  0  0  0  0  0  0  0  0  0  0
   -0.6313    0.0567    1.7691 O   0  0  0  0  0  0  0  0  0  0  0  0
    1.2406   -0.2770    0.3417 C   0  0  0  0  0  0  0  0  0  0  0  0
    2.0726    0.9912    0.2077 C   0  0  0  0  0  0  0  0  0  0  0  0
    1.7895   -1.4434   -0.4026 C   0  0  0  0  0  0  0  0  0  0  0  0
    1.8823   -1.3094    1.0034 O   0  0  0  0  0  0  0  0  0  0  0  0
   -2.7522    0.4266    0.0804 H   0  0  0  0  0  0  0  0  0  0  0  0
   -2.4344    2.1722    0.1065 H   0  0  0  0  0  0  0  0  0  0  0  0
   -2.5708    1.2822   -1.4668 H   0  0  0  0  0  0  0  0  0  0  0  0
   -0.3735    0.7837   -1.4804 H   0  0  0  0  0  0  0  0  0  0  0  0
   -0.2076    1.9595   -0.1679 H   0  0  0  0  0  0  0  0  0  0  0  0
   -1.9696   -1.4471    0.2675 H   0  0  0  0  0  0  0  0  0  0  0  0
   -0.4123   -2.2424    0.5521 H   0  0  0  0  0  0  0  0  0  0  0  0
   -0.7893   -1.5589   -1.1300 H   0  0  0  0  0  0  0  0  0  0  0  0
   -1.4664   -0.4454    1.9678 H   0  0  0  0  0  0  0  0  0  0  0  0
    1.5781    1.7520    0.8375 H   0  0  0  0  0  0  0  0  0  0  0  0
    2.0309    1.3881   -0.8438 H   0  0  0  0  0  0  0  0  0  0  0  0
    3.1218    0.7993    0.4750 H   0  0  0  0  0  0  0  0  0  0  0  0
    1.1095   -2.1991   -0.7932 H   0  0  0  0  0  0  0  0  0  0  0  0
    2.7909   -1.3675   -0.8736 H   0  0  0  0  0  0  0  0  0  0  0  0
  1  2  1  0
  2  3  1  0
  3  4  1  0
  3  5  1  0
  3  6  1  0
  6  7  1  0
  6  8  1  0
  8  9  1  0
  9  6  1  0
  1 10  1  0
  1 11  1  0
  1 12  1  0
  2 13  1  0
  2 14  1  0
  4 15  1  0
  4 16  1  0
  4 17  1  0
  5 18  1  0
  7 19  1  0
  7 20  1  0
  7 21  1  0
  8 22  1  0
  8 23  1  0
M  END
