
     RDKit          3D

 20 19  0  0  0  0  0  0  0  0999 V2000
   -2.0762    0.6320    0.4275 C   0  0  0  0  0  0  0  0  0  0  0  0
   -1.5674   -0.1626   -0.7356 C   0  0  0  0  0  0  0  0  0  0  0  0
   -0.2415   -0.7903   -0.3756 C   0  0  0  0  0  0  0  0  0  0  0  0
    0.1694   -1.5268   -1.5067 O   0  0  0  0  0  0  0  0  0  0  0  0
    0.7444    0.3057   -0.0683 C   0  0  0  0  0  0  0  0  0  0  0  0
    0.3225    0.9962    1.0560 O   0  0  0  0  0  0  0  0  0  0  0  0
    2.1239   -0.2369    0.2304 C   0  0  0  0  0  0  0  0  0  0  0  0
    2.9424    0.8625    0.5008 O   0  0  0  0  0  0  0  0  0  0  0  0
   -1.8206    0.2134    1.4001 H   0  0  0  0  0  0  0  0  0  0  0  0
   -1.7682    1.6953    0.3708 H   0  0  0  0  0  0  0  0  0  0  0  0
   -3.2026    0.6185    0.3868 H   0  0  0  0  0  0  0  0  0  0  0  0
   -2.3234   -0.9311   -0.9986 H   0  0  0  0  0  0  0  0  0  0  0  0
   -1.4287    0.5396   -1.5844 H   0  0  0  0  0  0  0  0  0  0  0  0
   -0.4058   -1.4645    0.4817 H   0  0  0  0  0  0  0  0  0  0  0  0
   -0.2167   -2.4266   -1.3860 H   0  0  0  0  0  0  0  0  0  0  0  0
    0.8548    0.9991   -0.9208 H   0  0  0  0  0  0  0  0  0  0  0  0
    0.6878    0.5860    1.8961 H   0  0  0  0  0  0  0  0  0  0  0  0
    2.1226   -0.8523    1.1704 H   0  0  0  0  0  0  0  0  0  0  0  0
    2.5716   -0.7774   -0.6138 H   0  0  0  0  0  0  0  0  0  0  0  0
    2.5118    1.7205    0.2692 H   0  0  0  0  0  0  0  0  0  0  0  0
  1  2  1  0
  2  3  1  0
  3  4  1  0
  3  5  1  0
  5  6  1  0
  5  7  1  0
  7  8  1  0
  1  9  1  0
  1 10  1  0
  1 11  1  0
  2 12  1  0
  2 13  1  0
  3 14  1  0
  4 15  1  0
  5 16  1  0
  6 17  1  0
  7 18  1  0
  7 19  1  0
  8 20  1  0
M  END
