
     RDKit          3D

 23 23  0  0  0  0  0  0  0  0999 V2000
   -2.8621    0.6307    0.7066 C   0  0  0  0  0  0  0  0  0  0  0  0
   -1.8145   -0.2711    0.0878 C   0  0  0  0  0  0  0  0  0  0  0  0
   -0.4368    0.0872    0.5898 C   0  0  0  0  0  0  0  0  0  0  0  0
   -0.4547   -0.0771    1.9763 O   0  0  0  0  0  0  0  0  0  0  0  0
    0.6513   -0.7424    0.0391 C   0  0  0  0  0  0  0  0  0  0  0  0
    0.8430   -0.7331   -1.4552 C   0  0  0  0  0  0  0  0  0  0  0  0
    1.6053    0.4405   -1.2891 O   0  0  0  0  0  0  0  0  0  0  0  0
    2.0172   -0.1130   -0.0569 C   0  0  0  0  0  0  0  0  0  0  0  0
    2.3814    0.8774    0.9830 C   0  0  0  0  0  0  0  0  0  0  0  0
   -3.1135    1.4728    0.0002 H   0  0  0  0  0  0  0  0  0  0  0  0
   -3.8151    0.0895    0.8658 H   0  0  0  0  0  0  0  0  0  0  0  0
   -2.5073    1.0592    1.6656 H   0  0  0  0  0  0  0  0  0  0  0  0
   -1.9231   -0.1949   -0.9972 H   0  0  0  0  0  0  0  0  0  0  0  0
   -2.0650   -1.3278    0.3632 H   0  0  0  0  0  0  0  0  0  0  0  0
   -0.3138    1.1840    0.4147 H   0  0  0  0  0  0  0  0  0  0  0  0
   -0.7042   -1.0203    2.1646 H   0  0  0  0  0  0  0  0  0  0  0  0
    0.6504   -1.7596    0.4836 H   0  0  0  0  0  0  0  0  0  0  0  0
    1.5540   -1.5539   -1.7325 H   0  0  0  0  0  0  0  0  0  0  0  0
   -0.0482   -0.6368   -2.0660 H   0  0  0  0  0  0  0  0  0  0  0  0
    2.7950   -0.8970   -0.1957 H   0  0  0  0  0  0  0  0  0  0  0  0
    1.5267    1.3041    1.5371 H   0  0  0  0  0  0  0  0  0  0  0  0
    2.8875    1.7327    0.4855 H   0  0  0  0  0  0  0  0  0  0  0  0
    3.1465    0.4487    1.6867 H   0  0  0  0  0  0  0  0  0  0  0  0
  1  2  1  0
  2  3  1  0
  3  4  1  0
  3  5  1  0
  5  6  1  0
  6  7  1  0
  7  8  1  0
  8  9  1  0
  8  5  1  0
  1 10  1  0
  1 11  1  0
  1 12  1  0
  2 13  1  0
  2 14  1  0
  3 15  1  0
  4 16  1  0
  5 17  1  0
  6 18  1  0
  6 19  1  0
  8 20  1  0
  9 21  1  0
  9 22  1  0
  9 23  1  0
M  END
