
     RDKit          3D

 23 22  0  0  0  0  0  0  0  0999 V2000
    3.4105    0.1887    0.3444 C   0  0  0  0  0  0  0  0  0  0  0  0
    2.3395   -0.7399    0.8998 C   0  0  0  0  0  0  0  0  0  0  0  0
    1.1629   -0.8125   -0.0106 C   0  0  0  0  0  0  0  0  0  0  0  0
    1.1827   -1.5569   -0.9741 O   0  0  0  0  0  0  0  0  0  0  0  0
   -0.0646    0.0002    0.2038 C   0  0  0  0  0  0  0  0  0  0  0  0
   -1.1000   -0.2673   -0.8633 C   0  0  0  0  0  0  0  0  0  0  0  0
   -0.5158    0.0686   -2.0819 O   0  0  0  0  0  0  0  0  0  0  0  0
   -2.3445    0.5631   -0.6548 C   0  0  0  0  0  0  0  0  0  0  0  0
   -2.9969    0.2747    0.6759 C   0  0  0  0  0  0  0  0  0  0  0  0
    3.7892    0.7807    1.2177 H   0  0  0  0  0  0  0  0  0  0  0  0
    3.0033    0.8599   -0.4305 H   0  0  0  0  0  0  0  0  0  0  0  0
    4.2656   -0.3639   -0.0907 H   0  0  0  0  0  0  0  0  0  0  0  0
    2.7951   -1.7584    0.9061 H   0  0  0  0  0  0  0  0  0  0  0  0
    2.0338   -0.4777    1.9221 H   0  0  0  0  0  0  0  0  0  0  0  0
   -0.4938   -0.1457    1.2111 H   0  0  0  0  0  0  0  0  0  0  0  0
    0.2926    1.0704    0.1468 H   0  0  0  0  0  0  0  0  0  0  0  0
   -1.3229   -1.3507   -0.8942 H   0  0  0  0  0  0  0  0  0  0  0  0
   -0.6248    1.0367   -2.2625 H   0  0  0  0  0  0  0  0  0  0  0  0
   -2.1133    1.6331   -0.7786 H   0  0  0  0  0  0  0  0  0  0  0  0
   -3.0754    0.2961   -1.4438 H   0  0  0  0  0  0  0  0  0  0  0  0
   -3.1786   -0.7978    0.7748 H   0  0  0  0  0  0  0  0  0  0  0  0
   -4.0043    0.7678    0.6620 H   0  0  0  0  0  0  0  0  0  0  0  0
   -2.4402    0.7309    1.5206 H   0  0  0  0  0  0  0  0  0  0  0  0
  1  2  1  0
  2  3  1  0
  3  4  2  0
  3  5  1  0
  5  6  1  0
  6  7  1  0
  6  8  1  0
  8  9  1  0
  1 10  1  0
  1 11  1  0
  1 12  1  0
  2 13  1  0
  2 14  1  0
  5 15  1  0
  5 16  1  0
  6 17  1  0
  7 18  1  0
  8 19  1  0
  8 20  1  0
  9 21  1  0
  9 22  1  0
  9 23  1  0
M  END
