
     RDKit          3D

 19 20  0  0  0  0  0  0  0  0999 V2000
    2.8037    0.2693    0.1124 C   0  0  0  0  0  0  0  0  0  0  0  0
    1.2902    0.4315    0.2084 C   0  0  0  0  0  0  0  0  0  0  0  0
    0.5853   -0.8319   -0.0374 C   0  0  0  0  0  0  0  0  0  0  0  0
    1.2468   -1.8316   -0.2771 O   0  0  0  0  0  0  0  0  0  0  0  0
   -0.8853   -0.9432   -0.0069 C   0  0  0  0  0  0  0  0  0  0  0  0
   -1.6403   -0.0987   -0.9852 C   0  0  0  0  0  0  0  0  0  0  0  0
   -2.0008    0.8997    0.0780 C   0  0  0  0  0  0  0  0  0  0  0  0
   -1.1944    1.1608    1.1433 O   0  0  0  0  0  0  0  0  0  0  0  0
   -1.5575   -0.1436    1.0845 C   0  0  0  0  0  0  0  0  0  0  0  0
    3.2711    1.1629   -0.3787 H   0  0  0  0  0  0  0  0  0  0  0  0
    3.2279    0.0669    1.1060 H   0  0  0  0  0  0  0  0  0  0  0  0
    3.0589   -0.5930   -0.5720 H   0  0  0  0  0  0  0  0  0  0  0  0
    1.0200    1.2321   -0.5055 H   0  0  0  0  0  0  0  0  0  0  0  0
    1.1135    0.8356    1.2483 H   0  0  0  0  0  0  0  0  0  0  0  0
   -1.2634   -2.0017    0.0136 H   0  0  0  0  0  0  0  0  0  0  0  0
   -2.5639   -0.6017   -1.3412 H   0  0  0  0  0  0  0  0  0  0  0  0
   -1.0797    0.2868   -1.8500 H   0  0  0  0  0  0  0  0  0  0  0  0
   -3.0463    1.2729    0.1222 H   0  0  0  0  0  0  0  0  0  0  0  0
   -2.3859   -0.5731    1.6622 H   0  0  0  0  0  0  0  0  0  0  0  0
  1  2  1  0
  2  3  1  0
  3  4  2  0
  3  5  1  0
  5  6  1  0
  6  7  1  0
  7  8  1  0
  8  9  1  0
  9  5  1  0
  9  7  1  0
  1 10  1  0
  1 11  1  0
  1 12  1  0
  2 13  1  0
  2 14  1  0
  5 15  1  0
  6 16  1  0
  6 17  1  0
  7 18  1  0
  9 19  1  0
M  END
