
     RDKit          3D

 27 26  0  0  0  0  0  0  0  0999 V2000
   -1.1498    1.6563   -1.1241 C   0  0  0  0  0  0  0  0  0  0  0  0
   -1.3303    0.1939   -0.8310 C   0  0  0  0  0  0  0  0  0  0  0  0
   -0.5943   -0.2809    0.3540 C   0  0  0  0  0  0  0  0  0  0  0  0
   -0.9249   -1.7960    0.5158 C   0  0  0  0  0  0  0  0  0  0  0  0
   -2.4214   -1.9483    0.7051 C   0  0  0  0  0  0  0  0  0  0  0  0
    0.8645   -0.1512    0.4167 C   0  0  0  0  0  0  0  0  0  0  0  0
    1.5106    1.1676    0.3414 C   0  0  0  0  0  0  0  0  0  0  0  0
    3.0349    0.9130    0.4790 C   0  0  0  0  0  0  0  0  0  0  0  0
    3.4835    0.0925   -0.5414 O   0  0  0  0  0  0  0  0  0  0  0  0
   -0.4741    1.7633   -2.0073 H   0  0  0  0  0  0  0  0  0  0  0  0
   -0.8166    2.2055   -0.2269 H   0  0  0  0  0  0  0  0  0  0  0  0
   -2.1492    2.1440   -1.3675 H   0  0  0  0  0  0  0  0  0  0  0  0
   -2.4315    0.0632   -0.5930 H   0  0  0  0  0  0  0  0  0  0  0  0
   -1.1955   -0.4371   -1.7392 H   0  0  0  0  0  0  0  0  0  0  0  0
   -1.0572    0.1776    1.2711 H   0  0  0  0  0  0  0  0  0  0  0  0
   -0.4526   -2.0737    1.4804 H   0  0  0  0  0  0  0  0  0  0  0  0
   -0.5395   -2.3664   -0.3289 H   0  0  0  0  0  0  0  0  0  0  0  0
   -2.6705   -2.8887    1.2031 H   0  0  0  0  0  0  0  0  0  0  0  0
   -2.9194   -1.9092   -0.2836 H   0  0  0  0  0  0  0  0  0  0  0  0
   -2.7318   -1.0649    1.3367 H   0  0  0  0  0  0  0  0  0  0  0  0
    1.2494   -0.6802    1.3436 H   0  0  0  0  0  0  0  0  0  0  0  0
    1.3132   -0.7815   -0.4095 H   0  0  0  0  0  0  0  0  0  0  0  0
    1.4203    1.6729   -0.6430 H   0  0  0  0  0  0  0  0  0  0  0  0
    1.2709    1.8918    1.1182 H   0  0  0  0  0  0  0  0  0  0  0  0
    3.5639    1.8845    0.4610 H   0  0  0  0  0  0  0  0  0  0  0  0
    3.2570    0.4166    1.4361 H   0  0  0  0  0  0  0  0  0  0  0  0
    2.8905    0.1353   -1.3405 H   0  0  0  0  0  0  0  0  0  0  0  0
  1  2  1  0
  2  3  1  0
  3  4  1  0
  4  5  1  0
  3  6  1  0
  6  7  1  0
  7  8  1  0
  8  9  1  0
  1 10  1  0
  1 11  1  0
  1 12  1  0
  2 13  1  0
  2 14  1  0
  3 15  1  0
  4 16  1  0
  4 17  1  0
  5 18  1  0
  5 19  1  0
  5 20  1  0
  6 21  1  0
  6 22  1  0
  7 23  1  0
  7 24  1  0
  8 25  1  0
  8 26  1  0
  9 27  1  0
M  END
