
     RDKit          3D

 23 22  0  0  0  0  0  0  0  0999 V2000
    1.6292    1.2740    0.7389 C   0  0  0  0  0  0  0  0  0  0  0  0
    1.5220    0.3204   -0.3897 C   0  0  0  0  0  0  0  0  0  0  0  0
    0.5003   -0.7601   -0.2127 C   0  0  0  0  0  0  0  0  0  0  0  0
    0.7740   -1.6216    0.9996 C   0  0  0  0  0  0  0  0  0  0  0  0
   -0.9224   -0.2888   -0.2218 C   0  0  0  0  0  0  0  0  0  0  0  0
   -1.7799   -1.4890   -0.0344 C   0  0  0  0  0  0  0  0  0  0  0  0
   -1.7165   -2.2140    0.9359 O   0  0  0  0  0  0  0  0  0  0  0  0
   -1.2379    0.3133   -1.4141 O   0  0  0  0  0  0  0  0  0  0  0  0
   -1.7139    1.5891   -1.1584 C   0  0  0  0  0  0  0  0  0  0  0  0
    2.6919    1.5819    0.8401 H   0  0  0  0  0  0  0  0  0  0  0  0
    1.0512    2.2079    0.6321 H   0  0  0  0  0  0  0  0  0  0  0  0
    1.3182    0.7975    1.6973 H   0  0  0  0  0  0  0  0  0  0  0  0
    2.5070   -0.1879   -0.5333 H   0  0  0  0  0  0  0  0  0  0  0  0
    1.3311    0.8932   -1.3190 H   0  0  0  0  0  0  0  0  0  0  0  0
    0.6070   -1.4450   -1.1052 H   0  0  0  0  0  0  0  0  0  0  0  0
    0.5633   -2.7088    0.7947 H   0  0  0  0  0  0  0  0  0  0  0  0
    0.2004   -1.2755    1.8880 H   0  0  0  0  0  0  0  0  0  0  0  0
    1.8521   -1.5427    1.2997 H   0  0  0  0  0  0  0  0  0  0  0  0
   -1.1076    0.3549    0.6635 H   0  0  0  0  0  0  0  0  0  0  0  0
   -2.4933   -1.7362   -0.7873 H   0  0  0  0  0  0  0  0  0  0  0  0
   -1.9879    2.1253   -2.1126 H   0  0  0  0  0  0  0  0  0  0  0  0
   -2.6337    1.5769   -0.5220 H   0  0  0  0  0  0  0  0  0  0  0  0
   -0.9545    2.2351   -0.6793 H   0  0  0  0  0  0  0  0  0  0  0  0
  1  2  1  0
  2  3  1  0
  3  4  1  0
  3  5  1  0
  5  6  1  0
  6  7  2  0
  5  8  1  0
  8  9  1  0
  1 10  1  0
  1 11  1  0
  1 12  1  0
  2 13  1  0
  2 14  1  0
  3 15  1  0
  4 16  1  0
  4 17  1  0
  4 18  1  0
  5 19  1  0
  6 20  1  0
  9 21  1  0
  9 22  1  0
  9 23  1  0
M  END
