
     RDKit          3D

 25 24  0  0  0  0  0  0  0  0999 V2000
    2.4326    1.0659   -0.8289 C   0  0  0  0  0  0  0  0  0  0  0  0
    2.3846   -0.2661   -0.1122 C   0  0  0  0  0  0  0  0  0  0  0  0
    1.0559   -0.3447    0.6132 C   0  0  0  0  0  0  0  0  0  0  0  0
    0.8986   -1.6416    1.3643 C   0  0  0  0  0  0  0  0  0  0  0  0
   -0.0718   -0.1163   -0.3739 C   0  0  0  0  0  0  0  0  0  0  0  0
   -1.3554   -0.2104    0.4297 C   0  0  0  0  0  0  0  0  0  0  0  0
   -2.4925   -0.0006   -0.4851 C   0  0  0  0  0  0  0  0  0  0  0  0
   -3.3080    1.2401   -0.3368 C   0  0  0  0  0  0  0  0  0  0  0  0
   -2.7173   -0.8666   -1.3320 O   0  0  0  0  0  0  0  0  0  0  0  0
    1.8283    1.7722   -0.2274 H   0  0  0  0  0  0  0  0  0  0  0  0
    3.5077    1.4098   -0.7694 H   0  0  0  0  0  0  0  0  0  0  0  0
    2.0847    0.9516   -1.8735 H   0  0  0  0  0  0  0  0  0  0  0  0
    3.2000   -0.3207    0.6541 H   0  0  0  0  0  0  0  0  0  0  0  0
    2.5279   -1.1276   -0.7758 H   0  0  0  0  0  0  0  0  0  0  0  0
    0.9603    0.4646    1.3721 H   0  0  0  0  0  0  0  0  0  0  0  0
    0.3366   -1.4806    2.3351 H   0  0  0  0  0  0  0  0  0  0  0  0
    1.8691   -2.1072    1.6438 H   0  0  0  0  0  0  0  0  0  0  0  0
    0.3286   -2.3608    0.7646 H   0  0  0  0  0  0  0  0  0  0  0  0
   -0.0634   -0.8776   -1.1796 H   0  0  0  0  0  0  0  0  0  0  0  0
   -0.0021    0.9088   -0.7719 H   0  0  0  0  0  0  0  0  0  0  0  0
   -1.4849   -1.2105    0.8977 H   0  0  0  0  0  0  0  0  0  0  0  0
   -1.3495    0.5526    1.2403 H   0  0  0  0  0  0  0  0  0  0  0  0
   -3.9328    1.3798   -1.2368 H   0  0  0  0  0  0  0  0  0  0  0  0
   -3.9657    1.0624    0.5595 H   0  0  0  0  0  0  0  0  0  0  0  0
   -2.6715    2.1235   -0.1326 H   0  0  0  0  0  0  0  0  0  0  0  0
  1  2  1  0
  2  3  1  0
  3  4  1  0
  3  5  1  0
  5  6  1  0
  6  7  1  0
  7  8  1  0
  7  9  2  0
  1 10  1  0
  1 11  1  0
  1 12  1  0
  2 13  1  0
  2 14  1  0
  3 15  1  0
  4 16  1  0
  4 17  1  0
  4 18  1  0
  5 19  1  0
  5 20  1  0
  6 21  1  0
  6 22  1  0
  8 23  1  0
  8 24  1  0
  8 25  1  0
M  END
