
     RDKit          3D

 22 21  0  0  0  0  0  0  0  0999 V2000
   -2.7939    0.8393   -0.1533 C   0  0  0  0  0  0  0  0  0  0  0  0
   -1.5275    0.2107   -0.6959 C   0  0  0  0  0  0  0  0  0  0  0  0
   -0.4769    0.2283    0.3748 C   0  0  0  0  0  0  0  0  0  0  0  0
   -0.1771    1.5207    0.7991 O   0  0  0  0  0  0  0  0  0  0  0  0
    0.7985   -0.4526   -0.0206 C   0  0  0  0  0  0  0  0  0  0  0  0
    0.5152   -1.7674   -0.6705 C   0  0  0  0  0  0  0  0  0  0  0  0
    1.6209   -0.4882    1.0595 O   0  0  0  0  0  0  0  0  0  0  0  0
    2.7773    0.2385    0.9728 C   0  0  0  0  0  0  0  0  0  0  0  0
   -2.7309    1.9216   -0.3561 H   0  0  0  0  0  0  0  0  0  0  0  0
   -3.6963    0.3688   -0.6203 H   0  0  0  0  0  0  0  0  0  0  0  0
   -2.8291    0.6397    0.9387 H   0  0  0  0  0  0  0  0  0  0  0  0
   -1.1696    0.7999   -1.5764 H   0  0  0  0  0  0  0  0  0  0  0  0
   -1.7814   -0.7848   -1.0549 H   0  0  0  0  0  0  0  0  0  0  0  0
   -0.8922   -0.3022    1.2768 H   0  0  0  0  0  0  0  0  0  0  0  0
    0.4319    1.9197    0.1049 H   0  0  0  0  0  0  0  0  0  0  0  0
    1.2839    0.2099   -0.7959 H   0  0  0  0  0  0  0  0  0  0  0  0
   -0.4016   -2.2327   -0.2153 H   0  0  0  0  0  0  0  0  0  0  0  0
    0.3381   -1.5983   -1.7543 H   0  0  0  0  0  0  0  0  0  0  0  0
    1.3105   -2.5069   -0.5830 H   0  0  0  0  0  0  0  0  0  0  0  0
    3.3339    0.1055    1.9286 H   0  0  0  0  0  0  0  0  0  0  0  0
    3.4334   -0.1971    0.1852 H   0  0  0  0  0  0  0  0  0  0  0  0
    2.6330    1.3275    0.8561 H   0  0  0  0  0  0  0  0  0  0  0  0
  1  2  1  0
  2  3  1  0
  3  4  1  0
  3  5  1  0
  5  6  1  0
  5  7  1  0
  7  8  1  0
  1  9  1  0
  1 10  1  0
  1 11  1  0
  2 12  1  0
  2 13  1  0
  3 14  1  0
  4 15  1  0
  5 16  1  0
  6 17  1  0
  6 18  1  0
  6 19  1  0
  8 20  1  0
  8 21  1  0
  8 22  1  0
M  END
