
     RDKit          3D

 23 23  0  0  0  0  0  0  0  0999 V2000
    2.9785    0.0536   -0.4854 C   0  0  0  0  0  0  0  0  0  0  0  0
    1.6810   -0.7029   -0.1688 C   0  0  0  0  0  0  0  0  0  0  0  0
    0.6761    0.3524    0.2495 C   0  0  0  0  0  0  0  0  0  0  0  0
    0.5352    1.2241   -0.8348 O   0  0  0  0  0  0  0  0  0  0  0  0
   -0.6356   -0.2482    0.6697 C   0  0  0  0  0  0  0  0  0  0  0  0
   -1.2833   -1.0437   -0.4383 C   0  0  0  0  0  0  0  0  0  0  0  0
   -2.6073   -0.3191   -0.6003 C   0  0  0  0  0  0  0  0  0  0  0  0
   -2.3196    1.0162   -0.2584 O   0  0  0  0  0  0  0  0  0  0  0  0
   -1.6090    0.8854    0.9148 C   0  0  0  0  0  0  0  0  0  0  0  0
    3.5339    0.2870    0.4547 H   0  0  0  0  0  0  0  0  0  0  0  0
    2.7257    1.0583   -0.9336 H   0  0  0  0  0  0  0  0  0  0  0  0
    3.6103   -0.4919   -1.1904 H   0  0  0  0  0  0  0  0  0  0  0  0
    1.3701   -1.2714   -1.0478 H   0  0  0  0  0  0  0  0  0  0  0  0
    1.8952   -1.3863    0.6845 H   0  0  0  0  0  0  0  0  0  0  0  0
    1.0912    0.9039    1.1079 H   0  0  0  0  0  0  0  0  0  0  0  0
    0.7543    2.1461   -0.6145 H   0  0  0  0  0  0  0  0  0  0  0  0
   -0.4896   -0.8104    1.5863 H   0  0  0  0  0  0  0  0  0  0  0  0
   -1.4442   -2.0757   -0.1284 H   0  0  0  0  0  0  0  0  0  0  0  0
   -0.6959   -0.9337   -1.3679 H   0  0  0  0  0  0  0  0  0  0  0  0
   -2.9925   -0.3578   -1.6327 H   0  0  0  0  0  0  0  0  0  0  0  0
   -3.3809   -0.6786    0.0747 H   0  0  0  0  0  0  0  0  0  0  0  0
   -2.3313    0.5979    1.7085 H   0  0  0  0  0  0  0  0  0  0  0  0
   -1.0624    1.7946    1.2091 H   0  0  0  0  0  0  0  0  0  0  0  0
  1  2  1  0
  2  3  1  0
  3  4  1  0
  3  5  1  0
  5  6  1  0
  6  7  1  0
  7  8  1  0
  8  9  1  0
  9  5  1  0
  1 10  1  0
  1 11  1  0
  1 12  1  0
  2 13  1  0
  2 14  1  0
  3 15  1  0
  4 16  1  0
  5 17  1  0
  6 18  1  0
  6 19  1  0
  7 20  1  0
  7 21  1  0
  9 22  1  0
  9 23  1  0
M  END
