
     RDKit          3D

 27 26  0  0  0  0  0  0  0  0999 V2000
    2.2569    1.1316   -0.8235 C   0  0  0  0  0  0  0  0  0  0  0  0
    1.8257   -0.3009   -0.7073 C   0  0  0  0  0  0  0  0  0  0  0  0
    0.8458   -0.6016    0.3676 C   0  0  0  0  0  0  0  0  0  0  0  0
    0.5649   -2.1141    0.3035 C   0  0  0  0  0  0  0  0  0  0  0  0
   -0.4737    0.0862    0.2947 C   0  0  0  0  0  0  0  0  0  0  0  0
   -1.2947   -0.4181    1.5086 C   0  0  0  0  0  0  0  0  0  0  0  0
   -0.4364    1.5783    0.4707 C   0  0  0  0  0  0  0  0  0  0  0  0
   -1.1052   -0.2947   -0.8835 O   0  0  0  0  0  0  0  0  0  0  0  0
   -2.3558    0.3229   -1.0092 C   0  0  0  0  0  0  0  0  0  0  0  0
    3.3531    1.1433   -1.1265 H   0  0  0  0  0  0  0  0  0  0  0  0
    1.7641    1.6511   -1.6714 H   0  0  0  0  0  0  0  0  0  0  0  0
    2.1091    1.6338    0.1319 H   0  0  0  0  0  0  0  0  0  0  0  0
    1.5032   -0.7210   -1.6997 H   0  0  0  0  0  0  0  0  0  0  0  0
    2.7612   -0.9014   -0.4803 H   0  0  0  0  0  0  0  0  0  0  0  0
    1.2815   -0.3980    1.3677 H   0  0  0  0  0  0  0  0  0  0  0  0
    0.1603   -2.3206   -0.7026 H   0  0  0  0  0  0  0  0  0  0  0  0
   -0.0985   -2.4381    1.1098 H   0  0  0  0  0  0  0  0  0  0  0  0
    1.5178   -2.6829    0.3807 H   0  0  0  0  0  0  0  0  0  0  0  0
   -0.6636   -0.4966    2.3973 H   0  0  0  0  0  0  0  0  0  0  0  0
   -2.0937    0.3314    1.7477 H   0  0  0  0  0  0  0  0  0  0  0  0
   -1.8196   -1.3512    1.2498 H   0  0  0  0  0  0  0  0  0  0  0  0
   -0.1596    2.1556   -0.4031 H   0  0  0  0  0  0  0  0  0  0  0  0
    0.1222    1.7857    1.4050 H   0  0  0  0  0  0  0  0  0  0  0  0
   -1.5000    1.8606    0.7427 H   0  0  0  0  0  0  0  0  0  0  0  0
   -3.0117    0.0523   -0.1697 H   0  0  0  0  0  0  0  0  0  0  0  0
   -2.1995    1.4093   -1.1156 H   0  0  0  0  0  0  0  0  0  0  0  0
   -2.8538   -0.1028   -1.9234 H   0  0  0  0  0  0  0  0  0  0  0  0
  1  2  1  0
  2  3  1  0
  3  4  1  0
  3  5  1  0
  5  6  1  0
  5  7  1  0
  5  8  1  0
  8  9  1  0
  1 10  1  0
  1 11  1  0
  1 12  1  0
  2 13  1  0
  2 14  1  0
  3 15  1  0
  4 16  1  0
  4 17  1  0
  4 18  1  0
  6 19  1  0
  6 20  1  0
  6 21  1  0
  7 22  1  0
  7 23  1  0
  7 24  1  0
  9 25  1  0
  9 26  1  0
  9 27  1  0
M  END
