
     RDKit          3D

 27 26  0  0  0  0  0  0  0  0999 V2000
   -2.8204    0.8402    1.1504 C   0  0  0  0  0  0  0  0  0  0  0  0
   -1.7788    0.7089    0.0669 C   0  0  0  0  0  0  0  0  0  0  0  0
   -1.0618   -0.6174    0.1100 C   0  0  0  0  0  0  0  0  0  0  0  0
   -2.0749   -1.7634   -0.0648 C   0  0  0  0  0  0  0  0  0  0  0  0
   -0.1592   -0.6040   -0.9157 O   0  0  0  0  0  0  0  0  0  0  0  0
    1.1380   -0.8607   -0.6785 C   0  0  0  0  0  0  0  0  0  0  0  0
    1.7486    0.1646    0.2324 C   0  0  0  0  0  0  0  0  0  0  0  0
    1.7016    1.5578   -0.3465 C   0  0  0  0  0  0  0  0  0  0  0  0
    3.2111   -0.1380    0.5274 C   0  0  0  0  0  0  0  0  0  0  0  0
   -3.6298    0.0944    1.0612 H   0  0  0  0  0  0  0  0  0  0  0  0
   -2.3121    0.8267    2.1177 H   0  0  0  0  0  0  0  0  0  0  0  0
   -3.2784    1.8519    1.0148 H   0  0  0  0  0  0  0  0  0  0  0  0
   -1.0557    1.5110    0.2314 H   0  0  0  0  0  0  0  0  0  0  0  0
   -2.2668    0.7687   -0.9383 H   0  0  0  0  0  0  0  0  0  0  0  0
   -0.5845   -0.8078    1.0832 H   0  0  0  0  0  0  0  0  0  0  0  0
   -2.7964   -1.4145   -0.8072 H   0  0  0  0  0  0  0  0  0  0  0  0
   -2.6050   -1.9533    0.8929 H   0  0  0  0  0  0  0  0  0  0  0  0
   -1.5563   -2.6986   -0.3409 H   0  0  0  0  0  0  0  0  0  0  0  0
    1.6838   -0.7505   -1.6585 H   0  0  0  0  0  0  0  0  0  0  0  0
    1.3680   -1.9015   -0.3646 H   0  0  0  0  0  0  0  0  0  0  0  0
    1.2012    0.1159    1.2071 H   0  0  0  0  0  0  0  0  0  0  0  0
    1.4933    2.2663    0.4883 H   0  0  0  0  0  0  0  0  0  0  0  0
    2.6911    1.8118   -0.8242 H   0  0  0  0  0  0  0  0  0  0  0  0
    0.9412    1.6670   -1.1377 H   0  0  0  0  0  0  0  0  0  0  0  0
    3.8849    0.5779    0.0108 H   0  0  0  0  0  0  0  0  0  0  0  0
    3.4240   -0.1055    1.6075 H   0  0  0  0  0  0  0  0  0  0  0  0
    3.4933   -1.1478    0.1718 H   0  0  0  0  0  0  0  0  0  0  0  0
  1  2  1  0
  2  3  1  0
  3  4  1  0
  3  5  1  0
  5  6  1  0
  6  7  1  0
  7  8  1  0
  7  9  1  0
  1 10  1  0
  1 11  1  0
  1 12  1  0
  2 13  1  0
  2 14  1  0
  3 15  1  0
  4 16  1  0
  4 17  1  0
  4 18  1  0
  6 19  1  0
  6 20  1  0
  7 21  1  0
  8 22  1  0
  8 23  1  0
  8 24  1  0
  9 25  1  0
  9 26  1  0
  9 27  1  0
M  END
