
     RDKit          3D

 18 17  0  0  0  0  0  0  0  0999 V2000
    2.0453    0.1576   -0.5292 C   0  0  0  0  0  0  0  0  0  0  0  0
    1.0063   -0.3150    0.4467 C   0  0  0  0  0  0  0  0  0  0  0  0
   -0.4034   -0.1792   -0.0781 C   0  0  0  0  0  0  0  0  0  0  0  0
   -0.7924    1.2159   -0.4132 C   0  0  0  0  0  0  0  0  0  0  0  0
   -1.3243   -0.6669    1.0482 C   0  0  0  0  0  0  0  0  0  0  0  0
   -0.6262   -1.0265   -1.1579 O   0  0  0  0  0  0  0  0  0  0  0  0
    1.7663   -0.1802   -1.5367 H   0  0  0  0  0  0  0  0  0  0  0  0
    3.0094   -0.2993   -0.2434 H   0  0  0  0  0  0  0  0  0  0  0  0
    2.0623    1.2649   -0.4804 H   0  0  0  0  0  0  0  0  0  0  0  0
    1.1768   -1.4255    0.5720 H   0  0  0  0  0  0  0  0  0  0  0  0
    1.1035    0.1102    1.4524 H   0  0  0  0  0  0  0  0  0  0  0  0
   -1.9063    1.2995   -0.2573 H   0  0  0  0  0  0  0  0  0  0  0  0
   -0.3407    1.9945    0.2078 H   0  0  0  0  0  0  0  0  0  0  0  0
   -0.6599    1.4526   -1.5092 H   0  0  0  0  0  0  0  0  0  0  0  0
   -1.0680   -1.7340    1.1873 H   0  0  0  0  0  0  0  0  0  0  0  0
   -1.0899   -0.0398    1.9223 H   0  0  0  0  0  0  0  0  0  0  0  0
   -2.3505   -0.5702    0.6841 H   0  0  0  0  0  0  0  0  0  0  0  0
   -1.6083   -1.0587   -1.3156 H   0  0  0  0  0  0  0  0  0  0  0  0
  1  2  1  0
  2  3  1  0
  3  4  1  0
  3  5  1  0
  3  6  1  0
  1  7  1  0
  1  8  1  0
  1  9  1  0
  2 10  1  0
  2 11  1  0
  4 12  1  0
  4 13  1  0
  4 14  1  0
  5 15  1  0
  5 16  1  0
  5 17  1  0
  6 18  1  0
M  END
