
     RDKit          3D

 23 23  0  0  0  0  0  0  0  0999 V2000
   -1.0218   -1.6588   -1.2226 C   0  0  0  0  0  0  0  0  0  0  0  0
   -1.4768   -0.4776   -0.3919 C   0  0  0  0  0  0  0  0  0  0  0  0
   -0.4567    0.6262   -0.4488 C   0  0  0  0  0  0  0  0  0  0  0  0
    0.8648    0.1260    0.0928 C   0  0  0  0  0  0  0  0  0  0  0  0
    1.3654   -0.9388   -0.6157 O   0  0  0  0  0  0  0  0  0  0  0  0
    2.5661   -1.3245   -0.0517 C   0  0  0  0  0  0  0  0  0  0  0  0
   -0.8331    1.8629    0.2545 C   0  0  0  0  0  0  0  0  0  0  0  0
   -1.1316    2.0364    1.6247 C   0  0  0  0  0  0  0  0  0  0  0  0
    0.2149    2.2853    1.2147 O   0  0  0  0  0  0  0  0  0  0  0  0
   -1.9160   -2.2259   -1.6141 H   0  0  0  0  0  0  0  0  0  0  0  0
   -0.4138   -1.2764   -2.0899 H   0  0  0  0  0  0  0  0  0  0  0  0
   -0.4550   -2.4010   -0.6228 H   0  0  0  0  0  0  0  0  0  0  0  0
   -1.5551   -0.8040    0.6683 H   0  0  0  0  0  0  0  0  0  0  0  0
   -2.4668   -0.1918   -0.7241 H   0  0  0  0  0  0  0  0  0  0  0  0
   -0.3437    0.8575   -1.5491 H   0  0  0  0  0  0  0  0  0  0  0  0
    0.7311   -0.1266    1.1679 H   0  0  0  0  0  0  0  0  0  0  0  0
    1.5722    1.0025    0.0111 H   0  0  0  0  0  0  0  0  0  0  0  0
    3.3228   -0.5019   -0.0673 H   0  0  0  0  0  0  0  0  0  0  0  0
    2.4169   -1.5688    1.0328 H   0  0  0  0  0  0  0  0  0  0  0  0
    3.0047   -2.1991   -0.5401 H   0  0  0  0  0  0  0  0  0  0  0  0
   -1.0969    2.7196   -0.4387 H   0  0  0  0  0  0  0  0  0  0  0  0
   -1.6219    2.9729    1.9550 H   0  0  0  0  0  0  0  0  0  0  0  0
   -1.2696    1.2059    2.3546 H   0  0  0  0  0  0  0  0  0  0  0  0
  1  2  1  0
  2  3  1  0
  3  4  1  0
  4  5  1  0
  5  6  1  0
  3  7  1  0
  7  8  1  0
  8  9  1  0
  9  7  1  0
  1 10  1  0
  1 11  1  0
  1 12  1  0
  2 13  1  0
  2 14  1  0
  3 15  1  0
  4 16  1  0
  4 17  1  0
  6 18  1  0
  6 19  1  0
  6 20  1  0
  7 21  1  0
  8 22  1  0
  8 23  1  0
M  END
