
     RDKit          3D

 23 22  0  0  0  0  0  0  0  0999 V2000
    2.9150    0.5436   -0.0955 C   0  0  0  0  0  0  0  0  0  0  0  0
    1.5670   -0.1187   -0.4327 C   0  0  0  0  0  0  0  0  0  0  0  0
    0.8356   -0.2511    0.8471 C   0  0  0  0  0  0  0  0  0  0  0  0
    1.5992   -1.0464    1.7033 O   0  0  0  0  0  0  0  0  0  0  0  0
   -0.5494   -0.7606    0.7924 C   0  0  0  0  0  0  0  0  0  0  0  0
   -1.5401   -0.0024    0.0128 C   0  0  0  0  0  0  0  0  0  0  0  0
   -1.7941    1.3944    0.4199 C   0  0  0  0  0  0  0  0  0  0  0  0
   -2.8395   -0.7583    0.1208 C   0  0  0  0  0  0  0  0  0  0  0  0
   -3.4871   -1.1022   -0.8315 O   0  0  0  0  0  0  0  0  0  0  0  0
    3.3424    1.0376   -0.9985 H   0  0  0  0  0  0  0  0  0  0  0  0
    3.5879   -0.2214    0.3375 H   0  0  0  0  0  0  0  0  0  0  0  0
    2.6668    1.3194    0.6613 H   0  0  0  0  0  0  0  0  0  0  0  0
    1.8036   -1.0501   -0.9435 H   0  0  0  0  0  0  0  0  0  0  0  0
    1.1091    0.6463   -1.1224 H   0  0  0  0  0  0  0  0  0  0  0  0
    0.8111    0.7661    1.3325 H   0  0  0  0  0  0  0  0  0  0  0  0
    1.5795   -2.0032    1.4544 H   0  0  0  0  0  0  0  0  0  0  0  0
   -0.5099   -1.8035    0.3524 H   0  0  0  0  0  0  0  0  0  0  0  0
   -0.9364   -0.9151    1.8224 H   0  0  0  0  0  0  0  0  0  0  0  0
   -1.2471   -0.0482   -1.0755 H   0  0  0  0  0  0  0  0  0  0  0  0
   -1.4282    1.6503    1.4310 H   0  0  0  0  0  0  0  0  0  0  0  0
   -1.3913    2.0861   -0.3641 H   0  0  0  0  0  0  0  0  0  0  0  0
   -2.8991    1.6339    0.4490 H   0  0  0  0  0  0  0  0  0  0  0  0
   -3.1951   -0.9966    1.1170 H   0  0  0  0  0  0  0  0  0  0  0  0
  1  2  1  0
  2  3  1  0
  3  4  1  0
  3  5  1  0
  5  6  1  0
  6  7  1  0
  6  8  1  0
  8  9  2  0
  1 10  1  0
  1 11  1  0
  1 12  1  0
  2 13  1  0
  2 14  1  0
  3 15  1  0
  4 16  1  0
  5 17  1  0
  5 18  1  0
  6 19  1  0
  7 20  1  0
  7 21  1  0
  7 22  1  0
  8 23  1  0
M  END
