
     RDKit          3D

 25 24  0  0  0  0  0  0  0  0999 V2000
    2.4548   -0.3842    0.9528 C   0  0  0  0  0  0  0  0  0  0  0  0
    1.9751    0.1019   -0.3900 C   0  0  0  0  0  0  0  0  0  0  0  0
    0.7698   -0.6319   -0.8977 C   0  0  0  0  0  0  0  0  0  0  0  0
    0.4364   -0.0856   -2.1360 O   0  0  0  0  0  0  0  0  0  0  0  0
   -0.3666   -0.7066    0.0464 C   0  0  0  0  0  0  0  0  0  0  0  0
   -1.3566   -1.5146   -0.5390 O   0  0  0  0  0  0  0  0  0  0  0  0
   -0.9967    0.5817    0.4234 C   0  0  0  0  0  0  0  0  0  0  0  0
   -2.1384    0.2531    1.3999 C   0  0  0  0  0  0  0  0  0  0  0  0
   -1.6175    1.3344   -0.7143 C   0  0  0  0  0  0  0  0  0  0  0  0
    3.5083   -0.0453    1.0571 H   0  0  0  0  0  0  0  0  0  0  0  0
    2.4811   -1.4921    1.0309 H   0  0  0  0  0  0  0  0  0  0  0  0
    1.9031    0.0915    1.7951 H   0  0  0  0  0  0  0  0  0  0  0  0
    1.7728    1.1863   -0.2958 H   0  0  0  0  0  0  0  0  0  0  0  0
    2.8279   -0.0032   -1.0920 H   0  0  0  0  0  0  0  0  0  0  0  0
    1.0990   -1.6801   -1.1157 H   0  0  0  0  0  0  0  0  0  0  0  0
    1.3099    0.0395   -2.6174 H   0  0  0  0  0  0  0  0  0  0  0  0
   -0.0454   -1.2283    0.9575 H   0  0  0  0  0  0  0  0  0  0  0  0
   -0.9906   -2.3560   -0.8833 H   0  0  0  0  0  0  0  0  0  0  0  0
   -0.3369    1.2738    0.9688 H   0  0  0  0  0  0  0  0  0  0  0  0
   -2.1914    0.9868    2.2201 H   0  0  0  0  0  0  0  0  0  0  0  0
   -2.0242   -0.7564    1.8274 H   0  0  0  0  0  0  0  0  0  0  0  0
   -3.1217    0.2945    0.8796 H   0  0  0  0  0  0  0  0  0  0  0  0
   -0.8545    2.0419   -1.1255 H   0  0  0  0  0  0  0  0  0  0  0  0
   -2.4143    1.9867   -0.2772 H   0  0  0  0  0  0  0  0  0  0  0  0
   -2.0835    0.7123   -1.4751 H   0  0  0  0  0  0  0  0  0  0  0  0
  1  2  1  0
  2  3  1  0
  3  4  1  0
  3  5  1  0
  5  6  1  0
  5  7  1  0
  7  8  1  0
  7  9  1  0
  1 10  1  0
  1 11  1  0
  1 12  1  0
  2 13  1  0
  2 14  1  0
  3 15  1  0
  4 16  1  0
  5 17  1  0
  6 18  1  0
  7 19  1  0
  8 20  1  0
  8 21  1  0
  8 22  1  0
  9 23  1  0
  9 24  1  0
  9 25  1  0
M  END
