
     RDKit          3D

 19 18  0  0  0  0  0  0  0  0999 V2000
   -2.3585    0.4647    0.5302 C   0  0  0  0  0  0  0  0  0  0  0  0
   -0.8652    0.5490    0.7604 C   0  0  0  0  0  0  0  0  0  0  0  0
   -0.1816   -0.4599   -0.0790 C   0  0  0  0  0  0  0  0  0  0  0  0
   -0.4909   -0.1294   -1.5354 C   0  0  0  0  0  0  0  0  0  0  0  0
   -0.6046   -1.7365    0.2710 O   0  0  0  0  0  0  0  0  0  0  0  0
    1.2659   -0.3074    0.0667 C   0  0  0  0  0  0  0  0  0  0  0  0
    2.5073   -0.1854    0.1956 C   0  0  0  0  0  0  0  0  0  0  0  0
    3.9588   -0.0504    0.3708 C   0  0  0  0  0  0  0  0  0  0  0  0
    4.4773    0.3127    1.4409 O   0  0  0  0  0  0  0  0  0  0  0  0
   -2.6620    0.9017   -0.4650 H   0  0  0  0  0  0  0  0  0  0  0  0
   -2.7789   -0.5608    0.6975 H   0  0  0  0  0  0  0  0  0  0  0  0
   -2.8071    1.1187    1.3410 H   0  0  0  0  0  0  0  0  0  0  0  0
   -0.6250    0.5642    1.8317 H   0  0  0  0  0  0  0  0  0  0  0  0
   -0.5837    1.5690    0.3101 H   0  0  0  0  0  0  0  0  0  0  0  0
   -1.5461   -0.4397   -1.7072 H   0  0  0  0  0  0  0  0  0  0  0  0
   -0.4738    0.9789   -1.6028 H   0  0  0  0  0  0  0  0  0  0  0  0
    0.2572   -0.6558   -2.1523 H   0  0  0  0  0  0  0  0  0  0  0  0
   -1.1154   -1.6580    1.1273 H   0  0  0  0  0  0  0  0  0  0  0  0
    4.6266   -0.2758   -0.4606 H   0  0  0  0  0  0  0  0  0  0  0  0
  1  2  1  0
  2  3  1  0
  3  4  1  0
  3  5  1  0
  3  6  1  0
  6  7  3  0
  7  8  1  0
  8  9  2  0
  1 10  1  0
  1 11  1  0
  1 12  1  0
  2 13  1  0
  2 14  1  0
  4 15  1  0
  4 16  1  0
  4 17  1  0
  5 18  1  0
  8 19  1  0
M  END
