
     RDKit          3D

 23 22  0  0  0  0  0  0  0  0999 V2000
    2.1340   -0.0475   -0.3178 C   0  0  0  0  0  0  0  0  0  0  0  0
    0.8754    0.1478   -1.0856 C   0  0  0  0  0  0  0  0  0  0  0  0
   -0.3771   -0.0595   -0.2588 C   0  0  0  0  0  0  0  0  0  0  0  0
   -0.4568    0.8904    0.9068 C   0  0  0  0  0  0  0  0  0  0  0  0
   -0.4589    2.3363    0.3906 C   0  0  0  0  0  0  0  0  0  0  0  0
   -0.4267   -1.5038    0.1148 C   0  0  0  0  0  0  0  0  0  0  0  0
   -0.4663   -2.2066   -1.1191 O   0  0  0  0  0  0  0  0  0  0  0  0
   -1.5822   -1.9141    0.9314 C   0  0  0  0  0  0  0  0  0  0  0  0
   -1.7233   -1.4453    2.0379 O   0  0  0  0  0  0  0  0  0  0  0  0
    2.0039   -0.4123    0.7106 H   0  0  0  0  0  0  0  0  0  0  0  0
    2.7646    0.8875   -0.3208 H   0  0  0  0  0  0  0  0  0  0  0  0
    2.7811   -0.8021   -0.8542 H   0  0  0  0  0  0  0  0  0  0  0  0
    0.8730    1.1788   -1.5206 H   0  0  0  0  0  0  0  0  0  0  0  0
    0.8154   -0.5486   -1.9479 H   0  0  0  0  0  0  0  0  0  0  0  0
   -1.2287    0.1713   -0.9321 H   0  0  0  0  0  0  0  0  0  0  0  0
    0.3462    0.7980    1.6335 H   0  0  0  0  0  0  0  0  0  0  0  0
   -1.4533    0.7566    1.3727 H   0  0  0  0  0  0  0  0  0  0  0  0
    0.5401    2.7880    0.4738 H   0  0  0  0  0  0  0  0  0  0  0  0
   -0.7252    2.2982   -0.6801 H   0  0  0  0  0  0  0  0  0  0  0  0
   -1.2226    2.9479    0.8955 H   0  0  0  0  0  0  0  0  0  0  0  0
    0.5497   -1.8408    0.5734 H   0  0  0  0  0  0  0  0  0  0  0  0
   -1.2395   -1.8007   -1.6003 H   0  0  0  0  0  0  0  0  0  0  0  0
   -2.3227   -2.6192    0.5964 H   0  0  0  0  0  0  0  0  0  0  0  0
  1  2  1  0
  2  3  1  0
  3  4  1  0
  4  5  1  0
  3  6  1  0
  6  7  1  0
  6  8  1  0
  8  9  2  0
  1 10  1  0
  1 11  1  0
  1 12  1  0
  2 13  1  0
  2 14  1  0
  3 15  1  0
  4 16  1  0
  4 17  1  0
  5 18  1  0
  5 19  1  0
  5 20  1  0
  6 21  1  0
  7 22  1  0
  8 23  1  0
M  END
