
     RDKit          3D

 26 25  0  0  0  0  0  0  0  0999 V2000
    0.5352    2.2593    0.3728 C   0  0  0  0  0  0  0  0  0  0  0  0
   -0.0443    1.4445   -0.7289 C   0  0  0  0  0  0  0  0  0  0  0  0
   -0.1971   -0.0136   -0.4604 C   0  0  0  0  0  0  0  0  0  0  0  0
   -0.8146   -0.6054   -1.7423 C   0  0  0  0  0  0  0  0  0  0  0  0
   -1.2144   -0.2372    0.6285 C   0  0  0  0  0  0  0  0  0  0  0  0
   -1.4393   -1.6655    0.9707 C   0  0  0  0  0  0  0  0  0  0  0  0
    1.0713   -0.7617   -0.2505 C   0  0  0  0  0  0  0  0  0  0  0  0
    1.9253   -0.3301    0.8829 C   0  0  0  0  0  0  0  0  0  0  0  0
    0.2866    3.3390    0.1348 H   0  0  0  0  0  0  0  0  0  0  0  0
    0.0101    2.0929    1.3470 H   0  0  0  0  0  0  0  0  0  0  0  0
    1.6196    2.2423    0.4754 H   0  0  0  0  0  0  0  0  0  0  0  0
    0.5977    1.5632   -1.6316 H   0  0  0  0  0  0  0  0  0  0  0  0
   -1.0181    1.9159   -1.0205 H   0  0  0  0  0  0  0  0  0  0  0  0
   -0.0399   -0.3956   -2.5378 H   0  0  0  0  0  0  0  0  0  0  0  0
   -1.7087   -0.0443   -2.0516 H   0  0  0  0  0  0  0  0  0  0  0  0
   -0.9418   -1.6847   -1.6636 H   0  0  0  0  0  0  0  0  0  0  0  0
   -2.1871    0.1716    0.2360 H   0  0  0  0  0  0  0  0  0  0  0  0
   -0.9986    0.3323    1.5538 H   0  0  0  0  0  0  0  0  0  0  0  0
   -1.0874   -2.3950    0.2429 H   0  0  0  0  0  0  0  0  0  0  0  0
   -0.9087   -1.9035    1.9378 H   0  0  0  0  0  0  0  0  0  0  0  0
   -2.5216   -1.9095    1.1691 H   0  0  0  0  0  0  0  0  0  0  0  0
    0.8264   -1.8533   -0.2098 H   0  0  0  0  0  0  0  0  0  0  0  0
    1.6597   -0.6666   -1.2114 H   0  0  0  0  0  0  0  0  0  0  0  0
    2.3372   -1.2742    1.3543 H   0  0  0  0  0  0  0  0  0  0  0  0
    2.8353    0.1863    0.5024 H   0  0  0  0  0  0  0  0  0  0  0  0
    1.4172    0.1931    1.7001 H   0  0  0  0  0  0  0  0  0  0  0  0
  1  2  1  0
  2  3  1  0
  3  4  1  0
  3  5  1  0
  5  6  1  0
  3  7  1  0
  7  8  1  0
  1  9  1  0
  1 10  1  0
  1 11  1  0
  2 12  1  0
  2 13  1  0
  4 14  1  0
  4 15  1  0
  4 16  1  0
  5 17  1  0
  5 18  1  0
  6 19  1  0
  6 20  1  0
  6 21  1  0
  7 22  1  0
  7 23  1  0
  8 24  1  0
  8 25  1  0
  8 26  1  0
M  END
