
     RDKit          3D

 23 22  0  0  0  0  0  0  0  0999 V2000
    2.9320    0.6775   -0.4865 C   0  0  0  0  0  0  0  0  0  0  0  0
    2.0003   -0.4763   -0.1548 C   0  0  0  0  0  0  0  0  0  0  0  0
    0.5896    0.1524   -0.0042 C   0  0  0  0  0  0  0  0  0  0  0  0
    0.7232    1.0717    1.0336 O   0  0  0  0  0  0  0  0  0  0  0  0
   -0.3941   -0.8845    0.3902 C   0  0  0  0  0  0  0  0  0  0  0  0
   -1.7625   -0.3220    0.5645 C   0  0  0  0  0  0  0  0  0  0  0  0
   -2.6358   -1.3975    0.9528 O   0  0  0  0  0  0  0  0  0  0  0  0
   -2.3872    0.2997   -0.6380 C   0  0  0  0  0  0  0  0  0  0  0  0
   -1.6968    1.3914   -1.1241 O   0  0  0  0  0  0  0  0  0  0  0  0
    3.4441    0.4609   -1.4364 H   0  0  0  0  0  0  0  0  0  0  0  0
    2.4353    1.6467   -0.4693 H   0  0  0  0  0  0  0  0  0  0  0  0
    3.7342    0.7171    0.2972 H   0  0  0  0  0  0  0  0  0  0  0  0
    1.9740   -1.2269   -0.9738 H   0  0  0  0  0  0  0  0  0  0  0  0
    2.2658   -0.9289    0.8251 H   0  0  0  0  0  0  0  0  0  0  0  0
    0.3941    0.6518   -0.9840 H   0  0  0  0  0  0  0  0  0  0  0  0
    0.9131    0.5794    1.8569 H   0  0  0  0  0  0  0  0  0  0  0  0
   -0.3666   -1.7943   -0.2493 H   0  0  0  0  0  0  0  0  0  0  0  0
   -0.0874   -1.2499    1.4180 H   0  0  0  0  0  0  0  0  0  0  0  0
   -1.7981    0.3824    1.4185 H   0  0  0  0  0  0  0  0  0  0  0  0
   -2.2438   -2.2199    0.5995 H   0  0  0  0  0  0  0  0  0  0  0  0
   -2.4820   -0.4117   -1.4911 H   0  0  0  0  0  0  0  0  0  0  0  0
   -3.4422    0.6260   -0.4011 H   0  0  0  0  0  0  0  0  0  0  0  0
   -2.1092    2.2548   -0.9441 H   0  0  0  0  0  0  0  0  0  0  0  0
  1  2  1  0
  2  3  1  0
  3  4  1  0
  3  5  1  0
  5  6  1  0
  6  7  1  0
  6  8  1  0
  8  9  1  0
  1 10  1  0
  1 11  1  0
  1 12  1  0
  2 13  1  0
  2 14  1  0
  3 15  1  0
  4 16  1  0
  5 17  1  0
  5 18  1  0
  6 19  1  0
  7 20  1  0
  8 21  1  0
  8 22  1  0
  9 23  1  0
M  END
