
     RDKit          3D

 23 22  0  0  0  0  0  0  0  0999 V2000
   -1.1371   -1.3380   -0.9049 C   0  0  0  0  0  0  0  0  0  0  0  0
   -1.0647   -0.7214    0.4471 C   0  0  0  0  0  0  0  0  0  0  0  0
    0.1734    0.0962    0.7034 C   0  0  0  0  0  0  0  0  0  0  0  0
    0.0510    0.5815    2.0040 O   0  0  0  0  0  0  0  0  0  0  0  0
    0.2972    1.2852   -0.2024 C   0  0  0  0  0  0  0  0  0  0  0  0
   -0.8122    2.2613   -0.1131 C   0  0  0  0  0  0  0  0  0  0  0  0
    1.4221   -0.6796    0.6109 C   0  0  0  0  0  0  0  0  0  0  0  0
    1.8944   -1.3469   -0.6323 C   0  0  0  0  0  0  0  0  0  0  0  0
    2.1052   -0.7769    1.6167 O   0  0  0  0  0  0  0  0  0  0  0  0
   -0.6186   -2.3144   -0.9743 H   0  0  0  0  0  0  0  0  0  0  0  0
   -0.8493   -0.6247   -1.6985 H   0  0  0  0  0  0  0  0  0  0  0  0
   -2.2205   -1.5788   -1.1221 H   0  0  0  0  0  0  0  0  0  0  0  0
   -1.9384   -0.0755    0.6729 H   0  0  0  0  0  0  0  0  0  0  0  0
   -1.0802   -1.5175    1.2405 H   0  0  0  0  0  0  0  0  0  0  0  0
   -0.8988    0.8393    2.1439 H   0  0  0  0  0  0  0  0  0  0  0  0
    1.2435    1.8033    0.0606 H   0  0  0  0  0  0  0  0  0  0  0  0
    0.4434    0.9086   -1.2446 H   0  0  0  0  0  0  0  0  0  0  0  0
   -0.8434    2.8409   -1.0779 H   0  0  0  0  0  0  0  0  0  0  0  0
   -1.8069    1.8596    0.0415 H   0  0  0  0  0  0  0  0  0  0  0  0
   -0.6474    3.0452    0.6756 H   0  0  0  0  0  0  0  0  0  0  0  0
    3.0171   -1.2171   -0.6585 H   0  0  0  0  0  0  0  0  0  0  0  0
    1.5275   -0.8894   -1.5531 H   0  0  0  0  0  0  0  0  0  0  0  0
    1.7425   -2.4409   -0.5812 H   0  0  0  0  0  0  0  0  0  0  0  0
  1  2  1  0
  2  3  1  0
  3  4  1  0
  3  5  1  0
  5  6  1  0
  3  7  1  0
  7  8  1  0
  7  9  2  0
  1 10  1  0
  1 11  1  0
  1 12  1  0
  2 13  1  0
  2 14  1  0
  4 15  1  0
  5 16  1  0
  5 17  1  0
  6 18  1  0
  6 19  1  0
  6 20  1  0
  8 21  1  0
  8 22  1  0
  8 23  1  0
M  END
