
     RDKit          3D

 21 20  0  0  0  0  0  0  0  0999 V2000
   -2.5830    0.6887   -0.4796 C   0  0  0  0  0  0  0  0  0  0  0  0
   -2.1148   -0.4229    0.4615 C   0  0  0  0  0  0  0  0  0  0  0  0
   -0.8940   -1.0293   -0.1100 C   0  0  0  0  0  0  0  0  0  0  0  0
   -0.9789   -1.8216   -1.0220 O   0  0  0  0  0  0  0  0  0  0  0  0
    0.4469   -0.6851    0.4142 C   0  0  0  0  0  0  0  0  0  0  0  0
    0.3832    0.2358    1.4566 O   0  0  0  0  0  0  0  0  0  0  0  0
    1.2502   -0.1338   -0.7607 C   0  0  0  0  0  0  0  0  0  0  0  0
    2.6139    0.2231   -0.2576 C   0  0  0  0  0  0  0  0  0  0  0  0
    2.4412    1.1907    0.7458 O   0  0  0  0  0  0  0  0  0  0  0  0
   -2.0219    1.6226   -0.2739 H   0  0  0  0  0  0  0  0  0  0  0  0
   -2.3439    0.3363   -1.5132 H   0  0  0  0  0  0  0  0  0  0  0  0
   -3.6641    0.8176   -0.3626 H   0  0  0  0  0  0  0  0  0  0  0  0
   -2.9638   -1.1437    0.5039 H   0  0  0  0  0  0  0  0  0  0  0  0
   -1.9106    0.0261    1.4507 H   0  0  0  0  0  0  0  0  0  0  0  0
    0.9712   -1.6248    0.7256 H   0  0  0  0  0  0  0  0  0  0  0  0
    0.8800   -0.0634    2.2521 H   0  0  0  0  0  0  0  0  0  0  0  0
    1.2811   -0.9608   -1.5173 H   0  0  0  0  0  0  0  0  0  0  0  0
    0.7480    0.7433   -1.2165 H   0  0  0  0  0  0  0  0  0  0  0  0
    3.0662   -0.6509    0.2142 H   0  0  0  0  0  0  0  0  0  0  0  0
    3.1984    0.6204   -1.1131 H   0  0  0  0  0  0  0  0  0  0  0  0
    2.1949    2.0318    0.2781 H   0  0  0  0  0  0  0  0  0  0  0  0
  1  2  1  0
  2  3  1  0
  3  4  2  0
  3  5  1  0
  5  6  1  0
  5  7  1  0
  7  8  1  0
  8  9  1  0
  1 10  1  0
  1 11  1  0
  1 12  1  0
  2 13  1  0
  2 14  1  0
  5 15  1  0
  6 16  1  0
  7 17  1  0
  7 18  1  0
  8 19  1  0
  8 20  1  0
  9 21  1  0
M  END
