
     RDKit          3D

 21 21  0  0  0  0  0  0  0  0999 V2000
    2.1175    0.4564    0.1553 C   0  0  0  0  0  0  0  0  0  0  0  0
    1.4019   -0.8176   -0.2660 C   0  0  0  0  0  0  0  0  0  0  0  0
    0.1165   -0.4135   -0.9788 C   0  0  0  0  0  0  0  0  0  0  0  0
   -0.5656   -1.5662   -1.3795 O   0  0  0  0  0  0  0  0  0  0  0  0
   -0.7524    0.3616   -0.0324 C   0  0  0  0  0  0  0  0  0  0  0  0
   -1.7148   -0.4633    0.7809 C   0  0  0  0  0  0  0  0  0  0  0  0
   -1.0528   -0.8374    1.9708 O   0  0  0  0  0  0  0  0  0  0  0  0
   -1.2895    1.7054   -0.4677 C   0  0  0  0  0  0  0  0  0  0  0  0
   -0.2365    1.5293    0.4626 O   0  0  0  0  0  0  0  0  0  0  0  0
    1.8411    1.2338   -0.5694 H   0  0  0  0  0  0  0  0  0  0  0  0
    3.2174    0.2234    0.1367 H   0  0  0  0  0  0  0  0  0  0  0  0
    1.8289    0.7265    1.2059 H   0  0  0  0  0  0  0  0  0  0  0  0
    1.2060   -1.3880    0.6411 H   0  0  0  0  0  0  0  0  0  0  0  0
    2.0542   -1.3402   -0.9956 H   0  0  0  0  0  0  0  0  0  0  0  0
    0.3593    0.2554   -1.8297 H   0  0  0  0  0  0  0  0  0  0  0  0
   -0.3068   -2.3085   -0.7598 H   0  0  0  0  0  0  0  0  0  0  0  0
   -1.9259   -1.3944    0.2279 H   0  0  0  0  0  0  0  0  0  0  0  0
   -2.6403    0.0690    1.0097 H   0  0  0  0  0  0  0  0  0  0  0  0
   -0.4396   -0.1139    2.1913 H   0  0  0  0  0  0  0  0  0  0  0  0
   -1.0229    1.9770   -1.5060 H   0  0  0  0  0  0  0  0  0  0  0  0
   -2.1957    2.1053    0.0025 H   0  0  0  0  0  0  0  0  0  0  0  0
  1  2  1  0
  2  3  1  0
  3  4  1  0
  3  5  1  0
  5  6  1  0
  6  7  1  0
  5  8  1  0
  8  9  1  0
  9  5  1  0
  1 10  1  0
  1 11  1  0
  1 12  1  0
  2 13  1  0
  2 14  1  0
  3 15  1  0
  4 16  1  0
  6 17  1  0
  6 18  1  0
  7 19  1  0
  8 20  1  0
  8 21  1  0
M  END
