
     RDKit          3D

 19 19  0  0  0  0  0  0  0  0999 V2000
   -2.2744    0.8108   -0.0991 C   0  0  0  0  0  0  0  0  0  0  0  0
   -1.4893   -0.2005    0.6831 C   0  0  0  0  0  0  0  0  0  0  0  0
   -0.3477   -0.7923   -0.1013 C   0  0  0  0  0  0  0  0  0  0  0  0
    0.2931   -1.7138    0.7466 O   0  0  0  0  0  0  0  0  0  0  0  0
    0.6867    0.2299   -0.4824 C   0  0  0  0  0  0  0  0  0  0  0  0
    2.0420   -0.4423   -0.6232 C   0  0  0  0  0  0  0  0  0  0  0  0
    2.5103    0.8192   -0.0033 C   0  0  0  0  0  0  0  0  0  0  0  0
    3.6107    1.4329   -0.0490 O   0  0  0  0  0  0  0  0  0  0  0  0
    1.2575    0.9453    0.5758 O   0  0  0  0  0  0  0  0  0  0  0  0
   -3.3661    0.5326   -0.1678 H   0  0  0  0  0  0  0  0  0  0  0  0
   -2.2588    1.7981    0.4023 H   0  0  0  0  0  0  0  0  0  0  0  0
   -1.9230    0.9500   -1.1272 H   0  0  0  0  0  0  0  0  0  0  0  0
   -2.1714   -1.0236    0.9684 H   0  0  0  0  0  0  0  0  0  0  0  0
   -1.1043    0.2474    1.6266 H   0  0  0  0  0  0  0  0  0  0  0  0
   -0.7139   -1.2915   -1.0066 H   0  0  0  0  0  0  0  0  0  0  0  0
    0.3170   -1.2605    1.6495 H   0  0  0  0  0  0  0  0  0  0  0  0
    0.4319    0.8972   -1.3116 H   0  0  0  0  0  0  0  0  0  0  0  0
    2.1396   -1.3506   -0.0014 H   0  0  0  0  0  0  0  0  0  0  0  0
    2.3602   -0.5883   -1.6793 H   0  0  0  0  0  0  0  0  0  0  0  0
  1  2  1  0
  2  3  1  0
  3  4  1  0
  3  5  1  0
  5  6  1  0
  6  7  1  0
  7  8  2  0
  7  9  1  0
  9  5  1  0
  1 10  1  0
  1 11  1  0
  1 12  1  0
  2 13  1  0
  2 14  1  0
  3 15  1  0
  4 16  1  0
  5 17  1  0
  6 18  1  0
  6 19  1  0
M  END
