
     RDKit          3D

 23 22  0  0  0  0  0  0  0  0999 V2000
    3.3709    0.5874   -0.3056 C   0  0  0  0  0  0  0  0  0  0  0  0
    2.3474   -0.5197   -0.3884 C   0  0  0  0  0  0  0  0  0  0  0  0
    0.9564    0.0587   -0.5189 C   0  0  0  0  0  0  0  0  0  0  0  0
    0.5062    0.1476   -1.6342 O   0  0  0  0  0  0  0  0  0  0  0  0
    0.2589    0.4676    0.7121 C   0  0  0  0  0  0  0  0  0  0  0  0
   -0.7426   -0.4915    1.2520 C   0  0  0  0  0  0  0  0  0  0  0  0
   -1.8885   -0.8049    0.3388 C   0  0  0  0  0  0  0  0  0  0  0  0
   -2.6770    0.4363   -0.0222 C   0  0  0  0  0  0  0  0  0  0  0  0
   -3.7572    0.1309   -0.8564 O   0  0  0  0  0  0  0  0  0  0  0  0
    2.9062    1.5983   -0.3344 H   0  0  0  0  0  0  0  0  0  0  0  0
    3.9144    0.5367    0.6836 H   0  0  0  0  0  0  0  0  0  0  0  0
    4.1753    0.5073   -1.0636 H   0  0  0  0  0  0  0  0  0  0  0  0
    2.6045   -1.1885   -1.2186 H   0  0  0  0  0  0  0  0  0  0  0  0
    2.3519   -1.0823    0.5675 H   0  0  0  0  0  0  0  0  0  0  0  0
    1.0040    0.6798    1.5079 H   0  0  0  0  0  0  0  0  0  0  0  0
   -0.2499    1.4674    0.5464 H   0  0  0  0  0  0  0  0  0  0  0  0
   -1.1847   -0.0543    2.1759 H   0  0  0  0  0  0  0  0  0  0  0  0
   -0.2130   -1.4220    1.5882 H   0  0  0  0  0  0  0  0  0  0  0  0
   -1.6115   -1.3566   -0.5702 H   0  0  0  0  0  0  0  0  0  0  0  0
   -2.5985   -1.4594    0.9220 H   0  0  0  0  0  0  0  0  0  0  0  0
   -3.0163    1.0051    0.8392 H   0  0  0  0  0  0  0  0  0  0  0  0
   -2.0054    1.1047   -0.6427 H   0  0  0  0  0  0  0  0  0  0  0  0
   -4.4516   -0.3484   -0.3067 H   0  0  0  0  0  0  0  0  0  0  0  0
  1  2  1  0
  2  3  1  0
  3  4  2  0
  3  5  1  0
  5  6  1  0
  6  7  1  0
  7  8  1  0
  8  9  1  0
  1 10  1  0
  1 11  1  0
  1 12  1  0
  2 13  1  0
  2 14  1  0
  5 15  1  0
  5 16  1  0
  6 17  1  0
  6 18  1  0
  7 19  1  0
  7 20  1  0
  8 21  1  0
  8 22  1  0
  9 23  1  0
M  END
