
     RDKit          3D

 23 22  0  0  0  0  0  0  0  0999 V2000
    2.5360   -0.0823   -0.5714 C   0  0  0  0  0  0  0  0  0  0  0  0
    1.4035   -0.5099    0.3417 C   0  0  0  0  0  0  0  0  0  0  0  0
    0.1372    0.2235   -0.0376 C   0  0  0  0  0  0  0  0  0  0  0  0
    0.3491    1.5925    0.0930 O   0  0  0  0  0  0  0  0  0  0  0  0
    0.3245    2.5161   -0.9143 C   0  0  0  0  0  0  0  0  0  0  0  0
    0.0853    2.0563   -2.0578 O   0  0  0  0  0  0  0  0  0  0  0  0
   -0.9864   -0.3438    0.7636 C   0  0  0  0  0  0  0  0  0  0  0  0
   -1.0772   -1.8260    0.4136 C   0  0  0  0  0  0  0  0  0  0  0  0
   -2.3218    0.2662    0.4754 C   0  0  0  0  0  0  0  0  0  0  0  0
    2.4810   -0.5684   -1.5514 H   0  0  0  0  0  0  0  0  0  0  0  0
    3.4781   -0.3060   -0.0210 H   0  0  0  0  0  0  0  0  0  0  0  0
    2.4626    1.0185   -0.6827 H   0  0  0  0  0  0  0  0  0  0  0  0
    1.6543   -0.2980    1.3987 H   0  0  0  0  0  0  0  0  0  0  0  0
    1.2938   -1.6194    0.1979 H   0  0  0  0  0  0  0  0  0  0  0  0
   -0.0578   -0.0004   -1.1074 H   0  0  0  0  0  0  0  0  0  0  0  0
    0.4905    3.5792   -0.8032 H   0  0  0  0  0  0  0  0  0  0  0  0
   -0.7951   -0.3150    1.8604 H   0  0  0  0  0  0  0  0  0  0  0  0
   -0.3939   -2.4355    1.0427 H   0  0  0  0  0  0  0  0  0  0  0  0
   -2.0998   -2.2270    0.5790 H   0  0  0  0  0  0  0  0  0  0  0  0
   -0.8564   -1.9991   -0.6700 H   0  0  0  0  0  0  0  0  0  0  0  0
   -3.1131   -0.5141    0.4160 H   0  0  0  0  0  0  0  0  0  0  0  0
   -2.6320    0.9542    1.2996 H   0  0  0  0  0  0  0  0  0  0  0  0
   -2.3624    0.8384   -0.4647 H   0  0  0  0  0  0  0  0  0  0  0  0
  1  2  1  0
  2  3  1  0
  3  4  1  0
  4  5  1  0
  5  6  2  0
  3  7  1  0
  7  8  1  0
  7  9  1  0
  1 10  1  0
  1 11  1  0
  1 12  1  0
  2 13  1  0
  2 14  1  0
  3 15  1  0
  5 16  1  0
  7 17  1  0
  8 18  1  0
  8 19  1  0
  8 20  1  0
  9 21  1  0
  9 22  1  0
  9 23  1  0
M  END
