
     RDKit          3D

 25 24  0  0  0  0  0  0  0  0999 V2000
    0.6590    2.4232    0.0272 C   0  0  0  0  0  0  0  0  0  0  0  0
    1.0884    1.1017    0.5250 C   0  0  0  0  0  0  0  0  0  0  0  0
    0.5834   -0.1006   -0.1528 C   0  0  0  0  0  0  0  0  0  0  0  0
    1.1337   -1.2215    0.5037 O   0  0  0  0  0  0  0  0  0  0  0  0
    1.9101   -1.9927   -0.3394 C   0  0  0  0  0  0  0  0  0  0  0  0
   -0.8756   -0.3587   -0.1473 C   0  0  0  0  0  0  0  0  0  0  0  0
   -1.7292    0.6127   -0.8689 C   0  0  0  0  0  0  0  0  0  0  0  0
   -1.3917   -0.6649    1.2432 C   0  0  0  0  0  0  0  0  0  0  0  0
   -1.0137   -1.5822   -0.8615 O   0  0  0  0  0  0  0  0  0  0  0  0
    0.6346    2.4206   -1.0872 H   0  0  0  0  0  0  0  0  0  0  0  0
    1.4407    3.1680    0.2976 H   0  0  0  0  0  0  0  0  0  0  0  0
   -0.2752    2.8110    0.4766 H   0  0  0  0  0  0  0  0  0  0  0  0
    2.1998    1.0674    0.4997 H   0  0  0  0  0  0  0  0  0  0  0  0
    0.8347    1.0535    1.6263 H   0  0  0  0  0  0  0  0  0  0  0  0
    0.9463   -0.1616   -1.2004 H   0  0  0  0  0  0  0  0  0  0  0  0
    1.2634   -2.3415   -1.1679 H   0  0  0  0  0  0  0  0  0  0  0  0
    2.2106   -2.8918    0.2364 H   0  0  0  0  0  0  0  0  0  0  0  0
    2.7841   -1.4179   -0.6612 H   0  0  0  0  0  0  0  0  0  0  0  0
   -2.6696    0.0641   -1.1810 H   0  0  0  0  0  0  0  0  0  0  0  0
   -1.2431    0.9152   -1.7999 H   0  0  0  0  0  0  0  0  0  0  0  0
   -2.1078    1.4514   -0.2550 H   0  0  0  0  0  0  0  0  0  0  0  0
   -1.4098   -1.7528    1.4631 H   0  0  0  0  0  0  0  0  0  0  0  0
   -2.4380   -0.3083    1.3342 H   0  0  0  0  0  0  0  0  0  0  0  0
   -0.7325   -0.2155    2.0315 H   0  0  0  0  0  0  0  0  0  0  0  0
   -1.8026   -2.0786   -0.5422 H   0  0  0  0  0  0  0  0  0  0  0  0
  1  2  1  0
  2  3  1  0
  3  4  1  0
  4  5  1  0
  3  6  1  0
  6  7  1  0
  6  8  1  0
  6  9  1  0
  1 10  1  0
  1 11  1  0
  1 12  1  0
  2 13  1  0
  2 14  1  0
  3 15  1  0
  5 16  1  0
  5 17  1  0
  5 18  1  0
  7 19  1  0
  7 20  1  0
  7 21  1  0
  8 22  1  0
  8 23  1  0
  8 24  1  0
  9 25  1  0
M  END
