
     RDKit          3D

 18 18  0  0  0  0  0  0  0  0999 V2000
    2.9122    0.1536   -0.6875 C   0  0  0  0  0  0  0  0  0  0  0  0
    1.7002    0.0666    0.1749 C   0  0  0  0  0  0  0  0  0  0  0  0
    0.4352   -0.0269   -0.6021 C   0  0  0  0  0  0  0  0  0  0  0  0
    0.5219   -0.0225   -1.8165 O   0  0  0  0  0  0  0  0  0  0  0  0
   -0.8700   -0.1209    0.0583 C   0  0  0  0  0  0  0  0  0  0  0  0
   -1.9933    0.7624   -0.5542 C   0  0  0  0  0  0  0  0  0  0  0  0
   -2.0537   -0.7092   -0.5779 C   0  0  0  0  0  0  0  0  0  0  0  0
   -2.9572   -1.3960    0.2581 O   0  0  0  0  0  0  0  0  0  0  0  0
    3.4975   -0.7869   -0.5619 H   0  0  0  0  0  0  0  0  0  0  0  0
    2.6004    0.3205   -1.7381 H   0  0  0  0  0  0  0  0  0  0  0  0
    3.5898    1.0059   -0.3923 H   0  0  0  0  0  0  0  0  0  0  0  0
    1.6743    0.9855    0.8146 H   0  0  0  0  0  0  0  0  0  0  0  0
    1.7457   -0.8011    0.8886 H   0  0  0  0  0  0  0  0  0  0  0  0
   -0.8599   -0.1183    1.1815 H   0  0  0  0  0  0  0  0  0  0  0  0
   -1.7181    1.2879   -1.5104 H   0  0  0  0  0  0  0  0  0  0  0  0
   -2.5546    1.3888    0.1377 H   0  0  0  0  0  0  0  0  0  0  0  0
   -2.0015   -1.1857   -1.5883 H   0  0  0  0  0  0  0  0  0  0  0  0
   -3.6691   -0.8037    0.5899 H   0  0  0  0  0  0  0  0  0  0  0  0
  1  2  1  0
  2  3  1  0
  3  4  2  0
  3  5  1  0
  5  6  1  0
  6  7  1  0
  7  8  1  0
  7  5  1  0
  1  9  1  0
  1 10  1  0
  1 11  1  0
  2 12  1  0
  2 13  1  0
  5 14  1  0
  6 15  1  0
  6 16  1  0
  7 17  1  0
  8 18  1  0
M  END
