
     RDKit          3D

 14 13  0  0  0  0  0  0  0  0999 V2000
    1.8921    0.6380   -0.2820 C   0  0  0  0  0  0  0  0  0  0  0  0
    1.2752   -0.7734   -0.1531 C   0  0  0  0  0  0  0  0  0  0  0  0
   -0.1496   -0.6351   -0.5787 C   0  0  0  0  0  0  0  0  0  0  0  0
   -0.6218   -1.1351   -1.6055 O   0  0  0  0  0  0  0  0  0  0  0  0
   -0.9977    0.1170    0.2435 O   0  0  0  0  0  0  0  0  0  0  0  0
   -2.3400    0.2492   -0.1462 C   0  0  0  0  0  0  0  0  0  0  0  0
    2.9508    0.6586   -0.0261 H   0  0  0  0  0  0  0  0  0  0  0  0
    1.2944    1.2613    0.4489 H   0  0  0  0  0  0  0  0  0  0  0  0
    1.6779    1.0966   -1.2581 H   0  0  0  0  0  0  0  0  0  0  0  0
    1.8190   -1.4825   -0.8069 H   0  0  0  0  0  0  0  0  0  0  0  0
    1.3104   -1.0674    0.8855 H   0  0  0  0  0  0  0  0  0  0  0  0
   -2.9789    0.1269    0.7615 H   0  0  0  0  0  0  0  0  0  0  0  0
   -2.4886    1.3337   -0.4194 H   0  0  0  0  0  0  0  0  0  0  0  0
   -2.6433   -0.3876   -0.9793 H   0  0  0  0  0  0  0  0  0  0  0  0
  1  2  1  0
  2  3  1  0
  3  4  2  0
  3  5  1  0
  5  6  1  0
  1  7  1  0
  1  8  1  0
  1  9  1  0
  2 10  1  0
  2 11  1  0
  6 12  1  0
  6 13  1  0
  6 14  1  0
M  END
