
     RDKit          3D

 21 21  0  0  0  0  0  0  0  0999 V2000
    3.2079   -0.0182   -0.1546 C   0  0  0  0  0  0  0  0  0  0  0  0
    1.8239    0.3956   -0.6026 C   0  0  0  0  0  0  0  0  0  0  0  0
    0.7538   -0.2226    0.2295 C   0  0  0  0  0  0  0  0  0  0  0  0
    1.0064   -0.9704    1.1558 O   0  0  0  0  0  0  0  0  0  0  0  0
   -0.6404    0.1220   -0.1315 C   0  0  0  0  0  0  0  0  0  0  0  0
   -0.7975    0.9764   -1.1968 O   0  0  0  0  0  0  0  0  0  0  0  0
   -1.4968    0.5939    1.0457 C   0  0  0  0  0  0  0  0  0  0  0  0
   -2.6547   -0.1024    0.3174 C   0  0  0  0  0  0  0  0  0  0  0  0
   -1.5872   -1.0613   -0.2325 C   0  0  0  0  0  0  0  0  0  0  0  0
    3.9243    0.6330   -0.6907 H   0  0  0  0  0  0  0  0  0  0  0  0
    3.3831   -1.0675   -0.4459 H   0  0  0  0  0  0  0  0  0  0  0  0
    3.2400    0.1208    0.9471 H   0  0  0  0  0  0  0  0  0  0  0  0
    1.6675    0.2170   -1.6870 H   0  0  0  0  0  0  0  0  0  0  0  0
    1.7224    1.5136   -0.4690 H   0  0  0  0  0  0  0  0  0  0  0  0
   -1.0935    0.4382   -1.9722 H   0  0  0  0  0  0  0  0  0  0  0  0
   -1.5991    1.6735    1.1385 H   0  0  0  0  0  0  0  0  0  0  0  0
   -1.2512    0.0323    1.9761 H   0  0  0  0  0  0  0  0  0  0  0  0
   -3.3987   -0.5612    0.9619 H   0  0  0  0  0  0  0  0  0  0  0  0
   -2.9991    0.5446   -0.5041 H   0  0  0  0  0  0  0  0  0  0  0  0
   -1.7931   -1.4006   -1.2649 H   0  0  0  0  0  0  0  0  0  0  0  0
   -1.4182   -1.8566    0.5097 H   0  0  0  0  0  0  0  0  0  0  0  0
  1  2  1  0
  2  3  1  0
  3  4  2  0
  3  5  1  0
  5  6  1  0
  5  7  1  0
  7  8  1  0
  8  9  1  0
  9  5  1  0
  1 10  1  0
  1 11  1  0
  1 12  1  0
  2 13  1  0
  2 14  1  0
  6 15  1  0
  7 16  1  0
  7 17  1  0
  8 18  1  0
  8 19  1  0
  9 20  1  0
  9 21  1  0
M  END
