
     RDKit          3D

 22 21  0  0  0  0  0  0  0  0999 V2000
   -2.0015   -1.6076    0.1006 C   0  0  0  0  0  0  0  0  0  0  0  0
   -1.8452   -0.1213   -0.0983 C   0  0  0  0  0  0  0  0  0  0  0  0
   -0.5638    0.4180    0.4614 C   0  0  0  0  0  0  0  0  0  0  0  0
   -0.5074    1.8990    0.2116 C   0  0  0  0  0  0  0  0  0  0  0  0
    0.6532   -0.3141    0.0067 C   0  0  0  0  0  0  0  0  0  0  0  0
    1.8960    0.2622    0.5916 C   0  0  0  0  0  0  0  0  0  0  0  0
    3.0686   -0.5262    0.0877 C   0  0  0  0  0  0  0  0  0  0  0  0
    4.2190   -0.2442    0.4297 O   0  0  0  0  0  0  0  0  0  0  0  0
   -1.7567   -1.9130    1.1393 H   0  0  0  0  0  0  0  0  0  0  0  0
   -3.0914   -1.8295   -0.0246 H   0  0  0  0  0  0  0  0  0  0  0  0
   -1.4843   -2.2074   -0.6690 H   0  0  0  0  0  0  0  0  0  0  0  0
   -2.7202    0.3587    0.3866 H   0  0  0  0  0  0  0  0  0  0  0  0
   -1.9354    0.0798   -1.1887 H   0  0  0  0  0  0  0  0  0  0  0  0
   -0.6237    0.2879    1.5801 H   0  0  0  0  0  0  0  0  0  0  0  0
    0.1683    2.1782   -0.6088 H   0  0  0  0  0  0  0  0  0  0  0  0
   -0.2064    2.4753    1.1165 H   0  0  0  0  0  0  0  0  0  0  0  0
   -1.5154    2.3228   -0.0724 H   0  0  0  0  0  0  0  0  0  0  0  0
    0.7675   -0.3433   -1.0908 H   0  0  0  0  0  0  0  0  0  0  0  0
    0.5625   -1.3676    0.4006 H   0  0  0  0  0  0  0  0  0  0  0  0
    1.9203    0.2683    1.6947 H   0  0  0  0  0  0  0  0  0  0  0  0
    2.0453    1.2914    0.2284 H   0  0  0  0  0  0  0  0  0  0  0  0
    2.9506   -1.3673   -0.5909 H   0  0  0  0  0  0  0  0  0  0  0  0
  1  2  1  0
  2  3  1  0
  3  4  1  0
  3  5  1  0
  5  6  1  0
  6  7  1  0
  7  8  2  0
  1  9  1  0
  1 10  1  0
  1 11  1  0
  2 12  1  0
  2 13  1  0
  3 14  1  0
  4 15  1  0
  4 16  1  0
  4 17  1  0
  5 18  1  0
  5 19  1  0
  6 20  1  0
  6 21  1  0
  7 22  1  0
M  END
