
     RDKit          3D

 20 19  0  0  0  0  0  0  0  0999 V2000
   -1.7528   -1.3621   -0.2577 C   0  0  0  0  0  0  0  0  0  0  0  0
   -1.4253    0.0511   -0.6789 C   0  0  0  0  0  0  0  0  0  0  0  0
   -0.6742    0.7270    0.4759 C   0  0  0  0  0  0  0  0  0  0  0  0
   -0.3442    2.1569    0.0468 C   0  0  0  0  0  0  0  0  0  0  0  0
    0.5677   -0.0512    0.7215 C   0  0  0  0  0  0  0  0  0  0  0  0
    0.7552   -0.5759    1.8490 O   0  0  0  0  0  0  0  0  0  0  0  0
    1.5255   -0.2207   -0.2420 O   0  0  0  0  0  0  0  0  0  0  0  0
    2.7246   -0.9562   -0.0473 C   0  0  0  0  0  0  0  0  0  0  0  0
   -1.7359   -2.0081   -1.1572 H   0  0  0  0  0  0  0  0  0  0  0  0
   -0.9151   -1.7049    0.3847 H   0  0  0  0  0  0  0  0  0  0  0  0
   -2.7049   -1.4031    0.2997 H   0  0  0  0  0  0  0  0  0  0  0  0
   -0.7717    0.0124   -1.5751 H   0  0  0  0  0  0  0  0  0  0  0  0
   -2.3056    0.6463   -0.9485 H   0  0  0  0  0  0  0  0  0  0  0  0
   -1.3110    0.7220    1.3828 H   0  0  0  0  0  0  0  0  0  0  0  0
   -1.0951    2.4615   -0.7109 H   0  0  0  0  0  0  0  0  0  0  0  0
    0.6817    2.1669   -0.4098 H   0  0  0  0  0  0  0  0  0  0  0  0
   -0.3618    2.8084    0.9467 H   0  0  0  0  0  0  0  0  0  0  0  0
    3.5279   -0.3776   -0.5475 H   0  0  0  0  0  0  0  0  0  0  0  0
    2.9241   -1.1450    1.0178 H   0  0  0  0  0  0  0  0  0  0  0  0
    2.6910   -1.9476   -0.5500 H   0  0  0  0  0  0  0  0  0  0  0  0
  1  2  1  0
  2  3  1  0
  3  4  1  0
  3  5  1  0
  5  6  2  0
  5  7  1  0
  7  8  1  0
  1  9  1  0
  1 10  1  0
  1 11  1  0
  2 12  1  0
  2 13  1  0
  3 14  1  0
  4 15  1  0
  4 16  1  0
  4 17  1  0
  8 18  1  0
  8 19  1  0
  8 20  1  0
M  END
