
     RDKit          3D

 21 21  0  0  0  0  0  0  0  0999 V2000
   -2.5561    0.1151   -0.8072 C   0  0  0  0  0  0  0  0  0  0  0  0
   -1.1906    0.6511   -0.4396 C   0  0  0  0  0  0  0  0  0  0  0  0
   -0.4203   -0.4122    0.2784 C   0  0  0  0  0  0  0  0  0  0  0  0
   -1.0937   -0.8694    1.5467 C   0  0  0  0  0  0  0  0  0  0  0  0
    0.9760   -0.0554    0.5714 C   0  0  0  0  0  0  0  0  0  0  0  0
    1.3176   -0.0320    1.7375 O   0  0  0  0  0  0  0  0  0  0  0  0
    1.9927    0.2759   -0.4368 C   0  0  0  0  0  0  0  0  0  0  0  0
    3.3313    0.6642   -0.1856 C   0  0  0  0  0  0  0  0  0  0  0  0
    3.1139   -0.6993   -0.3469 O   0  0  0  0  0  0  0  0  0  0  0  0
   -2.4548   -0.8010   -1.4457 H   0  0  0  0  0  0  0  0  0  0  0  0
   -3.1962   -0.0920    0.0523 H   0  0  0  0  0  0  0  0  0  0  0  0
   -3.0914    0.8891   -1.4219 H   0  0  0  0  0  0  0  0  0  0  0  0
   -0.6779    0.8898   -1.3927 H   0  0  0  0  0  0  0  0  0  0  0  0
   -1.3031    1.5848    0.1121 H   0  0  0  0  0  0  0  0  0  0  0  0
   -0.3836   -1.3111   -0.3863 H   0  0  0  0  0  0  0  0  0  0  0  0
   -0.9617   -0.1233    2.3616 H   0  0  0  0  0  0  0  0  0  0  0  0
   -2.1342   -1.1858    1.4093 H   0  0  0  0  0  0  0  0  0  0  0  0
   -0.5167   -1.7762    1.8940 H   0  0  0  0  0  0  0  0  0  0  0  0
    1.6207    0.2381   -1.4944 H   0  0  0  0  0  0  0  0  0  0  0  0
    3.7073    0.9307    0.8138 H   0  0  0  0  0  0  0  0  0  0  0  0
    3.9208    1.1187   -1.0059 H   0  0  0  0  0  0  0  0  0  0  0  0
  1  2  1  0
  2  3  1  0
  3  4  1  0
  3  5  1  0
  5  6  2  0
  5  7  1  0
  7  8  1  0
  8  9  1  0
  9  7  1  0
  1 10  1  0
  1 11  1  0
  1 12  1  0
  2 13  1  0
  2 14  1  0
  3 15  1  0
  4 16  1  0
  4 17  1  0
  4 18  1  0
  7 19  1  0
  8 20  1  0
  8 21  1  0
M  END
