
     RDKit          3D

 23 24  0  0  0  0  0  0  0  0999 V2000
    2.3186    0.0828   -0.6822 C   0  0  0  0  0  0  0  0  0  0  0  0
    1.7149    0.7693    0.5046 C   0  0  0  0  0  0  0  0  0  0  0  0
    0.5202    0.0538    1.0741 C   0  0  0  0  0  0  0  0  0  0  0  0
    0.9629   -1.2223    1.4630 O   0  0  0  0  0  0  0  0  0  0  0  0
   -0.5538    0.0046    0.2375 C   0  0  0  0  0  0  0  0  0  0  0  0
   -0.6493   -0.6050   -1.1223 C   0  0  0  0  0  0  0  0  0  0  0  0
   -2.0475   -0.1161   -0.8606 C   0  0  0  0  0  0  0  0  0  0  0  0
   -1.8756   -0.7029    0.5205 C   0  0  0  0  0  0  0  0  0  0  0  0
   -1.3992    1.1202   -0.2943 C   0  0  0  0  0  0  0  0  0  0  0  0
    3.4306   -0.0068   -0.5808 H   0  0  0  0  0  0  0  0  0  0  0  0
    2.1297    0.6499   -1.5901 H   0  0  0  0  0  0  0  0  0  0  0  0
    1.8390   -0.9121   -0.7820 H   0  0  0  0  0  0  0  0  0  0  0  0
    2.5203    0.9148    1.2586 H   0  0  0  0  0  0  0  0  0  0  0  0
    1.4192    1.8118    0.1945 H   0  0  0  0  0  0  0  0  0  0  0  0
    0.2947    0.5738    2.0514 H   0  0  0  0  0  0  0  0  0  0  0  0
    0.2333   -1.7905    1.7910 H   0  0  0  0  0  0  0  0  0  0  0  0
   -0.6175   -1.7052   -1.0584 H   0  0  0  0  0  0  0  0  0  0  0  0
   -0.1113   -0.1288   -1.9394 H   0  0  0  0  0  0  0  0  0  0  0  0
   -2.8464   -0.1763   -1.4530 H   0  0  0  0  0  0  0  0  0  0  0  0
   -1.8325   -1.7903    0.5113 H   0  0  0  0  0  0  0  0  0  0  0  0
   -2.4915   -0.2131    1.2920 H   0  0  0  0  0  0  0  0  0  0  0  0
   -2.0245    1.5924    0.4903 H   0  0  0  0  0  0  0  0  0  0  0  0
   -0.9341    1.7960   -1.0256 H   0  0  0  0  0  0  0  0  0  0  0  0
  1  2  1  0
  2  3  1  0
  3  4  1  0
  3  5  1  0
  5  6  1  0
  6  7  1  0
  7  8  1  0
  7  9  1  0
  8  5  1  0
  9  5  1  0
  1 10  1  0
  1 11  1  0
  1 12  1  0
  2 13  1  0
  2 14  1  0
  3 15  1  0
  4 16  1  0
  6 17  1  0
  6 18  1  0
  7 19  1  0
  8 20  1  0
  8 21  1  0
  9 22  1  0
  9 23  1  0
M  END
