
     RDKit          3D

 27 26  0  0  0  0  0  0  0  0999 V2000
   -3.0287    0.6309   -0.9994 C   0  0  0  0  0  0  0  0  0  0  0  0
   -2.5817    0.8841    0.3987 C   0  0  0  0  0  0  0  0  0  0  0  0
   -1.4175    0.0469    0.8455 C   0  0  0  0  0  0  0  0  0  0  0  0
   -1.6694   -1.4171    0.8029 C   0  0  0  0  0  0  0  0  0  0  0  0
   -0.2051    0.4768    0.0577 C   0  0  0  0  0  0  0  0  0  0  0  0
    0.9663   -0.3734    0.5155 C   0  0  0  0  0  0  0  0  0  0  0  0
    2.1689    0.0816   -0.2939 C   0  0  0  0  0  0  0  0  0  0  0  0
    3.3005   -0.6501    0.0620 O   0  0  0  0  0  0  0  0  0  0  0  0
    4.3496   -0.1709   -0.7234 C   0  0  0  0  0  0  0  0  0  0  0  0
   -2.2424    0.3417   -1.6915 H   0  0  0  0  0  0  0  0  0  0  0  0
   -3.5387    1.5674   -1.3612 H   0  0  0  0  0  0  0  0  0  0  0  0
   -3.8462   -0.1405   -0.9610 H   0  0  0  0  0  0  0  0  0  0  0  0
   -2.3416    1.9623    0.5029 H   0  0  0  0  0  0  0  0  0  0  0  0
   -3.4374    0.7029    1.0908 H   0  0  0  0  0  0  0  0  0  0  0  0
   -1.1977    0.3173    1.9143 H   0  0  0  0  0  0  0  0  0  0  0  0
   -2.7154   -1.6406    1.0792 H   0  0  0  0  0  0  0  0  0  0  0  0
   -1.0384   -1.9088    1.5939 H   0  0  0  0  0  0  0  0  0  0  0  0
   -1.3737   -1.8856   -0.1610 H   0  0  0  0  0  0  0  0  0  0  0  0
   -0.0235    1.5489    0.3303 H   0  0  0  0  0  0  0  0  0  0  0  0
   -0.3266    0.4539   -1.0265 H   0  0  0  0  0  0  0  0  0  0  0  0
    0.7724   -1.4352    0.2637 H   0  0  0  0  0  0  0  0  0  0  0  0
    1.1903   -0.2051    1.5849 H   0  0  0  0  0  0  0  0  0  0  0  0
    1.9572   -0.1284   -1.3568 H   0  0  0  0  0  0  0  0  0  0  0  0
    2.3500    1.1678   -0.1836 H   0  0  0  0  0  0  0  0  0  0  0  0
    5.2993   -0.7202   -0.4871 H   0  0  0  0  0  0  0  0  0  0  0  0
    4.5349    0.8997   -0.5465 H   0  0  0  0  0  0  0  0  0  0  0  0
    4.0946   -0.4063   -1.7835 H   0  0  0  0  0  0  0  0  0  0  0  0
  1  2  1  0
  2  3  1  0
  3  4  1  0
  3  5  1  0
  5  6  1  0
  6  7  1  0
  7  8  1  0
  8  9  1  0
  1 10  1  0
  1 11  1  0
  1 12  1  0
  2 13  1  0
  2 14  1  0
  3 15  1  0
  4 16  1  0
  4 17  1  0
  4 18  1  0
  5 19  1  0
  5 20  1  0
  6 21  1  0
  6 22  1  0
  7 23  1  0
  7 24  1  0
  9 25  1  0
  9 26  1  0
  9 27  1  0
M  END
