
     RDKit          3D

 23 22  0  0  0  0  0  0  0  0999 V2000
   -1.9256   -1.1229    1.0697 C   0  0  0  0  0  0  0  0  0  0  0  0
   -1.4647   -0.6118   -0.2483 C   0  0  0  0  0  0  0  0  0  0  0  0
   -0.1599    0.0889   -0.2692 C   0  0  0  0  0  0  0  0  0  0  0  0
    0.0862    0.5213   -1.7273 C   0  0  0  0  0  0  0  0  0  0  0  0
   -0.1105    1.3395    0.5542 C   0  0  0  0  0  0  0  0  0  0  0  0
    1.1505    1.9289    0.4754 O   0  0  0  0  0  0  0  0  0  0  0  0
    0.9287   -0.8615    0.0399 C   0  0  0  0  0  0  0  0  0  0  0  0
    2.3574   -0.5067    0.1186 C   0  0  0  0  0  0  0  0  0  0  0  0
    0.6243   -2.0184    0.2433 O   0  0  0  0  0  0  0  0  0  0  0  0
   -2.7138   -1.9064    0.8578 H   0  0  0  0  0  0  0  0  0  0  0  0
   -2.4924   -0.3558    1.6640 H   0  0  0  0  0  0  0  0  0  0  0  0
   -1.1653   -1.6365    1.6667 H   0  0  0  0  0  0  0  0  0  0  0  0
   -1.4819   -1.4782   -0.9651 H   0  0  0  0  0  0  0  0  0  0  0  0
   -2.2922    0.0536   -0.6391 H   0  0  0  0  0  0  0  0  0  0  0  0
    0.2583   -0.3979   -2.3116 H   0  0  0  0  0  0  0  0  0  0  0  0
    0.9789    1.1873   -1.6841 H   0  0  0  0  0  0  0  0  0  0  0  0
   -0.8028    1.0708   -2.0349 H   0  0  0  0  0  0  0  0  0  0  0  0
   -0.3035    1.1351    1.6327 H   0  0  0  0  0  0  0  0  0  0  0  0
   -0.8322    2.1035    0.2422 H   0  0  0  0  0  0  0  0  0  0  0  0
    1.1086    2.7551    1.0066 H   0  0  0  0  0  0  0  0  0  0  0  0
    2.5965    0.3342   -0.5820 H   0  0  0  0  0  0  0  0  0  0  0  0
    2.9573   -1.3679   -0.2414 H   0  0  0  0  0  0  0  0  0  0  0  0
    2.6982   -0.2539    1.1319 H   0  0  0  0  0  0  0  0  0  0  0  0
  1  2  1  0
  2  3  1  0
  3  4  1  0
  3  5  1  0
  5  6  1  0
  3  7  1  0
  7  8  1  0
  7  9  2  0
  1 10  1  0
  1 11  1  0
  1 12  1  0
  2 13  1  0
  2 14  1  0
  4 15  1  0
  4 16  1  0
  4 17  1  0
  5 18  1  0
  5 19  1  0
  6 20  1  0
  8 21  1  0
  8 22  1  0
  8 23  1  0
M  END
