
     RDKit          3D

 20 20  0  0  0  0  0  0  0  0999 V2000
    2.9516    0.6391   -0.4032 C   0  0  0  0  0  0  0  0  0  0  0  0
    1.8429    0.0587    0.4294 C   0  0  0  0  0  0  0  0  0  0  0  0
    0.6387   -0.1598   -0.4184 C   0  0  0  0  0  0  0  0  0  0  0  0
    0.7011    0.1392   -1.5985 O   0  0  0  0  0  0  0  0  0  0  0  0
   -0.6230   -0.7201    0.1031 C   0  0  0  0  0  0  0  0  0  0  0  0
   -1.6739   -0.8375   -0.9493 C   0  0  0  0  0  0  0  0  0  0  0  0
   -2.6234    0.0602   -0.1808 C   0  0  0  0  0  0  0  0  0  0  0  0
   -1.4473    0.3991    0.7384 C   0  0  0  0  0  0  0  0  0  0  0  0
    3.7312    1.1367    0.2119 H   0  0  0  0  0  0  0  0  0  0  0  0
    2.5451    1.4095   -1.0931 H   0  0  0  0  0  0  0  0  0  0  0  0
    3.3992   -0.1564   -1.0637 H   0  0  0  0  0  0  0  0  0  0  0  0
    1.6242    0.7430    1.2807 H   0  0  0  0  0  0  0  0  0  0  0  0
    2.1288   -0.9106    0.8833 H   0  0  0  0  0  0  0  0  0  0  0  0
   -0.5201   -1.6105    0.7521 H   0  0  0  0  0  0  0  0  0  0  0  0
   -1.4282   -0.3719   -1.9296 H   0  0  0  0  0  0  0  0  0  0  0  0
   -2.0794   -1.8521   -1.1387 H   0  0  0  0  0  0  0  0  0  0  0  0
   -3.4163   -0.5061    0.3556 H   0  0  0  0  0  0  0  0  0  0  0  0
   -3.0119    0.9144   -0.7454 H   0  0  0  0  0  0  0  0  0  0  0  0
   -1.6876    0.2169    1.7853 H   0  0  0  0  0  0  0  0  0  0  0  0
   -1.0518    1.4082    0.5858 H   0  0  0  0  0  0  0  0  0  0  0  0
  1  2  1  0
  2  3  1  0
  3  4  2  0
  3  5  1  0
  5  6  1  0
  6  7  1  0
  7  8  1  0
  8  5  1  0
  1  9  1  0
  1 10  1  0
  1 11  1  0
  2 12  1  0
  2 13  1  0
  5 14  1  0
  6 15  1  0
  6 16  1  0
  7 17  1  0
  7 18  1  0
  8 19  1  0
  8 20  1  0
M  END
