
     RDKit          3D

 21 20  0  0  0  0  0  0  0  0999 V2000
   -2.1455   -1.1039   -0.4160 C   0  0  0  0  0  0  0  0  0  0  0  0
   -0.7062   -1.0500   -0.0170 C   0  0  0  0  0  0  0  0  0  0  0  0
   -0.0242    0.2401   -0.3967 C   0  0  0  0  0  0  0  0  0  0  0  0
    1.4153    0.1414    0.0709 C   0  0  0  0  0  0  0  0  0  0  0  0
    2.1092   -1.0253   -0.5897 C   0  0  0  0  0  0  0  0  0  0  0  0
   -0.6723    1.4046    0.2693 C   0  0  0  0  0  0  0  0  0  0  0  0
   -1.6520    1.2193    1.0305 O   0  0  0  0  0  0  0  0  0  0  0  0
   -0.2099    2.7493    0.0690 C   0  0  0  0  0  0  0  0  0  0  0  0
    0.7589    2.9657   -0.6804 O   0  0  0  0  0  0  0  0  0  0  0  0
   -2.4248   -2.1976   -0.4672 H   0  0  0  0  0  0  0  0  0  0  0  0
   -2.8369   -0.6708    0.3326 H   0  0  0  0  0  0  0  0  0  0  0  0
   -2.3095   -0.6333   -1.4302 H   0  0  0  0  0  0  0  0  0  0  0  0
   -0.1669   -1.8665   -0.5518 H   0  0  0  0  0  0  0  0  0  0  0  0
   -0.6239   -1.1756    1.0615 H   0  0  0  0  0  0  0  0  0  0  0  0
   -0.0083    0.4375   -1.4750 H   0  0  0  0  0  0  0  0  0  0  0  0
    1.9903    1.0661   -0.1049 H   0  0  0  0  0  0  0  0  0  0  0  0
    1.4548   -0.0442    1.1733 H   0  0  0  0  0  0  0  0  0  0  0  0
    1.5638   -1.2356   -1.5442 H   0  0  0  0  0  0  0  0  0  0  0  0
    3.1788   -0.8235   -0.7774 H   0  0  0  0  0  0  0  0  0  0  0  0
    1.9969   -1.9618    0.0156 H   0  0  0  0  0  0  0  0  0  0  0  0
   -0.6878    3.5640    0.5554 H   0  0  0  0  0  0  0  0  0  0  0  0
  1  2  1  0
  2  3  1  0
  3  4  1  0
  4  5  1  0
  3  6  1  0
  6  7  2  0
  6  8  1  0
  8  9  2  0
  1 10  1  0
  1 11  1  0
  1 12  1  0
  2 13  1  0
  2 14  1  0
  3 15  1  0
  4 16  1  0
  4 17  1  0
  5 18  1  0
  5 19  1  0
  5 20  1  0
  8 21  1  0
M  END
