
     RDKit          3D

 19 20  0  0  0  0  0  0  0  0999 V2000
    2.7053   -0.3754    0.0241 C   0  0  0  0  0  0  0  0  0  0  0  0
    1.4766    0.0811    0.8090 C   0  0  0  0  0  0  0  0  0  0  0  0
    0.5257    0.6516   -0.1533 C   0  0  0  0  0  0  0  0  0  0  0  0
    0.7545    1.7669   -0.6093 O   0  0  0  0  0  0  0  0  0  0  0  0
   -0.6671   -0.0806   -0.5671 C   0  0  0  0  0  0  0  0  0  0  0  0
   -1.6234    0.4269   -1.5695 C   0  0  0  0  0  0  0  0  0  0  0  0
   -2.0379    0.4494   -0.1487 C   0  0  0  0  0  0  0  0  0  0  0  0
   -1.9461   -0.7781    0.7071 C   0  0  0  0  0  0  0  0  0  0  0  0
   -0.9292   -1.3296   -0.0547 O   0  0  0  0  0  0  0  0  0  0  0  0
    2.9000    0.4169   -0.7340 H   0  0  0  0  0  0  0  0  0  0  0  0
    2.5070   -1.3172   -0.5283 H   0  0  0  0  0  0  0  0  0  0  0  0
    3.5618   -0.5064    0.7250 H   0  0  0  0  0  0  0  0  0  0  0  0
    1.0787   -0.7807    1.3712 H   0  0  0  0  0  0  0  0  0  0  0  0
    1.8565    0.8394    1.5371 H   0  0  0  0  0  0  0  0  0  0  0  0
   -1.5096    1.3878   -2.0772 H   0  0  0  0  0  0  0  0  0  0  0  0
   -2.1535   -0.3347   -2.1969 H   0  0  0  0  0  0  0  0  0  0  0  0
   -2.0520    1.4420    0.3672 H   0  0  0  0  0  0  0  0  0  0  0  0
   -2.8192   -1.4514    0.6961 H   0  0  0  0  0  0  0  0  0  0  0  0
   -1.6280   -0.5080    1.7319 H   0  0  0  0  0  0  0  0  0  0  0  0
  1  2  1  0
  2  3  1  0
  3  4  2  0
  3  5  1  0
  5  6  1  0
  6  7  1  0
  7  8  1  0
  8  9  1  0
  7  5  1  0
  9  5  1  0
  1 10  1  0
  1 11  1  0
  1 12  1  0
  2 13  1  0
  2 14  1  0
  6 15  1  0
  6 16  1  0
  7 17  1  0
  8 18  1  0
  8 19  1  0
M  END
