
     RDKit          3D

 29 28  0  0  0  0  0  0  0  0999 V2000
    2.2009    1.3976   -0.2823 C   0  0  0  0  0  0  0  0  0  0  0  0
    1.5846    0.3626   -1.1465 C   0  0  0  0  0  0  0  0  0  0  0  0
    0.7877   -0.6808   -0.4461 C   0  0  0  0  0  0  0  0  0  0  0  0
    1.6685   -1.4191    0.5269 C   0  0  0  0  0  0  0  0  0  0  0  0
   -0.5031   -0.2253    0.1464 C   0  0  0  0  0  0  0  0  0  0  0  0
   -1.1364   -1.4612    0.8050 C   0  0  0  0  0  0  0  0  0  0  0  0
   -0.3736    0.8018    1.2195 C   0  0  0  0  0  0  0  0  0  0  0  0
   -1.4230    0.2425   -0.9521 C   0  0  0  0  0  0  0  0  0  0  0  0
   -2.7591    0.7221   -0.4284 C   0  0  0  0  0  0  0  0  0  0  0  0
    3.2872    1.5285   -0.5683 H   0  0  0  0  0  0  0  0  0  0  0  0
    1.7672    2.4254   -0.4569 H   0  0  0  0  0  0  0  0  0  0  0  0
    2.2035    1.1949    0.7889 H   0  0  0  0  0  0  0  0  0  0  0  0
    1.0011    0.8820   -1.9441 H   0  0  0  0  0  0  0  0  0  0  0  0
    2.3907   -0.1858   -1.7200 H   0  0  0  0  0  0  0  0  0  0  0  0
    0.5127   -1.4481   -1.2334 H   0  0  0  0  0  0  0  0  0  0  0  0
    2.4855   -1.8876   -0.0677 H   0  0  0  0  0  0  0  0  0  0  0  0
    2.0334   -0.7933    1.3534 H   0  0  0  0  0  0  0  0  0  0  0  0
    1.1008   -2.2655    0.9723 H   0  0  0  0  0  0  0  0  0  0  0  0
   -0.6319   -1.5870    1.8076 H   0  0  0  0  0  0  0  0  0  0  0  0
   -2.2004   -1.3375    0.9872 H   0  0  0  0  0  0  0  0  0  0  0  0
   -0.8609   -2.3693    0.2303 H   0  0  0  0  0  0  0  0  0  0  0  0
   -1.3758    0.8587    1.7373 H   0  0  0  0  0  0  0  0  0  0  0  0
   -0.1151    1.8049    0.8927 H   0  0  0  0  0  0  0  0  0  0  0  0
    0.3073    0.3920    2.0165 H   0  0  0  0  0  0  0  0  0  0  0  0
   -1.6269   -0.6249   -1.6112 H   0  0  0  0  0  0  0  0  0  0  0  0
   -0.9705    1.0991   -1.4846 H   0  0  0  0  0  0  0  0  0  0  0  0
   -3.3944   -0.1311   -0.1424 H   0  0  0  0  0  0  0  0  0  0  0  0
   -3.2768    1.1883   -1.3179 H   0  0  0  0  0  0  0  0  0  0  0  0
   -2.6831    1.5161    0.3177 H   0  0  0  0  0  0  0  0  0  0  0  0
  1  2  1  0
  2  3  1  0
  3  4  1  0
  3  5  1  0
  5  6  1  0
  5  7  1  0
  5  8  1  0
  8  9  1  0
  1 10  1  0
  1 11  1  0
  1 12  1  0
  2 13  1  0
  2 14  1  0
  3 15  1  0
  4 16  1  0
  4 17  1  0
  4 18  1  0
  6 19  1  0
  6 20  1  0
  6 21  1  0
  7 22  1  0
  7 23  1  0
  7 24  1  0
  8 25  1  0
  8 26  1  0
  9 27  1  0
  9 28  1  0
  9 29  1  0
M  END
