
     RDKit          3D

 23 23  0  0  0  0  0  0  0  0999 V2000
   -1.8631    1.6856    0.1843 C   0  0  0  0  0  0  0  0  0  0  0  0
   -1.8554    0.2019    0.4193 C   0  0  0  0  0  0  0  0  0  0  0  0
   -0.8860   -0.5374   -0.4419 C   0  0  0  0  0  0  0  0  0  0  0  0
   -0.9590   -1.9966   -0.1291 C   0  0  0  0  0  0  0  0  0  0  0  0
    0.4991    0.0251   -0.3105 C   0  0  0  0  0  0  0  0  0  0  0  0
    0.9868   -0.0394    0.9862 O   0  0  0  0  0  0  0  0  0  0  0  0
    2.3236    0.3138    0.7996 C   0  0  0  0  0  0  0  0  0  0  0  0
    2.6051    0.0263   -0.6771 C   0  0  0  0  0  0  0  0  0  0  0  0
    1.4501   -0.7198   -1.0059 O   0  0  0  0  0  0  0  0  0  0  0  0
   -1.2489    2.0091   -0.6691 H   0  0  0  0  0  0  0  0  0  0  0  0
   -2.8984    2.0754   -0.0215 H   0  0  0  0  0  0  0  0  0  0  0  0
   -1.5472    2.1780    1.1405 H   0  0  0  0  0  0  0  0  0  0  0  0
   -2.8767   -0.1874    0.1885 H   0  0  0  0  0  0  0  0  0  0  0  0
   -1.6687   -0.0480    1.4979 H   0  0  0  0  0  0  0  0  0  0  0  0
   -1.1881   -0.3971   -1.5120 H   0  0  0  0  0  0  0  0  0  0  0  0
   -1.1957   -2.1988    0.9513 H   0  0  0  0  0  0  0  0  0  0  0  0
   -0.0019   -2.4884   -0.4147 H   0  0  0  0  0  0  0  0  0  0  0  0
   -1.8204   -2.4428   -0.6919 H   0  0  0  0  0  0  0  0  0  0  0  0
    0.5526    1.0518   -0.6673 H   0  0  0  0  0  0  0  0  0  0  0  0
    2.5179    1.3801    1.0263 H   0  0  0  0  0  0  0  0  0  0  0  0
    3.0120   -0.2970    1.4256 H   0  0  0  0  0  0  0  0  0  0  0  0
    2.5409    0.9554   -1.2588 H   0  0  0  0  0  0  0  0  0  0  0  0
    3.5215   -0.5499   -0.8194 H   0  0  0  0  0  0  0  0  0  0  0  0
  1  2  1  0
  2  3  1  0
  3  4  1  0
  3  5  1  0
  5  6  1  0
  6  7  1  0
  7  8  1  0
  8  9  1  0
  9  5  1  0
  1 10  1  0
  1 11  1  0
  1 12  1  0
  2 13  1  0
  2 14  1  0
  3 15  1  0
  4 16  1  0
  4 17  1  0
  4 18  1  0
  5 19  1  0
  7 20  1  0
  7 21  1  0
  8 22  1  0
  8 23  1  0
M  END
