
     RDKit          3D

 25 25  0  0  0  0  0  0  0  0999 V2000
   -2.2498   -0.7096    0.9917 C   0  0  0  0  0  0  0  0  0  0  0  0
   -1.6921   -0.8146   -0.3782 C   0  0  0  0  0  0  0  0  0  0  0  0
   -0.5108    0.0631   -0.6565 C   0  0  0  0  0  0  0  0  0  0  0  0
   -0.9133    1.5101   -0.4592 C   0  0  0  0  0  0  0  0  0  0  0  0
   -1.3328    1.6628    0.8627 O   0  0  0  0  0  0  0  0  0  0  0  0
    0.6725   -0.1931    0.2170 C   0  0  0  0  0  0  0  0  0  0  0  0
    1.7987    0.7521   -0.1586 C   0  0  0  0  0  0  0  0  0  0  0  0
    2.7585   -0.4151   -0.0812 C   0  0  0  0  0  0  0  0  0  0  0  0
    1.5637   -1.3379   -0.2088 C   0  0  0  0  0  0  0  0  0  0  0  0
   -3.0356    0.0742    1.0426 H   0  0  0  0  0  0  0  0  0  0  0  0
   -1.5163   -0.4756    1.7843 H   0  0  0  0  0  0  0  0  0  0  0  0
   -2.7953   -1.6716    1.2092 H   0  0  0  0  0  0  0  0  0  0  0  0
   -2.5008   -0.4802   -1.0942 H   0  0  0  0  0  0  0  0  0  0  0  0
   -1.5160   -1.8781   -0.6349 H   0  0  0  0  0  0  0  0  0  0  0  0
   -0.1981   -0.1330   -1.7085 H   0  0  0  0  0  0  0  0  0  0  0  0
   -0.0449    2.1766   -0.6682 H   0  0  0  0  0  0  0  0  0  0  0  0
   -1.7420    1.7034   -1.1759 H   0  0  0  0  0  0  0  0  0  0  0  0
   -0.8583    2.4391    1.2475 H   0  0  0  0  0  0  0  0  0  0  0  0
    0.5183   -0.1661    1.2992 H   0  0  0  0  0  0  0  0  0  0  0  0
    1.9908    1.5568    0.5851 H   0  0  0  0  0  0  0  0  0  0  0  0
    1.7450    1.1066   -1.2105 H   0  0  0  0  0  0  0  0  0  0  0  0
    3.3011   -0.4966    0.8824 H   0  0  0  0  0  0  0  0  0  0  0  0
    3.4844   -0.4745   -0.9157 H   0  0  0  0  0  0  0  0  0  0  0  0
    1.6320   -2.1626    0.5010 H   0  0  0  0  0  0  0  0  0  0  0  0
    1.4410   -1.6361   -1.2721 H   0  0  0  0  0  0  0  0  0  0  0  0
  1  2  1  0
  2  3  1  0
  3  4  1  0
  4  5  1  0
  3  6  1  0
  6  7  1  0
  7  8  1  0
  8  9  1  0
  9  6  1  0
  1 10  1  0
  1 11  1  0
  1 12  1  0
  2 13  1  0
  2 14  1  0
  3 15  1  0
  4 16  1  0
  4 17  1  0
  5 18  1  0
  6 19  1  0
  7 20  1  0
  7 21  1  0
  8 22  1  0
  8 23  1  0
  9 24  1  0
  9 25  1  0
M  END
