
     RDKit          3D

 21 22  0  0  0  0  0  0  0  0999 V2000
    3.1742    0.1265    0.0217 C   0  0  0  0  0  0  0  0  0  0  0  0
    1.8131   -0.4861   -0.0006 C   0  0  0  0  0  0  0  0  0  0  0  0
    0.7362    0.4733   -0.3352 C   0  0  0  0  0  0  0  0  0  0  0  0
    1.0333    1.6259   -0.5541 O   0  0  0  0  0  0  0  0  0  0  0  0
   -0.6486   -0.0320   -0.3837 C   0  0  0  0  0  0  0  0  0  0  0  0
   -1.2689   -0.6451    0.8414 C   0  0  0  0  0  0  0  0  0  0  0  0
   -2.5454    0.0898    0.5545 C   0  0  0  0  0  0  0  0  0  0  0  0
   -1.8153    0.8103   -0.5740 C   0  0  0  0  0  0  0  0  0  0  0  0
   -1.3953   -0.0741   -1.6904 C   0  0  0  0  0  0  0  0  0  0  0  0
    3.1901    1.1962   -0.2451 H   0  0  0  0  0  0  0  0  0  0  0  0
    3.6587    0.0577    1.0363 H   0  0  0  0  0  0  0  0  0  0  0  0
    3.8214   -0.4595   -0.6638 H   0  0  0  0  0  0  0  0  0  0  0  0
    1.5973   -0.8558    1.0340 H   0  0  0  0  0  0  0  0  0  0  0  0
    1.7396   -1.3216   -0.7236 H   0  0  0  0  0  0  0  0  0  0  0  0
   -1.3284   -1.7496    0.8033 H   0  0  0  0  0  0  0  0  0  0  0  0
   -0.7559   -0.2853    1.7489 H   0  0  0  0  0  0  0  0  0  0  0  0
   -2.8973    0.7913    1.3218 H   0  0  0  0  0  0  0  0  0  0  0  0
   -3.3200   -0.6285    0.1838 H   0  0  0  0  0  0  0  0  0  0  0  0
   -1.8283    1.8934   -0.6326 H   0  0  0  0  0  0  0  0  0  0  0  0
   -2.0643   -0.9413   -1.8904 H   0  0  0  0  0  0  0  0  0  0  0  0
   -0.8964    0.4144   -2.5277 H   0  0  0  0  0  0  0  0  0  0  0  0
  1  2  1  0
  2  3  1  0
  3  4  2  0
  3  5  1  0
  5  6  1  0
  6  7  1  0
  7  8  1  0
  8  9  1  0
  8  5  1  0
  9  5  1  0
  1 10  1  0
  1 11  1  0
  1 12  1  0
  2 13  1  0
  2 14  1  0
  6 15  1  0
  6 16  1  0
  7 17  1  0
  7 18  1  0
  8 19  1  0
  9 20  1  0
  9 21  1  0
M  END
