
     RDKit          3D

 25 25  0  0  0  0  0  0  0  0999 V2000
    2.5086   -0.9941    0.6941 C   0  0  0  0  0  0  0  0  0  0  0  0
    1.4174   -0.3082    1.4916 C   0  0  0  0  0  0  0  0  0  0  0  0
    0.7316    0.7676    0.7245 C   0  0  0  0  0  0  0  0  0  0  0  0
    1.6407    1.7525    0.3415 O   0  0  0  0  0  0  0  0  0  0  0  0
   -0.0423    0.2417   -0.4628 C   0  0  0  0  0  0  0  0  0  0  0  0
   -0.6630    1.4895   -1.1155 C   0  0  0  0  0  0  0  0  0  0  0  0
   -1.1840   -0.6375   -0.0694 C   0  0  0  0  0  0  0  0  0  0  0  0
   -2.0691   -1.2544   -1.0979 C   0  0  0  0  0  0  0  0  0  0  0  0
   -2.5787   -0.1460   -0.2323 C   0  0  0  0  0  0  0  0  0  0  0  0
    2.0781   -1.3655   -0.2556 H   0  0  0  0  0  0  0  0  0  0  0  0
    3.3905   -0.3536    0.5303 H   0  0  0  0  0  0  0  0  0  0  0  0
    2.7955   -1.9005    1.2983 H   0  0  0  0  0  0  0  0  0  0  0  0
    1.8920    0.1687    2.3767 H   0  0  0  0  0  0  0  0  0  0  0  0
    0.7332   -1.0853    1.8720 H   0  0  0  0  0  0  0  0  0  0  0  0
   -0.0055    1.2678    1.3841 H   0  0  0  0  0  0  0  0  0  0  0  0
    2.4783    1.3825   -0.0308 H   0  0  0  0  0  0  0  0  0  0  0  0
    0.6546   -0.2338   -1.1791 H   0  0  0  0  0  0  0  0  0  0  0  0
    0.1759    2.1573   -1.4683 H   0  0  0  0  0  0  0  0  0  0  0  0
   -1.2304    2.0765   -0.3938 H   0  0  0  0  0  0  0  0  0  0  0  0
   -1.2254    1.1472   -1.9967 H   0  0  0  0  0  0  0  0  0  0  0  0
   -1.0079   -1.2443    0.8587 H   0  0  0  0  0  0  0  0  0  0  0  0
   -1.9044   -1.0637   -2.1829 H   0  0  0  0  0  0  0  0  0  0  0  0
   -2.4410   -2.2868   -0.8872 H   0  0  0  0  0  0  0  0  0  0  0  0
   -3.3358   -0.3739    0.5608 H   0  0  0  0  0  0  0  0  0  0  0  0
   -2.8089    0.7962   -0.7603 H   0  0  0  0  0  0  0  0  0  0  0  0
  1  2  1  0
  2  3  1  0
  3  4  1  0
  3  5  1  0
  5  6  1  0
  5  7  1  0
  7  8  1  0
  8  9  1  0
  9  7  1  0
  1 10  1  0
  1 11  1  0
  1 12  1  0
  2 13  1  0
  2 14  1  0
  3 15  1  0
  4 16  1  0
  5 17  1  0
  6 18  1  0
  6 19  1  0
  6 20  1  0
  7 21  1  0
  8 22  1  0
  8 23  1  0
  9 24  1  0
  9 25  1  0
M  END
