
     RDKit          3D

 25 24  0  0  0  0  0  0  0  0999 V2000
    1.9418   -0.8871   -1.0747 C   0  0  0  0  0  0  0  0  0  0  0  0
    1.2860   -0.8192    0.2605 C   0  0  0  0  0  0  0  0  0  0  0  0
    0.0505    0.0517    0.2873 C   0  0  0  0  0  0  0  0  0  0  0  0
   -0.4808    0.0049    1.7102 C   0  0  0  0  0  0  0  0  0  0  0  0
    0.4461    1.4373   -0.1218 C   0  0  0  0  0  0  0  0  0  0  0  0
   -0.6751    2.4242   -0.1441 C   0  0  0  0  0  0  0  0  0  0  0  0
   -1.0197   -0.4572   -0.5920 C   0  0  0  0  0  0  0  0  0  0  0  0
   -1.6077   -1.7980   -0.3863 C   0  0  0  0  0  0  0  0  0  0  0  0
   -1.4223    0.2346   -1.4959 O   0  0  0  0  0  0  0  0  0  0  0  0
    2.9482   -0.3930   -1.0812 H   0  0  0  0  0  0  0  0  0  0  0  0
    2.1579   -1.9612   -1.3520 H   0  0  0  0  0  0  0  0  0  0  0  0
    1.3677   -0.4524   -1.8991 H   0  0  0  0  0  0  0  0  0  0  0  0
    2.0151   -0.3372    0.9706 H   0  0  0  0  0  0  0  0  0  0  0  0
    1.1119   -1.8312    0.6413 H   0  0  0  0  0  0  0  0  0  0  0  0
   -0.2173    0.9067    2.2899 H   0  0  0  0  0  0  0  0  0  0  0  0
   -1.5869   -0.0749    1.7417 H   0  0  0  0  0  0  0  0  0  0  0  0
   -0.0940   -0.8746    2.2703 H   0  0  0  0  0  0  0  0  0  0  0  0
    0.8900    1.4056   -1.1381 H   0  0  0  0  0  0  0  0  0  0  0  0
    1.1833    1.8100    0.6343 H   0  0  0  0  0  0  0  0  0  0  0  0
   -1.0450    2.5145   -1.1846 H   0  0  0  0  0  0  0  0  0  0  0  0
   -1.5494    2.0945    0.4611 H   0  0  0  0  0  0  0  0  0  0  0  0
   -0.3368    3.4436    0.1513 H   0  0  0  0  0  0  0  0  0  0  0  0
   -1.3202   -2.1495    0.6264 H   0  0  0  0  0  0  0  0  0  0  0  0
   -1.3189   -2.5151   -1.1819 H   0  0  0  0  0  0  0  0  0  0  0  0
   -2.7245   -1.7769   -0.3932 H   0  0  0  0  0  0  0  0  0  0  0  0
  1  2  1  0
  2  3  1  0
  3  4  1  0
  3  5  1  0
  5  6  1  0
  3  7  1  0
  7  8  1  0
  7  9  2  0
  1 10  1  0
  1 11  1  0
  1 12  1  0
  2 13  1  0
  2 14  1  0
  4 15  1  0
  4 16  1  0
  4 17  1  0
  5 18  1  0
  5 19  1  0
  6 20  1  0
  6 21  1  0
  6 22  1  0
  8 23  1  0
  8 24  1  0
  8 25  1  0
M  END
