
     RDKit          3D

 21 20  0  0  0  0  0  0  0  0999 V2000
   -1.9535    0.1403    0.7842 C   0  0  0  0  0  0  0  0  0  0  0  0
   -1.1839   -0.9663    0.0780 C   0  0  0  0  0  0  0  0  0  0  0  0
   -0.2319   -0.3344   -0.9119 C   0  0  0  0  0  0  0  0  0  0  0  0
   -0.9558    0.4694   -1.9251 C   0  0  0  0  0  0  0  0  0  0  0  0
   -0.9177    1.6851   -1.8405 O   0  0  0  0  0  0  0  0  0  0  0  0
    0.8628    0.4457   -0.2367 C   0  0  0  0  0  0  0  0  0  0  0  0
    0.4132    1.4784    0.5493 O   0  0  0  0  0  0  0  0  0  0  0  0
    1.8328   -0.4674    0.4955 C   0  0  0  0  0  0  0  0  0  0  0  0
    2.9537    0.2211    0.9264 O   0  0  0  0  0  0  0  0  0  0  0  0
   -2.9746   -0.1975    1.0569 H   0  0  0  0  0  0  0  0  0  0  0  0
   -1.3636    0.4465    1.6637 H   0  0  0  0  0  0  0  0  0  0  0  0
   -2.0327    0.9771    0.0877 H   0  0  0  0  0  0  0  0  0  0  0  0
   -1.9089   -1.5840   -0.4583 H   0  0  0  0  0  0  0  0  0  0  0  0
   -0.6503   -1.5709    0.8178 H   0  0  0  0  0  0  0  0  0  0  0  0
    0.2827   -1.1586   -1.4839 H   0  0  0  0  0  0  0  0  0  0  0  0
   -1.5159    0.0479   -2.7348 H   0  0  0  0  0  0  0  0  0  0  0  0
    1.4724    0.9035   -1.0712 H   0  0  0  0  0  0  0  0  0  0  0  0
    0.8273    1.4261    1.4659 H   0  0  0  0  0  0  0  0  0  0  0  0
    1.3662   -0.9548    1.3669 H   0  0  0  0  0  0  0  0  0  0  0  0
    2.0942   -1.2794   -0.2209 H   0  0  0  0  0  0  0  0  0  0  0  0
    3.5834    0.2720    0.1770 H   0  0  0  0  0  0  0  0  0  0  0  0
  1  2  1  0
  2  3  1  0
  3  4  1  0
  4  5  2  0
  3  6  1  0
  6  7  1  0
  6  8  1  0
  8  9  1  0
  1 10  1  0
  1 11  1  0
  1 12  1  0
  2 13  1  0
  2 14  1  0
  3 15  1  0
  4 16  1  0
  6 17  1  0
  7 18  1  0
  8 19  1  0
  8 20  1  0
  9 21  1  0
M  END
