
     RDKit          3D

 19 18  0  0  0  0  0  0  0  0999 V2000
   -3.3433   -0.1171   -0.0030 C   0  0  0  0  0  0  0  0  0  0  0  0
   -2.0027    0.5383   -0.2079 C   0  0  0  0  0  0  0  0  0  0  0  0
   -0.8834   -0.4300   -0.0689 C   0  0  0  0  0  0  0  0  0  0  0  0
   -1.0263   -1.6385    0.1880 O   0  0  0  0  0  0  0  0  0  0  0  0
    0.4033    0.0356   -0.2348 O   0  0  0  0  0  0  0  0  0  0  0  0
    1.4953   -0.8570   -0.1098 C   0  0  0  0  0  0  0  0  0  0  0  0
    2.7376    0.0001   -0.3554 C   0  0  0  0  0  0  0  0  0  0  0  0
    2.7164    1.0522    0.6962 C   0  0  0  0  0  0  0  0  0  0  0  0
    3.1009    0.8522    1.8334 O   0  0  0  0  0  0  0  0  0  0  0  0
   -3.6621   -0.4963   -1.0119 H   0  0  0  0  0  0  0  0  0  0  0  0
   -3.2356   -0.9250    0.7235 H   0  0  0  0  0  0  0  0  0  0  0  0
   -4.0526    0.6803    0.3244 H   0  0  0  0  0  0  0  0  0  0  0  0
   -1.9969    1.0170   -1.2011 H   0  0  0  0  0  0  0  0  0  0  0  0
   -1.8718    1.3421    0.5607 H   0  0  0  0  0  0  0  0  0  0  0  0
    1.5988   -1.2759    0.8953 H   0  0  0  0  0  0  0  0  0  0  0  0
    1.4281   -1.6937   -0.8321 H   0  0  0  0  0  0  0  0  0  0  0  0
    2.5864    0.4913   -1.3297 H   0  0  0  0  0  0  0  0  0  0  0  0
    3.6587   -0.6090   -0.3216 H   0  0  0  0  0  0  0  0  0  0  0  0
    2.3490    2.0334    0.4546 H   0  0  0  0  0  0  0  0  0  0  0  0
  1  2  1  0
  2  3  1  0
  3  4  2  0
  3  5  1  0
  5  6  1  0
  6  7  1  0
  7  8  1  0
  8  9  2  0
  1 10  1  0
  1 11  1  0
  1 12  1  0
  2 13  1  0
  2 14  1  0
  6 15  1  0
  6 16  1  0
  7 17  1  0
  7 18  1  0
  8 19  1  0
M  END
