
     RDKit          3D

 19 19  0  0  0  0  0  0  0  0999 V2000
    2.4030   -0.5726   -0.6817 C   0  0  0  0  0  0  0  0  0  0  0  0
    1.5619    0.5538   -0.1770 C   0  0  0  0  0  0  0  0  0  0  0  0
    0.4615    0.2412    0.7223 C   0  0  0  0  0  0  0  0  0  0  0  0
    0.6335    0.3210    1.9418 O   0  0  0  0  0  0  0  0  0  0  0  0
   -0.9157   -0.1673    0.3370 C   0  0  0  0  0  0  0  0  0  0  0  0
   -1.0580   -1.4966   -0.2887 C   0  0  0  0  0  0  0  0  0  0  0  0
   -2.1172   -1.8769   -0.7239 O   0  0  0  0  0  0  0  0  0  0  0  0
   -2.0277    0.5312    1.0983 C   0  0  0  0  0  0  0  0  0  0  0  0
   -1.7470    0.8899   -0.3512 C   0  0  0  0  0  0  0  0  0  0  0  0
    3.4224   -0.1246   -1.0022 H   0  0  0  0  0  0  0  0  0  0  0  0
    2.6323   -1.2117    0.1684 H   0  0  0  0  0  0  0  0  0  0  0  0
    1.9826   -1.0711   -1.5690 H   0  0  0  0  0  0  0  0  0  0  0  0
    1.2490    1.2947   -0.9641 H   0  0  0  0  0  0  0  0  0  0  0  0
    2.2990    1.1891    0.4503 H   0  0  0  0  0  0  0  0  0  0  0  0
   -0.2368   -2.2214   -0.4035 H   0  0  0  0  0  0  0  0  0  0  0  0
   -2.9465   -0.0107    1.3700 H   0  0  0  0  0  0  0  0  0  0  0  0
   -1.7116    1.3848    1.7657 H   0  0  0  0  0  0  0  0  0  0  0  0
   -2.5334    0.4959   -1.0289 H   0  0  0  0  0  0  0  0  0  0  0  0
   -1.3512    1.8512   -0.6634 H   0  0  0  0  0  0  0  0  0  0  0  0
  1  2  1  0
  2  3  1  0
  3  4  2  0
  3  5  1  0
  5  6  1  0
  6  7  2  0
  5  8  1  0
  8  9  1  0
  9  5  1  0
  1 10  1  0
  1 11  1  0
  1 12  1  0
  2 13  1  0
  2 14  1  0
  6 15  1  0
  8 16  1  0
  8 17  1  0
  9 18  1  0
  9 19  1  0
M  END
