
     RDKit          3D

 23 22  0  0  0  0  0  0  0  0999 V2000
    3.3095    0.4984    0.3946 C   0  0  0  0  0  0  0  0  0  0  0  0
    2.2269   -0.2911   -0.3139 C   0  0  0  0  0  0  0  0  0  0  0  0
    0.8685    0.1620    0.0919 C   0  0  0  0  0  0  0  0  0  0  0  0
    0.6710    1.0560    0.8936 O   0  0  0  0  0  0  0  0  0  0  0  0
   -0.2943   -0.5089   -0.5105 C   0  0  0  0  0  0  0  0  0  0  0  0
   -0.2810   -2.0040   -0.1852 C   0  0  0  0  0  0  0  0  0  0  0  0
   -1.6095    0.0258   -0.0220 C   0  0  0  0  0  0  0  0  0  0  0  0
   -1.7724    1.3807   -0.2960 O   0  0  0  0  0  0  0  0  0  0  0  0
   -3.0226    1.7612    0.2014 C   0  0  0  0  0  0  0  0  0  0  0  0
    4.2886    0.1134    0.0432 H   0  0  0  0  0  0  0  0  0  0  0  0
    3.2824    0.3644    1.4862 H   0  0  0  0  0  0  0  0  0  0  0  0
    3.2305    1.5369    0.0645 H   0  0  0  0  0  0  0  0  0  0  0  0
    2.3500   -0.0928   -1.4011 H   0  0  0  0  0  0  0  0  0  0  0  0
    2.2952   -1.3701   -0.0696 H   0  0  0  0  0  0  0  0  0  0  0  0
   -0.2625   -0.3430   -1.6115 H   0  0  0  0  0  0  0  0  0  0  0  0
   -0.3838   -2.1001    0.8998 H   0  0  0  0  0  0  0  0  0  0  0  0
   -1.1802   -2.4418   -0.6598 H   0  0  0  0  0  0  0  0  0  0  0  0
    0.6449   -2.4914   -0.4966 H   0  0  0  0  0  0  0  0  0  0  0  0
   -2.4082   -0.5042   -0.6043 H   0  0  0  0  0  0  0  0  0  0  0  0
   -1.8021   -0.2211    1.0433 H   0  0  0  0  0  0  0  0  0  0  0  0
   -3.8494    1.1853   -0.2749 H   0  0  0  0  0  0  0  0  0  0  0  0
   -3.0600    1.4632    1.2896 H   0  0  0  0  0  0  0  0  0  0  0  0
   -3.2417    2.8212    0.0567 H   0  0  0  0  0  0  0  0  0  0  0  0
  1  2  1  0
  2  3  1  0
  3  4  2  0
  3  5  1  0
  5  6  1  0
  5  7  1  0
  7  8  1  0
  8  9  1  0
  1 10  1  0
  1 11  1  0
  1 12  1  0
  2 13  1  0
  2 14  1  0
  5 15  1  0
  6 16  1  0
  6 17  1  0
  6 18  1  0
  7 19  1  0
  7 20  1  0
  9 21  1  0
  9 22  1  0
  9 23  1  0
M  END
