
     RDKit          3D

 27 26  0  0  0  0  0  0  0  0999 V2000
   -2.8664    0.6540    0.2177 C   0  0  0  0  0  0  0  0  0  0  0  0
   -1.4802    0.5108   -0.3780 C   0  0  0  0  0  0  0  0  0  0  0  0
   -0.8051   -0.7019    0.1895 C   0  0  0  0  0  0  0  0  0  0  0  0
   -0.6681   -0.6092    1.6776 C   0  0  0  0  0  0  0  0  0  0  0  0
    0.4932   -1.0014   -0.4863 C   0  0  0  0  0  0  0  0  0  0  0  0
    0.2480   -1.2501   -1.9646 C   0  0  0  0  0  0  0  0  0  0  0  0
    1.5045    0.0917   -0.3733 C   0  0  0  0  0  0  0  0  0  0  0  0
    1.8452    0.3930    0.9394 O   0  0  0  0  0  0  0  0  0  0  0  0
    2.7955    1.4290    0.8706 C   0  0  0  0  0  0  0  0  0  0  0  0
   -3.6380    0.3909   -0.5593 H   0  0  0  0  0  0  0  0  0  0  0  0
   -3.0363   -0.0757    1.0419 H   0  0  0  0  0  0  0  0  0  0  0  0
   -3.0658    1.6889    0.5540 H   0  0  0  0  0  0  0  0  0  0  0  0
   -0.8800    1.4065   -0.0911 H   0  0  0  0  0  0  0  0  0  0  0  0
   -1.5704    0.3797   -1.4694 H   0  0  0  0  0  0  0  0  0  0  0  0
   -1.4863   -1.5731   -0.0173 H   0  0  0  0  0  0  0  0  0  0  0  0
   -1.5236   -1.1122    2.2077 H   0  0  0  0  0  0  0  0  0  0  0  0
    0.2938   -1.0428    2.0518 H   0  0  0  0  0  0  0  0  0  0  0  0
   -0.6616    0.4567    2.0006 H   0  0  0  0  0  0  0  0  0  0  0  0
    0.9310   -1.9191   -0.0514 H   0  0  0  0  0  0  0  0  0  0  0  0
    0.0404   -0.3188   -2.5086 H   0  0  0  0  0  0  0  0  0  0  0  0
   -0.4906   -2.0535   -2.1363 H   0  0  0  0  0  0  0  0  0  0  0  0
    1.2333   -1.6214   -2.3723 H   0  0  0  0  0  0  0  0  0  0  0  0
    2.4434   -0.2769   -0.8607 H   0  0  0  0  0  0  0  0  0  0  0  0
    1.2207    1.0076   -0.9491 H   0  0  0  0  0  0  0  0  0  0  0  0
    3.1203    1.7296    1.8645 H   0  0  0  0  0  0  0  0  0  0  0  0
    3.6590    1.1040    0.2426 H   0  0  0  0  0  0  0  0  0  0  0  0
    2.3442    2.3136    0.3598 H   0  0  0  0  0  0  0  0  0  0  0  0
  1  2  1  0
  2  3  1  0
  3  4  1  0
  3  5  1  0
  5  6  1  0
  5  7  1  0
  7  8  1  0
  8  9  1  0
  1 10  1  0
  1 11  1  0
  1 12  1  0
  2 13  1  0
  2 14  1  0
  3 15  1  0
  4 16  1  0
  4 17  1  0
  4 18  1  0
  5 19  1  0
  6 20  1  0
  6 21  1  0
  6 22  1  0
  7 23  1  0
  7 24  1  0
  9 25  1  0
  9 26  1  0
  9 27  1  0
M  END
