
     RDKit          3D

 23 23  0  0  0  0  0  0  0  0999 V2000
    2.7012    0.1966   -1.0349 C   0  0  0  0  0  0  0  0  0  0  0  0
    1.1969    0.2994   -0.9056 C   0  0  0  0  0  0  0  0  0  0  0  0
    0.7290   -0.2723    0.4197 C   0  0  0  0  0  0  0  0  0  0  0  0
    1.0681   -1.6066    0.5544 O   0  0  0  0  0  0  0  0  0  0  0  0
   -0.7241    0.0120    0.6682 C   0  0  0  0  0  0  0  0  0  0  0  0
   -1.2156   -0.5053    2.0036 C   0  0  0  0  0  0  0  0  0  0  0  0
   -1.6846   -0.2588   -0.4180 C   0  0  0  0  0  0  0  0  0  0  0  0
   -1.8116    1.2465   -0.6061 C   0  0  0  0  0  0  0  0  0  0  0  0
   -0.9640    1.3832    0.5076 O   0  0  0  0  0  0  0  0  0  0  0  0
    3.0356    0.4178   -2.0424 H   0  0  0  0  0  0  0  0  0  0  0  0
    3.0185   -0.8559   -0.8112 H   0  0  0  0  0  0  0  0  0  0  0  0
    3.1631    0.8457   -0.2526 H   0  0  0  0  0  0  0  0  0  0  0  0
    0.9460    1.3751   -0.9969 H   0  0  0  0  0  0  0  0  0  0  0  0
    0.7694   -0.2776   -1.7646 H   0  0  0  0  0  0  0  0  0  0  0  0
    1.2991    0.2687    1.2056 H   0  0  0  0  0  0  0  0  0  0  0  0
    0.7177   -2.1948   -0.1343 H   0  0  0  0  0  0  0  0  0  0  0  0
   -1.7799    0.2963    2.5189 H   0  0  0  0  0  0  0  0  0  0  0  0
   -1.8863   -1.3877    1.7971 H   0  0  0  0  0  0  0  0  0  0  0  0
   -0.3367   -0.8108    2.5961 H   0  0  0  0  0  0  0  0  0  0  0  0
   -1.3713   -0.7929   -1.3041 H   0  0  0  0  0  0  0  0  0  0  0  0
   -2.6836   -0.6606   -0.0792 H   0  0  0  0  0  0  0  0  0  0  0  0
   -2.8059    1.6641   -0.3649 H   0  0  0  0  0  0  0  0  0  0  0  0
   -1.3810    1.6179   -1.5563 H   0  0  0  0  0  0  0  0  0  0  0  0
  1  2  1  0
  2  3  1  0
  3  4  1  0
  3  5  1  0
  5  6  1  0
  5  7  1  0
  7  8  1  0
  8  9  1  0
  9  5  1  0
  1 10  1  0
  1 11  1  0
  1 12  1  0
  2 13  1  0
  2 14  1  0
  3 15  1  0
  4 16  1  0
  6 17  1  0
  6 18  1  0
  6 19  1  0
  7 20  1  0
  7 21  1  0
  8 22  1  0
  8 23  1  0
M  END
