
     RDKit          3D

 21 21  0  0  0  0  0  0  0  0999 V2000
    2.5348    0.3955    0.0781 C   0  0  0  0  0  0  0  0  0  0  0  0
    1.7096   -0.8325    0.2193 C   0  0  0  0  0  0  0  0  0  0  0  0
    0.3598   -0.6022    0.8290 C   0  0  0  0  0  0  0  0  0  0  0  0
    0.4861   -0.0571    2.1261 O   0  0  0  0  0  0  0  0  0  0  0  0
   -0.5193    0.3002    0.0488 C   0  0  0  0  0  0  0  0  0  0  0  0
   -1.8903    0.6297    0.5167 C   0  0  0  0  0  0  0  0  0  0  0  0
   -2.5139    1.8045    0.1443 O   0  0  0  0  0  0  0  0  0  0  0  0
   -1.7539   -0.3893   -0.5641 C   0  0  0  0  0  0  0  0  0  0  0  0
   -2.0598   -0.0869   -1.8735 O   0  0  0  0  0  0  0  0  0  0  0  0
    2.4334    0.8413   -0.9327 H   0  0  0  0  0  0  0  0  0  0  0  0
    2.3582    1.1567    0.8579 H   0  0  0  0  0  0  0  0  0  0  0  0
    3.6100    0.0954    0.1644 H   0  0  0  0  0  0  0  0  0  0  0  0
    1.6266   -1.3639   -0.7461 H   0  0  0  0  0  0  0  0  0  0  0  0
    2.2509   -1.5459    0.9023 H   0  0  0  0  0  0  0  0  0  0  0  0
   -0.1453   -1.5750    0.9737 H   0  0  0  0  0  0  0  0  0  0  0  0
    0.7353   -0.7937    2.7519 H   0  0  0  0  0  0  0  0  0  0  0  0
   -0.0731    1.0846   -0.6220 H   0  0  0  0  0  0  0  0  0  0  0  0
   -2.1309    0.2876    1.5455 H   0  0  0  0  0  0  0  0  0  0  0  0
   -2.0426    2.2637   -0.5964 H   0  0  0  0  0  0  0  0  0  0  0  0
   -1.9691   -1.4228   -0.2589 H   0  0  0  0  0  0  0  0  0  0  0  0
   -3.0065   -0.1900   -2.0820 H   0  0  0  0  0  0  0  0  0  0  0  0
  1  2  1  0
  2  3  1  0
  3  4  1  0
  3  5  1  0
  5  6  1  0
  6  7  1  0
  6  8  1  0
  8  9  1  0
  8  5  1  0
  1 10  1  0
  1 11  1  0
  1 12  1  0
  2 13  1  0
  2 14  1  0
  3 15  1  0
  4 16  1  0
  5 17  1  0
  6 18  1  0
  7 19  1  0
  8 20  1  0
  9 21  1  0
M  END
