
     RDKit          3D

 29 28  0  0  0  0  0  0  0  0999 V2000
    1.9410   -1.5455   -0.1562 C   0  0  0  0  0  0  0  0  0  0  0  0
    1.5765   -0.3118    0.5762 C   0  0  0  0  0  0  0  0  0  0  0  0
    0.4607    0.4910    0.0214 C   0  0  0  0  0  0  0  0  0  0  0  0
    0.3158    1.6893    0.9759 C   0  0  0  0  0  0  0  0  0  0  0  0
    0.7899    1.0670   -1.3260 C   0  0  0  0  0  0  0  0  0  0  0  0
   -0.8755   -0.1940    0.0244 C   0  0  0  0  0  0  0  0  0  0  0  0
   -1.2982   -0.5649    1.4228 C   0  0  0  0  0  0  0  0  0  0  0  0
   -0.9918   -1.3511   -0.9128 C   0  0  0  0  0  0  0  0  0  0  0  0
   -1.8917    0.8560   -0.4534 C   0  0  0  0  0  0  0  0  0  0  0  0
    2.1560   -1.3010   -1.2314 H   0  0  0  0  0  0  0  0  0  0  0  0
    1.2807   -2.3973   -0.0469 H   0  0  0  0  0  0  0  0  0  0  0  0
    2.9462   -1.8789    0.2407 H   0  0  0  0  0  0  0  0  0  0  0  0
    2.4798    0.3512    0.6058 H   0  0  0  0  0  0  0  0  0  0  0  0
    1.3527   -0.5350    1.6438 H   0  0  0  0  0  0  0  0  0  0  0  0
    1.3210    2.2004    0.9552 H   0  0  0  0  0  0  0  0  0  0  0  0
   -0.4070    2.4149    0.6123 H   0  0  0  0  0  0  0  0  0  0  0  0
    0.1664    1.3191    1.9896 H   0  0  0  0  0  0  0  0  0  0  0  0
    0.3976    2.0960   -1.4431 H   0  0  0  0  0  0  0  0  0  0  0  0
    1.9135    1.1830   -1.3511 H   0  0  0  0  0  0  0  0  0  0  0  0
    0.5354    0.4166   -2.1708 H   0  0  0  0  0  0  0  0  0  0  0  0
   -0.5606   -1.2424    1.9228 H   0  0  0  0  0  0  0  0  0  0  0  0
   -1.5961    0.2866    2.0380 H   0  0  0  0  0  0  0  0  0  0  0  0
   -2.2249   -1.2007    1.3066 H   0  0  0  0  0  0  0  0  0  0  0  0
   -1.9559   -1.3225   -1.5043 H   0  0  0  0  0  0  0  0  0  0  0  0
   -0.1986   -1.4233   -1.6647 H   0  0  0  0  0  0  0  0  0  0  0  0
   -1.1009   -2.2931   -0.2990 H   0  0  0  0  0  0  0  0  0  0  0  0
   -1.5183    1.4036   -1.3371 H   0  0  0  0  0  0  0  0  0  0  0  0
   -2.8072    0.3038   -0.8188 H   0  0  0  0  0  0  0  0  0  0  0  0
   -2.2065    1.4826    0.3799 H   0  0  0  0  0  0  0  0  0  0  0  0
  1  2  1  0
  2  3  1  0
  3  4  1  0
  3  5  1  0
  3  6  1  0
  6  7  1  0
  6  8  1  0
  6  9  1  0
  1 10  1  0
  1 11  1  0
  1 12  1  0
  2 13  1  0
  2 14  1  0
  4 15  1  0
  4 16  1  0
  4 17  1  0
  5 18  1  0
  5 19  1  0
  5 20  1  0
  7 21  1  0
  7 22  1  0
  7 23  1  0
  8 24  1  0
  8 25  1  0
  8 26  1  0
  9 27  1  0
  9 28  1  0
  9 29  1  0
M  END
