
     RDKit          3D

 23 23  0  0  0  0  0  0  0  0999 V2000
   -2.9898    0.8918    0.1262 C   0  0  0  0  0  0  0  0  0  0  0  0
   -1.5776    0.7055   -0.3267 C   0  0  0  0  0  0  0  0  0  0  0  0
   -0.9237   -0.5141    0.3092 C   0  0  0  0  0  0  0  0  0  0  0  0
   -1.5787   -1.6860    0.0149 O   0  0  0  0  0  0  0  0  0  0  0  0
    0.5023   -0.4966   -0.1693 C   0  0  0  0  0  0  0  0  0  0  0  0
    1.2528    0.7570    0.2340 C   0  0  0  0  0  0  0  0  0  0  0  0
    2.4794   -0.1609    0.3322 C   0  0  0  0  0  0  0  0  0  0  0  0
    3.3440    0.1716    1.3677 O   0  0  0  0  0  0  0  0  0  0  0  0
    1.4918   -1.2635    0.6600 C   0  0  0  0  0  0  0  0  0  0  0  0
   -3.5217   -0.0859    0.1416 H   0  0  0  0  0  0  0  0  0  0  0  0
   -3.0289    1.4358    1.0674 H   0  0  0  0  0  0  0  0  0  0  0  0
   -3.5140    1.4905   -0.6691 H   0  0  0  0  0  0  0  0  0  0  0  0
   -0.9924    1.5927   -0.0359 H   0  0  0  0  0  0  0  0  0  0  0  0
   -1.5117    0.5400   -1.4306 H   0  0  0  0  0  0  0  0  0  0  0  0
   -0.9583   -0.3611    1.4018 H   0  0  0  0  0  0  0  0  0  0  0  0
   -1.3408   -2.0045   -0.8853 H   0  0  0  0  0  0  0  0  0  0  0  0
    0.6365   -0.7103   -1.2308 H   0  0  0  0  0  0  0  0  0  0  0  0
    1.3276    1.5282   -0.5324 H   0  0  0  0  0  0  0  0  0  0  0  0
    0.8990    1.0806    1.2381 H   0  0  0  0  0  0  0  0  0  0  0  0
    2.9363   -0.2384   -0.6645 H   0  0  0  0  0  0  0  0  0  0  0  0
    3.9624    0.8561    1.0052 H   0  0  0  0  0  0  0  0  0  0  0  0
    1.2909   -1.2906    1.7470 H   0  0  0  0  0  0  0  0  0  0  0  0
    1.8146   -2.2380    0.2670 H   0  0  0  0  0  0  0  0  0  0  0  0
  1  2  1  0
  2  3  1  0
  3  4  1  0
  3  5  1  0
  5  6  1  0
  6  7  1  0
  7  8  1  0
  7  9  1  0
  9  5  1  0
  1 10  1  0
  1 11  1  0
  1 12  1  0
  2 13  1  0
  2 14  1  0
  3 15  1  0
  4 16  1  0
  5 17  1  0
  6 18  1  0
  6 19  1  0
  7 20  1  0
  8 21  1  0
  9 22  1  0
  9 23  1  0
M  END
