
     RDKit          3D

 23 22  0  0  0  0  0  0  0  0999 V2000
    3.0765    1.0719    0.1233 C   0  0  0  0  0  0  0  0  0  0  0  0
    1.6090    0.7309   -0.0140 C   0  0  0  0  0  0  0  0  0  0  0  0
    1.3595   -0.7147    0.1038 C   0  0  0  0  0  0  0  0  0  0  0  0
    2.3521   -1.4361    0.2960 O   0  0  0  0  0  0  0  0  0  0  0  0
    0.0777   -1.3932    0.0198 C   0  0  0  0  0  0  0  0  0  0  0  0
   -1.1305   -0.5613   -0.2082 C   0  0  0  0  0  0  0  0  0  0  0  0
   -2.3204   -1.5567   -0.2501 C   0  0  0  0  0  0  0  0  0  0  0  0
   -1.4412    0.3323    0.7949 O   0  0  0  0  0  0  0  0  0  0  0  0
   -1.7718    1.5863    0.3380 C   0  0  0  0  0  0  0  0  0  0  0  0
    3.3749    1.9442   -0.4888 H   0  0  0  0  0  0  0  0  0  0  0  0
    3.6669    0.1610   -0.1299 H   0  0  0  0  0  0  0  0  0  0  0  0
    3.3546    1.3262    1.1717 H   0  0  0  0  0  0  0  0  0  0  0  0
    1.0817    1.3237    0.7678 H   0  0  0  0  0  0  0  0  0  0  0  0
    1.2388    1.0996   -1.0011 H   0  0  0  0  0  0  0  0  0  0  0  0
   -0.0781   -2.0643    0.9054 H   0  0  0  0  0  0  0  0  0  0  0  0
    0.1376   -2.1185   -0.8455 H   0  0  0  0  0  0  0  0  0  0  0  0
   -1.1662   -0.1238   -1.2291 H   0  0  0  0  0  0  0  0  0  0  0  0
   -2.0814   -2.3628   -0.9726 H   0  0  0  0  0  0  0  0  0  0  0  0
   -3.2276   -1.0577   -0.6225 H   0  0  0  0  0  0  0  0  0  0  0  0
   -2.4345   -1.9896    0.7533 H   0  0  0  0  0  0  0  0  0  0  0  0
   -2.6741    1.5653   -0.3414 H   0  0  0  0  0  0  0  0  0  0  0  0
   -2.0382    2.2759    1.1471 H   0  0  0  0  0  0  0  0  0  0  0  0
   -0.9651    1.9617   -0.3177 H   0  0  0  0  0  0  0  0  0  0  0  0
  1  2  1  0
  2  3  1  0
  3  4  2  0
  3  5  1  0
  5  6  1  0
  6  7  1  0
  6  8  1  0
  8  9  1  0
  1 10  1  0
  1 11  1  0
  1 12  1  0
  2 13  1  0
  2 14  1  0
  5 15  1  0
  5 16  1  0
  6 17  1  0
  7 18  1  0
  7 19  1  0
  7 20  1  0
  9 21  1  0
  9 22  1  0
  9 23  1  0
M  END
