
     RDKit          3D

 23 22  0  0  0  0  0  0  0  0999 V2000
    1.0994    2.2268    0.4072 C   0  0  0  0  0  0  0  0  0  0  0  0
    0.3817    1.3335   -0.5736 C   0  0  0  0  0  0  0  0  0  0  0  0
   -0.5202    0.3505    0.0431 C   0  0  0  0  0  0  0  0  0  0  0  0
   -1.2052   -0.4849   -1.0727 C   0  0  0  0  0  0  0  0  0  0  0  0
   -2.1252   -1.4875   -0.4399 C   0  0  0  0  0  0  0  0  0  0  0  0
    0.0407   -0.5887    1.0645 C   0  0  0  0  0  0  0  0  0  0  0  0
    1.0180   -1.4625    0.7357 O   0  0  0  0  0  0  0  0  0  0  0  0
    2.2900   -1.4141    0.3309 C   0  0  0  0  0  0  0  0  0  0  0  0
    2.8685   -0.3346    0.1772 O   0  0  0  0  0  0  0  0  0  0  0  0
    0.4658    3.1048    0.6786 H   0  0  0  0  0  0  0  0  0  0  0  0
    1.9941    2.6302   -0.1095 H   0  0  0  0  0  0  0  0  0  0  0  0
    1.4287    1.7124    1.3182 H   0  0  0  0  0  0  0  0  0  0  0  0
   -0.2694    2.0519   -1.1750 H   0  0  0  0  0  0  0  0  0  0  0  0
    1.0394    0.8838   -1.3328 H   0  0  0  0  0  0  0  0  0  0  0  0
   -1.3416    0.9153    0.5798 H   0  0  0  0  0  0  0  0  0  0  0  0
   -1.8187    0.1861   -1.7090 H   0  0  0  0  0  0  0  0  0  0  0  0
   -0.4345   -0.9796   -1.6751 H   0  0  0  0  0  0  0  0  0  0  0  0
   -2.6013   -0.9917    0.4335 H   0  0  0  0  0  0  0  0  0  0  0  0
   -2.9673   -1.7595   -1.1271 H   0  0  0  0  0  0  0  0  0  0  0  0
   -1.6217   -2.4041   -0.1055 H   0  0  0  0  0  0  0  0  0  0  0  0
    0.2668    0.0455    1.9756 H   0  0  0  0  0  0  0  0  0  0  0  0
   -0.8377   -1.2102    1.4497 H   0  0  0  0  0  0  0  0  0  0  0  0
    2.8496   -2.3233    0.1261 H   0  0  0  0  0  0  0  0  0  0  0  0
  1  2  1  0
  2  3  1  0
  3  4  1  0
  4  5  1  0
  3  6  1  0
  6  7  1  0
  7  8  1  0
  8  9  2  0
  1 10  1  0
  1 11  1  0
  1 12  1  0
  2 13  1  0
  2 14  1  0
  3 15  1  0
  4 16  1  0
  4 17  1  0
  5 18  1  0
  5 19  1  0
  5 20  1  0
  6 21  1  0
  6 22  1  0
  8 23  1  0
M  END
