
     RDKit          3D

 22 22  0  0  0  0  0  0  0  0999 V2000
    0.2220    2.2710    0.7242 C   0  0  0  0  0  0  0  0  0  0  0  0
    0.1547    1.4467   -0.5427 C   0  0  0  0  0  0  0  0  0  0  0  0
    0.2855   -0.0317   -0.2659 C   0  0  0  0  0  0  0  0  0  0  0  0
    1.5320   -0.2073    0.3498 O   0  0  0  0  0  0  0  0  0  0  0  0
    2.3520   -0.9636   -0.4843 C   0  0  0  0  0  0  0  0  0  0  0  0
   -0.7988   -0.5845    0.5801 C   0  0  0  0  0  0  0  0  0  0  0  0
   -2.2148   -0.5731    0.2606 C   0  0  0  0  0  0  0  0  0  0  0  0
   -1.4389   -1.8877    0.0668 C   0  0  0  0  0  0  0  0  0  0  0  0
    0.5663    1.6164    1.5744 H   0  0  0  0  0  0  0  0  0  0  0  0
   -0.7513    2.7460    0.9707 H   0  0  0  0  0  0  0  0  0  0  0  0
    0.9402    3.1276    0.6022 H   0  0  0  0  0  0  0  0  0  0  0  0
   -0.7453    1.6733   -1.1412 H   0  0  0  0  0  0  0  0  0  0  0  0
    1.0252    1.7304   -1.1704 H   0  0  0  0  0  0  0  0  0  0  0  0
    0.2895   -0.5361   -1.2379 H   0  0  0  0  0  0  0  0  0  0  0  0
    2.4558   -0.3989   -1.4319 H   0  0  0  0  0  0  0  0  0  0  0  0
    3.2990   -1.2169    0.0006 H   0  0  0  0  0  0  0  0  0  0  0  0
    1.7781   -1.8945   -0.7581 H   0  0  0  0  0  0  0  0  0  0  0  0
   -0.5362   -0.6499    1.6705 H   0  0  0  0  0  0  0  0  0  0  0  0
   -2.9546   -0.5756    1.1025 H   0  0  0  0  0  0  0  0  0  0  0  0
   -2.6509   -0.2033   -0.6743 H   0  0  0  0  0  0  0  0  0  0  0  0
   -1.1873   -2.1906   -0.9681 H   0  0  0  0  0  0  0  0  0  0  0  0
   -1.6221   -2.6978    0.7722 H   0  0  0  0  0  0  0  0  0  0  0  0
  1  2  1  0
  2  3  1  0
  3  4  1  0
  4  5  1  0
  3  6  1  0
  6  7  1  0
  7  8  1  0
  8  6  1  0
  1  9  1  0
  1 10  1  0
  1 11  1  0
  2 12  1  0
  2 13  1  0
  3 14  1  0
  5 15  1  0
  5 16  1  0
  5 17  1  0
  6 18  1  0
  7 19  1  0
  7 20  1  0
  8 21  1  0
  8 22  1  0
M  END
