
     RDKit          3D

 23 22  0  0  0  0  0  0  0  0999 V2000
   -2.3429    0.6920   -1.0109 C   0  0  0  0  0  0  0  0  0  0  0  0
   -1.5503   -0.5603   -0.7945 C   0  0  0  0  0  0  0  0  0  0  0  0
   -0.1761   -0.2613   -0.1678 C   0  0  0  0  0  0  0  0  0  0  0  0
    0.4663   -1.6203   -0.0275 C   0  0  0  0  0  0  0  0  0  0  0  0
   -0.4968    0.3364    1.1895 C   0  0  0  0  0  0  0  0  0  0  0  0
    0.4756    0.5582   -0.9968 O   0  0  0  0  0  0  0  0  0  0  0  0
    1.6830    1.0767   -0.7535 C   0  0  0  0  0  0  0  0  0  0  0  0
    2.8591    0.2133   -0.6527 C   0  0  0  0  0  0  0  0  0  0  0  0
    3.9198    0.7360   -0.3565 O   0  0  0  0  0  0  0  0  0  0  0  0
   -1.7631    1.5108   -1.4730 H   0  0  0  0  0  0  0  0  0  0  0  0
   -2.8456    1.0076   -0.0659 H   0  0  0  0  0  0  0  0  0  0  0  0
   -3.1640    0.4468   -1.7180 H   0  0  0  0  0  0  0  0  0  0  0  0
   -1.4373   -1.0989   -1.7575 H   0  0  0  0  0  0  0  0  0  0  0  0
   -2.1326   -1.2284   -0.1269 H   0  0  0  0  0  0  0  0  0  0  0  0
    0.8248   -1.9271   -1.0286 H   0  0  0  0  0  0  0  0  0  0  0  0
    1.3068   -1.6620    0.6748 H   0  0  0  0  0  0  0  0  0  0  0  0
   -0.3127   -2.3667    0.3090 H   0  0  0  0  0  0  0  0  0  0  0  0
   -1.0891    1.2442    1.0050 H   0  0  0  0  0  0  0  0  0  0  0  0
    0.3936    0.5995    1.7611 H   0  0  0  0  0  0  0  0  0  0  0  0
   -1.0495   -0.4471    1.7585 H   0  0  0  0  0  0  0  0  0  0  0  0
    1.7158    1.7280    0.1758 H   0  0  0  0  0  0  0  0  0  0  0  0
    1.8686    1.8537   -1.5787 H   0  0  0  0  0  0  0  0  0  0  0  0
    2.8466   -0.8311   -0.8220 H   0  0  0  0  0  0  0  0  0  0  0  0
  1  2  1  0
  2  3  1  0
  3  4  1  0
  3  5  1  0
  3  6  1  0
  6  7  1  0
  7  8  1  0
  8  9  2  0
  1 10  1  0
  1 11  1  0
  1 12  1  0
  2 13  1  0
  2 14  1  0
  4 15  1  0
  4 16  1  0
  4 17  1  0
  5 18  1  0
  5 19  1  0
  5 20  1  0
  7 21  1  0
  7 22  1  0
  8 23  1  0
M  END
