
     RDKit          3D

 20 19  0  0  0  0  0  0  0  0999 V2000
   -1.5167   -1.4082   -0.2122 C   0  0  0  0  0  0  0  0  0  0  0  0
   -0.5104   -0.5761   -0.9711 C   0  0  0  0  0  0  0  0  0  0  0  0
   -0.1170    0.6763   -0.2726 C   0  0  0  0  0  0  0  0  0  0  0  0
   -1.2843    1.6052   -0.0143 C   0  0  0  0  0  0  0  0  0  0  0  0
    0.6790    0.4260    0.9395 C   0  0  0  0  0  0  0  0  0  0  0  0
    0.2376    0.7423    2.0162 O   0  0  0  0  0  0  0  0  0  0  0  0
    2.0095   -0.2080    0.8608 C   0  0  0  0  0  0  0  0  0  0  0  0
    2.4120   -0.4379   -0.4465 O   0  0  0  0  0  0  0  0  0  0  0  0
   -1.6535   -1.0490    0.8209 H   0  0  0  0  0  0  0  0  0  0  0  0
   -2.4981   -1.4201   -0.7707 H   0  0  0  0  0  0  0  0  0  0  0  0
   -1.1842   -2.4674   -0.2055 H   0  0  0  0  0  0  0  0  0  0  0  0
    0.3855   -1.1781   -1.1766 H   0  0  0  0  0  0  0  0  0  0  0  0
   -0.9469   -0.3100   -1.9726 H   0  0  0  0  0  0  0  0  0  0  0  0
    0.5720    1.2227   -0.9853 H   0  0  0  0  0  0  0  0  0  0  0  0
   -0.9341    2.6554   -0.1032 H   0  0  0  0  0  0  0  0  0  0  0  0
   -2.1341    1.4206   -0.7154 H   0  0  0  0  0  0  0  0  0  0  0  0
   -1.6656    1.4917    1.0266 H   0  0  0  0  0  0  0  0  0  0  0  0
    2.7612    0.4565    1.3345 H   0  0  0  0  0  0  0  0  0  0  0  0
    2.0063   -1.1917    1.4046 H   0  0  0  0  0  0  0  0  0  0  0  0
    3.3819   -0.4500   -0.5571 H   0  0  0  0  0  0  0  0  0  0  0  0
  1  2  1  0
  2  3  1  0
  3  4  1  0
  3  5  1  0
  5  6  2  0
  5  7  1  0
  7  8  1  0
  1  9  1  0
  1 10  1  0
  1 11  1  0
  2 12  1  0
  2 13  1  0
  3 14  1  0
  4 15  1  0
  4 16  1  0
  4 17  1  0
  7 18  1  0
  7 19  1  0
  8 20  1  0
M  END
