
     RDKit          3D

 25 25  0  0  0  0  0  0  0  0999 V2000
   -2.7708    0.9488   -0.1731 C   0  0  0  0  0  0  0  0  0  0  0  0
   -2.2576   -0.2129   -0.9501 C   0  0  0  0  0  0  0  0  0  0  0  0
   -0.9842   -0.8106   -0.3897 C   0  0  0  0  0  0  0  0  0  0  0  0
   -1.1547   -1.3041    1.0009 C   0  0  0  0  0  0  0  0  0  0  0  0
    0.1430    0.1396   -0.5952 C   0  0  0  0  0  0  0  0  0  0  0  0
    1.4673   -0.3364   -0.0817 C   0  0  0  0  0  0  0  0  0  0  0  0
    2.4803    0.7615   -0.3820 C   0  0  0  0  0  0  0  0  0  0  0  0
    3.8767    0.6550   -0.0279 C   0  0  0  0  0  0  0  0  0  0  0  0
    3.4684    0.4939   -1.3394 O   0  0  0  0  0  0  0  0  0  0  0  0
   -3.5545    0.6455    0.5744 H   0  0  0  0  0  0  0  0  0  0  0  0
   -3.3287    1.6148   -0.8904 H   0  0  0  0  0  0  0  0  0  0  0  0
   -2.0025    1.5858    0.2901 H   0  0  0  0  0  0  0  0  0  0  0  0
   -3.0744   -0.9793   -0.9789 H   0  0  0  0  0  0  0  0  0  0  0  0
   -2.0890    0.1062   -2.0125 H   0  0  0  0  0  0  0  0  0  0  0  0
   -0.7764   -1.7129   -1.0388 H   0  0  0  0  0  0  0  0  0  0  0  0
   -0.4017   -2.0977    1.1839 H   0  0  0  0  0  0  0  0  0  0  0  0
   -1.1734   -0.5317    1.7732 H   0  0  0  0  0  0  0  0  0  0  0  0
   -2.1472   -1.8261    1.0549 H   0  0  0  0  0  0  0  0  0  0  0  0
   -0.0639    1.1284   -0.1328 H   0  0  0  0  0  0  0  0  0  0  0  0
    0.2634    0.3366   -1.6823 H   0  0  0  0  0  0  0  0  0  0  0  0
    1.4735   -0.4480    1.0310 H   0  0  0  0  0  0  0  0  0  0  0  0
    1.8345   -1.2482   -0.5874 H   0  0  0  0  0  0  0  0  0  0  0  0
    2.0680    1.8031   -0.5075 H   0  0  0  0  0  0  0  0  0  0  0  0
    4.4261    1.5728    0.2707 H   0  0  0  0  0  0  0  0  0  0  0  0
    4.2778   -0.2840    0.4270 H   0  0  0  0  0  0  0  0  0  0  0  0
  1  2  1  0
  2  3  1  0
  3  4  1  0
  3  5  1  0
  5  6  1  0
  6  7  1  0
  7  8  1  0
  8  9  1  0
  9  7  1  0
  1 10  1  0
  1 11  1  0
  1 12  1  0
  2 13  1  0
  2 14  1  0
  3 15  1  0
  4 16  1  0
  4 17  1  0
  4 18  1  0
  5 19  1  0
  5 20  1  0
  6 21  1  0
  6 22  1  0
  7 23  1  0
  8 24  1  0
  8 25  1  0
M  END
