
     RDKit          3D

 19 19  0  0  0  0  0  0  0  0999 V2000
   -2.0626   -0.6599   -0.3358 C   0  0  0  0  0  0  0  0  0  0  0  0
   -0.8596    0.2562   -0.4932 C   0  0  0  0  0  0  0  0  0  0  0  0
    0.1996   -0.1546    0.5143 C   0  0  0  0  0  0  0  0  0  0  0  0
   -0.3269   -0.0383    1.7898 O   0  0  0  0  0  0  0  0  0  0  0  0
    0.6118   -1.5461    0.1968 C   0  0  0  0  0  0  0  0  0  0  0  0
    1.0942   -1.8337   -0.8769 O   0  0  0  0  0  0  0  0  0  0  0  0
    1.4371    0.6877    0.4333 C   0  0  0  0  0  0  0  0  0  0  0  0
    1.4304    1.7126   -0.6805 C   0  0  0  0  0  0  0  0  0  0  0  0
    1.3872    2.0500    0.6561 O   0  0  0  0  0  0  0  0  0  0  0  0
   -1.7247   -1.6864   -0.4992 H   0  0  0  0  0  0  0  0  0  0  0  0
   -2.3765   -0.5865    0.7291 H   0  0  0  0  0  0  0  0  0  0  0  0
   -2.8566   -0.3184   -1.0078 H   0  0  0  0  0  0  0  0  0  0  0  0
   -0.4918    0.1242   -1.5397 H   0  0  0  0  0  0  0  0  0  0  0  0
   -1.2126    1.2798   -0.3679 H   0  0  0  0  0  0  0  0  0  0  0  0
   -0.0522   -0.7821    2.3504 H   0  0  0  0  0  0  0  0  0  0  0  0
    0.4849   -2.3275    0.9281 H   0  0  0  0  0  0  0  0  0  0  0  0
    2.3838    0.1907    0.7023 H   0  0  0  0  0  0  0  0  0  0  0  0
    0.5157    1.8707   -1.2789 H   0  0  0  0  0  0  0  0  0  0  0  0
    2.4186    1.7617   -1.2204 H   0  0  0  0  0  0  0  0  0  0  0  0
  1  2  1  0
  2  3  1  0
  3  4  1  0
  3  5  1  0
  5  6  2  0
  3  7  1  0
  7  8  1  0
  8  9  1  0
  9  7  1  0
  1 10  1  0
  1 11  1  0
  1 12  1  0
  2 13  1  0
  2 14  1  0
  4 15  1  0
  5 16  1  0
  7 17  1  0
  8 18  1  0
  8 19  1  0
M  END
