
     RDKit          3D

 23 22  0  0  0  0  0  0  0  0999 V2000
    3.7459    0.0544   -0.1584 C   0  0  0  0  0  0  0  0  0  0  0  0
    2.3943   -0.3520   -0.6432 C   0  0  0  0  0  0  0  0  0  0  0  0
    1.3088    0.0763    0.2809 C   0  0  0  0  0  0  0  0  0  0  0  0
    1.6355    0.6847    1.2862 O   0  0  0  0  0  0  0  0  0  0  0  0
   -0.1022   -0.2537   -0.0612 C   0  0  0  0  0  0  0  0  0  0  0  0
   -0.9714    0.2950    1.0374 C   0  0  0  0  0  0  0  0  0  0  0  0
   -2.4366    0.0359    0.8273 C   0  0  0  0  0  0  0  0  0  0  0  0
   -2.9580    0.6492   -0.4496 C   0  0  0  0  0  0  0  0  0  0  0  0
   -2.7609   -1.3103    0.9116 O   0  0  0  0  0  0  0  0  0  0  0  0
    3.8434   -0.0288    0.9544 H   0  0  0  0  0  0  0  0  0  0  0  0
    4.4931   -0.6521   -0.5769 H   0  0  0  0  0  0  0  0  0  0  0  0
    4.0503    1.0684   -0.4911 H   0  0  0  0  0  0  0  0  0  0  0  0
    2.1954    0.0914   -1.6335 H   0  0  0  0  0  0  0  0  0  0  0  0
    2.3761   -1.4612   -0.7063 H   0  0  0  0  0  0  0  0  0  0  0  0
   -0.1677   -1.3608   -0.0968 H   0  0  0  0  0  0  0  0  0  0  0  0
   -0.3940    0.1049   -1.0669 H   0  0  0  0  0  0  0  0  0  0  0  0
   -0.8351    1.3923    1.1218 H   0  0  0  0  0  0  0  0  0  0  0  0
   -0.6687   -0.1507    1.9845 H   0  0  0  0  0  0  0  0  0  0  0  0
   -2.9740    0.5450    1.6565 H   0  0  0  0  0  0  0  0  0  0  0  0
   -4.0551    0.4081   -0.4818 H   0  0  0  0  0  0  0  0  0  0  0  0
   -2.4996    0.2584   -1.3542 H   0  0  0  0  0  0  0  0  0  0  0  0
   -2.8926    1.7438   -0.4090 H   0  0  0  0  0  0  0  0  0  0  0  0
   -2.3269   -1.8382    0.2129 H   0  0  0  0  0  0  0  0  0  0  0  0
  1  2  1  0
  2  3  1  0
  3  4  2  0
  3  5  1  0
  5  6  1  0
  6  7  1  0
  7  8  1  0
  7  9  1  0
  1 10  1  0
  1 11  1  0
  1 12  1  0
  2 13  1  0
  2 14  1  0
  5 15  1  0
  5 16  1  0
  6 17  1  0
  6 18  1  0
  7 19  1  0
  8 20  1  0
  8 21  1  0
  8 22  1  0
  9 23  1  0
M  END
