
     RDKit          3D

 23 22  0  0  0  0  0  0  0  0999 V2000
   -2.1942    1.0321    0.5717 C   0  0  0  0  0  0  0  0  0  0  0  0
   -1.2193    0.5287   -0.4343 C   0  0  0  0  0  0  0  0  0  0  0  0
   -0.2246   -0.4742    0.1830 C   0  0  0  0  0  0  0  0  0  0  0  0
   -1.0802   -1.6003    0.7028 C   0  0  0  0  0  0  0  0  0  0  0  0
   -0.3677   -2.6506    1.2211 O   0  0  0  0  0  0  0  0  0  0  0  0
    0.6276   -0.7950   -0.8081 O   0  0  0  0  0  0  0  0  0  0  0  0
    1.9342   -0.4852   -0.7537 C   0  0  0  0  0  0  0  0  0  0  0  0
    2.2597    0.9878   -0.6674 C   0  0  0  0  0  0  0  0  0  0  0  0
    1.7431    1.6279    0.4376 O   0  0  0  0  0  0  0  0  0  0  0  0
   -2.6609    1.9543    0.1667 H   0  0  0  0  0  0  0  0  0  0  0  0
   -1.6656    1.3345    1.4964 H   0  0  0  0  0  0  0  0  0  0  0  0
   -3.0171    0.3177    0.7740 H   0  0  0  0  0  0  0  0  0  0  0  0
   -0.6550    1.3702   -0.8777 H   0  0  0  0  0  0  0  0  0  0  0  0
   -1.7370   -0.0544   -1.2348 H   0  0  0  0  0  0  0  0  0  0  0  0
    0.1819    0.0538    1.0628 H   0  0  0  0  0  0  0  0  0  0  0  0
   -1.6649   -1.1608    1.5660 H   0  0  0  0  0  0  0  0  0  0  0  0
   -1.8421   -1.8836   -0.0420 H   0  0  0  0  0  0  0  0  0  0  0  0
   -0.2577   -3.3397    0.4954 H   0  0  0  0  0  0  0  0  0  0  0  0
    2.5364   -1.0542   -0.0117 H   0  0  0  0  0  0  0  0  0  0  0  0
    2.3834   -0.8091   -1.7443 H   0  0  0  0  0  0  0  0  0  0  0  0
    1.8792    1.4479   -1.6242 H   0  0  0  0  0  0  0  0  0  0  0  0
    3.3861    1.0504   -0.6782 H   0  0  0  0  0  0  0  0  0  0  0  0
    1.6546    2.6017    0.1989 H   0  0  0  0  0  0  0  0  0  0  0  0
  1  2  1  0
  2  3  1  0
  3  4  1  0
  4  5  1  0
  3  6  1  0
  6  7  1  0
  7  8  1  0
  8  9  1  0
  1 10  1  0
  1 11  1  0
  1 12  1  0
  2 13  1  0
  2 14  1  0
  3 15  1  0
  4 16  1  0
  4 17  1  0
  5 18  1  0
  7 19  1  0
  7 20  1  0
  8 21  1  0
  8 22  1  0
  9 23  1  0
M  END
