
     RDKit          3D

 18 17  0  0  0  0  0  0  0  0999 V2000
    1.9078   -0.7688    0.5644 C   0  0  0  0  0  0  0  0  0  0  0  0
    0.5137   -1.0924    0.0809 C   0  0  0  0  0  0  0  0  0  0  0  0
   -0.4572    0.0180    0.2613 C   0  0  0  0  0  0  0  0  0  0  0  0
   -1.8018   -0.4425   -0.2626 C   0  0  0  0  0  0  0  0  0  0  0  0
   -0.0143    1.3110   -0.3847 C   0  0  0  0  0  0  0  0  0  0  0  0
   -0.9601    2.3137   -0.1843 O   0  0  0  0  0  0  0  0  0  0  0  0
    1.9156   -0.3773    1.5943 H   0  0  0  0  0  0  0  0  0  0  0  0
    2.4464   -1.7613    0.6017 H   0  0  0  0  0  0  0  0  0  0  0  0
    2.4712   -0.1384   -0.1192 H   0  0  0  0  0  0  0  0  0  0  0  0
    0.1607   -1.9480    0.7178 H   0  0  0  0  0  0  0  0  0  0  0  0
    0.5735   -1.4043   -0.9626 H   0  0  0  0  0  0  0  0  0  0  0  0
   -0.6164    0.2521    1.3438 H   0  0  0  0  0  0  0  0  0  0  0  0
   -2.1279   -1.2894    0.3791 H   0  0  0  0  0  0  0  0  0  0  0  0
   -1.7426   -0.8203   -1.2856 H   0  0  0  0  0  0  0  0  0  0  0  0
   -2.5622    0.3572   -0.1210 H   0  0  0  0  0  0  0  0  0  0  0  0
    0.9657    1.5714    0.0637 H   0  0  0  0  0  0  0  0  0  0  0  0
    0.0694    1.1768   -1.4848 H   0  0  0  0  0  0  0  0  0  0  0  0
   -0.7416    3.0425   -0.8022 H   0  0  0  0  0  0  0  0  0  0  0  0
  1  2  1  0
  2  3  1  0
  3  4  1  0
  3  5  1  0
  5  6  1  0
  1  7  1  0
  1  8  1  0
  1  9  1  0
  2 10  1  0
  2 11  1  0
  3 12  1  0
  4 13  1  0
  4 14  1  0
  4 15  1  0
  5 16  1  0
  5 17  1  0
  6 18  1  0
M  END
