
     RDKit          3D

 24 23  0  0  0  0  0  0  0  0999 V2000
    2.5974   -0.8878   -0.9041 C   0  0  0  0  0  0  0  0  0  0  0  0
    2.2987    0.0403    0.2358 C   0  0  0  0  0  0  0  0  0  0  0  0
    0.8518   -0.0155    0.6733 C   0  0  0  0  0  0  0  0  0  0  0  0
    0.7276    0.9008    1.7398 O   0  0  0  0  0  0  0  0  0  0  0  0
   -0.0759    0.4863   -0.4151 C   0  0  0  0  0  0  0  0  0  0  0  0
   -1.4909    0.3801    0.1439 C   0  0  0  0  0  0  0  0  0  0  0  0
   -2.5125    0.8593   -0.8679 C   0  0  0  0  0  0  0  0  0  0  0  0
   -1.7739   -1.0467    0.5341 C   0  0  0  0  0  0  0  0  0  0  0  0
    3.0764   -0.3181   -1.7141 H   0  0  0  0  0  0  0  0  0  0  0  0
    1.6768   -1.3910   -1.3049 H   0  0  0  0  0  0  0  0  0  0  0  0
    3.2613   -1.7091   -0.5326 H   0  0  0  0  0  0  0  0  0  0  0  0
    2.5556    1.1050    0.0049 H   0  0  0  0  0  0  0  0  0  0  0  0
    2.9089   -0.2216    1.1250 H   0  0  0  0  0  0  0  0  0  0  0  0
    0.5917   -1.0345    0.9632 H   0  0  0  0  0  0  0  0  0  0  0  0
    0.8869    1.8024    1.3138 H   0  0  0  0  0  0  0  0  0  0  0  0
    0.1469    1.5332   -0.6700 H   0  0  0  0  0  0  0  0  0  0  0  0
   -0.0193   -0.1258   -1.3388 H   0  0  0  0  0  0  0  0  0  0  0  0
   -1.6197    1.0105    1.0438 H   0  0  0  0  0  0  0  0  0  0  0  0
   -2.6067    1.9826   -0.8255 H   0  0  0  0  0  0  0  0  0  0  0  0
   -2.3431    0.4843   -1.8747 H   0  0  0  0  0  0  0  0  0  0  0  0
   -3.5075    0.4856   -0.4887 H   0  0  0  0  0  0  0  0  0  0  0  0
   -2.8094   -1.3247    0.2058 H   0  0  0  0  0  0  0  0  0  0  0  0
   -1.7397   -1.2235    1.6213 H   0  0  0  0  0  0  0  0  0  0  0  0
   -1.0813   -1.7722    0.0578 H   0  0  0  0  0  0  0  0  0  0  0  0
  1  2  1  0
  2  3  1  0
  3  4  1  0
  3  5  1  0
  5  6  1  0
  6  7  1  0
  6  8  1  0
  1  9  1  0
  1 10  1  0
  1 11  1  0
  2 12  1  0
  2 13  1  0
  3 14  1  0
  4 15  1  0
  5 16  1  0
  5 17  1  0
  6 18  1  0
  7 19  1  0
  7 20  1  0
  7 21  1  0
  8 22  1  0
  8 23  1  0
  8 24  1  0
M  END
