
     RDKit          3D

 21 20  0  0  0  0  0  0  0  0999 V2000
   -1.8757   -1.7304    0.0743 C   0  0  0  0  0  0  0  0  0  0  0  0
   -0.4903   -1.2750   -0.2341 C   0  0  0  0  0  0  0  0  0  0  0  0
   -0.2704    0.1924    0.1114 C   0  0  0  0  0  0  0  0  0  0  0  0
   -1.1642    0.9248   -0.6360 O   0  0  0  0  0  0  0  0  0  0  0  0
   -2.0163    1.7029    0.1050 C   0  0  0  0  0  0  0  0  0  0  0  0
    1.1045    0.5876   -0.2880 C   0  0  0  0  0  0  0  0  0  0  0  0
    1.3676    1.4485   -1.1641 O   0  0  0  0  0  0  0  0  0  0  0  0
    2.1657   -0.0343    0.3477 O   0  0  0  0  0  0  0  0  0  0  0  0
    3.5133    0.2178    0.0940 C   0  0  0  0  0  0  0  0  0  0  0  0
   -2.4924   -1.6112   -0.8486 H   0  0  0  0  0  0  0  0  0  0  0  0
   -2.3546   -1.2046    0.9027 H   0  0  0  0  0  0  0  0  0  0  0  0
   -1.9007   -2.8302    0.3203 H   0  0  0  0  0  0  0  0  0  0  0  0
    0.2210   -1.8647    0.3938 H   0  0  0  0  0  0  0  0  0  0  0  0
   -0.2064   -1.4848   -1.2846 H   0  0  0  0  0  0  0  0  0  0  0  0
   -0.4414    0.3975    1.1689 H   0  0  0  0  0  0  0  0  0  0  0  0
   -2.6831    2.2398   -0.6240 H   0  0  0  0  0  0  0  0  0  0  0  0
   -2.6452    1.1753    0.8205 H   0  0  0  0  0  0  0  0  0  0  0  0
   -1.4978    2.5160    0.6635 H   0  0  0  0  0  0  0  0  0  0  0  0
    3.8590   -0.5667   -0.6413 H   0  0  0  0  0  0  0  0  0  0  0  0
    4.0765   -0.0018    1.0365 H   0  0  0  0  0  0  0  0  0  0  0  0
    3.7310    1.2012   -0.3181 H   0  0  0  0  0  0  0  0  0  0  0  0
  1  2  1  0
  2  3  1  0
  3  4  1  0
  4  5  1  0
  3  6  1  0
  6  7  2  0
  6  8  1  0
  8  9  1  0
  1 10  1  0
  1 11  1  0
  1 12  1  0
  2 13  1  0
  2 14  1  0
  3 15  1  0
  5 16  1  0
  5 17  1  0
  5 18  1  0
  9 19  1  0
  9 20  1  0
  9 21  1  0
M  END
