
     RDKit          3D

 23 23  0  0  0  0  0  0  0  0999 V2000
    1.7701    1.4176    0.4688 C   0  0  0  0  0  0  0  0  0  0  0  0
    1.6602    0.0160   -0.0057 C   0  0  0  0  0  0  0  0  0  0  0  0
    0.3370   -0.6460    0.1072 C   0  0  0  0  0  0  0  0  0  0  0  0
    0.5568   -2.0840   -0.4403 C   0  0  0  0  0  0  0  0  0  0  0  0
   -0.7593   -0.1070   -0.7537 C   0  0  0  0  0  0  0  0  0  0  0  0
   -1.1891    1.3098   -0.6048 C   0  0  0  0  0  0  0  0  0  0  0  0
   -1.8720    0.8818    0.6463 C   0  0  0  0  0  0  0  0  0  0  0  0
   -2.1117    1.3675    1.7123 O   0  0  0  0  0  0  0  0  0  0  0  0
   -2.1052   -0.4069   -0.0530 C   0  0  0  0  0  0  0  0  0  0  0  0
    2.7763    1.5469    0.9928 H   0  0  0  0  0  0  0  0  0  0  0  0
    1.0431    1.7296    1.2205 H   0  0  0  0  0  0  0  0  0  0  0  0
    1.8807    2.1330   -0.3940 H   0  0  0  0  0  0  0  0  0  0  0  0
    2.3976   -0.6249    0.5596 H   0  0  0  0  0  0  0  0  0  0  0  0
    1.9730   -0.0972   -1.0875 H   0  0  0  0  0  0  0  0  0  0  0  0
    0.0074   -0.8200    1.1546 H   0  0  0  0  0  0  0  0  0  0  0  0
    0.9043   -1.9190   -1.4874 H   0  0  0  0  0  0  0  0  0  0  0  0
   -0.3976   -2.6221   -0.4886 H   0  0  0  0  0  0  0  0  0  0  0  0
    1.3487   -2.5942    0.1276 H   0  0  0  0  0  0  0  0  0  0  0  0
   -0.7867   -0.4997   -1.7940 H   0  0  0  0  0  0  0  0  0  0  0  0
   -1.9387    1.5213   -1.4299 H   0  0  0  0  0  0  0  0  0  0  0  0
   -0.4681    2.1088   -0.5375 H   0  0  0  0  0  0  0  0  0  0  0  0
   -2.0574   -1.3136    0.5390 H   0  0  0  0  0  0  0  0  0  0  0  0
   -2.9694   -0.2979   -0.7452 H   0  0  0  0  0  0  0  0  0  0  0  0
  1  2  1  0
  2  3  1  0
  3  4  1  0
  3  5  1  0
  5  6  1  0
  6  7  1  0
  7  8  2  0
  7  9  1  0
  9  5  1  0
  1 10  1  0
  1 11  1  0
  1 12  1  0
  2 13  1  0
  2 14  1  0
  3 15  1  0
  4 16  1  0
  4 17  1  0
  4 18  1  0
  5 19  1  0
  6 20  1  0
  6 21  1  0
  9 22  1  0
  9 23  1  0
M  END
