
     RDKit          3D

 24 24  0  0  0  0  0  0  0  0999 V2000
    2.0645   -1.1358    0.6560 C   0  0  0  0  0  0  0  0  0  0  0  0
    1.4832    0.0470   -0.0479 C   0  0  0  0  0  0  0  0  0  0  0  0
    0.0020    0.1755    0.0932 C   0  0  0  0  0  0  0  0  0  0  0  0
   -0.4129    1.4313   -0.6852 C   0  0  0  0  0  0  0  0  0  0  0  0
    0.2815    2.6403   -0.1113 C   0  0  0  0  0  0  0  0  0  0  0  0
   -0.7571   -1.0069   -0.4237 C   0  0  0  0  0  0  0  0  0  0  0  0
   -2.2254   -1.0209   -0.3506 C   0  0  0  0  0  0  0  0  0  0  0  0
   -1.4217   -1.9227    0.5797 C   0  0  0  0  0  0  0  0  0  0  0  0
    2.7160   -1.7293   -0.0487 H   0  0  0  0  0  0  0  0  0  0  0  0
    1.3266   -1.8317    1.0580 H   0  0  0  0  0  0  0  0  0  0  0  0
    2.7792   -0.7660    1.4445 H   0  0  0  0  0  0  0  0  0  0  0  0
    1.9335    1.0157    0.2836 H   0  0  0  0  0  0  0  0  0  0  0  0
    1.7124   -0.0216   -1.1470 H   0  0  0  0  0  0  0  0  0  0  0  0
   -0.2514    0.3557    1.1590 H   0  0  0  0  0  0  0  0  0  0  0  0
   -0.1532    1.3260   -1.7584 H   0  0  0  0  0  0  0  0  0  0  0  0
   -1.5177    1.5116   -0.6304 H   0  0  0  0  0  0  0  0  0  0  0  0
    0.5673    2.4757    0.9613 H   0  0  0  0  0  0  0  0  0  0  0  0
   -0.4832    3.4674   -0.0740 H   0  0  0  0  0  0  0  0  0  0  0  0
    1.1425    2.9638   -0.7250 H   0  0  0  0  0  0  0  0  0  0  0  0
   -0.2959   -1.5270   -1.3105 H   0  0  0  0  0  0  0  0  0  0  0  0
   -2.8339   -1.6051   -1.0990 H   0  0  0  0  0  0  0  0  0  0  0  0
   -2.8056   -0.2028    0.1239 H   0  0  0  0  0  0  0  0  0  0  0  0
   -1.4064   -3.0056    0.4029 H   0  0  0  0  0  0  0  0  0  0  0  0
   -1.4442   -1.6344    1.6495 H   0  0  0  0  0  0  0  0  0  0  0  0
  1  2  1  0
  2  3  1  0
  3  4  1  0
  4  5  1  0
  3  6  1  0
  6  7  1  0
  7  8  1  0
  8  6  1  0
  1  9  1  0
  1 10  1  0
  1 11  1  0
  2 12  1  0
  2 13  1  0
  3 14  1  0
  4 15  1  0
  4 16  1  0
  5 17  1  0
  5 18  1  0
  5 19  1  0
  6 20  1  0
  7 21  1  0
  7 22  1  0
  8 23  1  0
  8 24  1  0
M  END
