
     RDKit          3D

 22 21  0  0  0  0  0  0  0  0999 V2000
    1.8483    1.1361   -0.3752 C   0  0  0  0  0  0  0  0  0  0  0  0
    1.6324   -0.0824    0.4358 C   0  0  0  0  0  0  0  0  0  0  0  0
    0.2587   -0.6330    0.5042 C   0  0  0  0  0  0  0  0  0  0  0  0
   -0.7989    0.2440    1.0655 C   0  0  0  0  0  0  0  0  0  0  0  0
   -1.0593    1.5262    0.3723 C   0  0  0  0  0  0  0  0  0  0  0  0
   -0.2022   -1.1885   -0.8032 C   0  0  0  0  0  0  0  0  0  0  0  0
   -1.5338   -1.8024   -1.0249 C   0  0  0  0  0  0  0  0  0  0  0  0
    0.5665   -1.1312   -1.7415 O   0  0  0  0  0  0  0  0  0  0  0  0
    1.5665    2.0770    0.1252 H   0  0  0  0  0  0  0  0  0  0  0  0
    2.9737    1.2325   -0.4960 H   0  0  0  0  0  0  0  0  0  0  0  0
    1.4971    1.0395   -1.4225 H   0  0  0  0  0  0  0  0  0  0  0  0
    2.0537    0.1164    1.4600 H   0  0  0  0  0  0  0  0  0  0  0  0
    2.3042   -0.8862    0.0319 H   0  0  0  0  0  0  0  0  0  0  0  0
    0.3410   -1.5353    1.1892 H   0  0  0  0  0  0  0  0  0  0  0  0
   -0.6494    0.4339    2.1660 H   0  0  0  0  0  0  0  0  0  0  0  0
   -1.7639   -0.3489    1.0525 H   0  0  0  0  0  0  0  0  0  0  0  0
   -0.6300    2.3616    1.0022 H   0  0  0  0  0  0  0  0  0  0  0  0
   -0.6639    1.6484   -0.6302 H   0  0  0  0  0  0  0  0  0  0  0  0
   -2.1690    1.7139    0.2851 H   0  0  0  0  0  0  0  0  0  0  0  0
   -1.3855   -2.7310   -1.6046 H   0  0  0  0  0  0  0  0  0  0  0  0
   -1.9925   -2.1100   -0.0462 H   0  0  0  0  0  0  0  0  0  0  0  0
   -2.1936   -1.0804   -1.5456 H   0  0  0  0  0  0  0  0  0  0  0  0
  1  2  1  0
  2  3  1  0
  3  4  1  0
  4  5  1  0
  3  6  1  0
  6  7  1  0
  6  8  2  0
  1  9  1  0
  1 10  1  0
  1 11  1  0
  2 12  1  0
  2 13  1  0
  3 14  1  0
  4 15  1  0
  4 16  1  0
  5 17  1  0
  5 18  1  0
  5 19  1  0
  7 20  1  0
  7 21  1  0
  7 22  1  0
M  END
