
     RDKit          3D

 17 16  0  0  0  0  0  0  0  0999 V2000
   -2.5896    0.9059    0.2090 C   0  0  0  0  0  0  0  0  0  0  0  0
   -2.3341   -0.5914    0.2711 C   0  0  0  0  0  0  0  0  0  0  0  0
   -1.2292   -0.9598    1.1551 C   0  0  0  0  0  0  0  0  0  0  0  0
   -1.4868   -1.3925    2.3064 O   0  0  0  0  0  0  0  0  0  0  0  0
    0.1525   -0.8420    0.7586 C   0  0  0  0  0  0  0  0  0  0  0  0
    1.3146   -0.7342    0.4445 C   0  0  0  0  0  0  0  0  0  0  0  0
    2.6968   -0.6094    0.0547 C   0  0  0  0  0  0  0  0  0  0  0  0
    3.3223    0.7455   -0.0029 C   0  0  0  0  0  0  0  0  0  0  0  0
    3.4369   -1.5779   -0.2457 O   0  0  0  0  0  0  0  0  0  0  0  0
   -3.5681    1.0137   -0.3376 H   0  0  0  0  0  0  0  0  0  0  0  0
   -2.7443    1.3078    1.2168 H   0  0  0  0  0  0  0  0  0  0  0  0
   -1.7965    1.4163   -0.3727 H   0  0  0  0  0  0  0  0  0  0  0  0
   -3.2943   -1.0061    0.6919 H   0  0  0  0  0  0  0  0  0  0  0  0
   -2.2644   -0.9878   -0.7657 H   0  0  0  0  0  0  0  0  0  0  0  0
    4.4199    0.7215    0.0543 H   0  0  0  0  0  0  0  0  0  0  0  0
    3.0822    1.1851   -1.0085 H   0  0  0  0  0  0  0  0  0  0  0  0
    2.8821    1.4052    0.7632 H   0  0  0  0  0  0  0  0  0  0  0  0
  1  2  1  0
  2  3  1  0
  3  4  2  0
  3  5  1  0
  5  6  3  0
  6  7  1  0
  7  8  1  0
  7  9  2  0
  1 10  1  0
  1 11  1  0
  1 12  1  0
  2 13  1  0
  2 14  1  0
  8 15  1  0
  8 16  1  0
  8 17  1  0
M  END
