
     RDKit          3D

 19 18  0  0  0  0  0  0  0  0999 V2000
   -2.0677   -0.5455   -0.0772 C   0  0  0  0  0  0  0  0  0  0  0  0
   -0.6112   -1.0220   -0.1684 C   0  0  0  0  0  0  0  0  0  0  0  0
    0.2317    0.1319    0.3218 C   0  0  0  0  0  0  0  0  0  0  0  0
   -0.0578    1.3107   -0.6084 C   0  0  0  0  0  0  0  0  0  0  0  0
   -0.1532    0.5454    1.5952 O   0  0  0  0  0  0  0  0  0  0  0  0
    1.6898   -0.1633    0.3252 C   0  0  0  0  0  0  0  0  0  0  0  0
    2.1718   -0.5833   -0.8977 O   0  0  0  0  0  0  0  0  0  0  0  0
   -2.7593   -1.4023   -0.2212 H   0  0  0  0  0  0  0  0  0  0  0  0
   -2.2471    0.2534   -0.8257 H   0  0  0  0  0  0  0  0  0  0  0  0
   -2.1939   -0.1880    0.9684 H   0  0  0  0  0  0  0  0  0  0  0  0
   -0.4906   -1.8875    0.4843 H   0  0  0  0  0  0  0  0  0  0  0  0
   -0.4185   -1.2401   -1.2316 H   0  0  0  0  0  0  0  0  0  0  0  0
    0.7538    2.0575   -0.4677 H   0  0  0  0  0  0  0  0  0  0  0  0
   -0.1611    0.9541   -1.6356 H   0  0  0  0  0  0  0  0  0  0  0  0
   -1.0115    1.7713   -0.2484 H   0  0  0  0  0  0  0  0  0  0  0  0
    0.2985    1.4134    1.7658 H   0  0  0  0  0  0  0  0  0  0  0  0
    1.8899   -0.9487    1.0771 H   0  0  0  0  0  0  0  0  0  0  0  0
    2.2281    0.7706    0.5874 H   0  0  0  0  0  0  0  0  0  0  0  0
    2.9084   -1.2276   -0.7436 H   0  0  0  0  0  0  0  0  0  0  0  0
  1  2  1  0
  2  3  1  0
  3  4  1  0
  3  5  1  0
  3  6  1  0
  6  7  1  0
  1  8  1  0
  1  9  1  0
  1 10  1  0
  2 11  1  0
  2 12  1  0
  4 13  1  0
  4 14  1  0
  4 15  1  0
  5 16  1  0
  6 17  1  0
  6 18  1  0
  7 19  1  0
M  END
