
     RDKit          3D

 23 23  0  0  0  0  0  0  0  0999 V2000
   -2.8641   -0.0637    0.3726 C   0  0  0  0  0  0  0  0  0  0  0  0
   -1.4455    0.2757    0.7784 C   0  0  0  0  0  0  0  0  0  0  0  0
   -0.5123    0.1478   -0.4134 C   0  0  0  0  0  0  0  0  0  0  0  0
   -0.5653   -1.2547   -0.9100 C   0  0  0  0  0  0  0  0  0  0  0  0
    0.8463    0.6678   -0.1332 C   0  0  0  0  0  0  0  0  0  0  0  0
    1.6833    0.5458   -1.2230 O   0  0  0  0  0  0  0  0  0  0  0  0
    2.7609    0.4754   -0.3136 C   0  0  0  0  0  0  0  0  0  0  0  0
    1.7790   -0.1768    0.6588 C   0  0  0  0  0  0  0  0  0  0  0  0
    1.9653    0.1754    1.9856 O   0  0  0  0  0  0  0  0  0  0  0  0
   -3.5622    0.7333    0.7331 H   0  0  0  0  0  0  0  0  0  0  0  0
   -3.1924   -1.0540    0.7826 H   0  0  0  0  0  0  0  0  0  0  0  0
   -2.9993   -0.1128   -0.7198 H   0  0  0  0  0  0  0  0  0  0  0  0
   -1.4127    1.3049    1.1553 H   0  0  0  0  0  0  0  0  0  0  0  0
   -1.1574   -0.4741    1.5628 H   0  0  0  0  0  0  0  0  0  0  0  0
   -0.9656    0.7997   -1.2162 H   0  0  0  0  0  0  0  0  0  0  0  0
   -1.6219   -1.6174   -0.7766 H   0  0  0  0  0  0  0  0  0  0  0  0
   -0.4014   -1.2459   -2.0064 H   0  0  0  0  0  0  0  0  0  0  0  0
    0.0684   -1.9687   -0.3786 H   0  0  0  0  0  0  0  0  0  0  0  0
    0.8078    1.7077    0.2367 H   0  0  0  0  0  0  0  0  0  0  0  0
    3.0679    1.5002   -0.0252 H   0  0  0  0  0  0  0  0  0  0  0  0
    3.5792   -0.1689   -0.6503 H   0  0  0  0  0  0  0  0  0  0  0  0
    1.7684   -1.2505    0.4900 H   0  0  0  0  0  0  0  0  0  0  0  0
    2.3734    1.0537    2.0933 H   0  0  0  0  0  0  0  0  0  0  0  0
  1  2  1  0
  2  3  1  0
  3  4  1  0
  3  5  1  0
  5  6  1  0
  6  7  1  0
  7  8  1  0
  8  9  1  0
  8  5  1  0
  1 10  1  0
  1 11  1  0
  1 12  1  0
  2 13  1  0
  2 14  1  0
  3 15  1  0
  4 16  1  0
  4 17  1  0
  4 18  1  0
  5 19  1  0
  7 20  1  0
  7 21  1  0
  8 22  1  0
  9 23  1  0
M  END
