
     RDKit          3D

 23 22  0  0  0  0  0  0  0  0999 V2000
   -1.4446    1.4491   -0.2425 C   0  0  0  0  0  0  0  0  0  0  0  0
   -1.8303    0.1381   -0.8411 C   0  0  0  0  0  0  0  0  0  0  0  0
   -1.1910   -1.0453   -0.1625 C   0  0  0  0  0  0  0  0  0  0  0  0
   -1.5543   -1.1400    1.2890 C   0  0  0  0  0  0  0  0  0  0  0  0
    0.2878   -1.0982   -0.4132 C   0  0  0  0  0  0  0  0  0  0  0  0
    0.9760    0.0314    0.0474 O   0  0  0  0  0  0  0  0  0  0  0  0
    2.3513    0.0589   -0.1474 C   0  0  0  0  0  0  0  0  0  0  0  0
    3.2061    1.1809    0.2841 C   0  0  0  0  0  0  0  0  0  0  0  0
    2.9393   -0.9154   -0.7238 O   0  0  0  0  0  0  0  0  0  0  0  0
   -2.3480    2.1075   -0.0773 H   0  0  0  0  0  0  0  0  0  0  0  0
   -0.8389    1.3655    0.6718 H   0  0  0  0  0  0  0  0  0  0  0  0
   -0.8140    2.0025   -0.9984 H   0  0  0  0  0  0  0  0  0  0  0  0
   -1.6392    0.0640   -1.9286 H   0  0  0  0  0  0  0  0  0  0  0  0
   -2.9393    0.0184   -0.7020 H   0  0  0  0  0  0  0  0  0  0  0  0
   -1.6244   -1.9592   -0.6624 H   0  0  0  0  0  0  0  0  0  0  0  0
   -0.6610   -0.9968    1.9137 H   0  0  0  0  0  0  0  0  0  0  0  0
   -2.3538   -0.3810    1.5159 H   0  0  0  0  0  0  0  0  0  0  0  0
   -1.9979   -2.1217    1.5693 H   0  0  0  0  0  0  0  0  0  0  0  0
    0.4176   -1.1369   -1.5287 H   0  0  0  0  0  0  0  0  0  0  0  0
    0.7125   -1.9830    0.0653 H   0  0  0  0  0  0  0  0  0  0  0  0
    3.4061    1.7952   -0.6394 H   0  0  0  0  0  0  0  0  0  0  0  0
    2.7459    1.7893    1.0885 H   0  0  0  0  0  0  0  0  0  0  0  0
    4.1941    0.7766    0.6225 H   0  0  0  0  0  0  0  0  0  0  0  0
  1  2  1  0
  2  3  1  0
  3  4  1  0
  3  5  1  0
  5  6  1  0
  6  7  1  0
  7  8  1  0
  7  9  2  0
  1 10  1  0
  1 11  1  0
  1 12  1  0
  2 13  1  0
  2 14  1  0
  3 15  1  0
  4 16  1  0
  4 17  1  0
  4 18  1  0
  5 19  1  0
  5 20  1  0
  8 21  1  0
  8 22  1  0
  8 23  1  0
M  END
