
     RDKit          3D

 27 26  0  0  0  0  0  0  0  0999 V2000
    2.8421    0.8435    0.4374 C   0  0  0  0  0  0  0  0  0  0  0  0
    1.3056    0.8996    0.4607 C   0  0  0  0  0  0  0  0  0  0  0  0
    0.6983   -0.4269    0.2167 C   0  0  0  0  0  0  0  0  0  0  0  0
    1.1244   -0.9595   -1.1542 C   0  0  0  0  0  0  0  0  0  0  0  0
   -0.7485   -0.5927    0.4298 C   0  0  0  0  0  0  0  0  0  0  0  0
   -1.1687   -2.0475    0.1264 C   0  0  0  0  0  0  0  0  0  0  0  0
   -1.6916    0.2381   -0.3621 C   0  0  0  0  0  0  0  0  0  0  0  0
   -1.5695    1.7225   -0.1898 C   0  0  0  0  0  0  0  0  0  0  0  0
   -2.9881   -0.0971    0.1165 O   0  0  0  0  0  0  0  0  0  0  0  0
    3.2368    0.0933    1.1234 H   0  0  0  0  0  0  0  0  0  0  0  0
    3.1728    0.7741   -0.5974 H   0  0  0  0  0  0  0  0  0  0  0  0
    3.1707    1.8446    0.8444 H   0  0  0  0  0  0  0  0  0  0  0  0
    1.0536    1.7005   -0.2315 H   0  0  0  0  0  0  0  0  0  0  0  0
    1.0777    1.2778    1.4905 H   0  0  0  0  0  0  0  0  0  0  0  0
    1.2070   -1.1457    0.9326 H   0  0  0  0  0  0  0  0  0  0  0  0
    0.7371   -0.3535   -1.9767 H   0  0  0  0  0  0  0  0  0  0  0  0
    2.2373   -0.9311   -1.2126 H   0  0  0  0  0  0  0  0  0  0  0  0
    0.8591   -2.0445   -1.2416 H   0  0  0  0  0  0  0  0  0  0  0  0
   -1.0408   -0.4707    1.5150 H   0  0  0  0  0  0  0  0  0  0  0  0
   -1.1644   -2.1334   -0.9791 H   0  0  0  0  0  0  0  0  0  0  0  0
   -2.2339   -2.1148    0.4334 H   0  0  0  0  0  0  0  0  0  0  0  0
   -0.5347   -2.7664    0.6434 H   0  0  0  0  0  0  0  0  0  0  0  0
   -1.7423   -0.0596   -1.4395 H   0  0  0  0  0  0  0  0  0  0  0  0
   -2.5888    2.2160   -0.1130 H   0  0  0  0  0  0  0  0  0  0  0  0
   -1.0987    1.9344    0.7794 H   0  0  0  0  0  0  0  0  0  0  0  0
   -1.1070    2.2390   -1.0569 H   0  0  0  0  0  0  0  0  0  0  0  0
   -3.0457    0.3600    1.0049 H   0  0  0  0  0  0  0  0  0  0  0  0
  1  2  1  0
  2  3  1  0
  3  4  1  0
  3  5  1  0
  5  6  1  0
  5  7  1  0
  7  8  1  0
  7  9  1  0
  1 10  1  0
  1 11  1  0
  1 12  1  0
  2 13  1  0
  2 14  1  0
  3 15  1  0
  4 16  1  0
  4 17  1  0
  4 18  1  0
  5 19  1  0
  6 20  1  0
  6 21  1  0
  6 22  1  0
  7 23  1  0
  8 24  1  0
  8 25  1  0
  8 26  1  0
  9 27  1  0
M  END
