
     RDKit          3D

 25 25  0  0  0  0  0  0  0  0999 V2000
    2.8027    0.4393   -0.4869 C   0  0  0  0  0  0  0  0  0  0  0  0
    1.3424    0.8388   -0.4177 C   0  0  0  0  0  0  0  0  0  0  0  0
    0.5493   -0.3960   -0.1001 C   0  0  0  0  0  0  0  0  0  0  0  0
    1.0646   -0.9048    1.2468 C   0  0  0  0  0  0  0  0  0  0  0  0
   -0.9318   -0.1599   -0.0714 C   0  0  0  0  0  0  0  0  0  0  0  0
   -1.4992    0.8404    0.9114 C   0  0  0  0  0  0  0  0  0  0  0  0
   -2.8838    0.9075    0.7743 O   0  0  0  0  0  0  0  0  0  0  0  0
   -1.8593   -1.3361   -0.3493 C   0  0  0  0  0  0  0  0  0  0  0  0
   -1.6287   -0.2525   -1.3767 C   0  0  0  0  0  0  0  0  0  0  0  0
    3.3374    0.6542    0.4597 H   0  0  0  0  0  0  0  0  0  0  0  0
    3.3250    1.0025   -1.3049 H   0  0  0  0  0  0  0  0  0  0  0  0
    2.9319   -0.6378   -0.7233 H   0  0  0  0  0  0  0  0  0  0  0  0
    1.0893    1.2760   -1.4033 H   0  0  0  0  0  0  0  0  0  0  0  0
    1.2130    1.5506    0.4115 H   0  0  0  0  0  0  0  0  0  0  0  0
    0.7920   -1.1521   -0.8738 H   0  0  0  0  0  0  0  0  0  0  0  0
    0.3935   -1.6209    1.7119 H   0  0  0  0  0  0  0  0  0  0  0  0
    2.0842   -1.3105    1.0429 H   0  0  0  0  0  0  0  0  0  0  0  0
    1.2392    0.0088    1.8792 H   0  0  0  0  0  0  0  0  0  0  0  0
   -1.3088    0.4794    1.9511 H   0  0  0  0  0  0  0  0  0  0  0  0
   -1.0894    1.8601    0.7553 H   0  0  0  0  0  0  0  0  0  0  0  0
   -3.1327    1.7178    0.2770 H   0  0  0  0  0  0  0  0  0  0  0  0
   -2.8654   -1.3386    0.0748 H   0  0  0  0  0  0  0  0  0  0  0  0
   -1.4209   -2.3370   -0.5121 H   0  0  0  0  0  0  0  0  0  0  0  0
   -1.1104   -0.6067   -2.2845 H   0  0  0  0  0  0  0  0  0  0  0  0
   -2.4344    0.4774   -1.5921 H   0  0  0  0  0  0  0  0  0  0  0  0
  1  2  1  0
  2  3  1  0
  3  4  1  0
  3  5  1  0
  5  6  1  0
  6  7  1  0
  5  8  1  0
  8  9  1  0
  9  5  1  0
  1 10  1  0
  1 11  1  0
  1 12  1  0
  2 13  1  0
  2 14  1  0
  3 15  1  0
  4 16  1  0
  4 17  1  0
  4 18  1  0
  6 19  1  0
  6 20  1  0
  7 21  1  0
  8 22  1  0
  8 23  1  0
  9 24  1  0
  9 25  1  0
M  END
