
     RDKit          3D

 23 22  0  0  0  0  0  0  0  0999 V2000
    2.1515    0.6997    0.3899 C   0  0  0  0  0  0  0  0  0  0  0  0
    1.5781   -0.5341   -0.1842 C   0  0  0  0  0  0  0  0  0  0  0  0
    0.1289   -0.7819    0.0017 C   0  0  0  0  0  0  0  0  0  0  0  0
   -0.1234   -2.0224   -0.6427 O   0  0  0  0  0  0  0  0  0  0  0  0
   -0.2160   -0.9953    1.4207 C   0  0  0  0  0  0  0  0  0  0  0  0
   -0.6211   -2.0437    1.8514 O   0  0  0  0  0  0  0  0  0  0  0  0
   -0.7836    0.2015   -0.6837 C   0  0  0  0  0  0  0  0  0  0  0  0
   -2.2295   -0.2277   -0.3757 C   0  0  0  0  0  0  0  0  0  0  0  0
   -0.6717    1.6065   -0.2062 C   0  0  0  0  0  0  0  0  0  0  0  0
    2.0224    1.6238   -0.1628 H   0  0  0  0  0  0  0  0  0  0  0  0
    3.2724    0.5421    0.4402 H   0  0  0  0  0  0  0  0  0  0  0  0
    1.8746    0.7719    1.4835 H   0  0  0  0  0  0  0  0  0  0  0  0
    1.8333   -0.6023   -1.2691 H   0  0  0  0  0  0  0  0  0  0  0  0
    2.1180   -1.4099    0.2784 H   0  0  0  0  0  0  0  0  0  0  0  0
    0.1178   -1.8946   -1.5960 H   0  0  0  0  0  0  0  0  0  0  0  0
   -0.0975   -0.1713    2.0968 H   0  0  0  0  0  0  0  0  0  0  0  0
   -0.6674    0.0827   -1.7730 H   0  0  0  0  0  0  0  0  0  0  0  0
   -2.2053   -0.6889    0.6328 H   0  0  0  0  0  0  0  0  0  0  0  0
   -2.8960    0.6592   -0.3116 H   0  0  0  0  0  0  0  0  0  0  0  0
   -2.5834   -0.9586   -1.1302 H   0  0  0  0  0  0  0  0  0  0  0  0
   -0.1408    2.2863   -0.9304 H   0  0  0  0  0  0  0  0  0  0  0  0
   -0.1833    1.7505    0.7641 H   0  0  0  0  0  0  0  0  0  0  0  0
   -1.6779    2.1067   -0.0940 H   0  0  0  0  0  0  0  0  0  0  0  0
  1  2  1  0
  2  3  1  0
  3  4  1  0
  3  5  1  0
  5  6  2  0
  3  7  1  0
  7  8  1  0
  7  9  1  0
  1 10  1  0
  1 11  1  0
  1 12  1  0
  2 13  1  0
  2 14  1  0
  4 15  1  0
  5 16  1  0
  7 17  1  0
  8 18  1  0
  8 19  1  0
  8 20  1  0
  9 21  1  0
  9 22  1  0
  9 23  1  0
M  END
