
     RDKit          3D

 23 23  0  0  0  0  0  0  0  0999 V2000
   -2.0821   -0.8540    1.0000 C   0  0  0  0  0  0  0  0  0  0  0  0
   -1.9020    0.2284   -0.0090 C   0  0  0  0  0  0  0  0  0  0  0  0
   -0.6246    0.1606   -0.7779 C   0  0  0  0  0  0  0  0  0  0  0  0
   -0.6348    1.3297   -1.7355 C   0  0  0  0  0  0  0  0  0  0  0  0
   -0.5072    2.4504   -1.2663 O   0  0  0  0  0  0  0  0  0  0  0  0
    0.5607    0.3713    0.1277 C   0  0  0  0  0  0  0  0  0  0  0  0
    1.8771    0.3029   -0.6564 C   0  0  0  0  0  0  0  0  0  0  0  0
    2.4643   -0.3362    0.6016 C   0  0  0  0  0  0  0  0  0  0  0  0
    1.0424   -0.8583    0.8609 C   0  0  0  0  0  0  0  0  0  0  0  0
   -1.8604   -1.8713    0.5917 H   0  0  0  0  0  0  0  0  0  0  0  0
   -1.5783   -0.6592    1.9623 H   0  0  0  0  0  0  0  0  0  0  0  0
   -3.1839   -0.8887    1.2488 H   0  0  0  0  0  0  0  0  0  0  0  0
   -1.9487    1.2018    0.5126 H   0  0  0  0  0  0  0  0  0  0  0  0
   -2.7589    0.2122   -0.7406 H   0  0  0  0  0  0  0  0  0  0  0  0
   -0.4866   -0.7899   -1.3108 H   0  0  0  0  0  0  0  0  0  0  0  0
   -0.7490    1.2022   -2.7952 H   0  0  0  0  0  0  0  0  0  0  0  0
    0.5583    1.2610    0.7543 H   0  0  0  0  0  0  0  0  0  0  0  0
    2.3443    1.2640   -0.8586 H   0  0  0  0  0  0  0  0  0  0  0  0
    1.8132   -0.3870   -1.5196 H   0  0  0  0  0  0  0  0  0  0  0  0
    3.2007   -1.1150    0.4184 H   0  0  0  0  0  0  0  0  0  0  0  0
    2.7418    0.4674    1.3120 H   0  0  0  0  0  0  0  0  0  0  0  0
    0.8114   -0.8817    1.9450 H   0  0  0  0  0  0  0  0  0  0  0  0
    0.9026   -1.8107    0.3346 H   0  0  0  0  0  0  0  0  0  0  0  0
  1  2  1  0
  2  3  1  0
  3  4  1  0
  4  5  2  0
  3  6  1  0
  6  7  1  0
  7  8  1  0
  8  9  1  0
  9  6  1  0
  1 10  1  0
  1 11  1  0
  1 12  1  0
  2 13  1  0
  2 14  1  0
  3 15  1  0
  4 16  1  0
  6 17  1  0
  7 18  1  0
  7 19  1  0
  8 20  1  0
  8 21  1  0
  9 22  1  0
  9 23  1  0
M  END
