
     RDKit          3D

 23 23  0  0  0  0  0  0  0  0999 V2000
   -2.9426   -0.7138    1.0643 C   0  0  0  0  0  0  0  0  0  0  0  0
   -1.4339   -0.5610    0.8792 C   0  0  0  0  0  0  0  0  0  0  0  0
   -1.1699    0.5986   -0.0575 C   0  0  0  0  0  0  0  0  0  0  0  0
   -1.7659    0.3545   -1.2827 O   0  0  0  0  0  0  0  0  0  0  0  0
    0.2858    0.8577   -0.2562 C   0  0  0  0  0  0  0  0  0  0  0  0
    1.0199   -0.3203   -0.8421 C   0  0  0  0  0  0  0  0  0  0  0  0
    2.4768    0.0883   -0.9868 C   0  0  0  0  0  0  0  0  0  0  0  0
    3.1783    0.4638    0.2161 C   0  0  0  0  0  0  0  0  0  0  0  0
    3.3704   -0.8684   -0.3780 O   0  0  0  0  0  0  0  0  0  0  0  0
   -3.2652   -1.7630    0.8396 H   0  0  0  0  0  0  0  0  0  0  0  0
   -3.4887    0.0141    0.4305 H   0  0  0  0  0  0  0  0  0  0  0  0
   -3.2427   -0.5123    2.1139 H   0  0  0  0  0  0  0  0  0  0  0  0
   -0.9985   -1.5024    0.4644 H   0  0  0  0  0  0  0  0  0  0  0  0
   -0.9833   -0.3967    1.8666 H   0  0  0  0  0  0  0  0  0  0  0  0
   -1.6638    1.4982    0.3649 H   0  0  0  0  0  0  0  0  0  0  0  0
   -1.6561   -0.5976   -1.5208 H   0  0  0  0  0  0  0  0  0  0  0  0
    0.7805    1.2222    0.6738 H   0  0  0  0  0  0  0  0  0  0  0  0
    0.3812    1.6904   -0.9875 H   0  0  0  0  0  0  0  0  0  0  0  0
    0.8986   -1.1968   -0.2072 H   0  0  0  0  0  0  0  0  0  0  0  0
    0.6193   -0.4992   -1.8602 H   0  0  0  0  0  0  0  0  0  0  0  0
    2.8242    0.3615   -1.9838 H   0  0  0  0  0  0  0  0  0  0  0  0
    2.6521    0.3992    1.1893 H   0  0  0  0  0  0  0  0  0  0  0  0
    4.1235    1.0201    0.2604 H   0  0  0  0  0  0  0  0  0  0  0  0
  1  2  1  0
  2  3  1  0
  3  4  1  0
  3  5  1  0
  5  6  1  0
  6  7  1  0
  7  8  1  0
  8  9  1  0
  9  7  1  0
  1 10  1  0
  1 11  1  0
  1 12  1  0
  2 13  1  0
  2 14  1  0
  3 15  1  0
  4 16  1  0
  5 17  1  0
  5 18  1  0
  6 19  1  0
  6 20  1  0
  7 21  1  0
  8 22  1  0
  8 23  1  0
M  END
