
     RDKit          3D

 23 24  0  0  0  0  0  0  0  0999 V2000
   -1.5017   -1.5580    0.7980 C   0  0  0  0  0  0  0  0  0  0  0  0
   -1.4228   -0.0570    0.9608 C   0  0  0  0  0  0  0  0  0  0  0  0
   -0.7358    0.5646   -0.2343 C   0  0  0  0  0  0  0  0  0  0  0  0
   -0.7163    2.0868    0.0274 C   0  0  0  0  0  0  0  0  0  0  0  0
    0.5615    0.1292   -0.4310 C   0  0  0  0  0  0  0  0  0  0  0  0
    1.0970   -1.2240   -0.6806 C   0  0  0  0  0  0  0  0  0  0  0  0
    2.2577   -0.2817   -0.6752 C   0  0  0  0  0  0  0  0  0  0  0  0
    1.6898    0.3268    0.5622 C   0  0  0  0  0  0  0  0  0  0  0  0
    1.4517    0.5907   -1.3870 O   0  0  0  0  0  0  0  0  0  0  0  0
   -1.2832   -1.8488   -0.2435 H   0  0  0  0  0  0  0  0  0  0  0  0
   -0.8314   -2.0772    1.5394 H   0  0  0  0  0  0  0  0  0  0  0  0
   -2.5636   -1.8687    1.0284 H   0  0  0  0  0  0  0  0  0  0  0  0
   -2.4503    0.3811    1.0868 H   0  0  0  0  0  0  0  0  0  0  0  0
   -0.8632    0.1635    1.9098 H   0  0  0  0  0  0  0  0  0  0  0  0
   -1.3977    0.4499   -1.1155 H   0  0  0  0  0  0  0  0  0  0  0  0
   -0.3156    2.5303   -0.9034 H   0  0  0  0  0  0  0  0  0  0  0  0
   -0.0339    2.3229    0.8516 H   0  0  0  0  0  0  0  0  0  0  0  0
   -1.7296    2.3967    0.2842 H   0  0  0  0  0  0  0  0  0  0  0  0
    1.0712   -1.9793    0.1061 H   0  0  0  0  0  0  0  0  0  0  0  0
    0.8488   -1.6017   -1.7116 H   0  0  0  0  0  0  0  0  0  0  0  0
    3.2238   -0.5043   -0.8638 H   0  0  0  0  0  0  0  0  0  0  0  0
    2.0201    1.3590    0.7170 H   0  0  0  0  0  0  0  0  0  0  0  0
    1.6235   -0.3007    1.4541 H   0  0  0  0  0  0  0  0  0  0  0  0
  1  2  1  0
  2  3  1  0
  3  4  1  0
  3  5  1  0
  5  6  1  0
  6  7  1  0
  7  8  1  0
  7  9  1  0
  8  5  1  0
  9  5  1  0
  1 10  1  0
  1 11  1  0
  1 12  1  0
  2 13  1  0
  2 14  1  0
  3 15  1  0
  4 16  1  0
  4 17  1  0
  4 18  1  0
  6 19  1  0
  6 20  1  0
  7 21  1  0
  8 22  1  0
  8 23  1  0
M  END
