
     RDKit          3D

 21 20  0  0  0  0  0  0  0  0999 V2000
   -2.1824    1.5004    1.0567 C   0  0  0  0  0  0  0  0  0  0  0  0
   -1.9739    0.0594    0.6521 C   0  0  0  0  0  0  0  0  0  0  0  0
   -0.5023   -0.2902    0.5692 C   0  0  0  0  0  0  0  0  0  0  0  0
   -0.3576   -1.7193    0.1672 C   0  0  0  0  0  0  0  0  0  0  0  0
    0.1143    0.6449   -0.4497 C   0  0  0  0  0  0  0  0  0  0  0  0
    1.5370    0.3085   -0.5314 C   0  0  0  0  0  0  0  0  0  0  0  0
    2.7139    0.0449   -0.6137 C   0  0  0  0  0  0  0  0  0  0  0  0
    4.1155   -0.2923   -0.7015 C   0  0  0  0  0  0  0  0  0  0  0  0
    4.4887   -1.3044   -1.3510 O   0  0  0  0  0  0  0  0  0  0  0  0
   -2.0587    2.1596    0.1729 H   0  0  0  0  0  0  0  0  0  0  0  0
   -3.1946    1.6437    1.4846 H   0  0  0  0  0  0  0  0  0  0  0  0
   -1.4660    1.8007    1.8651 H   0  0  0  0  0  0  0  0  0  0  0  0
   -2.3879   -0.0937   -0.3723 H   0  0  0  0  0  0  0  0  0  0  0  0
   -2.4671   -0.5893    1.4060 H   0  0  0  0  0  0  0  0  0  0  0  0
    0.0224   -0.1067    1.5314 H   0  0  0  0  0  0  0  0  0  0  0  0
   -1.3191   -2.2261    0.2017 H   0  0  0  0  0  0  0  0  0  0  0  0
    0.1690   -1.8083   -0.8075 H   0  0  0  0  0  0  0  0  0  0  0  0
    0.3075   -2.2551    0.9044 H   0  0  0  0  0  0  0  0  0  0  0  0
   -0.3844    0.5225   -1.4516 H   0  0  0  0  0  0  0  0  0  0  0  0
   -0.0627    1.6992   -0.1653 H   0  0  0  0  0  0  0  0  0  0  0  0
    4.8889    0.3017   -0.2204 H   0  0  0  0  0  0  0  0  0  0  0  0
  1  2  1  0
  2  3  1  0
  3  4  1  0
  3  5  1  0
  5  6  1  0
  6  7  3  0
  7  8  1  0
  8  9  2  0
  1 10  1  0
  1 11  1  0
  1 12  1  0
  2 13  1  0
  2 14  1  0
  3 15  1  0
  4 16  1  0
  4 17  1  0
  4 18  1  0
  5 19  1  0
  5 20  1  0
  8 21  1  0
M  END
