
     RDKit          3D

 21 20  0  0  0  0  0  0  0  0999 V2000
    2.5384    0.0013   -0.1200 C   0  0  0  0  0  0  0  0  0  0  0  0
    1.3509   -0.9194   -0.1343 C   0  0  0  0  0  0  0  0  0  0  0  0
    0.0970   -0.2559    0.3907 C   0  0  0  0  0  0  0  0  0  0  0  0
   -0.2745    0.9556   -0.4399 C   0  0  0  0  0  0  0  0  0  0  0  0
   -1.5233    1.6254    0.0752 C   0  0  0  0  0  0  0  0  0  0  0  0
   -1.0160   -1.2721    0.2623 C   0  0  0  0  0  0  0  0  0  0  0  0
   -2.1973   -0.7455    0.7215 O   0  0  0  0  0  0  0  0  0  0  0  0
    2.3273    0.9701    0.3907 H   0  0  0  0  0  0  0  0  0  0  0  0
    3.3651   -0.4775    0.4027 H   0  0  0  0  0  0  0  0  0  0  0  0
    2.8016    0.2193   -1.1697 H   0  0  0  0  0  0  0  0  0  0  0  0
    1.1155   -1.3100   -1.1449 H   0  0  0  0  0  0  0  0  0  0  0  0
    1.5366   -1.7981    0.5422 H   0  0  0  0  0  0  0  0  0  0  0  0
    0.2011   -0.0132    1.4470 H   0  0  0  0  0  0  0  0  0  0  0  0
    0.5322    1.6978   -0.4679 H   0  0  0  0  0  0  0  0  0  0  0  0
   -0.4878    0.6483   -1.4865 H   0  0  0  0  0  0  0  0  0  0  0  0
   -2.4317    1.2601   -0.4473 H   0  0  0  0  0  0  0  0  0  0  0  0
   -1.4384    2.7087   -0.1376 H   0  0  0  0  0  0  0  0  0  0  0  0
   -1.6022    1.4665    1.1814 H   0  0  0  0  0  0  0  0  0  0  0  0
   -1.1664   -1.5200   -0.8213 H   0  0  0  0  0  0  0  0  0  0  0  0
   -0.7380   -2.2414    0.7393 H   0  0  0  0  0  0  0  0  0  0  0  0
   -2.9900   -1.0000    0.2164 H   0  0  0  0  0  0  0  0  0  0  0  0
  1  2  1  0
  2  3  1  0
  3  4  1  0
  4  5  1  0
  3  6  1  0
  6  7  1  0
  1  8  1  0
  1  9  1  0
  1 10  1  0
  2 11  1  0
  2 12  1  0
  3 13  1  0
  4 14  1  0
  4 15  1  0
  5 16  1  0
  5 17  1  0
  5 18  1  0
  6 19  1  0
  6 20  1  0
  7 21  1  0
M  END
