
     RDKit          3D

 23 22  0  0  0  0  0  0  0  0999 V2000
    1.1916    1.7771    0.2157 C   0  0  0  0  0  0  0  0  0  0  0  0
   -0.0169    1.1837   -0.4024 C   0  0  0  0  0  0  0  0  0  0  0  0
   -0.3979   -0.1869    0.0523 C   0  0  0  0  0  0  0  0  0  0  0  0
   -0.6451   -0.1248    1.5447 C   0  0  0  0  0  0  0  0  0  0  0  0
   -1.7941   -0.4183   -0.5693 C   0  0  0  0  0  0  0  0  0  0  0  0
   -1.7290   -0.3383   -1.9497 O   0  0  0  0  0  0  0  0  0  0  0  0
    0.4971   -1.2940   -0.3667 C   0  0  0  0  0  0  0  0  0  0  0  0
    1.8944   -1.2126    0.0762 C   0  0  0  0  0  0  0  0  0  0  0  0
    2.7435   -0.6304   -0.5875 O   0  0  0  0  0  0  0  0  0  0  0  0
    1.9524    1.9824   -0.5823 H   0  0  0  0  0  0  0  0  0  0  0  0
    1.6206    1.2381    1.0597 H   0  0  0  0  0  0  0  0  0  0  0  0
    0.9576    2.8097    0.6216 H   0  0  0  0  0  0  0  0  0  0  0  0
   -0.9056    1.8424   -0.1673 H   0  0  0  0  0  0  0  0  0  0  0  0
    0.0596    1.2088   -1.5254 H   0  0  0  0  0  0  0  0  0  0  0  0
   -0.1501    0.7908    1.9855 H   0  0  0  0  0  0  0  0  0  0  0  0
   -0.2342   -1.0355    2.0218 H   0  0  0  0  0  0  0  0  0  0  0  0
   -1.7177   -0.0150    1.8025 H   0  0  0  0  0  0  0  0  0  0  0  0
   -2.1386   -1.4028   -0.2062 H   0  0  0  0  0  0  0  0  0  0  0  0
   -2.5103    0.3400   -0.2154 H   0  0  0  0  0  0  0  0  0  0  0  0
   -1.4140   -1.1794   -2.3537 H   0  0  0  0  0  0  0  0  0  0  0  0
    0.4123   -1.4222   -1.4837 H   0  0  0  0  0  0  0  0  0  0  0  0
    0.0641   -2.2597    0.0284 H   0  0  0  0  0  0  0  0  0  0  0  0
    2.2602   -1.6532    1.0011 H   0  0  0  0  0  0  0  0  0  0  0  0
  1  2  1  0
  2  3  1  0
  3  4  1  0
  3  5  1  0
  5  6  1  0
  3  7  1  0
  7  8  1  0
  8  9  2  0
  1 10  1  0
  1 11  1  0
  1 12  1  0
  2 13  1  0
  2 14  1  0
  4 15  1  0
  4 16  1  0
  4 17  1  0
  5 18  1  0
  5 19  1  0
  6 20  1  0
  7 21  1  0
  7 22  1  0
  8 23  1  0
M  END
