
     RDKit          3D

 20 20  0  0  0  0  0  0  0  0999 V2000
    2.6794   -0.1603    0.6801 C   0  0  0  0  0  0  0  0  0  0  0  0
    1.5939    0.7509    0.1182 C   0  0  0  0  0  0  0  0  0  0  0  0
    0.5309   -0.0610   -0.5044 C   0  0  0  0  0  0  0  0  0  0  0  0
    0.8959   -0.9267   -1.2973 O   0  0  0  0  0  0  0  0  0  0  0  0
   -0.9150    0.0654   -0.2444 C   0  0  0  0  0  0  0  0  0  0  0  0
   -1.7038    0.5788   -1.4337 C   0  0  0  0  0  0  0  0  0  0  0  0
   -1.5501   -1.2023    0.3871 C   0  0  0  0  0  0  0  0  0  0  0  0
   -1.4662    0.0973    1.1207 C   0  0  0  0  0  0  0  0  0  0  0  0
    3.5603    0.4294    0.9974 H   0  0  0  0  0  0  0  0  0  0  0  0
    2.2818   -0.7937    1.4920 H   0  0  0  0  0  0  0  0  0  0  0  0
    3.0238   -0.8228   -0.1538 H   0  0  0  0  0  0  0  0  0  0  0  0
    1.2357    1.4475    0.8886 H   0  0  0  0  0  0  0  0  0  0  0  0
    2.0982    1.3189   -0.7048 H   0  0  0  0  0  0  0  0  0  0  0  0
   -1.9713   -0.3206   -2.0265 H   0  0  0  0  0  0  0  0  0  0  0  0
   -1.1248    1.2361   -2.0915 H   0  0  0  0  0  0  0  0  0  0  0  0
   -2.6143    1.1391   -1.1275 H   0  0  0  0  0  0  0  0  0  0  0  0
   -0.8631   -2.0276    0.6465 H   0  0  0  0  0  0  0  0  0  0  0  0
   -2.5162   -1.5381   -0.0165 H   0  0  0  0  0  0  0  0  0  0  0  0
   -0.7374    0.2119    1.9550 H   0  0  0  0  0  0  0  0  0  0  0  0
   -2.4376    0.5777    1.3149 H   0  0  0  0  0  0  0  0  0  0  0  0
  1  2  1  0
  2  3  1  0
  3  4  2  0
  3  5  1  0
  5  6  1  0
  5  7  1  0
  7  8  1  0
  8  5  1  0
  1  9  1  0
  1 10  1  0
  1 11  1  0
  2 12  1  0
  2 13  1  0
  6 14  1  0
  6 15  1  0
  6 16  1  0
  7 17  1  0
  7 18  1  0
  8 19  1  0
  8 20  1  0
M  END
