
     RDKit          3D

 23 23  0  0  0  0  0  0  0  0999 V2000
   -2.1975    1.6778   -0.4301 C   0  0  0  0  0  0  0  0  0  0  0  0
   -2.1212    0.2556    0.0828 C   0  0  0  0  0  0  0  0  0  0  0  0
   -0.8580   -0.4355   -0.3908 C   0  0  0  0  0  0  0  0  0  0  0  0
   -0.9115   -1.8518    0.1961 C   0  0  0  0  0  0  0  0  0  0  0  0
    0.3344    0.2090    0.1998 C   0  0  0  0  0  0  0  0  0  0  0  0
    0.1966    1.1500    0.9441 O   0  0  0  0  0  0  0  0  0  0  0  0
    1.6951   -0.2803   -0.1062 C   0  0  0  0  0  0  0  0  0  0  0  0
    2.6435   -0.3097    1.1268 C   0  0  0  0  0  0  0  0  0  0  0  0
    2.8711    0.6117   -0.0016 C   0  0  0  0  0  0  0  0  0  0  0  0
   -1.5695    1.8086   -1.3525 H   0  0  0  0  0  0  0  0  0  0  0  0
   -3.2612    1.8785   -0.6792 H   0  0  0  0  0  0  0  0  0  0  0  0
   -1.8958    2.4095    0.3451 H   0  0  0  0  0  0  0  0  0  0  0  0
   -2.0209    0.3269    1.2011 H   0  0  0  0  0  0  0  0  0  0  0  0
   -3.0264   -0.3049   -0.1415 H   0  0  0  0  0  0  0  0  0  0  0  0
   -0.8073   -0.4714   -1.4979 H   0  0  0  0  0  0  0  0  0  0  0  0
   -1.9700   -2.1898    0.2223 H   0  0  0  0  0  0  0  0  0  0  0  0
   -0.2558   -2.5276   -0.3694 H   0  0  0  0  0  0  0  0  0  0  0  0
   -0.5664   -1.8051    1.2572 H   0  0  0  0  0  0  0  0  0  0  0  0
    1.8200   -1.1456   -0.7907 H   0  0  0  0  0  0  0  0  0  0  0  0
    2.2547    0.1118    2.0640 H   0  0  0  0  0  0  0  0  0  0  0  0
    3.2306   -1.2335    1.2610 H   0  0  0  0  0  0  0  0  0  0  0  0
    2.6759    1.6853    0.1799 H   0  0  0  0  0  0  0  0  0  0  0  0
    3.7398    0.4304   -0.6567 H   0  0  0  0  0  0  0  0  0  0  0  0
  1  2  1  0
  2  3  1  0
  3  4  1  0
  3  5  1  0
  5  6  2  0
  5  7  1  0
  7  8  1  0
  8  9  1  0
  9  7  1  0
  1 10  1  0
  1 11  1  0
  1 12  1  0
  2 13  1  0
  2 14  1  0
  3 15  1  0
  4 16  1  0
  4 17  1  0
  4 18  1  0
  7 19  1  0
  8 20  1  0
  8 21  1  0
  9 22  1  0
  9 23  1  0
M  END
