
     RDKit          3D

 23 23  0  0  0  0  0  0  0  0999 V2000
   -2.5708    1.1977    0.4330 C   0  0  0  0  0  0  0  0  0  0  0  0
   -1.2350    0.9961   -0.2283 C   0  0  0  0  0  0  0  0  0  0  0  0
   -0.4818   -0.1936    0.3295 C   0  0  0  0  0  0  0  0  0  0  0  0
   -1.3654   -1.4172    0.0812 C   0  0  0  0  0  0  0  0  0  0  0  0
    0.8038   -0.3160   -0.4086 C   0  0  0  0  0  0  0  0  0  0  0  0
    1.7999   -1.3610   -0.1387 C   0  0  0  0  0  0  0  0  0  0  0  0
    2.0739    0.0513    0.3430 C   0  0  0  0  0  0  0  0  0  0  0  0
    3.0857    0.8643   -0.3648 C   0  0  0  0  0  0  0  0  0  0  0  0
    3.2890    0.6779   -1.5554 O   0  0  0  0  0  0  0  0  0  0  0  0
   -3.2869    1.6282   -0.3229 H   0  0  0  0  0  0  0  0  0  0  0  0
   -2.5331    1.8825    1.3036 H   0  0  0  0  0  0  0  0  0  0  0  0
   -2.9987    0.2259    0.7426 H   0  0  0  0  0  0  0  0  0  0  0  0
   -1.4092    0.8833   -1.3315 H   0  0  0  0  0  0  0  0  0  0  0  0
   -0.6574    1.9393   -0.1079 H   0  0  0  0  0  0  0  0  0  0  0  0
   -0.3713   -0.0216    1.4154 H   0  0  0  0  0  0  0  0  0  0  0  0
   -2.0045   -1.2595   -0.8122 H   0  0  0  0  0  0  0  0  0  0  0  0
   -1.9515   -1.6519    0.9949 H   0  0  0  0  0  0  0  0  0  0  0  0
   -0.6911   -2.2556   -0.1306 H   0  0  0  0  0  0  0  0  0  0  0  0
    0.7687    0.0517   -1.4690 H   0  0  0  0  0  0  0  0  0  0  0  0
    2.4435   -1.7138   -0.9676 H   0  0  0  0  0  0  0  0  0  0  0  0
    1.7069   -2.0942    0.6857 H   0  0  0  0  0  0  0  0  0  0  0  0
    1.9397    0.2717    1.4208 H   0  0  0  0  0  0  0  0  0  0  0  0
    3.6454    1.6147    0.1449 H   0  0  0  0  0  0  0  0  0  0  0  0
  1  2  1  0
  2  3  1  0
  3  4  1  0
  3  5  1  0
  5  6  1  0
  6  7  1  0
  7  8  1  0
  8  9  2  0
  7  5  1  0
  1 10  1  0
  1 11  1  0
  1 12  1  0
  2 13  1  0
  2 14  1  0
  3 15  1  0
  4 16  1  0
  4 17  1  0
  4 18  1  0
  5 19  1  0
  6 20  1  0
  6 21  1  0
  7 22  1  0
  8 23  1  0
M  END
