
     RDKit          3D

 27 26  0  0  0  0  0  0  0  0999 V2000
    1.5819    1.1363   -1.3347 C   0  0  0  0  0  0  0  0  0  0  0  0
    1.3903    1.1704    0.1508 C   0  0  0  0  0  0  0  0  0  0  0  0
    0.9649   -0.1461    0.7342 C   0  0  0  0  0  0  0  0  0  0  0  0
    0.7860   -0.0044    2.2382 C   0  0  0  0  0  0  0  0  0  0  0  0
   -0.0735   -0.9007    0.0566 C   0  0  0  0  0  0  0  0  0  0  0  0
   -0.3126   -2.2235    0.8527 C   0  0  0  0  0  0  0  0  0  0  0  0
   -1.4116   -0.3850   -0.2137 C   0  0  0  0  0  0  0  0  0  0  0  0
   -1.6065    0.8143   -1.0593 C   0  0  0  0  0  0  0  0  0  0  0  0
   -3.0213    1.0301   -1.1422 O   0  0  0  0  0  0  0  0  0  0  0  0
    2.6352    1.4100   -1.6392 H   0  0  0  0  0  0  0  0  0  0  0  0
    1.3785    0.1846   -1.8209 H   0  0  0  0  0  0  0  0  0  0  0  0
    0.9571    1.9166   -1.8455 H   0  0  0  0  0  0  0  0  0  0  0  0
    0.7738    2.0321    0.4172 H   0  0  0  0  0  0  0  0  0  0  0  0
    2.4146    1.4003    0.5992 H   0  0  0  0  0  0  0  0  0  0  0  0
    1.9286   -0.7711    0.6623 H   0  0  0  0  0  0  0  0  0  0  0  0
   -0.2909    0.1084    2.5118 H   0  0  0  0  0  0  0  0  0  0  0  0
    1.1291   -0.9201    2.7647 H   0  0  0  0  0  0  0  0  0  0  0  0
    1.4004    0.8275    2.6406 H   0  0  0  0  0  0  0  0  0  0  0  0
    0.3471   -1.3068   -0.9176 H   0  0  0  0  0  0  0  0  0  0  0  0
    0.5818   -2.8478    0.8253 H   0  0  0  0  0  0  0  0  0  0  0  0
   -0.4531   -1.8788    1.8975 H   0  0  0  0  0  0  0  0  0  0  0  0
   -1.2362   -2.7039    0.5145 H   0  0  0  0  0  0  0  0  0  0  0  0
   -1.9582   -1.2242   -0.7660 H   0  0  0  0  0  0  0  0  0  0  0  0
   -2.0461   -0.3346    0.7352 H   0  0  0  0  0  0  0  0  0  0  0  0
   -1.3190    0.6582   -2.1262 H   0  0  0  0  0  0  0  0  0  0  0  0
   -1.1636    1.7494   -0.7425 H   0  0  0  0  0  0  0  0  0  0  0  0
   -3.3764    1.2087   -0.2360 H   0  0  0  0  0  0  0  0  0  0  0  0
  1  2  1  0
  2  3  1  0
  3  4  1  0
  3  5  1  0
  5  6  1  0
  5  7  1  0
  7  8  1  0
  8  9  1  0
  1 10  1  0
  1 11  1  0
  1 12  1  0
  2 13  1  0
  2 14  1  0
  3 15  1  0
  4 16  1  0
  4 17  1  0
  4 18  1  0
  5 19  1  0
  6 20  1  0
  6 21  1  0
  6 22  1  0
  7 23  1  0
  7 24  1  0
  8 25  1  0
  8 26  1  0
  9 27  1  0
M  END
