
     RDKit          3D

 23 23  0  0  0  0  0  0  0  0999 V2000
    2.8435    0.0880    0.2192 C   0  0  0  0  0  0  0  0  0  0  0  0
    1.4584   -0.5328    0.3650 C   0  0  0  0  0  0  0  0  0  0  0  0
    0.4613    0.4691   -0.0759 C   0  0  0  0  0  0  0  0  0  0  0  0
    0.7306    0.7875   -1.4185 O   0  0  0  0  0  0  0  0  0  0  0  0
   -0.9651    0.0557    0.0375 C   0  0  0  0  0  0  0  0  0  0  0  0
   -1.9521    1.1211   -0.4285 C   0  0  0  0  0  0  0  0  0  0  0  0
   -1.8300    2.2850    0.3087 O   0  0  0  0  0  0  0  0  0  0  0  0
   -1.2903   -1.3456   -0.5097 C   0  0  0  0  0  0  0  0  0  0  0  0
   -1.4293   -1.0104    0.9429 C   0  0  0  0  0  0  0  0  0  0  0  0
    2.7862    1.1400   -0.1421 H   0  0  0  0  0  0  0  0  0  0  0  0
    3.4689   -0.4574   -0.5139 H   0  0  0  0  0  0  0  0  0  0  0  0
    3.3689    0.1400    1.2013 H   0  0  0  0  0  0  0  0  0  0  0  0
    1.3593   -0.8610    1.4067 H   0  0  0  0  0  0  0  0  0  0  0  0
    1.4484   -1.4351   -0.3042 H   0  0  0  0  0  0  0  0  0  0  0  0
    0.6218    1.4064    0.5086 H   0  0  0  0  0  0  0  0  0  0  0  0
    0.8781   -0.0730   -1.8706 H   0  0  0  0  0  0  0  0  0  0  0  0
   -1.8613    1.3012   -1.5295 H   0  0  0  0  0  0  0  0  0  0  0  0
   -2.9760    0.6687   -0.2907 H   0  0  0  0  0  0  0  0  0  0  0  0
   -1.2084    2.1379    1.0481 H   0  0  0  0  0  0  0  0  0  0  0  0
   -2.1767   -1.4591   -1.1495 H   0  0  0  0  0  0  0  0  0  0  0  0
   -0.4536   -2.0118   -0.7625 H   0  0  0  0  0  0  0  0  0  0  0  0
   -0.7812   -1.4916    1.6818 H   0  0  0  0  0  0  0  0  0  0  0  0
   -2.5012   -0.9226    1.2759 H   0  0  0  0  0  0  0  0  0  0  0  0
  1  2  1  0
  2  3  1  0
  3  4  1  0
  3  5  1  0
  5  6  1  0
  6  7  1  0
  5  8  1  0
  8  9  1  0
  9  5  1  0
  1 10  1  0
  1 11  1  0
  1 12  1  0
  2 13  1  0
  2 14  1  0
  3 15  1  0
  4 16  1  0
  6 17  1  0
  6 18  1  0
  7 19  1  0
  8 20  1  0
  8 21  1  0
  9 22  1  0
  9 23  1  0
M  END
