
     RDKit          3D

 22 21  0  0  0  0  0  0  0  0999 V2000
   -1.9122   -0.7666    1.0860 C   0  0  0  0  0  0  0  0  0  0  0  0
   -0.9877   -1.0124   -0.0658 C   0  0  0  0  0  0  0  0  0  0  0  0
    0.3499   -0.3398    0.0783 C   0  0  0  0  0  0  0  0  0  0  0  0
    1.1004   -0.6496   -1.0507 O   0  0  0  0  0  0  0  0  0  0  0  0
    2.2261   -1.3499   -0.6487 C   0  0  0  0  0  0  0  0  0  0  0  0
    0.2645    1.1514    0.1856 C   0  0  0  0  0  0  0  0  0  0  0  0
   -0.2319    1.8187   -1.0641 C   0  0  0  0  0  0  0  0  0  0  0  0
   -0.4843    1.5009    1.3116 O   0  0  0  0  0  0  0  0  0  0  0  0
   -2.5449   -1.6849    1.2515 H   0  0  0  0  0  0  0  0  0  0  0  0
   -2.5953    0.0669    0.8061 H   0  0  0  0  0  0  0  0  0  0  0  0
   -1.3537   -0.5561    2.0018 H   0  0  0  0  0  0  0  0  0  0  0  0
   -0.7901   -2.1107   -0.1012 H   0  0  0  0  0  0  0  0  0  0  0  0
   -1.4826   -0.7714   -1.0318 H   0  0  0  0  0  0  0  0  0  0  0  0
    0.8167   -0.7162    1.0104 H   0  0  0  0  0  0  0  0  0  0  0  0
    1.9540   -2.2900   -0.1259 H   0  0  0  0  0  0  0  0  0  0  0  0
    2.8143   -1.5700   -1.5793 H   0  0  0  0  0  0  0  0  0  0  0  0
    2.7746   -0.7168    0.0606 H   0  0  0  0  0  0  0  0  0  0  0  0
    1.2950    1.5234    0.3712 H   0  0  0  0  0  0  0  0  0  0  0  0
    0.5732    2.4296   -1.5645 H   0  0  0  0  0  0  0  0  0  0  0  0
   -1.0255    2.5384   -0.7647 H   0  0  0  0  0  0  0  0  0  0  0  0
   -0.6231    1.1433   -1.8201 H   0  0  0  0  0  0  0  0  0  0  0  0
   -0.1373    2.3617    1.6537 H   0  0  0  0  0  0  0  0  0  0  0  0
  1  2  1  0
  2  3  1  0
  3  4  1  0
  4  5  1  0
  3  6  1  0
  6  7  1  0
  6  8  1  0
  1  9  1  0
  1 10  1  0
  1 11  1  0
  2 12  1  0
  2 13  1  0
  3 14  1  0
  5 15  1  0
  5 16  1  0
  5 17  1  0
  6 18  1  0
  7 19  1  0
  7 20  1  0
  7 21  1  0
  8 22  1  0
M  END
