
     RDKit          3D

 21 20  0  0  0  0  0  0  0  0999 V2000
    3.3395    0.4544    0.1484 C   0  0  0  0  0  0  0  0  0  0  0  0
    2.2152   -0.5593    0.1215 C   0  0  0  0  0  0  0  0  0  0  0  0
    0.8919    0.1475    0.2119 C   0  0  0  0  0  0  0  0  0  0  0  0
    0.8896    1.4049    0.2928 O   0  0  0  0  0  0  0  0  0  0  0  0
   -0.3279   -0.6430    0.2026 C   0  0  0  0  0  0  0  0  0  0  0  0
   -0.3279   -1.8874    0.1227 O   0  0  0  0  0  0  0  0  0  0  0  0
   -1.6240    0.0656    0.2923 C   0  0  0  0  0  0  0  0  0  0  0  0
   -2.7862   -0.8977    0.2700 C   0  0  0  0  0  0  0  0  0  0  0  0
   -1.6866    1.0335   -0.8749 C   0  0  0  0  0  0  0  0  0  0  0  0
    3.4293    0.8152    1.1954 H   0  0  0  0  0  0  0  0  0  0  0  0
    3.0057    1.2928   -0.5269 H   0  0  0  0  0  0  0  0  0  0  0  0
    4.2707    0.0530   -0.2648 H   0  0  0  0  0  0  0  0  0  0  0  0
    2.3515   -1.2714    0.9419 H   0  0  0  0  0  0  0  0  0  0  0  0
    2.2784   -1.1271   -0.8380 H   0  0  0  0  0  0  0  0  0  0  0  0
   -1.5893    0.6368    1.2672 H   0  0  0  0  0  0  0  0  0  0  0  0
   -3.6147   -0.4561    0.8680 H   0  0  0  0  0  0  0  0  0  0  0  0
   -2.5111   -1.8397    0.7530 H   0  0  0  0  0  0  0  0  0  0  0  0
   -3.1323   -0.9964   -0.7610 H   0  0  0  0  0  0  0  0  0  0  0  0
   -1.4689    2.0529   -0.5377 H   0  0  0  0  0  0  0  0  0  0  0  0
   -2.6750    0.9456   -1.3707 H   0  0  0  0  0  0  0  0  0  0  0  0
   -0.9279    0.7758   -1.6618 H   0  0  0  0  0  0  0  0  0  0  0  0
  1  2  1  0
  2  3  1  0
  3  4  2  0
  3  5  1  0
  5  6  2  0
  5  7  1  0
  7  8  1  0
  7  9  1  0
  1 10  1  0
  1 11  1  0
  1 12  1  0
  2 13  1  0
  2 14  1  0
  7 15  1  0
  8 16  1  0
  8 17  1  0
  8 18  1  0
  9 19  1  0
  9 20  1  0
  9 21  1  0
M  END
