
     RDKit          3D

 23 22  0  0  0  0  0  0  0  0999 V2000
    2.0273    0.7755    0.5612 C   0  0  0  0  0  0  0  0  0  0  0  0
    1.1545    0.9123   -0.6492 C   0  0  0  0  0  0  0  0  0  0  0  0
    0.1541   -0.2099   -0.7814 C   0  0  0  0  0  0  0  0  0  0  0  0
    0.9157   -1.4987   -0.8850 C   0  0  0  0  0  0  0  0  0  0  0  0
   -0.8748   -0.2153    0.3187 C   0  0  0  0  0  0  0  0  0  0  0  0
   -1.8043   -1.3831    0.0613 C   0  0  0  0  0  0  0  0  0  0  0  0
   -1.6795    0.9546    0.1558 O   0  0  0  0  0  0  0  0  0  0  0  0
   -1.8386    1.8948    1.1509 C   0  0  0  0  0  0  0  0  0  0  0  0
   -1.2600    1.7202    2.2336 O   0  0  0  0  0  0  0  0  0  0  0  0
    1.4689    0.6107    1.4938 H   0  0  0  0  0  0  0  0  0  0  0  0
    2.7236   -0.0850    0.3693 H   0  0  0  0  0  0  0  0  0  0  0  0
    2.6473    1.6900    0.6322 H   0  0  0  0  0  0  0  0  0  0  0  0
    1.8196    0.8494   -1.5370 H   0  0  0  0  0  0  0  0  0  0  0  0
    0.6022    1.8870   -0.6584 H   0  0  0  0  0  0  0  0  0  0  0  0
   -0.3603   -0.0570   -1.7541 H   0  0  0  0  0  0  0  0  0  0  0  0
    0.2894   -2.2379   -1.4274 H   0  0  0  0  0  0  0  0  0  0  0  0
    1.8148   -1.3229   -1.5090 H   0  0  0  0  0  0  0  0  0  0  0  0
    1.2753   -1.8747    0.0897 H   0  0  0  0  0  0  0  0  0  0  0  0
   -0.4425   -0.2108    1.3230 H   0  0  0  0  0  0  0  0  0  0  0  0
   -1.3158   -2.3554    0.1850 H   0  0  0  0  0  0  0  0  0  0  0  0
   -2.1465   -1.2655   -1.0063 H   0  0  0  0  0  0  0  0  0  0  0  0
   -2.6956   -1.3393    0.6963 H   0  0  0  0  0  0  0  0  0  0  0  0
   -2.4749    2.7611    0.9370 H   0  0  0  0  0  0  0  0  0  0  0  0
  1  2  1  0
  2  3  1  0
  3  4  1  0
  3  5  1  0
  5  6  1  0
  5  7  1  0
  7  8  1  0
  8  9  2  0
  1 10  1  0
  1 11  1  0
  1 12  1  0
  2 13  1  0
  2 14  1  0
  3 15  1  0
  4 16  1  0
  4 17  1  0
  4 18  1  0
  5 19  1  0
  6 20  1  0
  6 21  1  0
  6 22  1  0
  8 23  1  0
M  END
