
     RDKit          3D

 27 26  0  0  0  0  0  0  0  0999 V2000
   -1.9025    1.7611   -0.1703 C   0  0  0  0  0  0  0  0  0  0  0  0
   -0.4229    1.4847   -0.2441 C   0  0  0  0  0  0  0  0  0  0  0  0
    0.0576    0.3497    0.5555 C   0  0  0  0  0  0  0  0  0  0  0  0
    1.5830    0.2373    0.3502 C   0  0  0  0  0  0  0  0  0  0  0  0
    1.8695    0.0259   -0.9970 O   0  0  0  0  0  0  0  0  0  0  0  0
    3.2459   -0.0654   -1.1127 C   0  0  0  0  0  0  0  0  0  0  0  0
   -0.6082   -0.9518    0.4781 C   0  0  0  0  0  0  0  0  0  0  0  0
   -0.6652   -1.6170   -0.8610 C   0  0  0  0  0  0  0  0  0  0  0  0
   -1.9793   -1.0397    1.0890 C   0  0  0  0  0  0  0  0  0  0  0  0
   -2.2780    1.5090    0.8376 H   0  0  0  0  0  0  0  0  0  0  0  0
   -2.0920    2.8502   -0.3665 H   0  0  0  0  0  0  0  0  0  0  0  0
   -2.4802    1.1637   -0.9275 H   0  0  0  0  0  0  0  0  0  0  0  0
   -0.1788    1.4422   -1.3260 H   0  0  0  0  0  0  0  0  0  0  0  0
    0.0943    2.4331    0.0982 H   0  0  0  0  0  0  0  0  0  0  0  0
   -0.0128    0.6705    1.6432 H   0  0  0  0  0  0  0  0  0  0  0  0
    1.9994    1.2276    0.6303 H   0  0  0  0  0  0  0  0  0  0  0  0
    1.9727   -0.5796    0.9928 H   0  0  0  0  0  0  0  0  0  0  0  0
    3.6416   -0.9142   -0.5002 H   0  0  0  0  0  0  0  0  0  0  0  0
    3.5942   -0.1855   -2.1581 H   0  0  0  0  0  0  0  0  0  0  0  0
    3.7011    0.8801   -0.7215 H   0  0  0  0  0  0  0  0  0  0  0  0
    0.0216   -1.6662    1.1147 H   0  0  0  0  0  0  0  0  0  0  0  0
   -1.4406   -1.1833   -1.5352 H   0  0  0  0  0  0  0  0  0  0  0  0
   -1.0517   -2.6614   -0.6596 H   0  0  0  0  0  0  0  0  0  0  0  0
    0.3110   -1.7472   -1.3460 H   0  0  0  0  0  0  0  0  0  0  0  0
   -2.0307   -0.5089    2.0677 H   0  0  0  0  0  0  0  0  0  0  0  0
   -2.1444   -2.1401    1.3139 H   0  0  0  0  0  0  0  0  0  0  0  0
   -2.8047   -0.7746    0.3966 H   0  0  0  0  0  0  0  0  0  0  0  0
  1  2  1  0
  2  3  1  0
  3  4  1  0
  4  5  1  0
  5  6  1  0
  3  7  1  0
  7  8  1  0
  7  9  1  0
  1 10  1  0
  1 11  1  0
  1 12  1  0
  2 13  1  0
  2 14  1  0
  3 15  1  0
  4 16  1  0
  4 17  1  0
  6 18  1  0
  6 19  1  0
  6 20  1  0
  7 21  1  0
  8 22  1  0
  8 23  1  0
  8 24  1  0
  9 25  1  0
  9 26  1  0
  9 27  1  0
M  END
