
     RDKit          3D

 25 24  0  0  0  0  0  0  0  0999 V2000
   -0.1476    2.2491    0.5270 C   0  0  0  0  0  0  0  0  0  0  0  0
    0.5049    1.3241   -0.4347 C   0  0  0  0  0  0  0  0  0  0  0  0
    0.1064   -0.1282   -0.3002 C   0  0  0  0  0  0  0  0  0  0  0  0
   -1.3798   -0.2799   -0.5424 C   0  0  0  0  0  0  0  0  0  0  0  0
   -1.9438   -1.6316   -0.4576 C   0  0  0  0  0  0  0  0  0  0  0  0
   -1.8559   -2.3000    0.7375 O   0  0  0  0  0  0  0  0  0  0  0  0
    0.5310   -0.6838    1.0214 C   0  0  0  0  0  0  0  0  0  0  0  0
    2.0129   -0.6193    1.2472 C   0  0  0  0  0  0  0  0  0  0  0  0
    2.5622    0.6305    1.2754 O   0  0  0  0  0  0  0  0  0  0  0  0
   -1.1227    2.6538    0.1268 H   0  0  0  0  0  0  0  0  0  0  0  0
    0.5056    3.1683    0.5987 H   0  0  0  0  0  0  0  0  0  0  0  0
   -0.2528    1.8802    1.5496 H   0  0  0  0  0  0  0  0  0  0  0  0
    0.1578    1.6811   -1.4697 H   0  0  0  0  0  0  0  0  0  0  0  0
    1.5844    1.4592   -0.4762 H   0  0  0  0  0  0  0  0  0  0  0  0
    0.6342   -0.6808   -1.1036 H   0  0  0  0  0  0  0  0  0  0  0  0
   -1.9718    0.4085    0.1102 H   0  0  0  0  0  0  0  0  0  0  0  0
   -1.5558    0.1053   -1.5817 H   0  0  0  0  0  0  0  0  0  0  0  0
   -3.0573   -1.5488   -0.6602 H   0  0  0  0  0  0  0  0  0  0  0  0
   -1.5934   -2.2781   -1.3229 H   0  0  0  0  0  0  0  0  0  0  0  0
   -2.2029   -1.7337    1.4420 H   0  0  0  0  0  0  0  0  0  0  0  0
    0.2594   -1.7596    1.1421 H   0  0  0  0  0  0  0  0  0  0  0  0
   -0.0220   -0.1256    1.8357 H   0  0  0  0  0  0  0  0  0  0  0  0
    2.5168   -1.2521    0.4499 H   0  0  0  0  0  0  0  0  0  0  0  0
    2.3016   -1.1689    2.1948 H   0  0  0  0  0  0  0  0  0  0  0  0
    3.4288    0.6303    0.8185 H   0  0  0  0  0  0  0  0  0  0  0  0
  1  2  1  0
  2  3  1  0
  3  4  1  0
  4  5  1  0
  5  6  1  0
  3  7  1  0
  7  8  1  0
  8  9  1  0
  1 10  1  0
  1 11  1  0
  1 12  1  0
  2 13  1  0
  2 14  1  0
  3 15  1  0
  4 16  1  0
  4 17  1  0
  5 18  1  0
  5 19  1  0
  6 20  1  0
  7 21  1  0
  7 22  1  0
  8 23  1  0
  8 24  1  0
  9 25  1  0
M  END
