
     RDKit          3D

 23 23  0  0  0  0  0  0  0  0999 V2000
    3.4654    0.3338   -0.1061 C   0  0  0  0  0  0  0  0  0  0  0  0
    2.2789   -0.5494   -0.3424 C   0  0  0  0  0  0  0  0  0  0  0  0
    1.0219    0.0270    0.2204 C   0  0  0  0  0  0  0  0  0  0  0  0
    1.1245    1.1126    0.7836 O   0  0  0  0  0  0  0  0  0  0  0  0
   -0.2664   -0.6876    0.0949 C   0  0  0  0  0  0  0  0  0  0  0  0
   -1.2125   -0.7018    1.2685 C   0  0  0  0  0  0  0  0  0  0  0  0
   -1.5476    0.0323    0.0032 C   0  0  0  0  0  0  0  0  0  0  0  0
   -1.6531    1.5201    0.1431 C   0  0  0  0  0  0  0  0  0  0  0  0
   -2.6266   -0.5661   -0.9009 C   0  0  0  0  0  0  0  0  0  0  0  0
    4.0819    0.0155    0.7518 H   0  0  0  0  0  0  0  0  0  0  0  0
    4.1316    0.2270   -1.0069 H   0  0  0  0  0  0  0  0  0  0  0  0
    3.1943    1.4096   -0.0771 H   0  0  0  0  0  0  0  0  0  0  0  0
    2.1670   -0.8017   -1.4163 H   0  0  0  0  0  0  0  0  0  0  0  0
    2.4777   -1.5169    0.1950 H   0  0  0  0  0  0  0  0  0  0  0  0
   -0.2142   -1.6586   -0.4378 H   0  0  0  0  0  0  0  0  0  0  0  0
   -1.7446   -1.6392    1.5222 H   0  0  0  0  0  0  0  0  0  0  0  0
   -0.9175   -0.1299    2.1781 H   0  0  0  0  0  0  0  0  0  0  0  0
   -2.7288    1.7392    0.4091 H   0  0  0  0  0  0  0  0  0  0  0  0
   -1.4643    2.0406   -0.8354 H   0  0  0  0  0  0  0  0  0  0  0  0
   -1.0534    1.9412    0.9677 H   0  0  0  0  0  0  0  0  0  0  0  0
   -2.1161   -0.7149   -1.8940 H   0  0  0  0  0  0  0  0  0  0  0  0
   -3.4654    0.1154   -1.0601 H   0  0  0  0  0  0  0  0  0  0  0  0
   -2.9327   -1.5481   -0.4605 H   0  0  0  0  0  0  0  0  0  0  0  0
  1  2  1  0
  2  3  1  0
  3  4  2  0
  3  5  1  0
  5  6  1  0
  6  7  1  0
  7  8  1  0
  7  9  1  0
  7  5  1  0
  1 10  1  0
  1 11  1  0
  1 12  1  0
  2 13  1  0
  2 14  1  0
  5 15  1  0
  6 16  1  0
  6 17  1  0
  8 18  1  0
  8 19  1  0
  8 20  1  0
  9 21  1  0
  9 22  1  0
  9 23  1  0
M  END
