
     RDKit          3D

 18 17  0  0  0  0  0  0  0  0999 V2000
   -1.9298    0.5533    0.4800 C   0  0  0  0  0  0  0  0  0  0  0  0
   -1.4479    0.0860   -0.8736 C   0  0  0  0  0  0  0  0  0  0  0  0
   -0.4046   -1.0115   -0.7578 C   0  0  0  0  0  0  0  0  0  0  0  0
   -0.9589   -2.1017   -0.0889 O   0  0  0  0  0  0  0  0  0  0  0  0
    0.7793   -0.5571    0.0181 C   0  0  0  0  0  0  0  0  0  0  0  0
    1.1351   -1.1288    1.0841 O   0  0  0  0  0  0  0  0  0  0  0  0
    1.5597    0.5224   -0.3878 O   0  0  0  0  0  0  0  0  0  0  0  0
    2.6854    0.9795    0.3205 C   0  0  0  0  0  0  0  0  0  0  0  0
   -3.0191    0.7727    0.3964 H   0  0  0  0  0  0  0  0  0  0  0  0
   -1.7676   -0.2065    1.2661 H   0  0  0  0  0  0  0  0  0  0  0  0
   -1.3949    1.4747    0.8031 H   0  0  0  0  0  0  0  0  0  0  0  0
   -2.3061   -0.3578   -1.4255 H   0  0  0  0  0  0  0  0  0  0  0  0
   -1.0396    0.9343   -1.4453 H   0  0  0  0  0  0  0  0  0  0  0  0
   -0.1309   -1.2854   -1.7992 H   0  0  0  0  0  0  0  0  0  0  0  0
   -0.7904   -1.9582    0.8766 H   0  0  0  0  0  0  0  0  0  0  0  0
    2.9666    0.3142    1.1577 H   0  0  0  0  0  0  0  0  0  0  0  0
    3.5400    0.9778   -0.3890 H   0  0  0  0  0  0  0  0  0  0  0  0
    2.5236    1.9922    0.7645 H   0  0  0  0  0  0  0  0  0  0  0  0
  1  2  1  0
  2  3  1  0
  3  4  1  0
  3  5  1  0
  5  6  2  0
  5  7  1  0
  7  8  1  0
  1  9  1  0
  1 10  1  0
  1 11  1  0
  2 12  1  0
  2 13  1  0
  3 14  1  0
  4 15  1  0
  8 16  1  0
  8 17  1  0
  8 18  1  0
M  END
