
     RDKit          3D

 25 25  0  0  0  0  0  0  0  0999 V2000
    2.0832   -1.5798   -0.3323 C   0  0  0  0  0  0  0  0  0  0  0  0
    2.0203   -0.1364   -0.6479 C   0  0  0  0  0  0  0  0  0  0  0  0
    1.0781    0.7181    0.0918 C   0  0  0  0  0  0  0  0  0  0  0  0
    1.2891    2.0320   -0.4401 O   0  0  0  0  0  0  0  0  0  0  0  0
   -0.3778    0.4202    0.0194 C   0  0  0  0  0  0  0  0  0  0  0  0
   -0.8330   -0.9099    0.5013 C   0  0  0  0  0  0  0  0  0  0  0  0
   -2.3366   -1.1059    0.3967 C   0  0  0  0  0  0  0  0  0  0  0  0
   -1.2319    1.6086    0.5530 C   0  0  0  0  0  0  0  0  0  0  0  0
   -1.2902    1.2027   -0.8489 C   0  0  0  0  0  0  0  0  0  0  0  0
    1.7627   -1.8831    0.6718 H   0  0  0  0  0  0  0  0  0  0  0  0
    1.6445   -2.1791   -1.1667 H   0  0  0  0  0  0  0  0  0  0  0  0
    3.1769   -1.8991   -0.3582 H   0  0  0  0  0  0  0  0  0  0  0  0
    1.8982   -0.0060   -1.7474 H   0  0  0  0  0  0  0  0  0  0  0  0
    3.0471    0.3081   -0.4562 H   0  0  0  0  0  0  0  0  0  0  0  0
    1.3576    0.7908    1.1673 H   0  0  0  0  0  0  0  0  0  0  0  0
    1.6300    2.6430    0.2309 H   0  0  0  0  0  0  0  0  0  0  0  0
   -0.4326   -1.7317   -0.1634 H   0  0  0  0  0  0  0  0  0  0  0  0
   -0.5378   -1.0556    1.5373 H   0  0  0  0  0  0  0  0  0  0  0  0
   -2.6656   -1.2152   -0.6612 H   0  0  0  0  0  0  0  0  0  0  0  0
   -2.9252   -0.4131    0.9903 H   0  0  0  0  0  0  0  0  0  0  0  0
   -2.5227   -2.1280    0.8456 H   0  0  0  0  0  0  0  0  0  0  0  0
   -0.7239    2.5609    0.7650 H   0  0  0  0  0  0  0  0  0  0  0  0
   -2.0034    1.3695    1.3069 H   0  0  0  0  0  0  0  0  0  0  0  0
   -2.2223    0.7026   -1.1833 H   0  0  0  0  0  0  0  0  0  0  0  0
   -0.8846    1.8863   -1.6305 H   0  0  0  0  0  0  0  0  0  0  0  0
  1  2  1  0
  2  3  1  0
  3  4  1  0
  3  5  1  0
  5  6  1  0
  6  7  1  0
  5  8  1  0
  8  9  1  0
  9  5  1  0
  1 10  1  0
  1 11  1  0
  1 12  1  0
  2 13  1  0
  2 14  1  0
  3 15  1  0
  4 16  1  0
  6 17  1  0
  6 18  1  0
  7 19  1  0
  7 20  1  0
  7 21  1  0
  8 22  1  0
  8 23  1  0
  9 24  1  0
  9 25  1  0
M  END
