
     RDKit          3D

 19 18  0  0  0  0  0  0  0  0999 V2000
   -1.6800    1.3085   -0.4788 C   0  0  0  0  0  0  0  0  0  0  0  0
   -1.7783   -0.1209    0.0072 C   0  0  0  0  0  0  0  0  0  0  0  0
   -0.5092   -0.8920   -0.2826 C   0  0  0  0  0  0  0  0  0  0  0  0
   -0.6236   -2.2831    0.1982 C   0  0  0  0  0  0  0  0  0  0  0  0
   -1.5820   -2.9412   -0.1585 O   0  0  0  0  0  0  0  0  0  0  0  0
    0.6368   -0.2369    0.1964 O   0  0  0  0  0  0  0  0  0  0  0  0
    1.6418    0.2461   -0.6288 C   0  0  0  0  0  0  0  0  0  0  0  0
    2.8481    0.9374   -0.1035 C   0  0  0  0  0  0  0  0  0  0  0  0
    1.4771    0.0656   -1.8713 O   0  0  0  0  0  0  0  0  0  0  0  0
   -1.2730    1.9874    0.3173 H   0  0  0  0  0  0  0  0  0  0  0  0
   -1.0257    1.3664   -1.3744 H   0  0  0  0  0  0  0  0  0  0  0  0
   -2.6754    1.7068   -0.7953 H   0  0  0  0  0  0  0  0  0  0  0  0
   -2.5833   -0.6111   -0.6142 H   0  0  0  0  0  0  0  0  0  0  0  0
   -2.1036   -0.1877    1.0451 H   0  0  0  0  0  0  0  0  0  0  0  0
   -0.4135   -0.9226   -1.4016 H   0  0  0  0  0  0  0  0  0  0  0  0
    0.1069   -2.7225    0.8452 H   0  0  0  0  0  0  0  0  0  0  0  0
    3.2663    1.6626   -0.8212 H   0  0  0  0  0  0  0  0  0  0  0  0
    2.6464    1.4733    0.8438 H   0  0  0  0  0  0  0  0  0  0  0  0
    3.6241    0.1639    0.0712 H   0  0  0  0  0  0  0  0  0  0  0  0
  1  2  1  0
  2  3  1  0
  3  4  1  0
  4  5  2  0
  3  6  1  0
  6  7  1  0
  7  8  1  0
  7  9  2  0
  1 10  1  0
  1 11  1  0
  1 12  1  0
  2 13  1  0
  2 14  1  0
  3 15  1  0
  4 16  1  0
  8 17  1  0
  8 18  1  0
  8 19  1  0
M  END
