
     RDKit          3D

 17 16  0  0  0  0  0  0  0  0999 V2000
    1.8816    0.0995   -0.3593 C   0  0  0  0  0  0  0  0  0  0  0  0
    0.6743   -0.7756   -0.2085 C   0  0  0  0  0  0  0  0  0  0  0  0
   -0.5886    0.0198    0.0856 C   0  0  0  0  0  0  0  0  0  0  0  0
   -0.9070    0.9795   -0.9757 C   0  0  0  0  0  0  0  0  0  0  0  0
   -0.7146    2.1634   -0.8068 O   0  0  0  0  0  0  0  0  0  0  0  0
   -0.3951    0.6848    1.4051 C   0  0  0  0  0  0  0  0  0  0  0  0
   -1.1176    0.4353    2.3436 O   0  0  0  0  0  0  0  0  0  0  0  0
   -1.6937   -0.9652    0.2074 C   0  0  0  0  0  0  0  0  0  0  0  0
   -2.3354   -1.2074   -0.7930 O   0  0  0  0  0  0  0  0  0  0  0  0
    2.6063   -0.4559   -1.0077 H   0  0  0  0  0  0  0  0  0  0  0  0
    1.6703    1.0570   -0.8666 H   0  0  0  0  0  0  0  0  0  0  0  0
    2.3617    0.2172    0.6228 H   0  0  0  0  0  0  0  0  0  0  0  0
    0.5230   -1.4352   -1.0863 H   0  0  0  0  0  0  0  0  0  0  0  0
    0.8151   -1.4574    0.6694 H   0  0  0  0  0  0  0  0  0  0  0  0
   -1.3139    0.6559   -1.9169 H   0  0  0  0  0  0  0  0  0  0  0  0
    0.4043    1.3981    1.5154 H   0  0  0  0  0  0  0  0  0  0  0  0
   -1.8705   -1.4137    1.1715 H   0  0  0  0  0  0  0  0  0  0  0  0
  1  2  1  0
  2  3  1  0
  3  4  1  0
  4  5  2  0
  3  6  1  0
  6  7  2  0
  3  8  1  0
  8  9  2  0
  1 10  1  0
  1 11  1  0
  1 12  1  0
  2 13  1  0
  2 14  1  0
  4 15  1  0
  6 16  1  0
  8 17  1  0
M  END
