
     RDKit          3D

 23 23  0  0  0  0  0  0  0  0999 V2000
    1.9478    1.0329    0.3843 C   0  0  0  0  0  0  0  0  0  0  0  0
    1.7062   -0.1519   -0.4754 C   0  0  0  0  0  0  0  0  0  0  0  0
    0.6623   -1.1035   -0.0103 C   0  0  0  0  0  0  0  0  0  0  0  0
    0.9905   -1.6094    1.2248 O   0  0  0  0  0  0  0  0  0  0  0  0
   -0.7516   -0.6355   -0.1225 C   0  0  0  0  0  0  0  0  0  0  0  0
   -1.6211   -1.7268    0.1271 O   0  0  0  0  0  0  0  0  0  0  0  0
   -1.1501    0.0289   -1.3909 C   0  0  0  0  0  0  0  0  0  0  0  0
   -1.5058    1.2699   -0.5755 C   0  0  0  0  0  0  0  0  0  0  0  0
   -1.1849    0.5261    0.6994 C   0  0  0  0  0  0  0  0  0  0  0  0
    1.3467    1.9238    0.1264 H   0  0  0  0  0  0  0  0  0  0  0  0
    3.0150    1.3613    0.2020 H   0  0  0  0  0  0  0  0  0  0  0  0
    1.9170    0.7639    1.4553 H   0  0  0  0  0  0  0  0  0  0  0  0
    1.5727    0.1341   -1.5575 H   0  0  0  0  0  0  0  0  0  0  0  0
    2.6734   -0.7416   -0.4903 H   0  0  0  0  0  0  0  0  0  0  0  0
    0.7332   -1.9921   -0.7151 H   0  0  0  0  0  0  0  0  0  0  0  0
    0.6249   -2.5118    1.4071 H   0  0  0  0  0  0  0  0  0  0  0  0
   -2.5175   -1.4126    0.3790 H   0  0  0  0  0  0  0  0  0  0  0  0
   -0.3793    0.2427   -2.1355 H   0  0  0  0  0  0  0  0  0  0  0  0
   -2.0366   -0.4225   -1.9230 H   0  0  0  0  0  0  0  0  0  0  0  0
   -0.8490    2.1237   -0.8163 H   0  0  0  0  0  0  0  0  0  0  0  0
   -2.5736    1.5245   -0.7331 H   0  0  0  0  0  0  0  0  0  0  0  0
   -0.4683    0.9883    1.3771 H   0  0  0  0  0  0  0  0  0  0  0  0
   -2.1518    0.3878    1.2697 H   0  0  0  0  0  0  0  0  0  0  0  0
  1  2  1  0
  2  3  1  0
  3  4  1  0
  3  5  1  0
  5  6  1  0
  5  7  1  0
  7  8  1  0
  8  9  1  0
  9  5  1  0
  1 10  1  0
  1 11  1  0
  1 12  1  0
  2 13  1  0
  2 14  1  0
  3 15  1  0
  4 16  1  0
  6 17  1  0
  7 18  1  0
  7 19  1  0
  8 20  1  0
  8 21  1  0
  9 22  1  0
  9 23  1  0
M  END
