
     RDKit          3D

 23 22  0  0  0  0  0  0  0  0999 V2000
    1.9298   -1.1890    0.6046 C   0  0  0  0  0  0  0  0  0  0  0  0
    1.7164   -0.0047   -0.3009 C   0  0  0  0  0  0  0  0  0  0  0  0
    0.3221    0.5468   -0.2318 C   0  0  0  0  0  0  0  0  0  0  0  0
    0.2469    1.6282   -1.1041 O   0  0  0  0  0  0  0  0  0  0  0  0
    0.1170    1.0659    1.1959 C   0  0  0  0  0  0  0  0  0  0  0  0
    1.0876    1.9975    1.5420 O   0  0  0  0  0  0  0  0  0  0  0  0
   -0.7486   -0.4414   -0.5105 C   0  0  0  0  0  0  0  0  0  0  0  0
   -1.9798    0.1763   -0.3563 O   0  0  0  0  0  0  0  0  0  0  0  0
   -3.0448   -0.6808   -0.5995 C   0  0  0  0  0  0  0  0  0  0  0  0
    1.8004   -0.9452    1.6715 H   0  0  0  0  0  0  0  0  0  0  0  0
    1.3250   -2.0691    0.2809 H   0  0  0  0  0  0  0  0  0  0  0  0
    3.0014   -1.4873    0.4871 H   0  0  0  0  0  0  0  0  0  0  0  0
    2.4457    0.7721    0.0054 H   0  0  0  0  0  0  0  0  0  0  0  0
    2.0105   -0.3087   -1.3267 H   0  0  0  0  0  0  0  0  0  0  0  0
    0.6490    1.4098   -1.9811 H   0  0  0  0  0  0  0  0  0  0  0  0
   -0.8832    1.5391    1.3118 H   0  0  0  0  0  0  0  0  0  0  0  0
    0.1435    0.2199    1.9132 H   0  0  0  0  0  0  0  0  0  0  0  0
    1.2685    2.5969    0.7529 H   0  0  0  0  0  0  0  0  0  0  0  0
   -0.6853   -0.7744   -1.5816 H   0  0  0  0  0  0  0  0  0  0  0  0
   -0.6232   -1.3287    0.1347 H   0  0  0  0  0  0  0  0  0  0  0  0
   -3.0624   -1.1029   -1.6066 H   0  0  0  0  0  0  0  0  0  0  0  0
   -3.0653   -1.5300    0.1394 H   0  0  0  0  0  0  0  0  0  0  0  0
   -3.9711   -0.0903   -0.4404 H   0  0  0  0  0  0  0  0  0  0  0  0
  1  2  1  0
  2  3  1  0
  3  4  1  0
  3  5  1  0
  5  6  1  0
  3  7  1  0
  7  8  1  0
  8  9  1  0
  1 10  1  0
  1 11  1  0
  1 12  1  0
  2 13  1  0
  2 14  1  0
  4 15  1  0
  5 16  1  0
  5 17  1  0
  6 18  1  0
  7 19  1  0
  7 20  1  0
  9 21  1  0
  9 22  1  0
  9 23  1  0
M  END
