
     RDKit          3D

 25 25  0  0  0  0  0  0  0  0999 V2000
    1.6364    1.4817   -0.6081 C   0  0  0  0  0  0  0  0  0  0  0  0
    1.3178    0.4792    0.4416 C   0  0  0  0  0  0  0  0  0  0  0  0
    0.3034   -0.5483    0.1107 C   0  0  0  0  0  0  0  0  0  0  0  0
    0.2063   -1.4347    1.3771 C   0  0  0  0  0  0  0  0  0  0  0  0
    0.7936   -1.4524   -0.9870 C   0  0  0  0  0  0  0  0  0  0  0  0
   -1.0988   -0.0837   -0.0853 C   0  0  0  0  0  0  0  0  0  0  0  0
   -1.9421   -1.1869   -0.3960 O   0  0  0  0  0  0  0  0  0  0  0  0
   -1.5328    1.1921   -0.6272 C   0  0  0  0  0  0  0  0  0  0  0  0
   -1.7149    0.8713    0.8598 C   0  0  0  0  0  0  0  0  0  0  0  0
    1.3470    2.5143   -0.3243 H   0  0  0  0  0  0  0  0  0  0  0  0
    2.7571    1.5606   -0.7708 H   0  0  0  0  0  0  0  0  0  0  0  0
    1.2268    1.2682   -1.6103 H   0  0  0  0  0  0  0  0  0  0  0  0
    1.0712    1.0010    1.3903 H   0  0  0  0  0  0  0  0  0  0  0  0
    2.2685   -0.0839    0.6835 H   0  0  0  0  0  0  0  0  0  0  0  0
    0.1130   -0.7711    2.2439 H   0  0  0  0  0  0  0  0  0  0  0  0
   -0.7305   -2.0336    1.3155 H   0  0  0  0  0  0  0  0  0  0  0  0
    1.0396   -2.1411    1.4148 H   0  0  0  0  0  0  0  0  0  0  0  0
    0.9337   -2.5050   -0.6659 H   0  0  0  0  0  0  0  0  0  0  0  0
    0.0664   -1.5029   -1.8460 H   0  0  0  0  0  0  0  0  0  0  0  0
    1.7478   -1.1280   -1.4282 H   0  0  0  0  0  0  0  0  0  0  0  0
   -2.5139   -0.9852   -1.1664 H   0  0  0  0  0  0  0  0  0  0  0  0
   -2.5284    1.2326   -1.1669 H   0  0  0  0  0  0  0  0  0  0  0  0
   -0.9089    2.0407   -0.9070 H   0  0  0  0  0  0  0  0  0  0  0  0
   -1.1262    1.5345    1.5081 H   0  0  0  0  0  0  0  0  0  0  0  0
   -2.7323    0.6805    1.2442 H   0  0  0  0  0  0  0  0  0  0  0  0
  1  2  1  0
  2  3  1  0
  3  4  1  0
  3  5  1  0
  3  6  1  0
  6  7  1  0
  6  8  1  0
  8  9  1  0
  9  6  1  0
  1 10  1  0
  1 11  1  0
  1 12  1  0
  2 13  1  0
  2 14  1  0
  4 15  1  0
  4 16  1  0
  4 17  1  0
  5 18  1  0
  5 19  1  0
  5 20  1  0
  7 21  1  0
  8 22  1  0
  8 23  1  0
  9 24  1  0
  9 25  1  0
M  END
