
     RDKit          3D

 23 22  0  0  0  0  0  0  0  0999 V2000
    2.4553    1.3761   -0.7508 C   0  0  0  0  0  0  0  0  0  0  0  0
    1.2867    0.3862   -0.8377 C   0  0  0  0  0  0  0  0  0  0  0  0
    0.8731   -0.0286    0.5769 C   0  0  0  0  0  0  0  0  0  0  0  0
    1.9972   -0.6210    1.1471 O   0  0  0  0  0  0  0  0  0  0  0  0
   -0.2020   -1.0621    0.4410 C   0  0  0  0  0  0  0  0  0  0  0  0
   -0.5226   -1.5669    1.6953 O   0  0  0  0  0  0  0  0  0  0  0  0
   -1.3898   -0.6155   -0.3331 C   0  0  0  0  0  0  0  0  0  0  0  0
   -2.0967    0.5763    0.2507 C   0  0  0  0  0  0  0  0  0  0  0  0
   -3.1976    0.9414   -0.5217 O   0  0  0  0  0  0  0  0  0  0  0  0
    2.0367    2.3724   -0.5068 H   0  0  0  0  0  0  0  0  0  0  0  0
    2.9637    1.3368   -1.7244 H   0  0  0  0  0  0  0  0  0  0  0  0
    3.0991    0.9983    0.0746 H   0  0  0  0  0  0  0  0  0  0  0  0
    1.6112   -0.5355   -1.3554 H   0  0  0  0  0  0  0  0  0  0  0  0
    0.4371    0.8830   -1.3508 H   0  0  0  0  0  0  0  0  0  0  0  0
    0.5941    0.8577    1.1429 H   0  0  0  0  0  0  0  0  0  0  0  0
    1.7753   -1.3356    1.7879 H   0  0  0  0  0  0  0  0  0  0  0  0
    0.2567   -1.9147   -0.1292 H   0  0  0  0  0  0  0  0  0  0  0  0
   -1.3319   -2.1385    1.6013 H   0  0  0  0  0  0  0  0  0  0  0  0
   -2.1256   -1.4549   -0.3353 H   0  0  0  0  0  0  0  0  0  0  0  0
   -1.1383   -0.4128   -1.3722 H   0  0  0  0  0  0  0  0  0  0  0  0
   -2.4561    0.3514    1.2611 H   0  0  0  0  0  0  0  0  0  0  0  0
   -1.4147    1.4783    0.2397 H   0  0  0  0  0  0  0  0  0  0  0  0
   -3.5108    0.1283   -1.0010 H   0  0  0  0  0  0  0  0  0  0  0  0
  1  2  1  0
  2  3  1  0
  3  4  1  0
  3  5  1  0
  5  6  1  0
  5  7  1  0
  7  8  1  0
  8  9  1  0
  1 10  1  0
  1 11  1  0
  1 12  1  0
  2 13  1  0
  2 14  1  0
  3 15  1  0
  4 16  1  0
  5 17  1  0
  6 18  1  0
  7 19  1  0
  7 20  1  0
  8 21  1  0
  8 22  1  0
  9 23  1  0
M  END
