
     RDKit          3D

 20 19  0  0  0  0  0  0  0  0999 V2000
   -1.1303    1.1867    1.3574 C   0  0  0  0  0  0  0  0  0  0  0  0
   -1.2476    1.2350   -0.1438 C   0  0  0  0  0  0  0  0  0  0  0  0
   -0.9551   -0.0954   -0.7846 C   0  0  0  0  0  0  0  0  0  0  0  0
   -1.8817   -1.1713   -0.3293 C   0  0  0  0  0  0  0  0  0  0  0  0
    0.4528   -0.4083   -0.5167 C   0  0  0  0  0  0  0  0  0  0  0  0
    1.6188   -0.6663   -0.2734 C   0  0  0  0  0  0  0  0  0  0  0  0
    3.0278   -0.9598    0.0234 C   0  0  0  0  0  0  0  0  0  0  0  0
    3.6969    0.2474    0.1819 O   0  0  0  0  0  0  0  0  0  0  0  0
   -0.1366    0.7462    1.6293 H   0  0  0  0  0  0  0  0  0  0  0  0
   -1.9359    0.6223    1.8372 H   0  0  0  0  0  0  0  0  0  0  0  0
   -1.1001    2.2307    1.7173 H   0  0  0  0  0  0  0  0  0  0  0  0
   -2.2748    1.5462   -0.4304 H   0  0  0  0  0  0  0  0  0  0  0  0
   -0.5723    2.0326   -0.5016 H   0  0  0  0  0  0  0  0  0  0  0  0
   -1.0802    0.0259   -1.8800 H   0  0  0  0  0  0  0  0  0  0  0  0
   -2.8445   -1.0527   -0.8604 H   0  0  0  0  0  0  0  0  0  0  0  0
   -1.4649   -2.1547   -0.6298 H   0  0  0  0  0  0  0  0  0  0  0  0
   -1.9984   -1.2163    0.7773 H   0  0  0  0  0  0  0  0  0  0  0  0
    3.5219   -1.4904   -0.8137 H   0  0  0  0  0  0  0  0  0  0  0  0
    3.0917   -1.5900    0.9157 H   0  0  0  0  0  0  0  0  0  0  0  0
    3.2122    0.9320   -0.3193 H   0  0  0  0  0  0  0  0  0  0  0  0
  1  2  1  0
  2  3  1  0
  3  4  1  0
  3  5  1  0
  5  6  3  0
  6  7  1  0
  7  8  1  0
  1  9  1  0
  1 10  1  0
  1 11  1  0
  2 12  1  0
  2 13  1  0
  3 14  1  0
  4 15  1  0
  4 16  1  0
  4 17  1  0
  7 18  1  0
  7 19  1  0
  8 20  1  0
M  END
