
     RDKit          3D

 23 23  0  0  0  0  0  0  0  0999 V2000
   -0.2354    2.1719    0.0955 C   0  0  0  0  0  0  0  0  0  0  0  0
    0.8332    1.1385    0.1462 C   0  0  0  0  0  0  0  0  0  0  0  0
    0.6637   -0.0515   -0.7203 C   0  0  0  0  0  0  0  0  0  0  0  0
    1.9161   -0.9173   -0.4563 C   0  0  0  0  0  0  0  0  0  0  0  0
    1.9686   -1.2642    0.8795 O   0  0  0  0  0  0  0  0  0  0  0  0
   -0.4896   -0.9365   -0.4293 C   0  0  0  0  0  0  0  0  0  0  0  0
   -1.8763   -0.4349   -0.4922 C   0  0  0  0  0  0  0  0  0  0  0  0
   -1.9468   -0.8107    0.9608 C   0  0  0  0  0  0  0  0  0  0  0  0
   -0.6383   -1.2863    0.9144 O   0  0  0  0  0  0  0  0  0  0  0  0
    0.2458    3.1301    0.4725 H   0  0  0  0  0  0  0  0  0  0  0  0
   -1.0675    2.0197    0.8175 H   0  0  0  0  0  0  0  0  0  0  0  0
   -0.5767    2.4060   -0.9381 H   0  0  0  0  0  0  0  0  0  0  0  0
    0.9387    0.7853    1.1942 H   0  0  0  0  0  0  0  0  0  0  0  0
    1.8064    1.6257   -0.1035 H   0  0  0  0  0  0  0  0  0  0  0  0
    0.7120    0.1733   -1.8077 H   0  0  0  0  0  0  0  0  0  0  0  0
    2.8351   -0.3731   -0.7089 H   0  0  0  0  0  0  0  0  0  0  0  0
    1.8471   -1.8700   -1.0429 H   0  0  0  0  0  0  0  0  0  0  0  0
    2.8669   -1.4744    1.1935 H   0  0  0  0  0  0  0  0  0  0  0  0
   -0.3917   -1.8893   -1.0291 H   0  0  0  0  0  0  0  0  0  0  0  0
   -2.0955    0.5854   -0.7742 H   0  0  0  0  0  0  0  0  0  0  0  0
   -2.5917   -1.1057   -1.0605 H   0  0  0  0  0  0  0  0  0  0  0  0
   -2.6694   -1.6440    1.2033 H   0  0  0  0  0  0  0  0  0  0  0  0
   -2.0547    0.0221    1.6857 H   0  0  0  0  0  0  0  0  0  0  0  0
  1  2  1  0
  2  3  1  0
  3  4  1  0
  4  5  1  0
  3  6  1  0
  6  7  1  0
  7  8  1  0
  8  9  1  0
  9  6  1  0
  1 10  1  0
  1 11  1  0
  1 12  1  0
  2 13  1  0
  2 14  1  0
  3 15  1  0
  4 16  1  0
  4 17  1  0
  5 18  1  0
  6 19  1  0
  7 20  1  0
  7 21  1  0
  8 22  1  0
  8 23  1  0
M  END
