
     RDKit          3D

 19 19  0  0  0  0  0  0  0  0999 V2000
    2.3211   -0.5116    0.3472 C   0  0  0  0  0  0  0  0  0  0  0  0
    0.8828   -0.1766    0.5466 C   0  0  0  0  0  0  0  0  0  0  0  0
    0.1896    0.0227   -0.7550 C   0  0  0  0  0  0  0  0  0  0  0  0
    0.7721    1.0559   -1.4669 O   0  0  0  0  0  0  0  0  0  0  0  0
   -1.2744    0.3002   -0.6190 C   0  0  0  0  0  0  0  0  0  0  0  0
   -2.0466   -0.8213    0.0737 C   0  0  0  0  0  0  0  0  0  0  0  0
   -2.3484    0.0687    1.1415 O   0  0  0  0  0  0  0  0  0  0  0  0
   -1.6713    1.1162    0.5480 C   0  0  0  0  0  0  0  0  0  0  0  0
   -1.4675    2.3055    0.8699 O   0  0  0  0  0  0  0  0  0  0  0  0
    2.5642   -0.4417   -0.7252 H   0  0  0  0  0  0  0  0  0  0  0  0
    3.0173    0.1939    0.8831 H   0  0  0  0  0  0  0  0  0  0  0  0
    2.5958   -1.5285    0.7069 H   0  0  0  0  0  0  0  0  0  0  0  0
    0.7914    0.7595    1.1633 H   0  0  0  0  0  0  0  0  0  0  0  0
    0.3751   -0.9730    1.1309 H   0  0  0  0  0  0  0  0  0  0  0  0
    0.2994   -0.8985   -1.3798 H   0  0  0  0  0  0  0  0  0  0  0  0
    1.0816    1.7563   -0.8249 H   0  0  0  0  0  0  0  0  0  0  0  0
   -1.7343    0.5977   -1.5781 H   0  0  0  0  0  0  0  0  0  0  0  0
   -2.9280   -1.1721   -0.5030 H   0  0  0  0  0  0  0  0  0  0  0  0
   -1.4197   -1.6532    0.4407 H   0  0  0  0  0  0  0  0  0  0  0  0
  1  2  1  0
  2  3  1  0
  3  4  1  0
  3  5  1  0
  5  6  1  0
  6  7  1  0
  7  8  1  0
  8  9  2  0
  8  5  1  0
  1 10  1  0
  1 11  1  0
  1 12  1  0
  2 13  1  0
  2 14  1  0
  3 15  1  0
  4 16  1  0
  5 17  1  0
  6 18  1  0
  6 19  1  0
M  END
