
     RDKit          3D

 23 22  0  0  0  0  0  0  0  0999 V2000
    2.8718   -0.4517   -0.1994 C   0  0  0  0  0  0  0  0  0  0  0  0
    1.5791   -0.6088    0.5308 C   0  0  0  0  0  0  0  0  0  0  0  0
    0.5383    0.4040    0.1085 C   0  0  0  0  0  0  0  0  0  0  0  0
    0.9697    1.8177    0.3432 C   0  0  0  0  0  0  0  0  0  0  0  0
   -0.6535    0.2055    0.8045 O   0  0  0  0  0  0  0  0  0  0  0  0
   -1.6912   -0.1748   -0.0308 C   0  0  0  0  0  0  0  0  0  0  0  0
   -2.1489   -1.5487    0.3811 C   0  0  0  0  0  0  0  0  0  0  0  0
   -2.8396    0.7580    0.0313 C   0  0  0  0  0  0  0  0  0  0  0  0
   -2.8589    1.7424    0.7383 O   0  0  0  0  0  0  0  0  0  0  0  0
    3.1275    0.6062   -0.4186 H   0  0  0  0  0  0  0  0  0  0  0  0
    2.8744   -1.0247   -1.1730 H   0  0  0  0  0  0  0  0  0  0  0  0
    3.7264   -0.8561    0.3827 H   0  0  0  0  0  0  0  0  0  0  0  0
    1.7964   -0.5081    1.6261 H   0  0  0  0  0  0  0  0  0  0  0  0
    1.1988   -1.6380    0.3686 H   0  0  0  0  0  0  0  0  0  0  0  0
    0.3318    0.1956   -0.9795 H   0  0  0  0  0  0  0  0  0  0  0  0
    1.2747    1.9267    1.3801 H   0  0  0  0  0  0  0  0  0  0  0  0
    0.0508    2.4536    0.1951 H   0  0  0  0  0  0  0  0  0  0  0  0
    1.7028    2.1885   -0.3946 H   0  0  0  0  0  0  0  0  0  0  0  0
   -1.3605   -0.2454   -1.0963 H   0  0  0  0  0  0  0  0  0  0  0  0
   -3.1782   -1.5060    0.8343 H   0  0  0  0  0  0  0  0  0  0  0  0
   -1.4933   -1.9952    1.1795 H   0  0  0  0  0  0  0  0  0  0  0  0
   -2.1188   -2.2857   -0.4546 H   0  0  0  0  0  0  0  0  0  0  0  0
   -3.6997    0.5450   -0.5865 H   0  0  0  0  0  0  0  0  0  0  0  0
  1  2  1  0
  2  3  1  0
  3  4  1  0
  3  5  1  0
  5  6  1  0
  6  7  1  0
  6  8  1  0
  8  9  2  0
  1 10  1  0
  1 11  1  0
  1 12  1  0
  2 13  1  0
  2 14  1  0
  3 15  1  0
  4 16  1  0
  4 17  1  0
  4 18  1  0
  6 19  1  0
  7 20  1  0
  7 21  1  0
  7 22  1  0
  8 23  1  0
M  END
