
     RDKit          3D

 20 20  0  0  0  0  0  0  0  0999 V2000
    1.6313    1.0856    0.0281 C   0  0  0  0  0  0  0  0  0  0  0  0
    1.3254   -0.2890   -0.4601 C   0  0  0  0  0  0  0  0  0  0  0  0
    0.3578   -1.0031    0.3947 C   0  0  0  0  0  0  0  0  0  0  0  0
    0.2062   -2.3104   -0.1830 O   0  0  0  0  0  0  0  0  0  0  0  0
   -1.0144   -0.5010    0.5254 C   0  0  0  0  0  0  0  0  0  0  0  0
   -1.3299    0.8491    1.0680 C   0  0  0  0  0  0  0  0  0  0  0  0
   -2.5367    0.7455    0.2963 O   0  0  0  0  0  0  0  0  0  0  0  0
   -1.6668    0.1631   -0.6708 C   0  0  0  0  0  0  0  0  0  0  0  0
    1.4170    1.1965    1.0986 H   0  0  0  0  0  0  0  0  0  0  0  0
    1.1515    1.9046   -0.5336 H   0  0  0  0  0  0  0  0  0  0  0  0
    2.7345    1.2925   -0.0936 H   0  0  0  0  0  0  0  0  0  0  0  0
    1.0205   -0.3077   -1.5333 H   0  0  0  0  0  0  0  0  0  0  0  0
    2.2988   -0.8705   -0.4369 H   0  0  0  0  0  0  0  0  0  0  0  0
    0.7578   -1.2192    1.4096 H   0  0  0  0  0  0  0  0  0  0  0  0
    0.9983   -2.5484   -0.6971 H   0  0  0  0  0  0  0  0  0  0  0  0
   -1.7424   -1.2749    0.9078 H   0  0  0  0  0  0  0  0  0  0  0  0
   -1.5412    0.9039    2.1551 H   0  0  0  0  0  0  0  0  0  0  0  0
   -0.7993    1.7078    0.6807 H   0  0  0  0  0  0  0  0  0  0  0  0
   -2.1573   -0.4898   -1.3879 H   0  0  0  0  0  0  0  0  0  0  0  0
   -1.1112    0.9654   -1.1502 H   0  0  0  0  0  0  0  0  0  0  0  0
  1  2  1  0
  2  3  1  0
  3  4  1  0
  3  5  1  0
  5  6  1  0
  6  7  1  0
  7  8  1  0
  8  5  1  0
  1  9  1  0
  1 10  1  0
  1 11  1  0
  2 12  1  0
  2 13  1  0
  3 14  1  0
  4 15  1  0
  5 16  1  0
  6 17  1  0
  6 18  1  0
  8 19  1  0
  8 20  1  0
M  END
