
     RDKit          3D

 24 23  0  0  0  0  0  0  0  0999 V2000
   -2.5996   -0.5731   -0.2745 C   0  0  0  0  0  0  0  0  0  0  0  0
   -1.2230   -1.0509    0.1463 C   0  0  0  0  0  0  0  0  0  0  0  0
   -0.1740   -0.0001   -0.0087 C   0  0  0  0  0  0  0  0  0  0  0  0
   -0.5261    1.2027    0.8457 C   0  0  0  0  0  0  0  0  0  0  0  0
    0.0188    0.4861   -1.4047 C   0  0  0  0  0  0  0  0  0  0  0  0
    1.1306   -0.5826    0.4993 C   0  0  0  0  0  0  0  0  0  0  0  0
    2.2712    0.4059    0.3881 C   0  0  0  0  0  0  0  0  0  0  0  0
    3.4151   -0.2276    0.8794 O   0  0  0  0  0  0  0  0  0  0  0  0
   -2.5991   -0.1242   -1.2727 H   0  0  0  0  0  0  0  0  0  0  0  0
   -3.3254   -1.4114   -0.3005 H   0  0  0  0  0  0  0  0  0  0  0  0
   -2.9547    0.1514    0.4969 H   0  0  0  0  0  0  0  0  0  0  0  0
   -1.2491   -1.3774    1.2059 H   0  0  0  0  0  0  0  0  0  0  0  0
   -1.0123   -1.9625   -0.4506 H   0  0  0  0  0  0  0  0  0  0  0  0
   -1.4919    1.5929    0.4060 H   0  0  0  0  0  0  0  0  0  0  0  0
   -0.6943    0.8650    1.8936 H   0  0  0  0  0  0  0  0  0  0  0  0
    0.1974    2.0181    0.7631 H   0  0  0  0  0  0  0  0  0  0  0  0
    0.6086   -0.2642   -1.9658 H   0  0  0  0  0  0  0  0  0  0  0  0
    0.6369    1.4300   -1.3390 H   0  0  0  0  0  0  0  0  0  0  0  0
   -0.8964    0.7750   -1.9327 H   0  0  0  0  0  0  0  0  0  0  0  0
    1.3875   -1.5112   -0.0446 H   0  0  0  0  0  0  0  0  0  0  0  0
    1.0025   -0.8133    1.5683 H   0  0  0  0  0  0  0  0  0  0  0  0
    2.4320    0.7379   -0.6646 H   0  0  0  0  0  0  0  0  0  0  0  0
    2.0810    1.2818    1.0414 H   0  0  0  0  0  0  0  0  0  0  0  0
    3.5645   -1.0486    0.3116 H   0  0  0  0  0  0  0  0  0  0  0  0
  1  2  1  0
  2  3  1  0
  3  4  1  0
  3  5  1  0
  3  6  1  0
  6  7  1  0
  7  8  1  0
  1  9  1  0
  1 10  1  0
  1 11  1  0
  2 12  1  0
  2 13  1  0
  4 14  1  0
  4 15  1  0
  4 16  1  0
  5 17  1  0
  5 18  1  0
  5 19  1  0
  6 20  1  0
  6 21  1  0
  7 22  1  0
  7 23  1  0
  8 24  1  0
M  END
