
     RDKit          3D

 23 22  0  0  0  0  0  0  0  0999 V2000
   -1.9530    1.0949    0.5159 C   0  0  0  0  0  0  0  0  0  0  0  0
   -1.3972   -0.2958    0.6881 C   0  0  0  0  0  0  0  0  0  0  0  0
   -0.3817   -0.5695   -0.3884 C   0  0  0  0  0  0  0  0  0  0  0  0
    0.2080   -1.9465   -0.2661 C   0  0  0  0  0  0  0  0  0  0  0  0
   -1.0323   -0.5159   -1.6335 O   0  0  0  0  0  0  0  0  0  0  0  0
    0.7215    0.4407   -0.4211 C   0  0  0  0  0  0  0  0  0  0  0  0
    1.5808    0.0724   -1.4780 O   0  0  0  0  0  0  0  0  0  0  0  0
    1.5206    0.4912    0.8463 C   0  0  0  0  0  0  0  0  0  0  0  0
    2.5345    1.4376    0.6876 O   0  0  0  0  0  0  0  0  0  0  0  0
   -2.0251    1.2953   -0.5658 H   0  0  0  0  0  0  0  0  0  0  0  0
   -1.2584    1.8246    0.9941 H   0  0  0  0  0  0  0  0  0  0  0  0
   -2.9739    1.1588    0.9602 H   0  0  0  0  0  0  0  0  0  0  0  0
   -2.2476   -1.0147    0.5188 H   0  0  0  0  0  0  0  0  0  0  0  0
   -1.0139   -0.4926    1.6964 H   0  0  0  0  0  0  0  0  0  0  0  0
   -0.6627   -2.6642   -0.3096 H   0  0  0  0  0  0  0  0  0  0  0  0
    0.8502   -2.0937   -1.1834 H   0  0  0  0  0  0  0  0  0  0  0  0
    0.7851   -2.0995    0.6508 H   0  0  0  0  0  0  0  0  0  0  0  0
   -0.8597    0.3163   -2.1103 H   0  0  0  0  0  0  0  0  0  0  0  0
    0.3637    1.4670   -0.6422 H   0  0  0  0  0  0  0  0  0  0  0  0
    2.2339   -0.5568   -1.0667 H   0  0  0  0  0  0  0  0  0  0  0  0
    1.9849   -0.4983    1.0701 H   0  0  0  0  0  0  0  0  0  0  0  0
    0.8130    0.7848    1.6754 H   0  0  0  0  0  0  0  0  0  0  0  0
    2.2093    2.3642    0.8577 H   0  0  0  0  0  0  0  0  0  0  0  0
  1  2  1  0
  2  3  1  0
  3  4  1  0
  3  5  1  0
  3  6  1  0
  6  7  1  0
  6  8  1  0
  8  9  1  0
  1 10  1  0
  1 11  1  0
  1 12  1  0
  2 13  1  0
  2 14  1  0
  4 15  1  0
  4 16  1  0
  4 17  1  0
  5 18  1  0
  6 19  1  0
  7 20  1  0
  8 21  1  0
  8 22  1  0
  9 23  1  0
M  END
