
     RDKit          3D

 21 21  0  0  0  0  0  0  0  0999 V2000
    2.7236   -0.8504    0.6028 C   0  0  0  0  0  0  0  0  0  0  0  0
    1.6354    0.1980    0.5848 C   0  0  0  0  0  0  0  0  0  0  0  0
    0.5509   -0.1915   -0.3508 C   0  0  0  0  0  0  0  0  0  0  0  0
    0.6388   -1.2258   -0.9565 O   0  0  0  0  0  0  0  0  0  0  0  0
   -0.6096    0.6813   -0.5272 C   0  0  0  0  0  0  0  0  0  0  0  0
   -0.6456    1.9594    0.2674 C   0  0  0  0  0  0  0  0  0  0  0  0
   -1.2147    0.6292   -1.7764 O   0  0  0  0  0  0  0  0  0  0  0  0
   -1.9840    0.0729   -0.7886 C   0  0  0  0  0  0  0  0  0  0  0  0
   -2.1073   -1.3960   -0.5993 C   0  0  0  0  0  0  0  0  0  0  0  0
    3.4860   -0.6005   -0.1890 H   0  0  0  0  0  0  0  0  0  0  0  0
    2.3061   -1.8375    0.3341 H   0  0  0  0  0  0  0  0  0  0  0  0
    3.2102   -0.9558    1.5789 H   0  0  0  0  0  0  0  0  0  0  0  0
    1.1832    0.2486    1.6015 H   0  0  0  0  0  0  0  0  0  0  0  0
    2.0955    1.1787    0.3193 H   0  0  0  0  0  0  0  0  0  0  0  0
   -1.0795    2.8017   -0.2759 H   0  0  0  0  0  0  0  0  0  0  0  0
    0.3736    2.2309    0.6192 H   0  0  0  0  0  0  0  0  0  0  0  0
   -1.2380    1.7298    1.2000 H   0  0  0  0  0  0  0  0  0  0  0  0
   -2.8725    0.6615   -0.5025 H   0  0  0  0  0  0  0  0  0  0  0  0
   -3.1831   -1.6831   -0.6709 H   0  0  0  0  0  0  0  0  0  0  0  0
   -1.7333   -1.6342    0.4382 H   0  0  0  0  0  0  0  0  0  0  0  0
   -1.5356   -2.0169   -1.2881 H   0  0  0  0  0  0  0  0  0  0  0  0
  1  2  1  0
  2  3  1  0
  3  4  2  0
  3  5  1  0
  5  6  1  0
  5  7  1  0
  7  8  1  0
  8  9  1  0
  8  5  1  0
  1 10  1  0
  1 11  1  0
  1 12  1  0
  2 13  1  0
  2 14  1  0
  6 15  1  0
  6 16  1  0
  6 17  1  0
  8 18  1  0
  9 19  1  0
  9 20  1  0
  9 21  1  0
M  END
