
     RDKit          3D

 18 18  0  0  0  0  0  0  0  0999 V2000
   -2.7320    0.1095   -0.2992 C   0  0  0  0  0  0  0  0  0  0  0  0
   -1.4681   -0.4265    0.2923 C   0  0  0  0  0  0  0  0  0  0  0  0
   -0.3902    0.5619    0.0580 C   0  0  0  0  0  0  0  0  0  0  0  0
   -0.6219    1.5847   -0.5231 O   0  0  0  0  0  0  0  0  0  0  0  0
    0.9795    0.2329    0.5704 C   0  0  0  0  0  0  0  0  0  0  0  0
    1.6265   -0.7642   -0.3492 C   0  0  0  0  0  0  0  0  0  0  0  0
    2.5084    0.4043   -0.6445 C   0  0  0  0  0  0  0  0  0  0  0  0
    1.9221    1.2013    0.3121 O   0  0  0  0  0  0  0  0  0  0  0  0
   -2.6988    0.0167   -1.4023 H   0  0  0  0  0  0  0  0  0  0  0  0
   -3.5839   -0.4076    0.1579 H   0  0  0  0  0  0  0  0  0  0  0  0
   -2.8255    1.1848   -0.0496 H   0  0  0  0  0  0  0  0  0  0  0  0
   -1.6556   -0.5679    1.3940 H   0  0  0  0  0  0  0  0  0  0  0  0
   -1.1893   -1.4238   -0.0897 H   0  0  0  0  0  0  0  0  0  0  0  0
    0.9527   -0.0433    1.6284 H   0  0  0  0  0  0  0  0  0  0  0  0
    2.0771   -1.5850    0.2332 H   0  0  0  0  0  0  0  0  0  0  0  0
    1.0420   -1.0529   -1.2399 H   0  0  0  0  0  0  0  0  0  0  0  0
    3.5764    0.1945   -0.3643 H   0  0  0  0  0  0  0  0  0  0  0  0
    2.4806    0.7807   -1.6895 H   0  0  0  0  0  0  0  0  0  0  0  0
  1  2  1  0
  2  3  1  0
  3  4  2  0
  3  5  1  0
  5  6  1  0
  6  7  1  0
  7  8  1  0
  8  5  1  0
  1  9  1  0
  1 10  1  0
  1 11  1  0
  2 12  1  0
  2 13  1  0
  5 14  1  0
  6 15  1  0
  6 16  1  0
  7 17  1  0
  7 18  1  0
M  END
