
     RDKit          3D

 27 27  0  0  0  0  0  0  0  0999 V2000
   -2.6466   -1.4266   -0.4098 C   0  0  0  0  0  0  0  0  0  0  0  0
   -1.3642   -1.3524    0.3655 C   0  0  0  0  0  0  0  0  0  0  0  0
   -0.5411   -0.1761   -0.1892 C   0  0  0  0  0  0  0  0  0  0  0  0
   -1.4230    1.0229    0.0301 C   0  0  0  0  0  0  0  0  0  0  0  0
   -0.8645    2.3237   -0.4243 C   0  0  0  0  0  0  0  0  0  0  0  0
    0.7930   -0.0897    0.4817 C   0  0  0  0  0  0  0  0  0  0  0  0
    1.7252    0.9807    0.0729 C   0  0  0  0  0  0  0  0  0  0  0  0
    2.0165   -0.4837   -0.2256 C   0  0  0  0  0  0  0  0  0  0  0  0
    3.2185   -1.0224    0.5065 C   0  0  0  0  0  0  0  0  0  0  0  0
   -2.5341   -0.9956   -1.4320 H   0  0  0  0  0  0  0  0  0  0  0  0
   -3.5041   -0.9349    0.1225 H   0  0  0  0  0  0  0  0  0  0  0  0
   -2.8739   -2.5094   -0.5751 H   0  0  0  0  0  0  0  0  0  0  0  0
   -1.5887   -1.1513    1.4495 H   0  0  0  0  0  0  0  0  0  0  0  0
   -0.8163   -2.2922    0.3254 H   0  0  0  0  0  0  0  0  0  0  0  0
   -0.3997   -0.3374   -1.2663 H   0  0  0  0  0  0  0  0  0  0  0  0
   -2.3596    0.8314   -0.5414 H   0  0  0  0  0  0  0  0  0  0  0  0
   -1.7202    1.1206    1.0900 H   0  0  0  0  0  0  0  0  0  0  0  0
   -1.7333    3.0496   -0.4300 H   0  0  0  0  0  0  0  0  0  0  0  0
   -0.1245    2.7810    0.2411 H   0  0  0  0  0  0  0  0  0  0  0  0
   -0.5579    2.2820   -1.4962 H   0  0  0  0  0  0  0  0  0  0  0  0
    0.7591   -0.3212    1.5820 H   0  0  0  0  0  0  0  0  0  0  0  0
    2.3169    1.4788    0.8791 H   0  0  0  0  0  0  0  0  0  0  0  0
    1.6311    1.5709   -0.8441 H   0  0  0  0  0  0  0  0  0  0  0  0
    1.9087   -0.8628   -1.2456 H   0  0  0  0  0  0  0  0  0  0  0  0
    4.1141   -0.8526   -0.1516 H   0  0  0  0  0  0  0  0  0  0  0  0
    3.4220   -0.5231    1.4600 H   0  0  0  0  0  0  0  0  0  0  0  0
    3.1464   -2.1103    0.6966 H   0  0  0  0  0  0  0  0  0  0  0  0
  1  2  1  0
  2  3  1  0
  3  4  1  0
  4  5  1  0
  3  6  1  0
  6  7  1  0
  7  8  1  0
  8  9  1  0
  8  6  1  0
  1 10  1  0
  1 11  1  0
  1 12  1  0
  2 13  1  0
  2 14  1  0
  3 15  1  0
  4 16  1  0
  4 17  1  0
  5 18  1  0
  5 19  1  0
  5 20  1  0
  6 21  1  0
  7 22  1  0
  7 23  1  0
  8 24  1  0
  9 25  1  0
  9 26  1  0
  9 27  1  0
M  END
