
     RDKit          3D

 25 25  0  0  0  0  0  0  0  0999 V2000
   -2.5088    0.7552   -0.6306 C   0  0  0  0  0  0  0  0  0  0  0  0
   -1.1200    1.0477   -0.1511 C   0  0  0  0  0  0  0  0  0  0  0  0
   -0.2943   -0.1834    0.0788 C   0  0  0  0  0  0  0  0  0  0  0  0
   -0.1539   -0.9788   -1.1940 C   0  0  0  0  0  0  0  0  0  0  0  0
   -0.9821   -1.0852    1.0922 C   0  0  0  0  0  0  0  0  0  0  0  0
    1.0376    0.2599    0.6269 C   0  0  0  0  0  0  0  0  0  0  0  0
    1.8951    1.1619   -0.1675 C   0  0  0  0  0  0  0  0  0  0  0  0
    2.3126   -0.2616    0.1053 C   0  0  0  0  0  0  0  0  0  0  0  0
    3.4107   -0.3665    0.9570 O   0  0  0  0  0  0  0  0  0  0  0  0
   -2.5689    0.1438   -1.5276 H   0  0  0  0  0  0  0  0  0  0  0  0
   -2.9715    1.7477   -0.8924 H   0  0  0  0  0  0  0  0  0  0  0  0
   -3.1359    0.3339    0.1732 H   0  0  0  0  0  0  0  0  0  0  0  0
   -0.5988    1.6713   -0.9040 H   0  0  0  0  0  0  0  0  0  0  0  0
   -1.1903    1.5915    0.8084 H   0  0  0  0  0  0  0  0  0  0  0  0
   -1.1550   -1.3260   -1.4962 H   0  0  0  0  0  0  0  0  0  0  0  0
    0.2814   -0.3988   -2.0285 H   0  0  0  0  0  0  0  0  0  0  0  0
    0.4582   -1.8826   -1.0210 H   0  0  0  0  0  0  0  0  0  0  0  0
   -2.0391   -1.2656    0.8048 H   0  0  0  0  0  0  0  0  0  0  0  0
   -0.9339   -0.6520    2.1150 H   0  0  0  0  0  0  0  0  0  0  0  0
   -0.4807   -2.0711    1.1517 H   0  0  0  0  0  0  0  0  0  0  0  0
    1.0122    0.4660    1.7189 H   0  0  0  0  0  0  0  0  0  0  0  0
    1.7034    1.3699   -1.2426 H   0  0  0  0  0  0  0  0  0  0  0  0
    2.4171    1.9947    0.3470 H   0  0  0  0  0  0  0  0  0  0  0  0
    2.2737   -1.0054   -0.7114 H   0  0  0  0  0  0  0  0  0  0  0  0
    3.3312   -1.0663    1.6240 H   0  0  0  0  0  0  0  0  0  0  0  0
  1  2  1  0
  2  3  1  0
  3  4  1  0
  3  5  1  0
  3  6  1  0
  6  7  1  0
  7  8  1  0
  8  9  1  0
  8  6  1  0
  1 10  1  0
  1 11  1  0
  1 12  1  0
  2 13  1  0
  2 14  1  0
  4 15  1  0
  4 16  1  0
  4 17  1  0
  5 18  1  0
  5 19  1  0
  5 20  1  0
  6 21  1  0
  7 22  1  0
  7 23  1  0
  8 24  1  0
  9 25  1  0
M  END
