
     RDKit          3D

 27 26  0  0  0  0  0  0  0  0999 V2000
    1.9929    1.3699    0.6883 C   0  0  0  0  0  0  0  0  0  0  0  0
    1.4099    0.9484   -0.6006 C   0  0  0  0  0  0  0  0  0  0  0  0
    0.5622   -0.2876   -0.5569 C   0  0  0  0  0  0  0  0  0  0  0  0
    1.3308   -1.4982   -0.0723 C   0  0  0  0  0  0  0  0  0  0  0  0
   -0.7568   -0.1288    0.1104 C   0  0  0  0  0  0  0  0  0  0  0  0
   -1.4414   -1.5078    0.0349 C   0  0  0  0  0  0  0  0  0  0  0  0
   -0.6991    0.2227    1.5590 C   0  0  0  0  0  0  0  0  0  0  0  0
   -1.6465    0.7890   -0.6893 C   0  0  0  0  0  0  0  0  0  0  0  0
   -1.7996    0.1923   -1.9425 O   0  0  0  0  0  0  0  0  0  0  0  0
    1.5629    2.3512    1.0480 H   0  0  0  0  0  0  0  0  0  0  0  0
    1.9458    0.6013    1.5000 H   0  0  0  0  0  0  0  0  0  0  0  0
    3.0736    1.5819    0.5529 H   0  0  0  0  0  0  0  0  0  0  0  0
    0.7933    1.7730   -1.0061 H   0  0  0  0  0  0  0  0  0  0  0  0
    2.2110    0.7689   -1.3386 H   0  0  0  0  0  0  0  0  0  0  0  0
    0.3388   -0.5235   -1.6428 H   0  0  0  0  0  0  0  0  0  0  0  0
    2.0871   -1.7580   -0.8576 H   0  0  0  0  0  0  0  0  0  0  0  0
    0.6099   -2.3517   -0.0707 H   0  0  0  0  0  0  0  0  0  0  0  0
    1.7928   -1.3493    0.9164 H   0  0  0  0  0  0  0  0  0  0  0  0
   -1.2072   -1.9802   -0.9326 H   0  0  0  0  0  0  0  0  0  0  0  0
   -2.5475   -1.3507    0.0559 H   0  0  0  0  0  0  0  0  0  0  0  0
   -1.1641   -2.1066    0.9106 H   0  0  0  0  0  0  0  0  0  0  0  0
   -0.4319    1.2490    1.7897 H   0  0  0  0  0  0  0  0  0  0  0  0
   -1.7459    0.0777    1.9626 H   0  0  0  0  0  0  0  0  0  0  0  0
   -0.0879   -0.5275    2.0834 H   0  0  0  0  0  0  0  0  0  0  0  0
   -2.6333    0.8404   -0.1475 H   0  0  0  0  0  0  0  0  0  0  0  0
   -1.2669    1.8033   -0.7878 H   0  0  0  0  0  0  0  0  0  0  0  0
   -2.2829    0.8008   -2.5667 H   0  0  0  0  0  0  0  0  0  0  0  0
  1  2  1  0
  2  3  1  0
  3  4  1  0
  3  5  1  0
  5  6  1  0
  5  7  1  0
  5  8  1  0
  8  9  1  0
  1 10  1  0
  1 11  1  0
  1 12  1  0
  2 13  1  0
  2 14  1  0
  3 15  1  0
  4 16  1  0
  4 17  1  0
  4 18  1  0
  6 19  1  0
  6 20  1  0
  6 21  1  0
  7 22  1  0
  7 23  1  0
  7 24  1  0
  8 25  1  0
  8 26  1  0
  9 27  1  0
M  END
