
     RDKit          3D

 24 23  0  0  0  0  0  0  0  0999 V2000
   -1.0645    1.9275   -0.8353 C   0  0  0  0  0  0  0  0  0  0  0  0
   -0.5446    1.2071    0.3807 C   0  0  0  0  0  0  0  0  0  0  0  0
   -0.4357   -0.2791    0.1885 C   0  0  0  0  0  0  0  0  0  0  0  0
   -1.8099   -0.8836   -0.1361 C   0  0  0  0  0  0  0  0  0  0  0  0
    0.0873   -0.9057    1.4386 C   0  0  0  0  0  0  0  0  0  0  0  0
    0.4618   -0.5677   -0.9802 C   0  0  0  0  0  0  0  0  0  0  0  0
    1.7156   -0.1101   -0.9501 O   0  0  0  0  0  0  0  0  0  0  0  0
    2.6278   -0.4560   -0.0340 C   0  0  0  0  0  0  0  0  0  0  0  0
   -2.0611    1.6104   -1.1543 H   0  0  0  0  0  0  0  0  0  0  0  0
   -0.3155    1.9278   -1.6737 H   0  0  0  0  0  0  0  0  0  0  0  0
   -1.1592    3.0048   -0.5366 H   0  0  0  0  0  0  0  0  0  0  0  0
    0.4622    1.6133    0.6013 H   0  0  0  0  0  0  0  0  0  0  0  0
   -1.2255    1.4255    1.2175 H   0  0  0  0  0  0  0  0  0  0  0  0
   -2.2826   -0.4108   -0.9910 H   0  0  0  0  0  0  0  0  0  0  0  0
   -1.6558   -1.9575   -0.3760 H   0  0  0  0  0  0  0  0  0  0  0  0
   -2.4179   -0.8001    0.7720 H   0  0  0  0  0  0  0  0  0  0  0  0
    0.4217   -0.1011    2.1585 H   0  0  0  0  0  0  0  0  0  0  0  0
    0.8134   -1.7144    1.3058 H   0  0  0  0  0  0  0  0  0  0  0  0
   -0.8344   -1.3190    1.9858 H   0  0  0  0  0  0  0  0  0  0  0  0
    0.3983   -1.6631   -1.2678 H   0  0  0  0  0  0  0  0  0  0  0  0
   -0.0401   -0.0822   -1.8911 H   0  0  0  0  0  0  0  0  0  0  0  0
    3.6048    0.0867   -0.3078 H   0  0  0  0  0  0  0  0  0  0  0  0
    2.4129   -0.0221    0.9726 H   0  0  0  0  0  0  0  0  0  0  0  0
    2.8410   -1.5304    0.1128 H   0  0  0  0  0  0  0  0  0  0  0  0
  1  2  1  0
  2  3  1  0
  3  4  1  0
  3  5  1  0
  3  6  1  0
  6  7  1  0
  7  8  1  0
  1  9  1  0
  1 10  1  0
  1 11  1  0
  2 12  1  0
  2 13  1  0
  4 14  1  0
  4 15  1  0
  4 16  1  0
  5 17  1  0
  5 18  1  0
  5 19  1  0
  6 20  1  0
  6 21  1  0
  8 22  1  0
  8 23  1  0
  8 24  1  0
M  END
