
     RDKit          3D

 21 20  0  0  0  0  0  0  0  0999 V2000
    2.0852   -0.8596    0.2623 C   0  0  0  0  0  0  0  0  0  0  0  0
    1.4415    0.3293   -0.3741 C   0  0  0  0  0  0  0  0  0  0  0  0
   -0.0294    0.4631    0.0159 C   0  0  0  0  0  0  0  0  0  0  0  0
   -0.1230    0.6074    1.4654 C   0  0  0  0  0  0  0  0  0  0  0  0
    0.4697    1.5113    2.0101 O   0  0  0  0  0  0  0  0  0  0  0  0
   -0.5194    1.7049   -0.6152 C   0  0  0  0  0  0  0  0  0  0  0  0
    0.2303    2.6373   -0.7671 O   0  0  0  0  0  0  0  0  0  0  0  0
   -0.7191   -0.7672   -0.5180 C   0  0  0  0  0  0  0  0  0  0  0  0
   -2.1977   -0.7524   -0.1924 C   0  0  0  0  0  0  0  0  0  0  0  0
    1.7858   -0.8830    1.3362 H   0  0  0  0  0  0  0  0  0  0  0  0
    3.1913   -0.7346    0.1576 H   0  0  0  0  0  0  0  0  0  0  0  0
    1.7748   -1.7706   -0.2886 H   0  0  0  0  0  0  0  0  0  0  0  0
    1.4549    0.2941   -1.4853 H   0  0  0  0  0  0  0  0  0  0  0  0
    1.9466    1.2419    0.0134 H   0  0  0  0  0  0  0  0  0  0  0  0
   -0.7041   -0.0666    2.0668 H   0  0  0  0  0  0  0  0  0  0  0  0
   -1.5370    1.7813   -0.9384 H   0  0  0  0  0  0  0  0  0  0  0  0
   -0.2520   -1.6521   -0.0845 H   0  0  0  0  0  0  0  0  0  0  0  0
   -0.5682   -0.7777   -1.6095 H   0  0  0  0  0  0  0  0  0  0  0  0
   -2.5583    0.2674    0.0511 H   0  0  0  0  0  0  0  0  0  0  0  0
   -2.7470   -1.0896   -1.1046 H   0  0  0  0  0  0  0  0  0  0  0  0
   -2.4251   -1.4846    0.5988 H   0  0  0  0  0  0  0  0  0  0  0  0
  1  2  1  0
  2  3  1  0
  3  4  1  0
  4  5  2  0
  3  6  1  0
  6  7  2  0
  3  8  1  0
  8  9  1  0
  1 10  1  0
  1 11  1  0
  1 12  1  0
  2 13  1  0
  2 14  1  0
  4 15  1  0
  6 16  1  0
  8 17  1  0
  8 18  1  0
  9 19  1  0
  9 20  1  0
  9 21  1  0
M  END
