
     RDKit          3D

 21 21  0  0  0  0  0  0  0  0999 V2000
    2.5054   -0.9990    0.0711 C   0  0  0  0  0  0  0  0  0  0  0  0
    1.2742   -0.4159    0.7186 C   0  0  0  0  0  0  0  0  0  0  0  0
    0.3467    0.2201   -0.3183 C   0  0  0  0  0  0  0  0  0  0  0  0
    1.1373    1.2917   -0.9774 C   0  0  0  0  0  0  0  0  0  0  0  0
    1.5848    2.1795   -0.2769 O   0  0  0  0  0  0  0  0  0  0  0  0
   -0.7717    0.8638    0.4313 C   0  0  0  0  0  0  0  0  0  0  0  0
   -1.7039    1.4984   -0.5379 O   0  0  0  0  0  0  0  0  0  0  0  0
   -2.1506    0.4728    0.3487 C   0  0  0  0  0  0  0  0  0  0  0  0
   -2.6422   -0.7950   -0.2862 C   0  0  0  0  0  0  0  0  0  0  0  0
    3.3702   -0.2828    0.1349 H   0  0  0  0  0  0  0  0  0  0  0  0
    2.3696   -1.2338   -0.9968 H   0  0  0  0  0  0  0  0  0  0  0  0
    2.7743   -1.9276    0.6410 H   0  0  0  0  0  0  0  0  0  0  0  0
    1.6178    0.3692    1.4232 H   0  0  0  0  0  0  0  0  0  0  0  0
    0.7186   -1.1584    1.3155 H   0  0  0  0  0  0  0  0  0  0  0  0
   -0.0066   -0.5456   -1.0310 H   0  0  0  0  0  0  0  0  0  0  0  0
    1.3413    1.3360   -2.0341 H   0  0  0  0  0  0  0  0  0  0  0  0
   -0.4693    1.6039    1.1913 H   0  0  0  0  0  0  0  0  0  0  0  0
   -2.8538    0.8932    1.0989 H   0  0  0  0  0  0  0  0  0  0  0  0
   -1.8374   -1.3984   -0.7486 H   0  0  0  0  0  0  0  0  0  0  0  0
   -3.1678   -1.3801    0.5031 H   0  0  0  0  0  0  0  0  0  0  0  0
   -3.4370   -0.5919   -1.0617 H   0  0  0  0  0  0  0  0  0  0  0  0
  1  2  1  0
  2  3  1  0
  3  4  1  0
  4  5  2  0
  3  6  1  0
  6  7  1  0
  7  8  1  0
  8  9  1  0
  8  6  1  0
  1 10  1  0
  1 11  1  0
  1 12  1  0
  2 13  1  0
  2 14  1  0
  3 15  1  0
  4 16  1  0
  6 17  1  0
  8 18  1  0
  9 19  1  0
  9 20  1  0
  9 21  1  0
M  END
