
     RDKit          3D

 27 27  0  0  0  0  0  0  0  0999 V2000
   -2.8256    0.8922    0.3246 C   0  0  0  0  0  0  0  0  0  0  0  0
   -1.3751    1.0880   -0.0348 C   0  0  0  0  0  0  0  0  0  0  0  0
   -0.6161   -0.2107   -0.1111 C   0  0  0  0  0  0  0  0  0  0  0  0
   -1.1852   -1.1501   -1.1476 C   0  0  0  0  0  0  0  0  0  0  0  0
   -0.6457   -0.9459    1.2117 C   0  0  0  0  0  0  0  0  0  0  0  0
    0.7998    0.1200   -0.5386 C   0  0  0  0  0  0  0  0  0  0  0  0
    1.8087   -0.9475   -0.7081 C   0  0  0  0  0  0  0  0  0  0  0  0
    1.9241    0.0800    0.4021 C   0  0  0  0  0  0  0  0  0  0  0  0
    3.0133    1.1371    0.2635 C   0  0  0  0  0  0  0  0  0  0  0  0
   -3.2982    0.1322   -0.3557 H   0  0  0  0  0  0  0  0  0  0  0  0
   -3.3657    1.8320    0.1984 H   0  0  0  0  0  0  0  0  0  0  0  0
   -2.9152    0.5142    1.3432 H   0  0  0  0  0  0  0  0  0  0  0  0
   -0.9139    1.6822    0.7844 H   0  0  0  0  0  0  0  0  0  0  0  0
   -1.2490    1.6255   -0.9910 H   0  0  0  0  0  0  0  0  0  0  0  0
   -1.4260   -0.6672   -2.0946 H   0  0  0  0  0  0  0  0  0  0  0  0
   -2.0130   -1.7703   -0.7407 H   0  0  0  0  0  0  0  0  0  0  0  0
   -0.3605   -1.8882   -1.3692 H   0  0  0  0  0  0  0  0  0  0  0  0
   -0.1873   -1.9455    1.0314 H   0  0  0  0  0  0  0  0  0  0  0  0
   -0.1342   -0.3981    2.0206 H   0  0  0  0  0  0  0  0  0  0  0  0
   -1.6981   -1.1177    1.4755 H   0  0  0  0  0  0  0  0  0  0  0  0
    0.8301    0.9417   -1.3089 H   0  0  0  0  0  0  0  0  0  0  0  0
    2.5689   -0.8344   -1.5118 H   0  0  0  0  0  0  0  0  0  0  0  0
    1.6511   -1.9792   -0.3642 H   0  0  0  0  0  0  0  0  0  0  0  0
    1.8220   -0.2695    1.4565 H   0  0  0  0  0  0  0  0  0  0  0  0
    2.6954    2.0361    0.8063 H   0  0  0  0  0  0  0  0  0  0  0  0
    3.1739    1.2975   -0.8206 H   0  0  0  0  0  0  0  0  0  0  0  0
    3.9214    0.7459    0.7789 H   0  0  0  0  0  0  0  0  0  0  0  0
  1  2  1  0
  2  3  1  0
  3  4  1  0
  3  5  1  0
  3  6  1  0
  6  7  1  0
  7  8  1  0
  8  9  1  0
  8  6  1  0
  1 10  1  0
  1 11  1  0
  1 12  1  0
  2 13  1  0
  2 14  1  0
  4 15  1  0
  4 16  1  0
  4 17  1  0
  5 18  1  0
  5 19  1  0
  5 20  1  0
  6 21  1  0
  7 22  1  0
  7 23  1  0
  8 24  1  0
  9 25  1  0
  9 26  1  0
  9 27  1  0
M  END
