
     RDKit          3D

 19 19  0  0  0  0  0  0  0  0999 V2000
   -1.8030   -0.8743    0.5079 C   0  0  0  0  0  0  0  0  0  0  0  0
   -1.6877    0.4270   -0.2331 C   0  0  0  0  0  0  0  0  0  0  0  0
   -0.2831    0.9927   -0.1869 C   0  0  0  0  0  0  0  0  0  0  0  0
    0.1532    1.2418    1.0882 O   0  0  0  0  0  0  0  0  0  0  0  0
    0.6098    0.1357   -1.0154 C   0  0  0  0  0  0  0  0  0  0  0  0
    1.9339    0.6724   -1.2112 O   0  0  0  0  0  0  0  0  0  0  0  0
    1.7175   -0.6433   -0.5905 C   0  0  0  0  0  0  0  0  0  0  0  0
    2.3035   -0.6760    0.7469 C   0  0  0  0  0  0  0  0  0  0  0  0
    3.1084   -1.5589    1.0813 O   0  0  0  0  0  0  0  0  0  0  0  0
   -2.7172   -1.3961    0.1321 H   0  0  0  0  0  0  0  0  0  0  0  0
   -1.8811   -0.7344    1.6093 H   0  0  0  0  0  0  0  0  0  0  0  0
   -0.9444   -1.5455    0.2520 H   0  0  0  0  0  0  0  0  0  0  0  0
   -1.9481    0.2287   -1.2909 H   0  0  0  0  0  0  0  0  0  0  0  0
   -2.4467    1.1241    0.1551 H   0  0  0  0  0  0  0  0  0  0  0  0
   -0.3511    1.9936   -0.7094 H   0  0  0  0  0  0  0  0  0  0  0  0
   -0.0674    2.1623    1.4050 H   0  0  0  0  0  0  0  0  0  0  0  0
    0.1431   -0.1141   -2.0117 H   0  0  0  0  0  0  0  0  0  0  0  0
    2.0644   -1.4756   -1.2640 H   0  0  0  0  0  0  0  0  0  0  0  0
    2.0960    0.0396    1.5354 H   0  0  0  0  0  0  0  0  0  0  0  0
  1  2  1  0
  2  3  1  0
  3  4  1  0
  3  5  1  0
  5  6  1  0
  6  7  1  0
  7  8  1  0
  8  9  2  0
  7  5  1  0
  1 10  1  0
  1 11  1  0
  1 12  1  0
  2 13  1  0
  2 14  1  0
  3 15  1  0
  4 16  1  0
  5 17  1  0
  7 18  1  0
  8 19  1  0
M  END
