
     RDKit          3D

 17 16  0  0  0  0  0  0  0  0999 V2000
   -2.3726    0.1341   -0.4134 C   0  0  0  0  0  0  0  0  0  0  0  0
   -1.2021    0.0277    0.5490 C   0  0  0  0  0  0  0  0  0  0  0  0
   -0.1063   -0.6424   -0.1653 C   0  0  0  0  0  0  0  0  0  0  0  0
   -0.1153   -1.8504   -0.3460 O   0  0  0  0  0  0  0  0  0  0  0  0
    1.0486    0.1431   -0.6884 C   0  0  0  0  0  0  0  0  0  0  0  0
    2.2614   -0.3729    0.0868 C   0  0  0  0  0  0  0  0  0  0  0  0
    0.8663    1.5014   -0.3801 O   0  0  0  0  0  0  0  0  0  0  0  0
   -2.1274   -0.2522   -1.4201 H   0  0  0  0  0  0  0  0  0  0  0  0
   -2.6616    1.2013   -0.4845 H   0  0  0  0  0  0  0  0  0  0  0  0
   -3.1791   -0.5131   -0.0113 H   0  0  0  0  0  0  0  0  0  0  0  0
   -1.4694   -0.5607    1.4608 H   0  0  0  0  0  0  0  0  0  0  0  0
   -0.8673    1.0423    0.8925 H   0  0  0  0  0  0  0  0  0  0  0  0
    1.1856    0.0083   -1.7877 H   0  0  0  0  0  0  0  0  0  0  0  0
    2.1271   -1.4384    0.3770 H   0  0  0  0  0  0  0  0  0  0  0  0
    2.3413    0.2124    1.0254 H   0  0  0  0  0  0  0  0  0  0  0  0
    3.1401   -0.2947   -0.5664 H   0  0  0  0  0  0  0  0  0  0  0  0
    1.1308    1.6545    0.5753 H   0  0  0  0  0  0  0  0  0  0  0  0
  1  2  1  0
  2  3  1  0
  3  4  2  0
  3  5  1  0
  5  6  1  0
  5  7  1  0
  1  8  1  0
  1  9  1  0
  1 10  1  0
  2 11  1  0
  2 12  1  0
  5 13  1  0
  6 14  1  0
  6 15  1  0
  6 16  1  0
  7 17  1  0
M  END
