
     RDKit          3D

 21 21  0  0  0  0  0  0  0  0999 V2000
    3.1623    0.8034    0.0343 C   0  0  0  0  0  0  0  0  0  0  0  0
    2.1786   -0.2342    0.5236 C   0  0  0  0  0  0  0  0  0  0  0  0
    0.7744    0.2365    0.2903 C   0  0  0  0  0  0  0  0  0  0  0  0
    0.5421    1.4369    0.2868 O   0  0  0  0  0  0  0  0  0  0  0  0
   -0.2418   -0.8097    0.1048 C   0  0  0  0  0  0  0  0  0  0  0  0
   -1.6445   -0.2998   -0.0097 C   0  0  0  0  0  0  0  0  0  0  0  0
   -2.1886    0.4116    1.2088 C   0  0  0  0  0  0  0  0  0  0  0  0
   -2.3760   -0.2240   -1.2213 C   0  0  0  0  0  0  0  0  0  0  0  0
   -2.4833   -1.4767   -0.4033 O   0  0  0  0  0  0  0  0  0  0  0  0
    2.9819    1.7326    0.6282 H   0  0  0  0  0  0  0  0  0  0  0  0
    4.1871    0.4216    0.2505 H   0  0  0  0  0  0  0  0  0  0  0  0
    3.0694    0.9729   -1.0514 H   0  0  0  0  0  0  0  0  0  0  0  0
    2.3431   -1.2038   -0.0010 H   0  0  0  0  0  0  0  0  0  0  0  0
    2.3036   -0.3255    1.6257 H   0  0  0  0  0  0  0  0  0  0  0  0
   -0.0133   -1.3667   -0.8366 H   0  0  0  0  0  0  0  0  0  0  0  0
   -0.1360   -1.5474    0.9388 H   0  0  0  0  0  0  0  0  0  0  0  0
   -1.5156    0.3043    2.0756 H   0  0  0  0  0  0  0  0  0  0  0  0
   -3.1775   -0.0014    1.5221 H   0  0  0  0  0  0  0  0  0  0  0  0
   -2.3585    1.4795    0.9826 H   0  0  0  0  0  0  0  0  0  0  0  0
   -3.4032    0.1976   -1.2130 H   0  0  0  0  0  0  0  0  0  0  0  0
   -2.0044   -0.5077   -2.2261 H   0  0  0  0  0  0  0  0  0  0  0  0
  1  2  1  0
  2  3  1  0
  3  4  2  0
  3  5  1  0
  5  6  1  0
  6  7  1  0
  6  8  1  0
  8  9  1  0
  9  6  1  0
  1 10  1  0
  1 11  1  0
  1 12  1  0
  2 13  1  0
  2 14  1  0
  5 15  1  0
  5 16  1  0
  7 17  1  0
  7 18  1  0
  7 19  1  0
  8 20  1  0
  8 21  1  0
M  END
