
     RDKit          3D

 23 22  0  0  0  0  0  0  0  0999 V2000
   -1.2265    1.6930   -0.4673 C   0  0  0  0  0  0  0  0  0  0  0  0
   -1.3283    0.2187   -0.5354 C   0  0  0  0  0  0  0  0  0  0  0  0
   -0.2619   -0.5943    0.0784 C   0  0  0  0  0  0  0  0  0  0  0  0
   -0.1033   -0.3271    1.5716 C   0  0  0  0  0  0  0  0  0  0  0  0
   -0.7657   -2.0577    0.0384 C   0  0  0  0  0  0  0  0  0  0  0  0
    1.0639   -0.5639   -0.5164 C   0  0  0  0  0  0  0  0  0  0  0  0
    1.4643   -1.6283   -1.0481 O   0  0  0  0  0  0  0  0  0  0  0  0
    2.0333    0.5358   -0.6016 C   0  0  0  0  0  0  0  0  0  0  0  0
    1.6976    1.6879    0.0832 O   0  0  0  0  0  0  0  0  0  0  0  0
   -0.5926    2.0820   -1.2890 H   0  0  0  0  0  0  0  0  0  0  0  0
   -2.2326    2.1919   -0.6793 H   0  0  0  0  0  0  0  0  0  0  0  0
   -0.9250    2.1047    0.4950 H   0  0  0  0  0  0  0  0  0  0  0  0
   -1.4865   -0.1308   -1.5759 H   0  0  0  0  0  0  0  0  0  0  0  0
   -2.2971   -0.0549   -0.0134 H   0  0  0  0  0  0  0  0  0  0  0  0
    0.2770    0.6695    1.7906 H   0  0  0  0  0  0  0  0  0  0  0  0
    0.6311   -1.0812    1.9303 H   0  0  0  0  0  0  0  0  0  0  0  0
   -1.0695   -0.5781    2.0335 H   0  0  0  0  0  0  0  0  0  0  0  0
   -1.3740   -2.2216   -0.8525 H   0  0  0  0  0  0  0  0  0  0  0  0
    0.0871   -2.7578    0.0938 H   0  0  0  0  0  0  0  0  0  0  0  0
   -1.4092   -2.2595    0.9193 H   0  0  0  0  0  0  0  0  0  0  0  0
    2.9945    0.1733   -0.1279 H   0  0  0  0  0  0  0  0  0  0  0  0
    2.3025    0.7344   -1.6625 H   0  0  0  0  0  0  0  0  0  0  0  0
    2.5206    2.1640    0.3351 H   0  0  0  0  0  0  0  0  0  0  0  0
  1  2  1  0
  2  3  1  0
  3  4  1  0
  3  5  1  0
  3  6  1  0
  6  7  2  0
  6  8  1  0
  8  9  1  0
  1 10  1  0
  1 11  1  0
  1 12  1  0
  2 13  1  0
  2 14  1  0
  4 15  1  0
  4 16  1  0
  4 17  1  0
  5 18  1  0
  5 19  1  0
  5 20  1  0
  8 21  1  0
  8 22  1  0
  9 23  1  0
M  END
