
     RDKit          3D

 21 21  0  0  0  0  0  0  0  0999 V2000
    2.2636   -0.8341    0.0829 C   0  0  0  0  0  0  0  0  0  0  0  0
    1.3787   -0.0020    0.9287 C   0  0  0  0  0  0  0  0  0  0  0  0
    0.2142    0.6180    0.2365 C   0  0  0  0  0  0  0  0  0  0  0  0
    0.7042    1.5102   -0.8604 C   0  0  0  0  0  0  0  0  0  0  0  0
    1.3236    2.5242   -0.5328 O   0  0  0  0  0  0  0  0  0  0  0  0
   -0.8554   -0.3175   -0.1983 C   0  0  0  0  0  0  0  0  0  0  0  0
   -0.6010   -1.3456   -1.0872 O   0  0  0  0  0  0  0  0  0  0  0  0
   -2.2036    0.3776   -0.4367 C   0  0  0  0  0  0  0  0  0  0  0  0
   -2.0628   -0.5432    0.7177 C   0  0  0  0  0  0  0  0  0  0  0  0
    1.8859   -1.0595   -0.9269 H   0  0  0  0  0  0  0  0  0  0  0  0
    2.4785   -1.7827    0.6233 H   0  0  0  0  0  0  0  0  0  0  0  0
    3.2781   -0.3634   -0.0804 H   0  0  0  0  0  0  0  0  0  0  0  0
    1.0096   -0.5092    1.8528 H   0  0  0  0  0  0  0  0  0  0  0  0
    1.9977    0.8611    1.3171 H   0  0  0  0  0  0  0  0  0  0  0  0
   -0.2623    1.3180    0.9861 H   0  0  0  0  0  0  0  0  0  0  0  0
    0.5247    1.2795   -1.9026 H   0  0  0  0  0  0  0  0  0  0  0  0
   -1.3928   -1.6028   -1.6228 H   0  0  0  0  0  0  0  0  0  0  0  0
   -2.2849    1.4551   -0.2831 H   0  0  0  0  0  0  0  0  0  0  0  0
   -2.8456   -0.0011   -1.2595 H   0  0  0  0  0  0  0  0  0  0  0  0
   -2.0078   -0.0480    1.7224 H   0  0  0  0  0  0  0  0  0  0  0  0
   -2.5424   -1.5348    0.7233 H   0  0  0  0  0  0  0  0  0  0  0  0
  1  2  1  0
  2  3  1  0
  3  4  1  0
  4  5  2  0
  3  6  1  0
  6  7  1  0
  6  8  1  0
  8  9  1  0
  9  6  1  0
  1 10  1  0
  1 11  1  0
  1 12  1  0
  2 13  1  0
  2 14  1  0
  3 15  1  0
  4 16  1  0
  7 17  1  0
  8 18  1  0
  8 19  1  0
  9 20  1  0
  9 21  1  0
M  END
