
     RDKit          3D

 25 24  0  0  0  0  0  0  0  0999 V2000
   -0.9246   -2.1135    0.7889 C   0  0  0  0  0  0  0  0  0  0  0  0
   -1.0309   -0.6512    0.6782 C   0  0  0  0  0  0  0  0  0  0  0  0
   -0.2808    0.0045   -0.4235 C   0  0  0  0  0  0  0  0  0  0  0  0
   -0.7165   -0.4871   -1.6548 O   0  0  0  0  0  0  0  0  0  0  0  0
   -0.6523    1.4784   -0.4156 C   0  0  0  0  0  0  0  0  0  0  0  0
   -2.1343    1.6589   -0.6284 C   0  0  0  0  0  0  0  0  0  0  0  0
    1.1982   -0.0709   -0.3602 C   0  0  0  0  0  0  0  0  0  0  0  0
    1.7214    0.4028    0.8436 O   0  0  0  0  0  0  0  0  0  0  0  0
    3.1208    0.2480    0.7065 C   0  0  0  0  0  0  0  0  0  0  0  0
   -0.5093   -2.4218    1.7750 H   0  0  0  0  0  0  0  0  0  0  0  0
   -0.3068   -2.6169    0.0262 H   0  0  0  0  0  0  0  0  0  0  0  0
   -1.9295   -2.6294    0.7366 H   0  0  0  0  0  0  0  0  0  0  0  0
   -0.7567   -0.1856    1.6648 H   0  0  0  0  0  0  0  0  0  0  0  0
   -2.1117   -0.3910    0.5439 H   0  0  0  0  0  0  0  0  0  0  0  0
   -0.3305   -1.3738   -1.8223 H   0  0  0  0  0  0  0  0  0  0  0  0
   -0.3946    1.9463    0.5558 H   0  0  0  0  0  0  0  0  0  0  0  0
   -0.1135    1.9916   -1.2382 H   0  0  0  0  0  0  0  0  0  0  0  0
   -2.5482    0.7873   -1.1732 H   0  0  0  0  0  0  0  0  0  0  0  0
   -2.6236    1.6703    0.3615 H   0  0  0  0  0  0  0  0  0  0  0  0
   -2.3743    2.5887   -1.1689 H   0  0  0  0  0  0  0  0  0  0  0  0
    1.6114    0.5940   -1.1485 H   0  0  0  0  0  0  0  0  0  0  0  0
    1.6381   -1.0659   -0.5269 H   0  0  0  0  0  0  0  0  0  0  0  0
    3.3722   -0.8223    0.5432 H   0  0  0  0  0  0  0  0  0  0  0  0
    3.4180    0.7664   -0.2398 H   0  0  0  0  0  0  0  0  0  0  0  0
    3.6581    0.6922    1.5582 H   0  0  0  0  0  0  0  0  0  0  0  0
  1  2  1  0
  2  3  1  0
  3  4  1  0
  3  5  1  0
  5  6  1  0
  3  7  1  0
  7  8  1  0
  8  9  1  0
  1 10  1  0
  1 11  1  0
  1 12  1  0
  2 13  1  0
  2 14  1  0
  4 15  1  0
  5 16  1  0
  5 17  1  0
  6 18  1  0
  6 19  1  0
  6 20  1  0
  7 21  1  0
  7 22  1  0
  9 23  1  0
  9 24  1  0
  9 25  1  0
M  END
