
     RDKit          3D

 19 18  0  0  0  0  0  0  0  0999 V2000
   -1.2039   -1.3155   -1.0463 C   0  0  0  0  0  0  0  0  0  0  0  0
   -1.4578   -0.5655    0.2331 C   0  0  0  0  0  0  0  0  0  0  0  0
   -0.3735    0.4584    0.5047 C   0  0  0  0  0  0  0  0  0  0  0  0
    0.8903   -0.3047    0.6008 C   0  0  0  0  0  0  0  0  0  0  0  0
    1.9157   -0.9389    0.6960 C   0  0  0  0  0  0  0  0  0  0  0  0
    3.1449   -1.6711    0.8046 C   0  0  0  0  0  0  0  0  0  0  0  0
    4.2531   -1.0908    0.6922 O   0  0  0  0  0  0  0  0  0  0  0  0
   -0.3233    1.3598   -0.5397 O   0  0  0  0  0  0  0  0  0  0  0  0
   -0.4812    2.6464   -0.0538 C   0  0  0  0  0  0  0  0  0  0  0  0
   -0.3525   -0.8728   -1.5789 H   0  0  0  0  0  0  0  0  0  0  0  0
   -0.9697   -2.3849   -0.8865 H   0  0  0  0  0  0  0  0  0  0  0  0
   -2.1503   -1.2906   -1.6294 H   0  0  0  0  0  0  0  0  0  0  0  0
   -1.4383   -1.2846    1.0584 H   0  0  0  0  0  0  0  0  0  0  0  0
   -2.4318   -0.0197    0.2270 H   0  0  0  0  0  0  0  0  0  0  0  0
   -0.5250    0.9920    1.4462 H   0  0  0  0  0  0  0  0  0  0  0  0
    3.1571   -2.7360    0.9848 H   0  0  0  0  0  0  0  0  0  0  0  0
   -1.4769    2.7293    0.4648 H   0  0  0  0  0  0  0  0  0  0  0  0
   -0.4878    3.3231   -0.9545 H   0  0  0  0  0  0  0  0  0  0  0  0
    0.3108    2.9660    0.6383 H   0  0  0  0  0  0  0  0  0  0  0  0
  1  2  1  0
  2  3  1  0
  3  4  1  0
  4  5  3  0
  5  6  1  0
  6  7  2  0
  3  8  1  0
  8  9  1  0
  1 10  1  0
  1 11  1  0
  1 12  1  0
  2 13  1  0
  2 14  1  0
  3 15  1  0
  6 16  1  0
  9 17  1  0
  9 18  1  0
  9 19  1  0
M  END
