
     RDKit          3D

 23 23  0  0  0  0  0  0  0  0999 V2000
   -1.5299    1.4653    1.0613 C   0  0  0  0  0  0  0  0  0  0  0  0
   -1.8029    0.2271    0.2714 C   0  0  0  0  0  0  0  0  0  0  0  0
   -0.6509   -0.1484   -0.6528 C   0  0  0  0  0  0  0  0  0  0  0  0
   -1.1102   -1.4258   -1.3693 C   0  0  0  0  0  0  0  0  0  0  0  0
   -1.3533   -2.3697   -0.3717 O   0  0  0  0  0  0  0  0  0  0  0  0
    0.4811   -0.4604    0.0434 O   0  0  0  0  0  0  0  0  0  0  0  0
    1.5839    0.2932   -0.2285 C   0  0  0  0  0  0  0  0  0  0  0  0
    2.3433    0.7343    1.0422 C   0  0  0  0  0  0  0  0  0  0  0  0
    2.9674   -0.1644   -0.0128 C   0  0  0  0  0  0  0  0  0  0  0  0
   -2.2904    2.2589    0.8319 H   0  0  0  0  0  0  0  0  0  0  0  0
   -0.5260    1.8913    0.9189 H   0  0  0  0  0  0  0  0  0  0  0  0
   -1.7140    1.2216    2.1481 H   0  0  0  0  0  0  0  0  0  0  0  0
   -2.7000    0.3667   -0.3809 H   0  0  0  0  0  0  0  0  0  0  0  0
   -1.9955   -0.6603    0.9053 H   0  0  0  0  0  0  0  0  0  0  0  0
   -0.5397    0.6901   -1.3653 H   0  0  0  0  0  0  0  0  0  0  0  0
   -0.3097   -1.8411   -2.0080 H   0  0  0  0  0  0  0  0  0  0  0  0
   -2.0440   -1.2513   -1.9406 H   0  0  0  0  0  0  0  0  0  0  0  0
   -1.9986   -3.0489   -0.6495 H   0  0  0  0  0  0  0  0  0  0  0  0
    1.4259    1.0842   -0.9971 H   0  0  0  0  0  0  0  0  0  0  0  0
    2.1204    0.2044    1.9809 H   0  0  0  0  0  0  0  0  0  0  0  0
    2.6550    1.7927    1.1046 H   0  0  0  0  0  0  0  0  0  0  0  0
    3.7647    0.3464   -0.5865 H   0  0  0  0  0  0  0  0  0  0  0  0
    3.2232   -1.2057    0.2550 H   0  0  0  0  0  0  0  0  0  0  0  0
  1  2  1  0
  2  3  1  0
  3  4  1  0
  4  5  1  0
  3  6  1  0
  6  7  1  0
  7  8  1  0
  8  9  1  0
  9  7  1  0
  1 10  1  0
  1 11  1  0
  1 12  1  0
  2 13  1  0
  2 14  1  0
  3 15  1  0
  4 16  1  0
  4 17  1  0
  5 18  1  0
  7 19  1  0
  8 20  1  0
  8 21  1  0
  9 22  1  0
  9 23  1  0
M  END
