
     RDKit          3D

 22 21  0  0  0  0  0  0  0  0999 V2000
    1.9387   -0.0287    1.0372 C   0  0  0  0  0  0  0  0  0  0  0  0
    1.3460   -0.2891   -0.3054 C   0  0  0  0  0  0  0  0  0  0  0  0
   -0.1451   -0.0756   -0.3670 C   0  0  0  0  0  0  0  0  0  0  0  0
   -0.5611   -0.3899   -1.8126 C   0  0  0  0  0  0  0  0  0  0  0  0
   -0.8850   -1.0455    0.5064 C   0  0  0  0  0  0  0  0  0  0  0  0
   -2.2526   -0.7834    0.3941 O   0  0  0  0  0  0  0  0  0  0  0  0
   -0.5551    1.3329   -0.1091 C   0  0  0  0  0  0  0  0  0  0  0  0
   -0.1813    1.8117    1.1317 O   0  0  0  0  0  0  0  0  0  0  0  0
    2.0306    1.0481    1.2846 H   0  0  0  0  0  0  0  0  0  0  0  0
    1.4059   -0.5262    1.8651 H   0  0  0  0  0  0  0  0  0  0  0  0
    2.9729   -0.4328    1.0443 H   0  0  0  0  0  0  0  0  0  0  0  0
    1.5218   -1.3696   -0.5454 H   0  0  0  0  0  0  0  0  0  0  0  0
    1.8825    0.3079   -1.0590 H   0  0  0  0  0  0  0  0  0  0  0  0
   -1.5866   -0.0067   -1.9167 H   0  0  0  0  0  0  0  0  0  0  0  0
    0.0960    0.1959   -2.4670 H   0  0  0  0  0  0  0  0  0  0  0  0
   -0.4663   -1.4779   -1.9512 H   0  0  0  0  0  0  0  0  0  0  0  0
   -0.5697   -0.9445    1.5795 H   0  0  0  0  0  0  0  0  0  0  0  0
   -0.6554   -2.0737    0.1644 H   0  0  0  0  0  0  0  0  0  0  0  0
   -2.7006   -1.1434    1.2045 H   0  0  0  0  0  0  0  0  0  0  0  0
   -1.6611    1.3837   -0.1820 H   0  0  0  0  0  0  0  0  0  0  0  0
   -0.1354    2.0003   -0.8846 H   0  0  0  0  0  0  0  0  0  0  0  0
   -0.8393    2.5067    1.3881 H   0  0  0  0  0  0  0  0  0  0  0  0
  1  2  1  0
  2  3  1  0
  3  4  1  0
  3  5  1  0
  5  6  1  0
  3  7  1  0
  7  8  1  0
  1  9  1  0
  1 10  1  0
  1 11  1  0
  2 12  1  0
  2 13  1  0
  4 14  1  0
  4 15  1  0
  4 16  1  0
  5 17  1  0
  5 18  1  0
  6 19  1  0
  7 20  1  0
  7 21  1  0
  8 22  1  0
M  END
