
     RDKit          3D

 27 26  0  0  0  0  0  0  0  0999 V2000
   -2.2186   -0.5219    1.0259 C   0  0  0  0  0  0  0  0  0  0  0  0
   -0.9588   -0.9303    0.3635 C   0  0  0  0  0  0  0  0  0  0  0  0
    0.0383    0.1262    0.0362 C   0  0  0  0  0  0  0  0  0  0  0  0
    0.3951    0.7719    1.2363 O   0  0  0  0  0  0  0  0  0  0  0  0
   -0.4220    1.1313   -0.9339 C   0  0  0  0  0  0  0  0  0  0  0  0
   -1.6074    1.9685   -0.5750 C   0  0  0  0  0  0  0  0  0  0  0  0
    1.2686   -0.6416   -0.4842 C   0  0  0  0  0  0  0  0  0  0  0  0
    2.3814    0.2858   -0.8636 C   0  0  0  0  0  0  0  0  0  0  0  0
    1.7505   -1.6175    0.5648 C   0  0  0  0  0  0  0  0  0  0  0  0
   -2.6820   -1.4978    1.4114 H   0  0  0  0  0  0  0  0  0  0  0  0
   -2.0420    0.1142    1.9272 H   0  0  0  0  0  0  0  0  0  0  0  0
   -2.9776   -0.1134    0.3649 H   0  0  0  0  0  0  0  0  0  0  0  0
   -1.2371   -1.5204   -0.5700 H   0  0  0  0  0  0  0  0  0  0  0  0
   -0.4214   -1.6426    1.0658 H   0  0  0  0  0  0  0  0  0  0  0  0
   -0.0219    0.3834    2.0187 H   0  0  0  0  0  0  0  0  0  0  0  0
    0.3796    1.8488   -1.2466 H   0  0  0  0  0  0  0  0  0  0  0  0
   -0.7135    0.6331   -1.9204 H   0  0  0  0  0  0  0  0  0  0  0  0
   -1.7904    1.9379    0.5089 H   0  0  0  0  0  0  0  0  0  0  0  0
   -1.4354    3.0482   -0.8418 H   0  0  0  0  0  0  0  0  0  0  0  0
   -2.5537    1.6539   -1.0834 H   0  0  0  0  0  0  0  0  0  0  0  0
    1.0102   -1.2347   -1.3817 H   0  0  0  0  0  0  0  0  0  0  0  0
    2.5751    1.0735   -0.1180 H   0  0  0  0  0  0  0  0  0  0  0  0
    3.3092   -0.3214   -0.9295 H   0  0  0  0  0  0  0  0  0  0  0  0
    2.2458    0.7157   -1.8980 H   0  0  0  0  0  0  0  0  0  0  0  0
    2.8386   -1.8065    0.3338 H   0  0  0  0  0  0  0  0  0  0  0  0
    1.2525   -2.6005    0.4003 H   0  0  0  0  0  0  0  0  0  0  0  0
    1.6371   -1.2437    1.5886 H   0  0  0  0  0  0  0  0  0  0  0  0
  1  2  1  0
  2  3  1  0
  3  4  1  0
  3  5  1  0
  5  6  1  0
  3  7  1  0
  7  8  1  0
  7  9  1  0
  1 10  1  0
  1 11  1  0
  1 12  1  0
  2 13  1  0
  2 14  1  0
  4 15  1  0
  5 16  1  0
  5 17  1  0
  6 18  1  0
  6 19  1  0
  6 20  1  0
  7 21  1  0
  8 22  1  0
  8 23  1  0
  8 24  1  0
  9 25  1  0
  9 26  1  0
  9 27  1  0
M  END
