
     RDKit          3D

 20 19  0  0  0  0  0  0  0  0999 V2000
   -1.7623    0.6976    0.2991 C   0  0  0  0  0  0  0  0  0  0  0  0
   -1.1759   -0.4352   -0.4437 C   0  0  0  0  0  0  0  0  0  0  0  0
    0.2034   -0.8660   -0.1039 C   0  0  0  0  0  0  0  0  0  0  0  0
    0.4680   -1.9600   -0.9757 O   0  0  0  0  0  0  0  0  0  0  0  0
    0.3990   -1.3736    1.2484 C   0  0  0  0  0  0  0  0  0  0  0  0
    0.2604   -0.7137    2.2773 O   0  0  0  0  0  0  0  0  0  0  0  0
    1.2739    0.1450   -0.5133 C   0  0  0  0  0  0  0  0  0  0  0  0
    1.1364    1.4811    0.1184 C   0  0  0  0  0  0  0  0  0  0  0  0
   -2.8868    0.6240    0.1633 H   0  0  0  0  0  0  0  0  0  0  0  0
   -1.6364    0.6576    1.3993 H   0  0  0  0  0  0  0  0  0  0  0  0
   -1.5183    1.7045   -0.0596 H   0  0  0  0  0  0  0  0  0  0  0  0
   -1.8626   -1.3020   -0.4020 H   0  0  0  0  0  0  0  0  0  0  0  0
   -1.1607   -0.1428   -1.5366 H   0  0  0  0  0  0  0  0  0  0  0  0
    0.5415   -1.5626   -1.8705 H   0  0  0  0  0  0  0  0  0  0  0  0
    0.6914   -2.4065    1.4557 H   0  0  0  0  0  0  0  0  0  0  0  0
    2.2615   -0.3054   -0.2589 H   0  0  0  0  0  0  0  0  0  0  0  0
    1.2522    0.1766   -1.6301 H   0  0  0  0  0  0  0  0  0  0  0  0
    0.7468    2.2631   -0.5783 H   0  0  0  0  0  0  0  0  0  0  0  0
    0.5885    1.4643    1.0589 H   0  0  0  0  0  0  0  0  0  0  0  0
    2.1800    1.8538    0.3522 H   0  0  0  0  0  0  0  0  0  0  0  0
  1  2  1  0
  2  3  1  0
  3  4  1  0
  3  5  1  0
  5  6  2  0
  3  7  1  0
  7  8  1  0
  1  9  1  0
  1 10  1  0
  1 11  1  0
  2 12  1  0
  2 13  1  0
  4 14  1  0
  5 15  1  0
  7 16  1  0
  7 17  1  0
  8 18  1  0
  8 19  1  0
  8 20  1  0
M  END
