
     RDKit          3D

 18 17  0  0  0  0  0  0  0  0999 V2000
   -2.9354    0.2823   -0.6314 C   0  0  0  0  0  0  0  0  0  0  0  0
   -1.4352    0.5777   -0.6276 C   0  0  0  0  0  0  0  0  0  0  0  0
   -0.7457   -0.7782   -0.6195 C   0  0  0  0  0  0  0  0  0  0  0  0
   -1.1846   -1.4188    0.5602 O   0  0  0  0  0  0  0  0  0  0  0  0
    0.7037   -0.5368   -0.5550 C   0  0  0  0  0  0  0  0  0  0  0  0
    1.8931   -0.3376   -0.4833 C   0  0  0  0  0  0  0  0  0  0  0  0
    3.3506   -0.1052   -0.3725 C   0  0  0  0  0  0  0  0  0  0  0  0
    3.5860    0.9723    0.4924 O   0  0  0  0  0  0  0  0  0  0  0  0
   -3.1723   -0.0920    0.4079 H   0  0  0  0  0  0  0  0  0  0  0  0
   -3.0843   -0.5899   -1.3156 H   0  0  0  0  0  0  0  0  0  0  0  0
   -3.5369    1.1510   -0.8976 H   0  0  0  0  0  0  0  0  0  0  0  0
   -1.1342    1.2007   -1.4854 H   0  0  0  0  0  0  0  0  0  0  0  0
   -1.1819    1.1174    0.3193 H   0  0  0  0  0  0  0  0  0  0  0  0
   -1.0442   -1.3246   -1.5213 H   0  0  0  0  0  0  0  0  0  0  0  0
   -0.6962   -0.9425    1.2946 H   0  0  0  0  0  0  0  0  0  0  0  0
    3.8622   -0.9767    0.0828 H   0  0  0  0  0  0  0  0  0  0  0  0
    3.7103    0.0811   -1.3891 H   0  0  0  0  0  0  0  0  0  0  0  0
    3.0448    1.7198    0.1577 H   0  0  0  0  0  0  0  0  0  0  0  0
  1  2  1  0
  2  3  1  0
  3  4  1  0
  3  5  1  0
  5  6  3  0
  6  7  1  0
  7  8  1  0
  1  9  1  0
  1 10  1  0
  1 11  1  0
  2 12  1  0
  2 13  1  0
  3 14  1  0
  4 15  1  0
  7 16  1  0
  7 17  1  0
  8 18  1  0
M  END
