
     RDKit          3D

 23 23  0  0  0  0  0  0  0  0999 V2000
   -2.4991   -1.4188    0.6117 C   0  0  0  0  0  0  0  0  0  0  0  0
   -2.4877    0.0245    0.2370 C   0  0  0  0  0  0  0  0  0  0  0  0
   -1.2570    0.7606    0.6866 C   0  0  0  0  0  0  0  0  0  0  0  0
   -1.3883    2.2005    0.2382 C   0  0  0  0  0  0  0  0  0  0  0  0
   -0.0276    0.1580    0.1978 C   0  0  0  0  0  0  0  0  0  0  0  0
    0.9854   -0.3592   -0.1977 C   0  0  0  0  0  0  0  0  0  0  0  0
    2.2129   -0.9581   -0.6776 C   0  0  0  0  0  0  0  0  0  0  0  0
    3.3554    0.0413   -0.9881 C   0  0  0  0  0  0  0  0  0  0  0  0
    3.4135   -0.9272    0.1767 C   0  0  0  0  0  0  0  0  0  0  0  0
   -2.0946   -1.6525    1.5975 H   0  0  0  0  0  0  0  0  0  0  0  0
   -3.5696   -1.7699    0.5321 H   0  0  0  0  0  0  0  0  0  0  0  0
   -1.9414   -1.9736   -0.1934 H   0  0  0  0  0  0  0  0  0  0  0  0
   -3.3560    0.5129    0.7540 H   0  0  0  0  0  0  0  0  0  0  0  0
   -2.6117    0.1060   -0.8666 H   0  0  0  0  0  0  0  0  0  0  0  0
   -1.2247    0.7551    1.7970 H   0  0  0  0  0  0  0  0  0  0  0  0
   -0.4788    2.4539   -0.3396 H   0  0  0  0  0  0  0  0  0  0  0  0
   -2.2726    2.3371   -0.4477 H   0  0  0  0  0  0  0  0  0  0  0  0
   -1.5550    2.8861    1.0920 H   0  0  0  0  0  0  0  0  0  0  0  0
    2.0958   -1.7947   -1.3983 H   0  0  0  0  0  0  0  0  0  0  0  0
    3.1719    1.0810   -0.6786 H   0  0  0  0  0  0  0  0  0  0  0  0
    3.9707   -0.1657   -1.8794 H   0  0  0  0  0  0  0  0  0  0  0  0
    4.1577   -1.7624    0.0208 H   0  0  0  0  0  0  0  0  0  0  0  0
    3.4011   -0.5348    1.2100 H   0  0  0  0  0  0  0  0  0  0  0  0
  1  2  1  0
  2  3  1  0
  3  4  1  0
  3  5  1  0
  5  6  3  0
  6  7  1  0
  7  8  1  0
  8  9  1  0
  9  7  1  0
  1 10  1  0
  1 11  1  0
  1 12  1  0
  2 13  1  0
  2 14  1  0
  3 15  1  0
  4 16  1  0
  4 17  1  0
  4 18  1  0
  7 19  1  0
  8 20  1  0
  8 21  1  0
  9 22  1  0
  9 23  1  0
M  END
