
     RDKit          3D

 25 25  0  0  0  0  0  0  0  0999 V2000
   -1.3410   -2.2253   -0.5488 C   0  0  0  0  0  0  0  0  0  0  0  0
   -0.1265   -1.3325   -0.4486 C   0  0  0  0  0  0  0  0  0  0  0  0
   -0.4427   -0.0546    0.2787 C   0  0  0  0  0  0  0  0  0  0  0  0
   -1.5425    0.7349   -0.4450 C   0  0  0  0  0  0  0  0  0  0  0  0
   -1.8241    1.9979    0.3216 C   0  0  0  0  0  0  0  0  0  0  0  0
    0.7051    0.8585    0.4626 C   0  0  0  0  0  0  0  0  0  0  0  0
    1.2292    1.2367   -0.8793 O   0  0  0  0  0  0  0  0  0  0  0  0
    2.0598    0.7412    0.2297 C   0  0  0  0  0  0  0  0  0  0  0  0
    2.9183   -0.3971   -0.1421 C   0  0  0  0  0  0  0  0  0  0  0  0
   -1.9904   -1.9843   -1.4048 H   0  0  0  0  0  0  0  0  0  0  0  0
   -1.0466   -3.2925   -0.6371 H   0  0  0  0  0  0  0  0  0  0  0  0
   -1.9857   -2.1561    0.3572 H   0  0  0  0  0  0  0  0  0  0  0  0
    0.2216   -1.1572   -1.4756 H   0  0  0  0  0  0  0  0  0  0  0  0
    0.5815   -1.8977    0.1943 H   0  0  0  0  0  0  0  0  0  0  0  0
   -0.8135   -0.3440    1.2842 H   0  0  0  0  0  0  0  0  0  0  0  0
   -2.4429    0.1116   -0.5991 H   0  0  0  0  0  0  0  0  0  0  0  0
   -1.2060    1.0393   -1.4579 H   0  0  0  0  0  0  0  0  0  0  0  0
   -2.8630    2.3573    0.1879 H   0  0  0  0  0  0  0  0  0  0  0  0
   -1.6497    1.7899    1.3946 H   0  0  0  0  0  0  0  0  0  0  0  0
   -1.0800    2.7664   -0.0006 H   0  0  0  0  0  0  0  0  0  0  0  0
    0.3461    1.7697    1.0397 H   0  0  0  0  0  0  0  0  0  0  0  0
    2.7172    1.6221    0.5203 H   0  0  0  0  0  0  0  0  0  0  0  0
    3.1119   -1.0243    0.7766 H   0  0  0  0  0  0  0  0  0  0  0  0
    2.5415   -1.0841   -0.9019 H   0  0  0  0  0  0  0  0  0  0  0  0
    3.9223   -0.0759   -0.4828 H   0  0  0  0  0  0  0  0  0  0  0  0
  1  2  1  0
  2  3  1  0
  3  4  1  0
  4  5  1  0
  3  6  1  0
  6  7  1  0
  7  8  1  0
  8  9  1  0
  8  6  1  0
  1 10  1  0
  1 11  1  0
  1 12  1  0
  2 13  1  0
  2 14  1  0
  3 15  1  0
  4 16  1  0
  4 17  1  0
  5 18  1  0
  5 19  1  0
  5 20  1  0
  6 21  1  0
  8 22  1  0
  9 23  1  0
  9 24  1  0
  9 25  1  0
M  END
