
     RDKit          3D

 20 19  0  0  0  0  0  0  0  0999 V2000
    2.4431   -0.0679   -0.1636 C   0  0  0  0  0  0  0  0  0  0  0  0
    1.2454    0.7333    0.3397 C   0  0  0  0  0  0  0  0  0  0  0  0
    0.0163    0.0801   -0.2474 C   0  0  0  0  0  0  0  0  0  0  0  0
   -0.0054   -1.3405    0.2476 C   0  0  0  0  0  0  0  0  0  0  0  0
   -1.2445    0.8344    0.0712 C   0  0  0  0  0  0  0  0  0  0  0  0
   -2.4458    0.1652   -0.5224 C   0  0  0  0  0  0  0  0  0  0  0  0
    3.1793    0.6545   -0.5566 H   0  0  0  0  0  0  0  0  0  0  0  0
    2.1646   -0.7249   -1.0182 H   0  0  0  0  0  0  0  0  0  0  0  0
    2.8868   -0.6813    0.6529 H   0  0  0  0  0  0  0  0  0  0  0  0
    1.3330    1.8046    0.0469 H   0  0  0  0  0  0  0  0  0  0  0  0
    1.1928    0.7100    1.4448 H   0  0  0  0  0  0  0  0  0  0  0  0
    0.1042    0.0362   -1.3534 H   0  0  0  0  0  0  0  0  0  0  0  0
   -0.5159   -1.3587    1.2302 H   0  0  0  0  0  0  0  0  0  0  0  0
   -0.4788   -2.0043   -0.5007 H   0  0  0  0  0  0  0  0  0  0  0  0
    1.0246   -1.6772    0.3817 H   0  0  0  0  0  0  0  0  0  0  0  0
   -1.1529    1.8356   -0.4135 H   0  0  0  0  0  0  0  0  0  0  0  0
   -1.3245    0.9213    1.1736 H   0  0  0  0  0  0  0  0  0  0  0  0
   -3.3333    0.5011    0.0871 H   0  0  0  0  0  0  0  0  0  0  0  0
   -2.6535    0.5119   -1.5639 H   0  0  0  0  0  0  0  0  0  0  0  0
   -2.4354   -0.9335   -0.4333 H   0  0  0  0  0  0  0  0  0  0  0  0
  1  2  1  0
  2  3  1  0
  3  4  1  0
  3  5  1  0
  5  6  1  0
  1  7  1  0
  1  8  1  0
  1  9  1  0
  2 10  1  0
  2 11  1  0
  3 12  1  0
  4 13  1  0
  4 14  1  0
  4 15  1  0
  5 16  1  0
  5 17  1  0
  6 18  1  0
  6 19  1  0
  6 20  1  0
M  END
