
     RDKit          3D

 22 21  0  0  0  0  0  0  0  0999 V2000
    2.0432    0.0587   -1.3192 C   0  0  0  0  0  0  0  0  0  0  0  0
    1.3627   -0.4228   -0.0876 C   0  0  0  0  0  0  0  0  0  0  0  0
   -0.1064   -0.1870   -0.0443 C   0  0  0  0  0  0  0  0  0  0  0  0
   -0.6355   -0.7293    1.2579 C   0  0  0  0  0  0  0  0  0  0  0  0
   -0.7276   -0.9764   -1.2046 C   0  0  0  0  0  0  0  0  0  0  0  0
   -0.4588    1.2539   -0.2680 C   0  0  0  0  0  0  0  0  0  0  0  0
   -1.9092    1.4811   -0.2241 C   0  0  0  0  0  0  0  0  0  0  0  0
   -2.3668    2.5992   -0.3872 O   0  0  0  0  0  0  0  0  0  0  0  0
    2.1847    1.1666   -1.3238 H   0  0  0  0  0  0  0  0  0  0  0  0
    1.5935   -0.2474   -2.2626 H   0  0  0  0  0  0  0  0  0  0  0  0
    3.0846   -0.3764   -1.3139 H   0  0  0  0  0  0  0  0  0  0  0  0
    1.5247   -1.5356   -0.0298 H   0  0  0  0  0  0  0  0  0  0  0  0
    1.8702    0.0107    0.7892 H   0  0  0  0  0  0  0  0  0  0  0  0
    0.1363   -0.6816    2.0753 H   0  0  0  0  0  0  0  0  0  0  0  0
   -0.8118   -1.8244    1.1007 H   0  0  0  0  0  0  0  0  0  0  0  0
   -1.5459   -0.2228    1.6117 H   0  0  0  0  0  0  0  0  0  0  0  0
   -1.8260   -0.9236   -1.0654 H   0  0  0  0  0  0  0  0  0  0  0  0
   -0.3563   -2.0126   -1.1188 H   0  0  0  0  0  0  0  0  0  0  0  0
   -0.4180   -0.5743   -2.1707 H   0  0  0  0  0  0  0  0  0  0  0  0
    0.0937    1.9399    0.4181 H   0  0  0  0  0  0  0  0  0  0  0  0
   -0.1095    1.5199   -1.2914 H   0  0  0  0  0  0  0  0  0  0  0  0
   -2.6219    0.6839   -0.0489 H   0  0  0  0  0  0  0  0  0  0  0  0
  1  2  1  0
  2  3  1  0
  3  4  1  0
  3  5  1  0
  3  6  1  0
  6  7  1  0
  7  8  2  0
  1  9  1  0
  1 10  1  0
  1 11  1  0
  2 12  1  0
  2 13  1  0
  4 14  1  0
  4 15  1  0
  4 16  1  0
  5 17  1  0
  5 18  1  0
  5 19  1  0
  6 20  1  0
  6 21  1  0
  7 22  1  0
M  END
