
     RDKit          3D

 27 26  0  0  0  0  0  0  0  0999 V2000
   -2.3917   -1.9104    0.7324 C   0  0  0  0  0  0  0  0  0  0  0  0
   -1.1726   -1.6226   -0.0771 C   0  0  0  0  0  0  0  0  0  0  0  0
   -0.6035   -0.2413    0.1666 C   0  0  0  0  0  0  0  0  0  0  0  0
   -1.6579    0.7727   -0.1939 C   0  0  0  0  0  0  0  0  0  0  0  0
   -1.2226    2.1866    0.0015 C   0  0  0  0  0  0  0  0  0  0  0  0
    0.5434   -0.1195   -0.5820 O   0  0  0  0  0  0  0  0  0  0  0  0
    1.6813    0.1366    0.1548 C   0  0  0  0  0  0  0  0  0  0  0  0
    2.3505    1.4155   -0.3015 C   0  0  0  0  0  0  0  0  0  0  0  0
    2.7174   -0.9677    0.0249 C   0  0  0  0  0  0  0  0  0  0  0  0
   -2.3171   -2.8940    1.2820 H   0  0  0  0  0  0  0  0  0  0  0  0
   -2.6428   -1.1621    1.4787 H   0  0  0  0  0  0  0  0  0  0  0  0
   -3.2803   -1.9952    0.0408 H   0  0  0  0  0  0  0  0  0  0  0  0
   -0.4181   -2.4164    0.1520 H   0  0  0  0  0  0  0  0  0  0  0  0
   -1.3955   -1.6732   -1.1775 H   0  0  0  0  0  0  0  0  0  0  0  0
   -0.3365   -0.0997    1.2317 H   0  0  0  0  0  0  0  0  0  0  0  0
   -2.5448    0.5962    0.4492 H   0  0  0  0  0  0  0  0  0  0  0  0
   -1.9832    0.6289   -1.2533 H   0  0  0  0  0  0  0  0  0  0  0  0
   -0.6880    2.6161   -0.8673 H   0  0  0  0  0  0  0  0  0  0  0  0
   -0.6901    2.3256    0.9607 H   0  0  0  0  0  0  0  0  0  0  0  0
   -2.1621    2.8058    0.0982 H   0  0  0  0  0  0  0  0  0  0  0  0
    1.4360    0.1956    1.2452 H   0  0  0  0  0  0  0  0  0  0  0  0
    2.9819    1.7610    0.5386 H   0  0  0  0  0  0  0  0  0  0  0  0
    3.0699    1.1906   -1.1393 H   0  0  0  0  0  0  0  0  0  0  0  0
    1.6620    2.1646   -0.6831 H   0  0  0  0  0  0  0  0  0  0  0  0
    3.7441   -0.5317    0.0770 H   0  0  0  0  0  0  0  0  0  0  0  0
    2.6620   -1.6818    0.8818 H   0  0  0  0  0  0  0  0  0  0  0  0
    2.6585   -1.4800   -0.9550 H   0  0  0  0  0  0  0  0  0  0  0  0
  1  2  1  0
  2  3  1  0
  3  4  1  0
  4  5  1  0
  3  6  1  0
  6  7  1  0
  7  8  1  0
  7  9  1  0
  1 10  1  0
  1 11  1  0
  1 12  1  0
  2 13  1  0
  2 14  1  0
  3 15  1  0
  4 16  1  0
  4 17  1  0
  5 18  1  0
  5 19  1  0
  5 20  1  0
  7 21  1  0
  8 22  1  0
  8 23  1  0
  8 24  1  0
  9 25  1  0
  9 26  1  0
  9 27  1  0
M  END
