
     RDKit          3D

 21 21  0  0  0  0  0  0  0  0999 V2000
    2.0390    0.0237   -0.9958 C   0  0  0  0  0  0  0  0  0  0  0  0
    1.1566   -0.9262   -0.2141 C   0  0  0  0  0  0  0  0  0  0  0  0
    0.2521   -0.1405    0.7181 C   0  0  0  0  0  0  0  0  0  0  0  0
   -0.6148   -1.1399    1.4812 C   0  0  0  0  0  0  0  0  0  0  0  0
   -0.6680    0.7724   -0.0244 C   0  0  0  0  0  0  0  0  0  0  0  0
   -1.5799    1.5708    0.8227 C   0  0  0  0  0  0  0  0  0  0  0  0
   -2.3520    2.3323    0.2676 O   0  0  0  0  0  0  0  0  0  0  0  0
   -1.1272    0.4204   -1.3728 C   0  0  0  0  0  0  0  0  0  0  0  0
   -0.2138    1.4463   -1.1619 O   0  0  0  0  0  0  0  0  0  0  0  0
    1.5941    0.2218   -2.0102 H   0  0  0  0  0  0  0  0  0  0  0  0
    2.1640    0.9869   -0.4794 H   0  0  0  0  0  0  0  0  0  0  0  0
    3.0443   -0.4425   -1.1464 H   0  0  0  0  0  0  0  0  0  0  0  0
    1.8229   -1.5955    0.3567 H   0  0  0  0  0  0  0  0  0  0  0  0
    0.5776   -1.5664   -0.9018 H   0  0  0  0  0  0  0  0  0  0  0  0
    0.8682    0.3678    1.4801 H   0  0  0  0  0  0  0  0  0  0  0  0
   -1.0344   -1.8234    0.7099 H   0  0  0  0  0  0  0  0  0  0  0  0
   -0.0347   -1.7406    2.1808 H   0  0  0  0  0  0  0  0  0  0  0  0
   -1.3974   -0.5322    1.9798 H   0  0  0  0  0  0  0  0  0  0  0  0
   -1.5951    1.5128    1.9001 H   0  0  0  0  0  0  0  0  0  0  0  0
   -2.1804    0.6615   -1.6222 H   0  0  0  0  0  0  0  0  0  0  0  0
   -0.7210   -0.4096   -1.9679 H   0  0  0  0  0  0  0  0  0  0  0  0
  1  2  1  0
  2  3  1  0
  3  4  1  0
  3  5  1  0
  5  6  1  0
  6  7  2  0
  5  8  1  0
  8  9  1  0
  9  5  1  0
  1 10  1  0
  1 11  1  0
  1 12  1  0
  2 13  1  0
  2 14  1  0
  3 15  1  0
  4 16  1  0
  4 17  1  0
  4 18  1  0
  6 19  1  0
  8 20  1  0
  8 21  1  0
M  END
