
     RDKit          3D

 19 18  0  0  0  0  0  0  0  0999 V2000
    2.7153   -0.5821    0.2298 C   0  0  0  0  0  0  0  0  0  0  0  0
    1.3754   -0.2789   -0.4061 C   0  0  0  0  0  0  0  0  0  0  0  0
    0.3664    0.0576    0.6157 C   0  0  0  0  0  0  0  0  0  0  0  0
    0.6897    0.0574    1.7793 O   0  0  0  0  0  0  0  0  0  0  0  0
   -1.0192    0.3922    0.2508 C   0  0  0  0  0  0  0  0  0  0  0  0
   -2.0013   -0.6126    0.8191 C   0  0  0  0  0  0  0  0  0  0  0  0
   -1.1359    0.3224   -1.1355 O   0  0  0  0  0  0  0  0  0  0  0  0
   -1.3963    1.7770    0.6576 C   0  0  0  0  0  0  0  0  0  0  0  0
   -1.7328    2.6257   -0.1510 O   0  0  0  0  0  0  0  0  0  0  0  0
    3.3482   -1.2185   -0.4205 H   0  0  0  0  0  0  0  0  0  0  0  0
    3.2907    0.3221    0.4525 H   0  0  0  0  0  0  0  0  0  0  0  0
    2.5856   -1.1483    1.1863 H   0  0  0  0  0  0  0  0  0  0  0  0
    1.5073    0.5361   -1.1499 H   0  0  0  0  0  0  0  0  0  0  0  0
    1.0019   -1.1871   -0.9421 H   0  0  0  0  0  0  0  0  0  0  0  0
   -3.0106   -0.2799    0.5267 H   0  0  0  0  0  0  0  0  0  0  0  0
   -1.8220   -1.5755    0.2662 H   0  0  0  0  0  0  0  0  0  0  0  0
   -1.8679   -0.7846    1.8924 H   0  0  0  0  0  0  0  0  0  0  0  0
   -1.5063   -0.5188   -1.4515 H   0  0  0  0  0  0  0  0  0  0  0  0
   -1.3882    2.0959    1.7040 H   0  0  0  0  0  0  0  0  0  0  0  0
  1  2  1  0
  2  3  1  0
  3  4  2  0
  3  5  1  0
  5  6  1  0
  5  7  1  0
  5  8  1  0
  8  9  2  0
  1 10  1  0
  1 11  1  0
  1 12  1  0
  2 13  1  0
  2 14  1  0
  6 15  1  0
  6 16  1  0
  6 17  1  0
  7 18  1  0
  8 19  1  0
M  END
