
     RDKit          3D

 27 26  0  0  0  0  0  0  0  0999 V2000
    2.3142    0.1625    0.5855 C   0  0  0  0  0  0  0  0  0  0  0  0
    1.6301   -0.8431   -0.2992 C   0  0  0  0  0  0  0  0  0  0  0  0
    0.4100   -0.3014   -0.9272 C   0  0  0  0  0  0  0  0  0  0  0  0
    0.7890    0.8126   -1.7014 O   0  0  0  0  0  0  0  0  0  0  0  0
   -0.7529    0.0184   -0.0928 C   0  0  0  0  0  0  0  0  0  0  0  0
   -1.3271   -1.1321    0.6877 C   0  0  0  0  0  0  0  0  0  0  0  0
   -1.7865   -2.2400   -0.2315 C   0  0  0  0  0  0  0  0  0  0  0  0
   -0.6817    1.2131    0.7973 C   0  0  0  0  0  0  0  0  0  0  0  0
   -0.4670    2.5206    0.1120 C   0  0  0  0  0  0  0  0  0  0  0  0
    2.0938    1.1964    0.3164 H   0  0  0  0  0  0  0  0  0  0  0  0
    2.1231   -0.0015    1.6683 H   0  0  0  0  0  0  0  0  0  0  0  0
    3.4416    0.0827    0.4931 H   0  0  0  0  0  0  0  0  0  0  0  0
    2.3613   -1.0466   -1.1403 H   0  0  0  0  0  0  0  0  0  0  0  0
    1.5101   -1.8316    0.1890 H   0  0  0  0  0  0  0  0  0  0  0  0
    0.0882   -1.0474   -1.7220 H   0  0  0  0  0  0  0  0  0  0  0  0
    1.7374    0.7667   -1.9703 H   0  0  0  0  0  0  0  0  0  0  0  0
   -1.6009    0.2739   -0.8192 H   0  0  0  0  0  0  0  0  0  0  0  0
   -2.2698   -0.7373    1.1728 H   0  0  0  0  0  0  0  0  0  0  0  0
   -0.6961   -1.4785    1.5088 H   0  0  0  0  0  0  0  0  0  0  0  0
   -2.5792   -1.8123   -0.8900 H   0  0  0  0  0  0  0  0  0  0  0  0
   -2.2648   -3.0288    0.3618 H   0  0  0  0  0  0  0  0  0  0  0  0
   -0.9738   -2.6157   -0.8829 H   0  0  0  0  0  0  0  0  0  0  0  0
   -0.0023    1.0851    1.6737 H   0  0  0  0  0  0  0  0  0  0  0  0
   -1.7036    1.2717    1.2864 H   0  0  0  0  0  0  0  0  0  0  0  0
   -0.7226    2.4242   -0.9619 H   0  0  0  0  0  0  0  0  0  0  0  0
   -1.1924    3.2997    0.4972 H   0  0  0  0  0  0  0  0  0  0  0  0
    0.5219    2.9887    0.2888 H   0  0  0  0  0  0  0  0  0  0  0  0
  1  2  1  0
  2  3  1  0
  3  4  1  0
  3  5  1  0
  5  6  1  0
  6  7  1  0
  5  8  1  0
  8  9  1  0
  1 10  1  0
  1 11  1  0
  1 12  1  0
  2 13  1  0
  2 14  1  0
  3 15  1  0
  4 16  1  0
  5 17  1  0
  6 18  1  0
  6 19  1  0
  7 20  1  0
  7 21  1  0
  7 22  1  0
  8 23  1  0
  8 24  1  0
  9 25  1  0
  9 26  1  0
  9 27  1  0
M  END
