
     RDKit          3D

 19 19  0  0  0  0  0  0  0  0999 V2000
   -2.5699    0.5650   -0.6404 C   0  0  0  0  0  0  0  0  0  0  0  0
   -1.2819    0.6279    0.1261 C   0  0  0  0  0  0  0  0  0  0  0  0
   -0.3456   -0.5073   -0.2816 C   0  0  0  0  0  0  0  0  0  0  0  0
   -0.9869   -1.6889   -0.0113 O   0  0  0  0  0  0  0  0  0  0  0  0
    0.9310   -0.3066    0.4629 C   0  0  0  0  0  0  0  0  0  0  0  0
    1.9272   -1.2640    0.2426 O   0  0  0  0  0  0  0  0  0  0  0  0
    2.8291   -0.2204    0.5578 C   0  0  0  0  0  0  0  0  0  0  0  0
    1.8642    0.6983   -0.0688 C   0  0  0  0  0  0  0  0  0  0  0  0
    1.8598    1.7168   -0.6811 O   0  0  0  0  0  0  0  0  0  0  0  0
   -3.1948   -0.2620   -0.2538 H   0  0  0  0  0  0  0  0  0  0  0  0
   -3.1155    1.5212   -0.4414 H   0  0  0  0  0  0  0  0  0  0  0  0
   -2.3466    0.4296   -1.7053 H   0  0  0  0  0  0  0  0  0  0  0  0
   -0.7614    1.5956   -0.0185 H   0  0  0  0  0  0  0  0  0  0  0  0
   -1.5220    0.4709    1.1966 H   0  0  0  0  0  0  0  0  0  0  0  0
   -0.1676   -0.3714   -1.3674 H   0  0  0  0  0  0  0  0  0  0  0  0
   -0.5862   -2.4758   -0.4505 H   0  0  0  0  0  0  0  0  0  0  0  0
    0.8209   -0.1626    1.5652 H   0  0  0  0  0  0  0  0  0  0  0  0
    2.8291   -0.0548    1.6723 H   0  0  0  0  0  0  0  0  0  0  0  0
    3.8172   -0.3115    0.0963 H   0  0  0  0  0  0  0  0  0  0  0  0
  1  2  1  0
  2  3  1  0
  3  4  1  0
  3  5  1  0
  5  6  1  0
  6  7  1  0
  7  8  1  0
  8  9  2  0
  8  5  1  0
  1 10  1  0
  1 11  1  0
  1 12  1  0
  2 13  1  0
  2 14  1  0
  3 15  1  0
  4 16  1  0
  5 17  1  0
  7 18  1  0
  7 19  1  0
M  END
