
     RDKit          3D

 27 26  0  0  0  0  0  0  0  0999 V2000
    2.8057    0.7378    0.3681 C   0  0  0  0  0  0  0  0  0  0  0  0
    1.5688    0.9847   -0.4124 C   0  0  0  0  0  0  0  0  0  0  0  0
    0.4004    0.0879    0.0272 C   0  0  0  0  0  0  0  0  0  0  0  0
    0.1199    0.3689    1.4679 C   0  0  0  0  0  0  0  0  0  0  0  0
    0.9202   -1.3297   -0.0768 C   0  0  0  0  0  0  0  0  0  0  0  0
   -0.6849    0.3897   -0.9308 C   0  0  0  0  0  0  0  0  0  0  0  0
   -1.9755   -0.3119   -0.7985 C   0  0  0  0  0  0  0  0  0  0  0  0
   -2.7015   -0.1085    0.5066 C   0  0  0  0  0  0  0  0  0  0  0  0
   -1.9221   -1.6631   -1.1538 O   0  0  0  0  0  0  0  0  0  0  0  0
    3.6372    1.2600   -0.1943 H   0  0  0  0  0  0  0  0  0  0  0  0
    3.0869   -0.3209    0.3735 H   0  0  0  0  0  0  0  0  0  0  0  0
    2.8145    1.2052    1.3713 H   0  0  0  0  0  0  0  0  0  0  0  0
    1.2677    2.0301   -0.4246 H   0  0  0  0  0  0  0  0  0  0  0  0
    1.7650    0.6892   -1.4733 H   0  0  0  0  0  0  0  0  0  0  0  0
   -0.5123   -0.3939    1.9488 H   0  0  0  0  0  0  0  0  0  0  0  0
    1.1163    0.2675    1.9975 H   0  0  0  0  0  0  0  0  0  0  0  0
   -0.1784    1.4165    1.6783 H   0  0  0  0  0  0  0  0  0  0  0  0
    1.5109   -1.5123    0.8674 H   0  0  0  0  0  0  0  0  0  0  0  0
    0.1444   -2.0879   -0.1581 H   0  0  0  0  0  0  0  0  0  0  0  0
    1.6480   -1.4334   -0.9085 H   0  0  0  0  0  0  0  0  0  0  0  0
   -0.8775    1.4838   -0.9702 H   0  0  0  0  0  0  0  0  0  0  0  0
   -0.2868    0.1421   -1.9559 H   0  0  0  0  0  0  0  0  0  0  0  0
   -2.6526    0.1454   -1.5858 H   0  0  0  0  0  0  0  0  0  0  0  0
   -3.8132    0.0265    0.3367 H   0  0  0  0  0  0  0  0  0  0  0  0
   -2.6689   -1.0361    1.1450 H   0  0  0  0  0  0  0  0  0  0  0  0
   -2.3975    0.7848    1.0555 H   0  0  0  0  0  0  0  0  0  0  0  0
   -2.1344   -1.8227   -2.1007 H   0  0  0  0  0  0  0  0  0  0  0  0
  1  2  1  0
  2  3  1  0
  3  4  1  0
  3  5  1  0
  3  6  1  0
  6  7  1  0
  7  8  1  0
  7  9  1  0
  1 10  1  0
  1 11  1  0
  1 12  1  0
  2 13  1  0
  2 14  1  0
  4 15  1  0
  4 16  1  0
  4 17  1  0
  5 18  1  0
  5 19  1  0
  5 20  1  0
  6 21  1  0
  6 22  1  0
  7 23  1  0
  8 24  1  0
  8 25  1  0
  8 26  1  0
  9 27  1  0
M  END
