
     RDKit          3D

 23 22  0  0  0  0  0  0  0  0999 V2000
    2.3850   -0.0290    0.7698 C   0  0  0  0  0  0  0  0  0  0  0  0
    1.8837    0.4124   -0.5644 C   0  0  0  0  0  0  0  0  0  0  0  0
    0.5532   -0.2657   -0.9160 C   0  0  0  0  0  0  0  0  0  0  0  0
    0.7894   -1.6211   -0.9302 O   0  0  0  0  0  0  0  0  0  0  0  0
   -0.4815    0.0158    0.1566 C   0  0  0  0  0  0  0  0  0  0  0  0
   -0.7093    1.4903    0.2745 C   0  0  0  0  0  0  0  0  0  0  0  0
   -1.7247   -0.7468   -0.1998 C   0  0  0  0  0  0  0  0  0  0  0  0
   -2.8180   -0.5464    0.7885 C   0  0  0  0  0  0  0  0  0  0  0  0
   -3.8631   -1.1362    0.5662 O   0  0  0  0  0  0  0  0  0  0  0  0
    3.5007   -0.0720    0.8247 H   0  0  0  0  0  0  0  0  0  0  0  0
    1.9743    0.6791    1.5365 H   0  0  0  0  0  0  0  0  0  0  0  0
    2.0233   -1.0311    1.0741 H   0  0  0  0  0  0  0  0  0  0  0  0
    1.7639    1.5172   -0.6278 H   0  0  0  0  0  0  0  0  0  0  0  0
    2.6028    0.1286   -1.3601 H   0  0  0  0  0  0  0  0  0  0  0  0
    0.1861    0.1342   -1.8762 H   0  0  0  0  0  0  0  0  0  0  0  0
    0.4378   -2.0893   -1.7247 H   0  0  0  0  0  0  0  0  0  0  0  0
   -0.0368   -0.3397    1.1169 H   0  0  0  0  0  0  0  0  0  0  0  0
   -1.7585    1.7403    0.5408 H   0  0  0  0  0  0  0  0  0  0  0  0
   -0.0256    1.9260    1.0547 H   0  0  0  0  0  0  0  0  0  0  0  0
   -0.5091    2.0019   -0.6901 H   0  0  0  0  0  0  0  0  0  0  0  0
   -1.4283   -1.8261   -0.2760 H   0  0  0  0  0  0  0  0  0  0  0  0
   -2.0481   -0.4357   -1.2061 H   0  0  0  0  0  0  0  0  0  0  0  0
   -2.6973    0.0933    1.6679 H   0  0  0  0  0  0  0  0  0  0  0  0
  1  2  1  0
  2  3  1  0
  3  4  1  0
  3  5  1  0
  5  6  1  0
  5  7  1  0
  7  8  1  0
  8  9  2  0
  1 10  1  0
  1 11  1  0
  1 12  1  0
  2 13  1  0
  2 14  1  0
  3 15  1  0
  4 16  1  0
  5 17  1  0
  6 18  1  0
  6 19  1  0
  6 20  1  0
  7 21  1  0
  7 22  1  0
  8 23  1  0
M  END
