
     RDKit          3D

 20 19  0  0  0  0  0  0  0  0999 V2000
    2.7760   -0.2994    0.5497 C   0  0  0  0  0  0  0  0  0  0  0  0
    1.3088   -0.0049    0.7977 C   0  0  0  0  0  0  0  0  0  0  0  0
    0.5140   -0.2273   -0.4595 C   0  0  0  0  0  0  0  0  0  0  0  0
    1.0875   -0.5906   -1.4613 O   0  0  0  0  0  0  0  0  0  0  0  0
   -0.9331   -0.0029   -0.4548 C   0  0  0  0  0  0  0  0  0  0  0  0
   -1.6082   -1.0121    0.4833 C   0  0  0  0  0  0  0  0  0  0  0  0
   -1.3309    1.4096   -0.1051 C   0  0  0  0  0  0  0  0  0  0  0  0
   -1.4494   -0.2709   -1.7216 O   0  0  0  0  0  0  0  0  0  0  0  0
    2.8710   -1.2103   -0.0698 H   0  0  0  0  0  0  0  0  0  0  0  0
    3.2407   -0.4584    1.5453 H   0  0  0  0  0  0  0  0  0  0  0  0
    3.2623    0.5299    0.0070 H   0  0  0  0  0  0  0  0  0  0  0  0
    0.8982   -0.6826    1.5558 H   0  0  0  0  0  0  0  0  0  0  0  0
    1.1935    1.0776    1.0638 H   0  0  0  0  0  0  0  0  0  0  0  0
   -2.6908   -1.0008    0.2635 H   0  0  0  0  0  0  0  0  0  0  0  0
   -1.3827   -0.8110    1.5338 H   0  0  0  0  0  0  0  0  0  0  0  0
   -1.1915   -2.0103    0.1590 H   0  0  0  0  0  0  0  0  0  0  0  0
   -2.4143    1.4090    0.0915 H   0  0  0  0  0  0  0  0  0  0  0  0
   -0.7854    1.8266    0.7486 H   0  0  0  0  0  0  0  0  0  0  0  0
   -1.1331    2.0263   -1.0169 H   0  0  0  0  0  0  0  0  0  0  0  0
   -2.2327    0.3026   -1.8905 H   0  0  0  0  0  0  0  0  0  0  0  0
  1  2  1  0
  2  3  1  0
  3  4  2  0
  3  5  1  0
  5  6  1  0
  5  7  1  0
  5  8  1  0
  1  9  1  0
  1 10  1  0
  1 11  1  0
  2 12  1  0
  2 13  1  0
  6 14  1  0
  6 15  1  0
  6 16  1  0
  7 17  1  0
  7 18  1  0
  7 19  1  0
  8 20  1  0
M  END
