
     RDKit          3D

 25 25  0  0  0  0  0  0  0  0999 V2000
   -2.6772   -0.8171    0.3056 C   0  0  0  0  0  0  0  0  0  0  0  0
   -1.8538    0.1800    1.0646 C   0  0  0  0  0  0  0  0  0  0  0  0
   -0.6285    0.6273    0.3028 C   0  0  0  0  0  0  0  0  0  0  0  0
   -1.0435    1.2643   -0.9828 C   0  0  0  0  0  0  0  0  0  0  0  0
    0.2966   -0.5388    0.1411 C   0  0  0  0  0  0  0  0  0  0  0  0
    1.5518   -0.2461   -0.5937 C   0  0  0  0  0  0  0  0  0  0  0  0
    2.4550    0.7954   -0.0113 C   0  0  0  0  0  0  0  0  0  0  0  0
    3.0863   -0.1497    0.7954 O   0  0  0  0  0  0  0  0  0  0  0  0
    2.6804   -1.1330   -0.1052 C   0  0  0  0  0  0  0  0  0  0  0  0
   -2.4401   -1.8771    0.6147 H   0  0  0  0  0  0  0  0  0  0  0  0
   -3.7494   -0.6725    0.5536 H   0  0  0  0  0  0  0  0  0  0  0  0
   -2.6006   -0.7012   -0.7971 H   0  0  0  0  0  0  0  0  0  0  0  0
   -1.6077   -0.2383    2.0591 H   0  0  0  0  0  0  0  0  0  0  0  0
   -2.5105    1.0813    1.2413 H   0  0  0  0  0  0  0  0  0  0  0  0
   -0.1130    1.3879    0.9263 H   0  0  0  0  0  0  0  0  0  0  0  0
   -0.8463    0.6104   -1.8616 H   0  0  0  0  0  0  0  0  0  0  0  0
   -0.5912    2.2677   -1.1402 H   0  0  0  0  0  0  0  0  0  0  0  0
   -2.1494    1.4351   -0.9830 H   0  0  0  0  0  0  0  0  0  0  0  0
    0.5634   -0.8955    1.1573 H   0  0  0  0  0  0  0  0  0  0  0  0
   -0.2019   -1.4037   -0.3580 H   0  0  0  0  0  0  0  0  0  0  0  0
    1.5142   -0.2921   -1.6990 H   0  0  0  0  0  0  0  0  0  0  0  0
    1.9622    1.5855    0.6029 H   0  0  0  0  0  0  0  0  0  0  0  0
    3.1606    1.1832   -0.7875 H   0  0  0  0  0  0  0  0  0  0  0  0
    2.3096   -2.0508    0.4292 H   0  0  0  0  0  0  0  0  0  0  0  0
    3.4330   -1.4021   -0.8747 H   0  0  0  0  0  0  0  0  0  0  0  0
  1  2  1  0
  2  3  1  0
  3  4  1  0
  3  5  1  0
  5  6  1  0
  6  7  1  0
  7  8  1  0
  8  9  1  0
  9  6  1  0
  1 10  1  0
  1 11  1  0
  1 12  1  0
  2 13  1  0
  2 14  1  0
  3 15  1  0
  4 16  1  0
  4 17  1  0
  4 18  1  0
  5 19  1  0
  5 20  1  0
  6 21  1  0
  7 22  1  0
  7 23  1  0
  9 24  1  0
  9 25  1  0
M  END
