
     RDKit          3D

 27 26  0  0  0  0  0  0  0  0999 V2000
    2.6795    0.0215    0.6933 C   0  0  0  0  0  0  0  0  0  0  0  0
    1.9797   -0.2507   -0.5853 C   0  0  0  0  0  0  0  0  0  0  0  0
    0.8032    0.5651   -0.9316 C   0  0  0  0  0  0  0  0  0  0  0  0
    0.3452    0.1047   -2.2051 O   0  0  0  0  0  0  0  0  0  0  0  0
   -0.3543    0.6155   -0.0330 C   0  0  0  0  0  0  0  0  0  0  0  0
   -0.0980    1.1468    1.3357 C   0  0  0  0  0  0  0  0  0  0  0  0
   -1.1052   -0.6862    0.1160 C   0  0  0  0  0  0  0  0  0  0  0  0
   -2.2566   -0.4427    1.0728 C   0  0  0  0  0  0  0  0  0  0  0  0
   -1.7134   -1.1536   -1.1894 C   0  0  0  0  0  0  0  0  0  0  0  0
    3.0334    1.0685    0.8233 H   0  0  0  0  0  0  0  0  0  0  0  0
    3.6594   -0.5653    0.6580 H   0  0  0  0  0  0  0  0  0  0  0  0
    2.1402   -0.2911    1.5857 H   0  0  0  0  0  0  0  0  0  0  0  0
    2.7428   -0.0655   -1.4079 H   0  0  0  0  0  0  0  0  0  0  0  0
    1.8124   -1.3504   -0.6568 H   0  0  0  0  0  0  0  0  0  0  0  0
    1.1599    1.6278   -1.0803 H   0  0  0  0  0  0  0  0  0  0  0  0
    0.1893    0.8770   -2.7847 H   0  0  0  0  0  0  0  0  0  0  0  0
   -1.1041    1.3198   -0.5114 H   0  0  0  0  0  0  0  0  0  0  0  0
   -0.0714    0.3176    2.1011 H   0  0  0  0  0  0  0  0  0  0  0  0
    0.8393    1.6951    1.3853 H   0  0  0  0  0  0  0  0  0  0  0  0
   -0.8859    1.8868    1.6427 H   0  0  0  0  0  0  0  0  0  0  0  0
   -0.4851   -1.5089    0.4987 H   0  0  0  0  0  0  0  0  0  0  0  0
   -2.4537    0.6487    1.2157 H   0  0  0  0  0  0  0  0  0  0  0  0
   -2.0402   -0.8377    2.0905 H   0  0  0  0  0  0  0  0  0  0  0  0
   -3.2070   -0.8761    0.6965 H   0  0  0  0  0  0  0  0  0  0  0  0
   -1.0081   -1.7571   -1.7962 H   0  0  0  0  0  0  0  0  0  0  0  0
   -2.0422   -0.2808   -1.8014 H   0  0  0  0  0  0  0  0  0  0  0  0
   -2.5590   -1.8286   -0.9324 H   0  0  0  0  0  0  0  0  0  0  0  0
  1  2  1  0
  2  3  1  0
  3  4  1  0
  3  5  1  0
  5  6  1  0
  5  7  1  0
  7  8  1  0
  7  9  1  0
  1 10  1  0
  1 11  1  0
  1 12  1  0
  2 13  1  0
  2 14  1  0
  3 15  1  0
  4 16  1  0
  5 17  1  0
  6 18  1  0
  6 19  1  0
  6 20  1  0
  7 21  1  0
  8 22  1  0
  8 23  1  0
  8 24  1  0
  9 25  1  0
  9 26  1  0
  9 27  1  0
M  END
