
     RDKit          3D

 25 24  0  0  0  0  0  0  0  0999 V2000
   -2.6689   -0.7153    0.8512 C   0  0  0  0  0  0  0  0  0  0  0  0
   -1.8500   -1.7677    0.1939 C   0  0  0  0  0  0  0  0  0  0  0  0
   -0.9889   -1.2659   -0.9345 C   0  0  0  0  0  0  0  0  0  0  0  0
   -1.7397   -0.6404   -2.0501 C   0  0  0  0  0  0  0  0  0  0  0  0
    0.0021   -0.3015   -0.4528 C   0  0  0  0  0  0  0  0  0  0  0  0
    0.8234    0.5141   -0.0602 C   0  0  0  0  0  0  0  0  0  0  0  0
    1.8249    1.4838    0.3929 C   0  0  0  0  0  0  0  0  0  0  0  0
    3.0614    1.2602   -0.4517 C   0  0  0  0  0  0  0  0  0  0  0  0
    2.1171    1.3167    1.8749 C   0  0  0  0  0  0  0  0  0  0  0  0
   -2.8286   -1.0196    1.9225 H   0  0  0  0  0  0  0  0  0  0  0  0
   -2.1575    0.2603    0.8912 H   0  0  0  0  0  0  0  0  0  0  0  0
   -3.6818   -0.6709    0.4092 H   0  0  0  0  0  0  0  0  0  0  0  0
   -2.4659   -2.6335   -0.0974 H   0  0  0  0  0  0  0  0  0  0  0  0
   -1.1346   -2.1651    0.9730 H   0  0  0  0  0  0  0  0  0  0  0  0
   -0.4523   -2.1736   -1.3389 H   0  0  0  0  0  0  0  0  0  0  0  0
   -1.6498   -1.2179   -2.9933 H   0  0  0  0  0  0  0  0  0  0  0  0
   -2.8223   -0.5020   -1.8585 H   0  0  0  0  0  0  0  0  0  0  0  0
   -1.3543    0.3889   -2.3051 H   0  0  0  0  0  0  0  0  0  0  0  0
    1.4367    2.5346    0.2756 H   0  0  0  0  0  0  0  0  0  0  0  0
    3.1571    2.1015   -1.1656 H   0  0  0  0  0  0  0  0  0  0  0  0
    3.9217    1.1964    0.2312 H   0  0  0  0  0  0  0  0  0  0  0  0
    2.9942    0.3393   -1.0637 H   0  0  0  0  0  0  0  0  0  0  0  0
    3.0808    0.7778    2.0428 H   0  0  0  0  0  0  0  0  0  0  0  0
    2.0605    2.2567    2.4292 H   0  0  0  0  0  0  0  0  0  0  0  0
    1.3146    0.6430    2.2843 H   0  0  0  0  0  0  0  0  0  0  0  0
  1  2  1  0
  2  3  1  0
  3  4  1  0
  3  5  1  0
  5  6  3  0
  6  7  1  0
  7  8  1  0
  7  9  1  0
  1 10  1  0
  1 11  1  0
  1 12  1  0
  2 13  1  0
  2 14  1  0
  3 15  1  0
  4 16  1  0
  4 17  1  0
  4 18  1  0
  7 19  1  0
  8 20  1  0
  8 21  1  0
  8 22  1  0
  9 23  1  0
  9 24  1  0
  9 25  1  0
M  END
