
     RDKit          3D

 18 17  0  0  0  0  0  0  0  0999 V2000
   -2.4583   -0.0632   -0.7637 C   0  0  0  0  0  0  0  0  0  0  0  0
   -1.1194    0.3113   -0.1848 C   0  0  0  0  0  0  0  0  0  0  0  0
   -0.0508   -0.6936   -0.5672 C   0  0  0  0  0  0  0  0  0  0  0  0
   -0.3978   -1.9555   -0.0887 O   0  0  0  0  0  0  0  0  0  0  0  0
    1.2376   -0.3066    0.0591 C   0  0  0  0  0  0  0  0  0  0  0  0
    1.8092   -1.0386    0.8426 O   0  0  0  0  0  0  0  0  0  0  0  0
    1.8597    1.0034   -0.2669 C   0  0  0  0  0  0  0  0  0  0  0  0
    3.0441    1.1853    0.4059 O   0  0  0  0  0  0  0  0  0  0  0  0
   -2.9675    0.7947   -1.2663 H   0  0  0  0  0  0  0  0  0  0  0  0
   -3.1572   -0.4687    0.0175 H   0  0  0  0  0  0  0  0  0  0  0  0
   -2.2810   -0.8964   -1.4988 H   0  0  0  0  0  0  0  0  0  0  0  0
   -0.8103    1.3485   -0.4232 H   0  0  0  0  0  0  0  0  0  0  0  0
   -1.2223    0.2734    0.9231 H   0  0  0  0  0  0  0  0  0  0  0  0
    0.0434   -0.7942   -1.6704 H   0  0  0  0  0  0  0  0  0  0  0  0
   -0.1126   -1.9824    0.8571 H   0  0  0  0  0  0  0  0  0  0  0  0
    1.9696    1.1164   -1.3650 H   0  0  0  0  0  0  0  0  0  0  0  0
    1.1597    1.8246    0.0541 H   0  0  0  0  0  0  0  0  0  0  0  0
    3.4542    0.3415    0.6970 H   0  0  0  0  0  0  0  0  0  0  0  0
  1  2  1  0
  2  3  1  0
  3  4  1  0
  3  5  1  0
  5  6  2  0
  5  7  1  0
  7  8  1  0
  1  9  1  0
  1 10  1  0
  1 11  1  0
  2 12  1  0
  2 13  1  0
  3 14  1  0
  4 15  1  0
  7 16  1  0
  7 17  1  0
  8 18  1  0
M  END
