
     RDKit          3D

 20 19  0  0  0  0  0  0  0  0999 V2000
   -2.4595   -0.6354    0.0666 C   0  0  0  0  0  0  0  0  0  0  0  0
   -1.6629    0.6165   -0.0952 C   0  0  0  0  0  0  0  0  0  0  0  0
   -0.2190    0.4588    0.3668 C   0  0  0  0  0  0  0  0  0  0  0  0
    0.4424    1.6769    0.1837 O   0  0  0  0  0  0  0  0  0  0  0  0
    0.4925   -0.6063   -0.4339 C   0  0  0  0  0  0  0  0  0  0  0  0
    1.8944   -0.7872    0.0053 C   0  0  0  0  0  0  0  0  0  0  0  0
    2.7807    0.3667   -0.1032 C   0  0  0  0  0  0  0  0  0  0  0  0
    3.9213    0.2125    0.3637 O   0  0  0  0  0  0  0  0  0  0  0  0
   -2.0845   -1.3084    0.8800 H   0  0  0  0  0  0  0  0  0  0  0  0
   -3.5141   -0.3941    0.3858 H   0  0  0  0  0  0  0  0  0  0  0  0
   -2.5462   -1.1899   -0.9001 H   0  0  0  0  0  0  0  0  0  0  0  0
   -1.6962    0.9598   -1.1666 H   0  0  0  0  0  0  0  0  0  0  0  0
   -2.0873    1.4442    0.5064 H   0  0  0  0  0  0  0  0  0  0  0  0
   -0.2543    0.1812    1.4396 H   0  0  0  0  0  0  0  0  0  0  0  0
   -0.2360    2.3868    0.0844 H   0  0  0  0  0  0  0  0  0  0  0  0
   -0.0917   -1.5615   -0.2931 H   0  0  0  0  0  0  0  0  0  0  0  0
    0.4611   -0.3640   -1.5299 H   0  0  0  0  0  0  0  0  0  0  0  0
    2.3467   -1.6292   -0.5744 H   0  0  0  0  0  0  0  0  0  0  0  0
    1.9456   -1.1393    1.0632 H   0  0  0  0  0  0  0  0  0  0  0  0
    2.5670    1.3120   -0.5299 H   0  0  0  0  0  0  0  0  0  0  0  0
  1  2  1  0
  2  3  1  0
  3  4  1  0
  3  5  1  0
  5  6  1  0
  6  7  1  0
  7  8  2  0
  1  9  1  0
  1 10  1  0
  1 11  1  0
  2 12  1  0
  2 13  1  0
  3 14  1  0
  4 15  1  0
  5 16  1  0
  5 17  1  0
  6 18  1  0
  6 19  1  0
  7 20  1  0
M  END
