
     RDKit          3D

 23 23  0  0  0  0  0  0  0  0999 V2000
   -2.3843    0.5173    1.1871 C   0  0  0  0  0  0  0  0  0  0  0  0
   -0.9699    0.6234    0.7102 C   0  0  0  0  0  0  0  0  0  0  0  0
   -0.2826   -0.6763    0.5183 C   0  0  0  0  0  0  0  0  0  0  0  0
   -0.9555   -1.5728   -0.4948 C   0  0  0  0  0  0  0  0  0  0  0  0
   -2.2666   -1.8466   -0.0717 O   0  0  0  0  0  0  0  0  0  0  0  0
    1.1255   -0.3725   -0.0074 C   0  0  0  0  0  0  0  0  0  0  0  0
    1.0985    0.3550   -1.2859 O   0  0  0  0  0  0  0  0  0  0  0  0
    1.6335    0.9745   -0.0519 C   0  0  0  0  0  0  0  0  0  0  0  0
    3.1254    1.1825   -0.1114 C   0  0  0  0  0  0  0  0  0  0  0  0
   -2.6605    1.3994    1.8343 H   0  0  0  0  0  0  0  0  0  0  0  0
   -2.6230   -0.3989    1.7286 H   0  0  0  0  0  0  0  0  0  0  0  0
   -3.0458    0.6024    0.2970 H   0  0  0  0  0  0  0  0  0  0  0  0
   -0.8910    1.2003   -0.2470 H   0  0  0  0  0  0  0  0  0  0  0  0
   -0.4044    1.2062    1.4650 H   0  0  0  0  0  0  0  0  0  0  0  0
   -0.1230   -1.2505    1.4504 H   0  0  0  0  0  0  0  0  0  0  0  0
   -0.4484   -2.5566   -0.5528 H   0  0  0  0  0  0  0  0  0  0  0  0
   -0.9963   -1.1554   -1.4979 H   0  0  0  0  0  0  0  0  0  0  0  0
   -2.2752   -2.5284    0.6333 H   0  0  0  0  0  0  0  0  0  0  0  0
    1.8207   -1.2084   -0.0554 H   0  0  0  0  0  0  0  0  0  0  0  0
    1.0510    1.8777    0.1541 H   0  0  0  0  0  0  0  0  0  0  0  0
    3.3734    2.1657   -0.5718 H   0  0  0  0  0  0  0  0  0  0  0  0
    3.5506    1.0674    0.8887 H   0  0  0  0  0  0  0  0  0  0  0  0
    3.5479    0.3945   -0.7657 H   0  0  0  0  0  0  0  0  0  0  0  0
  1  2  1  0
  2  3  1  0
  3  4  1  0
  4  5  1  0
  3  6  1  0
  6  7  1  0
  7  8  1  0
  8  9  1  0
  8  6  1  0
  1 10  1  0
  1 11  1  0
  1 12  1  0
  2 13  1  0
  2 14  1  0
  3 15  1  0
  4 16  1  0
  4 17  1  0
  5 18  1  0
  6 19  1  0
  8 20  1  0
  9 21  1  0
  9 22  1  0
  9 23  1  0
M  END
