
     RDKit          3D

 25 24  0  0  0  0  0  0  0  0999 V2000
   -0.8089    2.1206    0.7785 C   0  0  0  0  0  0  0  0  0  0  0  0
   -1.0804    1.1234   -0.3445 C   0  0  0  0  0  0  0  0  0  0  0  0
   -0.2310   -0.0782   -0.0833 C   0  0  0  0  0  0  0  0  0  0  0  0
   -0.4013   -1.1561   -1.1266 C   0  0  0  0  0  0  0  0  0  0  0  0
    1.2140    0.3771   -0.0768 C   0  0  0  0  0  0  0  0  0  0  0  0
    2.1669   -0.7649    0.1801 C   0  0  0  0  0  0  0  0  0  0  0  0
    3.4584   -0.2211    0.1620 O   0  0  0  0  0  0  0  0  0  0  0  0
   -0.5118   -0.5882    1.1579 O   0  0  0  0  0  0  0  0  0  0  0  0
   -1.8026   -0.9870    1.3453 C   0  0  0  0  0  0  0  0  0  0  0  0
   -0.0244    2.8587    0.4728 H   0  0  0  0  0  0  0  0  0  0  0  0
   -0.5270    1.5884    1.7156 H   0  0  0  0  0  0  0  0  0  0  0  0
   -1.7139    2.7220    1.0070 H   0  0  0  0  0  0  0  0  0  0  0  0
   -2.1685    0.9301   -0.3466 H   0  0  0  0  0  0  0  0  0  0  0  0
   -0.8557    1.6173   -1.3110 H   0  0  0  0  0  0  0  0  0  0  0  0
   -0.1429   -2.1254   -0.6247 H   0  0  0  0  0  0  0  0  0  0  0  0
   -1.4163   -1.2124   -1.5400 H   0  0  0  0  0  0  0  0  0  0  0  0
    0.2918   -1.0371   -1.9854 H   0  0  0  0  0  0  0  0  0  0  0  0
    1.5156    0.8506   -1.0344 H   0  0  0  0  0  0  0  0  0  0  0  0
    1.3920    1.1274    0.7207 H   0  0  0  0  0  0  0  0  0  0  0  0
    2.1540   -1.5010   -0.6745 H   0  0  0  0  0  0  0  0  0  0  0  0
    2.0203   -1.2428    1.1544 H   0  0  0  0  0  0  0  0  0  0  0  0
    4.0787   -1.0111    0.1239 H   0  0  0  0  0  0  0  0  0  0  0  0
   -2.1483   -1.7803    0.6578 H   0  0  0  0  0  0  0  0  0  0  0  0
   -1.9076   -1.4380    2.3745 H   0  0  0  0  0  0  0  0  0  0  0  0
   -2.5510   -0.1721    1.3204 H   0  0  0  0  0  0  0  0  0  0  0  0
  1  2  1  0
  2  3  1  0
  3  4  1  0
  3  5  1  0
  5  6  1  0
  6  7  1  0
  3  8  1  0
  8  9  1  0
  1 10  1  0
  1 11  1  0
  1 12  1  0
  2 13  1  0
  2 14  1  0
  4 15  1  0
  4 16  1  0
  4 17  1  0
  5 18  1  0
  5 19  1  0
  6 20  1  0
  6 21  1  0
  7 22  1  0
  9 23  1  0
  9 24  1  0
  9 25  1  0
M  END
