
     RDKit          3D

 19 19  0  0  0  0  0  0  0  0999 V2000
    3.4220   -0.0919   -0.2635 C   0  0  0  0  0  0  0  0  0  0  0  0
    2.0930    0.5726   -0.5453 C   0  0  0  0  0  0  0  0  0  0  0  0
    0.9840   -0.0710    0.1754 C   0  0  0  0  0  0  0  0  0  0  0  0
    1.1188   -1.0612    0.9404 O   0  0  0  0  0  0  0  0  0  0  0  0
   -0.2860    0.4245    0.0174 O   0  0  0  0  0  0  0  0  0  0  0  0
   -1.4337   -0.0743    0.6298 C   0  0  0  0  0  0  0  0  0  0  0  0
   -2.6485    0.6842    0.8803 C   0  0  0  0  0  0  0  0  0  0  0  0
   -2.6322   -0.1750   -0.3240 C   0  0  0  0  0  0  0  0  0  0  0  0
   -3.2422   -1.4083   -0.3572 O   0  0  0  0  0  0  0  0  0  0  0  0
    4.0685    0.0084   -1.1387 H   0  0  0  0  0  0  0  0  0  0  0  0
    3.9256    0.3857    0.6048 H   0  0  0  0  0  0  0  0  0  0  0  0
    3.2662   -1.1706   -0.0515 H   0  0  0  0  0  0  0  0  0  0  0  0
    2.1956    1.6303   -0.1680 H   0  0  0  0  0  0  0  0  0  0  0  0
    1.9286    0.6239   -1.6461 H   0  0  0  0  0  0  0  0  0  0  0  0
   -1.2440   -0.9519    1.2947 H   0  0  0  0  0  0  0  0  0  0  0  0
   -2.6988    1.7969    0.7160 H   0  0  0  0  0  0  0  0  0  0  0  0
   -3.2904    0.3865    1.7471 H   0  0  0  0  0  0  0  0  0  0  0  0
   -2.5698    0.3375   -1.2942 H   0  0  0  0  0  0  0  0  0  0  0  0
   -2.9569   -1.8463   -1.2173 H   0  0  0  0  0  0  0  0  0  0  0  0
  1  2  1  0
  2  3  1  0
  3  4  2  0
  3  5  1  0
  5  6  1  0
  6  7  1  0
  7  8  1  0
  8  9  1  0
  8  6  1  0
  1 10  1  0
  1 11  1  0
  1 12  1  0
  2 13  1  0
  2 14  1  0
  6 15  1  0
  7 16  1  0
  7 17  1  0
  8 18  1  0
  9 19  1  0
M  END
