
     RDKit          3D

 25 24  0  0  0  0  0  0  0  0999 V2000
   -2.2056   -0.8961    1.0501 C   0  0  0  0  0  0  0  0  0  0  0  0
   -1.3102    0.3204    1.0125 C   0  0  0  0  0  0  0  0  0  0  0  0
   -0.8307    0.6529   -0.3782 C   0  0  0  0  0  0  0  0  0  0  0  0
   -2.0219    0.9496   -1.2929 C   0  0  0  0  0  0  0  0  0  0  0  0
    0.0363   -0.2364   -0.9409 O   0  0  0  0  0  0  0  0  0  0  0  0
    1.2731    0.1797   -1.2889 C   0  0  0  0  0  0  0  0  0  0  0  0
    2.0438    0.5585   -0.0506 C   0  0  0  0  0  0  0  0  0  0  0  0
    2.1741   -0.7419    0.7633 C   0  0  0  0  0  0  0  0  0  0  0  0
    2.8965   -1.6870   -0.0156 O   0  0  0  0  0  0  0  0  0  0  0  0
   -3.1194   -0.7849    0.4432 H   0  0  0  0  0  0  0  0  0  0  0  0
   -2.5288   -1.0173    2.1048 H   0  0  0  0  0  0  0  0  0  0  0  0
   -1.6199   -1.8062    0.7980 H   0  0  0  0  0  0  0  0  0  0  0  0
   -0.4984    0.1593    1.7350 H   0  0  0  0  0  0  0  0  0  0  0  0
   -1.9692    1.1698    1.3535 H   0  0  0  0  0  0  0  0  0  0  0  0
   -0.3119    1.6322   -0.3034 H   0  0  0  0  0  0  0  0  0  0  0  0
   -2.2880    0.0885   -1.9129 H   0  0  0  0  0  0  0  0  0  0  0  0
   -1.7987    1.7844   -1.9912 H   0  0  0  0  0  0  0  0  0  0  0  0
   -2.8483    1.3011   -0.6332 H   0  0  0  0  0  0  0  0  0  0  0  0
    1.8311   -0.7062   -1.7191 H   0  0  0  0  0  0  0  0  0  0  0  0
    1.3262    0.9388   -2.0859 H   0  0  0  0  0  0  0  0  0  0  0  0
    3.0742    0.9320   -0.3087 H   0  0  0  0  0  0  0  0  0  0  0  0
    1.4848    1.2934    0.5392 H   0  0  0  0  0  0  0  0  0  0  0  0
    1.1615   -1.1714    0.8400 H   0  0  0  0  0  0  0  0  0  0  0  0
    2.6675   -0.5899    1.7260 H   0  0  0  0  0  0  0  0  0  0  0  0
    3.3818   -2.3233    0.5558 H   0  0  0  0  0  0  0  0  0  0  0  0
  1  2  1  0
  2  3  1  0
  3  4  1  0
  3  5  1  0
  5  6  1  0
  6  7  1  0
  7  8  1  0
  8  9  1  0
  1 10  1  0
  1 11  1  0
  1 12  1  0
  2 13  1  0
  2 14  1  0
  3 15  1  0
  4 16  1  0
  4 17  1  0
  4 18  1  0
  6 19  1  0
  6 20  1  0
  7 21  1  0
  7 22  1  0
  8 23  1  0
  8 24  1  0
  9 25  1  0
M  END
