
     RDKit          3D

 25 24  0  0  0  0  0  0  0  0999 V2000
   -1.3887   -2.1101   -0.9277 C   0  0  0  0  0  0  0  0  0  0  0  0
   -1.2809   -1.2051    0.2362 C   0  0  0  0  0  0  0  0  0  0  0  0
   -0.6625    0.1318    0.0227 C   0  0  0  0  0  0  0  0  0  0  0  0
   -0.7119    0.7655    1.2961 O   0  0  0  0  0  0  0  0  0  0  0  0
   -1.3672    1.9858    1.2088 C   0  0  0  0  0  0  0  0  0  0  0  0
    0.8349   -0.0331   -0.2272 C   0  0  0  0  0  0  0  0  0  0  0  0
    1.1625   -0.6164   -1.5648 C   0  0  0  0  0  0  0  0  0  0  0  0
    1.4532    1.2409   -0.1942 O   0  0  0  0  0  0  0  0  0  0  0  0
    2.3202    1.2625    0.8640 C   0  0  0  0  0  0  0  0  0  0  0  0
   -1.8100   -1.6320   -1.8402 H   0  0  0  0  0  0  0  0  0  0  0  0
   -0.5151   -2.6838   -1.2152 H   0  0  0  0  0  0  0  0  0  0  0  0
   -2.1752   -2.8873   -0.6606 H   0  0  0  0  0  0  0  0  0  0  0  0
   -0.7369   -1.7283    1.0580 H   0  0  0  0  0  0  0  0  0  0  0  0
   -2.3252   -1.0781    0.6569 H   0  0  0  0  0  0  0  0  0  0  0  0
   -1.1617    0.7944   -0.6751 H   0  0  0  0  0  0  0  0  0  0  0  0
   -2.3984    1.9147    0.8589 H   0  0  0  0  0  0  0  0  0  0  0  0
   -1.3226    2.4703    2.1997 H   0  0  0  0  0  0  0  0  0  0  0  0
   -0.8355    2.6712    0.5084 H   0  0  0  0  0  0  0  0  0  0  0  0
    1.2388   -0.6273    0.6122 H   0  0  0  0  0  0  0  0  0  0  0  0
    1.9438   -0.0040   -2.1163 H   0  0  0  0  0  0  0  0  0  0  0  0
    0.3359   -0.7165   -2.2645 H   0  0  0  0  0  0  0  0  0  0  0  0
    1.6032   -1.6407   -1.4185 H   0  0  0  0  0  0  0  0  0  0  0  0
    1.8148    1.0891    1.8358 H   0  0  0  0  0  0  0  0  0  0  0  0
    2.8981    2.1951    0.9608 H   0  0  0  0  0  0  0  0  0  0  0  0
    3.0863    0.4417    0.7858 H   0  0  0  0  0  0  0  0  0  0  0  0
  1  2  1  0
  2  3  1  0
  3  4  1  0
  4  5  1  0
  3  6  1  0
  6  7  1  0
  6  8  1  0
  8  9  1  0
  1 10  1  0
  1 11  1  0
  1 12  1  0
  2 13  1  0
  2 14  1  0
  3 15  1  0
  5 16  1  0
  5 17  1  0
  5 18  1  0
  6 19  1  0
  7 20  1  0
  7 21  1  0
  7 22  1  0
  9 23  1  0
  9 24  1  0
  9 25  1  0
M  END
