
     RDKit          3D

 23 22  0  0  0  0  0  0  0  0999 V2000
    3.3049   -0.2645    0.3811 C   0  0  0  0  0  0  0  0  0  0  0  0
    2.0173   -0.3004   -0.3792 C   0  0  0  0  0  0  0  0  0  0  0  0
    0.9785    0.5582    0.2446 C   0  0  0  0  0  0  0  0  0  0  0  0
    1.2835    1.1645    1.2580 O   0  0  0  0  0  0  0  0  0  0  0  0
   -0.3792    0.7127   -0.2891 C   0  0  0  0  0  0  0  0  0  0  0  0
   -0.6102   -0.0235   -1.4425 O   0  0  0  0  0  0  0  0  0  0  0  0
   -1.4504    0.4489    0.7546 C   0  0  0  0  0  0  0  0  0  0  0  0
   -1.3588   -0.9551    1.3067 C   0  0  0  0  0  0  0  0  0  0  0  0
   -2.8276    0.6124    0.1512 C   0  0  0  0  0  0  0  0  0  0  0  0
    3.8849   -1.1774    0.1507 H   0  0  0  0  0  0  0  0  0  0  0  0
    3.0493   -0.2250    1.4715 H   0  0  0  0  0  0  0  0  0  0  0  0
    3.8382    0.6727    0.1036 H   0  0  0  0  0  0  0  0  0  0  0  0
    2.1956    0.0555   -1.3972 H   0  0  0  0  0  0  0  0  0  0  0  0
    1.6087   -1.3392   -0.4025 H   0  0  0  0  0  0  0  0  0  0  0  0
   -0.5082    1.7914   -0.5803 H   0  0  0  0  0  0  0  0  0  0  0  0
   -0.1455   -0.8972   -1.4294 H   0  0  0  0  0  0  0  0  0  0  0  0
   -1.2703    1.1508    1.5907 H   0  0  0  0  0  0  0  0  0  0  0  0
   -2.3079   -1.1556    1.8474 H   0  0  0  0  0  0  0  0  0  0  0  0
   -1.2708   -1.7191    0.5138 H   0  0  0  0  0  0  0  0  0  0  0  0
   -0.5270   -1.0853    2.0202 H   0  0  0  0  0  0  0  0  0  0  0  0
   -3.3521    1.4476    0.6990 H   0  0  0  0  0  0  0  0  0  0  0  0
   -3.4494   -0.3130    0.2660 H   0  0  0  0  0  0  0  0  0  0  0  0
   -2.7035    0.8406   -0.9167 H   0  0  0  0  0  0  0  0  0  0  0  0
  1  2  1  0
  2  3  1  0
  3  4  2  0
  3  5  1  0
  5  6  1  0
  5  7  1  0
  7  8  1  0
  7  9  1  0
  1 10  1  0
  1 11  1  0
  1 12  1  0
  2 13  1  0
  2 14  1  0
  5 15  1  0
  6 16  1  0
  7 17  1  0
  8 18  1  0
  8 19  1  0
  8 20  1  0
  9 21  1  0
  9 22  1  0
  9 23  1  0
M  END
