
     RDKit          3D

 25 25  0  0  0  0  0  0  0  0999 V2000
   -2.0201    0.9893   -0.7459 C   0  0  0  0  0  0  0  0  0  0  0  0
   -1.5267    0.5945    0.6274 C   0  0  0  0  0  0  0  0  0  0  0  0
   -0.7758   -0.6764    0.6764 C   0  0  0  0  0  0  0  0  0  0  0  0
   -1.6585   -1.8528    0.2072 C   0  0  0  0  0  0  0  0  0  0  0  0
    0.5416   -0.7787    0.0117 C   0  0  0  0  0  0  0  0  0  0  0  0
    1.6378    0.1304    0.4514 C   0  0  0  0  0  0  0  0  0  0  0  0
    2.9956   -0.0546   -0.2069 C   0  0  0  0  0  0  0  0  0  0  0  0
    1.3745    1.6602    0.5070 C   0  0  0  0  0  0  0  0  0  0  0  0
    1.3934    0.8412    1.5747 O   0  0  0  0  0  0  0  0  0  0  0  0
   -2.8110    0.3036   -1.1150 H   0  0  0  0  0  0  0  0  0  0  0  0
   -2.4705    2.0136   -0.6343 H   0  0  0  0  0  0  0  0  0  0  0  0
   -1.2002    0.9849   -1.4766 H   0  0  0  0  0  0  0  0  0  0  0  0
   -1.1208    1.4654    1.1187 H   0  0  0  0  0  0  0  0  0  0  0  0
   -2.5244    0.4480    1.2100 H   0  0  0  0  0  0  0  0  0  0  0  0
   -0.6077   -0.9202    1.7710 H   0  0  0  0  0  0  0  0  0  0  0  0
   -1.9969   -1.6947   -0.8200 H   0  0  0  0  0  0  0  0  0  0  0  0
   -1.0001   -2.7387    0.2247 H   0  0  0  0  0  0  0  0  0  0  0  0
   -2.4635   -2.0251    0.9259 H   0  0  0  0  0  0  0  0  0  0  0  0
    0.4568   -0.8211   -1.1121 H   0  0  0  0  0  0  0  0  0  0  0  0
    0.9194   -1.8276    0.2542 H   0  0  0  0  0  0  0  0  0  0  0  0
    3.0073   -1.0772   -0.6383 H   0  0  0  0  0  0  0  0  0  0  0  0
    3.8323    0.1265    0.4986 H   0  0  0  0  0  0  0  0  0  0  0  0
    3.1366    0.6378   -1.0663 H   0  0  0  0  0  0  0  0  0  0  0  0
    2.2638    2.3392    0.4571 H   0  0  0  0  0  0  0  0  0  0  0  0
    0.6171    1.9324   -0.1957 H   0  0  0  0  0  0  0  0  0  0  0  0
  1  2  1  0
  2  3  1  0
  3  4  1  0
  3  5  1  0
  5  6  1  0
  6  7  1  0
  6  8  1  0
  8  9  1  0
  9  6  1  0
  1 10  1  0
  1 11  1  0
  1 12  1  0
  2 13  1  0
  2 14  1  0
  3 15  1  0
  4 16  1  0
  4 17  1  0
  4 18  1  0
  5 19  1  0
  5 20  1  0
  7 21  1  0
  7 22  1  0
  7 23  1  0
  8 24  1  0
  8 25  1  0
M  END
