
     RDKit          3D

 19 19  0  0  0  0  0  0  0  0999 V2000
   -2.4470   -0.0355    0.6047 C   0  0  0  0  0  0  0  0  0  0  0  0
   -1.6103   -0.7997   -0.3737 C   0  0  0  0  0  0  0  0  0  0  0  0
   -0.4466    0.0082   -0.9145 C   0  0  0  0  0  0  0  0  0  0  0  0
    0.2501   -0.7821   -1.7967 O   0  0  0  0  0  0  0  0  0  0  0  0
    0.4551    0.4639    0.1594 C   0  0  0  0  0  0  0  0  0  0  0  0
    0.0668    1.1773    1.0604 O   0  0  0  0  0  0  0  0  0  0  0  0
    1.8695    0.0446    0.1440 C   0  0  0  0  0  0  0  0  0  0  0  0
    2.8141    0.3829    1.1881 C   0  0  0  0  0  0  0  0  0  0  0  0
    2.7243    1.2797    0.0217 O   0  0  0  0  0  0  0  0  0  0  0  0
   -2.3425   -0.5063    1.6003 H   0  0  0  0  0  0  0  0  0  0  0  0
   -2.2177    1.0328    0.5819 H   0  0  0  0  0  0  0  0  0  0  0  0
   -3.5248   -0.1377    0.3329 H   0  0  0  0  0  0  0  0  0  0  0  0
   -2.2281   -1.0752   -1.2751 H   0  0  0  0  0  0  0  0  0  0  0  0
   -1.2259   -1.7589    0.0558 H   0  0  0  0  0  0  0  0  0  0  0  0
   -0.8721    0.9240   -1.3850 H   0  0  0  0  0  0  0  0  0  0  0  0
    0.3597   -0.2699   -2.6541 H   0  0  0  0  0  0  0  0  0  0  0  0
    2.1605   -0.6023   -0.6996 H   0  0  0  0  0  0  0  0  0  0  0  0
    3.7531   -0.1903    1.2299 H   0  0  0  0  0  0  0  0  0  0  0  0
    2.4617    0.8445    2.1195 H   0  0  0  0  0  0  0  0  0  0  0  0
  1  2  1  0
  2  3  1  0
  3  4  1  0
  3  5  1  0
  5  6  2  0
  5  7  1  0
  7  8  1  0
  8  9  1  0
  9  7  1  0
  1 10  1  0
  1 11  1  0
  1 12  1  0
  2 13  1  0
  2 14  1  0
  3 15  1  0
  4 16  1  0
  7 17  1  0
  8 18  1  0
  8 19  1  0
M  END
