
     RDKit          3D

 25 24  0  0  0  0  0  0  0  0999 V2000
   -1.6018   -1.9484   -0.2062 C   0  0  0  0  0  0  0  0  0  0  0  0
   -0.3682   -1.2339    0.3251 C   0  0  0  0  0  0  0  0  0  0  0  0
   -0.0801    0.0141   -0.4388 C   0  0  0  0  0  0  0  0  0  0  0  0
    0.1322   -0.3547   -1.7688 O   0  0  0  0  0  0  0  0  0  0  0  0
   -1.1566    1.0440   -0.4155 C   0  0  0  0  0  0  0  0  0  0  0  0
   -1.5387    1.5724    0.9079 C   0  0  0  0  0  0  0  0  0  0  0  0
    1.2086    0.6369    0.0512 C   0  0  0  0  0  0  0  0  0  0  0  0
    2.3985   -0.2621   -0.1041 C   0  0  0  0  0  0  0  0  0  0  0  0
    3.5091    0.4505    0.3898 O   0  0  0  0  0  0  0  0  0  0  0  0
   -1.6491   -1.7987   -1.2940 H   0  0  0  0  0  0  0  0  0  0  0  0
   -2.5230   -1.6487    0.3280 H   0  0  0  0  0  0  0  0  0  0  0  0
   -1.5163   -3.0634   -0.0453 H   0  0  0  0  0  0  0  0  0  0  0  0
   -0.4065   -1.0984    1.4221 H   0  0  0  0  0  0  0  0  0  0  0  0
    0.4716   -1.9396    0.1431 H   0  0  0  0  0  0  0  0  0  0  0  0
    0.1751    0.5186   -2.2748 H   0  0  0  0  0  0  0  0  0  0  0  0
   -2.0903    0.6317   -0.8996 H   0  0  0  0  0  0  0  0  0  0  0  0
   -0.8576    1.8862   -1.0755 H   0  0  0  0  0  0  0  0  0  0  0  0
   -1.1547    1.0337    1.7778 H   0  0  0  0  0  0  0  0  0  0  0  0
   -1.2151    2.6473    1.0462 H   0  0  0  0  0  0  0  0  0  0  0  0
   -2.6595    1.6207    1.0461 H   0  0  0  0  0  0  0  0  0  0  0  0
    1.1209    1.0522    1.0605 H   0  0  0  0  0  0  0  0  0  0  0  0
    1.3918    1.5216   -0.6264 H   0  0  0  0  0  0  0  0  0  0  0  0
    2.3449   -1.2013    0.4437 H   0  0  0  0  0  0  0  0  0  0  0  0
    2.5827   -0.4826   -1.1694 H   0  0  0  0  0  0  0  0  0  0  0  0
    3.4821    0.4017    1.3768 H   0  0  0  0  0  0  0  0  0  0  0  0
  1  2  1  0
  2  3  1  0
  3  4  1  0
  3  5  1  0
  5  6  1  0
  3  7  1  0
  7  8  1  0
  8  9  1  0
  1 10  1  0
  1 11  1  0
  1 12  1  0
  2 13  1  0
  2 14  1  0
  4 15  1  0
  5 16  1  0
  5 17  1  0
  6 18  1  0
  6 19  1  0
  6 20  1  0
  7 21  1  0
  7 22  1  0
  8 23  1  0
  8 24  1  0
  9 25  1  0
M  END
