
     RDKit          3D

 21 21  0  0  0  0  0  0  0  0999 V2000
   -3.1562    0.7882   -0.2375 C   0  0  0  0  0  0  0  0  0  0  0  0
   -1.7540    0.3039   -0.5466 C   0  0  0  0  0  0  0  0  0  0  0  0
   -0.9951    0.1135    0.7133 C   0  0  0  0  0  0  0  0  0  0  0  0
   -1.4742    0.3349    1.8076 O   0  0  0  0  0  0  0  0  0  0  0  0
    0.4032   -0.3655    0.6431 C   0  0  0  0  0  0  0  0  0  0  0  0
    0.6436   -1.5154   -0.3427 C   0  0  0  0  0  0  0  0  0  0  0  0
    1.2134   -0.1956   -0.6105 C   0  0  0  0  0  0  0  0  0  0  0  0
    2.6839    0.0973   -0.3407 C   0  0  0  0  0  0  0  0  0  0  0  0
    3.4038    0.2488   -1.5292 O   0  0  0  0  0  0  0  0  0  0  0  0
   -3.8545   -0.0285   -0.0376 H   0  0  0  0  0  0  0  0  0  0  0  0
   -3.1676    1.4470    0.6676 H   0  0  0  0  0  0  0  0  0  0  0  0
   -3.5095    1.3696   -1.1107 H   0  0  0  0  0  0  0  0  0  0  0  0
   -1.2027    1.0277   -1.1887 H   0  0  0  0  0  0  0  0  0  0  0  0
   -1.8573   -0.6296   -1.1304 H   0  0  0  0  0  0  0  0  0  0  0  0
    0.9085   -0.4861    1.6127 H   0  0  0  0  0  0  0  0  0  0  0  0
   -0.2228   -1.8720   -0.9002 H   0  0  0  0  0  0  0  0  0  0  0  0
    1.3396   -2.3129   -0.0171 H   0  0  0  0  0  0  0  0  0  0  0  0
    0.7290    0.4287   -1.3882 H   0  0  0  0  0  0  0  0  0  0  0  0
    3.1336   -0.7801    0.1839 H   0  0  0  0  0  0  0  0  0  0  0  0
    2.7737    0.9492    0.3364 H   0  0  0  0  0  0  0  0  0  0  0  0
    3.9617    1.0767   -1.3877 H   0  0  0  0  0  0  0  0  0  0  0  0
  1  2  1  0
  2  3  1  0
  3  4  2  0
  3  5  1  0
  5  6  1  0
  6  7  1  0
  7  8  1  0
  8  9  1  0
  7  5  1  0
  1 10  1  0
  1 11  1  0
  1 12  1  0
  2 13  1  0
  2 14  1  0
  5 15  1  0
  6 16  1  0
  6 17  1  0
  7 18  1  0
  8 19  1  0
  8 20  1  0
  9 21  1  0
M  END
