
     RDKit          3D

 23 22  0  0  0  0  0  0  0  0999 V2000
    2.2362    0.4711   -0.1207 C   0  0  0  0  0  0  0  0  0  0  0  0
    1.2517   -0.3874    0.5869 C   0  0  0  0  0  0  0  0  0  0  0  0
   -0.0755   -0.5238   -0.0675 C   0  0  0  0  0  0  0  0  0  0  0  0
   -0.9346   -1.4323    0.8009 C   0  0  0  0  0  0  0  0  0  0  0  0
    0.1116   -1.2711   -1.3661 C   0  0  0  0  0  0  0  0  0  0  0  0
    0.1831   -0.6853   -2.4363 O   0  0  0  0  0  0  0  0  0  0  0  0
   -0.7860    0.7334   -0.3869 C   0  0  0  0  0  0  0  0  0  0  0  0
   -1.1034    1.6171    0.7670 C   0  0  0  0  0  0  0  0  0  0  0  0
   -2.0082    0.3645   -0.9852 O   0  0  0  0  0  0  0  0  0  0  0  0
    1.9753    0.5856   -1.1883 H   0  0  0  0  0  0  0  0  0  0  0  0
    3.2667    0.0388   -0.0427 H   0  0  0  0  0  0  0  0  0  0  0  0
    2.3093    1.4596    0.3973 H   0  0  0  0  0  0  0  0  0  0  0  0
    1.1287   -0.0062    1.6385 H   0  0  0  0  0  0  0  0  0  0  0  0
    1.6943   -1.3993    0.7003 H   0  0  0  0  0  0  0  0  0  0  0  0
   -0.4062   -2.4178    0.8635 H   0  0  0  0  0  0  0  0  0  0  0  0
   -1.0674   -1.0131    1.8089 H   0  0  0  0  0  0  0  0  0  0  0  0
   -1.8884   -1.6020    0.2747 H   0  0  0  0  0  0  0  0  0  0  0  0
    0.1895   -2.3473   -1.4026 H   0  0  0  0  0  0  0  0  0  0  0  0
   -0.2243    1.3071   -1.1514 H   0  0  0  0  0  0  0  0  0  0  0  0
   -1.3109    1.0874    1.7098 H   0  0  0  0  0  0  0  0  0  0  0  0
   -0.3448    2.4382    0.9134 H   0  0  0  0  0  0  0  0  0  0  0  0
   -2.0500    2.1836    0.5287 H   0  0  0  0  0  0  0  0  0  0  0  0
   -2.1468    0.7991   -1.8422 H   0  0  0  0  0  0  0  0  0  0  0  0
  1  2  1  0
  2  3  1  0
  3  4  1  0
  3  5  1  0
  5  6  2  0
  3  7  1  0
  7  8  1  0
  7  9  1  0
  1 10  1  0
  1 11  1  0
  1 12  1  0
  2 13  1  0
  2 14  1  0
  4 15  1  0
  4 16  1  0
  4 17  1  0
  5 18  1  0
  7 19  1  0
  8 20  1  0
  8 21  1  0
  8 22  1  0
  9 23  1  0
M  END
