
     RDKit          3D

 27 26  0  0  0  0  0  0  0  0999 V2000
   -2.8208    0.8920   -0.8572 C   0  0  0  0  0  0  0  0  0  0  0  0
   -1.3912    1.2292   -0.5131 C   0  0  0  0  0  0  0  0  0  0  0  0
   -0.5775   -0.0377   -0.2396 C   0  0  0  0  0  0  0  0  0  0  0  0
   -1.2561   -0.7237    0.9280 C   0  0  0  0  0  0  0  0  0  0  0  0
   -0.6198   -0.9818   -1.3981 C   0  0  0  0  0  0  0  0  0  0  0  0
    0.7979    0.4065    0.1401 C   0  0  0  0  0  0  0  0  0  0  0  0
    1.7354   -0.7335    0.4447 C   0  0  0  0  0  0  0  0  0  0  0  0
    3.1108   -0.2326    0.8228 C   0  0  0  0  0  0  0  0  0  0  0  0
    3.0767    0.5830    1.9513 O   0  0  0  0  0  0  0  0  0  0  0  0
   -3.3899    0.4922    0.0122 H   0  0  0  0  0  0  0  0  0  0  0  0
   -2.8837    0.2410   -1.7515 H   0  0  0  0  0  0  0  0  0  0  0  0
   -3.3164    1.8475   -1.1265 H   0  0  0  0  0  0  0  0  0  0  0  0
   -0.9600    1.8266   -1.3197 H   0  0  0  0  0  0  0  0  0  0  0  0
   -1.4238    1.7940    0.4536 H   0  0  0  0  0  0  0  0  0  0  0  0
   -0.6494   -1.6082    1.2229 H   0  0  0  0  0  0  0  0  0  0  0  0
   -2.2587   -1.1046    0.5881 H   0  0  0  0  0  0  0  0  0  0  0  0
   -1.4273   -0.0603    1.7753 H   0  0  0  0  0  0  0  0  0  0  0  0
   -0.3883   -0.5146   -2.3741 H   0  0  0  0  0  0  0  0  0  0  0  0
    0.0062   -1.8473   -1.1637 H   0  0  0  0  0  0  0  0  0  0  0  0
   -1.6767   -1.3754   -1.4510 H   0  0  0  0  0  0  0  0  0  0  0  0
    0.7206    1.0345    1.0519 H   0  0  0  0  0  0  0  0  0  0  0  0
    1.2781    1.0354   -0.6368 H   0  0  0  0  0  0  0  0  0  0  0  0
    1.8515   -1.4285   -0.4034 H   0  0  0  0  0  0  0  0  0  0  0  0
    1.3702   -1.3334    1.3047 H   0  0  0  0  0  0  0  0  0  0  0  0
    3.8147   -1.0498    1.0299 H   0  0  0  0  0  0  0  0  0  0  0  0
    3.5546    0.3316   -0.0492 H   0  0  0  0  0  0  0  0  0  0  0  0
    3.7229    1.3180    1.7970 H   0  0  0  0  0  0  0  0  0  0  0  0
  1  2  1  0
  2  3  1  0
  3  4  1  0
  3  5  1  0
  3  6  1  0
  6  7  1  0
  7  8  1  0
  8  9  1  0
  1 10  1  0
  1 11  1  0
  1 12  1  0
  2 13  1  0
  2 14  1  0
  4 15  1  0
  4 16  1  0
  4 17  1  0
  5 18  1  0
  5 19  1  0
  5 20  1  0
  6 21  1  0
  6 22  1  0
  7 23  1  0
  7 24  1  0
  8 25  1  0
  8 26  1  0
  9 27  1  0
M  END
