
     RDKit          3D

 21 22  0  0  0  0  0  0  0  0999 V2000
   -2.2537   -0.2816   -0.5683 C   0  0  0  0  0  0  0  0  0  0  0  0
   -1.7916    0.9575    0.1639 C   0  0  0  0  0  0  0  0  0  0  0  0
   -0.4454    0.7414    0.8265 C   0  0  0  0  0  0  0  0  0  0  0  0
   -0.5008   -0.2969    1.7526 O   0  0  0  0  0  0  0  0  0  0  0  0
    0.6149    0.5642   -0.1986 C   0  0  0  0  0  0  0  0  0  0  0  0
    1.7427    1.6058   -0.2599 C   0  0  0  0  0  0  0  0  0  0  0  0
    2.0132    0.2482    0.2299 C   0  0  0  0  0  0  0  0  0  0  0  0
    1.9995   -0.8193   -0.8584 C   0  0  0  0  0  0  0  0  0  0  0  0
    0.6517   -0.5046   -1.0462 O   0  0  0  0  0  0  0  0  0  0  0  0
   -2.0524   -0.2154   -1.6599 H   0  0  0  0  0  0  0  0  0  0  0  0
   -1.6840   -1.1805   -0.2143 H   0  0  0  0  0  0  0  0  0  0  0  0
   -3.3495   -0.4187   -0.4421 H   0  0  0  0  0  0  0  0  0  0  0  0
   -2.5543    1.2896    0.9088 H   0  0  0  0  0  0  0  0  0  0  0  0
   -1.6755    1.7692   -0.5808 H   0  0  0  0  0  0  0  0  0  0  0  0
   -0.2250    1.6803    1.3924 H   0  0  0  0  0  0  0  0  0  0  0  0
   -1.2841   -0.2030    2.3226 H   0  0  0  0  0  0  0  0  0  0  0  0
    1.6954    2.4211    0.4461 H   0  0  0  0  0  0  0  0  0  0  0  0
    2.0135    1.8509   -1.3009 H   0  0  0  0  0  0  0  0  0  0  0  0
    2.1972   -0.0224    1.2630 H   0  0  0  0  0  0  0  0  0  0  0  0
    2.6712   -0.5011   -1.6742 H   0  0  0  0  0  0  0  0  0  0  0  0
    2.2170   -1.8275   -0.5021 H   0  0  0  0  0  0  0  0  0  0  0  0
  1  2  1  0
  2  3  1  0
  3  4  1  0
  3  5  1  0
  5  6  1  0
  6  7  1  0
  7  8  1  0
  8  9  1  0
  7  5  1  0
  9  5  1  0
  1 10  1  0
  1 11  1  0
  1 12  1  0
  2 13  1  0
  2 14  1  0
  3 15  1  0
  4 16  1  0
  6 17  1  0
  6 18  1  0
  7 19  1  0
  8 20  1  0
  8 21  1  0
M  END
