
     RDKit          3D

 22 22  0  0  0  0  0  0  0  0999 V2000
    2.8253   -0.1172   -0.0064 C   0  0  0  0  0  0  0  0  0  0  0  0
    1.4554   -0.2618   -0.6799 C   0  0  0  0  0  0  0  0  0  0  0  0
    0.4415   -0.0120    0.4168 C   0  0  0  0  0  0  0  0  0  0  0  0
    0.6908    1.2986    0.8865 O   0  0  0  0  0  0  0  0  0  0  0  0
   -0.9714   -0.0801   -0.1046 C   0  0  0  0  0  0  0  0  0  0  0  0
   -1.3781   -1.3870   -0.7165 C   0  0  0  0  0  0  0  0  0  0  0  0
   -2.0033    0.4690    0.8919 C   0  0  0  0  0  0  0  0  0  0  0  0
   -1.6327    1.1889   -0.4227 C   0  0  0  0  0  0  0  0  0  0  0  0
    2.7224   -0.5516    1.0237 H   0  0  0  0  0  0  0  0  0  0  0  0
    3.0059    0.9740    0.0622 H   0  0  0  0  0  0  0  0  0  0  0  0
    3.6110   -0.6530   -0.5728 H   0  0  0  0  0  0  0  0  0  0  0  0
    1.3435    0.5801   -1.4230 H   0  0  0  0  0  0  0  0  0  0  0  0
    1.3415   -1.2465   -1.1586 H   0  0  0  0  0  0  0  0  0  0  0  0
    0.6342   -0.7627    1.2267 H   0  0  0  0  0  0  0  0  0  0  0  0
    0.5299    1.3671    1.8599 H   0  0  0  0  0  0  0  0  0  0  0  0
   -1.3378   -2.1595    0.1033 H   0  0  0  0  0  0  0  0  0  0  0  0
   -0.7108   -1.6802   -1.5460 H   0  0  0  0  0  0  0  0  0  0  0  0
   -2.4358   -1.2989   -1.0600 H   0  0  0  0  0  0  0  0  0  0  0  0
   -1.6559    0.8952    1.8334 H   0  0  0  0  0  0  0  0  0  0  0  0
   -3.0196    0.0216    0.8805 H   0  0  0  0  0  0  0  0  0  0  0  0
   -1.0241    2.1251   -0.3173 H   0  0  0  0  0  0  0  0  0  0  0  0
   -2.4319    1.2909   -1.1771 H   0  0  0  0  0  0  0  0  0  0  0  0
  1  2  1  0
  2  3  1  0
  3  4  1  0
  3  5  1  0
  5  6  1  0
  5  7  1  0
  7  8  1  0
  8  5  1  0
  1  9  1  0
  1 10  1  0
  1 11  1  0
  2 12  1  0
  2 13  1  0
  3 14  1  0
  4 15  1  0
  6 16  1  0
  6 17  1  0
  6 18  1  0
  7 19  1  0
  7 20  1  0
  8 21  1  0
  8 22  1  0
M  END
