
     RDKit          3D

 23 22  0  0  0  0  0  0  0  0999 V2000
    2.8775    0.0690   -0.2303 C   0  0  0  0  0  0  0  0  0  0  0  0
    1.5046    0.6988   -0.1341 C   0  0  0  0  0  0  0  0  0  0  0  0
    0.4416   -0.3802   -0.1106 C   0  0  0  0  0  0  0  0  0  0  0  0
    0.4979   -1.1516   -1.2717 O   0  0  0  0  0  0  0  0  0  0  0  0
   -0.9485    0.2086   -0.0594 C   0  0  0  0  0  0  0  0  0  0  0  0
   -1.9265   -0.9448   -0.0395 C   0  0  0  0  0  0  0  0  0  0  0  0
   -1.8118   -1.7420   -1.1574 O   0  0  0  0  0  0  0  0  0  0  0  0
   -1.1609    1.1314    1.0903 C   0  0  0  0  0  0  0  0  0  0  0  0
   -2.4652    1.6066    1.0325 O   0  0  0  0  0  0  0  0  0  0  0  0
    2.8200   -0.6855   -1.0630 H   0  0  0  0  0  0  0  0  0  0  0  0
    3.1766   -0.4118    0.7248 H   0  0  0  0  0  0  0  0  0  0  0  0
    3.6412    0.8360   -0.4581 H   0  0  0  0  0  0  0  0  0  0  0  0
    1.3906    1.3919   -0.9703 H   0  0  0  0  0  0  0  0  0  0  0  0
    1.4692    1.2796    0.8100 H   0  0  0  0  0  0  0  0  0  0  0  0
    0.5691   -1.0012    0.7808 H   0  0  0  0  0  0  0  0  0  0  0  0
    1.1507   -1.8885   -1.2061 H   0  0  0  0  0  0  0  0  0  0  0  0
   -1.0833    0.7837   -0.9978 H   0  0  0  0  0  0  0  0  0  0  0  0
   -2.9649   -0.5038   -0.0498 H   0  0  0  0  0  0  0  0  0  0  0  0
   -1.8113   -1.5834    0.8467 H   0  0  0  0  0  0  0  0  0  0  0  0
   -1.3540   -2.5967   -0.9951 H   0  0  0  0  0  0  0  0  0  0  0  0
   -0.4719    1.9736    1.0699 H   0  0  0  0  0  0  0  0  0  0  0  0
   -1.0267    0.6100    2.0723 H   0  0  0  0  0  0  0  0  0  0  0  0
   -2.5139    2.3002    0.3159 H   0  0  0  0  0  0  0  0  0  0  0  0
  1  2  1  0
  2  3  1  0
  3  4  1  0
  3  5  1  0
  5  6  1  0
  6  7  1  0
  5  8  1  0
  8  9  1  0
  1 10  1  0
  1 11  1  0
  1 12  1  0
  2 13  1  0
  2 14  1  0
  3 15  1  0
  4 16  1  0
  5 17  1  0
  6 18  1  0
  6 19  1  0
  7 20  1  0
  8 21  1  0
  8 22  1  0
  9 23  1  0
M  END
