
     RDKit          3D

 22 22  0  0  0  0  0  0  0  0999 V2000
    2.3214   -1.1091   -0.4175 C   0  0  0  0  0  0  0  0  0  0  0  0
    1.0033   -1.0556    0.3296 C   0  0  0  0  0  0  0  0  0  0  0  0
    0.0760   -0.0128   -0.2455 C   0  0  0  0  0  0  0  0  0  0  0  0
    0.7215    1.3415   -0.1571 C   0  0  0  0  0  0  0  0  0  0  0  0
    0.9861    1.6410    1.1872 O   0  0  0  0  0  0  0  0  0  0  0  0
   -1.2473   -0.1078    0.4171 C   0  0  0  0  0  0  0  0  0  0  0  0
   -2.3899    0.7538    0.1051 C   0  0  0  0  0  0  0  0  0  0  0  0
   -2.4358   -0.6654   -0.3265 C   0  0  0  0  0  0  0  0  0  0  0  0
    3.0109   -0.3433    0.0187 H   0  0  0  0  0  0  0  0  0  0  0  0
    2.1843   -0.9009   -1.4955 H   0  0  0  0  0  0  0  0  0  0  0  0
    2.8165   -2.0903   -0.2681 H   0  0  0  0  0  0  0  0  0  0  0  0
    0.5595   -2.0698    0.2511 H   0  0  0  0  0  0  0  0  0  0  0  0
    1.1787   -0.8628    1.4095 H   0  0  0  0  0  0  0  0  0  0  0  0
   -0.0476   -0.2555   -1.3228 H   0  0  0  0  0  0  0  0  0  0  0  0
    1.7119    1.2852   -0.6541 H   0  0  0  0  0  0  0  0  0  0  0  0
    0.1472    2.1429   -0.6142 H   0  0  0  0  0  0  0  0  0  0  0  0
    1.3713    2.5356    1.2648 H   0  0  0  0  0  0  0  0  0  0  0  0
   -1.1944   -0.4817    1.4822 H   0  0  0  0  0  0  0  0  0  0  0  0
   -2.3503    1.5611   -0.6645 H   0  0  0  0  0  0  0  0  0  0  0  0
   -3.1042    1.0103    0.9269 H   0  0  0  0  0  0  0  0  0  0  0  0
   -3.1045   -1.3976    0.1713 H   0  0  0  0  0  0  0  0  0  0  0  0
   -2.2148   -0.9187   -1.3977 H   0  0  0  0  0  0  0  0  0  0  0  0
  1  2  1  0
  2  3  1  0
  3  4  1  0
  4  5  1  0
  3  6  1  0
  6  7  1  0
  7  8  1  0
  8  6  1  0
  1  9  1  0
  1 10  1  0
  1 11  1  0
  2 12  1  0
  2 13  1  0
  3 14  1  0
  4 15  1  0
  4 16  1  0
  5 17  1  0
  6 18  1  0
  7 19  1  0
  7 20  1  0
  8 21  1  0
  8 22  1  0
M  END
