
     RDKit          3D

 25 26  0  0  0  0  0  0  0  0999 V2000
   -2.8219   -0.3601    0.9598 C   0  0  0  0  0  0  0  0  0  0  0  0
   -2.0979    0.7270    0.2348 C   0  0  0  0  0  0  0  0  0  0  0  0
   -0.9583    0.2058   -0.6080 C   0  0  0  0  0  0  0  0  0  0  0  0
   -0.2760    1.3408   -1.3061 C   0  0  0  0  0  0  0  0  0  0  0  0
    0.0296   -0.5941    0.2594 C   0  0  0  0  0  0  0  0  0  0  0  0
    1.1892   -1.1882   -0.3052 C   0  0  0  0  0  0  0  0  0  0  0  0
    2.5988   -1.2572    0.2901 C   0  0  0  0  0  0  0  0  0  0  0  0
    2.5160    0.2333   -0.1212 C   0  0  0  0  0  0  0  0  0  0  0  0
    1.2047    0.0708    0.6660 C   0  0  0  0  0  0  0  0  0  0  0  0
   -3.8991   -0.1310    1.1383 H   0  0  0  0  0  0  0  0  0  0  0  0
   -2.8079   -1.3265    0.3966 H   0  0  0  0  0  0  0  0  0  0  0  0
   -2.3797   -0.5153    1.9706 H   0  0  0  0  0  0  0  0  0  0  0  0
   -1.6715    1.4375    0.9868 H   0  0  0  0  0  0  0  0  0  0  0  0
   -2.7841    1.3218   -0.3880 H   0  0  0  0  0  0  0  0  0  0  0  0
   -1.3711   -0.5322   -1.3274 H   0  0  0  0  0  0  0  0  0  0  0  0
   -0.9920    2.1504   -1.5423 H   0  0  0  0  0  0  0  0  0  0  0  0
    0.4631    1.7721   -0.6033 H   0  0  0  0  0  0  0  0  0  0  0  0
    0.1679    1.0164   -2.2585 H   0  0  0  0  0  0  0  0  0  0  0  0
   -0.5620   -1.2416    0.9767 H   0  0  0  0  0  0  0  0  0  0  0  0
    1.3401   -0.9150   -1.3996 H   0  0  0  0  0  0  0  0  0  0  0  0
    3.2826   -1.8440   -0.3118 H   0  0  0  0  0  0  0  0  0  0  0  0
    2.6376   -1.3996    1.3691 H   0  0  0  0  0  0  0  0  0  0  0  0
    3.2551    0.8498    0.3933 H   0  0  0  0  0  0  0  0  0  0  0  0
    2.3993    0.3619   -1.1957 H   0  0  0  0  0  0  0  0  0  0  0  0
    1.5374   -0.1826    1.7256 H   0  0  0  0  0  0  0  0  0  0  0  0
  1  2  1  0
  2  3  1  0
  3  4  1  0
  3  5  1  0
  5  6  1  0
  6  7  1  0
  7  8  1  0
  8  9  1  0
  9  5  1  0
  9  6  1  0
  1 10  1  0
  1 11  1  0
  1 12  1  0
  2 13  1  0
  2 14  1  0
  3 15  1  0
  4 16  1  0
  4 17  1  0
  4 18  1  0
  5 19  1  0
  6 20  1  0
  7 21  1  0
  7 22  1  0
  8 23  1  0
  8 24  1  0
  9 25  1  0
M  END
