
     RDKit          3D

 23 23  0  0  0  0  0  0  0  0999 V2000
    3.1427   -0.0173    0.3767 C   0  0  0  0  0  0  0  0  0  0  0  0
    1.9415    0.2425   -0.5057 C   0  0  0  0  0  0  0  0  0  0  0  0
    0.6894    0.1451    0.3405 C   0  0  0  0  0  0  0  0  0  0  0  0
    0.5641   -1.1131    0.9146 O   0  0  0  0  0  0  0  0  0  0  0  0
   -0.5389    0.4702   -0.5202 C   0  0  0  0  0  0  0  0  0  0  0  0
   -1.7378    0.3509    0.3936 C   0  0  0  0  0  0  0  0  0  0  0  0
   -1.6969    1.2178    1.4771 O   0  0  0  0  0  0  0  0  0  0  0  0
   -2.1142   -1.1033    0.6775 C   0  0  0  0  0  0  0  0  0  0  0  0
   -3.0286   -0.1571   -0.0635 C   0  0  0  0  0  0  0  0  0  0  0  0
    3.9977    0.5351   -0.0350 H   0  0  0  0  0  0  0  0  0  0  0  0
    2.9016    0.2348    1.4273 H   0  0  0  0  0  0  0  0  0  0  0  0
    3.3911   -1.0946    0.3184 H   0  0  0  0  0  0  0  0  0  0  0  0
    2.0482    1.2767   -0.8908 H   0  0  0  0  0  0  0  0  0  0  0  0
    1.9343   -0.4915   -1.3381 H   0  0  0  0  0  0  0  0  0  0  0  0
    0.7994    0.8900    1.1538 H   0  0  0  0  0  0  0  0  0  0  0  0
    1.4505   -1.4877    1.1382 H   0  0  0  0  0  0  0  0  0  0  0  0
   -0.5900   -0.2032   -1.3948 H   0  0  0  0  0  0  0  0  0  0  0  0
   -0.4845    1.5268   -0.8371 H   0  0  0  0  0  0  0  0  0  0  0  0
   -1.6121    2.1361    1.1175 H   0  0  0  0  0  0  0  0  0  0  0  0
   -1.6470   -1.9033    0.1045 H   0  0  0  0  0  0  0  0  0  0  0  0
   -2.3037   -1.3250    1.7336 H   0  0  0  0  0  0  0  0  0  0  0  0
   -3.1871   -0.2761   -1.1427 H   0  0  0  0  0  0  0  0  0  0  0  0
   -3.9196    0.1462    0.5386 H   0  0  0  0  0  0  0  0  0  0  0  0
  1  2  1  0
  2  3  1  0
  3  4  1  0
  3  5  1  0
  5  6  1  0
  6  7  1  0
  6  8  1  0
  8  9  1  0
  9  6  1  0
  1 10  1  0
  1 11  1  0
  1 12  1  0
  2 13  1  0
  2 14  1  0
  3 15  1  0
  4 16  1  0
  5 17  1  0
  5 18  1  0
  7 19  1  0
  8 20  1  0
  8 21  1  0
  9 22  1  0
  9 23  1  0
M  END
