
     RDKit          3D

 19 18  0  0  0  0  0  0  0  0999 V2000
   -2.0459   -0.9175   -0.0655 C   0  0  0  0  0  0  0  0  0  0  0  0
   -1.1800    0.3190   -0.0557 C   0  0  0  0  0  0  0  0  0  0  0  0
    0.1776    0.0631    0.5363 C   0  0  0  0  0  0  0  0  0  0  0  0
    0.9364    1.3920    0.4803 C   0  0  0  0  0  0  0  0  0  0  0  0
    0.9805    1.7119   -0.8975 O   0  0  0  0  0  0  0  0  0  0  0  0
    0.9817   -0.9052   -0.3185 C   0  0  0  0  0  0  0  0  0  0  0  0
    2.2381   -1.1383    0.2349 O   0  0  0  0  0  0  0  0  0  0  0  0
   -1.7095   -1.6171   -0.8575 H   0  0  0  0  0  0  0  0  0  0  0  0
   -2.0094   -1.4393    0.9043 H   0  0  0  0  0  0  0  0  0  0  0  0
   -3.0893   -0.5849   -0.2304 H   0  0  0  0  0  0  0  0  0  0  0  0
   -1.6784    1.0812    0.5788 H   0  0  0  0  0  0  0  0  0  0  0  0
   -1.0892    0.7145   -1.0889 H   0  0  0  0  0  0  0  0  0  0  0  0
    0.1000   -0.3314    1.5465 H   0  0  0  0  0  0  0  0  0  0  0  0
    1.9407    1.2279    0.8746 H   0  0  0  0  0  0  0  0  0  0  0  0
    0.4213    2.1764    1.0531 H   0  0  0  0  0  0  0  0  0  0  0  0
    0.9589    2.6724   -1.0504 H   0  0  0  0  0  0  0  0  0  0  0  0
    0.4429   -1.8554   -0.4927 H   0  0  0  0  0  0  0  0  0  0  0  0
    1.1761   -0.4483   -1.3320 H   0  0  0  0  0  0  0  0  0  0  0  0
    2.4475   -2.1210    0.1803 H   0  0  0  0  0  0  0  0  0  0  0  0
  1  2  1  0
  2  3  1  0
  3  4  1  0
  4  5  1  0
  3  6  1  0
  6  7  1  0
  1  8  1  0
  1  9  1  0
  1 10  1  0
  2 11  1  0
  2 12  1  0
  3 13  1  0
  4 14  1  0
  4 15  1  0
  5 16  1  0
  6 17  1  0
  6 18  1  0
  7 19  1  0
M  END
