
     RDKit          3D

 21 20  0  0  0  0  0  0  0  0999 V2000
    2.0682    1.0625   -0.5194 C   0  0  0  0  0  0  0  0  0  0  0  0
    1.4523   -0.2925   -0.3705 C   0  0  0  0  0  0  0  0  0  0  0  0
    0.0207   -0.1925    0.1532 C   0  0  0  0  0  0  0  0  0  0  0  0
   -0.5695   -1.5802    0.2911 C   0  0  0  0  0  0  0  0  0  0  0  0
    0.2269   -2.2834    1.1882 O   0  0  0  0  0  0  0  0  0  0  0  0
   -0.8268    0.6079   -0.7926 C   0  0  0  0  0  0  0  0  0  0  0  0
   -2.1337    0.6911   -0.3084 O   0  0  0  0  0  0  0  0  0  0  0  0
   -2.4350    1.3017    0.8818 C   0  0  0  0  0  0  0  0  0  0  0  0
   -1.5234    1.8125    1.5707 O   0  0  0  0  0  0  0  0  0  0  0  0
    1.6364    1.6018   -1.3675 H   0  0  0  0  0  0  0  0  0  0  0  0
    2.0036    1.6478    0.4317 H   0  0  0  0  0  0  0  0  0  0  0  0
    3.1522    0.9259   -0.7168 H   0  0  0  0  0  0  0  0  0  0  0  0
    1.4997   -0.8220   -1.3292 H   0  0  0  0  0  0  0  0  0  0  0  0
    2.0099   -0.8916    0.3809 H   0  0  0  0  0  0  0  0  0  0  0  0
    0.0635    0.2530    1.1422 H   0  0  0  0  0  0  0  0  0  0  0  0
   -0.5433   -2.0596   -0.7304 H   0  0  0  0  0  0  0  0  0  0  0  0
   -1.6331   -1.5533    0.5714 H   0  0  0  0  0  0  0  0  0  0  0  0
    0.2125   -3.2575    1.0263 H   0  0  0  0  0  0  0  0  0  0  0  0
   -0.3705    1.6106   -0.9773 H   0  0  0  0  0  0  0  0  0  0  0  0
   -0.8371    0.0603   -1.7825 H   0  0  0  0  0  0  0  0  0  0  0  0
   -3.4737    1.3576    1.2573 H   0  0  0  0  0  0  0  0  0  0  0  0
  1  2  1  0
  2  3  1  0
  3  4  1  0
  4  5  1  0
  3  6  1  0
  6  7  1  0
  7  8  1  0
  8  9  2  0
  1 10  1  0
  1 11  1  0
  1 12  1  0
  2 13  1  0
  2 14  1  0
  3 15  1  0
  4 16  1  0
  4 17  1  0
  5 18  1  0
  6 19  1  0
  6 20  1  0
  8 21  1  0
M  END
