
     RDKit          3D

 24 23  0  0  0  0  0  0  0  0999 V2000
   -1.4867   -1.8008   -0.2297 C   0  0  0  0  0  0  0  0  0  0  0  0
   -0.9240   -0.7785    0.7060 C   0  0  0  0  0  0  0  0  0  0  0  0
   -0.1628    0.3204    0.0198 C   0  0  0  0  0  0  0  0  0  0  0  0
   -1.0669    1.0601   -0.9452 C   0  0  0  0  0  0  0  0  0  0  0  0
    1.0263   -0.1641   -0.7520 C   0  0  0  0  0  0  0  0  0  0  0  0
    2.0459   -0.8736    0.0929 C   0  0  0  0  0  0  0  0  0  0  0  0
    0.2915    1.3034    1.0765 C   0  0  0  0  0  0  0  0  0  0  0  0
    1.0161    2.3634    0.4856 O   0  0  0  0  0  0  0  0  0  0  0  0
   -1.4760   -2.7852    0.3140 H   0  0  0  0  0  0  0  0  0  0  0  0
   -0.9213   -1.9056   -1.1570 H   0  0  0  0  0  0  0  0  0  0  0  0
   -2.5717   -1.6060   -0.4753 H   0  0  0  0  0  0  0  0  0  0  0  0
   -0.3003   -1.2163    1.5155 H   0  0  0  0  0  0  0  0  0  0  0  0
   -1.7865   -0.2965    1.2244 H   0  0  0  0  0  0  0  0  0  0  0  0
   -1.1767    0.4968   -1.8959 H   0  0  0  0  0  0  0  0  0  0  0  0
   -2.0299    1.3207   -0.4957 H   0  0  0  0  0  0  0  0  0  0  0  0
   -0.5336    2.0106   -1.2065 H   0  0  0  0  0  0  0  0  0  0  0  0
    1.5152    0.7380   -1.1874 H   0  0  0  0  0  0  0  0  0  0  0  0
    0.7068   -0.7730   -1.6336 H   0  0  0  0  0  0  0  0  0  0  0  0
    2.9976   -0.3061    0.1524 H   0  0  0  0  0  0  0  0  0  0  0  0
    2.3097   -1.8412   -0.4201 H   0  0  0  0  0  0  0  0  0  0  0  0
    1.6940   -1.0320    1.1272 H   0  0  0  0  0  0  0  0  0  0  0  0
   -0.5709    1.7890    1.5840 H   0  0  0  0  0  0  0  0  0  0  0  0
    0.9717    0.8445    1.8087 H   0  0  0  0  0  0  0  0  0  0  0  0
    0.4323    3.1320    0.2913 H   0  0  0  0  0  0  0  0  0  0  0  0
  1  2  1  0
  2  3  1  0
  3  4  1  0
  3  5  1  0
  5  6  1  0
  3  7  1  0
  7  8  1  0
  1  9  1  0
  1 10  1  0
  1 11  1  0
  2 12  1  0
  2 13  1  0
  4 14  1  0
  4 15  1  0
  4 16  1  0
  5 17  1  0
  5 18  1  0
  6 19  1  0
  6 20  1  0
  6 21  1  0
  7 22  1  0
  7 23  1  0
  8 24  1  0
M  END
