
     RDKit          3D

 21 21  0  0  0  0  0  0  0  0999 V2000
    1.4986   -1.3582   -0.2918 C   0  0  0  0  0  0  0  0  0  0  0  0
    1.1191   -0.3273    0.7068 C   0  0  0  0  0  0  0  0  0  0  0  0
   -0.0315    0.5555    0.3331 C   0  0  0  0  0  0  0  0  0  0  0  0
    0.2232    1.3382   -0.9368 C   0  0  0  0  0  0  0  0  0  0  0  0
   -0.1726    1.5917    1.4156 C   0  0  0  0  0  0  0  0  0  0  0  0
   -1.1377    2.3279    1.3498 O   0  0  0  0  0  0  0  0  0  0  0  0
   -1.3537   -0.1682    0.2517 C   0  0  0  0  0  0  0  0  0  0  0  0
   -1.6076   -1.2516   -0.6390 C   0  0  0  0  0  0  0  0  0  0  0  0
   -2.1229    0.0949   -0.9843 O   0  0  0  0  0  0  0  0  0  0  0  0
    1.3828   -1.0526   -1.3493 H   0  0  0  0  0  0  0  0  0  0  0  0
    0.9810   -2.3326   -0.1812 H   0  0  0  0  0  0  0  0  0  0  0  0
    2.5949   -1.6164   -0.1859 H   0  0  0  0  0  0  0  0  0  0  0  0
    0.7918   -0.8788    1.6354 H   0  0  0  0  0  0  0  0  0  0  0  0
    2.0183    0.2653    0.9718 H   0  0  0  0  0  0  0  0  0  0  0  0
    0.0961    0.7378   -1.8398 H   0  0  0  0  0  0  0  0  0  0  0  0
   -0.5454    2.1634   -0.9414 H   0  0  0  0  0  0  0  0  0  0  0  0
    1.1944    1.8420   -0.8444 H   0  0  0  0  0  0  0  0  0  0  0  0
    0.5155    1.7116    2.2211 H   0  0  0  0  0  0  0  0  0  0  0  0
   -2.0530   -0.0649    1.1372 H   0  0  0  0  0  0  0  0  0  0  0  0
   -0.9394   -1.6206   -1.4193 H   0  0  0  0  0  0  0  0  0  0  0  0
   -2.4518   -1.9572   -0.4094 H   0  0  0  0  0  0  0  0  0  0  0  0
  1  2  1  0
  2  3  1  0
  3  4  1  0
  3  5  1  0
  5  6  2  0
  3  7  1  0
  7  8  1  0
  8  9  1  0
  9  7  1  0
  1 10  1  0
  1 11  1  0
  1 12  1  0
  2 13  1  0
  2 14  1  0
  4 15  1  0
  4 16  1  0
  4 17  1  0
  5 18  1  0
  7 19  1  0
  8 20  1  0
  8 21  1  0
M  END
