
     RDKit          3D

 25 25  0  0  0  0  0  0  0  0999 V2000
    2.3613    0.9178    0.5394 C   0  0  0  0  0  0  0  0  0  0  0  0
    1.7754    0.4869   -0.7908 C   0  0  0  0  0  0  0  0  0  0  0  0
    0.9388   -0.7674   -0.6421 C   0  0  0  0  0  0  0  0  0  0  0  0
    1.7284   -1.7942   -0.1555 O   0  0  0  0  0  0  0  0  0  0  0  0
   -0.1974   -0.4347    0.2952 C   0  0  0  0  0  0  0  0  0  0  0  0
   -1.1412   -1.6126    0.5487 C   0  0  0  0  0  0  0  0  0  0  0  0
   -2.2740   -0.5763    0.5385 C   0  0  0  0  0  0  0  0  0  0  0  0
   -1.3744    0.2551   -0.3851 C   0  0  0  0  0  0  0  0  0  0  0  0
   -1.5233    1.7097   -0.0727 C   0  0  0  0  0  0  0  0  0  0  0  0
    1.8424    1.7991    0.9565 H   0  0  0  0  0  0  0  0  0  0  0  0
    2.3404    0.0402    1.2177 H   0  0  0  0  0  0  0  0  0  0  0  0
    3.4468    1.1903    0.4049 H   0  0  0  0  0  0  0  0  0  0  0  0
    1.1042    1.2987   -1.1216 H   0  0  0  0  0  0  0  0  0  0  0  0
    2.5508    0.3699   -1.5759 H   0  0  0  0  0  0  0  0  0  0  0  0
    0.5907   -1.0429   -1.6554 H   0  0  0  0  0  0  0  0  0  0  0  0
    1.6271   -2.6186   -0.7019 H   0  0  0  0  0  0  0  0  0  0  0  0
    0.1789    0.0574    1.1980 H   0  0  0  0  0  0  0  0  0  0  0  0
   -1.1926   -2.2682   -0.3578 H   0  0  0  0  0  0  0  0  0  0  0  0
   -1.0005   -2.1238    1.5025 H   0  0  0  0  0  0  0  0  0  0  0  0
   -2.3121   -0.1019    1.5285 H   0  0  0  0  0  0  0  0  0  0  0  0
   -3.2055   -0.9139    0.0920 H   0  0  0  0  0  0  0  0  0  0  0  0
   -1.4402   -0.0446   -1.4411 H   0  0  0  0  0  0  0  0  0  0  0  0
   -2.6264    1.9379   -0.1061 H   0  0  0  0  0  0  0  0  0  0  0  0
   -1.1694    1.8663    0.9770 H   0  0  0  0  0  0  0  0  0  0  0  0
   -1.0282    2.3698   -0.7929 H   0  0  0  0  0  0  0  0  0  0  0  0
  1  2  1  0
  2  3  1  0
  3  4  1  0
  3  5  1  0
  5  6  1  0
  6  7  1  0
  7  8  1  0
  8  9  1  0
  8  5  1  0
  1 10  1  0
  1 11  1  0
  1 12  1  0
  2 13  1  0
  2 14  1  0
  3 15  1  0
  4 16  1  0
  5 17  1  0
  6 18  1  0
  6 19  1  0
  7 20  1  0
  7 21  1  0
  8 22  1  0
  9 23  1  0
  9 24  1  0
  9 25  1  0
M  END
