
     RDKit          3D

 22 21  0  0  0  0  0  0  0  0999 V2000
   -2.8010    0.8186    0.2238 C   0  0  0  0  0  0  0  0  0  0  0  0
   -1.6551   -0.1137    0.4876 C   0  0  0  0  0  0  0  0  0  0  0  0
   -0.6148   -0.0304   -0.6373 C   0  0  0  0  0  0  0  0  0  0  0  0
   -0.1735    1.2657   -0.6683 O   0  0  0  0  0  0  0  0  0  0  0  0
    0.4377   -1.0766   -0.4766 C   0  0  0  0  0  0  0  0  0  0  0  0
    1.2000   -0.9686    0.8175 C   0  0  0  0  0  0  0  0  0  0  0  0
    1.8682    0.2109    0.9838 O   0  0  0  0  0  0  0  0  0  0  0  0
    2.8244    0.4715    0.0243 C   0  0  0  0  0  0  0  0  0  0  0  0
   -2.4708    1.7695   -0.2681 H   0  0  0  0  0  0  0  0  0  0  0  0
   -3.5641    0.3742   -0.4502 H   0  0  0  0  0  0  0  0  0  0  0  0
   -3.3080    1.1232    1.1582 H   0  0  0  0  0  0  0  0  0  0  0  0
   -1.2106    0.1288    1.4566 H   0  0  0  0  0  0  0  0  0  0  0  0
   -2.0640   -1.1476    0.5395 H   0  0  0  0  0  0  0  0  0  0  0  0
   -1.1446   -0.2250   -1.6006 H   0  0  0  0  0  0  0  0  0  0  0  0
   -0.1758    1.6804   -1.5581 H   0  0  0  0  0  0  0  0  0  0  0  0
   -0.0494   -2.0686   -0.5450 H   0  0  0  0  0  0  0  0  0  0  0  0
    1.1723   -1.0359   -1.3054 H   0  0  0  0  0  0  0  0  0  0  0  0
    0.4479   -1.0399    1.6496 H   0  0  0  0  0  0  0  0  0  0  0  0
    1.9064   -1.7979    0.9465 H   0  0  0  0  0  0  0  0  0  0  0  0
    3.6205   -0.3095   -0.0070 H   0  0  0  0  0  0  0  0  0  0  0  0
    2.4423    0.5329   -1.0116 H   0  0  0  0  0  0  0  0  0  0  0  0
    3.3122    1.4381    0.2409 H   0  0  0  0  0  0  0  0  0  0  0  0
  1  2  1  0
  2  3  1  0
  3  4  1  0
  3  5  1  0
  5  6  1  0
  6  7  1  0
  7  8  1  0
  1  9  1  0
  1 10  1  0
  1 11  1  0
  2 12  1  0
  2 13  1  0
  3 14  1  0
  4 15  1  0
  5 16  1  0
  5 17  1  0
  6 18  1  0
  6 19  1  0
  8 20  1  0
  8 21  1  0
  8 22  1  0
M  END
