
     RDKit          3D

 23 22  0  0  0  0  0  0  0  0999 V2000
   -2.6908   -0.2108    1.1805 C   0  0  0  0  0  0  0  0  0  0  0  0
   -2.1490    0.8918    0.3261 C   0  0  0  0  0  0  0  0  0  0  0  0
   -1.0502    0.4206   -0.6013 C   0  0  0  0  0  0  0  0  0  0  0  0
   -0.5890    1.4895   -1.3674 O   0  0  0  0  0  0  0  0  0  0  0  0
    0.1448   -0.1040    0.1764 C   0  0  0  0  0  0  0  0  0  0  0  0
    1.1722   -0.5436   -0.8233 C   0  0  0  0  0  0  0  0  0  0  0  0
    2.4221   -1.0912   -0.1765 C   0  0  0  0  0  0  0  0  0  0  0  0
    3.0524   -0.0534    0.6810 C   0  0  0  0  0  0  0  0  0  0  0  0
    4.0742   -0.2753    1.3009 O   0  0  0  0  0  0  0  0  0  0  0  0
   -2.7375   -1.1691    0.6590 H   0  0  0  0  0  0  0  0  0  0  0  0
   -3.7388    0.0575    1.5012 H   0  0  0  0  0  0  0  0  0  0  0  0
   -2.0880   -0.3609    2.1222 H   0  0  0  0  0  0  0  0  0  0  0  0
   -2.9755    1.2549   -0.3198 H   0  0  0  0  0  0  0  0  0  0  0  0
   -1.8078    1.7518    0.9166 H   0  0  0  0  0  0  0  0  0  0  0  0
   -1.4159   -0.4063   -1.2380 H   0  0  0  0  0  0  0  0  0  0  0  0
   -0.1324    2.1078   -0.7402 H   0  0  0  0  0  0  0  0  0  0  0  0
    0.5194    0.6342    0.8992 H   0  0  0  0  0  0  0  0  0  0  0  0
   -0.1745   -1.0115    0.7667 H   0  0  0  0  0  0  0  0  0  0  0  0
    1.4785    0.3234   -1.4432 H   0  0  0  0  0  0  0  0  0  0  0  0
    0.7056   -1.2986   -1.4805 H   0  0  0  0  0  0  0  0  0  0  0  0
    3.1260   -1.3448   -1.0009 H   0  0  0  0  0  0  0  0  0  0  0  0
    2.2415   -1.9912    0.4261 H   0  0  0  0  0  0  0  0  0  0  0  0
    2.6125    0.9292    0.7730 H   0  0  0  0  0  0  0  0  0  0  0  0
  1  2  1  0
  2  3  1  0
  3  4  1  0
  3  5  1  0
  5  6  1  0
  6  7  1  0
  7  8  1  0
  8  9  2  0
  1 10  1  0
  1 11  1  0
  1 12  1  0
  2 13  1  0
  2 14  1  0
  3 15  1  0
  4 16  1  0
  5 17  1  0
  5 18  1  0
  6 19  1  0
  6 20  1  0
  7 21  1  0
  7 22  1  0
  8 23  1  0
M  END
