
     RDKit          3D

 23 23  0  0  0  0  0  0  0  0999 V2000
    2.1067    0.2161    1.1381 C   0  0  0  0  0  0  0  0  0  0  0  0
    1.2149   -0.8540    0.6006 C   0  0  0  0  0  0  0  0  0  0  0  0
    0.1867   -0.3469   -0.3697 C   0  0  0  0  0  0  0  0  0  0  0  0
    0.8040    0.3104   -1.5738 C   0  0  0  0  0  0  0  0  0  0  0  0
   -0.5255   -1.4811   -0.8277 O   0  0  0  0  0  0  0  0  0  0  0  0
   -0.8296    0.5308    0.3249 C   0  0  0  0  0  0  0  0  0  0  0  0
   -1.9058    1.0987   -0.5275 C   0  0  0  0  0  0  0  0  0  0  0  0
   -2.8021    0.8916    0.5487 O   0  0  0  0  0  0  0  0  0  0  0  0
   -2.0382   -0.2647    0.8279 C   0  0  0  0  0  0  0  0  0  0  0  0
    2.9413    0.4286    0.4392 H   0  0  0  0  0  0  0  0  0  0  0  0
    2.5720   -0.1468    2.0802 H   0  0  0  0  0  0  0  0  0  0  0  0
    1.5850    1.1640    1.3325 H   0  0  0  0  0  0  0  0  0  0  0  0
    1.8225   -1.6730    0.1890 H   0  0  0  0  0  0  0  0  0  0  0  0
    0.6461   -1.2743    1.4759 H   0  0  0  0  0  0  0  0  0  0  0  0
    0.2053    0.0572   -2.4688 H   0  0  0  0  0  0  0  0  0  0  0  0
    1.8201   -0.1039   -1.7561 H   0  0  0  0  0  0  0  0  0  0  0  0
    0.9323    1.4006   -1.4462 H   0  0  0  0  0  0  0  0  0  0  0  0
    0.1237   -2.2332   -0.9036 H   0  0  0  0  0  0  0  0  0  0  0  0
   -0.4432    1.2273    1.0650 H   0  0  0  0  0  0  0  0  0  0  0  0
   -1.8713    2.1780   -0.7463 H   0  0  0  0  0  0  0  0  0  0  0  0
   -2.2375    0.4662   -1.3654 H   0  0  0  0  0  0  0  0  0  0  0  0
   -2.3127   -1.0384    0.0881 H   0  0  0  0  0  0  0  0  0  0  0  0
   -1.9947   -0.5530    1.8750 H   0  0  0  0  0  0  0  0  0  0  0  0
  1  2  1  0
  2  3  1  0
  3  4  1  0
  3  5  1  0
  3  6  1  0
  6  7  1  0
  7  8  1  0
  8  9  1  0
  9  6  1  0
  1 10  1  0
  1 11  1  0
  1 12  1  0
  2 13  1  0
  2 14  1  0
  4 15  1  0
  4 16  1  0
  4 17  1  0
  5 18  1  0
  6 19  1  0
  7 20  1  0
  7 21  1  0
  9 22  1  0
  9 23  1  0
M  END
