
     RDKit          3D

 25 26  0  0  0  0  0  0  0  0999 V2000
   -1.7019   -1.7808    0.8492 C   0  0  0  0  0  0  0  0  0  0  0  0
   -0.4504   -1.4009    0.1121 C   0  0  0  0  0  0  0  0  0  0  0  0
    0.0892   -0.0578    0.5448 C   0  0  0  0  0  0  0  0  0  0  0  0
    1.3311    0.3508   -0.1685 C   0  0  0  0  0  0  0  0  0  0  0  0
    2.4889   -0.6381    0.0116 C   0  0  0  0  0  0  0  0  0  0  0  0
    1.9086   -0.2868   -1.3308 C   0  0  0  0  0  0  0  0  0  0  0  0
   -0.9209    1.0136    0.5487 C   0  0  0  0  0  0  0  0  0  0  0  0
   -1.7068    1.4670   -0.5916 C   0  0  0  0  0  0  0  0  0  0  0  0
   -0.5187    2.3208   -0.1202 C   0  0  0  0  0  0  0  0  0  0  0  0
   -1.4570   -2.0562    1.8791 H   0  0  0  0  0  0  0  0  0  0  0  0
   -2.5118   -1.0305    0.7634 H   0  0  0  0  0  0  0  0  0  0  0  0
   -2.0974   -2.7053    0.3555 H   0  0  0  0  0  0  0  0  0  0  0  0
    0.3154   -2.1571    0.3837 H   0  0  0  0  0  0  0  0  0  0  0  0
   -0.5569   -1.4270   -0.9850 H   0  0  0  0  0  0  0  0  0  0  0  0
    0.4202   -0.2245    1.6209 H   0  0  0  0  0  0  0  0  0  0  0  0
    1.6969    1.3813    0.1035 H   0  0  0  0  0  0  0  0  0  0  0  0
    2.2672   -1.6245    0.4623 H   0  0  0  0  0  0  0  0  0  0  0  0
    3.4882   -0.2748    0.2899 H   0  0  0  0  0  0  0  0  0  0  0  0
    2.6062    0.3333   -1.9553 H   0  0  0  0  0  0  0  0  0  0  0  0
    1.4569   -1.0994   -1.9095 H   0  0  0  0  0  0  0  0  0  0  0  0
   -1.4216    1.1791    1.5530 H   0  0  0  0  0  0  0  0  0  0  0  0
   -2.6924    1.9317   -0.4017 H   0  0  0  0  0  0  0  0  0  0  0  0
   -1.5963    1.1158   -1.6189 H   0  0  0  0  0  0  0  0  0  0  0  0
    0.3317    2.4005   -0.7967 H   0  0  0  0  0  0  0  0  0  0  0  0
   -0.7685    3.2701    0.4005 H   0  0  0  0  0  0  0  0  0  0  0  0
  1  2  1  0
  2  3  1  0
  3  4  1  0
  4  5  1  0
  5  6  1  0
  3  7  1  0
  7  8  1  0
  8  9  1  0
  6  4  1  0
  9  7  1  0
  1 10  1  0
  1 11  1  0
  1 12  1  0
  2 13  1  0
  2 14  1  0
  3 15  1  0
  4 16  1  0
  5 17  1  0
  5 18  1  0
  6 19  1  0
  6 20  1  0
  7 21  1  0
  8 22  1  0
  8 23  1  0
  9 24  1  0
  9 25  1  0
M  END
