
     RDKit          3D

 23 23  0  0  0  0  0  0  0  0999 V2000
    2.6641    0.7540   -0.3484 C   0  0  0  0  0  0  0  0  0  0  0  0
    2.2578   -0.6227   -0.0004 C   0  0  0  0  0  0  0  0  0  0  0  0
    0.8595   -0.9809   -0.1692 C   0  0  0  0  0  0  0  0  0  0  0  0
    0.6018   -2.1371    0.1369 O   0  0  0  0  0  0  0  0  0  0  0  0
   -0.2526   -0.1686   -0.6428 C   0  0  0  0  0  0  0  0  0  0  0  0
   -0.5742    1.0483    0.1384 C   0  0  0  0  0  0  0  0  0  0  0  0
   -1.5968    0.5666    1.1707 C   0  0  0  0  0  0  0  0  0  0  0  0
   -2.5108   -0.2202    0.2582 C   0  0  0  0  0  0  0  0  0  0  0  0
   -1.5575   -0.9339   -0.6316 C   0  0  0  0  0  0  0  0  0  0  0  0
    3.7486    0.7403   -0.5961 H   0  0  0  0  0  0  0  0  0  0  0  0
    2.1627    1.1792   -1.2369 H   0  0  0  0  0  0  0  0  0  0  0  0
    2.6116    1.4553    0.5360 H   0  0  0  0  0  0  0  0  0  0  0  0
    2.9582   -1.3480   -0.5095 H   0  0  0  0  0  0  0  0  0  0  0  0
    2.5066   -0.7628    1.0951 H   0  0  0  0  0  0  0  0  0  0  0  0
   -0.0894    0.1330   -1.7111 H   0  0  0  0  0  0  0  0  0  0  0  0
    0.2213    1.5248    0.6780 H   0  0  0  0  0  0  0  0  0  0  0  0
   -1.1100    1.7698   -0.5059 H   0  0  0  0  0  0  0  0  0  0  0  0
   -2.0972    1.4406    1.6286 H   0  0  0  0  0  0  0  0  0  0  0  0
   -1.1128   -0.0629    1.9437 H   0  0  0  0  0  0  0  0  0  0  0  0
   -3.1445    0.5275   -0.2778 H   0  0  0  0  0  0  0  0  0  0  0  0
   -3.1466   -0.9016    0.8681 H   0  0  0  0  0  0  0  0  0  0  0  0
   -1.3897   -1.9565   -0.1998 H   0  0  0  0  0  0  0  0  0  0  0  0
   -2.0102   -1.0443   -1.6241 H   0  0  0  0  0  0  0  0  0  0  0  0
  1  2  1  0
  2  3  1  0
  3  4  2  0
  3  5  1  0
  5  6  1  0
  6  7  1  0
  7  8  1  0
  8  9  1  0
  9  5  1  0
  1 10  1  0
  1 11  1  0
  1 12  1  0
  2 13  1  0
  2 14  1  0
  5 15  1  0
  6 16  1  0
  6 17  1  0
  7 18  1  0
  7 19  1  0
  8 20  1  0
  8 21  1  0
  9 22  1  0
  9 23  1  0
M  END
