
     RDKit          3D

 21 20  0  0  0  0  0  0  0  0999 V2000
   -2.2337   -0.0086    0.1724 C   0  0  0  0  0  0  0  0  0  0  0  0
   -1.0554   -0.3226   -0.7194 C   0  0  0  0  0  0  0  0  0  0  0  0
    0.2590    0.0136   -0.0485 C   0  0  0  0  0  0  0  0  0  0  0  0
    0.4451   -0.7556    1.2135 C   0  0  0  0  0  0  0  0  0  0  0  0
    0.2571    1.5141    0.1743 C   0  0  0  0  0  0  0  0  0  0  0  0
    1.4280   -0.2933   -0.9611 C   0  0  0  0  0  0  0  0  0  0  0  0
    2.6206    0.0235   -0.3231 O   0  0  0  0  0  0  0  0  0  0  0  0
   -1.9998    0.8092    0.8586 H   0  0  0  0  0  0  0  0  0  0  0  0
   -3.1305    0.2343   -0.4672 H   0  0  0  0  0  0  0  0  0  0  0  0
   -2.5168   -0.9445    0.7361 H   0  0  0  0  0  0  0  0  0  0  0  0
   -1.1988    0.2529   -1.6530 H   0  0  0  0  0  0  0  0  0  0  0  0
   -1.1080   -1.4033   -0.9631 H   0  0  0  0  0  0  0  0  0  0  0  0
    0.0126   -0.2824    2.1044 H   0  0  0  0  0  0  0  0  0  0  0  0
   -0.0078   -1.7781    1.0733 H   0  0  0  0  0  0  0  0  0  0  0  0
    1.5235   -0.9593    1.4446 H   0  0  0  0  0  0  0  0  0  0  0  0
   -0.2420    1.8123    1.1068 H   0  0  0  0  0  0  0  0  0  0  0  0
    1.3068    1.9132    0.1407 H   0  0  0  0  0  0  0  0  0  0  0  0
   -0.2441    1.9545   -0.7124 H   0  0  0  0  0  0  0  0  0  0  0  0
    1.3831    0.3284   -1.8868 H   0  0  0  0  0  0  0  0  0  0  0  0
    1.4012   -1.3494   -1.3047 H   0  0  0  0  0  0  0  0  0  0  0  0
    3.0999   -0.7589    0.0147 H   0  0  0  0  0  0  0  0  0  0  0  0
  1  2  1  0
  2  3  1  0
  3  4  1  0
  3  5  1  0
  3  6  1  0
  6  7  1  0
  1  8  1  0
  1  9  1  0
  1 10  1  0
  2 11  1  0
  2 12  1  0
  4 13  1  0
  4 14  1  0
  4 15  1  0
  5 16  1  0
  5 17  1  0
  5 18  1  0
  6 19  1  0
  6 20  1  0
  7 21  1  0
M  END
