
     RDKit          3D

 22 22  0  0  0  0  0  0  0  0999 V2000
    1.7784    1.3116    0.0382 C   0  0  0  0  0  0  0  0  0  0  0  0
    1.4883   -0.1250    0.3096 C   0  0  0  0  0  0  0  0  0  0  0  0
    0.3662   -0.7347   -0.4445 C   0  0  0  0  0  0  0  0  0  0  0  0
    0.3079   -2.2130    0.0144 C   0  0  0  0  0  0  0  0  0  0  0  0
   -0.9957   -0.1896   -0.2007 C   0  0  0  0  0  0  0  0  0  0  0  0
   -1.3474    1.2512   -0.4620 C   0  0  0  0  0  0  0  0  0  0  0  0
   -1.3613    0.6910    0.9137 C   0  0  0  0  0  0  0  0  0  0  0  0
   -2.6089    0.4631    1.5411 O   0  0  0  0  0  0  0  0  0  0  0  0
    1.6863    1.5052   -1.0627 H   0  0  0  0  0  0  0  0  0  0  0  0
    1.2337    2.0410    0.6609 H   0  0  0  0  0  0  0  0  0  0  0  0
    2.8691    1.5606    0.2393 H   0  0  0  0  0  0  0  0  0  0  0  0
    1.4197   -0.3380    1.4189 H   0  0  0  0  0  0  0  0  0  0  0  0
    2.4199   -0.6948    0.0118 H   0  0  0  0  0  0  0  0  0  0  0  0
    0.6349   -0.7356   -1.5277 H   0  0  0  0  0  0  0  0  0  0  0  0
   -0.7338   -2.5895   -0.0343 H   0  0  0  0  0  0  0  0  0  0  0  0
    0.6967   -2.3174    1.0298 H   0  0  0  0  0  0  0  0  0  0  0  0
    0.9037   -2.8274   -0.6852 H   0  0  0  0  0  0  0  0  0  0  0  0
   -1.8235   -0.8892   -0.5404 H   0  0  0  0  0  0  0  0  0  0  0  0
   -2.3804    1.4942   -0.8480 H   0  0  0  0  0  0  0  0  0  0  0  0
   -0.6217    1.9767   -0.8255 H   0  0  0  0  0  0  0  0  0  0  0  0
   -0.5824    0.8835    1.6616 H   0  0  0  0  0  0  0  0  0  0  0  0
   -3.3496    0.4763    0.8864 H   0  0  0  0  0  0  0  0  0  0  0  0
  1  2  1  0
  2  3  1  0
  3  4  1  0
  3  5  1  0
  5  6  1  0
  6  7  1  0
  7  8  1  0
  7  5  1  0
  1  9  1  0
  1 10  1  0
  1 11  1  0
  2 12  1  0
  2 13  1  0
  3 14  1  0
  4 15  1  0
  4 16  1  0
  4 17  1  0
  5 18  1  0
  6 19  1  0
  6 20  1  0
  7 21  1  0
  8 22  1  0
M  END
