
     RDKit          3D

 25 24  0  0  0  0  0  0  0  0999 V2000
   -0.4861    2.5918   -0.2511 C   0  0  0  0  0  0  0  0  0  0  0  0
    0.4520    1.5979    0.3532 C   0  0  0  0  0  0  0  0  0  0  0  0
    0.4802    0.2757   -0.3821 C   0  0  0  0  0  0  0  0  0  0  0  0
   -0.8719   -0.3823   -0.4017 C   0  0  0  0  0  0  0  0  0  0  0  0
   -1.3682   -0.6536    0.8614 O   0  0  0  0  0  0  0  0  0  0  0  0
   -2.6223   -1.2600    0.6782 C   0  0  0  0  0  0  0  0  0  0  0  0
    1.5553   -0.5766    0.1981 C   0  0  0  0  0  0  0  0  0  0  0  0
    1.6874   -1.9200   -0.4459 C   0  0  0  0  0  0  0  0  0  0  0  0
    2.7730    0.1053    0.0205 O   0  0  0  0  0  0  0  0  0  0  0  0
   -0.4981    2.6011   -1.3521 H   0  0  0  0  0  0  0  0  0  0  0  0
   -0.1505    3.6102    0.0707 H   0  0  0  0  0  0  0  0  0  0  0  0
   -1.5256    2.4977    0.1743 H   0  0  0  0  0  0  0  0  0  0  0  0
    0.1337    1.4519    1.4213 H   0  0  0  0  0  0  0  0  0  0  0  0
    1.4564    2.0637    0.4050 H   0  0  0  0  0  0  0  0  0  0  0  0
    0.7490    0.5005   -1.4357 H   0  0  0  0  0  0  0  0  0  0  0  0
   -1.6315    0.2147   -0.9361 H   0  0  0  0  0  0  0  0  0  0  0  0
   -0.8060   -1.3517   -0.9368 H   0  0  0  0  0  0  0  0  0  0  0  0
   -3.2608   -0.5559    0.1377 H   0  0  0  0  0  0  0  0  0  0  0  0
   -3.0753   -1.5375    1.6622 H   0  0  0  0  0  0  0  0  0  0  0  0
   -2.5467   -2.2046    0.1054 H   0  0  0  0  0  0  0  0  0  0  0  0
    1.4257   -0.6803    1.2890 H   0  0  0  0  0  0  0  0  0  0  0  0
    2.7126   -2.3019   -0.2348 H   0  0  0  0  0  0  0  0  0  0  0  0
    0.9944   -2.6835   -0.0189 H   0  0  0  0  0  0  0  0  0  0  0  0
    1.6067   -1.8592   -1.5464 H   0  0  0  0  0  0  0  0  0  0  0  0
    2.8164    0.4566   -0.9135 H   0  0  0  0  0  0  0  0  0  0  0  0
  1  2  1  0
  2  3  1  0
  3  4  1  0
  4  5  1  0
  5  6  1  0
  3  7  1  0
  7  8  1  0
  7  9  1  0
  1 10  1  0
  1 11  1  0
  1 12  1  0
  2 13  1  0
  2 14  1  0
  3 15  1  0
  4 16  1  0
  4 17  1  0
  6 18  1  0
  6 19  1  0
  6 20  1  0
  7 21  1  0
  8 22  1  0
  8 23  1  0
  8 24  1  0
  9 25  1  0
M  END
