
     RDKit          3D

 23 23  0  0  0  0  0  0  0  0999 V2000
   -2.7813   -0.4091    0.7401 C   0  0  0  0  0  0  0  0  0  0  0  0
   -2.4037    0.7605   -0.1499 C   0  0  0  0  0  0  0  0  0  0  0  0
   -1.0344    0.4692   -0.7092 C   0  0  0  0  0  0  0  0  0  0  0  0
   -0.6448    1.5278   -1.5403 O   0  0  0  0  0  0  0  0  0  0  0  0
   -0.0622    0.4308    0.4502 C   0  0  0  0  0  0  0  0  0  0  0  0
    1.3078    0.1362   -0.1388 C   0  0  0  0  0  0  0  0  0  0  0  0
    1.4897   -1.0407   -0.8395 O   0  0  0  0  0  0  0  0  0  0  0  0
    2.0879   -1.0102    0.4017 C   0  0  0  0  0  0  0  0  0  0  0  0
    3.5829   -0.7642    0.4984 C   0  0  0  0  0  0  0  0  0  0  0  0
   -3.8836   -0.5132    0.8358 H   0  0  0  0  0  0  0  0  0  0  0  0
   -2.3755   -1.3541    0.3335 H   0  0  0  0  0  0  0  0  0  0  0  0
   -2.3162   -0.2702    1.7461 H   0  0  0  0  0  0  0  0  0  0  0  0
   -3.1659    0.8733   -0.9639 H   0  0  0  0  0  0  0  0  0  0  0  0
   -2.4230    1.7188    0.4053 H   0  0  0  0  0  0  0  0  0  0  0  0
   -1.0680   -0.4966   -1.2432 H   0  0  0  0  0  0  0  0  0  0  0  0
   -1.1445    1.3807   -2.3972 H   0  0  0  0  0  0  0  0  0  0  0  0
   -0.3462   -0.3127    1.2185 H   0  0  0  0  0  0  0  0  0  0  0  0
   -0.0303    1.4378    0.9095 H   0  0  0  0  0  0  0  0  0  0  0  0
    1.8182    1.0405   -0.5227 H   0  0  0  0  0  0  0  0  0  0  0  0
    1.6463   -1.6148    1.2329 H   0  0  0  0  0  0  0  0  0  0  0  0
    3.9207   -0.4684   -0.5144 H   0  0  0  0  0  0  0  0  0  0  0  0
    3.7233    0.1310    1.1418 H   0  0  0  0  0  0  0  0  0  0  0  0
    4.1028   -1.6524    0.8912 H   0  0  0  0  0  0  0  0  0  0  0  0
  1  2  1  0
  2  3  1  0
  3  4  1  0
  3  5  1  0
  5  6  1  0
  6  7  1  0
  7  8  1  0
  8  9  1  0
  8  6  1  0
  1 10  1  0
  1 11  1  0
  1 12  1  0
  2 13  1  0
  2 14  1  0
  3 15  1  0
  4 16  1  0
  5 17  1  0
  5 18  1  0
  6 19  1  0
  8 20  1  0
  9 21  1  0
  9 22  1  0
  9 23  1  0
M  END
