
     RDKit          3D

 21 20  0  0  0  0  0  0  0  0999 V2000
   -2.8390   -0.5464    0.1958 C   0  0  0  0  0  0  0  0  0  0  0  0
   -1.6890    0.1918    0.8444 C   0  0  0  0  0  0  0  0  0  0  0  0
   -0.4021   -0.4716    0.4633 C   0  0  0  0  0  0  0  0  0  0  0  0
    0.1401   -1.2420    1.2170 O   0  0  0  0  0  0  0  0  0  0  0  0
    0.1899   -0.1572   -0.8669 C   0  0  0  0  0  0  0  0  0  0  0  0
   -0.7893    0.6311   -1.5773 O   0  0  0  0  0  0  0  0  0  0  0  0
    1.4025    0.7130   -0.8217 C   0  0  0  0  0  0  0  0  0  0  0  0
    2.5270    0.2310   -0.3611 O   0  0  0  0  0  0  0  0  0  0  0  0
    2.8074   -0.3103    0.8110 C   0  0  0  0  0  0  0  0  0  0  0  0
   -2.4589   -1.0771   -0.7277 H   0  0  0  0  0  0  0  0  0  0  0  0
   -3.6127    0.1997   -0.0859 H   0  0  0  0  0  0  0  0  0  0  0  0
   -3.2152   -1.3407    0.8662 H   0  0  0  0  0  0  0  0  0  0  0  0
   -1.6601    1.2645    0.6066 H   0  0  0  0  0  0  0  0  0  0  0  0
   -1.8249    0.1115    1.9487 H   0  0  0  0  0  0  0  0  0  0  0  0
    0.3262   -1.0826   -1.4138 H   0  0  0  0  0  0  0  0  0  0  0  0
   -0.7591    1.5419   -1.1947 H   0  0  0  0  0  0  0  0  0  0  0  0
    1.0786    1.7034   -0.3580 H   0  0  0  0  0  0  0  0  0  0  0  0
    1.5876    1.0744   -1.9058 H   0  0  0  0  0  0  0  0  0  0  0  0
    2.5530    0.2552    1.7386 H   0  0  0  0  0  0  0  0  0  0  0  0
    3.9963   -0.2999    0.8664 H   0  0  0  0  0  0  0  0  0  0  0  0
    2.6416   -1.3900    0.9485 H   0  0  0  0  0  0  0  0  0  0  0  0
  1  2  1  0
  2  3  1  0
  3  4  2  0
  3  5  1  0
  5  6  1  0
  5  7  1  0
  7  8  1  0
  8  9  1  0
  1 10  1  0
  1 11  1  0
  1 12  1  0
  2 13  1  0
  2 14  1  0
  5 15  1  0
  6 16  1  0
  7 17  1  0
  7 18  1  0
  9 19  1  0
  9 20  1  0
  9 21  1  0
M  END
