
     RDKit          3D

 21 21  0  0  0  0  0  0  0  0999 V2000
    3.0106    0.7751   -0.7880 C   0  0  0  0  0  0  0  0  0  0  0  0
    2.0859    0.2429    0.2755 C   0  0  0  0  0  0  0  0  0  0  0  0
    0.8022   -0.2522   -0.2722 C   0  0  0  0  0  0  0  0  0  0  0  0
    0.4887   -0.2481   -1.4460 O   0  0  0  0  0  0  0  0  0  0  0  0
   -0.1845   -0.7995    0.6941 C   0  0  0  0  0  0  0  0  0  0  0  0
   -1.4526   -1.2653    0.0759 C   0  0  0  0  0  0  0  0  0  0  0  0
   -2.2274   -0.2096   -0.6582 C   0  0  0  0  0  0  0  0  0  0  0  0
   -2.6952    0.9985    0.1311 C   0  0  0  0  0  0  0  0  0  0  0  0
   -1.7271    1.0434   -0.8909 O   0  0  0  0  0  0  0  0  0  0  0  0
    3.6707    1.5419   -0.3487 H   0  0  0  0  0  0  0  0  0  0  0  0
    3.6590   -0.0243   -1.2135 H   0  0  0  0  0  0  0  0  0  0  0  0
    2.3907    1.2372   -1.5682 H   0  0  0  0  0  0  0  0  0  0  0  0
    1.9127    1.0747    1.0005 H   0  0  0  0  0  0  0  0  0  0  0  0
    2.6045   -0.5552    0.8695 H   0  0  0  0  0  0  0  0  0  0  0  0
   -0.3193   -0.0596    1.5068 H   0  0  0  0  0  0  0  0  0  0  0  0
    0.3051   -1.7053    1.1463 H   0  0  0  0  0  0  0  0  0  0  0  0
   -2.1124   -1.6119    0.9166 H   0  0  0  0  0  0  0  0  0  0  0  0
   -1.2568   -2.1595   -0.5327 H   0  0  0  0  0  0  0  0  0  0  0  0
   -3.0298   -0.6279   -1.3161 H   0  0  0  0  0  0  0  0  0  0  0  0
   -2.2613    1.1444    1.1502 H   0  0  0  0  0  0  0  0  0  0  0  0
   -3.6640    1.4602   -0.0916 H   0  0  0  0  0  0  0  0  0  0  0  0
  1  2  1  0
  2  3  1  0
  3  4  2  0
  3  5  1  0
  5  6  1  0
  6  7  1  0
  7  8  1  0
  8  9  1  0
  9  7  1  0
  1 10  1  0
  1 11  1  0
  1 12  1  0
  2 13  1  0
  2 14  1  0
  5 15  1  0
  5 16  1  0
  6 17  1  0
  6 18  1  0
  7 19  1  0
  8 20  1  0
  8 21  1  0
M  END
