
     RDKit          3D

 23 23  0  0  0  0  0  0  0  0999 V2000
   -0.6598   -2.0742   -0.3481 C   0  0  0  0  0  0  0  0  0  0  0  0
   -1.1037   -0.8202    0.2809 C   0  0  0  0  0  0  0  0  0  0  0  0
   -0.5020    0.4585   -0.0952 C   0  0  0  0  0  0  0  0  0  0  0  0
   -1.1674    1.4468    0.6892 O   0  0  0  0  0  0  0  0  0  0  0  0
   -1.8568    2.3463   -0.1057 C   0  0  0  0  0  0  0  0  0  0  0  0
    0.9413    0.6905    0.1241 C   0  0  0  0  0  0  0  0  0  0  0  0
    1.9451   -0.3030   -0.3647 C   0  0  0  0  0  0  0  0  0  0  0  0
    2.1614   -0.5489    1.1039 C   0  0  0  0  0  0  0  0  0  0  0  0
    1.4336    0.5856    1.4018 O   0  0  0  0  0  0  0  0  0  0  0  0
   -0.5244   -2.0286   -1.4484 H   0  0  0  0  0  0  0  0  0  0  0  0
    0.1668   -2.6113    0.1690 H   0  0  0  0  0  0  0  0  0  0  0  0
   -1.5203   -2.8142   -0.2502 H   0  0  0  0  0  0  0  0  0  0  0  0
   -1.0246   -0.9774    1.4007 H   0  0  0  0  0  0  0  0  0  0  0  0
   -2.2238   -0.7264    0.1384 H   0  0  0  0  0  0  0  0  0  0  0  0
   -0.7482    0.7208   -1.1437 H   0  0  0  0  0  0  0  0  0  0  0  0
   -1.1381    2.8609   -0.7913 H   0  0  0  0  0  0  0  0  0  0  0  0
   -2.2788    3.1482    0.5307 H   0  0  0  0  0  0  0  0  0  0  0  0
   -2.6792    1.8635   -0.6686 H   0  0  0  0  0  0  0  0  0  0  0  0
    1.2476    1.7152   -0.2647 H   0  0  0  0  0  0  0  0  0  0  0  0
    1.6271   -1.1324   -0.9841 H   0  0  0  0  0  0  0  0  0  0  0  0
    2.8596    0.1502   -0.8570 H   0  0  0  0  0  0  0  0  0  0  0  0
    1.7918   -1.5022    1.5199 H   0  0  0  0  0  0  0  0  0  0  0  0
    3.2529   -0.4476    1.3753 H   0  0  0  0  0  0  0  0  0  0  0  0
  1  2  1  0
  2  3  1  0
  3  4  1  0
  4  5  1  0
  3  6  1  0
  6  7  1  0
  7  8  1  0
  8  9  1  0
  9  6  1  0
  1 10  1  0
  1 11  1  0
  1 12  1  0
  2 13  1  0
  2 14  1  0
  3 15  1  0
  5 16  1  0
  5 17  1  0
  5 18  1  0
  6 19  1  0
  7 20  1  0
  7 21  1  0
  8 22  1  0
  8 23  1  0
M  END
