
     RDKit          3D

 21 20  0  0  0  0  0  0  0  0999 V2000
    3.0812   -0.3886    0.2040 C   0  0  0  0  0  0  0  0  0  0  0  0
    1.6097   -0.2446    0.6139 C   0  0  0  0  0  0  0  0  0  0  0  0
    0.9099    0.6400   -0.3476 C   0  0  0  0  0  0  0  0  0  0  0  0
    1.5108    1.0449   -1.3614 O   0  0  0  0  0  0  0  0  0  0  0  0
   -0.4858    1.0519   -0.1215 C   0  0  0  0  0  0  0  0  0  0  0  0
   -1.4083   -0.1214   -0.2749 C   0  0  0  0  0  0  0  0  0  0  0  0
   -2.8221    0.4244   -0.0639 C   0  0  0  0  0  0  0  0  0  0  0  0
   -1.1116   -1.1537    0.7514 C   0  0  0  0  0  0  0  0  0  0  0  0
   -1.0049   -0.8843    1.9498 O   0  0  0  0  0  0  0  0  0  0  0  0
    3.6081    0.5761    0.1772 H   0  0  0  0  0  0  0  0  0  0  0  0
    3.0883   -0.8353   -0.8090 H   0  0  0  0  0  0  0  0  0  0  0  0
    3.5295   -1.1031    0.9202 H   0  0  0  0  0  0  0  0  0  0  0  0
    1.2375   -1.3169    0.4963 H   0  0  0  0  0  0  0  0  0  0  0  0
    1.5218    0.1180    1.6387 H   0  0  0  0  0  0  0  0  0  0  0  0
   -0.7664    1.8410   -0.8858 H   0  0  0  0  0  0  0  0  0  0  0  0
   -0.5989    1.5050    0.8859 H   0  0  0  0  0  0  0  0  0  0  0  0
   -1.3910   -0.6024   -1.2641 H   0  0  0  0  0  0  0  0  0  0  0  0
   -3.2945   -0.2338    0.7067 H   0  0  0  0  0  0  0  0  0  0  0  0
   -3.4043    0.4211   -1.0198 H   0  0  0  0  0  0  0  0  0  0  0  0
   -2.8323    1.4452    0.3479 H   0  0  0  0  0  0  0  0  0  0  0  0
   -0.9766   -2.1835    0.4743 H   0  0  0  0  0  0  0  0  0  0  0  0
  1  2  1  0
  2  3  1  0
  3  4  2  0
  3  5  1  0
  5  6  1  0
  6  7  1  0
  6  8  1  0
  8  9  2  0
  1 10  1  0
  1 11  1  0
  1 12  1  0
  2 13  1  0
  2 14  1  0
  5 15  1  0
  5 16  1  0
  6 17  1  0
  7 18  1  0
  7 19  1  0
  7 20  1  0
  8 21  1  0
M  END
