
     RDKit          3D

 15 15  0  0  0  0  0  0  0  0999 V2000
   -2.1873    0.2890   -0.2943 C   0  0  0  0  0  0  0  0  0  0  0  0
   -1.1561   -0.7893   -0.0336 C   0  0  0  0  0  0  0  0  0  0  0  0
    0.0938   -0.2237    0.5366 C   0  0  0  0  0  0  0  0  0  0  0  0
    0.1465    0.0414    1.7120 O   0  0  0  0  0  0  0  0  0  0  0  0
    1.2540   -0.0043   -0.3942 C   0  0  0  0  0  0  0  0  0  0  0  0
    2.4900    0.6310    0.1323 C   0  0  0  0  0  0  0  0  0  0  0  0
    2.4185   -0.7544    0.2019 O   0  0  0  0  0  0  0  0  0  0  0  0
   -2.6429    0.5767    0.6624 H   0  0  0  0  0  0  0  0  0  0  0  0
   -2.9205   -0.0150   -1.0648 H   0  0  0  0  0  0  0  0  0  0  0  0
   -1.6111    1.1541   -0.7292 H   0  0  0  0  0  0  0  0  0  0  0  0
   -1.5831   -1.5857    0.6362 H   0  0  0  0  0  0  0  0  0  0  0  0
   -0.9773   -1.2838   -1.0293 H   0  0  0  0  0  0  0  0  0  0  0  0
    1.1384   -0.2635   -1.4430 H   0  0  0  0  0  0  0  0  0  0  0  0
    3.1933    0.9922   -0.6377 H   0  0  0  0  0  0  0  0  0  0  0  0
    2.3439    1.2353    1.0600 H   0  0  0  0  0  0  0  0  0  0  0  0
  1  2  1  0
  2  3  1  0
  3  4  2  0
  3  5  1  0
  5  6  1  0
  6  7  1  0
  7  5  1  0
  1  8  1  0
  1  9  1  0
  1 10  1  0
  2 11  1  0
  2 12  1  0
  5 13  1  0
  6 14  1  0
  6 15  1  0
M  END
