
     RDKit          3D

 21 20  0  0  0  0  0  0  0  0999 V2000
   -2.6512   -0.2279   -0.2703 C   0  0  0  0  0  0  0  0  0  0  0  0
   -1.2729    0.0818   -0.7502 C   0  0  0  0  0  0  0  0  0  0  0  0
   -0.2254   -0.1319    0.3346 C   0  0  0  0  0  0  0  0  0  0  0  0
   -0.5507    0.7820    1.5010 C   0  0  0  0  0  0  0  0  0  0  0  0
   -0.1851   -1.4596    0.6784 O   0  0  0  0  0  0  0  0  0  0  0  0
    1.0864    0.2924   -0.2042 C   0  0  0  0  0  0  0  0  0  0  0  0
    1.3267    1.4605   -0.5960 O   0  0  0  0  0  0  0  0  0  0  0  0
    2.1192   -0.6293   -0.2910 O   0  0  0  0  0  0  0  0  0  0  0  0
    3.3771   -0.2377   -0.8036 C   0  0  0  0  0  0  0  0  0  0  0  0
   -2.7374   -1.1000    0.3769 H   0  0  0  0  0  0  0  0  0  0  0  0
   -3.2938   -0.4347   -1.1697 H   0  0  0  0  0  0  0  0  0  0  0  0
   -3.1441    0.6245    0.2507 H   0  0  0  0  0  0  0  0  0  0  0  0
   -1.0176   -0.6054   -1.5977 H   0  0  0  0  0  0  0  0  0  0  0  0
   -1.2529    1.1320   -1.1089 H   0  0  0  0  0  0  0  0  0  0  0  0
   -0.1428    1.7752    1.2777 H   0  0  0  0  0  0  0  0  0  0  0  0
    0.0067    0.3911    2.3824 H   0  0  0  0  0  0  0  0  0  0  0  0
   -1.6265    0.8908    1.6738 H   0  0  0  0  0  0  0  0  0  0  0  0
   -0.9726   -1.7967    1.1308 H   0  0  0  0  0  0  0  0  0  0  0  0
    3.7796   -1.1273   -1.3676 H   0  0  0  0  0  0  0  0  0  0  0  0
    3.3272    0.5943   -1.5050 H   0  0  0  0  0  0  0  0  0  0  0  0
    4.0502   -0.0871    0.0578 H   0  0  0  0  0  0  0  0  0  0  0  0
  1  2  1  0
  2  3  1  0
  3  4  1  0
  3  5  1  0
  3  6  1  0
  6  7  2  0
  6  8  1  0
  8  9  1  0
  1 10  1  0
  1 11  1  0
  1 12  1  0
  2 13  1  0
  2 14  1  0
  4 15  1  0
  4 16  1  0
  4 17  1  0
  5 18  1  0
  9 19  1  0
  9 20  1  0
  9 21  1  0
M  END
