
     RDKit          3D

 19 19  0  0  0  0  0  0  0  0999 V2000
    2.4869    0.3670   -0.2560 C   0  0  0  0  0  0  0  0  0  0  0  0
    1.8005   -0.9217    0.1289 C   0  0  0  0  0  0  0  0  0  0  0  0
    0.3296   -0.7957    0.1448 C   0  0  0  0  0  0  0  0  0  0  0  0
   -0.3352   -1.7700    0.4445 O   0  0  0  0  0  0  0  0  0  0  0  0
   -0.3675    0.4437   -0.1823 C   0  0  0  0  0  0  0  0  0  0  0  0
   -1.5206    0.8052    0.8031 C   0  0  0  0  0  0  0  0  0  0  0  0
   -1.8297   -0.1419    1.7683 O   0  0  0  0  0  0  0  0  0  0  0  0
   -1.7710    0.4928   -0.6244 C   0  0  0  0  0  0  0  0  0  0  0  0
   -2.5092   -0.6694   -0.8516 O   0  0  0  0  0  0  0  0  0  0  0  0
    2.2938    0.6088   -1.3186 H   0  0  0  0  0  0  0  0  0  0  0  0
    2.1647    1.2244    0.3533 H   0  0  0  0  0  0  0  0  0  0  0  0
    3.5847    0.2813   -0.1209 H   0  0  0  0  0  0  0  0  0  0  0  0
    2.2180   -1.2092    1.1308 H   0  0  0  0  0  0  0  0  0  0  0  0
    2.1388   -1.7173   -0.5649 H   0  0  0  0  0  0  0  0  0  0  0  0
    0.2914    1.2955   -0.4475 H   0  0  0  0  0  0  0  0  0  0  0  0
   -1.5082    1.8612    1.1728 H   0  0  0  0  0  0  0  0  0  0  0  0
   -2.4918   -0.8043    1.4667 H   0  0  0  0  0  0  0  0  0  0  0  0
   -2.0365    1.3137   -1.3192 H   0  0  0  0  0  0  0  0  0  0  0  0
   -2.9388   -0.6641   -1.7279 H   0  0  0  0  0  0  0  0  0  0  0  0
  1  2  1  0
  2  3  1  0
  3  4  2  0
  3  5  1  0
  5  6  1  0
  6  7  1  0
  6  8  1  0
  8  9  1  0
  8  5  1  0
  1 10  1  0
  1 11  1  0
  1 12  1  0
  2 13  1  0
  2 14  1  0
  5 15  1  0
  6 16  1  0
  7 17  1  0
  8 18  1  0
  9 19  1  0
M  END
