
     RDKit          3D

 25 24  0  0  0  0  0  0  0  0999 V2000
    1.9067   -1.4794    0.5426 C   0  0  0  0  0  0  0  0  0  0  0  0
    1.6864   -0.0145    0.5617 C   0  0  0  0  0  0  0  0  0  0  0  0
    0.6886    0.5308   -0.3957 C   0  0  0  0  0  0  0  0  0  0  0  0
    0.6405    2.0014   -0.1978 C   0  0  0  0  0  0  0  0  0  0  0  0
    1.2827    2.7891   -0.8520 O   0  0  0  0  0  0  0  0  0  0  0  0
   -0.7082    0.0300   -0.2643 C   0  0  0  0  0  0  0  0  0  0  0  0
   -1.5185    0.7504   -1.3576 C   0  0  0  0  0  0  0  0  0  0  0  0
   -0.9013   -1.4337   -0.5331 C   0  0  0  0  0  0  0  0  0  0  0  0
   -1.3610    0.3651    1.0412 C   0  0  0  0  0  0  0  0  0  0  0  0
    1.6382   -1.9964   -0.3874 H   0  0  0  0  0  0  0  0  0  0  0  0
    1.4680   -1.9400    1.4576 H   0  0  0  0  0  0  0  0  0  0  0  0
    3.0144   -1.6795    0.6645 H   0  0  0  0  0  0  0  0  0  0  0  0
    1.4624    0.3074    1.5977 H   0  0  0  0  0  0  0  0  0  0  0  0
    2.6610    0.5023    0.3140 H   0  0  0  0  0  0  0  0  0  0  0  0
    1.0228    0.3724   -1.4403 H   0  0  0  0  0  0  0  0  0  0  0  0
   -0.0033    2.3861    0.5721 H   0  0  0  0  0  0  0  0  0  0  0  0
   -2.4278    0.1674   -1.6033 H   0  0  0  0  0  0  0  0  0  0  0  0
   -1.8402    1.7466   -1.0029 H   0  0  0  0  0  0  0  0  0  0  0  0
   -0.8897    0.7746   -2.2580 H   0  0  0  0  0  0  0  0  0  0  0  0
   -0.6449   -2.0578    0.3461 H   0  0  0  0  0  0  0  0  0  0  0  0
   -2.0171   -1.5834   -0.6547 H   0  0  0  0  0  0  0  0  0  0  0  0
   -0.4757   -1.7813   -1.4851 H   0  0  0  0  0  0  0  0  0  0  0  0
   -1.7503    1.3984    1.0926 H   0  0  0  0  0  0  0  0  0  0  0  0
   -2.2538   -0.3097    1.1374 H   0  0  0  0  0  0  0  0  0  0  0  0
   -0.6796    0.1539    1.9015 H   0  0  0  0  0  0  0  0  0  0  0  0
  1  2  1  0
  2  3  1  0
  3  4  1  0
  4  5  2  0
  3  6  1  0
  6  7  1  0
  6  8  1  0
  6  9  1  0
  1 10  1  0
  1 11  1  0
  1 12  1  0
  2 13  1  0
  2 14  1  0
  3 15  1  0
  4 16  1  0
  7 17  1  0
  7 18  1  0
  7 19  1  0
  8 20  1  0
  8 21  1  0
  8 22  1  0
  9 23  1  0
  9 24  1  0
  9 25  1  0
M  END
