
     RDKit          3D

 25 24  0  0  0  0  0  0  0  0999 V2000
   -1.9086    1.5804   -0.5996 C   0  0  0  0  0  0  0  0  0  0  0  0
   -0.4962    1.1072   -0.5841 C   0  0  0  0  0  0  0  0  0  0  0  0
   -0.3015   -0.2943   -0.1034 C   0  0  0  0  0  0  0  0  0  0  0  0
   -1.0276   -1.3168   -0.9361 C   0  0  0  0  0  0  0  0  0  0  0  0
   -0.7081   -0.4824    1.3386 C   0  0  0  0  0  0  0  0  0  0  0  0
   -2.0214   -0.1962    1.5867 O   0  0  0  0  0  0  0  0  0  0  0  0
    1.1812   -0.5694   -0.2836 C   0  0  0  0  0  0  0  0  0  0  0  0
    1.8479    0.3871    0.5079 O   0  0  0  0  0  0  0  0  0  0  0  0
    3.2147    0.1566    0.3603 C   0  0  0  0  0  0  0  0  0  0  0  0
   -2.6188    0.8253   -0.9473 H   0  0  0  0  0  0  0  0  0  0  0  0
   -1.9548    2.4231   -1.3490 H   0  0  0  0  0  0  0  0  0  0  0  0
   -2.2338    2.0541    0.3644 H   0  0  0  0  0  0  0  0  0  0  0  0
    0.1105    1.7719    0.0651 H   0  0  0  0  0  0  0  0  0  0  0  0
   -0.0470    1.1727   -1.6040 H   0  0  0  0  0  0  0  0  0  0  0  0
   -0.8240   -2.3132   -0.4624 H   0  0  0  0  0  0  0  0  0  0  0  0
   -0.5990   -1.3920   -1.9637 H   0  0  0  0  0  0  0  0  0  0  0  0
   -2.1237   -1.1769   -0.9468 H   0  0  0  0  0  0  0  0  0  0  0  0
   -0.5243   -1.5385    1.6262 H   0  0  0  0  0  0  0  0  0  0  0  0
   -0.0786    0.1304    2.0293 H   0  0  0  0  0  0  0  0  0  0  0  0
   -2.4434   -0.7590    2.2828 H   0  0  0  0  0  0  0  0  0  0  0  0
    1.4144   -0.2977   -1.3414 H   0  0  0  0  0  0  0  0  0  0  0  0
    1.4618   -1.5920   -0.0333 H   0  0  0  0  0  0  0  0  0  0  0  0
    3.3948   -0.8833    0.7163 H   0  0  0  0  0  0  0  0  0  0  0  0
    3.7848    0.9024    0.9784 H   0  0  0  0  0  0  0  0  0  0  0  0
    3.5007    0.3006   -0.7010 H   0  0  0  0  0  0  0  0  0  0  0  0
  1  2  1  0
  2  3  1  0
  3  4  1  0
  3  5  1  0
  5  6  1  0
  3  7  1  0
  7  8  1  0
  8  9  1  0
  1 10  1  0
  1 11  1  0
  1 12  1  0
  2 13  1  0
  2 14  1  0
  4 15  1  0
  4 16  1  0
  4 17  1  0
  5 18  1  0
  5 19  1  0
  6 20  1  0
  7 21  1  0
  7 22  1  0
  9 23  1  0
  9 24  1  0
  9 25  1  0
M  END
