
     RDKit          3D

 25 24  0  0  0  0  0  0  0  0999 V2000
   -2.0543   -1.1509   -0.4883 C   0  0  0  0  0  0  0  0  0  0  0  0
   -1.6255   -0.0981    0.5084 C   0  0  0  0  0  0  0  0  0  0  0  0
   -0.3001    0.5089    0.2679 C   0  0  0  0  0  0  0  0  0  0  0  0
   -0.2712    1.1765   -1.0855 C   0  0  0  0  0  0  0  0  0  0  0  0
   -0.1347    1.6438    1.2607 C   0  0  0  0  0  0  0  0  0  0  0  0
    0.2611    1.3210    2.3676 O   0  0  0  0  0  0  0  0  0  0  0  0
    0.8960   -0.3473    0.4356 C   0  0  0  0  0  0  0  0  0  0  0  0
    1.0142   -1.5506   -0.4197 C   0  0  0  0  0  0  0  0  0  0  0  0
    2.1973    0.4575    0.2725 C   0  0  0  0  0  0  0  0  0  0  0  0
   -3.1567   -1.2718   -0.4047 H   0  0  0  0  0  0  0  0  0  0  0  0
   -1.8149   -0.8952   -1.5215 H   0  0  0  0  0  0  0  0  0  0  0  0
   -1.5684   -2.0980   -0.2118 H   0  0  0  0  0  0  0  0  0  0  0  0
   -2.4024    0.7206    0.4182 H   0  0  0  0  0  0  0  0  0  0  0  0
   -1.7723   -0.4682    1.5578 H   0  0  0  0  0  0  0  0  0  0  0  0
   -0.0414    0.4898   -1.9055 H   0  0  0  0  0  0  0  0  0  0  0  0
   -1.2527    1.6512   -1.3356 H   0  0  0  0  0  0  0  0  0  0  0  0
    0.4649    2.0076   -1.0492 H   0  0  0  0  0  0  0  0  0  0  0  0
   -0.3425    2.6587    1.0324 H   0  0  0  0  0  0  0  0  0  0  0  0
    0.9741   -0.7194    1.5056 H   0  0  0  0  0  0  0  0  0  0  0  0
    2.0930   -1.7368   -0.7129 H   0  0  0  0  0  0  0  0  0  0  0  0
    0.7576   -2.4984    0.1393 H   0  0  0  0  0  0  0  0  0  0  0  0
    0.4693   -1.5624   -1.3538 H   0  0  0  0  0  0  0  0  0  0  0  0
    2.3248    0.7929   -0.7705 H   0  0  0  0  0  0  0  0  0  0  0  0
    2.2754    1.2445    1.0248 H   0  0  0  0  0  0  0  0  0  0  0  0
    3.0091   -0.2761    0.4683 H   0  0  0  0  0  0  0  0  0  0  0  0
  1  2  1  0
  2  3  1  0
  3  4  1  0
  3  5  1  0
  5  6  2  0
  3  7  1  0
  7  8  1  0
  7  9  1  0
  1 10  1  0
  1 11  1  0
  1 12  1  0
  2 13  1  0
  2 14  1  0
  4 15  1  0
  4 16  1  0
  4 17  1  0
  5 18  1  0
  7 19  1  0
  8 20  1  0
  8 21  1  0
  8 22  1  0
  9 23  1  0
  9 24  1  0
  9 25  1  0
M  END
