
     RDKit          3D

 20 20  0  0  0  0  0  0  0  0999 V2000
   -2.1674    0.8453   -0.6127 C   0  0  0  0  0  0  0  0  0  0  0  0
   -1.9248   -0.4809    0.0845 C   0  0  0  0  0  0  0  0  0  0  0  0
   -0.8087   -1.2292   -0.5180 C   0  0  0  0  0  0  0  0  0  0  0  0
   -1.0577   -2.1555   -1.2849 O   0  0  0  0  0  0  0  0  0  0  0  0
    0.5970   -0.8997   -0.2332 C   0  0  0  0  0  0  0  0  0  0  0  0
    0.9557   -0.6536    1.2172 C   0  0  0  0  0  0  0  0  0  0  0  0
    1.0538    0.4350    0.1989 C   0  0  0  0  0  0  0  0  0  0  0  0
    2.4975    0.8675   -0.0674 C   0  0  0  0  0  0  0  0  0  0  0  0
   -1.5303    0.9366   -1.5034 H   0  0  0  0  0  0  0  0  0  0  0  0
   -1.9690    1.6933    0.1153 H   0  0  0  0  0  0  0  0  0  0  0  0
   -3.2162    0.9935   -0.9265 H   0  0  0  0  0  0  0  0  0  0  0  0
   -1.8433   -0.3646    1.1845 H   0  0  0  0  0  0  0  0  0  0  0  0
   -2.9000   -1.0442   -0.0466 H   0  0  0  0  0  0  0  0  0  0  0  0
    1.3786   -1.5261   -0.7524 H   0  0  0  0  0  0  0  0  0  0  0  0
    0.1484   -0.6185    1.9876 H   0  0  0  0  0  0  0  0  0  0  0  0
    1.8771   -1.1239    1.6371 H   0  0  0  0  0  0  0  0  0  0  0  0
    0.3833    1.3222    0.2224 H   0  0  0  0  0  0  0  0  0  0  0  0
    2.6281    0.9034   -1.1665 H   0  0  0  0  0  0  0  0  0  0  0  0
    3.2268    0.2148    0.4410 H   0  0  0  0  0  0  0  0  0  0  0  0
    2.6711    1.8845    0.3625 H   0  0  0  0  0  0  0  0  0  0  0  0
  1  2  1  0
  2  3  1  0
  3  4  2  0
  3  5  1  0
  5  6  1  0
  6  7  1  0
  7  8  1  0
  7  5  1  0
  1  9  1  0
  1 10  1  0
  1 11  1  0
  2 12  1  0
  2 13  1  0
  5 14  1  0
  6 15  1  0
  6 16  1  0
  7 17  1  0
  8 18  1  0
  8 19  1  0
  8 20  1  0
M  END
