
     RDKit          3D

 25 25  0  0  0  0  0  0  0  0999 V2000
    2.5883   -0.1782    0.5502 C   0  0  0  0  0  0  0  0  0  0  0  0
    1.9010    0.0069   -0.7572 C   0  0  0  0  0  0  0  0  0  0  0  0
    0.5391   -0.5140   -0.8563 C   0  0  0  0  0  0  0  0  0  0  0  0
    0.0956   -0.2472   -2.2016 O   0  0  0  0  0  0  0  0  0  0  0  0
   -0.5245   -0.0614    0.0535 C   0  0  0  0  0  0  0  0  0  0  0  0
   -0.3335   -0.3168    1.5040 C   0  0  0  0  0  0  0  0  0  0  0  0
   -1.9350   -0.5314   -0.3705 C   0  0  0  0  0  0  0  0  0  0  0  0
   -2.4243    0.7795    0.2282 C   0  0  0  0  0  0  0  0  0  0  0  0
   -1.0831    1.3347   -0.2206 C   0  0  0  0  0  0  0  0  0  0  0  0
    2.1455    0.4379    1.3320 H   0  0  0  0  0  0  0  0  0  0  0  0
    2.5559   -1.2512    0.8575 H   0  0  0  0  0  0  0  0  0  0  0  0
    3.6760    0.1178    0.4743 H   0  0  0  0  0  0  0  0  0  0  0  0
    2.0132    1.0858   -1.0341 H   0  0  0  0  0  0  0  0  0  0  0  0
    2.5061   -0.5516   -1.5485 H   0  0  0  0  0  0  0  0  0  0  0  0
    0.5948   -1.6439   -0.8520 H   0  0  0  0  0  0  0  0  0  0  0  0
    0.5854   -0.8661   -2.8002 H   0  0  0  0  0  0  0  0  0  0  0  0
    0.3936   -1.1215    1.6966 H   0  0  0  0  0  0  0  0  0  0  0  0
   -1.2927   -0.7141    1.9679 H   0  0  0  0  0  0  0  0  0  0  0  0
   -0.0355    0.5697    2.1095 H   0  0  0  0  0  0  0  0  0  0  0  0
   -2.0166   -0.4812   -1.4652 H   0  0  0  0  0  0  0  0  0  0  0  0
   -2.2653   -1.4365    0.1329 H   0  0  0  0  0  0  0  0  0  0  0  0
   -3.3044    1.2002   -0.2988 H   0  0  0  0  0  0  0  0  0  0  0  0
   -2.5845    0.7426    1.3038 H   0  0  0  0  0  0  0  0  0  0  0  0
   -1.1301    1.5044   -1.3226 H   0  0  0  0  0  0  0  0  0  0  0  0
   -0.6651    2.1356    0.3845 H   0  0  0  0  0  0  0  0  0  0  0  0
  1  2  1  0
  2  3  1  0
  3  4  1  0
  3  5  1  0
  5  6  1  0
  5  7  1  0
  7  8  1  0
  8  9  1  0
  9  5  1  0
  1 10  1  0
  1 11  1  0
  1 12  1  0
  2 13  1  0
  2 14  1  0
  3 15  1  0
  4 16  1  0
  6 17  1  0
  6 18  1  0
  6 19  1  0
  7 20  1  0
  7 21  1  0
  8 22  1  0
  8 23  1  0
  9 24  1  0
  9 25  1  0
M  END
