
     RDKit          3D

 27 26  0  0  0  0  0  0  0  0999 V2000
    2.7388   -0.1044    1.2015 C   0  0  0  0  0  0  0  0  0  0  0  0
    1.2755    0.3621    1.0602 C   0  0  0  0  0  0  0  0  0  0  0  0
    0.7947   -0.1835   -0.2240 C   0  0  0  0  0  0  0  0  0  0  0  0
    1.6368    0.3533   -1.2302 O   0  0  0  0  0  0  0  0  0  0  0  0
   -0.6076    0.0330   -0.6223 C   0  0  0  0  0  0  0  0  0  0  0  0
   -1.0020    1.4899   -0.7464 C   0  0  0  0  0  0  0  0  0  0  0  0
   -0.6701   -0.4685   -2.0898 C   0  0  0  0  0  0  0  0  0  0  0  0
   -1.6364   -0.8108    0.0676 C   0  0  0  0  0  0  0  0  0  0  0  0
   -1.7232   -0.6715    1.5419 C   0  0  0  0  0  0  0  0  0  0  0  0
    3.0510   -0.1299    2.2518 H   0  0  0  0  0  0  0  0  0  0  0  0
    2.7882   -1.1711    0.8399 H   0  0  0  0  0  0  0  0  0  0  0  0
    3.3661    0.4865    0.5349 H   0  0  0  0  0  0  0  0  0  0  0  0
    0.8038    0.0180    1.9757 H   0  0  0  0  0  0  0  0  0  0  0  0
    1.3239    1.4773    1.0836 H   0  0  0  0  0  0  0  0  0  0  0  0
    0.9661   -1.2973   -0.2037 H   0  0  0  0  0  0  0  0  0  0  0  0
    1.6531    1.3343   -1.0977 H   0  0  0  0  0  0  0  0  0  0  0  0
   -1.9822    1.4852   -1.3040 H   0  0  0  0  0  0  0  0  0  0  0  0
   -1.0810    1.9985    0.2278 H   0  0  0  0  0  0  0  0  0  0  0  0
   -0.2716    1.9713   -1.4237 H   0  0  0  0  0  0  0  0  0  0  0  0
    0.0993    0.1059   -2.6643 H   0  0  0  0  0  0  0  0  0  0  0  0
   -0.3443   -1.5206   -2.0424 H   0  0  0  0  0  0  0  0  0  0  0  0
   -1.6821   -0.3161   -2.4760 H   0  0  0  0  0  0  0  0  0  0  0  0
   -1.4100   -1.8665   -0.1864 H   0  0  0  0  0  0  0  0  0  0  0  0
   -2.6464   -0.5555   -0.3621 H   0  0  0  0  0  0  0  0  0  0  0  0
   -1.1059   -1.3885    2.1196 H   0  0  0  0  0  0  0  0  0  0  0  0
   -1.5545    0.3373    1.9334 H   0  0  0  0  0  0  0  0  0  0  0  0
   -2.7796   -0.9685    1.8350 H   0  0  0  0  0  0  0  0  0  0  0  0
  1  2  1  0
  2  3  1  0
  3  4  1  0
  3  5  1  0
  5  6  1  0
  5  7  1  0
  5  8  1  0
  8  9  1  0
  1 10  1  0
  1 11  1  0
  1 12  1  0
  2 13  1  0
  2 14  1  0
  3 15  1  0
  4 16  1  0
  6 17  1  0
  6 18  1  0
  6 19  1  0
  7 20  1  0
  7 21  1  0
  7 22  1  0
  8 23  1  0
  8 24  1  0
  9 25  1  0
  9 26  1  0
  9 27  1  0
M  END
