
     RDKit          3D

 21 21  0  0  0  0  0  0  0  0999 V2000
    3.1036    0.0806    0.4281 C   0  0  0  0  0  0  0  0  0  0  0  0
    1.6741    0.5946    0.5007 C   0  0  0  0  0  0  0  0  0  0  0  0
    0.8854   -0.0956   -0.5656 C   0  0  0  0  0  0  0  0  0  0  0  0
    1.2526    0.0862   -1.7144 O   0  0  0  0  0  0  0  0  0  0  0  0
   -0.2842   -0.9603   -0.2603 C   0  0  0  0  0  0  0  0  0  0  0  0
   -1.5533   -0.2344   -0.5367 C   0  0  0  0  0  0  0  0  0  0  0  0
   -1.6845    1.0199    0.2988 C   0  0  0  0  0  0  0  0  0  0  0  0
   -2.0973    0.2048    1.3538 O   0  0  0  0  0  0  0  0  0  0  0  0
   -2.6901   -0.6232    0.3952 C   0  0  0  0  0  0  0  0  0  0  0  0
    3.2765   -0.6915    1.2386 H   0  0  0  0  0  0  0  0  0  0  0  0
    3.2895   -0.4024   -0.5486 H   0  0  0  0  0  0  0  0  0  0  0  0
    3.7773    0.9256    0.6116 H   0  0  0  0  0  0  0  0  0  0  0  0
    1.2993    0.3522    1.5123 H   0  0  0  0  0  0  0  0  0  0  0  0
    1.6883    1.6877    0.2760 H   0  0  0  0  0  0  0  0  0  0  0  0
   -0.1955   -1.8824   -0.8672 H   0  0  0  0  0  0  0  0  0  0  0  0
   -0.2621   -1.2420    0.8216 H   0  0  0  0  0  0  0  0  0  0  0  0
   -1.8632   -0.1258   -1.5850 H   0  0  0  0  0  0  0  0  0  0  0  0
   -0.7590    1.5631    0.5179 H   0  0  0  0  0  0  0  0  0  0  0  0
   -2.5010    1.6439   -0.1568 H   0  0  0  0  0  0  0  0  0  0  0  0
   -2.7070   -1.6963    0.6539 H   0  0  0  0  0  0  0  0  0  0  0  0
   -3.6493   -0.2047    0.0820 H   0  0  0  0  0  0  0  0  0  0  0  0
  1  2  1  0
  2  3  1  0
  3  4  2  0
  3  5  1  0
  5  6  1  0
  6  7  1  0
  7  8  1  0
  8  9  1  0
  9  6  1  0
  1 10  1  0
  1 11  1  0
  1 12  1  0
  2 13  1  0
  2 14  1  0
  5 15  1  0
  5 16  1  0
  6 17  1  0
  7 18  1  0
  7 19  1  0
  9 20  1  0
  9 21  1  0
M  END
