
     RDKit          3D

 23 22  0  0  0  0  0  0  0  0999 V2000
    2.4411    0.4241    0.1450 C   0  0  0  0  0  0  0  0  0  0  0  0
    1.3486   -0.4845   -0.2749 C   0  0  0  0  0  0  0  0  0  0  0  0
   -0.0514   -0.0319   -0.0756 C   0  0  0  0  0  0  0  0  0  0  0  0
   -0.2829    0.2440    1.4001 C   0  0  0  0  0  0  0  0  0  0  0  0
   -0.9118   -1.3257   -0.2929 C   0  0  0  0  0  0  0  0  0  0  0  0
   -2.3755   -0.9813   -0.1124 C   0  0  0  0  0  0  0  0  0  0  0  0
   -0.5885    0.8635   -0.9504 O   0  0  0  0  0  0  0  0  0  0  0  0
   -0.1909    2.1268   -1.2148 C   0  0  0  0  0  0  0  0  0  0  0  0
    0.7721    2.6193   -0.6293 O   0  0  0  0  0  0  0  0  0  0  0  0
    2.2247    1.0697    1.0220 H   0  0  0  0  0  0  0  0  0  0  0  0
    3.2718   -0.2529    0.5459 H   0  0  0  0  0  0  0  0  0  0  0  0
    2.9082    0.9967   -0.6867 H   0  0  0  0  0  0  0  0  0  0  0  0
    1.4509   -1.4682    0.2386 H   0  0  0  0  0  0  0  0  0  0  0  0
    1.4844   -0.6746   -1.3724 H   0  0  0  0  0  0  0  0  0  0  0  0
    0.3338    1.0433    1.7955 H   0  0  0  0  0  0  0  0  0  0  0  0
   -1.3828    0.4174    1.5066 H   0  0  0  0  0  0  0  0  0  0  0  0
   -0.0777   -0.7136    1.9255 H   0  0  0  0  0  0  0  0  0  0  0  0
   -0.6172   -2.0697    0.4601 H   0  0  0  0  0  0  0  0  0  0  0  0
   -0.7275   -1.7266   -1.2916 H   0  0  0  0  0  0  0  0  0  0  0  0
   -2.9901   -1.5179   -0.8793 H   0  0  0  0  0  0  0  0  0  0  0  0
   -2.5587    0.1163   -0.1661 H   0  0  0  0  0  0  0  0  0  0  0  0
   -2.7283   -1.3638    0.8694 H   0  0  0  0  0  0  0  0  0  0  0  0
   -0.7525    2.6895   -1.9622 H   0  0  0  0  0  0  0  0  0  0  0  0
  1  2  1  0
  2  3  1  0
  3  4  1  0
  3  5  1  0
  5  6  1  0
  3  7  1  0
  7  8  1  0
  8  9  2  0
  1 10  1  0
  1 11  1  0
  1 12  1  0
  2 13  1  0
  2 14  1  0
  4 15  1  0
  4 16  1  0
  4 17  1  0
  5 18  1  0
  5 19  1  0
  6 20  1  0
  6 21  1  0
  6 22  1  0
  8 23  1  0
M  END
