
     RDKit          3D

 23 23  0  0  0  0  0  0  0  0999 V2000
   -1.2704    1.8602   -0.7346 C   0  0  0  0  0  0  0  0  0  0  0  0
    0.0113    1.4850   -0.1143 C   0  0  0  0  0  0  0  0  0  0  0  0
    0.4852    0.0806   -0.1786 C   0  0  0  0  0  0  0  0  0  0  0  0
   -0.2728   -0.9900    0.4544 C   0  0  0  0  0  0  0  0  0  0  0  0
   -1.6561   -1.3259    0.0942 C   0  0  0  0  0  0  0  0  0  0  0  0
   -2.6398   -0.3895    0.3182 O   0  0  0  0  0  0  0  0  0  0  0  0
    1.9535    0.0878    0.2392 C   0  0  0  0  0  0  0  0  0  0  0  0
    2.7695   -1.0646    0.3097 C   0  0  0  0  0  0  0  0  0  0  0  0
    2.1197   -0.6599    1.5033 O   0  0  0  0  0  0  0  0  0  0  0  0
   -1.6400    1.1831   -1.5065 H   0  0  0  0  0  0  0  0  0  0  0  0
   -1.0656    2.8496   -1.3053 H   0  0  0  0  0  0  0  0  0  0  0  0
   -2.0684    2.1302   -0.0185 H   0  0  0  0  0  0  0  0  0  0  0  0
    0.8303    2.1773   -0.4842 H   0  0  0  0  0  0  0  0  0  0  0  0
   -0.0707    1.7616    0.9877 H   0  0  0  0  0  0  0  0  0  0  0  0
    0.5804   -0.1970   -1.3077 H   0  0  0  0  0  0  0  0  0  0  0  0
   -0.3105   -0.7540    1.5883 H   0  0  0  0  0  0  0  0  0  0  0  0
    0.3007   -1.9724    0.4700 H   0  0  0  0  0  0  0  0  0  0  0  0
   -1.7711   -1.6424   -0.9864 H   0  0  0  0  0  0  0  0  0  0  0  0
   -2.0008   -2.2345    0.6953 H   0  0  0  0  0  0  0  0  0  0  0  0
   -3.0015   -0.4684    1.2238 H   0  0  0  0  0  0  0  0  0  0  0  0
    2.3796    1.0952    0.3283 H   0  0  0  0  0  0  0  0  0  0  0  0
    2.4666   -2.0724   -0.0179 H   0  0  0  0  0  0  0  0  0  0  0  0
    3.8709   -0.9396    0.3532 H   0  0  0  0  0  0  0  0  0  0  0  0
  1  2  1  0
  2  3  1  0
  3  4  1  0
  4  5  1  0
  5  6  1  0
  3  7  1  0
  7  8  1  0
  8  9  1  0
  9  7  1  0
  1 10  1  0
  1 11  1  0
  1 12  1  0
  2 13  1  0
  2 14  1  0
  3 15  1  0
  4 16  1  0
  4 17  1  0
  5 18  1  0
  5 19  1  0
  6 20  1  0
  7 21  1  0
  8 22  1  0
  8 23  1  0
M  END
