
     RDKit          3D

 25 25  0  0  0  0  0  0  0  0999 V2000
    2.2256    0.8761    0.3765 C   0  0  0  0  0  0  0  0  0  0  0  0
    1.6729    0.1166   -0.7799 C   0  0  0  0  0  0  0  0  0  0  0  0
    0.4933   -0.7349   -0.4531 C   0  0  0  0  0  0  0  0  0  0  0  0
    0.8445   -1.7516    0.5824 C   0  0  0  0  0  0  0  0  0  0  0  0
   -0.7098    0.0966   -0.1137 C   0  0  0  0  0  0  0  0  0  0  0  0
   -1.0984    0.9885   -1.2679 C   0  0  0  0  0  0  0  0  0  0  0  0
   -1.8923   -0.6399    0.4136 C   0  0  0  0  0  0  0  0  0  0  0  0
   -2.0599    0.7033    1.1312 C   0  0  0  0  0  0  0  0  0  0  0  0
   -0.6547    0.8187    1.0557 O   0  0  0  0  0  0  0  0  0  0  0  0
    1.6685    0.7846    1.3112 H   0  0  0  0  0  0  0  0  0  0  0  0
    2.2622    1.9647    0.0752 H   0  0  0  0  0  0  0  0  0  0  0  0
    3.3016    0.6229    0.5905 H   0  0  0  0  0  0  0  0  0  0  0  0
    1.4730    0.7702   -1.6694 H   0  0  0  0  0  0  0  0  0  0  0  0
    2.4893   -0.5796   -1.1351 H   0  0  0  0  0  0  0  0  0  0  0  0
    0.2317   -1.3000   -1.3902 H   0  0  0  0  0  0  0  0  0  0  0  0
    0.6298   -2.8052    0.2446 H   0  0  0  0  0  0  0  0  0  0  0  0
    0.3378   -1.6159    1.5438 H   0  0  0  0  0  0  0  0  0  0  0  0
    1.9369   -1.7233    0.7808 H   0  0  0  0  0  0  0  0  0  0  0  0
   -2.1663    0.8228   -1.5669 H   0  0  0  0  0  0  0  0  0  0  0  0
   -0.5027    0.8133   -2.1780 H   0  0  0  0  0  0  0  0  0  0  0  0
   -1.0323    2.0680   -1.0032 H   0  0  0  0  0  0  0  0  0  0  0  0
   -2.6677   -0.8750   -0.3172 H   0  0  0  0  0  0  0  0  0  0  0  0
   -1.7071   -1.4143    1.1808 H   0  0  0  0  0  0  0  0  0  0  0  0
   -2.6075    1.3843    0.4532 H   0  0  0  0  0  0  0  0  0  0  0  0
   -2.4684    0.6090    2.1353 H   0  0  0  0  0  0  0  0  0  0  0  0
  1  2  1  0
  2  3  1  0
  3  4  1  0
  3  5  1  0
  5  6  1  0
  5  7  1  0
  7  8  1  0
  8  9  1  0
  9  5  1  0
  1 10  1  0
  1 11  1  0
  1 12  1  0
  2 13  1  0
  2 14  1  0
  3 15  1  0
  4 16  1  0
  4 17  1  0
  4 18  1  0
  6 19  1  0
  6 20  1  0
  6 21  1  0
  7 22  1  0
  7 23  1  0
  8 24  1  0
  8 25  1  0
M  END
