
     RDKit          3D

 20 20  0  0  0  0  0  0  0  0999 V2000
    1.8266   -0.7204   -1.1253 C   0  0  0  0  0  0  0  0  0  0  0  0
    0.8761    0.4574   -1.1409 C   0  0  0  0  0  0  0  0  0  0  0  0
   -0.1267    0.3449   -0.0096 C   0  0  0  0  0  0  0  0  0  0  0  0
   -0.9809    1.4394   -0.0541 O   0  0  0  0  0  0  0  0  0  0  0  0
   -0.8868    2.1942    1.1338 C   0  0  0  0  0  0  0  0  0  0  0  0
   -0.8957   -0.9146   -0.1859 C   0  0  0  0  0  0  0  0  0  0  0  0
   -0.9075   -2.0081    0.7713 C   0  0  0  0  0  0  0  0  0  0  0  0
   -1.9004   -1.0342    0.9046 O   0  0  0  0  0  0  0  0  0  0  0  0
    1.5255   -1.5014   -1.8604 H   0  0  0  0  0  0  0  0  0  0  0  0
    1.9029   -1.1601   -0.0880 H   0  0  0  0  0  0  0  0  0  0  0  0
    2.8183   -0.3553   -1.4640 H   0  0  0  0  0  0  0  0  0  0  0  0
    0.3930    0.4880   -2.1277 H   0  0  0  0  0  0  0  0  0  0  0  0
    1.4761    1.3752   -0.9282 H   0  0  0  0  0  0  0  0  0  0  0  0
    0.4024    0.3637    0.9596 H   0  0  0  0  0  0  0  0  0  0  0  0
    0.1444    2.5735    1.2917 H   0  0  0  0  0  0  0  0  0  0  0  0
   -1.5996    3.0362    1.0702 H   0  0  0  0  0  0  0  0  0  0  0  0
   -1.1702    1.5603    2.0015 H   0  0  0  0  0  0  0  0  0  0  0  0
   -1.4286   -1.0262   -1.1316 H   0  0  0  0  0  0  0  0  0  0  0  0
   -1.2998   -2.9889    0.4025 H   0  0  0  0  0  0  0  0  0  0  0  0
   -0.1692   -2.1236    1.5807 H   0  0  0  0  0  0  0  0  0  0  0  0
  1  2  1  0
  2  3  1  0
  3  4  1  0
  4  5  1  0
  3  6  1  0
  6  7  1  0
  7  8  1  0
  8  6  1  0
  1  9  1  0
  1 10  1  0
  1 11  1  0
  2 12  1  0
  2 13  1  0
  3 14  1  0
  5 15  1  0
  5 16  1  0
  5 17  1  0
  6 18  1  0
  7 19  1  0
  7 20  1  0
M  END
