
     RDKit          3D

 11 10  0  0  0  0  0  0  0  0999 V2000
   -1.1722    0.5072    0.0056 C   0  0  0  0  0  0  0  0  0  0  0  0
   -0.1083   -0.5368    0.1593 C   0  0  0  0  0  0  0  0  0  0  0  0
    1.2862   -0.0085   -0.0578 C   0  0  0  0  0  0  0  0  0  0  0  0
   -1.3651    0.6586   -1.0873 H   0  0  0  0  0  0  0  0  0  0  0  0
   -2.1145    0.0691    0.4451 H   0  0  0  0  0  0  0  0  0  0  0  0
   -0.9421    1.4710    0.4616 H   0  0  0  0  0  0  0  0  0  0  0  0
   -0.3076   -1.3238   -0.6149 H   0  0  0  0  0  0  0  0  0  0  0  0
   -0.1874   -1.0943    1.1358 H   0  0  0  0  0  0  0  0  0  0  0  0
    1.4801    0.9483    0.4334 H   0  0  0  0  0  0  0  0  0  0  0  0
    1.4514    0.1365   -1.1523 H   0  0  0  0  0  0  0  0  0  0  0  0
    1.9795   -0.8275    0.2715 H   0  0  0  0  0  0  0  0  0  0  0  0
  1  2  1  0
  2  3  1  0
  1  4  1  0
  1  5  1  0
  1  6  1  0
  2  7  1  0
  2  8  1  0
  3  9  1  0
  3 10  1  0
  3 11  1  0
M  END
