
     RDKit          3D

 21 22  0  0  0  0  0  0  0  0999 V2000
    3.0098    0.0868   -0.5784 C   0  0  0  0  0  0  0  0  0  0  0  0
    2.0603   -0.5217    0.4392 C   0  0  0  0  0  0  0  0  0  0  0  0
    0.6471   -0.1206    0.1869 C   0  0  0  0  0  0  0  0  0  0  0  0
   -0.4143   -0.8442   -0.0737 C   0  0  0  0  0  0  0  0  0  0  0  0
   -1.5529    0.0433   -0.2378 C   0  0  0  0  0  0  0  0  0  0  0  0
   -2.6885   -0.2295    0.7743 C   0  0  0  0  0  0  0  0  0  0  0  0
   -2.8733   -0.3477   -0.7220 C   0  0  0  0  0  0  0  0  0  0  0  0
   -1.0708    1.3279   -0.3401 O   0  0  0  0  0  0  0  0  0  0  0  0
    0.2117    1.3005    0.1991 C   0  0  0  0  0  0  0  0  0  0  0  0
    3.7765   -0.6481   -0.8372 H   0  0  0  0  0  0  0  0  0  0  0  0
    3.4612    1.0265   -0.2006 H   0  0  0  0  0  0  0  0  0  0  0  0
    2.4201    0.3279   -1.5020 H   0  0  0  0  0  0  0  0  0  0  0  0
    2.3690   -0.0942    1.4294 H   0  0  0  0  0  0  0  0  0  0  0  0
    2.1765   -1.6119    0.5084 H   0  0  0  0  0  0  0  0  0  0  0  0
   -0.4166   -1.9166   -0.1485 H   0  0  0  0  0  0  0  0  0  0  0  0
   -2.6807   -1.1936    1.3032 H   0  0  0  0  0  0  0  0  0  0  0  0
   -3.0032    0.6673    1.3093 H   0  0  0  0  0  0  0  0  0  0  0  0
   -3.5048    0.4732   -1.1416 H   0  0  0  0  0  0  0  0  0  0  0  0
   -3.1076   -1.3268   -1.1595 H   0  0  0  0  0  0  0  0  0  0  0  0
    0.9345    1.8592   -0.4365 H   0  0  0  0  0  0  0  0  0  0  0  0
    0.2459    1.7422    1.2281 H   0  0  0  0  0  0  0  0  0  0  0  0
  1  2  1  0
  2  3  1  0
  3  4  2  0
  4  5  1  0
  5  6  1  0
  6  7  1  0
  5  8  1  0
  8  9  1  0
  9  3  1  0
  7  5  1  0
  1 10  1  0
  1 11  1  0
  1 12  1  0
  2 13  1  0
  2 14  1  0
  4 15  1  0
  6 16  1  0
  6 17  1  0
  7 18  1  0
  7 19  1  0
  9 20  1  0
  9 21  1  0
M  END
