
     RDKit          3D

 21 22  0  0  0  0  0  0  0  0999 V2000
   -1.6035    1.5767    0.3482 C   0  0  0  0  0  0  0  0  0  0  0  0
   -1.4586    0.2514   -0.3375 C   0  0  0  0  0  0  0  0  0  0  0  0
   -0.4619   -0.6269    0.3542 C   0  0  0  0  0  0  0  0  0  0  0  0
   -0.3223   -1.9647   -0.3465 C   0  0  0  0  0  0  0  0  0  0  0  0
    1.0624   -1.8337   -0.4304 O   0  0  0  0  0  0  0  0  0  0  0  0
    0.9498   -0.5295   -0.0310 C   0  0  0  0  0  0  0  0  0  0  0  0
    1.9417    0.0132    0.9173 C   0  0  0  0  0  0  0  0  0  0  0  0
    2.6006    0.6209   -0.1702 O   0  0  0  0  0  0  0  0  0  0  0  0
    1.4075    0.5427   -0.9283 C   0  0  0  0  0  0  0  0  0  0  0  0
   -2.3926    1.4753    1.1504 H   0  0  0  0  0  0  0  0  0  0  0  0
   -0.6896    1.8938    0.8967 H   0  0  0  0  0  0  0  0  0  0  0  0
   -1.8786    2.3954   -0.3474 H   0  0  0  0  0  0  0  0  0  0  0  0
   -1.2322    0.3592   -1.4050 H   0  0  0  0  0  0  0  0  0  0  0  0
   -2.4601   -0.2642   -0.2819 H   0  0  0  0  0  0  0  0  0  0  0  0
   -0.6589   -0.7676    1.4225 H   0  0  0  0  0  0  0  0  0  0  0  0
   -0.5682   -2.8315    0.3060 H   0  0  0  0  0  0  0  0  0  0  0  0
   -0.8222   -2.0360   -1.3234 H   0  0  0  0  0  0  0  0  0  0  0  0
    2.6178   -0.7140    1.4126 H   0  0  0  0  0  0  0  0  0  0  0  0
    1.4948    0.7576    1.6151 H   0  0  0  0  0  0  0  0  0  0  0  0
    1.5770    0.1739   -1.9595 H   0  0  0  0  0  0  0  0  0  0  0  0
    0.8971    1.5082   -0.8620 H   0  0  0  0  0  0  0  0  0  0  0  0
  1  2  1  0
  2  3  1  0
  3  4  1  0
  4  5  1  0
  5  6  1  0
  6  7  1  0
  7  8  1  0
  8  9  1  0
  6  3  1  0
  9  6  1  0
  1 10  1  0
  1 11  1  0
  1 12  1  0
  2 13  1  0
  2 14  1  0
  3 15  1  0
  4 16  1  0
  4 17  1  0
  7 18  1  0
  7 19  1  0
  9 20  1  0
  9 21  1  0
M  END
