
     RDKit          3D

 21 23  0  0  0  0  0  0  0  0999 V2000
   -2.3628    0.7218    0.1508 C   0  0  0  0  0  0  0  0  0  0  0  0
   -1.7749   -0.5985   -0.2842 C   0  0  0  0  0  0  0  0  0  0  0  0
   -0.3214   -0.4155   -0.5143 C   0  0  0  0  0  0  0  0  0  0  0  0
    0.4469   -1.5956   -0.9525 C   0  0  0  0  0  0  0  0  0  0  0  0
    0.7392   -0.9630    0.3697 C   0  0  0  0  0  0  0  0  0  0  0  0
    1.4906    0.3197    0.2554 C   0  0  0  0  0  0  0  0  0  0  0  0
    2.7511    0.6189   -0.1033 C   0  0  0  0  0  0  0  0  0  0  0  0
    2.1818    0.8900    1.2668 O   0  0  0  0  0  0  0  0  0  0  0  0
    0.2502    0.9347   -0.3352 C   0  0  0  0  0  0  0  0  0  0  0  0
   -2.0393    1.5523   -0.5100 H   0  0  0  0  0  0  0  0  0  0  0  0
   -3.4721    0.6838    0.0198 H   0  0  0  0  0  0  0  0  0  0  0  0
   -2.0836    1.0033    1.1852 H   0  0  0  0  0  0  0  0  0  0  0  0
   -2.3158   -0.9064   -1.2129 H   0  0  0  0  0  0  0  0  0  0  0  0
   -1.9207   -1.3431    0.5336 H   0  0  0  0  0  0  0  0  0  0  0  0
    1.1976   -1.5083   -1.7729 H   0  0  0  0  0  0  0  0  0  0  0  0
   -0.0600   -2.5570   -0.9144 H   0  0  0  0  0  0  0  0  0  0  0  0
    0.4574   -1.4096    1.3163 H   0  0  0  0  0  0  0  0  0  0  0  0
    3.6387   -0.0671    0.0226 H   0  0  0  0  0  0  0  0  0  0  0  0
    3.0642    1.5667   -0.5982 H   0  0  0  0  0  0  0  0  0  0  0  0
   -0.2681    1.5085    0.4591 H   0  0  0  0  0  0  0  0  0  0  0  0
    0.4010    1.5644   -1.2233 H   0  0  0  0  0  0  0  0  0  0  0  0
  1  2  1  0
  2  3  1  0
  3  4  1  0
  4  5  1  0
  5  6  1  0
  6  7  1  0
  7  8  1  0
  6  9  1  0
  5  3  1  0
  8  6  1  0
  9  3  1  0
  1 10  1  0
  1 11  1  0
  1 12  1  0
  2 13  1  0
  2 14  1  0
  4 15  1  0
  4 16  1  0
  5 17  1  0
  7 18  1  0
  7 19  1  0
  9 20  1  0
  9 21  1  0
M  END
