
     RDKit          3D

 23 24  0  0  0  0  0  0  0  0999 V2000
    2.8428    0.2116   -0.0473 C   0  0  0  0  0  0  0  0  0  0  0  0
    1.7492   -0.7070    0.4485 C   0  0  0  0  0  0  0  0  0  0  0  0
    0.4667    0.1255    0.4977 C   0  0  0  0  0  0  0  0  0  0  0  0
    0.1894    0.6164   -0.8864 C   0  0  0  0  0  0  0  0  0  0  0  0
   -1.2753    0.3533   -1.1398 C   0  0  0  0  0  0  0  0  0  0  0  0
   -2.1934    1.1151   -0.2168 C   0  0  0  0  0  0  0  0  0  0  0  0
   -1.8634   -0.3058    0.0251 C   0  0  0  0  0  0  0  0  0  0  0  0
   -2.8806   -1.2403   -0.0826 O   0  0  0  0  0  0  0  0  0  0  0  0
   -0.7205   -0.7079    0.9142 C   0  0  0  0  0  0  0  0  0  0  0  0
    3.6306   -0.3495   -0.5867 H   0  0  0  0  0  0  0  0  0  0  0  0
    3.2584    0.7306    0.8517 H   0  0  0  0  0  0  0  0  0  0  0  0
    2.3887    1.0021   -0.6799 H   0  0  0  0  0  0  0  0  0  0  0  0
    1.6219   -1.5777   -0.1993 H   0  0  0  0  0  0  0  0  0  0  0  0
    1.9535   -1.0848    1.4745 H   0  0  0  0  0  0  0  0  0  0  0  0
    0.5627    0.9629    1.1881 H   0  0  0  0  0  0  0  0  0  0  0  0
    0.3443    1.7167   -0.9574 H   0  0  0  0  0  0  0  0  0  0  0  0
    0.8340    0.1223   -1.6637 H   0  0  0  0  0  0  0  0  0  0  0  0
   -1.6196    0.0301   -2.1309 H   0  0  0  0  0  0  0  0  0  0  0  0
   -1.8006    1.8896    0.4520 H   0  0  0  0  0  0  0  0  0  0  0  0
   -3.1929    1.3052   -0.6551 H   0  0  0  0  0  0  0  0  0  0  0  0
   -2.8989   -1.8139    0.7318 H   0  0  0  0  0  0  0  0  0  0  0  0
   -0.9218   -0.6272    1.9772 H   0  0  0  0  0  0  0  0  0  0  0  0
   -0.4751   -1.7674    0.6852 H   0  0  0  0  0  0  0  0  0  0  0  0
  1  2  1  0
  2  3  1  0
  3  4  1  0
  4  5  1  0
  5  6  1  0
  6  7  1  0
  7  8  1  0
  7  9  1  0
  9  3  1  0
  7  5  1  0
  1 10  1  0
  1 11  1  0
  1 12  1  0
  2 13  1  0
  2 14  1  0
  3 15  1  0
  4 16  1  0
  4 17  1  0
  5 18  1  0
  6 19  1  0
  6 20  1  0
  8 21  1  0
  9 22  1  0
  9 23  1  0
M  END
