
     RDKit          3D

 25 26  0  0  0  0  0  0  0  0999 V2000
    3.0566   -0.3979    0.2904 C   0  0  0  0  0  0  0  0  0  0  0  0
    1.7298   -1.1648    0.1712 C   0  0  0  0  0  0  0  0  0  0  0  0
    0.7240   -0.1986   -0.3530 C   0  0  0  0  0  0  0  0  0  0  0  0
    0.6109    0.9708    0.6473 C   0  0  0  0  0  0  0  0  0  0  0  0
   -0.8532    0.8588    0.9695 C   0  0  0  0  0  0  0  0  0  0  0  0
   -1.0730   -0.6190    1.1304 C   0  0  0  0  0  0  0  0  0  0  0  0
   -0.6916   -0.6600   -0.3530 C   0  0  0  0  0  0  0  0  0  0  0  0
   -1.4258    0.6754   -0.4457 C   0  0  0  0  0  0  0  0  0  0  0  0
   -2.9020    0.6093   -0.4115 C   0  0  0  0  0  0  0  0  0  0  0  0
    3.1674    0.0764    1.2719 H   0  0  0  0  0  0  0  0  0  0  0  0
    3.8719   -1.1685    0.2077 H   0  0  0  0  0  0  0  0  0  0  0  0
    3.1361    0.3778   -0.4777 H   0  0  0  0  0  0  0  0  0  0  0  0
    1.8522   -2.0634   -0.4471 H   0  0  0  0  0  0  0  0  0  0  0  0
    1.5016   -1.4831    1.2125 H   0  0  0  0  0  0  0  0  0  0  0  0
    1.0424    0.1832   -1.3395 H   0  0  0  0  0  0  0  0  0  0  0  0
    1.2699    0.8255    1.5054 H   0  0  0  0  0  0  0  0  0  0  0  0
    0.7587    1.9301    0.1109 H   0  0  0  0  0  0  0  0  0  0  0  0
   -1.3267    1.5522    1.6085 H   0  0  0  0  0  0  0  0  0  0  0  0
   -0.4155   -1.1609    1.8083 H   0  0  0  0  0  0  0  0  0  0  0  0
   -2.1251   -0.9300    1.2985 H   0  0  0  0  0  0  0  0  0  0  0  0
   -1.0251   -1.4681   -0.9375 H   0  0  0  0  0  0  0  0  0  0  0  0
   -0.9378    1.3145   -1.1842 H   0  0  0  0  0  0  0  0  0  0  0  0
   -3.3288    0.5655    0.6066 H   0  0  0  0  0  0  0  0  0  0  0  0
   -3.3176   -0.1918   -1.0730 H   0  0  0  0  0  0  0  0  0  0  0  0
   -3.2993    1.5668   -0.8561 H   0  0  0  0  0  0  0  0  0  0  0  0
  1  2  1  0
  2  3  1  0
  3  4  1  0
  4  5  1  0
  5  6  1  0
  6  7  1  0
  7  8  1  0
  8  9  1  0
  7  3  1  0
  8  5  1  0
  1 10  1  0
  1 11  1  0
  1 12  1  0
  2 13  1  0
  2 14  1  0
  3 15  1  0
  4 16  1  0
  4 17  1  0
  5 18  1  0
  6 19  1  0
  6 20  1  0
  7 21  1  0
  8 22  1  0
  9 23  1  0
  9 24  1  0
  9 25  1  0
M  END
