
     RDKit          3D

 20 21  0  0  0  0  0  0  0  0999 V2000
    2.1841   -0.6118   -0.4055 C   0  0  0  0  0  0  0  0  0  0  0  0
    1.2455   -0.2428    0.7213 C   0  0  0  0  0  0  0  0  0  0  0  0
   -0.0752    0.2619    0.2322 C   0  0  0  0  0  0  0  0  0  0  0  0
   -0.2243    1.4392   -0.6108 C   0  0  0  0  0  0  0  0  0  0  0  0
   -0.6067    0.0515   -1.0970 C   0  0  0  0  0  0  0  0  0  0  0  0
   -1.8522   -0.5769   -0.5058 C   0  0  0  0  0  0  0  0  0  0  0  0
   -1.2833   -0.3267    0.8681 C   0  0  0  0  0  0  0  0  0  0  0  0
   -1.9568    0.6520    1.6074 O   0  0  0  0  0  0  0  0  0  0  0  0
    1.7122   -1.2523   -1.1697 H   0  0  0  0  0  0  0  0  0  0  0  0
    2.5949    0.3135   -0.9062 H   0  0  0  0  0  0  0  0  0  0  0  0
    3.0501   -1.1626    0.0538 H   0  0  0  0  0  0  0  0  0  0  0  0
    1.1713   -1.0594    1.4338 H   0  0  0  0  0  0  0  0  0  0  0  0
    1.7385    0.6186    1.2591 H   0  0  0  0  0  0  0  0  0  0  0  0
   -1.0958    2.1153   -0.4045 H   0  0  0  0  0  0  0  0  0  0  0  0
    0.6038    1.9070   -1.1566 H   0  0  0  0  0  0  0  0  0  0  0  0
   -0.1009   -0.3992   -1.9425 H   0  0  0  0  0  0  0  0  0  0  0  0
   -2.7748   -0.0066   -0.6437 H   0  0  0  0  0  0  0  0  0  0  0  0
   -1.9128   -1.6306   -0.8184 H   0  0  0  0  0  0  0  0  0  0  0  0
   -1.1635   -1.2848    1.4029 H   0  0  0  0  0  0  0  0  0  0  0  0
   -1.2539    1.1949    2.0820 H   0  0  0  0  0  0  0  0  0  0  0  0
  1  2  1  0
  2  3  1  0
  3  4  1  0
  4  5  1  0
  5  6  1  0
  6  7  1  0
  7  8  1  0
  5  3  1  0
  7  3  1  0
  1  9  1  0
  1 10  1  0
  1 11  1  0
  2 12  1  0
  2 13  1  0
  4 14  1  0
  4 15  1  0
  5 16  1  0
  6 17  1  0
  6 18  1  0
  7 19  1  0
  8 20  1  0
M  END
