
     RDKit          3D

 19 21  0  0  0  0  0  0  0  0999 V2000
    2.4952   -0.2467    0.3341 C   0  0  0  0  0  0  0  0  0  0  0  0
    1.4525    0.7496   -0.0795 C   0  0  0  0  0  0  0  0  0  0  0  0
    0.0931    0.1731   -0.2707 C   0  0  0  0  0  0  0  0  0  0  0  0
    0.0024   -0.8147   -1.2353 O   0  0  0  0  0  0  0  0  0  0  0  0
   -0.3728   -1.1066    0.0760 C   0  0  0  0  0  0  0  0  0  0  0  0
   -1.8876   -1.0246    0.2536 C   0  0  0  0  0  0  0  0  0  0  0  0
   -2.1965    0.4370    0.4759 C   0  0  0  0  0  0  0  0  0  0  0  0
   -1.4139    1.1639    1.3686 O   0  0  0  0  0  0  0  0  0  0  0  0
   -1.0433    1.1366   -0.0585 C   0  0  0  0  0  0  0  0  0  0  0  0
    3.3915    0.3529    0.6656 H   0  0  0  0  0  0  0  0  0  0  0  0
    2.1702   -0.9658    1.0862 H   0  0  0  0  0  0  0  0  0  0  0  0
    2.7910   -0.8101   -0.5909 H   0  0  0  0  0  0  0  0  0  0  0  0
    1.3900    1.6026    0.6356 H   0  0  0  0  0  0  0  0  0  0  0  0
    1.7939    1.2151   -1.0458 H   0  0  0  0  0  0  0  0  0  0  0  0
    0.2034   -1.8011    0.6780 H   0  0  0  0  0  0  0  0  0  0  0  0
   -2.1967   -1.6612    1.0937 H   0  0  0  0  0  0  0  0  0  0  0  0
   -2.4233   -1.3275   -0.6747 H   0  0  0  0  0  0  0  0  0  0  0  0
   -3.2006    0.8099    0.1948 H   0  0  0  0  0  0  0  0  0  0  0  0
   -1.0484    2.1178   -0.5406 H   0  0  0  0  0  0  0  0  0  0  0  0
  1  2  1  0
  2  3  1  0
  3  4  1  0
  4  5  1  0
  5  6  1  0
  6  7  1  0
  7  8  1  0
  8  9  1  0
  5  3  1  0
  9  7  1  0
  9  3  1  0
  1 10  1  0
  1 11  1  0
  1 12  1  0
  2 13  1  0
  2 14  1  0
  5 15  1  0
  6 16  1  0
  6 17  1  0
  7 18  1  0
  9 19  1  0
M  END
