
     RDKit          3D

 21 22  0  0  0  0  0  0  0  0999 V2000
   -2.6250   -0.2765   -0.1700 C   0  0  0  0  0  0  0  0  0  0  0  0
   -1.4621   -0.9434    0.5070 C   0  0  0  0  0  0  0  0  0  0  0  0
   -0.2341   -0.1700    0.3557 C   0  0  0  0  0  0  0  0  0  0  0  0
   -0.2828    0.9816   -0.3313 C   0  0  0  0  0  0  0  0  0  0  0  0
    0.9075    1.8513   -0.5481 C   0  0  0  0  0  0  0  0  0  0  0  0
    2.1320    1.2026   -0.3556 O   0  0  0  0  0  0  0  0  0  0  0  0
    1.9361   -0.1239   -0.4512 C   0  0  0  0  0  0  0  0  0  0  0  0
    2.1807   -1.2343    0.3906 C   0  0  0  0  0  0  0  0  0  0  0  0
    1.1033   -0.4485    0.8461 C   0  0  0  0  0  0  0  0  0  0  0  0
   -3.5071   -0.9672   -0.0373 H   0  0  0  0  0  0  0  0  0  0  0  0
   -2.9274    0.6767    0.3174 H   0  0  0  0  0  0  0  0  0  0  0  0
   -2.5019   -0.1602   -1.2539 H   0  0  0  0  0  0  0  0  0  0  0  0
   -1.3959   -1.9790    0.0827 H   0  0  0  0  0  0  0  0  0  0  0  0
   -1.7089   -0.9999    1.5941 H   0  0  0  0  0  0  0  0  0  0  0  0
   -1.2148    1.3519   -0.7783 H   0  0  0  0  0  0  0  0  0  0  0  0
    0.8696    2.7468    0.1275 H   0  0  0  0  0  0  0  0  0  0  0  0
    0.8885    2.1577   -1.6192 H   0  0  0  0  0  0  0  0  0  0  0  0
    1.4405   -0.3670   -1.4401 H   0  0  0  0  0  0  0  0  0  0  0  0
    1.9819   -2.2655    0.0104 H   0  0  0  0  0  0  0  0  0  0  0  0
    3.1124   -1.2629    1.0211 H   0  0  0  0  0  0  0  0  0  0  0  0
    1.3073    0.2298    1.7325 H   0  0  0  0  0  0  0  0  0  0  0  0
  1  2  1  0
  2  3  1  0
  3  4  2  0
  4  5  1  0
  5  6  1  0
  6  7  1  0
  7  8  1  0
  8  9  1  0
  9  3  1  0
  9  7  1  0
  1 10  1  0
  1 11  1  0
  1 12  1  0
  2 13  1  0
  2 14  1  0
  4 15  1  0
  5 16  1  0
  5 17  1  0
  7 18  1  0
  8 19  1  0
  8 20  1  0
  9 21  1  0
M  END
