
     RDKit          3D

 19 19  0  0  0  0  0  0  0  0999 V2000
    1.8286    0.6349    0.4078 C   0  0  0  0  0  0  0  0  0  0  0  0
    0.9775    0.0196   -0.6823 C   0  0  0  0  0  0  0  0  0  0  0  0
   -0.1976   -0.6618   -0.0514 C   0  0  0  0  0  0  0  0  0  0  0  0
    0.1903   -1.6563    0.8156 O   0  0  0  0  0  0  0  0  0  0  0  0
   -1.2516   -1.1558   -1.0147 C   0  0  0  0  0  0  0  0  0  0  0  0
   -1.7984    0.1418   -0.9753 O   0  0  0  0  0  0  0  0  0  0  0  0
   -1.3459    0.1988    0.3554 C   0  0  0  0  0  0  0  0  0  0  0  0
   -1.0485    1.5685    0.7866 C   0  0  0  0  0  0  0  0  0  0  0  0
   -0.6461    1.8080    1.9109 O   0  0  0  0  0  0  0  0  0  0  0  0
    1.5736    0.2635    1.4129 H   0  0  0  0  0  0  0  0  0  0  0  0
    2.8936    0.4108    0.2410 H   0  0  0  0  0  0  0  0  0  0  0  0
    1.6243    1.7408    0.3623 H   0  0  0  0  0  0  0  0  0  0  0  0
    1.5935   -0.7789   -1.1600 H   0  0  0  0  0  0  0  0  0  0  0  0
    0.6708    0.7711   -1.4389 H   0  0  0  0  0  0  0  0  0  0  0  0
    1.0139   -2.0689    0.4393 H   0  0  0  0  0  0  0  0  0  0  0  0
   -1.9403   -1.8455   -0.5147 H   0  0  0  0  0  0  0  0  0  0  0  0
   -0.8967   -1.4552   -2.0031 H   0  0  0  0  0  0  0  0  0  0  0  0
   -2.0622   -0.3422    0.9929 H   0  0  0  0  0  0  0  0  0  0  0  0
   -1.1788    2.4068    0.1159 H   0  0  0  0  0  0  0  0  0  0  0  0
  1  2  1  0
  2  3  1  0
  3  4  1  0
  3  5  1  0
  5  6  1  0
  6  7  1  0
  7  8  1  0
  8  9  2  0
  7  3  1  0
  1 10  1  0
  1 11  1  0
  1 12  1  0
  2 13  1  0
  2 14  1  0
  4 15  1  0
  5 16  1  0
  5 17  1  0
  7 18  1  0
  8 19  1  0
M  END
