
     RDKit          3D

 21 22  0  0  0  0  0  0  0  0999 V2000
   -1.8900   -1.2076   -0.0960 C   0  0  0  0  0  0  0  0  0  0  0  0
   -1.5730    0.2647   -0.2778 C   0  0  0  0  0  0  0  0  0  0  0  0
   -0.1390    0.5828   -0.0076 C   0  0  0  0  0  0  0  0  0  0  0  0
    0.0837    2.0798   -0.2137 C   0  0  0  0  0  0  0  0  0  0  0  0
    0.2189    0.1343    1.2604 O   0  0  0  0  0  0  0  0  0  0  0  0
    1.3246   -0.5509    0.8273 C   0  0  0  0  0  0  0  0  0  0  0  0
    1.2824   -1.6040   -0.2001 C   0  0  0  0  0  0  0  0  0  0  0  0
    0.8986   -0.2664   -0.6448 C   0  0  0  0  0  0  0  0  0  0  0  0
    1.8395    0.4425   -1.4224 O   0  0  0  0  0  0  0  0  0  0  0  0
   -1.4621   -1.6334    0.8037 H   0  0  0  0  0  0  0  0  0  0  0  0
   -1.5892   -1.7710   -0.9794 H   0  0  0  0  0  0  0  0  0  0  0  0
   -3.0058   -1.3393   -0.0068 H   0  0  0  0  0  0  0  0  0  0  0  0
   -2.1945    0.7907    0.5065 H   0  0  0  0  0  0  0  0  0  0  0  0
   -1.9185    0.6554   -1.2398 H   0  0  0  0  0  0  0  0  0  0  0  0
    1.1311    2.3669   -0.1451 H   0  0  0  0  0  0  0  0  0  0  0  0
   -0.5779    2.6611    0.4674 H   0  0  0  0  0  0  0  0  0  0  0  0
   -0.2483    2.2958   -1.2592 H   0  0  0  0  0  0  0  0  0  0  0  0
    2.2899   -0.1092    1.1319 H   0  0  0  0  0  0  0  0  0  0  0  0
    0.5667   -2.4486   -0.1759 H   0  0  0  0  0  0  0  0  0  0  0  0
    2.3006   -1.9688   -0.5191 H   0  0  0  0  0  0  0  0  0  0  0  0
    2.6622    0.6250   -0.9388 H   0  0  0  0  0  0  0  0  0  0  0  0
  1  2  1  0
  2  3  1  0
  3  4  1  0
  3  5  1  0
  5  6  1  0
  6  7  1  0
  7  8  1  0
  8  9  1  0
  8  3  1  0
  8  6  1  0
  1 10  1  0
  1 11  1  0
  1 12  1  0
  2 13  1  0
  2 14  1  0
  4 15  1  0
  4 16  1  0
  4 17  1  0
  6 18  1  0
  7 19  1  0
  7 20  1  0
  9 21  1  0
M  END
