
     RDKit          3D

 23 23  0  0  0  0  0  0  0  0999 V2000
    2.9994    0.5436   -0.5300 C   0  0  0  0  0  0  0  0  0  0  0  0
    2.0960   -0.6640   -0.4726 C   0  0  0  0  0  0  0  0  0  0  0  0
    0.8969   -0.4515    0.4028 C   0  0  0  0  0  0  0  0  0  0  0  0
    0.0262    0.6900   -0.0538 C   0  0  0  0  0  0  0  0  0  0  0  0
   -1.2781    0.2880    0.6137 C   0  0  0  0  0  0  0  0  0  0  0  0
   -2.4810    0.7965   -0.1453 C   0  0  0  0  0  0  0  0  0  0  0  0
   -3.6016    0.3489    0.5882 O   0  0  0  0  0  0  0  0  0  0  0  0
   -1.2057   -1.2148    0.4928 C   0  0  0  0  0  0  0  0  0  0  0  0
    0.1087   -1.5759    0.3867 O   0  0  0  0  0  0  0  0  0  0  0  0
    3.9339    0.2375   -1.0041 H   0  0  0  0  0  0  0  0  0  0  0  0
    2.5455    1.3825   -1.1040 H   0  0  0  0  0  0  0  0  0  0  0  0
    3.1589    0.9223    0.4947 H   0  0  0  0  0  0  0  0  0  0  0  0
    2.6854   -1.4908   -0.0197 H   0  0  0  0  0  0  0  0  0  0  0  0
    1.8129   -1.0005   -1.4860 H   0  0  0  0  0  0  0  0  0  0  0  0
    1.2675   -0.1881    1.4196 H   0  0  0  0  0  0  0  0  0  0  0  0
    0.3365    1.6672    0.3680 H   0  0  0  0  0  0  0  0  0  0  0  0
   -0.1103    0.7090   -1.1526 H   0  0  0  0  0  0  0  0  0  0  0  0
   -1.2773    0.5834    1.6655 H   0  0  0  0  0  0  0  0  0  0  0  0
   -2.4627    1.8843   -0.2037 H   0  0  0  0  0  0  0  0  0  0  0  0
   -2.5502    0.2789   -1.1242 H   0  0  0  0  0  0  0  0  0  0  0  0
   -3.3919   -0.5780    0.8740 H   0  0  0  0  0  0  0  0  0  0  0  0
   -1.6864   -1.6353    1.3974 H   0  0  0  0  0  0  0  0  0  0  0  0
   -1.8226   -1.5334   -0.3806 H   0  0  0  0  0  0  0  0  0  0  0  0
  1  2  1  0
  2  3  1  0
  3  4  1  0
  4  5  1  0
  5  6  1  0
  6  7  1  0
  5  8  1  0
  8  9  1  0
  9  3  1  0
  1 10  1  0
  1 11  1  0
  1 12  1  0
  2 13  1  0
  2 14  1  0
  3 15  1  0
  4 16  1  0
  4 17  1  0
  5 18  1  0
  6 19  1  0
  6 20  1  0
  7 21  1  0
  8 22  1  0
  8 23  1  0
M  END
