
     RDKit          3D

 25 25  0  0  0  0  0  0  0  0999 V2000
    2.5311   -0.2182   -0.8098 C   0  0  0  0  0  0  0  0  0  0  0  0
    1.3536    0.7127   -0.6083 C   0  0  0  0  0  0  0  0  0  0  0  0
    0.2629    0.0517    0.2087 C   0  0  0  0  0  0  0  0  0  0  0  0
    0.7302   -0.3659    1.5904 C   0  0  0  0  0  0  0  0  0  0  0  0
   -0.7653   -0.7037   -0.5183 C   0  0  0  0  0  0  0  0  0  0  0  0
   -1.3492   -1.9849    0.0036 C   0  0  0  0  0  0  0  0  0  0  0  0
   -1.1217    0.5986    0.1624 C   0  0  0  0  0  0  0  0  0  0  0  0
   -1.4790    1.7583   -0.7031 C   0  0  0  0  0  0  0  0  0  0  0  0
   -1.9499    0.4360    1.2795 O   0  0  0  0  0  0  0  0  0  0  0  0
    3.2165   -0.0689    0.0416 H   0  0  0  0  0  0  0  0  0  0  0  0
    3.0394    0.0950   -1.7648 H   0  0  0  0  0  0  0  0  0  0  0  0
    2.2117   -1.2801   -0.9166 H   0  0  0  0  0  0  0  0  0  0  0  0
    0.9729    0.9930   -1.6320 H   0  0  0  0  0  0  0  0  0  0  0  0
    1.7442    1.6300   -0.1266 H   0  0  0  0  0  0  0  0  0  0  0  0
    1.2384    0.5383    2.0282 H   0  0  0  0  0  0  0  0  0  0  0  0
    1.3852   -1.2475    1.5764 H   0  0  0  0  0  0  0  0  0  0  0  0
   -0.1187   -0.6057    2.2652 H   0  0  0  0  0  0  0  0  0  0  0  0
   -0.7049   -0.6714   -1.6453 H   0  0  0  0  0  0  0  0  0  0  0  0
   -2.3107   -1.7156    0.5129 H   0  0  0  0  0  0  0  0  0  0  0  0
   -1.6566   -2.6808   -0.8215 H   0  0  0  0  0  0  0  0  0  0  0  0
   -0.6463   -2.5092    0.6865 H   0  0  0  0  0  0  0  0  0  0  0  0
   -2.1698    1.4031   -1.4984 H   0  0  0  0  0  0  0  0  0  0  0  0
   -2.0734    2.5234   -0.1240 H   0  0  0  0  0  0  0  0  0  0  0  0
   -0.5977    2.2471   -1.1855 H   0  0  0  0  0  0  0  0  0  0  0  0
   -1.7429    1.0648    1.9988 H   0  0  0  0  0  0  0  0  0  0  0  0
  1  2  1  0
  2  3  1  0
  3  4  1  0
  3  5  1  0
  5  6  1  0
  5  7  1  0
  7  8  1  0
  7  9  1  0
  7  3  1  0
  1 10  1  0
  1 11  1  0
  1 12  1  0
  2 13  1  0
  2 14  1  0
  4 15  1  0
  4 16  1  0
  4 17  1  0
  5 18  1  0
  6 19  1  0
  6 20  1  0
  6 21  1  0
  8 22  1  0
  8 23  1  0
  8 24  1  0
  9 25  1  0
M  END
