
     RDKit          3D

 21 21  0  0  0  0  0  0  0  0999 V2000
    2.4770   -0.3517   -0.4177 C   0  0  0  0  0  0  0  0  0  0  0  0
    1.0590   -0.4725   -0.9468 C   0  0  0  0  0  0  0  0  0  0  0  0
    0.1014    0.2710   -0.0616 C   0  0  0  0  0  0  0  0  0  0  0  0
    0.4377    1.7598    0.0231 C   0  0  0  0  0  0  0  0  0  0  0  0
   -0.2159   -0.2016    1.2051 O   0  0  0  0  0  0  0  0  0  0  0  0
   -1.2027   -0.1993    0.1394 C   0  0  0  0  0  0  0  0  0  0  0  0
   -1.6191   -1.6395   -0.0908 C   0  0  0  0  0  0  0  0  0  0  0  0
   -2.3269    0.7503    0.2787 C   0  0  0  0  0  0  0  0  0  0  0  0
   -3.4521    0.3927    0.5451 O   0  0  0  0  0  0  0  0  0  0  0  0
    3.0286   -1.2954   -0.6425 H   0  0  0  0  0  0  0  0  0  0  0  0
    2.9971    0.5353   -0.7984 H   0  0  0  0  0  0  0  0  0  0  0  0
    2.4097   -0.2989    0.6984 H   0  0  0  0  0  0  0  0  0  0  0  0
    1.0614    0.0992   -1.9260 H   0  0  0  0  0  0  0  0  0  0  0  0
    0.7647   -1.4854   -1.2214 H   0  0  0  0  0  0  0  0  0  0  0  0
    0.5756    2.2266   -0.9509 H   0  0  0  0  0  0  0  0  0  0  0  0
   -0.2501    2.2823    0.7009 H   0  0  0  0  0  0  0  0  0  0  0  0
    1.4402    1.7844    0.5487 H   0  0  0  0  0  0  0  0  0  0  0  0
   -0.7256   -2.2628   -0.0892 H   0  0  0  0  0  0  0  0  0  0  0  0
   -2.1881   -1.9214    0.8451 H   0  0  0  0  0  0  0  0  0  0  0  0
   -2.2403   -1.7725   -0.9784 H   0  0  0  0  0  0  0  0  0  0  0  0
   -2.1314    1.7995    0.1361 H   0  0  0  0  0  0  0  0  0  0  0  0
  1  2  1  0
  2  3  1  0
  3  4  1  0
  3  5  1  0
  5  6  1  0
  6  7  1  0
  6  8  1  0
  8  9  2  0
  6  3  1  0
  1 10  1  0
  1 11  1  0
  1 12  1  0
  2 13  1  0
  2 14  1  0
  4 15  1  0
  4 16  1  0
  4 17  1  0
  7 18  1  0
  7 19  1  0
  7 20  1  0
  8 21  1  0
M  END
