
     RDKit          3D

 25 25  0  0  0  0  0  0  0  0999 V2000
    2.2838   -0.5893    0.6672 C   0  0  0  0  0  0  0  0  0  0  0  0
    1.1468    0.3567    0.8362 C   0  0  0  0  0  0  0  0  0  0  0  0
    0.2949    0.5142   -0.3934 C   0  0  0  0  0  0  0  0  0  0  0  0
    1.1565    1.0360   -1.5251 C   0  0  0  0  0  0  0  0  0  0  0  0
   -0.3002   -0.7923   -0.8510 C   0  0  0  0  0  0  0  0  0  0  0  0
   -1.2385   -1.3287    0.2260 C   0  0  0  0  0  0  0  0  0  0  0  0
   -2.3398   -0.2645    0.3151 C   0  0  0  0  0  0  0  0  0  0  0  0
   -1.6775    1.0142    0.7138 C   0  0  0  0  0  0  0  0  0  0  0  0
   -0.7042    1.4248   -0.1705 O   0  0  0  0  0  0  0  0  0  0  0  0
    3.2782   -0.1486    0.8861 H   0  0  0  0  0  0  0  0  0  0  0  0
    2.1639   -1.4230    1.4159 H   0  0  0  0  0  0  0  0  0  0  0  0
    2.3405   -1.0804   -0.3144 H   0  0  0  0  0  0  0  0  0  0  0  0
    1.5849    1.3748    1.0438 H   0  0  0  0  0  0  0  0  0  0  0  0
    0.5379    0.1090    1.7277 H   0  0  0  0  0  0  0  0  0  0  0  0
    2.1098    0.4787   -1.6098 H   0  0  0  0  0  0  0  0  0  0  0  0
    0.5573    0.9264   -2.4538 H   0  0  0  0  0  0  0  0  0  0  0  0
    1.3282    2.1262   -1.3965 H   0  0  0  0  0  0  0  0  0  0  0  0
   -0.9595   -0.5522   -1.7221 H   0  0  0  0  0  0  0  0  0  0  0  0
    0.4315   -1.5182   -1.1837 H   0  0  0  0  0  0  0  0  0  0  0  0
   -0.7211   -1.4617    1.1880 H   0  0  0  0  0  0  0  0  0  0  0  0
   -1.6586   -2.2701   -0.1659 H   0  0  0  0  0  0  0  0  0  0  0  0
   -3.1166   -0.5347    1.0249 H   0  0  0  0  0  0  0  0  0  0  0  0
   -2.7010   -0.1396   -0.7350 H   0  0  0  0  0  0  0  0  0  0  0  0
   -1.3291    0.9323    1.7626 H   0  0  0  0  0  0  0  0  0  0  0  0
   -2.4682    1.8101    0.7140 H   0  0  0  0  0  0  0  0  0  0  0  0
  1  2  1  0
  2  3  1  0
  3  4  1  0
  3  5  1  0
  5  6  1  0
  6  7  1  0
  7  8  1  0
  8  9  1  0
  9  3  1  0
  1 10  1  0
  1 11  1  0
  1 12  1  0
  2 13  1  0
  2 14  1  0
  4 15  1  0
  4 16  1  0
  4 17  1  0
  5 18  1  0
  5 19  1  0
  6 20  1  0
  6 21  1  0
  7 22  1  0
  7 23  1  0
  8 24  1  0
  8 25  1  0
M  END
