
     RDKit          3D

 22 22  0  0  0  0  0  0  0  0999 V2000
    2.6744   -0.2213    0.3167 C   0  0  0  0  0  0  0  0  0  0  0  0
    1.5767    0.1325   -0.6400 C   0  0  0  0  0  0  0  0  0  0  0  0
    0.2497    0.3781    0.0337 C   0  0  0  0  0  0  0  0  0  0  0  0
   -0.1837   -0.8689    0.7769 C   0  0  0  0  0  0  0  0  0  0  0  0
   -1.6794   -0.7970    0.9653 C   0  0  0  0  0  0  0  0  0  0  0  0
   -2.1800    0.4902    0.8447 O   0  0  0  0  0  0  0  0  0  0  0  0
   -2.0572    1.0136   -0.4200 C   0  0  0  0  0  0  0  0  0  0  0  0
   -0.7720    0.5745   -1.0919 C   0  0  0  0  0  0  0  0  0  0  0  0
    2.3150   -0.6912    1.2514 H   0  0  0  0  0  0  0  0  0  0  0  0
    3.1804    0.7294    0.6081 H   0  0  0  0  0  0  0  0  0  0  0  0
    3.4057   -0.8788   -0.2193 H   0  0  0  0  0  0  0  0  0  0  0  0
    1.8331    1.0762   -1.1823 H   0  0  0  0  0  0  0  0  0  0  0  0
    1.4085   -0.6612   -1.3978 H   0  0  0  0  0  0  0  0  0  0  0  0
    0.2776    1.2639    0.6980 H   0  0  0  0  0  0  0  0  0  0  0  0
    0.0129   -1.7244    0.0707 H   0  0  0  0  0  0  0  0  0  0  0  0
    0.3563   -1.0036    1.7274 H   0  0  0  0  0  0  0  0  0  0  0  0
   -1.8872   -1.1052    2.0329 H   0  0  0  0  0  0  0  0  0  0  0  0
   -2.2181   -1.5396    0.3446 H   0  0  0  0  0  0  0  0  0  0  0  0
   -1.9882    2.1345   -0.2981 H   0  0  0  0  0  0  0  0  0  0  0  0
   -2.9442    0.8514   -1.0672 H   0  0  0  0  0  0  0  0  0  0  0  0
   -0.4230    1.2879   -1.8452 H   0  0  0  0  0  0  0  0  0  0  0  0
   -0.9571   -0.4410   -1.5086 H   0  0  0  0  0  0  0  0  0  0  0  0
  1  2  1  0
  2  3  1  0
  3  4  1  0
  4  5  1  0
  5  6  1  0
  6  7  1  0
  7  8  1  0
  8  3  1  0
  1  9  1  0
  1 10  1  0
  1 11  1  0
  2 12  1  0
  2 13  1  0
  3 14  1  0
  4 15  1  0
  4 16  1  0
  5 17  1  0
  5 18  1  0
  7 19  1  0
  7 20  1  0
  8 21  1  0
  8 22  1  0
M  END
