
     RDKit          3D

 23 24  0  0  0  0  0  0  0  0999 V2000
   -1.6129    1.8053    0.0483 C   0  0  0  0  0  0  0  0  0  0  0  0
   -1.4385    0.3943   -0.4551 C   0  0  0  0  0  0  0  0  0  0  0  0
   -0.7294   -0.4895    0.5324 C   0  0  0  0  0  0  0  0  0  0  0  0
    0.5360   -0.0874    0.8787 O   0  0  0  0  0  0  0  0  0  0  0  0
    1.4186   -0.0130   -0.1944 C   0  0  0  0  0  0  0  0  0  0  0  0
    2.4226    1.1012   -0.2441 C   0  0  0  0  0  0  0  0  0  0  0  0
    2.8372   -0.3337    0.1210 C   0  0  0  0  0  0  0  0  0  0  0  0
   -1.4763   -1.2688    1.5471 C   0  0  0  0  0  0  0  0  0  0  0  0
   -0.9793   -1.9886    0.3015 C   0  0  0  0  0  0  0  0  0  0  0  0
   -1.9424    2.4269   -0.8104 H   0  0  0  0  0  0  0  0  0  0  0  0
   -2.3918    1.8298    0.8361 H   0  0  0  0  0  0  0  0  0  0  0  0
   -0.6270    2.1837    0.4174 H   0  0  0  0  0  0  0  0  0  0  0  0
   -2.4509    0.0013   -0.6997 H   0  0  0  0  0  0  0  0  0  0  0  0
   -0.8914    0.4676   -1.4228 H   0  0  0  0  0  0  0  0  0  0  0  0
    0.9901   -0.2863   -1.1859 H   0  0  0  0  0  0  0  0  0  0  0  0
    2.7721    1.4501   -1.2468 H   0  0  0  0  0  0  0  0  0  0  0  0
    2.4304    1.8579    0.5470 H   0  0  0  0  0  0  0  0  0  0  0  0
    3.1143   -0.4672    1.1838 H   0  0  0  0  0  0  0  0  0  0  0  0
    3.4096   -0.9102   -0.6394 H   0  0  0  0  0  0  0  0  0  0  0  0
   -2.5592   -1.1421    1.7009 H   0  0  0  0  0  0  0  0  0  0  0  0
   -0.9323   -1.5743    2.4650 H   0  0  0  0  0  0  0  0  0  0  0  0
   -0.1163   -2.6653    0.3791 H   0  0  0  0  0  0  0  0  0  0  0  0
   -1.7831   -2.2918   -0.3717 H   0  0  0  0  0  0  0  0  0  0  0  0
  1  2  1  0
  2  3  1  0
  3  4  1  0
  4  5  1  0
  5  6  1  0
  6  7  1  0
  3  8  1  0
  8  9  1  0
  9  3  1  0
  7  5  1  0
  1 10  1  0
  1 11  1  0
  1 12  1  0
  2 13  1  0
  2 14  1  0
  5 15  1  0
  6 16  1  0
  6 17  1  0
  7 18  1  0
  7 19  1  0
  8 20  1  0
  8 21  1  0
  9 22  1  0
  9 23  1  0
M  END
