
     RDKit          3D

 20 20  0  0  0  0  0  0  0  0999 V2000
    1.8772   -0.8877    0.5087 C   0  0  0  0  0  0  0  0  0  0  0  0
    0.9778   -0.2805   -0.5449 C   0  0  0  0  0  0  0  0  0  0  0  0
   -0.2379    0.3767    0.0607 C   0  0  0  0  0  0  0  0  0  0  0  0
   -1.0646   -0.4246    0.7881 O   0  0  0  0  0  0  0  0  0  0  0  0
   -1.6205   -1.4812    0.1183 C   0  0  0  0  0  0  0  0  0  0  0  0
    0.0204    1.6772    0.7780 C   0  0  0  0  0  0  0  0  0  0  0  0
   -1.1733    2.1598    0.1927 O   0  0  0  0  0  0  0  0  0  0  0  0
   -0.8671    1.3326   -0.9061 C   0  0  0  0  0  0  0  0  0  0  0  0
    2.7360   -1.3481   -0.0560 H   0  0  0  0  0  0  0  0  0  0  0  0
    1.3469   -1.6737    1.0522 H   0  0  0  0  0  0  0  0  0  0  0  0
    2.2466   -0.0698    1.1582 H   0  0  0  0  0  0  0  0  0  0  0  0
    1.5467    0.4367   -1.1453 H   0  0  0  0  0  0  0  0  0  0  0  0
    0.5985   -1.1328   -1.1633 H   0  0  0  0  0  0  0  0  0  0  0  0
   -2.2640   -2.0378    0.8344 H   0  0  0  0  0  0  0  0  0  0  0  0
   -2.2885   -1.1021   -0.6715 H   0  0  0  0  0  0  0  0  0  0  0  0
   -0.8837   -2.2221   -0.2611 H   0  0  0  0  0  0  0  0  0  0  0  0
    0.9118    2.2389    0.4470 H   0  0  0  0  0  0  0  0  0  0  0  0
   -0.0904    1.6314    1.8744 H   0  0  0  0  0  0  0  0  0  0  0  0
   -1.7159    0.9829   -1.4865 H   0  0  0  0  0  0  0  0  0  0  0  0
   -0.0561    1.8239   -1.5178 H   0  0  0  0  0  0  0  0  0  0  0  0
  1  2  1  0
  2  3  1  0
  3  4  1  0
  4  5  1  0
  3  6  1  0
  6  7  1  0
  7  8  1  0
  8  3  1  0
  1  9  1  0
  1 10  1  0
  1 11  1  0
  2 12  1  0
  2 13  1  0
  5 14  1  0
  5 15  1  0
  5 16  1  0
  6 17  1  0
  6 18  1  0
  8 19  1  0
  8 20  1  0
M  END
