
     RDKit          3D

 25 25  0  0  0  0  0  0  0  0999 V2000
    2.2859    0.5432    0.7017 C   0  0  0  0  0  0  0  0  0  0  0  0
    1.1020   -0.2648    1.1917 C   0  0  0  0  0  0  0  0  0  0  0  0
    0.1865   -0.4847    0.0244 C   0  0  0  0  0  0  0  0  0  0  0  0
    0.9000   -1.2332   -1.0707 C   0  0  0  0  0  0  0  0  0  0  0  0
   -1.0320   -1.2473    0.3691 C   0  0  0  0  0  0  0  0  0  0  0  0
   -2.0134   -0.8279   -0.4138 C   0  0  0  0  0  0  0  0  0  0  0  0
   -1.5263    0.2458   -1.3388 C   0  0  0  0  0  0  0  0  0  0  0  0
   -0.4023    0.8137   -0.4510 C   0  0  0  0  0  0  0  0  0  0  0  0
   -1.1204    1.4852    0.6805 C   0  0  0  0  0  0  0  0  0  0  0  0
    2.1233    0.9210   -0.3254 H   0  0  0  0  0  0  0  0  0  0  0  0
    2.4876    1.4236    1.3554 H   0  0  0  0  0  0  0  0  0  0  0  0
    3.1715   -0.1235    0.7636 H   0  0  0  0  0  0  0  0  0  0  0  0
    1.4132   -1.2176    1.6541 H   0  0  0  0  0  0  0  0  0  0  0  0
    0.6190    0.3305    1.9846 H   0  0  0  0  0  0  0  0  0  0  0  0
    1.4721   -2.0523   -0.5787 H   0  0  0  0  0  0  0  0  0  0  0  0
    0.1468   -1.7268   -1.7184 H   0  0  0  0  0  0  0  0  0  0  0  0
    1.6167   -0.6143   -1.6336 H   0  0  0  0  0  0  0  0  0  0  0  0
   -1.1666   -2.0341    1.1278 H   0  0  0  0  0  0  0  0  0  0  0  0
   -3.0444   -1.1767   -0.4271 H   0  0  0  0  0  0  0  0  0  0  0  0
   -1.1476   -0.1374   -2.2825 H   0  0  0  0  0  0  0  0  0  0  0  0
   -2.2784    1.0279   -1.5141 H   0  0  0  0  0  0  0  0  0  0  0  0
    0.2760    1.4477   -1.0112 H   0  0  0  0  0  0  0  0  0  0  0  0
   -1.7280    0.6758    1.1710 H   0  0  0  0  0  0  0  0  0  0  0  0
   -0.4760    1.9783    1.4038 H   0  0  0  0  0  0  0  0  0  0  0  0
   -1.8653    2.2478    0.3376 H   0  0  0  0  0  0  0  0  0  0  0  0
  1  2  1  0
  2  3  1  0
  3  4  1  0
  3  5  1  0
  5  6  2  0
  6  7  1  0
  7  8  1  0
  8  9  1  0
  8  3  1  0
  1 10  1  0
  1 11  1  0
  1 12  1  0
  2 13  1  0
  2 14  1  0
  4 15  1  0
  4 16  1  0
  4 17  1  0
  5 18  1  0
  6 19  1  0
  7 20  1  0
  7 21  1  0
  8 22  1  0
  9 23  1  0
  9 24  1  0
  9 25  1  0
M  END
