
     RDKit          3D

 20 20  0  0  0  0  0  0  0  0999 V2000
    2.6555   -0.1817   -0.3605 C   0  0  0  0  0  0  0  0  0  0  0  0
    1.4254    0.6454   -0.1683 C   0  0  0  0  0  0  0  0  0  0  0  0
    0.2521   -0.1041    0.3610 C   0  0  0  0  0  0  0  0  0  0  0  0
   -0.1317   -1.2158   -0.5743 C   0  0  0  0  0  0  0  0  0  0  0  0
   -1.4288   -1.2485   -0.7858 C   0  0  0  0  0  0  0  0  0  0  0  0
   -2.0691   -0.1703   -0.0226 C   0  0  0  0  0  0  0  0  0  0  0  0
   -3.0530    0.4994   -0.7478 O   0  0  0  0  0  0  0  0  0  0  0  0
   -0.9647    0.8178    0.2398 C   0  0  0  0  0  0  0  0  0  0  0  0
    3.5221    0.5391   -0.4264 H   0  0  0  0  0  0  0  0  0  0  0  0
    2.5922   -0.7271   -1.3249 H   0  0  0  0  0  0  0  0  0  0  0  0
    2.8152   -0.8885    0.4550 H   0  0  0  0  0  0  0  0  0  0  0  0
    1.6526    1.4742    0.5441 H   0  0  0  0  0  0  0  0  0  0  0  0
    1.1190    1.0761   -1.1661 H   0  0  0  0  0  0  0  0  0  0  0  0
    0.3965   -0.4610    1.3930 H   0  0  0  0  0  0  0  0  0  0  0  0
    0.6029   -1.8874   -1.0010 H   0  0  0  0  0  0  0  0  0  0  0  0
   -1.9821   -1.9516   -1.4225 H   0  0  0  0  0  0  0  0  0  0  0  0
   -2.4564   -0.5537    0.9443 H   0  0  0  0  0  0  0  0  0  0  0  0
   -2.9802    1.4909   -0.6168 H   0  0  0  0  0  0  0  0  0  0  0  0
   -1.1114    1.4171    1.1514 H   0  0  0  0  0  0  0  0  0  0  0  0
   -0.8562    1.4298   -0.6823 H   0  0  0  0  0  0  0  0  0  0  0  0
  1  2  1  0
  2  3  1  0
  3  4  1  0
  4  5  2  0
  5  6  1  0
  6  7  1  0
  6  8  1  0
  8  3  1  0
  1  9  1  0
  1 10  1  0
  1 11  1  0
  2 12  1  0
  2 13  1  0
  3 14  1  0
  4 15  1  0
  5 16  1  0
  6 17  1  0
  7 18  1  0
  8 19  1  0
  8 20  1  0
M  END
