
     RDKit          3D

 21 22  0  0  0  0  0  0  0  0999 V2000
    2.1383    0.9124   -0.0640 C   0  0  0  0  0  0  0  0  0  0  0  0
    1.0672    0.3884    0.8280 C   0  0  0  0  0  0  0  0  0  0  0  0
    0.1769   -0.6611    0.2236 C   0  0  0  0  0  0  0  0  0  0  0  0
   -0.8527   -1.1075    1.2072 C   0  0  0  0  0  0  0  0  0  0  0  0
   -1.4959    0.1006    1.5732 O   0  0  0  0  0  0  0  0  0  0  0  0
   -1.9415    0.8562    0.5383 C   0  0  0  0  0  0  0  0  0  0  0  0
   -1.0492    1.0025   -0.5501 O   0  0  0  0  0  0  0  0  0  0  0  0
   -0.7509   -0.2428   -0.9710 C   0  0  0  0  0  0  0  0  0  0  0  0
    0.4217   -1.0096   -1.1202 C   0  0  0  0  0  0  0  0  0  0  0  0
    1.7704    1.5658   -0.8819 H   0  0  0  0  0  0  0  0  0  0  0  0
    2.7833    1.5677    0.5630 H   0  0  0  0  0  0  0  0  0  0  0  0
    2.8071    0.1359   -0.4749 H   0  0  0  0  0  0  0  0  0  0  0  0
    1.5595   -0.0984    1.6960 H   0  0  0  0  0  0  0  0  0  0  0  0
    0.5120    1.2558    1.2413 H   0  0  0  0  0  0  0  0  0  0  0  0
   -1.5675   -1.8440    0.8216 H   0  0  0  0  0  0  0  0  0  0  0  0
   -0.3697   -1.4656    2.1441 H   0  0  0  0  0  0  0  0  0  0  0  0
   -2.2925    1.8084    0.9129 H   0  0  0  0  0  0  0  0  0  0  0  0
   -2.8346    0.3348    0.0907 H   0  0  0  0  0  0  0  0  0  0  0  0
   -1.7182   -0.8204   -1.1043 H   0  0  0  0  0  0  0  0  0  0  0  0
    0.3403   -2.1023   -1.3996 H   0  0  0  0  0  0  0  0  0  0  0  0
    1.2960   -0.5767   -1.6446 H   0  0  0  0  0  0  0  0  0  0  0  0
  1  2  1  0
  2  3  1  0
  3  4  1  0
  4  5  1  0
  5  6  1  0
  6  7  1  0
  7  8  1  0
  8  9  1  0
  8  3  1  0
  9  3  1  0
  1 10  1  0
  1 11  1  0
  1 12  1  0
  2 13  1  0
  2 14  1  0
  4 15  1  0
  4 16  1  0
  6 17  1  0
  6 18  1  0
  8 19  1  0
  9 20  1  0
  9 21  1  0
M  END
