
     RDKit          3D

 21 22  0  0  0  0  0  0  0  0999 V2000
   -3.2290   -0.4094    0.2166 C   0  0  0  0  0  0  0  0  0  0  0  0
   -1.9402   -0.6214   -0.5887 C   0  0  0  0  0  0  0  0  0  0  0  0
   -0.9394    0.3577   -0.0612 C   0  0  0  0  0  0  0  0  0  0  0  0
   -0.7231    0.1107    1.3104 O   0  0  0  0  0  0  0  0  0  0  0  0
    0.6129   -0.1667    1.0368 C   0  0  0  0  0  0  0  0  0  0  0  0
    1.4782    0.8987    0.4424 C   0  0  0  0  0  0  0  0  0  0  0  0
    2.9376    0.5424    0.3204 C   0  0  0  0  0  0  0  0  0  0  0  0
    3.0609   -0.5809   -0.4933 O   0  0  0  0  0  0  0  0  0  0  0  0
    0.4889    0.1280   -0.3912 C   0  0  0  0  0  0  0  0  0  0  0  0
   -3.2222    0.6024    0.7038 H   0  0  0  0  0  0  0  0  0  0  0  0
   -4.1215   -0.4496   -0.4175 H   0  0  0  0  0  0  0  0  0  0  0  0
   -3.2292   -1.1718    1.0320 H   0  0  0  0  0  0  0  0  0  0  0  0
   -1.5692   -1.6641   -0.4773 H   0  0  0  0  0  0  0  0  0  0  0  0
   -2.1651   -0.4459   -1.6469 H   0  0  0  0  0  0  0  0  0  0  0  0
   -1.2858    1.3995   -0.1692 H   0  0  0  0  0  0  0  0  0  0  0  0
    1.0224   -1.0875    1.4542 H   0  0  0  0  0  0  0  0  0  0  0  0
    1.1886    1.9456    0.6890 H   0  0  0  0  0  0  0  0  0  0  0  0
    3.5499    1.3650   -0.0822 H   0  0  0  0  0  0  0  0  0  0  0  0
    3.3121    0.3379    1.3548 H   0  0  0  0  0  0  0  0  0  0  0  0
    3.9510   -0.5085   -0.9389 H   0  0  0  0  0  0  0  0  0  0  0  0
    0.8222   -0.5821   -1.1503 H   0  0  0  0  0  0  0  0  0  0  0  0
  1  2  1  0
  2  3  1  0
  3  4  1  0
  4  5  1  0
  5  6  1  0
  6  7  1  0
  7  8  1  0
  6  9  1  0
  9  3  1  0
  9  5  1  0
  1 10  1  0
  1 11  1  0
  1 12  1  0
  2 13  1  0
  2 14  1  0
  3 15  1  0
  5 16  1  0
  6 17  1  0
  7 18  1  0
  7 19  1  0
  8 20  1  0
  9 21  1  0
M  END
