
     RDKit          3D

 21 21  0  0  0  0  0  0  0  0999 V2000
   -1.8279    0.6883   -1.0232 C   0  0  0  0  0  0  0  0  0  0  0  0
   -1.5293    0.2497    0.3603 C   0  0  0  0  0  0  0  0  0  0  0  0
   -0.0962   -0.1403    0.6071 C   0  0  0  0  0  0  0  0  0  0  0  0
   -0.0295   -0.5227    1.9711 O   0  0  0  0  0  0  0  0  0  0  0  0
    0.7739    1.0702    0.4690 C   0  0  0  0  0  0  0  0  0  0  0  0
    2.1051    0.7932    0.2673 O   0  0  0  0  0  0  0  0  0  0  0  0
    2.3704   -0.3475   -0.4334 C   0  0  0  0  0  0  0  0  0  0  0  0
    1.7263   -1.4799    0.0474 O   0  0  0  0  0  0  0  0  0  0  0  0
    0.3544   -1.3221   -0.1718 C   0  0  0  0  0  0  0  0  0  0  0  0
   -2.3852   -0.1164   -1.5849 H   0  0  0  0  0  0  0  0  0  0  0  0
   -2.5320    1.5459   -0.9996 H   0  0  0  0  0  0  0  0  0  0  0  0
   -0.9571    1.0171   -1.6187 H   0  0  0  0  0  0  0  0  0  0  0  0
   -2.2183   -0.6098    0.6075 H   0  0  0  0  0  0  0  0  0  0  0  0
   -1.8181    1.0534    1.0680 H   0  0  0  0  0  0  0  0  0  0  0  0
   -0.8215   -1.0423    2.1904 H   0  0  0  0  0  0  0  0  0  0  0  0
    0.3976    1.7729   -0.3008 H   0  0  0  0  0  0  0  0  0  0  0  0
    0.7135    1.6537    1.4358 H   0  0  0  0  0  0  0  0  0  0  0  0
    2.2216   -0.2327   -1.5462 H   0  0  0  0  0  0  0  0  0  0  0  0
    3.4705   -0.5540   -0.3304 H   0  0  0  0  0  0  0  0  0  0  0  0
   -0.1375   -2.2375    0.2485 H   0  0  0  0  0  0  0  0  0  0  0  0
    0.2193   -1.2392   -1.2633 H   0  0  0  0  0  0  0  0  0  0  0  0
  1  2  1  0
  2  3  1  0
  3  4  1  0
  3  5  1  0
  5  6  1  0
  6  7  1  0
  7  8  1  0
  8  9  1  0
  9  3  1  0
  1 10  1  0
  1 11  1  0
  1 12  1  0
  2 13  1  0
  2 14  1  0
  4 15  1  0
  5 16  1  0
  5 17  1  0
  7 18  1  0
  7 19  1  0
  9 20  1  0
  9 21  1  0
M  END
