
     RDKit          3D

 21 21  0  0  0  0  0  0  0  0999 V2000
    2.7959    0.1621    0.7929 C   0  0  0  0  0  0  0  0  0  0  0  0
    2.1504   -0.4029   -0.4408 C   0  0  0  0  0  0  0  0  0  0  0  0
    0.6694   -0.1743   -0.4681 C   0  0  0  0  0  0  0  0  0  0  0  0
   -0.0214    0.5008   -1.3893 C   0  0  0  0  0  0  0  0  0  0  0  0
   -1.4647    0.4920   -1.0473 C   0  0  0  0  0  0  0  0  0  0  0  0
   -1.4163    0.3010    0.4410 C   0  0  0  0  0  0  0  0  0  0  0  0
   -2.6661   -0.2421    1.0305 C   0  0  0  0  0  0  0  0  0  0  0  0
   -0.2654   -0.6686    0.5404 C   0  0  0  0  0  0  0  0  0  0  0  0
   -0.1166   -1.6559    1.2857 O   0  0  0  0  0  0  0  0  0  0  0  0
    2.2911    1.0811    1.1602 H   0  0  0  0  0  0  0  0  0  0  0  0
    2.7998   -0.5539    1.6448 H   0  0  0  0  0  0  0  0  0  0  0  0
    3.8494    0.4439    0.6078 H   0  0  0  0  0  0  0  0  0  0  0  0
    2.3436   -1.4968   -0.4495 H   0  0  0  0  0  0  0  0  0  0  0  0
    2.5946    0.0698   -1.3512 H   0  0  0  0  0  0  0  0  0  0  0  0
    0.4742    0.9615   -2.2378 H   0  0  0  0  0  0  0  0  0  0  0  0
   -1.9151   -0.4174   -1.5060 H   0  0  0  0  0  0  0  0  0  0  0  0
   -1.9808    1.4192   -1.3542 H   0  0  0  0  0  0  0  0  0  0  0  0
   -1.0823    1.2175    0.9423 H   0  0  0  0  0  0  0  0  0  0  0  0
   -2.7646   -1.3370    0.9782 H   0  0  0  0  0  0  0  0  0  0  0  0
   -2.7442    0.0967    2.0791 H   0  0  0  0  0  0  0  0  0  0  0  0
   -3.5308    0.2033    0.4740 H   0  0  0  0  0  0  0  0  0  0  0  0
  1  2  1  0
  2  3  1  0
  3  4  2  0
  4  5  1  0
  5  6  1  0
  6  7  1  0
  6  8  1  0
  8  9  2  0
  8  3  1  0
  1 10  1  0
  1 11  1  0
  1 12  1  0
  2 13  1  0
  2 14  1  0
  4 15  1  0
  5 16  1  0
  5 17  1  0
  6 18  1  0
  7 19  1  0
  7 20  1  0
  7 21  1  0
M  END
