
     RDKit          3D

 23 23  0  0  0  0  0  0  0  0999 V2000
   -2.2963   -0.8747    0.0383 C   0  0  0  0  0  0  0  0  0  0  0  0
   -1.6068    0.4380    0.1800 C   0  0  0  0  0  0  0  0  0  0  0  0
   -0.1455    0.3358    0.5078 C   0  0  0  0  0  0  0  0  0  0  0  0
    0.4060    1.7367    0.6177 C   0  0  0  0  0  0  0  0  0  0  0  0
    1.3397    2.0299   -0.3524 O   0  0  0  0  0  0  0  0  0  0  0  0
    2.3169    1.1042   -0.5309 C   0  0  0  0  0  0  0  0  0  0  0  0
    2.0046   -0.1841   -0.2198 O   0  0  0  0  0  0  0  0  0  0  0  0
    0.6444   -0.4950   -0.4387 C   0  0  0  0  0  0  0  0  0  0  0  0
    0.5269   -1.9720   -0.0393 C   0  0  0  0  0  0  0  0  0  0  0  0
   -2.2138   -1.2224   -1.0086 H   0  0  0  0  0  0  0  0  0  0  0  0
   -1.9961   -1.6062    0.7869 H   0  0  0  0  0  0  0  0  0  0  0  0
   -3.4001   -0.6961    0.1979 H   0  0  0  0  0  0  0  0  0  0  0  0
   -1.7393    1.0554   -0.7173 H   0  0  0  0  0  0  0  0  0  0  0  0
   -2.0880    0.9800    1.0400 H   0  0  0  0  0  0  0  0  0  0  0  0
   -0.0808   -0.1576    1.5214 H   0  0  0  0  0  0  0  0  0  0  0  0
   -0.4073    2.5146    0.5046 H   0  0  0  0  0  0  0  0  0  0  0  0
    0.7996    1.9153    1.6564 H   0  0  0  0  0  0  0  0  0  0  0  0
    2.6122    1.1235   -1.6213 H   0  0  0  0  0  0  0  0  0  0  0  0
    3.2696    1.3621    0.0071 H   0  0  0  0  0  0  0  0  0  0  0  0
    0.4122   -0.3451   -1.4948 H   0  0  0  0  0  0  0  0  0  0  0  0
    1.5048   -2.4955   -0.2275 H   0  0  0  0  0  0  0  0  0  0  0  0
    0.3510   -2.0441    1.0450 H   0  0  0  0  0  0  0  0  0  0  0  0
   -0.2139   -2.5024   -0.6581 H   0  0  0  0  0  0  0  0  0  0  0  0
  1  2  1  0
  2  3  1  0
  3  4  1  0
  4  5  1  0
  5  6  1  0
  6  7  1  0
  7  8  1  0
  8  9  1  0
  8  3  1  0
  1 10  1  0
  1 11  1  0
  1 12  1  0
  2 13  1  0
  2 14  1  0
  3 15  1  0
  4 16  1  0
  4 17  1  0
  6 18  1  0
  6 19  1  0
  8 20  1  0
  9 21  1  0
  9 22  1  0
  9 23  1  0
M  END
