
     RDKit          3D

 19 21  0  0  0  0  0  0  0  0999 V2000
    2.3523    0.0534   -0.2771 C   0  0  0  0  0  0  0  0  0  0  0  0
    1.2719    0.4895    0.6857 C   0  0  0  0  0  0  0  0  0  0  0  0
    0.0803   -0.3000    0.3145 C   0  0  0  0  0  0  0  0  0  0  0  0
   -0.5180   -0.1683   -1.0930 C   0  0  0  0  0  0  0  0  0  0  0  0
   -1.8105    0.4691   -0.6829 C   0  0  0  0  0  0  0  0  0  0  0  0
   -3.0103    0.0469   -0.4105 O   0  0  0  0  0  0  0  0  0  0  0  0
   -2.1910   -0.7818    0.1791 C   0  0  0  0  0  0  0  0  0  0  0  0
   -1.0825   -0.6105    1.1390 C   0  0  0  0  0  0  0  0  0  0  0  0
   -0.0087   -1.4980    0.9889 O   0  0  0  0  0  0  0  0  0  0  0  0
    3.1983    0.7560   -0.3245 H   0  0  0  0  0  0  0  0  0  0  0  0
    2.6830   -0.9604    0.0812 H   0  0  0  0  0  0  0  0  0  0  0  0
    1.8796   -0.1314   -1.2581 H   0  0  0  0  0  0  0  0  0  0  0  0
    1.1015    1.5815    0.5514 H   0  0  0  0  0  0  0  0  0  0  0  0
    1.5392    0.3123    1.7351 H   0  0  0  0  0  0  0  0  0  0  0  0
    0.0568    0.6117   -1.6490 H   0  0  0  0  0  0  0  0  0  0  0  0
   -0.6014   -1.1157   -1.6099 H   0  0  0  0  0  0  0  0  0  0  0  0
   -1.5633    1.4029   -0.0812 H   0  0  0  0  0  0  0  0  0  0  0  0
   -2.1684   -1.7663   -0.3867 H   0  0  0  0  0  0  0  0  0  0  0  0
   -1.2090   -0.0793    2.0981 H   0  0  0  0  0  0  0  0  0  0  0  0
  1  2  1  0
  2  3  1  0
  3  4  1  0
  4  5  1  0
  5  6  1  0
  6  7  1  0
  7  8  1  0
  8  9  1  0
  8  3  1  0
  9  3  1  0
  7  5  1  0
  1 10  1  0
  1 11  1  0
  1 12  1  0
  2 13  1  0
  2 14  1  0
  4 15  1  0
  4 16  1  0
  5 17  1  0
  7 18  1  0
  8 19  1  0
M  END
