
     RDKit          3D

 25 25  0  0  0  0  0  0  0  0999 V2000
    1.4184    0.2445    1.7916 C   0  0  0  0  0  0  0  0  0  0  0  0
    1.1773   -0.7771    0.7148 C   0  0  0  0  0  0  0  0  0  0  0  0
    0.5529   -0.1756   -0.5170 C   0  0  0  0  0  0  0  0  0  0  0  0
    1.4748    0.8957   -1.0835 C   0  0  0  0  0  0  0  0  0  0  0  0
    0.1695   -1.1301   -1.5925 C   0  0  0  0  0  0  0  0  0  0  0  0
   -1.1578   -0.3741   -1.7121 C   0  0  0  0  0  0  0  0  0  0  0  0
   -0.8839    0.2590   -0.3516 C   0  0  0  0  0  0  0  0  0  0  0  0
   -1.5232   -0.4549    0.6331 O   0  0  0  0  0  0  0  0  0  0  0  0
   -2.2938    0.3761    1.4660 C   0  0  0  0  0  0  0  0  0  0  0  0
    1.3052   -0.2688    2.7806 H   0  0  0  0  0  0  0  0  0  0  0  0
    0.7088    1.0960    1.7588 H   0  0  0  0  0  0  0  0  0  0  0  0
    2.4530    0.6375    1.7797 H   0  0  0  0  0  0  0  0  0  0  0  0
    0.4509   -1.5360    1.1211 H   0  0  0  0  0  0  0  0  0  0  0  0
    2.1055   -1.3130    0.5062 H   0  0  0  0  0  0  0  0  0  0  0  0
    0.9722    1.3114   -1.9831 H   0  0  0  0  0  0  0  0  0  0  0  0
    2.3761    0.3522   -1.4659 H   0  0  0  0  0  0  0  0  0  0  0  0
    1.7169    1.6733   -0.3576 H   0  0  0  0  0  0  0  0  0  0  0  0
    0.7501   -1.0392   -2.5548 H   0  0  0  0  0  0  0  0  0  0  0  0
    0.0540   -2.1847   -1.3289 H   0  0  0  0  0  0  0  0  0  0  0  0
   -1.1435    0.3447   -2.5525 H   0  0  0  0  0  0  0  0  0  0  0  0
   -2.0137   -1.0833   -1.7050 H   0  0  0  0  0  0  0  0  0  0  0  0
   -1.0537    1.3509   -0.3577 H   0  0  0  0  0  0  0  0  0  0  0  0
   -2.8034   -0.2101    2.2544 H   0  0  0  0  0  0  0  0  0  0  0  0
   -1.6845    1.1891    1.9097 H   0  0  0  0  0  0  0  0  0  0  0  0
   -3.1280    0.8165    0.8460 H   0  0  0  0  0  0  0  0  0  0  0  0
  1  2  1  0
  2  3  1  0
  3  4  1  0
  3  5  1  0
  5  6  1  0
  6  7  1  0
  7  8  1  0
  8  9  1  0
  7  3  1  0
  1 10  1  0
  1 11  1  0
  1 12  1  0
  2 13  1  0
  2 14  1  0
  4 15  1  0
  4 16  1  0
  4 17  1  0
  5 18  1  0
  5 19  1  0
  6 20  1  0
  6 21  1  0
  7 22  1  0
  9 23  1  0
  9 24  1  0
  9 25  1  0
M  END
