
     RDKit          3D

 21 22  0  0  0  0  0  0  0  0999 V2000
    1.8721    1.0205   -1.2296 C   0  0  0  0  0  0  0  0  0  0  0  0
    1.6153   -0.0679   -0.2338 C   0  0  0  0  0  0  0  0  0  0  0  0
    0.1886   -0.2673    0.1090 C   0  0  0  0  0  0  0  0  0  0  0  0
   -0.1258   -1.3394    1.0970 C   0  0  0  0  0  0  0  0  0  0  0  0
   -0.5299   -1.5378   -0.3099 C   0  0  0  0  0  0  0  0  0  0  0  0
   -1.7560   -0.7498   -0.7276 C   0  0  0  0  0  0  0  0  0  0  0  0
   -0.9083    0.5046   -0.5600 C   0  0  0  0  0  0  0  0  0  0  0  0
   -1.5386    1.5578    0.2681 C   0  0  0  0  0  0  0  0  0  0  0  0
   -2.0683    2.5038   -0.2846 O   0  0  0  0  0  0  0  0  0  0  0  0
    1.8356    0.6366   -2.2912 H   0  0  0  0  0  0  0  0  0  0  0  0
    1.2691    1.9156   -1.1008 H   0  0  0  0  0  0  0  0  0  0  0  0
    2.9520    1.3242   -1.0919 H   0  0  0  0  0  0  0  0  0  0  0  0
    2.0520   -1.0153   -0.6537 H   0  0  0  0  0  0  0  0  0  0  0  0
    2.1596    0.2208    0.7122 H   0  0  0  0  0  0  0  0  0  0  0  0
   -0.9665   -1.1872    1.8209 H   0  0  0  0  0  0  0  0  0  0  0  0
    0.6991   -1.9387    1.4660 H   0  0  0  0  0  0  0  0  0  0  0  0
    0.0021   -2.1639   -1.0198 H   0  0  0  0  0  0  0  0  0  0  0  0
   -2.1125   -0.9412   -1.7514 H   0  0  0  0  0  0  0  0  0  0  0  0
   -2.5470   -0.7431    0.0608 H   0  0  0  0  0  0  0  0  0  0  0  0
   -0.6006    0.8434   -1.5851 H   0  0  0  0  0  0  0  0  0  0  0  0
   -1.4921    1.4242    1.3433 H   0  0  0  0  0  0  0  0  0  0  0  0
  1  2  1  0
  2  3  1  0
  3  4  1  0
  4  5  1  0
  5  6  1  0
  6  7  1  0
  7  8  1  0
  8  9  2  0
  5  3  1  0
  7  3  1  0
  1 10  1  0
  1 11  1  0
  1 12  1  0
  2 13  1  0
  2 14  1  0
  4 15  1  0
  4 16  1  0
  5 17  1  0
  6 18  1  0
  6 19  1  0
  7 20  1  0
  8 21  1  0
M  END
