
     RDKit          3D

 21 21  0  0  0  0  0  0  0  0999 V2000
    2.5716    0.5794   -0.8928 C   0  0  0  0  0  0  0  0  0  0  0  0
    2.2526   -0.2675    0.2908 C   0  0  0  0  0  0  0  0  0  0  0  0
    0.7915   -0.5350    0.4802 C   0  0  0  0  0  0  0  0  0  0  0  0
    0.2019   -1.1895   -0.5835 O   0  0  0  0  0  0  0  0  0  0  0  0
   -1.1678   -1.0893   -0.2401 C   0  0  0  0  0  0  0  0  0  0  0  0
   -1.2407    0.0804    0.7073 C   0  0  0  0  0  0  0  0  0  0  0  0
   -2.3253    1.0603    0.3382 C   0  0  0  0  0  0  0  0  0  0  0  0
   -2.1928    1.4569   -0.9730 O   0  0  0  0  0  0  0  0  0  0  0  0
    0.0338    0.6321    0.5589 O   0  0  0  0  0  0  0  0  0  0  0  0
    3.4151    0.1328   -1.4666 H   0  0  0  0  0  0  0  0  0  0  0  0
    1.7007    0.6968   -1.5538 H   0  0  0  0  0  0  0  0  0  0  0  0
    2.9366    1.6009   -0.5844 H   0  0  0  0  0  0  0  0  0  0  0  0
    2.7710   -1.2466    0.2767 H   0  0  0  0  0  0  0  0  0  0  0  0
    2.6142    0.2564    1.2017 H   0  0  0  0  0  0  0  0  0  0  0  0
    0.6200   -1.1069    1.3900 H   0  0  0  0  0  0  0  0  0  0  0  0
   -1.3879   -2.0017    0.3621 H   0  0  0  0  0  0  0  0  0  0  0  0
   -1.8098   -0.9907   -1.1177 H   0  0  0  0  0  0  0  0  0  0  0  0
   -1.3234   -0.2331    1.7659 H   0  0  0  0  0  0  0  0  0  0  0  0
   -2.2518    1.9068    1.0541 H   0  0  0  0  0  0  0  0  0  0  0  0
   -3.2950    0.5462    0.5194 H   0  0  0  0  0  0  0  0  0  0  0  0
   -2.9145    1.0697   -1.5334 H   0  0  0  0  0  0  0  0  0  0  0  0
  1  2  1  0
  2  3  1  0
  3  4  1  0
  4  5  1  0
  5  6  1  0
  6  7  1  0
  7  8  1  0
  6  9  1  0
  9  3  1  0
  1 10  1  0
  1 11  1  0
  1 12  1  0
  2 13  1  0
  2 14  1  0
  3 15  1  0
  5 16  1  0
  5 17  1  0
  6 18  1  0
  7 19  1  0
  7 20  1  0
  8 21  1  0
M  END
