
     RDKit          3D

 21 22  0  0  0  0  0  0  0  0999 V2000
    2.2291    0.7655   -0.3471 C   0  0  0  0  0  0  0  0  0  0  0  0
    1.6161   -0.5584   -0.0362 C   0  0  0  0  0  0  0  0  0  0  0  0
    0.1611   -0.5168    0.2778 C   0  0  0  0  0  0  0  0  0  0  0  0
   -0.4277   -1.8877    0.5896 C   0  0  0  0  0  0  0  0  0  0  0  0
   -0.8534   -1.0465   -0.6336 C   0  0  0  0  0  0  0  0  0  0  0  0
   -2.1088   -0.5530   -0.5471 O   0  0  0  0  0  0  0  0  0  0  0  0
   -2.2326    0.7903   -0.3204 C   0  0  0  0  0  0  0  0  0  0  0  0
   -0.9161    1.4265    0.0433 C   0  0  0  0  0  0  0  0  0  0  0  0
   -0.3079    0.5710    0.9849 O   0  0  0  0  0  0  0  0  0  0  0  0
    2.0006    1.1564   -1.3412 H   0  0  0  0  0  0  0  0  0  0  0  0
    2.0420    1.4831    0.4811 H   0  0  0  0  0  0  0  0  0  0  0  0
    3.3491    0.6147   -0.3420 H   0  0  0  0  0  0  0  0  0  0  0  0
    2.1457   -0.9648    0.8730 H   0  0  0  0  0  0  0  0  0  0  0  0
    1.8268   -1.2717   -0.8588 H   0  0  0  0  0  0  0  0  0  0  0  0
   -1.1283   -1.9862    1.4200 H   0  0  0  0  0  0  0  0  0  0  0  0
    0.1777   -2.7884    0.3989 H   0  0  0  0  0  0  0  0  0  0  0  0
   -0.5916   -1.5271   -1.6012 H   0  0  0  0  0  0  0  0  0  0  0  0
   -2.9295    0.9993    0.5315 H   0  0  0  0  0  0  0  0  0  0  0  0
   -2.6611    1.3489   -1.1894 H   0  0  0  0  0  0  0  0  0  0  0  0
   -1.0617    2.4390    0.4744 H   0  0  0  0  0  0  0  0  0  0  0  0
   -0.3295    1.5060   -0.8832 H   0  0  0  0  0  0  0  0  0  0  0  0
  1  2  1  0
  2  3  1  0
  3  4  1  0
  4  5  1  0
  5  6  1  0
  6  7  1  0
  7  8  1  0
  8  9  1  0
  5  3  1  0
  9  3  1  0
  1 10  1  0
  1 11  1  0
  1 12  1  0
  2 13  1  0
  2 14  1  0
  4 15  1  0
  4 16  1  0
  5 17  1  0
  7 18  1  0
  7 19  1  0
  8 20  1  0
  8 21  1  0
M  END
