
     RDKit          3D

 23 24  0  0  0  0  0  0  0  0999 V2000
    2.3205   -0.2651   -0.3242 C   0  0  0  0  0  0  0  0  0  0  0  0
    1.4612   -0.1814    0.8849 C   0  0  0  0  0  0  0  0  0  0  0  0
    0.0173    0.0655    0.6107 C   0  0  0  0  0  0  0  0  0  0  0  0
   -0.6950   -0.9652   -0.2286 C   0  0  0  0  0  0  0  0  0  0  0  0
   -1.6275   -1.8740    0.5201 C   0  0  0  0  0  0  0  0  0  0  0  0
   -1.4128    0.2013   -0.9223 C   0  0  0  0  0  0  0  0  0  0  0  0
   -0.3545    1.1039   -0.3631 C   0  0  0  0  0  0  0  0  0  0  0  0
   -0.3788    2.4892   -0.2474 C   0  0  0  0  0  0  0  0  0  0  0  0
    0.5284    1.7660   -1.1641 O   0  0  0  0  0  0  0  0  0  0  0  0
    2.5813    0.7457   -0.7075 H   0  0  0  0  0  0  0  0  0  0  0  0
    1.9176   -0.9006   -1.1325 H   0  0  0  0  0  0  0  0  0  0  0  0
    3.2891   -0.7570   -0.0164 H   0  0  0  0  0  0  0  0  0  0  0  0
    1.8376    0.5864    1.5558 H   0  0  0  0  0  0  0  0  0  0  0  0
    1.5444   -1.1590    1.4287 H   0  0  0  0  0  0  0  0  0  0  0  0
   -0.5384    0.1847    1.5692 H   0  0  0  0  0  0  0  0  0  0  0  0
   -0.0959   -1.4992   -0.9694 H   0  0  0  0  0  0  0  0  0  0  0  0
   -1.1936   -2.8834    0.5982 H   0  0  0  0  0  0  0  0  0  0  0  0
   -2.6489   -1.8677    0.0702 H   0  0  0  0  0  0  0  0  0  0  0  0
   -1.7567   -1.4436    1.5475 H   0  0  0  0  0  0  0  0  0  0  0  0
   -1.4474    0.1099   -2.0252 H   0  0  0  0  0  0  0  0  0  0  0  0
   -2.3961    0.4033   -0.4295 H   0  0  0  0  0  0  0  0  0  0  0  0
   -1.1236    3.1153   -0.8072 H   0  0  0  0  0  0  0  0  0  0  0  0
    0.1717    3.0250    0.5520 H   0  0  0  0  0  0  0  0  0  0  0  0
  1  2  1  0
  2  3  1  0
  3  4  1  0
  4  5  1  0
  4  6  1  0
  6  7  1  0
  7  8  1  0
  8  9  1  0
  7  3  1  0
  9  7  1  0
  1 10  1  0
  1 11  1  0
  1 12  1  0
  2 13  1  0
  2 14  1  0
  3 15  1  0
  4 16  1  0
  5 17  1  0
  5 18  1  0
  5 19  1  0
  6 20  1  0
  6 21  1  0
  8 22  1  0
  8 23  1  0
M  END
