
     RDKit          3D

 21 21  0  0  0  0  0  0  0  0999 V2000
    2.4561    0.8752   -0.0914 C   0  0  0  0  0  0  0  0  0  0  0  0
    1.6634   -0.4106   -0.3316 C   0  0  0  0  0  0  0  0  0  0  0  0
    0.5269   -0.4200    0.6552 C   0  0  0  0  0  0  0  0  0  0  0  0
   -0.2961    0.7935    0.3887 C   0  0  0  0  0  0  0  0  0  0  0  0
   -1.4693    0.4705   -0.1078 C   0  0  0  0  0  0  0  0  0  0  0  0
   -2.4925    1.4309   -0.4702 C   0  0  0  0  0  0  0  0  0  0  0  0
   -3.6015    1.0753   -0.9424 O   0  0  0  0  0  0  0  0  0  0  0  0
   -1.6111   -0.9921   -0.2485 C   0  0  0  0  0  0  0  0  0  0  0  0
   -0.4206   -1.5560    0.4625 C   0  0  0  0  0  0  0  0  0  0  0  0
    2.4867    1.0098    1.0238 H   0  0  0  0  0  0  0  0  0  0  0  0
    1.8568    1.7165   -0.5148 H   0  0  0  0  0  0  0  0  0  0  0  0
    3.4583    0.8278   -0.5327 H   0  0  0  0  0  0  0  0  0  0  0  0
    2.3623   -1.2391   -0.2222 H   0  0  0  0  0  0  0  0  0  0  0  0
    1.2895   -0.3618   -1.3558 H   0  0  0  0  0  0  0  0  0  0  0  0
    0.9262   -0.4317    1.6883 H   0  0  0  0  0  0  0  0  0  0  0  0
    0.1066    1.7950    0.6096 H   0  0  0  0  0  0  0  0  0  0  0  0
   -2.3231    2.4714   -0.3422 H   0  0  0  0  0  0  0  0  0  0  0  0
   -2.5661   -1.3578    0.1962 H   0  0  0  0  0  0  0  0  0  0  0  0
   -1.5982   -1.3432   -1.2896 H   0  0  0  0  0  0  0  0  0  0  0  0
    0.0281   -2.4307   -0.0416 H   0  0  0  0  0  0  0  0  0  0  0  0
   -0.7826   -1.9228    1.4664 H   0  0  0  0  0  0  0  0  0  0  0  0
  1  2  1  0
  2  3  1  0
  3  4  1  0
  4  5  2  0
  5  6  1  0
  6  7  2  0
  5  8  1  0
  8  9  1  0
  9  3  1  0
  1 10  1  0
  1 11  1  0
  1 12  1  0
  2 13  1  0
  2 14  1  0
  3 15  1  0
  4 16  1  0
  6 17  1  0
  8 18  1  0
  8 19  1  0
  9 20  1  0
  9 21  1  0
M  END
