
     RDKit          3D

 23 24  0  0  0  0  0  0  0  0999 V2000
    2.5953   -0.8975   -0.1406 C   0  0  0  0  0  0  0  0  0  0  0  0
    1.7222    0.2889   -0.4964 C   0  0  0  0  0  0  0  0  0  0  0  0
    0.4625    0.2022    0.3161 C   0  0  0  0  0  0  0  0  0  0  0  0
   -0.2282   -1.0863   -0.0237 C   0  0  0  0  0  0  0  0  0  0  0  0
   -1.5940   -0.7081   -0.5735 C   0  0  0  0  0  0  0  0  0  0  0  0
   -2.5776   -0.2005    0.4396 C   0  0  0  0  0  0  0  0  0  0  0  0
   -1.7935    0.7350   -0.3691 C   0  0  0  0  0  0  0  0  0  0  0  0
   -0.4880    1.3219    0.1009 C   0  0  0  0  0  0  0  0  0  0  0  0
   -0.7641    1.9922    1.3095 O   0  0  0  0  0  0  0  0  0  0  0  0
    2.8681   -1.5077   -1.0229 H   0  0  0  0  0  0  0  0  0  0  0  0
    2.0968   -1.5643    0.5716 H   0  0  0  0  0  0  0  0  0  0  0  0
    3.5503   -0.5523    0.3279 H   0  0  0  0  0  0  0  0  0  0  0  0
    1.4664    0.1655   -1.5885 H   0  0  0  0  0  0  0  0  0  0  0  0
    2.2577    1.2378   -0.3948 H   0  0  0  0  0  0  0  0  0  0  0  0
    0.7311    0.1575    1.3979 H   0  0  0  0  0  0  0  0  0  0  0  0
   -0.3012   -1.7741    0.8411 H   0  0  0  0  0  0  0  0  0  0  0  0
    0.2936   -1.6387   -0.8485 H   0  0  0  0  0  0  0  0  0  0  0  0
   -1.9225   -1.1272   -1.5292 H   0  0  0  0  0  0  0  0  0  0  0  0
   -3.6311   -0.3416    0.1721 H   0  0  0  0  0  0  0  0  0  0  0  0
   -2.3518   -0.4372    1.4949 H   0  0  0  0  0  0  0  0  0  0  0  0
   -2.3449    1.3734   -1.0905 H   0  0  0  0  0  0  0  0  0  0  0  0
   -0.1257    2.0696   -0.6167 H   0  0  0  0  0  0  0  0  0  0  0  0
    0.0786    2.2915    1.7227 H   0  0  0  0  0  0  0  0  0  0  0  0
  1  2  1  0
  2  3  1  0
  3  4  1  0
  4  5  1  0
  5  6  1  0
  6  7  1  0
  7  8  1  0
  8  9  1  0
  8  3  1  0
  7  5  1  0
  1 10  1  0
  1 11  1  0
  1 12  1  0
  2 13  1  0
  2 14  1  0
  3 15  1  0
  4 16  1  0
  4 17  1  0
  5 18  1  0
  6 19  1  0
  6 20  1  0
  7 21  1  0
  8 22  1  0
  9 23  1  0
M  END
