
     RDKit          3D

 18 18  0  0  0  0  0  0  0  0999 V2000
    2.2427    0.4287    0.8173 C   0  0  0  0  0  0  0  0  0  0  0  0
    1.5842   -0.1657   -0.3851 C   0  0  0  0  0  0  0  0  0  0  0  0
    0.0978   -0.0843   -0.2798 C   0  0  0  0  0  0  0  0  0  0  0  0
   -0.5417    0.4470    0.7476 C   0  0  0  0  0  0  0  0  0  0  0  0
   -2.0083    0.3703    0.5399 C   0  0  0  0  0  0  0  0  0  0  0  0
   -2.1044   -0.7238   -0.4489 C   0  0  0  0  0  0  0  0  0  0  0  0
   -2.9931   -1.5350   -0.5123 O   0  0  0  0  0  0  0  0  0  0  0  0
   -0.8995   -0.5836   -1.2995 C   0  0  0  0  0  0  0  0  0  0  0  0
    2.2892    1.5385    0.7288 H   0  0  0  0  0  0  0  0  0  0  0  0
    3.3200    0.1006    0.7915 H   0  0  0  0  0  0  0  0  0  0  0  0
    1.8154    0.0950    1.7709 H   0  0  0  0  0  0  0  0  0  0  0  0
    1.9520    0.3075   -1.3168 H   0  0  0  0  0  0  0  0  0  0  0  0
    1.8237   -1.2531   -0.4907 H   0  0  0  0  0  0  0  0  0  0  0  0
   -0.0600    0.8778    1.6186 H   0  0  0  0  0  0  0  0  0  0  0  0
   -2.5612    0.1670    1.4740 H   0  0  0  0  0  0  0  0  0  0  0  0
   -2.3393    1.3053    0.0431 H   0  0  0  0  0  0  0  0  0  0  0  0
   -1.0687    0.2238   -2.0581 H   0  0  0  0  0  0  0  0  0  0  0  0
   -0.5488   -1.5163   -1.7406 H   0  0  0  0  0  0  0  0  0  0  0  0
  1  2  1  0
  2  3  1  0
  3  4  2  0
  4  5  1  0
  5  6  1  0
  6  7  2  0
  6  8  1  0
  8  3  1  0
  1  9  1  0
  1 10  1  0
  1 11  1  0
  2 12  1  0
  2 13  1  0
  4 14  1  0
  5 15  1  0
  5 16  1  0
  8 17  1  0
  8 18  1  0
M  END
