
     RDKit          3D

 21 22  0  0  0  0  0  0  0  0999 V2000
    2.6586   -0.6069   -0.2791 C   0  0  0  0  0  0  0  0  0  0  0  0
    1.9186    0.6303    0.1670 C   0  0  0  0  0  0  0  0  0  0  0  0
    0.4511    0.4005    0.1959 C   0  0  0  0  0  0  0  0  0  0  0  0
   -0.4009    0.4840    1.2241 C   0  0  0  0  0  0  0  0  0  0  0  0
   -1.7005    0.1201    0.5949 C   0  0  0  0  0  0  0  0  0  0  0  0
   -2.8204    0.0928    1.2687 O   0  0  0  0  0  0  0  0  0  0  0  0
   -1.6048    0.9303   -0.7077 C   0  0  0  0  0  0  0  0  0  0  0  0
   -0.4065    0.0212   -0.9303 C   0  0  0  0  0  0  0  0  0  0  0  0
   -1.2800   -1.0592   -0.2772 C   0  0  0  0  0  0  0  0  0  0  0  0
    2.9536   -0.4909   -1.3556 H   0  0  0  0  0  0  0  0  0  0  0  0
    2.0646   -1.5318   -0.1803 H   0  0  0  0  0  0  0  0  0  0  0  0
    3.6196   -0.7191    0.2729 H   0  0  0  0  0  0  0  0  0  0  0  0
    2.1759    1.4646   -0.5466 H   0  0  0  0  0  0  0  0  0  0  0  0
    2.3204    0.9438    1.1406 H   0  0  0  0  0  0  0  0  0  0  0  0
   -0.2229    0.7462    2.2605 H   0  0  0  0  0  0  0  0  0  0  0  0
   -3.0839   -0.7610    1.6641 H   0  0  0  0  0  0  0  0  0  0  0  0
   -1.2909    1.9685   -0.5710 H   0  0  0  0  0  0  0  0  0  0  0  0
   -2.4769    0.7209   -1.3216 H   0  0  0  0  0  0  0  0  0  0  0  0
   -0.0427   -0.1410   -1.8986 H   0  0  0  0  0  0  0  0  0  0  0  0
   -2.1083   -1.3694   -0.9501 H   0  0  0  0  0  0  0  0  0  0  0  0
   -0.7239   -1.8439    0.2294 H   0  0  0  0  0  0  0  0  0  0  0  0
  1  2  1  0
  2  3  1  0
  3  4  2  0
  4  5  1  0
  5  6  1  0
  5  7  1  0
  7  8  1  0
  8  9  1  0
  8  3  1  0
  9  5  1  0
  1 10  1  0
  1 11  1  0
  1 12  1  0
  2 13  1  0
  2 14  1  0
  4 15  1  0
  6 16  1  0
  7 17  1  0
  7 18  1  0
  8 19  1  0
  9 20  1  0
  9 21  1  0
M  END
