
     RDKit          3D

 23 24  0  0  0  0  0  0  0  0999 V2000
    2.6620    0.8022   -0.2148 C   0  0  0  0  0  0  0  0  0  0  0  0
    1.8378   -0.4314   -0.6096 C   0  0  0  0  0  0  0  0  0  0  0  0
    0.7079   -0.5292    0.3544 C   0  0  0  0  0  0  0  0  0  0  0  0
   -0.1590    0.7091    0.3004 C   0  0  0  0  0  0  0  0  0  0  0  0
   -0.0543    1.5207    1.4287 O   0  0  0  0  0  0  0  0  0  0  0  0
   -1.4186   -0.0986    0.2134 C   0  0  0  0  0  0  0  0  0  0  0  0
   -2.4299    0.2641   -0.8214 C   0  0  0  0  0  0  0  0  0  0  0  0
   -1.5889   -1.3811    0.9177 C   0  0  0  0  0  0  0  0  0  0  0  0
   -0.4945   -1.3214   -0.0856 C   0  0  0  0  0  0  0  0  0  0  0  0
    3.0059    1.3631   -1.0868 H   0  0  0  0  0  0  0  0  0  0  0  0
    3.5135    0.4340    0.4056 H   0  0  0  0  0  0  0  0  0  0  0  0
    2.0733    1.4762    0.4417 H   0  0  0  0  0  0  0  0  0  0  0  0
    1.4746   -0.3125   -1.6507 H   0  0  0  0  0  0  0  0  0  0  0  0
    2.5032   -1.3288   -0.5733 H   0  0  0  0  0  0  0  0  0  0  0  0
    1.0454   -0.7129    1.3871 H   0  0  0  0  0  0  0  0  0  0  0  0
   -0.0231    1.2734   -0.6685 H   0  0  0  0  0  0  0  0  0  0  0  0
   -0.2092    2.4620    1.1036 H   0  0  0  0  0  0  0  0  0  0  0  0
   -3.3645    0.6117   -0.2906 H   0  0  0  0  0  0  0  0  0  0  0  0
   -2.0766    1.0262   -1.5464 H   0  0  0  0  0  0  0  0  0  0  0  0
   -2.7182   -0.6293   -1.4136 H   0  0  0  0  0  0  0  0  0  0  0  0
   -2.4782   -1.9618    0.6857 H   0  0  0  0  0  0  0  0  0  0  0  0
   -1.2264   -1.5180    1.9743 H   0  0  0  0  0  0  0  0  0  0  0  0
   -0.5821   -1.7177   -1.0944 H   0  0  0  0  0  0  0  0  0  0  0  0
  1  2  1  0
  2  3  1  0
  3  4  1  0
  4  5  1  0
  4  6  1  0
  6  7  1  0
  6  8  1  0
  8  9  1  0
  9  3  1  0
  9  6  1  0
  1 10  1  0
  1 11  1  0
  1 12  1  0
  2 13  1  0
  2 14  1  0
  3 15  1  0
  4 16  1  0
  5 17  1  0
  7 18  1  0
  7 19  1  0
  7 20  1  0
  8 21  1  0
  8 22  1  0
  9 23  1  0
M  END
