
     RDKit          3D

 23 23  0  0  0  0  0  0  0  0999 V2000
   -2.3176   -0.6944   -0.6925 C   0  0  0  0  0  0  0  0  0  0  0  0
   -1.3212   -0.6656    0.4359 C   0  0  0  0  0  0  0  0  0  0  0  0
   -0.0917    0.1381    0.1129 C   0  0  0  0  0  0  0  0  0  0  0  0
   -0.4314    1.5836   -0.1973 C   0  0  0  0  0  0  0  0  0  0  0  0
    0.7485    0.1729    1.3976 C   0  0  0  0  0  0  0  0  0  0  0  0
    1.9885    0.7466    1.1401 O   0  0  0  0  0  0  0  0  0  0  0  0
    2.6061   -0.0868    0.1781 C   0  0  0  0  0  0  0  0  0  0  0  0
    1.9822    0.0850   -1.0477 O   0  0  0  0  0  0  0  0  0  0  0  0
    0.6990   -0.4174   -1.0344 C   0  0  0  0  0  0  0  0  0  0  0  0
   -3.1575   -1.3459   -0.3629 H   0  0  0  0  0  0  0  0  0  0  0  0
   -1.9050   -1.0843   -1.6199 H   0  0  0  0  0  0  0  0  0  0  0  0
   -2.6647    0.3629   -0.8423 H   0  0  0  0  0  0  0  0  0  0  0  0
   -1.7962   -0.2347    1.3246 H   0  0  0  0  0  0  0  0  0  0  0  0
   -0.9804   -1.7004    0.6638 H   0  0  0  0  0  0  0  0  0  0  0  0
   -0.4404    1.7174   -1.3175 H   0  0  0  0  0  0  0  0  0  0  0  0
   -1.3683    1.9036    0.2634 H   0  0  0  0  0  0  0  0  0  0  0  0
    0.4201    2.2189    0.1480 H   0  0  0  0  0  0  0  0  0  0  0  0
    0.9003   -0.8788    1.7189 H   0  0  0  0  0  0  0  0  0  0  0  0
    0.1562    0.7551    2.1304 H   0  0  0  0  0  0  0  0  0  0  0  0
    2.3919   -1.1312    0.5397 H   0  0  0  0  0  0  0  0  0  0  0  0
    3.6802    0.1291    0.1282 H   0  0  0  0  0  0  0  0  0  0  0  0
    0.2032   -0.0522   -1.9801 H   0  0  0  0  0  0  0  0  0  0  0  0
    0.6981   -1.5215   -1.0868 H   0  0  0  0  0  0  0  0  0  0  0  0
  1  2  1  0
  2  3  1  0
  3  4  1  0
  3  5  1  0
  5  6  1  0
  6  7  1  0
  7  8  1  0
  8  9  1  0
  9  3  1  0
  1 10  1  0
  1 11  1  0
  1 12  1  0
  2 13  1  0
  2 14  1  0
  4 15  1  0
  4 16  1  0
  4 17  1  0
  5 18  1  0
  5 19  1  0
  7 20  1  0
  7 21  1  0
  9 22  1  0
  9 23  1  0
M  END
