
     RDKit          3D

 22 22  0  0  0  0  0  0  0  0999 V2000
   -2.8750   -0.5928    0.1112 C   0  0  0  0  0  0  0  0  0  0  0  0
   -1.7782   -0.3060   -0.8860 C   0  0  0  0  0  0  0  0  0  0  0  0
   -0.6807    0.4069   -0.1196 C   0  0  0  0  0  0  0  0  0  0  0  0
   -0.1963   -0.4708    0.9652 C   0  0  0  0  0  0  0  0  0  0  0  0
    1.1074   -0.2930    1.0927 C   0  0  0  0  0  0  0  0  0  0  0  0
    1.6083    0.7101    0.1123 C   0  0  0  0  0  0  0  0  0  0  0  0
    2.8576    0.1527   -0.5114 C   0  0  0  0  0  0  0  0  0  0  0  0
    0.5217    0.6809   -0.9499 C   0  0  0  0  0  0  0  0  0  0  0  0
   -3.8685   -0.6862   -0.3705 H   0  0  0  0  0  0  0  0  0  0  0  0
   -2.8491    0.2095    0.8741 H   0  0  0  0  0  0  0  0  0  0  0  0
   -2.5881   -1.5360    0.6451 H   0  0  0  0  0  0  0  0  0  0  0  0
   -1.3547   -1.2830   -1.2271 H   0  0  0  0  0  0  0  0  0  0  0  0
   -2.1265    0.2973   -1.7474 H   0  0  0  0  0  0  0  0  0  0  0  0
   -1.0680    1.3310    0.3668 H   0  0  0  0  0  0  0  0  0  0  0  0
   -0.8220   -1.1673    1.5763 H   0  0  0  0  0  0  0  0  0  0  0  0
    1.7157   -0.8288    1.8337 H   0  0  0  0  0  0  0  0  0  0  0  0
    1.7288    1.6994    0.5570 H   0  0  0  0  0  0  0  0  0  0  0  0
    3.7162    0.7390   -0.0964 H   0  0  0  0  0  0  0  0  0  0  0  0
    3.0057   -0.9339   -0.2919 H   0  0  0  0  0  0  0  0  0  0  0  0
    2.8204    0.2189   -1.6308 H   0  0  0  0  0  0  0  0  0  0  0  0
    0.4350    1.7144   -1.3725 H   0  0  0  0  0  0  0  0  0  0  0  0
    0.6904   -0.0624   -1.7259 H   0  0  0  0  0  0  0  0  0  0  0  0
  1  2  1  0
  2  3  1  0
  3  4  1  0
  4  5  2  0
  5  6  1  0
  6  7  1  0
  6  8  1  0
  8  3  1  0
  1  9  1  0
  1 10  1  0
  1 11  1  0
  2 12  1  0
  2 13  1  0
  3 14  1  0
  4 15  1  0
  5 16  1  0
  6 17  1  0
  7 18  1  0
  7 19  1  0
  7 20  1  0
  8 21  1  0
  8 22  1  0
M  END
