
     RDKit          3D

 19 19  0  0  0  0  0  0  0  0999 V2000
    2.0967   -0.0790   -0.0283 C   0  0  0  0  0  0  0  0  0  0  0  0
    0.8378    0.3057   -0.7141 C   0  0  0  0  0  0  0  0  0  0  0  0
   -0.4147   -0.2247   -0.0293 C   0  0  0  0  0  0  0  0  0  0  0  0
   -1.6320    0.0777   -0.5878 O   0  0  0  0  0  0  0  0  0  0  0  0
   -1.9017    1.4317   -0.6720 C   0  0  0  0  0  0  0  0  0  0  0  0
   -0.3705   -0.5860    1.4037 C   0  0  0  0  0  0  0  0  0  0  0  0
   -0.3040   -1.6954    0.3869 C   0  0  0  0  0  0  0  0  0  0  0  0
    2.0344   -0.8676    0.7184 H   0  0  0  0  0  0  0  0  0  0  0  0
    2.6124    0.7999    0.4521 H   0  0  0  0  0  0  0  0  0  0  0  0
    2.8421   -0.4364   -0.7985 H   0  0  0  0  0  0  0  0  0  0  0  0
    0.8097    1.4250   -0.7704 H   0  0  0  0  0  0  0  0  0  0  0  0
    0.8571   -0.0258   -1.7860 H   0  0  0  0  0  0  0  0  0  0  0  0
   -2.9076    1.5343   -1.1380 H   0  0  0  0  0  0  0  0  0  0  0  0
   -1.1985    1.9642   -1.3406 H   0  0  0  0  0  0  0  0  0  0  0  0
   -1.9738    1.9238    0.3226 H   0  0  0  0  0  0  0  0  0  0  0  0
   -1.3201   -0.4750    2.0054 H   0  0  0  0  0  0  0  0  0  0  0  0
    0.5177   -0.5058    2.0280 H   0  0  0  0  0  0  0  0  0  0  0  0
   -1.2089   -2.3285    0.3542 H   0  0  0  0  0  0  0  0  0  0  0  0
    0.6240   -2.2380    0.1935 H   0  0  0  0  0  0  0  0  0  0  0  0
  1  2  1  0
  2  3  1  0
  3  4  1  0
  4  5  1  0
  3  6  1  0
  6  7  1  0
  7  3  1  0
  1  8  1  0
  1  9  1  0
  1 10  1  0
  2 11  1  0
  2 12  1  0
  5 13  1  0
  5 14  1  0
  5 15  1  0
  6 16  1  0
  6 17  1  0
  7 18  1  0
  7 19  1  0
M  END
