
     RDKit          3D

 21 22  0  0  0  0  0  0  0  0999 V2000
    2.7840    0.2149    0.8071 C   0  0  0  0  0  0  0  0  0  0  0  0
    1.9291   -0.0797   -0.3802 C   0  0  0  0  0  0  0  0  0  0  0  0
    0.4817    0.3099   -0.1804 C   0  0  0  0  0  0  0  0  0  0  0  0
   -0.3938    0.0148   -1.3800 C   0  0  0  0  0  0  0  0  0  0  0  0
   -1.5849    0.6864   -1.5180 O   0  0  0  0  0  0  0  0  0  0  0  0
   -2.1983    0.7622   -0.2897 C   0  0  0  0  0  0  0  0  0  0  0  0
   -1.9109   -0.6054    0.2983 C   0  0  0  0  0  0  0  0  0  0  0  0
   -2.0960   -0.6597    1.6562 O   0  0  0  0  0  0  0  0  0  0  0  0
   -0.4744   -0.8206   -0.1263 C   0  0  0  0  0  0  0  0  0  0  0  0
    2.3077    0.8591    1.5636 H   0  0  0  0  0  0  0  0  0  0  0  0
    3.1516   -0.6925    1.3325 H   0  0  0  0  0  0  0  0  0  0  0  0
    3.7133    0.7591    0.4843 H   0  0  0  0  0  0  0  0  0  0  0  0
    2.3432    0.4108   -1.2877 H   0  0  0  0  0  0  0  0  0  0  0  0
    2.0271   -1.1859   -0.5862 H   0  0  0  0  0  0  0  0  0  0  0  0
    0.3068    1.2351    0.3840 H   0  0  0  0  0  0  0  0  0  0  0  0
    0.0271   -0.5283   -2.2430 H   0  0  0  0  0  0  0  0  0  0  0  0
   -1.7155    1.5573    0.3049 H   0  0  0  0  0  0  0  0  0  0  0  0
   -3.2806    0.9508   -0.4232 H   0  0  0  0  0  0  0  0  0  0  0  0
   -2.5492   -1.3301   -0.2701 H   0  0  0  0  0  0  0  0  0  0  0  0
   -2.7653    0.0009    1.9832 H   0  0  0  0  0  0  0  0  0  0  0  0
   -0.1025   -1.8590   -0.1292 H   0  0  0  0  0  0  0  0  0  0  0  0
  1  2  1  0
  2  3  1  0
  3  4  1  0
  4  5  1  0
  5  6  1  0
  6  7  1  0
  7  8  1  0
  7  9  1  0
  9  3  1  0
  9  4  1  0
  1 10  1  0
  1 11  1  0
  1 12  1  0
  2 13  1  0
  2 14  1  0
  3 15  1  0
  4 16  1  0
  6 17  1  0
  6 18  1  0
  7 19  1  0
  8 20  1  0
  9 21  1  0
M  END
