
     RDKit          3D

 21 22  0  0  0  0  0  0  0  0999 V2000
   -2.5922   -0.4922    0.4664 C   0  0  0  0  0  0  0  0  0  0  0  0
   -1.5947    0.0492   -0.5260 C   0  0  0  0  0  0  0  0  0  0  0  0
   -0.1905   -0.1767   -0.1074 C   0  0  0  0  0  0  0  0  0  0  0  0
    0.7712    0.7180    0.1281 C   0  0  0  0  0  0  0  0  0  0  0  0
    0.7670    2.1997    0.0652 C   0  0  0  0  0  0  0  0  0  0  0  0
    1.9138   -0.1766    0.4895 C   0  0  0  0  0  0  0  0  0  0  0  0
    1.8323   -1.2088   -0.6111 C   0  0  0  0  0  0  0  0  0  0  0  0
    0.5505   -1.4536    0.1702 C   0  0  0  0  0  0  0  0  0  0  0  0
    1.2876   -1.1256    1.3037 O   0  0  0  0  0  0  0  0  0  0  0  0
   -2.2652   -0.4039    1.5039 H   0  0  0  0  0  0  0  0  0  0  0  0
   -2.8396   -1.5563    0.1904 H   0  0  0  0  0  0  0  0  0  0  0  0
   -3.5452    0.0683    0.3373 H   0  0  0  0  0  0  0  0  0  0  0  0
   -1.7695    1.1218   -0.6248 H   0  0  0  0  0  0  0  0  0  0  0  0
   -1.7620   -0.4265   -1.5244 H   0  0  0  0  0  0  0  0  0  0  0  0
    1.4559    2.6269    0.8208 H   0  0  0  0  0  0  0  0  0  0  0  0
   -0.2667    2.5806    0.1464 H   0  0  0  0  0  0  0  0  0  0  0  0
    1.1483    2.5753   -0.9237 H   0  0  0  0  0  0  0  0  0  0  0  0
    2.8393    0.2363    0.7692 H   0  0  0  0  0  0  0  0  0  0  0  0
    1.6486   -0.7636   -1.6076 H   0  0  0  0  0  0  0  0  0  0  0  0
    2.5573   -2.0184   -0.5551 H   0  0  0  0  0  0  0  0  0  0  0  0
    0.0539   -2.3739    0.0891 H   0  0  0  0  0  0  0  0  0  0  0  0
  1  2  1  0
  2  3  1  0
  3  4  2  0
  4  5  1  0
  4  6  1  0
  6  7  1  0
  7  8  1  0
  8  9  1  0
  8  3  1  0
  9  6  1  0
  1 10  1  0
  1 11  1  0
  1 12  1  0
  2 13  1  0
  2 14  1  0
  5 15  1  0
  5 16  1  0
  5 17  1  0
  6 18  1  0
  7 19  1  0
  7 20  1  0
  8 21  1  0
M  END
