
     RDKit          3D

 23 24  0  0  0  0  0  0  0  0999 V2000
    2.7178   -0.1765    0.3321 C   0  0  0  0  0  0  0  0  0  0  0  0
    1.7067    0.7038   -0.3671 C   0  0  0  0  0  0  0  0  0  0  0  0
    0.4611   -0.0462   -0.7550 C   0  0  0  0  0  0  0  0  0  0  0  0
   -0.3983    0.8399   -1.3850 O   0  0  0  0  0  0  0  0  0  0  0  0
   -1.1163    1.5165   -0.4332 C   0  0  0  0  0  0  0  0  0  0  0  0
   -2.2133    0.5657    0.0582 C   0  0  0  0  0  0  0  0  0  0  0  0
   -1.5204   -0.6009    0.6918 C   0  0  0  0  0  0  0  0  0  0  0  0
   -1.2137   -1.8218   -0.0995 C   0  0  0  0  0  0  0  0  0  0  0  0
   -0.1402   -0.8204    0.3530 C   0  0  0  0  0  0  0  0  0  0  0  0
    3.7137    0.3495    0.2557 H   0  0  0  0  0  0  0  0  0  0  0  0
    2.5120   -0.2518    1.4228 H   0  0  0  0  0  0  0  0  0  0  0  0
    2.8221   -1.1701   -0.1169 H   0  0  0  0  0  0  0  0  0  0  0  0
    1.5088    1.5502    0.3162 H   0  0  0  0  0  0  0  0  0  0  0  0
    2.1632    1.1186   -1.2903 H   0  0  0  0  0  0  0  0  0  0  0  0
    0.7786   -0.7820   -1.5513 H   0  0  0  0  0  0  0  0  0  0  0  0
   -0.5150    1.7603    0.4600 H   0  0  0  0  0  0  0  0  0  0  0  0
   -1.6147    2.4420   -0.8255 H   0  0  0  0  0  0  0  0  0  0  0  0
   -2.8197    1.1323    0.8026 H   0  0  0  0  0  0  0  0  0  0  0  0
   -2.8434    0.2710   -0.8129 H   0  0  0  0  0  0  0  0  0  0  0  0
   -1.8338   -0.8099    1.7525 H   0  0  0  0  0  0  0  0  0  0  0  0
   -1.1705   -2.8183    0.4040 H   0  0  0  0  0  0  0  0  0  0  0  0
   -1.5415   -1.7958   -1.1513 H   0  0  0  0  0  0  0  0  0  0  0  0
    0.5571   -1.1562    1.1424 H   0  0  0  0  0  0  0  0  0  0  0  0
  1  2  1  0
  2  3  1  0
  3  4  1  0
  4  5  1  0
  5  6  1  0
  6  7  1  0
  7  8  1  0
  8  9  1  0
  9  3  1  0
  9  7  1  0
  1 10  1  0
  1 11  1  0
  1 12  1  0
  2 13  1  0
  2 14  1  0
  3 15  1  0
  5 16  1  0
  5 17  1  0
  6 18  1  0
  6 19  1  0
  7 20  1  0
  8 21  1  0
  8 22  1  0
  9 23  1  0
M  END
