
     RDKit          3D

 21 22  0  0  0  0  0  0  0  0999 V2000
   -3.3356    0.2765   -0.0762 C   0  0  0  0  0  0  0  0  0  0  0  0
   -2.3576   -0.8550    0.1278 C   0  0  0  0  0  0  0  0  0  0  0  0
   -1.0140   -0.3278    0.5934 C   0  0  0  0  0  0  0  0  0  0  0  0
   -0.0816   -1.4420    0.7847 O   0  0  0  0  0  0  0  0  0  0  0  0
    0.1849   -0.4801   -0.2728 C   0  0  0  0  0  0  0  0  0  0  0  0
    1.3863    0.3544    0.0926 C   0  0  0  0  0  0  0  0  0  0  0  0
    2.7241   -0.3033   -0.1278 C   0  0  0  0  0  0  0  0  0  0  0  0
    3.0689    1.1383   -0.3957 C   0  0  0  0  0  0  0  0  0  0  0  0
    1.7491    1.3096   -0.8278 O   0  0  0  0  0  0  0  0  0  0  0  0
   -4.3738   -0.0377    0.2111 H   0  0  0  0  0  0  0  0  0  0  0  0
   -3.3767    0.5669   -1.1476 H   0  0  0  0  0  0  0  0  0  0  0  0
   -3.0159    1.1833    0.4914 H   0  0  0  0  0  0  0  0  0  0  0  0
   -2.7836   -1.5705    0.8878 H   0  0  0  0  0  0  0  0  0  0  0  0
   -2.1872   -1.4369   -0.7957 H   0  0  0  0  0  0  0  0  0  0  0  0
   -0.9691    0.4119    1.3881 H   0  0  0  0  0  0  0  0  0  0  0  0
    0.1187   -0.9386   -1.2597 H   0  0  0  0  0  0  0  0  0  0  0  0
    1.2947    0.7903    1.0986 H   0  0  0  0  0  0  0  0  0  0  0  0
    2.8046   -0.9602   -0.9962 H   0  0  0  0  0  0  0  0  0  0  0  0
    3.1010   -0.7100    0.8320 H   0  0  0  0  0  0  0  0  0  0  0  0
    3.8433    1.3148   -1.1603 H   0  0  0  0  0  0  0  0  0  0  0  0
    3.2196    1.7162    0.5521 H   0  0  0  0  0  0  0  0  0  0  0  0
  1  2  1  0
  2  3  1  0
  3  4  1  0
  4  5  1  0
  5  6  1  0
  6  7  1  0
  7  8  1  0
  8  9  1  0
  5  3  1  0
  9  6  1  0
  1 10  1  0
  1 11  1  0
  1 12  1  0
  2 13  1  0
  2 14  1  0
  3 15  1  0
  5 16  1  0
  6 17  1  0
  7 18  1  0
  7 19  1  0
  8 20  1  0
  8 21  1  0
M  END
