
     RDKit          3D

 23 24  0  0  0  0  0  0  0  0999 V2000
    2.7366   -1.1805   -0.0307 C   0  0  0  0  0  0  0  0  0  0  0  0
    1.3250   -0.9643   -0.5670 C   0  0  0  0  0  0  0  0  0  0  0  0
    0.8532    0.4359   -0.1928 C   0  0  0  0  0  0  0  0  0  0  0  0
   -0.5039    0.8019   -0.6424 C   0  0  0  0  0  0  0  0  0  0  0  0
   -1.7311    0.0888   -0.2012 C   0  0  0  0  0  0  0  0  0  0  0  0
   -2.2781   -0.9683   -1.1125 C   0  0  0  0  0  0  0  0  0  0  0  0
   -1.1124   -0.4570    0.9160 O   0  0  0  0  0  0  0  0  0  0  0  0
   -0.1729    0.5609    0.8355 C   0  0  0  0  0  0  0  0  0  0  0  0
   -0.3341    1.7331    1.7301 C   0  0  0  0  0  0  0  0  0  0  0  0
    2.7612   -1.2378    1.0674 H   0  0  0  0  0  0  0  0  0  0  0  0
    3.2040   -2.0581   -0.4737 H   0  0  0  0  0  0  0  0  0  0  0  0
    3.3340   -0.2883   -0.3478 H   0  0  0  0  0  0  0  0  0  0  0  0
    0.6327   -1.7479   -0.2060 H   0  0  0  0  0  0  0  0  0  0  0  0
    1.4199   -0.9992   -1.6782 H   0  0  0  0  0  0  0  0  0  0  0  0
    1.6508    1.1893   -0.2685 H   0  0  0  0  0  0  0  0  0  0  0  0
   -0.6415    1.8675   -0.9666 H   0  0  0  0  0  0  0  0  0  0  0  0
   -2.5225    0.7892    0.0998 H   0  0  0  0  0  0  0  0  0  0  0  0
   -2.6072   -0.5335   -2.0783 H   0  0  0  0  0  0  0  0  0  0  0  0
   -3.2032   -1.3716   -0.6173 H   0  0  0  0  0  0  0  0  0  0  0  0
   -1.5437   -1.7861   -1.2297 H   0  0  0  0  0  0  0  0  0  0  0  0
    0.0540    2.6844    1.3402 H   0  0  0  0  0  0  0  0  0  0  0  0
    0.1121    1.5545    2.7238 H   0  0  0  0  0  0  0  0  0  0  0  0
   -1.4331    1.8873    1.8999 H   0  0  0  0  0  0  0  0  0  0  0  0
  1  2  1  0
  2  3  1  0
  3  4  1  0
  4  5  1  0
  5  6  1  0
  5  7  1  0
  7  8  1  0
  8  9  1  0
  8  3  1  0
  8  4  1  0
  1 10  1  0
  1 11  1  0
  1 12  1  0
  2 13  1  0
  2 14  1  0
  3 15  1  0
  4 16  1  0
  5 17  1  0
  6 18  1  0
  6 19  1  0
  6 20  1  0
  9 21  1  0
  9 22  1  0
  9 23  1  0
M  END
