
     RDKit          3D

 22 23  0  0  0  0  0  0  0  0999 V2000
    1.8223   -1.1062   -0.3760 C   0  0  0  0  0  0  0  0  0  0  0  0
    1.5067    0.3446   -0.2347 C   0  0  0  0  0  0  0  0  0  0  0  0
    0.0306    0.6095   -0.0668 C   0  0  0  0  0  0  0  0  0  0  0  0
   -0.2874    2.0977    0.0789 C   0  0  0  0  0  0  0  0  0  0  0  0
   -0.8838    0.0084   -1.0818 C   0  0  0  0  0  0  0  0  0  0  0  0
   -1.7264   -0.5214    0.0756 C   0  0  0  0  0  0  0  0  0  0  0  0
   -1.0642   -1.5576    0.8904 C   0  0  0  0  0  0  0  0  0  0  0  0
   -0.5923   -0.1784    1.0236 C   0  0  0  0  0  0  0  0  0  0  0  0
    2.9187   -1.1793   -0.6273 H   0  0  0  0  0  0  0  0  0  0  0  0
    1.7505   -1.6143    0.6300 H   0  0  0  0  0  0  0  0  0  0  0  0
    1.2964   -1.6376   -1.1666 H   0  0  0  0  0  0  0  0  0  0  0  0
    1.9366    0.8870   -1.0906 H   0  0  0  0  0  0  0  0  0  0  0  0
    2.0079    0.7153    0.6832 H   0  0  0  0  0  0  0  0  0  0  0  0
   -0.0051    2.6197   -0.8465 H   0  0  0  0  0  0  0  0  0  0  0  0
   -1.3879    2.1560    0.2200 H   0  0  0  0  0  0  0  0  0  0  0  0
    0.2388    2.4947    0.9842 H   0  0  0  0  0  0  0  0  0  0  0  0
   -0.4730   -0.7918   -1.7114 H   0  0  0  0  0  0  0  0  0  0  0  0
   -1.4995    0.7458   -1.6736 H   0  0  0  0  0  0  0  0  0  0  0  0
   -2.7225   -0.1333    0.2533 H   0  0  0  0  0  0  0  0  0  0  0  0
   -0.5132   -2.3348    0.2983 H   0  0  0  0  0  0  0  0  0  0  0  0
   -1.5456   -1.9971    1.7834 H   0  0  0  0  0  0  0  0  0  0  0  0
   -0.8072    0.3730    1.9545 H   0  0  0  0  0  0  0  0  0  0  0  0
  1  2  1  0
  2  3  1  0
  3  4  1  0
  3  5  1  0
  5  6  1  0
  6  7  1  0
  7  8  1  0
  8  3  1  0
  8  6  1  0
  1  9  1  0
  1 10  1  0
  1 11  1  0
  2 12  1  0
  2 13  1  0
  4 14  1  0
  4 15  1  0
  4 16  1  0
  5 17  1  0
  5 18  1  0
  6 19  1  0
  7 20  1  0
  7 21  1  0
  8 22  1  0
M  END
