
     RDKit          3D

 20 21  0  0  0  0  0  0  0  0999 V2000
    2.6395    0.6446    0.1075 C   0  0  0  0  0  0  0  0  0  0  0  0
    1.8574   -0.6256   -0.0602 C   0  0  0  0  0  0  0  0  0  0  0  0
    0.4418   -0.3928   -0.5321 C   0  0  0  0  0  0  0  0  0  0  0  0
   -0.4583    0.4205    0.2952 C   0  0  0  0  0  0  0  0  0  0  0  0
   -1.7449    0.9290   -0.3571 C   0  0  0  0  0  0  0  0  0  0  0  0
   -2.6772   -0.2165    0.0655 C   0  0  0  0  0  0  0  0  0  0  0  0
   -1.8839   -1.3065   -0.3589 O   0  0  0  0  0  0  0  0  0  0  0  0
   -0.6512   -1.0831    0.1977 C   0  0  0  0  0  0  0  0  0  0  0  0
    2.0002    1.5441    0.1727 H   0  0  0  0  0  0  0  0  0  0  0  0
    3.3899    0.7964   -0.6956 H   0  0  0  0  0  0  0  0  0  0  0  0
    3.2081    0.5913    1.0812 H   0  0  0  0  0  0  0  0  0  0  0  0
    2.3813   -1.2426   -0.8412 H   0  0  0  0  0  0  0  0  0  0  0  0
    1.8272   -1.1938    0.8948 H   0  0  0  0  0  0  0  0  0  0  0  0
    0.3325   -0.2859   -1.6329 H   0  0  0  0  0  0  0  0  0  0  0  0
   -0.2279    0.7633    1.3084 H   0  0  0  0  0  0  0  0  0  0  0  0
   -2.0667    1.8913    0.0339 H   0  0  0  0  0  0  0  0  0  0  0  0
   -1.6534    0.8656   -1.4503 H   0  0  0  0  0  0  0  0  0  0  0  0
   -3.6404   -0.1747   -0.4274 H   0  0  0  0  0  0  0  0  0  0  0  0
   -2.6892   -0.2028    1.1597 H   0  0  0  0  0  0  0  0  0  0  0  0
   -0.3847   -1.7218    1.0391 H   0  0  0  0  0  0  0  0  0  0  0  0
  1  2  1  0
  2  3  1  0
  3  4  1  0
  4  5  1  0
  5  6  1  0
  6  7  1  0
  7  8  1  0
  8  3  1  0
  8  4  1  0
  1  9  1  0
  1 10  1  0
  1 11  1  0
  2 12  1  0
  2 13  1  0
  3 14  1  0
  4 15  1  0
  5 16  1  0
  5 17  1  0
  6 18  1  0
  6 19  1  0
  8 20  1  0
M  END
