
     RDKit          3D

 23 24  0  0  0  0  0  0  0  0999 V2000
    2.0470    0.9738    0.4663 C   0  0  0  0  0  0  0  0  0  0  0  0
    1.8870   -0.5129    0.6448 C   0  0  0  0  0  0  0  0  0  0  0  0
    0.5517   -1.0185    0.1678 C   0  0  0  0  0  0  0  0  0  0  0  0
    0.4814   -2.4022    0.3674 O   0  0  0  0  0  0  0  0  0  0  0  0
    0.2202   -0.7045   -1.2654 C   0  0  0  0  0  0  0  0  0  0  0  0
   -1.1928   -0.3746   -0.7883 C   0  0  0  0  0  0  0  0  0  0  0  0
   -1.2753    0.8403    0.0397 C   0  0  0  0  0  0  0  0  0  0  0  0
   -2.6348    1.2609    0.5383 C   0  0  0  0  0  0  0  0  0  0  0  0
   -0.6481   -0.3108    0.6754 C   0  0  0  0  0  0  0  0  0  0  0  0
    3.0100    1.2611    0.9457 H   0  0  0  0  0  0  0  0  0  0  0  0
    1.2642    1.5484    1.0329 H   0  0  0  0  0  0  0  0  0  0  0  0
    2.0964    1.3027   -0.5714 H   0  0  0  0  0  0  0  0  0  0  0  0
    1.9720   -0.7371    1.7271 H   0  0  0  0  0  0  0  0  0  0  0  0
    2.7338   -0.9946    0.1200 H   0  0  0  0  0  0  0  0  0  0  0  0
    1.3751   -2.8280    0.2033 H   0  0  0  0  0  0  0  0  0  0  0  0
    0.2865   -1.5491   -1.9665 H   0  0  0  0  0  0  0  0  0  0  0  0
    0.6989    0.2343   -1.6035 H   0  0  0  0  0  0  0  0  0  0  0  0
   -2.0024   -1.0761   -0.9486 H   0  0  0  0  0  0  0  0  0  0  0  0
   -0.6840    1.7162   -0.3578 H   0  0  0  0  0  0  0  0  0  0  0  0
   -3.0785    0.5172    1.2162 H   0  0  0  0  0  0  0  0  0  0  0  0
   -2.5591    2.2089    1.1186 H   0  0  0  0  0  0  0  0  0  0  0  0
   -3.3041    1.5029   -0.3257 H   0  0  0  0  0  0  0  0  0  0  0  0
   -1.2451   -0.8586    1.4343 H   0  0  0  0  0  0  0  0  0  0  0  0
  1  2  1  0
  2  3  1  0
  3  4  1  0
  3  5  1  0
  5  6  1  0
  6  7  1  0
  7  8  1  0
  7  9  1  0
  9  3  1  0
  9  6  1  0
  1 10  1  0
  1 11  1  0
  1 12  1  0
  2 13  1  0
  2 14  1  0
  4 15  1  0
  5 16  1  0
  5 17  1  0
  6 18  1  0
  7 19  1  0
  8 20  1  0
  8 21  1  0
  8 22  1  0
  9 23  1  0
M  END
