
     RDKit          3D

 17 18  0  0  0  0  0  0  0  0999 V2000
    2.2597    0.4078    0.6416 C   0  0  0  0  0  0  0  0  0  0  0  0
    1.4250   -0.4966   -0.2566 C   0  0  0  0  0  0  0  0  0  0  0  0
    0.0102   -0.3042    0.1065 C   0  0  0  0  0  0  0  0  0  0  0  0
   -0.9063   -1.1920    0.5652 C   0  0  0  0  0  0  0  0  0  0  0  0
   -2.0911   -0.3169    0.7143 C   0  0  0  0  0  0  0  0  0  0  0  0
   -1.5297    0.8206    1.3005 O   0  0  0  0  0  0  0  0  0  0  0  0
   -0.8384    0.9438    0.0740 C   0  0  0  0  0  0  0  0  0  0  0  0
   -2.0610    0.4699   -0.5694 C   0  0  0  0  0  0  0  0  0  0  0  0
   -2.7465    0.5791   -1.5585 O   0  0  0  0  0  0  0  0  0  0  0  0
    3.2987    0.0663    0.7015 H   0  0  0  0  0  0  0  0  0  0  0  0
    1.7602    0.4119    1.6346 H   0  0  0  0  0  0  0  0  0  0  0  0
    2.2421    1.4249    0.1976 H   0  0  0  0  0  0  0  0  0  0  0  0
    1.6508   -0.1839   -1.3010 H   0  0  0  0  0  0  0  0  0  0  0  0
    1.6762   -1.5491   -0.1421 H   0  0  0  0  0  0  0  0  0  0  0  0
   -0.7563   -2.2476    0.7537 H   0  0  0  0  0  0  0  0  0  0  0  0
   -3.0098   -0.6942    1.0581 H   0  0  0  0  0  0  0  0  0  0  0  0
   -0.3839    1.8602   -0.1650 H   0  0  0  0  0  0  0  0  0  0  0  0
  1  2  1  0
  2  3  1  0
  3  4  2  0
  4  5  1  0
  5  6  1  0
  6  7  1  0
  7  8  1  0
  8  9  2  0
  7  3  1  0
  8  5  1  0
  1 10  1  0
  1 11  1  0
  1 12  1  0
  2 13  1  0
  2 14  1  0
  4 15  1  0
  5 16  1  0
  7 17  1  0
M  END
