
     RDKit          3D

 21 21  0  0  0  0  0  0  0  0999 V2000
   -1.6882    0.7971   -0.6982 C   0  0  0  0  0  0  0  0  0  0  0  0
   -1.0000   -0.4826   -0.9728 C   0  0  0  0  0  0  0  0  0  0  0  0
   -0.0768   -1.0251    0.0372 C   0  0  0  0  0  0  0  0  0  0  0  0
   -0.6998   -1.3135    1.3835 C   0  0  0  0  0  0  0  0  0  0  0  0
   -0.3194   -0.0331    1.7695 O   0  0  0  0  0  0  0  0  0  0  0  0
    0.7468   -0.1593    0.8933 C   0  0  0  0  0  0  0  0  0  0  0  0
    1.3150    1.1118    0.3594 C   0  0  0  0  0  0  0  0  0  0  0  0
    2.2064    0.8711   -0.7982 C   0  0  0  0  0  0  0  0  0  0  0  0
    2.4033   -0.2797   -1.2111 O   0  0  0  0  0  0  0  0  0  0  0  0
   -1.7613    1.0843    0.3696 H   0  0  0  0  0  0  0  0  0  0  0  0
   -1.3299    1.6409   -1.3303 H   0  0  0  0  0  0  0  0  0  0  0  0
   -2.7708    0.6885   -1.0158 H   0  0  0  0  0  0  0  0  0  0  0  0
   -1.7938   -1.2756   -1.1341 H   0  0  0  0  0  0  0  0  0  0  0  0
   -0.4796   -0.3634   -1.9702 H   0  0  0  0  0  0  0  0  0  0  0  0
    0.4070   -1.9570   -0.3508 H   0  0  0  0  0  0  0  0  0  0  0  0
   -1.7887   -1.4850    1.3168 H   0  0  0  0  0  0  0  0  0  0  0  0
   -0.1392   -2.0796    1.9731 H   0  0  0  0  0  0  0  0  0  0  0  0
    1.5364   -0.7700    1.4094 H   0  0  0  0  0  0  0  0  0  0  0  0
    0.5544    1.8517    0.1107 H   0  0  0  0  0  0  0  0  0  0  0  0
    1.9667    1.5290    1.1827 H   0  0  0  0  0  0  0  0  0  0  0  0
    2.7117    1.6496   -1.3235 H   0  0  0  0  0  0  0  0  0  0  0  0
  1  2  1  0
  2  3  1  0
  3  4  1  0
  4  5  1  0
  5  6  1  0
  6  7  1  0
  7  8  1  0
  8  9  2  0
  6  3  1  0
  1 10  1  0
  1 11  1  0
  1 12  1  0
  2 13  1  0
  2 14  1  0
  3 15  1  0
  4 16  1  0
  4 17  1  0
  6 18  1  0
  7 19  1  0
  7 20  1  0
  8 21  1  0
M  END
