
     RDKit          3D

 21 22  0  0  0  0  0  0  0  0999 V2000
    2.4478   -0.5624    0.1264 C   0  0  0  0  0  0  0  0  0  0  0  0
    1.3677    0.2518   -0.5690 C   0  0  0  0  0  0  0  0  0  0  0  0
    0.2042    0.3590    0.3833 C   0  0  0  0  0  0  0  0  0  0  0  0
   -0.3481   -0.9791    0.7518 C   0  0  0  0  0  0  0  0  0  0  0  0
   -0.0592   -2.0273   -0.1144 O   0  0  0  0  0  0  0  0  0  0  0  0
   -1.7431   -0.4538    0.4463 C   0  0  0  0  0  0  0  0  0  0  0  0
   -1.1106    0.7298   -0.2021 C   0  0  0  0  0  0  0  0  0  0  0  0
   -1.6292    1.9914   -0.4347 C   0  0  0  0  0  0  0  0  0  0  0  0
   -1.2812    1.0271   -1.5220 O   0  0  0  0  0  0  0  0  0  0  0  0
    2.9946    0.1589    0.7946 H   0  0  0  0  0  0  0  0  0  0  0  0
    3.1268   -1.0529   -0.5896 H   0  0  0  0  0  0  0  0  0  0  0  0
    1.9452   -1.2688    0.8187 H   0  0  0  0  0  0  0  0  0  0  0  0
    1.0530   -0.3269   -1.4783 H   0  0  0  0  0  0  0  0  0  0  0  0
    1.7895    1.2372   -0.8384 H   0  0  0  0  0  0  0  0  0  0  0  0
    0.4440    0.9863    1.2599 H   0  0  0  0  0  0  0  0  0  0  0  0
   -0.1476   -1.2309    1.7906 H   0  0  0  0  0  0  0  0  0  0  0  0
   -0.8010   -2.6816   -0.0216 H   0  0  0  0  0  0  0  0  0  0  0  0
   -2.3456   -1.1071   -0.2180 H   0  0  0  0  0  0  0  0  0  0  0  0
   -2.2330   -0.1797    1.4100 H   0  0  0  0  0  0  0  0  0  0  0  0
   -2.7037    2.2326   -0.4278 H   0  0  0  0  0  0  0  0  0  0  0  0
   -0.9706    2.8964   -0.4676 H   0  0  0  0  0  0  0  0  0  0  0  0
  1  2  1  0
  2  3  1  0
  3  4  1  0
  4  5  1  0
  4  6  1  0
  6  7  1  0
  7  8  1  0
  8  9  1  0
  7  3  1  0
  9  7  1  0
  1 10  1  0
  1 11  1  0
  1 12  1  0
  2 13  1  0
  2 14  1  0
  3 15  1  0
  4 16  1  0
  5 17  1  0
  6 18  1  0
  6 19  1  0
  8 20  1  0
  8 21  1  0
M  END
