
     RDKit          3D

 21 23  0  0  0  0  0  0  0  0999 V2000
    2.0509    0.1921   -0.9305 C   0  0  0  0  0  0  0  0  0  0  0  0
    1.2694    0.7717    0.2122 C   0  0  0  0  0  0  0  0  0  0  0  0
    0.0982   -0.1071    0.6010 C   0  0  0  0  0  0  0  0  0  0  0  0
    0.3115   -1.4895    1.0489 C   0  0  0  0  0  0  0  0  0  0  0  0
   -0.1744   -1.3348   -0.3243 C   0  0  0  0  0  0  0  0  0  0  0  0
   -1.6332   -0.8696   -0.4397 C   0  0  0  0  0  0  0  0  0  0  0  0
   -1.2360    0.3941    0.1952 C   0  0  0  0  0  0  0  0  0  0  0  0
   -1.8874    1.5453    0.4929 C   0  0  0  0  0  0  0  0  0  0  0  0
   -1.2365    1.5076   -0.7652 O   0  0  0  0  0  0  0  0  0  0  0  0
    2.4323   -0.8262   -0.7237 H   0  0  0  0  0  0  0  0  0  0  0  0
    2.9664    0.8370   -1.0471 H   0  0  0  0  0  0  0  0  0  0  0  0
    1.4543    0.2839   -1.8374 H   0  0  0  0  0  0  0  0  0  0  0  0
    0.9132    1.7732   -0.0989 H   0  0  0  0  0  0  0  0  0  0  0  0
    1.8814    0.9116    1.1138 H   0  0  0  0  0  0  0  0  0  0  0  0
   -0.3800   -1.9431    1.8120 H   0  0  0  0  0  0  0  0  0  0  0  0
    1.3585   -1.8137    1.2168 H   0  0  0  0  0  0  0  0  0  0  0  0
    0.4414   -1.3734   -1.2144 H   0  0  0  0  0  0  0  0  0  0  0  0
   -1.9210   -0.8715   -1.5023 H   0  0  0  0  0  0  0  0  0  0  0  0
   -2.2445   -1.5630    0.1976 H   0  0  0  0  0  0  0  0  0  0  0  0
   -1.4582    2.3276    1.1526 H   0  0  0  0  0  0  0  0  0  0  0  0
   -3.0063    1.6477    0.4305 H   0  0  0  0  0  0  0  0  0  0  0  0
  1  2  1  0
  2  3  1  0
  3  4  1  0
  4  5  1  0
  5  6  1  0
  6  7  1  0
  7  8  1  0
  8  9  1  0
  5  3  1  0
  9  7  1  0
  7  3  1  0
  1 10  1  0
  1 11  1  0
  1 12  1  0
  2 13  1  0
  2 14  1  0
  4 15  1  0
  4 16  1  0
  5 17  1  0
  6 18  1  0
  6 19  1  0
  8 20  1  0
  8 21  1  0
M  END
