
     RDKit          3D

 23 24  0  0  0  0  0  0  0  0999 V2000
    3.2149    0.0477   -0.3085 C   0  0  0  0  0  0  0  0  0  0  0  0
    1.8860   -0.5270   -0.7481 C   0  0  0  0  0  0  0  0  0  0  0  0
    0.7333    0.1075    0.0358 C   0  0  0  0  0  0  0  0  0  0  0  0
   -0.5984   -0.4124   -0.3470 C   0  0  0  0  0  0  0  0  0  0  0  0
   -1.7568    0.1677    0.3800 C   0  0  0  0  0  0  0  0  0  0  0  0
   -3.1060   -0.4028   -0.0528 C   0  0  0  0  0  0  0  0  0  0  0  0
   -2.7520    0.9766   -0.4678 C   0  0  0  0  0  0  0  0  0  0  0  0
    0.9689    0.2688    1.5325 C   0  0  0  0  0  0  0  0  0  0  0  0
    0.9098    1.3213    0.6385 O   0  0  0  0  0  0  0  0  0  0  0  0
    3.0264    0.9885    0.2590 H   0  0  0  0  0  0  0  0  0  0  0  0
    3.8632    0.3126   -1.1490 H   0  0  0  0  0  0  0  0  0  0  0  0
    3.7257   -0.6911    0.3133 H   0  0  0  0  0  0  0  0  0  0  0  0
    1.8450   -1.6325   -0.6568 H   0  0  0  0  0  0  0  0  0  0  0  0
    1.7892   -0.3019   -1.8307 H   0  0  0  0  0  0  0  0  0  0  0  0
   -0.6009   -1.5236   -0.1472 H   0  0  0  0  0  0  0  0  0  0  0  0
   -0.7401   -0.2847   -1.4437 H   0  0  0  0  0  0  0  0  0  0  0  0
   -1.7053    0.4757    1.4342 H   0  0  0  0  0  0  0  0  0  0  0  0
   -3.1209   -1.2219   -0.7997 H   0  0  0  0  0  0  0  0  0  0  0  0
   -3.8756   -0.5509    0.7398 H   0  0  0  0  0  0  0  0  0  0  0  0
   -3.3197    1.7823    0.0242 H   0  0  0  0  0  0  0  0  0  0  0  0
   -2.4850    1.0917   -1.5370 H   0  0  0  0  0  0  0  0  0  0  0  0
    1.9717   -0.0735    1.9001 H   0  0  0  0  0  0  0  0  0  0  0  0
    0.1265    0.0818    2.2311 H   0  0  0  0  0  0  0  0  0  0  0  0
  1  2  1  0
  2  3  1  0
  3  4  1  0
  4  5  1  0
  5  6  1  0
  6  7  1  0
  3  8  1  0
  8  9  1  0
  9  3  1  0
  7  5  1  0
  1 10  1  0
  1 11  1  0
  1 12  1  0
  2 13  1  0
  2 14  1  0
  4 15  1  0
  4 16  1  0
  5 17  1  0
  6 18  1  0
  6 19  1  0
  7 20  1  0
  7 21  1  0
  8 22  1  0
  8 23  1  0
M  END
