
     RDKit          3D

 24 24  0  0  0  0  0  0  0  0999 V2000
    2.4940    0.0054   -0.2232 C   0  0  0  0  0  0  0  0  0  0  0  0
    1.3565   -0.7645    0.4157 C   0  0  0  0  0  0  0  0  0  0  0  0
    0.0170   -0.1273    0.1203 C   0  0  0  0  0  0  0  0  0  0  0  0
   -0.1078    1.2824    0.6165 C   0  0  0  0  0  0  0  0  0  0  0  0
   -1.4351    1.9217    0.3256 C   0  0  0  0  0  0  0  0  0  0  0  0
   -1.0775   -1.0115    0.6793 C   0  0  0  0  0  0  0  0  0  0  0  0
   -1.1099   -1.7072   -0.6769 C   0  0  0  0  0  0  0  0  0  0  0  0
   -0.5044   -0.4214   -1.2445 C   0  0  0  0  0  0  0  0  0  0  0  0
    2.4452   -0.0419   -1.3366 H   0  0  0  0  0  0  0  0  0  0  0  0
    2.5018    1.0633    0.0736 H   0  0  0  0  0  0  0  0  0  0  0  0
    3.4411   -0.4935    0.0671 H   0  0  0  0  0  0  0  0  0  0  0  0
    1.3715   -1.7971    0.0666 H   0  0  0  0  0  0  0  0  0  0  0  0
    1.5211   -0.7372    1.5127 H   0  0  0  0  0  0  0  0  0  0  0  0
    0.0396    1.3461    1.7219 H   0  0  0  0  0  0  0  0  0  0  0  0
    0.6692    1.9523    0.1824 H   0  0  0  0  0  0  0  0  0  0  0  0
   -1.3218    2.9990    0.6562 H   0  0  0  0  0  0  0  0  0  0  0  0
   -2.2671    1.5398    0.9504 H   0  0  0  0  0  0  0  0  0  0  0  0
   -1.6794    1.9959   -0.7463 H   0  0  0  0  0  0  0  0  0  0  0  0
   -0.7405   -1.6615    1.5125 H   0  0  0  0  0  0  0  0  0  0  0  0
   -2.0195   -0.4723    0.8200 H   0  0  0  0  0  0  0  0  0  0  0  0
   -2.1265   -1.9250   -1.0577 H   0  0  0  0  0  0  0  0  0  0  0  0
   -0.4213   -2.5566   -0.7804 H   0  0  0  0  0  0  0  0  0  0  0  0
    0.2578   -0.5939   -2.0279 H   0  0  0  0  0  0  0  0  0  0  0  0
   -1.3039    0.2050   -1.6272 H   0  0  0  0  0  0  0  0  0  0  0  0
  1  2  1  0
  2  3  1  0
  3  4  1  0
  4  5  1  0
  3  6  1  0
  6  7  1  0
  7  8  1  0
  8  3  1  0
  1  9  1  0
  1 10  1  0
  1 11  1  0
  2 12  1  0
  2 13  1  0
  4 14  1  0
  4 15  1  0
  5 16  1  0
  5 17  1  0
  5 18  1  0
  6 19  1  0
  6 20  1  0
  7 21  1  0
  7 22  1  0
  8 23  1  0
  8 24  1  0
M  END
