
     RDKit          3D

 23 24  0  0  0  0  0  0  0  0999 V2000
    2.7478   -0.3251    0.0804 C   0  0  0  0  0  0  0  0  0  0  0  0
    1.7179    0.7233   -0.1375 C   0  0  0  0  0  0  0  0  0  0  0  0
    0.3543    0.3637    0.3551 C   0  0  0  0  0  0  0  0  0  0  0  0
   -0.7856    1.3332    0.1993 C   0  0  0  0  0  0  0  0  0  0  0  0
   -1.6441    0.1856   -0.3525 C   0  0  0  0  0  0  0  0  0  0  0  0
   -2.8166   -0.0800    0.5595 C   0  0  0  0  0  0  0  0  0  0  0  0
   -0.4603   -0.7134   -0.1461 C   0  0  0  0  0  0  0  0  0  0  0  0
   -0.1038   -1.6743   -1.0310 O   0  0  0  0  0  0  0  0  0  0  0  0
    0.1019   -0.7995    1.2280 C   0  0  0  0  0  0  0  0  0  0  0  0
    2.7703   -0.7463    1.1035 H   0  0  0  0  0  0  0  0  0  0  0  0
    2.7226   -1.1454   -0.6886 H   0  0  0  0  0  0  0  0  0  0  0  0
    3.7561    0.1613   -0.0639 H   0  0  0  0  0  0  0  0  0  0  0  0
    2.0531    1.6652    0.3491 H   0  0  0  0  0  0  0  0  0  0  0  0
    1.6511    0.9352   -1.2159 H   0  0  0  0  0  0  0  0  0  0  0  0
   -1.1148    1.7017    1.1784 H   0  0  0  0  0  0  0  0  0  0  0  0
   -0.5769    2.0929   -0.5685 H   0  0  0  0  0  0  0  0  0  0  0  0
   -1.9354    0.3602   -1.3999 H   0  0  0  0  0  0  0  0  0  0  0  0
   -3.1568    0.8219    1.1051 H   0  0  0  0  0  0  0  0  0  0  0  0
   -2.4984   -0.8615    1.3029 H   0  0  0  0  0  0  0  0  0  0  0  0
   -3.6738   -0.4601   -0.0332 H   0  0  0  0  0  0  0  0  0  0  0  0
    0.5571   -1.4132   -1.7181 H   0  0  0  0  0  0  0  0  0  0  0  0
   -0.5752   -0.5931    2.1031 H   0  0  0  0  0  0  0  0  0  0  0  0
    0.9095   -1.5323    1.3880 H   0  0  0  0  0  0  0  0  0  0  0  0
  1  2  1  0
  2  3  1  0
  3  4  1  0
  4  5  1  0
  5  6  1  0
  5  7  1  0
  7  8  1  0
  7  9  1  0
  7  3  1  0
  9  3  1  0
  1 10  1  0
  1 11  1  0
  1 12  1  0
  2 13  1  0
  2 14  1  0
  4 15  1  0
  4 16  1  0
  5 17  1  0
  6 18  1  0
  6 19  1  0
  6 20  1  0
  8 21  1  0
  9 22  1  0
  9 23  1  0
M  END
