
     RDKit          3D

 21 21  0  0  0  0  0  0  0  0999 V2000
    1.5948    1.3352    0.1147 C   0  0  0  0  0  0  0  0  0  0  0  0
    1.2751   -0.0069   -0.4900 C   0  0  0  0  0  0  0  0  0  0  0  0
   -0.0352   -0.5955   -0.0928 C   0  0  0  0  0  0  0  0  0  0  0  0
   -1.2807    0.1585   -0.4215 C   0  0  0  0  0  0  0  0  0  0  0  0
   -1.4287    1.5078    0.1648 C   0  0  0  0  0  0  0  0  0  0  0  0
   -0.0942   -1.5788    1.0267 C   0  0  0  0  0  0  0  0  0  0  0  0
   -0.0842   -2.1249   -0.3368 C   0  0  0  0  0  0  0  0  0  0  0  0
    1.4469    1.2282    1.2251 H   0  0  0  0  0  0  0  0  0  0  0  0
    2.7065    1.4690   -0.0413 H   0  0  0  0  0  0  0  0  0  0  0  0
    1.0292    2.1776   -0.2768 H   0  0  0  0  0  0  0  0  0  0  0  0
    1.3344    0.0572   -1.6003 H   0  0  0  0  0  0  0  0  0  0  0  0
    2.1375   -0.6823   -0.1991 H   0  0  0  0  0  0  0  0  0  0  0  0
   -2.1840   -0.4577   -0.1769 H   0  0  0  0  0  0  0  0  0  0  0  0
   -1.3232    0.2924   -1.5478 H   0  0  0  0  0  0  0  0  0  0  0  0
   -0.8697    1.7172    1.0874 H   0  0  0  0  0  0  0  0  0  0  0  0
   -1.3049    2.3330   -0.5988 H   0  0  0  0  0  0  0  0  0  0  0  0
   -2.5210    1.6398    0.4613 H   0  0  0  0  0  0  0  0  0  0  0  0
    0.8122   -1.7772    1.6475 H   0  0  0  0  0  0  0  0  0  0  0  0
   -1.0344   -1.5965    1.6007 H   0  0  0  0  0  0  0  0  0  0  0  0
   -0.9969   -2.4633   -0.8562 H   0  0  0  0  0  0  0  0  0  0  0  0
    0.8206   -2.6325   -0.6898 H   0  0  0  0  0  0  0  0  0  0  0  0
  1  2  1  0
  2  3  1  0
  3  4  1  0
  4  5  1  0
  3  6  1  0
  6  7  1  0
  7  3  1  0
  1  8  1  0
  1  9  1  0
  1 10  1  0
  2 11  1  0
  2 12  1  0
  4 13  1  0
  4 14  1  0
  5 15  1  0
  5 16  1  0
  5 17  1  0
  6 18  1  0
  6 19  1  0
  7 20  1  0
  7 21  1  0
M  END
