
     RDKit          3D

 20 21  0  0  0  0  0  0  0  0999 V2000
    2.1042   -0.3682   -0.2221 C   0  0  0  0  0  0  0  0  0  0  0  0
    1.3898    0.8915    0.0101 C   0  0  0  0  0  0  0  0  0  0  0  0
   -0.0647    0.8557    0.2379 C   0  0  0  0  0  0  0  0  0  0  0  0
   -0.6286    0.1043    1.3728 C   0  0  0  0  0  0  0  0  0  0  0  0
   -1.4932   -0.7571    0.4827 C   0  0  0  0  0  0  0  0  0  0  0  0
   -0.9283   -1.4063   -0.7218 C   0  0  0  0  0  0  0  0  0  0  0  0
   -0.9225    0.0661   -0.7092 C   0  0  0  0  0  0  0  0  0  0  0  0
   -1.9119    0.7385   -1.4473 O   0  0  0  0  0  0  0  0  0  0  0  0
    1.9932   -0.7819   -1.2648 H   0  0  0  0  0  0  0  0  0  0  0  0
    3.2125   -0.1429   -0.1559 H   0  0  0  0  0  0  0  0  0  0  0  0
    1.9327   -1.1854    0.4705 H   0  0  0  0  0  0  0  0  0  0  0  0
    1.5808    1.5676   -0.8709 H   0  0  0  0  0  0  0  0  0  0  0  0
    1.8624    1.4294    0.8713 H   0  0  0  0  0  0  0  0  0  0  0  0
   -0.4520    1.9209    0.2615 H   0  0  0  0  0  0  0  0  0  0  0  0
   -1.2679    0.6801    2.0758 H   0  0  0  0  0  0  0  0  0  0  0  0
    0.0504   -0.5346    1.9675 H   0  0  0  0  0  0  0  0  0  0  0  0
   -2.5860   -0.7320    0.6181 H   0  0  0  0  0  0  0  0  0  0  0  0
    0.0013   -1.9871   -0.6966 H   0  0  0  0  0  0  0  0  0  0  0  0
   -1.6884   -1.8687   -1.3978 H   0  0  0  0  0  0  0  0  0  0  0  0
   -2.1838    1.5102   -0.8819 H   0  0  0  0  0  0  0  0  0  0  0  0
  1  2  1  0
  2  3  1  0
  3  4  1  0
  4  5  1  0
  5  6  1  0
  6  7  1  0
  7  8  1  0
  7  3  1  0
  7  5  1  0
  1  9  1  0
  1 10  1  0
  1 11  1  0
  2 12  1  0
  2 13  1  0
  3 14  1  0
  4 15  1  0
  4 16  1  0
  5 17  1  0
  6 18  1  0
  6 19  1  0
  8 20  1  0
M  END
