
     RDKit          3D

 23 23  0  0  0  0  0  0  0  0999 V2000
   -2.9937   -0.0637    0.4601 C   0  0  0  0  0  0  0  0  0  0  0  0
   -1.9227    0.2687   -0.5554 C   0  0  0  0  0  0  0  0  0  0  0  0
   -0.5763    0.4685    0.1043 C   0  0  0  0  0  0  0  0  0  0  0  0
    0.5448    0.8013   -0.8233 C   0  0  0  0  0  0  0  0  0  0  0  0
    1.3344   -0.3266   -0.2563 C   0  0  0  0  0  0  0  0  0  0  0  0
    1.8631   -1.1822   -1.2088 O   0  0  0  0  0  0  0  0  0  0  0  0
    2.3656    0.0280    0.7865 C   0  0  0  0  0  0  0  0  0  0  0  0
    3.4284    0.6481    0.1653 O   0  0  0  0  0  0  0  0  0  0  0  0
    0.0826   -0.8404    0.4165 C   0  0  0  0  0  0  0  0  0  0  0  0
   -3.9601    0.3814    0.1283 H   0  0  0  0  0  0  0  0  0  0  0  0
   -2.7246    0.3716    1.4525 H   0  0  0  0  0  0  0  0  0  0  0  0
   -3.1785   -1.1575    0.5289 H   0  0  0  0  0  0  0  0  0  0  0  0
   -2.2293    1.2453   -1.0298 H   0  0  0  0  0  0  0  0  0  0  0  0
   -1.9150   -0.5144   -1.3294 H   0  0  0  0  0  0  0  0  0  0  0  0
   -0.6636    1.1251    0.9812 H   0  0  0  0  0  0  0  0  0  0  0  0
    1.0504    1.7786   -0.6399 H   0  0  0  0  0  0  0  0  0  0  0  0
    0.3283    0.6499   -1.9042 H   0  0  0  0  0  0  0  0  0  0  0  0
    1.4391   -2.0918   -1.1903 H   0  0  0  0  0  0  0  0  0  0  0  0
    2.7324   -0.9269    1.2205 H   0  0  0  0  0  0  0  0  0  0  0  0
    1.9409    0.6149    1.6224 H   0  0  0  0  0  0  0  0  0  0  0  0
    3.1807    1.4542   -0.3144 H   0  0  0  0  0  0  0  0  0  0  0  0
   -0.2925   -1.7281   -0.1240 H   0  0  0  0  0  0  0  0  0  0  0  0
    0.1656   -1.0042    1.5093 H   0  0  0  0  0  0  0  0  0  0  0  0
  1  2  1  0
  2  3  1  0
  3  4  1  0
  4  5  1  0
  5  6  1  0
  5  7  1  0
  7  8  1  0
  5  9  1  0
  9  3  1  0
  1 10  1  0
  1 11  1  0
  1 12  1  0
  2 13  1  0
  2 14  1  0
  3 15  1  0
  4 16  1  0
  4 17  1  0
  6 18  1  0
  7 19  1  0
  7 20  1  0
  8 21  1  0
  9 22  1  0
  9 23  1  0
M  END
