
     RDKit          3D

 25 25  0  0  0  0  0  0  0  0999 V2000
    2.5221    0.2568    0.4954 C   0  0  0  0  0  0  0  0  0  0  0  0
    2.0731   -0.2854   -0.8296 C   0  0  0  0  0  0  0  0  0  0  0  0
    0.5692   -0.2325   -1.0001 C   0  0  0  0  0  0  0  0  0  0  0  0
    0.0457    1.1324   -0.9162 C   0  0  0  0  0  0  0  0  0  0  0  0
   -0.8040    1.6482   -0.0417 C   0  0  0  0  0  0  0  0  0  0  0  0
   -1.4354    0.9285    1.0874 C   0  0  0  0  0  0  0  0  0  0  0  0
   -2.2788   -0.1939    0.5745 C   0  0  0  0  0  0  0  0  0  0  0  0
   -1.5449   -1.2619   -0.1377 C   0  0  0  0  0  0  0  0  0  0  0  0
   -0.0432   -1.1744   -0.0060 C   0  0  0  0  0  0  0  0  0  0  0  0
    2.7381   -0.5380    1.2324 H   0  0  0  0  0  0  0  0  0  0  0  0
    1.8066    0.9501    0.9591 H   0  0  0  0  0  0  0  0  0  0  0  0
    3.4765    0.8228    0.3693 H   0  0  0  0  0  0  0  0  0  0  0  0
    2.5974    0.2141   -1.6734 H   0  0  0  0  0  0  0  0  0  0  0  0
    2.3737   -1.3588   -0.8773 H   0  0  0  0  0  0  0  0  0  0  0  0
    0.3472   -0.6280   -2.0111 H   0  0  0  0  0  0  0  0  0  0  0  0
    0.4099    1.8049   -1.6793 H   0  0  0  0  0  0  0  0  0  0  0  0
   -1.0671    2.7099   -0.1628 H   0  0  0  0  0  0  0  0  0  0  0  0
   -0.6921    0.6317    1.8370 H   0  0  0  0  0  0  0  0  0  0  0  0
   -2.1321    1.6409    1.6133 H   0  0  0  0  0  0  0  0  0  0  0  0
   -3.0487    0.2657   -0.1009 H   0  0  0  0  0  0  0  0  0  0  0  0
   -2.8673   -0.5840    1.4545 H   0  0  0  0  0  0  0  0  0  0  0  0
   -1.8506   -2.2506    0.2719 H   0  0  0  0  0  0  0  0  0  0  0  0
   -1.7913   -1.3071   -1.2352 H   0  0  0  0  0  0  0  0  0  0  0  0
    0.2496   -0.9885    1.0315 H   0  0  0  0  0  0  0  0  0  0  0  0
    0.3467   -2.2030   -0.2550 H   0  0  0  0  0  0  0  0  0  0  0  0
  1  2  1  0
  2  3  1  0
  3  4  1  0
  4  5  2  0
  5  6  1  0
  6  7  1  0
  7  8  1  0
  8  9  1  0
  9  3  1  0
  1 10  1  0
  1 11  1  0
  1 12  1  0
  2 13  1  0
  2 14  1  0
  3 15  1  0
  4 16  1  0
  5 17  1  0
  6 18  1  0
  6 19  1  0
  7 20  1  0
  7 21  1  0
  8 22  1  0
  8 23  1  0
  9 24  1  0
  9 25  1  0
M  END
