
     RDKit          3D

 21 21  0  0  0  0  0  0  0  0999 V2000
   -2.9733    0.0535   -0.0682 C   0  0  0  0  0  0  0  0  0  0  0  0
   -1.7128    0.1412   -0.9314 C   0  0  0  0  0  0  0  0  0  0  0  0
   -0.5881    0.5059    0.0085 C   0  0  0  0  0  0  0  0  0  0  0  0
   -0.3599   -0.5036    1.1183 C   0  0  0  0  0  0  0  0  0  0  0  0
    0.6635   -0.2728    0.0472 C   0  0  0  0  0  0  0  0  0  0  0  0
    0.8784   -1.2885   -0.8641 O   0  0  0  0  0  0  0  0  0  0  0  0
    1.8650    0.4905    0.5162 C   0  0  0  0  0  0  0  0  0  0  0  0
    3.2156    0.1656    0.0216 C   0  0  0  0  0  0  0  0  0  0  0  0
    1.7333    1.3925    1.3160 O   0  0  0  0  0  0  0  0  0  0  0  0
   -2.6499   -0.4035    0.8907 H   0  0  0  0  0  0  0  0  0  0  0  0
   -3.2950    1.0983    0.1206 H   0  0  0  0  0  0  0  0  0  0  0  0
   -3.7459   -0.5730   -0.5341 H   0  0  0  0  0  0  0  0  0  0  0  0
   -1.8303    0.8663   -1.7528 H   0  0  0  0  0  0  0  0  0  0  0  0
   -1.5410   -0.8527   -1.4213 H   0  0  0  0  0  0  0  0  0  0  0  0
   -0.6181    1.5556    0.3448 H   0  0  0  0  0  0  0  0  0  0  0  0
   -0.1953   -0.1225    2.1468 H   0  0  0  0  0  0  0  0  0  0  0  0
   -0.9186   -1.4738    1.0727 H   0  0  0  0  0  0  0  0  0  0  0  0
    1.3611   -1.0275   -1.6620 H   0  0  0  0  0  0  0  0  0  0  0  0
    3.3693   -0.9322   -0.0554 H   0  0  0  0  0  0  0  0  0  0  0  0
    3.9912    0.5959    0.6823 H   0  0  0  0  0  0  0  0  0  0  0  0
    3.3511    0.5847   -0.9964 H   0  0  0  0  0  0  0  0  0  0  0  0
  1  2  1  0
  2  3  1  0
  3  4  1  0
  4  5  1  0
  5  6  1  0
  5  7  1  0
  7  8  1  0
  7  9  2  0
  5  3  1  0
  1 10  1  0
  1 11  1  0
  1 12  1  0
  2 13  1  0
  2 14  1  0
  3 15  1  0
  4 16  1  0
  4 17  1  0
  6 18  1  0
  8 19  1  0
  8 20  1  0
  8 21  1  0
M  END
