
     RDKit          3D

 21 22  0  0  0  0  0  0  0  0999 V2000
    2.6896    0.7463   -0.5913 C   0  0  0  0  0  0  0  0  0  0  0  0
    1.8779   -0.0778    0.3539 C   0  0  0  0  0  0  0  0  0  0  0  0
    0.4454   -0.1124    0.0149 C   0  0  0  0  0  0  0  0  0  0  0  0
   -0.2069    0.4857   -1.0071 C   0  0  0  0  0  0  0  0  0  0  0  0
   -1.6406    0.1361   -0.8370 C   0  0  0  0  0  0  0  0  0  0  0  0
   -2.1124    0.7205    0.4769 C   0  0  0  0  0  0  0  0  0  0  0  0
   -1.3598    0.0688    1.4518 O   0  0  0  0  0  0  0  0  0  0  0  0
   -0.5659   -0.8705    0.8125 C   0  0  0  0  0  0  0  0  0  0  0  0
   -1.4744   -1.3174   -0.3490 C   0  0  0  0  0  0  0  0  0  0  0  0
    2.8683    1.7594   -0.2022 H   0  0  0  0  0  0  0  0  0  0  0  0
    3.7040    0.2646   -0.6562 H   0  0  0  0  0  0  0  0  0  0  0  0
    2.3069    0.7752   -1.6232 H   0  0  0  0  0  0  0  0  0  0  0  0
    2.2504   -1.1168    0.4416 H   0  0  0  0  0  0  0  0  0  0  0  0
    1.9648    0.3781    1.3745 H   0  0  0  0  0  0  0  0  0  0  0  0
    0.2929    1.0734   -1.7430 H   0  0  0  0  0  0  0  0  0  0  0  0
   -2.2760    0.2522   -1.6747 H   0  0  0  0  0  0  0  0  0  0  0  0
   -2.0589    1.8066    0.5228 H   0  0  0  0  0  0  0  0  0  0  0  0
   -3.1683    0.3432    0.6147 H   0  0  0  0  0  0  0  0  0  0  0  0
   -0.1942   -1.6671    1.4043 H   0  0  0  0  0  0  0  0  0  0  0  0
   -0.9320   -1.9166   -1.0768 H   0  0  0  0  0  0  0  0  0  0  0  0
   -2.4107   -1.7316    0.0200 H   0  0  0  0  0  0  0  0  0  0  0  0
  1  2  1  0
  2  3  1  0
  3  4  2  0
  4  5  1  0
  5  6  1  0
  6  7  1  0
  7  8  1  0
  8  9  1  0
  8  3  1  0
  9  5  1  0
  1 10  1  0
  1 11  1  0
  1 12  1  0
  2 13  1  0
  2 14  1  0
  4 15  1  0
  5 16  1  0
  6 17  1  0
  6 18  1  0
  8 19  1  0
  9 20  1  0
  9 21  1  0
M  END
