
     RDKit          3D

 23 24  0  0  0  0  0  0  0  0999 V2000
    2.4368    0.5933    0.5267 C   0  0  0  0  0  0  0  0  0  0  0  0
    1.6120   -0.0140   -0.5846 C   0  0  0  0  0  0  0  0  0  0  0  0
    0.1678   -0.1206   -0.2010 C   0  0  0  0  0  0  0  0  0  0  0  0
   -0.4967    1.1751    0.1242 C   0  0  0  0  0  0  0  0  0  0  0  0
   -1.9856    0.9457    0.2635 C   0  0  0  0  0  0  0  0  0  0  0  0
   -2.3333   -0.3466    0.5241 O   0  0  0  0  0  0  0  0  0  0  0  0
   -1.5156   -1.3142    0.0220 C   0  0  0  0  0  0  0  0  0  0  0  0
   -0.1820   -1.2213    0.7785 C   0  0  0  0  0  0  0  0  0  0  0  0
   -0.7161   -0.8384   -1.1999 C   0  0  0  0  0  0  0  0  0  0  0  0
    3.4622    0.2101    0.5084 H   0  0  0  0  0  0  0  0  0  0  0  0
    2.4016    1.7084    0.5180 H   0  0  0  0  0  0  0  0  0  0  0  0
    1.9973    0.2747    1.5093 H   0  0  0  0  0  0  0  0  0  0  0  0
    1.6603    0.6770   -1.4652 H   0  0  0  0  0  0  0  0  0  0  0  0
    2.0570   -0.9992   -0.8113 H   0  0  0  0  0  0  0  0  0  0  0  0
   -0.0583    1.7248    0.9627 H   0  0  0  0  0  0  0  0  0  0  0  0
   -0.3702    1.8404   -0.7792 H   0  0  0  0  0  0  0  0  0  0  0  0
   -2.5604    1.3319   -0.6061 H   0  0  0  0  0  0  0  0  0  0  0  0
   -2.3047    1.6035    1.1263 H   0  0  0  0  0  0  0  0  0  0  0  0
   -1.9401   -2.3075   -0.0563 H   0  0  0  0  0  0  0  0  0  0  0  0
    0.4045   -2.1229    0.5558 H   0  0  0  0  0  0  0  0  0  0  0  0
   -0.2745   -0.9265    1.8232 H   0  0  0  0  0  0  0  0  0  0  0  0
   -1.2859   -0.1910   -1.8844 H   0  0  0  0  0  0  0  0  0  0  0  0
   -0.1760   -1.6827   -1.6548 H   0  0  0  0  0  0  0  0  0  0  0  0
  1  2  1  0
  2  3  1  0
  3  4  1  0
  4  5  1  0
  5  6  1  0
  6  7  1  0
  7  8  1  0
  7  9  1  0
  8  3  1  0
  9  3  1  0
  1 10  1  0
  1 11  1  0
  1 12  1  0
  2 13  1  0
  2 14  1  0
  4 15  1  0
  4 16  1  0
  5 17  1  0
  5 18  1  0
  7 19  1  0
  8 20  1  0
  8 21  1  0
  9 22  1  0
  9 23  1  0
M  END
