
     RDKit          3D

 23 24  0  0  0  0  0  0  0  0999 V2000
    2.4779    0.1363    0.7063 C   0  0  0  0  0  0  0  0  0  0  0  0
    1.4323   -0.3230   -0.2905 C   0  0  0  0  0  0  0  0  0  0  0  0
    0.2215    0.6052   -0.2689 C   0  0  0  0  0  0  0  0  0  0  0  0
    0.6936    1.8701   -0.6065 O   0  0  0  0  0  0  0  0  0  0  0  0
   -0.4284    0.5608    1.0707 C   0  0  0  0  0  0  0  0  0  0  0  0
   -1.6773   -0.2636    0.9667 C   0  0  0  0  0  0  0  0  0  0  0  0
   -1.9756   -0.3793   -0.5090 C   0  0  0  0  0  0  0  0  0  0  0  0
   -1.1241   -1.2907   -1.3282 C   0  0  0  0  0  0  0  0  0  0  0  0
   -0.8044    0.1503   -1.2378 C   0  0  0  0  0  0  0  0  0  0  0  0
    2.5831    1.2367    0.7396 H   0  0  0  0  0  0  0  0  0  0  0  0
    3.4380   -0.3604    0.3763 H   0  0  0  0  0  0  0  0  0  0  0  0
    2.2370   -0.3072    1.6840 H   0  0  0  0  0  0  0  0  0  0  0  0
    1.9086   -0.2828   -1.2960 H   0  0  0  0  0  0  0  0  0  0  0  0
    1.1649   -1.3590    0.0022 H   0  0  0  0  0  0  0  0  0  0  0  0
    0.4467    2.5485    0.0721 H   0  0  0  0  0  0  0  0  0  0  0  0
   -0.6311    1.6066    1.3962 H   0  0  0  0  0  0  0  0  0  0  0  0
    0.2392    0.0888    1.7994 H   0  0  0  0  0  0  0  0  0  0  0  0
   -1.5230   -1.3143    1.3356 H   0  0  0  0  0  0  0  0  0  0  0  0
   -2.5309    0.2201    1.4857 H   0  0  0  0  0  0  0  0  0  0  0  0
   -3.0071   -0.2437   -0.8540 H   0  0  0  0  0  0  0  0  0  0  0  0
   -0.5594   -2.0731   -0.8188 H   0  0  0  0  0  0  0  0  0  0  0  0
   -1.5420   -1.6270   -2.3108 H   0  0  0  0  0  0  0  0  0  0  0  0
   -1.0396    0.8009   -2.1143 H   0  0  0  0  0  0  0  0  0  0  0  0
  1  2  1  0
  2  3  1  0
  3  4  1  0
  3  5  1  0
  5  6  1  0
  6  7  1  0
  7  8  1  0
  8  9  1  0
  9  3  1  0
  9  7  1  0
  1 10  1  0
  1 11  1  0
  1 12  1  0
  2 13  1  0
  2 14  1  0
  4 15  1  0
  5 16  1  0
  5 17  1  0
  6 18  1  0
  6 19  1  0
  7 20  1  0
  8 21  1  0
  8 22  1  0
  9 23  1  0
M  END
