
     RDKit          3D

 23 24  0  0  0  0  0  0  0  0999 V2000
    2.0903   -0.4866    0.2339 C   0  0  0  0  0  0  0  0  0  0  0  0
    1.2927    0.4455   -0.6111 C   0  0  0  0  0  0  0  0  0  0  0  0
   -0.1319    0.1265   -0.7666 C   0  0  0  0  0  0  0  0  0  0  0  0
   -0.5115   -1.1908   -1.3824 C   0  0  0  0  0  0  0  0  0  0  0  0
   -0.9626   -0.7554   -0.0244 C   0  0  0  0  0  0  0  0  0  0  0  0
   -0.6383   -1.6039    1.1314 C   0  0  0  0  0  0  0  0  0  0  0  0
   -2.0391    0.1237   -0.0092 O   0  0  0  0  0  0  0  0  0  0  0  0
   -1.2155    1.1414   -0.5195 C   0  0  0  0  0  0  0  0  0  0  0  0
   -0.9347    2.1380    0.5800 C   0  0  0  0  0  0  0  0  0  0  0  0
    1.7828   -1.5340    0.1986 H   0  0  0  0  0  0  0  0  0  0  0  0
    3.1708   -0.3831   -0.0807 H   0  0  0  0  0  0  0  0  0  0  0  0
    2.0824   -0.0702    1.2820 H   0  0  0  0  0  0  0  0  0  0  0  0
    1.4381    1.4863   -0.2349 H   0  0  0  0  0  0  0  0  0  0  0  0
    1.7685    0.4527   -1.6358 H   0  0  0  0  0  0  0  0  0  0  0  0
    0.2848   -1.9421   -1.4643 H   0  0  0  0  0  0  0  0  0  0  0  0
   -1.2741   -1.1084   -2.2048 H   0  0  0  0  0  0  0  0  0  0  0  0
   -1.5990   -1.8238    1.6863 H   0  0  0  0  0  0  0  0  0  0  0  0
   -0.2962   -2.6261    0.7926 H   0  0  0  0  0  0  0  0  0  0  0  0
    0.0501   -1.2026    1.8712 H   0  0  0  0  0  0  0  0  0  0  0  0
   -1.6537    1.6033   -1.4291 H   0  0  0  0  0  0  0  0  0  0  0  0
   -0.0127    1.9240    1.1309 H   0  0  0  0  0  0  0  0  0  0  0  0
   -1.7601    2.1245    1.3475 H   0  0  0  0  0  0  0  0  0  0  0  0
   -0.9310    3.1611    0.1084 H   0  0  0  0  0  0  0  0  0  0  0  0
  1  2  1  0
  2  3  1  0
  3  4  1  0
  4  5  1  0
  5  6  1  0
  5  7  1  0
  7  8  1  0
  8  9  1  0
  5  3  1  0
  8  3  1  0
  1 10  1  0
  1 11  1  0
  1 12  1  0
  2 13  1  0
  2 14  1  0
  4 15  1  0
  4 16  1  0
  6 17  1  0
  6 18  1  0
  6 19  1  0
  8 20  1  0
  9 21  1  0
  9 22  1  0
  9 23  1  0
M  END
