
     RDKit          3D

 25 26  0  0  0  0  0  0  0  0999 V2000
    2.8939   -0.0913   -0.1936 C   0  0  0  0  0  0  0  0  0  0  0  0
    1.6873    0.7958    0.0447 C   0  0  0  0  0  0  0  0  0  0  0  0
    0.6016   -0.1205    0.6144 C   0  0  0  0  0  0  0  0  0  0  0  0
   -0.7163    0.3036    0.9851 C   0  0  0  0  0  0  0  0  0  0  0  0
   -0.7961    1.7970    0.8842 C   0  0  0  0  0  0  0  0  0  0  0  0
   -2.0607   -0.2953    0.6953 C   0  0  0  0  0  0  0  0  0  0  0  0
   -1.6641    0.1121   -0.7406 C   0  0  0  0  0  0  0  0  0  0  0  0
   -0.3860   -0.5174   -0.3227 C   0  0  0  0  0  0  0  0  0  0  0  0
   -0.5820   -2.0404   -0.2161 C   0  0  0  0  0  0  0  0  0  0  0  0
    2.7011   -0.6726   -1.1305 H   0  0  0  0  0  0  0  0  0  0  0  0
    3.8051    0.5428   -0.3040 H   0  0  0  0  0  0  0  0  0  0  0  0
    2.9899   -0.8026    0.6387 H   0  0  0  0  0  0  0  0  0  0  0  0
    1.4169    1.2099   -0.9301 H   0  0  0  0  0  0  0  0  0  0  0  0
    1.9734    1.5516    0.7916 H   0  0  0  0  0  0  0  0  0  0  0  0
    1.0820   -0.7641    1.4156 H   0  0  0  0  0  0  0  0  0  0  0  0
   -1.8163    2.2194    0.9591 H   0  0  0  0  0  0  0  0  0  0  0  0
   -0.2645    2.1952    1.8014 H   0  0  0  0  0  0  0  0  0  0  0  0
   -0.2854    2.2427    0.0365 H   0  0  0  0  0  0  0  0  0  0  0  0
   -2.2065   -1.3572    0.8088 H   0  0  0  0  0  0  0  0  0  0  0  0
   -2.8862    0.2697    1.1144 H   0  0  0  0  0  0  0  0  0  0  0  0
   -1.7114    1.1680   -0.9379 H   0  0  0  0  0  0  0  0  0  0  0  0
   -2.1893   -0.4587   -1.5229 H   0  0  0  0  0  0  0  0  0  0  0  0
   -1.4339   -2.4185   -0.7675 H   0  0  0  0  0  0  0  0  0  0  0  0
    0.3262   -2.4510   -0.7574 H   0  0  0  0  0  0  0  0  0  0  0  0
   -0.4787   -2.4181    0.8083 H   0  0  0  0  0  0  0  0  0  0  0  0
  1  2  1  0
  2  3  1  0
  3  4  1  0
  4  5  1  0
  4  6  1  0
  6  7  1  0
  7  8  1  0
  8  9  1  0
  8  3  1  0
  8  4  1  0
  1 10  1  0
  1 11  1  0
  1 12  1  0
  2 13  1  0
  2 14  1  0
  3 15  1  0
  5 16  1  0
  5 17  1  0
  5 18  1  0
  6 19  1  0
  6 20  1  0
  7 21  1  0
  7 22  1  0
  9 23  1  0
  9 24  1  0
  9 25  1  0
M  END
