
     RDKit          3D

 24 24  0  0  0  0  0  0  0  0999 V2000
    2.7336   -0.0190   -0.5649 C   0  0  0  0  0  0  0  0  0  0  0  0
    1.2816    0.0415   -1.0601 C   0  0  0  0  0  0  0  0  0  0  0  0
    0.4490    0.4004    0.1186 C   0  0  0  0  0  0  0  0  0  0  0  0
    0.4982   -0.5578    1.2880 C   0  0  0  0  0  0  0  0  0  0  0  0
   -0.9125   -0.0200    1.5890 C   0  0  0  0  0  0  0  0  0  0  0  0
   -1.0135    0.1355    0.0607 C   0  0  0  0  0  0  0  0  0  0  0  0
   -1.4744   -1.1433   -0.5330 C   0  0  0  0  0  0  0  0  0  0  0  0
   -1.8629    1.3299   -0.3521 C   0  0  0  0  0  0  0  0  0  0  0  0
    2.8811   -1.0397   -0.1775 H   0  0  0  0  0  0  0  0  0  0  0  0
    3.4296    0.2581   -1.3709 H   0  0  0  0  0  0  0  0  0  0  0  0
    2.8538    0.6805    0.2911 H   0  0  0  0  0  0  0  0  0  0  0  0
    1.0148   -0.8719   -1.5788 H   0  0  0  0  0  0  0  0  0  0  0  0
    1.2282    0.8818   -1.7829 H   0  0  0  0  0  0  0  0  0  0  0  0
    0.6559    1.4328    0.4514 H   0  0  0  0  0  0  0  0  0  0  0  0
    1.2322   -0.3339    2.0611 H   0  0  0  0  0  0  0  0  0  0  0  0
    0.4851   -1.6047    0.8968 H   0  0  0  0  0  0  0  0  0  0  0  0
   -1.5915   -0.7509    2.0193 H   0  0  0  0  0  0  0  0  0  0  0  0
   -0.7915    0.9420    2.1232 H   0  0  0  0  0  0  0  0  0  0  0  0
   -2.5377   -1.0115   -0.8909 H   0  0  0  0  0  0  0  0  0  0  0  0
   -0.9119   -1.5130   -1.3857 H   0  0  0  0  0  0  0  0  0  0  0  0
   -1.5411   -1.9805    0.2081 H   0  0  0  0  0  0  0  0  0  0  0  0
   -1.6182    1.5043   -1.4373 H   0  0  0  0  0  0  0  0  0  0  0  0
   -1.5702    2.2056    0.2498 H   0  0  0  0  0  0  0  0  0  0  0  0
   -2.9176    1.0340   -0.2231 H   0  0  0  0  0  0  0  0  0  0  0  0
  1  2  1  0
  2  3  1  0
  3  4  1  0
  4  5  1  0
  5  6  1  0
  6  7  1  0
  6  8  1  0
  6  3  1  0
  1  9  1  0
  1 10  1  0
  1 11  1  0
  2 12  1  0
  2 13  1  0
  3 14  1  0
  4 15  1  0
  4 16  1  0
  5 17  1  0
  5 18  1  0
  7 19  1  0
  7 20  1  0
  7 21  1  0
  8 22  1  0
  8 23  1  0
  8 24  1  0
M  END
