
     RDKit          3D

 25 25  0  0  0  0  0  0  0  0999 V2000
    2.0556    1.2762   -0.4794 C   0  0  0  0  0  0  0  0  0  0  0  0
    1.5644   -0.1207   -0.5478 C   0  0  0  0  0  0  0  0  0  0  0  0
    0.3576   -0.4592    0.2332 C   0  0  0  0  0  0  0  0  0  0  0  0
    0.3844   -0.2729    1.7078 C   0  0  0  0  0  0  0  0  0  0  0  0
   -0.1804   -1.8176   -0.2320 C   0  0  0  0  0  0  0  0  0  0  0  0
   -0.7083   -1.1065   -1.3378 O   0  0  0  0  0  0  0  0  0  0  0  0
   -0.9542   -0.0898   -0.4059 C   0  0  0  0  0  0  0  0  0  0  0  0
   -0.9529    1.2962   -0.9414 C   0  0  0  0  0  0  0  0  0  0  0  0
   -2.1767   -0.4753    0.4046 C   0  0  0  0  0  0  0  0  0  0  0  0
    3.0569    1.3296    0.0209 H   0  0  0  0  0  0  0  0  0  0  0  0
    1.3930    1.9914    0.0538 H   0  0  0  0  0  0  0  0  0  0  0  0
    2.1926    1.6688   -1.5074 H   0  0  0  0  0  0  0  0  0  0  0  0
    1.4188   -0.4152   -1.6146 H   0  0  0  0  0  0  0  0  0  0  0  0
    2.3883   -0.8003   -0.1947 H   0  0  0  0  0  0  0  0  0  0  0  0
    0.0271   -1.1484    2.2787 H   0  0  0  0  0  0  0  0  0  0  0  0
    1.3909   -0.0285    2.0804 H   0  0  0  0  0  0  0  0  0  0  0  0
   -0.2728    0.5830    1.9817 H   0  0  0  0  0  0  0  0  0  0  0  0
   -0.9611   -2.2342    0.4237 H   0  0  0  0  0  0  0  0  0  0  0  0
    0.6099   -2.5161   -0.5064 H   0  0  0  0  0  0  0  0  0  0  0  0
   -1.9332    1.4609   -1.4751 H   0  0  0  0  0  0  0  0  0  0  0  0
   -0.1854    1.5038   -1.6810 H   0  0  0  0  0  0  0  0  0  0  0  0
   -0.9899    2.0003   -0.0819 H   0  0  0  0  0  0  0  0  0  0  0  0
   -2.7617   -1.2886   -0.0731 H   0  0  0  0  0  0  0  0  0  0  0  0
   -1.9121   -0.7437    1.4413 H   0  0  0  0  0  0  0  0  0  0  0  0
   -2.8508    0.4066    0.4523 H   0  0  0  0  0  0  0  0  0  0  0  0
  1  2  1  0
  2  3  1  0
  3  4  1  0
  3  5  1  0
  5  6  1  0
  6  7  1  0
  7  8  1  0
  7  9  1  0
  7  3  1  0
  1 10  1  0
  1 11  1  0
  1 12  1  0
  2 13  1  0
  2 14  1  0
  4 15  1  0
  4 16  1  0
  4 17  1  0
  5 18  1  0
  5 19  1  0
  8 20  1  0
  8 21  1  0
  8 22  1  0
  9 23  1  0
  9 24  1  0
  9 25  1  0
M  END
