
     RDKit          3D

 18 19  0  0  0  0  0  0  0  0999 V2000
    2.2528   -0.2603    0.6526 C   0  0  0  0  0  0  0  0  0  0  0  0
    1.1117    0.7115    0.3116 C   0  0  0  0  0  0  0  0  0  0  0  0
   -0.0972    0.0526    0.2152 C   0  0  0  0  0  0  0  0  0  0  0  0
   -0.4583   -1.0420   -0.7159 C   0  0  0  0  0  0  0  0  0  0  0  0
   -1.6137   -0.8504    0.2129 C   0  0  0  0  0  0  0  0  0  0  0  0
   -0.6631   -0.7422    1.2300 O   0  0  0  0  0  0  0  0  0  0  0  0
   -1.4527    0.6216    0.0404 C   0  0  0  0  0  0  0  0  0  0  0  0
   -1.8735    1.3765    1.1344 O   0  0  0  0  0  0  0  0  0  0  0  0
    2.5277   -0.7471   -0.3015 H   0  0  0  0  0  0  0  0  0  0  0  0
    3.1094    0.3451    0.9850 H   0  0  0  0  0  0  0  0  0  0  0  0
    1.9263   -0.9992    1.4161 H   0  0  0  0  0  0  0  0  0  0  0  0
    1.4312    1.1979   -0.6336 H   0  0  0  0  0  0  0  0  0  0  0  0
    1.1775    1.5025    1.0877 H   0  0  0  0  0  0  0  0  0  0  0  0
    0.0387   -2.0341   -0.5474 H   0  0  0  0  0  0  0  0  0  0  0  0
   -0.5840   -0.7429   -1.7572 H   0  0  0  0  0  0  0  0  0  0  0  0
   -2.4688   -1.3845    0.2544 H   0  0  0  0  0  0  0  0  0  0  0  0
   -1.7222    1.0435   -0.9373 H   0  0  0  0  0  0  0  0  0  0  0  0
   -2.6418    1.9516    0.9325 H   0  0  0  0  0  0  0  0  0  0  0  0
  1  2  1  0
  2  3  1  0
  3  4  1  0
  4  5  1  0
  5  6  1  0
  5  7  1  0
  7  8  1  0
  6  3  1  0
  7  3  1  0
  1  9  1  0
  1 10  1  0
  1 11  1  0
  2 12  1  0
  2 13  1  0
  4 14  1  0
  4 15  1  0
  5 16  1  0
  7 17  1  0
  8 18  1  0
M  END
