
     RDKit          3D

 19 19  0  0  0  0  0  0  0  0999 V2000
   -2.8251    1.0259    0.1710 C   0  0  0  0  0  0  0  0  0  0  0  0
   -1.8590    0.0194    0.7854 C   0  0  0  0  0  0  0  0  0  0  0  0
   -0.8471   -0.4045   -0.2383 C   0  0  0  0  0  0  0  0  0  0  0  0
   -0.0776    0.6340   -0.7438 O   0  0  0  0  0  0  0  0  0  0  0  0
    0.5291   -0.4354    0.0943 C   0  0  0  0  0  0  0  0  0  0  0  0
    1.6024   -1.1107   -0.7073 C   0  0  0  0  0  0  0  0  0  0  0  0
    2.6430   -0.2543   -1.1295 O   0  0  0  0  0  0  0  0  0  0  0  0
    3.3851    0.3916   -0.1564 C   0  0  0  0  0  0  0  0  0  0  0  0
    3.1564    0.2331    1.0630 O   0  0  0  0  0  0  0  0  0  0  0  0
   -3.2357    1.6456    0.9845 H   0  0  0  0  0  0  0  0  0  0  0  0
   -3.5919    0.5175   -0.4299 H   0  0  0  0  0  0  0  0  0  0  0  0
   -2.1829    1.7089   -0.4550 H   0  0  0  0  0  0  0  0  0  0  0  0
   -1.3963    0.5295    1.6579 H   0  0  0  0  0  0  0  0  0  0  0  0
   -2.3969   -0.8796    1.1365 H   0  0  0  0  0  0  0  0  0  0  0  0
   -1.2476   -1.0881   -1.0169 H   0  0  0  0  0  0  0  0  0  0  0  0
    0.8527   -0.0503    1.0831 H   0  0  0  0  0  0  0  0  0  0  0  0
    1.1895   -1.6502   -1.5945 H   0  0  0  0  0  0  0  0  0  0  0  0
    2.0909   -1.9071   -0.0930 H   0  0  0  0  0  0  0  0  0  0  0  0
    4.2109    1.0747   -0.4111 H   0  0  0  0  0  0  0  0  0  0  0  0
  1  2  1  0
  2  3  1  0
  3  4  1  0
  4  5  1  0
  5  6  1  0
  6  7  1  0
  7  8  1  0
  8  9  2  0
  5  3  1  0
  1 10  1  0
  1 11  1  0
  1 12  1  0
  2 13  1  0
  2 14  1  0
  3 15  1  0
  5 16  1  0
  6 17  1  0
  6 18  1  0
  8 19  1  0
M  END
