
     RDKit          3D

 25 25  0  0  0  0  0  0  0  0999 V2000
    1.9329   -1.1690    0.5051 C   0  0  0  0  0  0  0  0  0  0  0  0
    1.3156   -0.2167   -0.4680 C   0  0  0  0  0  0  0  0  0  0  0  0
    0.1001    0.4709    0.0515 C   0  0  0  0  0  0  0  0  0  0  0  0
    0.4241    1.2728    1.2951 C   0  0  0  0  0  0  0  0  0  0  0  0
   -1.1865   -0.3015    0.0804 C   0  0  0  0  0  0  0  0  0  0  0  0
   -1.0802   -1.7710    0.3502 C   0  0  0  0  0  0  0  0  0  0  0  0
   -1.3502    0.0708   -1.3843 C   0  0  0  0  0  0  0  0  0  0  0  0
   -0.5731    1.3264   -1.0362 C   0  0  0  0  0  0  0  0  0  0  0  0
   -1.4423    2.2716   -0.5027 O   0  0  0  0  0  0  0  0  0  0  0  0
    2.9391   -0.7968    0.8635 H   0  0  0  0  0  0  0  0  0  0  0  0
    2.1400   -2.1686    0.0244 H   0  0  0  0  0  0  0  0  0  0  0  0
    1.3509   -1.3695    1.4032 H   0  0  0  0  0  0  0  0  0  0  0  0
    1.1493   -0.7219   -1.4507 H   0  0  0  0  0  0  0  0  0  0  0  0
    2.0744    0.5849   -0.6937 H   0  0  0  0  0  0  0  0  0  0  0  0
    0.5133    0.5547    2.1428 H   0  0  0  0  0  0  0  0  0  0  0  0
   -0.4370    1.9470    1.4772 H   0  0  0  0  0  0  0  0  0  0  0  0
    1.3640    1.8122    1.0896 H   0  0  0  0  0  0  0  0  0  0  0  0
   -1.9359    0.2461    0.6855 H   0  0  0  0  0  0  0  0  0  0  0  0
   -1.9974   -2.3290    0.0576 H   0  0  0  0  0  0  0  0  0  0  0  0
   -0.9879   -1.8979    1.4490 H   0  0  0  0  0  0  0  0  0  0  0  0
   -0.2472   -2.2611   -0.1425 H   0  0  0  0  0  0  0  0  0  0  0  0
   -2.3783    0.2805   -1.6974 H   0  0  0  0  0  0  0  0  0  0  0  0
   -0.8215   -0.6048   -2.0878 H   0  0  0  0  0  0  0  0  0  0  0  0
    0.1158    1.6798   -1.8122 H   0  0  0  0  0  0  0  0  0  0  0  0
   -0.9822    3.0903   -0.1996 H   0  0  0  0  0  0  0  0  0  0  0  0
  1  2  1  0
  2  3  1  0
  3  4  1  0
  3  5  1  0
  5  6  1  0
  5  7  1  0
  7  8  1  0
  8  9  1  0
  8  3  1  0
  1 10  1  0
  1 11  1  0
  1 12  1  0
  2 13  1  0
  2 14  1  0
  4 15  1  0
  4 16  1  0
  4 17  1  0
  5 18  1  0
  6 19  1  0
  6 20  1  0
  6 21  1  0
  7 22  1  0
  7 23  1  0
  8 24  1  0
  9 25  1  0
M  END
