
     RDKit          3D

 23 23  0  0  0  0  0  0  0  0999 V2000
   -2.5137    0.2995    0.6278 C   0  0  0  0  0  0  0  0  0  0  0  0
   -1.6301    0.3666   -0.5636 C   0  0  0  0  0  0  0  0  0  0  0  0
   -0.6430   -0.7381   -0.7021 C   0  0  0  0  0  0  0  0  0  0  0  0
    0.0960   -0.5177   -1.8645 O   0  0  0  0  0  0  0  0  0  0  0  0
    1.1267    0.3417   -1.4659 C   0  0  0  0  0  0  0  0  0  0  0  0
    1.6427   -0.3562   -0.2369 C   0  0  0  0  0  0  0  0  0  0  0  0
    2.2795    0.6044    0.7513 C   0  0  0  0  0  0  0  0  0  0  0  0
    0.3527   -0.8878    0.3655 C   0  0  0  0  0  0  0  0  0  0  0  0
    0.0790   -0.2946    1.5601 O   0  0  0  0  0  0  0  0  0  0  0  0
   -2.8152   -0.7388    0.9098 H   0  0  0  0  0  0  0  0  0  0  0  0
   -2.1130    0.8536    1.5139 H   0  0  0  0  0  0  0  0  0  0  0  0
   -3.4723    0.8211    0.3844 H   0  0  0  0  0  0  0  0  0  0  0  0
   -2.2943    0.3200   -1.4715 H   0  0  0  0  0  0  0  0  0  0  0  0
   -1.1712    1.3780   -0.5991 H   0  0  0  0  0  0  0  0  0  0  0  0
   -1.2061   -1.6852   -0.8721 H   0  0  0  0  0  0  0  0  0  0  0  0
    0.7820    1.3357   -1.1901 H   0  0  0  0  0  0  0  0  0  0  0  0
    1.8828    0.4229   -2.2633 H   0  0  0  0  0  0  0  0  0  0  0  0
    2.3288   -1.1622   -0.5487 H   0  0  0  0  0  0  0  0  0  0  0  0
    1.4688    1.2769    1.0974 H   0  0  0  0  0  0  0  0  0  0  0  0
    3.0889    1.1879    0.2438 H   0  0  0  0  0  0  0  0  0  0  0  0
    2.6606   -0.0118    1.5855 H   0  0  0  0  0  0  0  0  0  0  0  0
    0.5426   -1.9839    0.5589 H   0  0  0  0  0  0  0  0  0  0  0  0
   -0.4719   -0.8318    2.1792 H   0  0  0  0  0  0  0  0  0  0  0  0
  1  2  1  0
  2  3  1  0
  3  4  1  0
  4  5  1  0
  5  6  1  0
  6  7  1  0
  6  8  1  0
  8  9  1  0
  8  3  1  0
  1 10  1  0
  1 11  1  0
  1 12  1  0
  2 13  1  0
  2 14  1  0
  3 15  1  0
  5 16  1  0
  5 17  1  0
  6 18  1  0
  7 19  1  0
  7 20  1  0
  7 21  1  0
  8 22  1  0
  9 23  1  0
M  END
