
     RDKit          3D

 25 25  0  0  0  0  0  0  0  0999 V2000
   -2.2990   -1.1863    0.0852 C   0  0  0  0  0  0  0  0  0  0  0  0
   -0.8046   -1.1359    0.1907 C   0  0  0  0  0  0  0  0  0  0  0  0
   -0.2266    0.2246   -0.0341 C   0  0  0  0  0  0  0  0  0  0  0  0
    1.2839    0.2825    0.0711 C   0  0  0  0  0  0  0  0  0  0  0  0
    1.7982   -0.1374    1.4092 C   0  0  0  0  0  0  0  0  0  0  0  0
    1.8248   -0.7088   -0.9575 C   0  0  0  0  0  0  0  0  0  0  0  0
   -1.0078    1.3787    0.4653 C   0  0  0  0  0  0  0  0  0  0  0  0
   -0.8175    1.1754   -1.0129 C   0  0  0  0  0  0  0  0  0  0  0  0
    0.0058    2.1108   -1.6270 O   0  0  0  0  0  0  0  0  0  0  0  0
   -2.8063   -0.6753    0.9104 H   0  0  0  0  0  0  0  0  0  0  0  0
   -2.5926   -2.2639    0.1487 H   0  0  0  0  0  0  0  0  0  0  0  0
   -2.6844   -0.8162   -0.8812 H   0  0  0  0  0  0  0  0  0  0  0  0
   -0.3480   -1.8337   -0.5201 H   0  0  0  0  0  0  0  0  0  0  0  0
   -0.5477   -1.4471    1.2402 H   0  0  0  0  0  0  0  0  0  0  0  0
    1.6746    1.2967   -0.1403 H   0  0  0  0  0  0  0  0  0  0  0  0
    2.8957   -0.2153    1.3439 H   0  0  0  0  0  0  0  0  0  0  0  0
    1.3814   -1.0793    1.7905 H   0  0  0  0  0  0  0  0  0  0  0  0
    1.5815    0.6772    2.1283 H   0  0  0  0  0  0  0  0  0  0  0  0
    1.0786   -0.8498   -1.7902 H   0  0  0  0  0  0  0  0  0  0  0  0
    2.7425   -0.3368   -1.4299 H   0  0  0  0  0  0  0  0  0  0  0  0
    1.9477   -1.7165   -0.5056 H   0  0  0  0  0  0  0  0  0  0  0  0
   -2.0105    1.2084    0.8647 H   0  0  0  0  0  0  0  0  0  0  0  0
   -0.4755    2.2231    0.9691 H   0  0  0  0  0  0  0  0  0  0  0  0
   -1.7074    0.8828   -1.6263 H   0  0  0  0  0  0  0  0  0  0  0  0
    0.1133    2.9420   -1.0922 H   0  0  0  0  0  0  0  0  0  0  0  0
  1  2  1  0
  2  3  1  0
  3  4  1  0
  4  5  1  0
  4  6  1  0
  3  7  1  0
  7  8  1  0
  8  9  1  0
  8  3  1  0
  1 10  1  0
  1 11  1  0
  1 12  1  0
  2 13  1  0
  2 14  1  0
  4 15  1  0
  5 16  1  0
  5 17  1  0
  5 18  1  0
  6 19  1  0
  6 20  1  0
  6 21  1  0
  7 22  1  0
  7 23  1  0
  8 24  1  0
  9 25  1  0
M  END
