
     RDKit          3D

 19 20  0  0  0  0  0  0  0  0999 V2000
   -2.0853   -0.6773   -0.3117 C   0  0  0  0  0  0  0  0  0  0  0  0
   -1.2784    0.4453    0.2467 C   0  0  0  0  0  0  0  0  0  0  0  0
    0.1652    0.2028    0.3789 C   0  0  0  0  0  0  0  0  0  0  0  0
    0.9809    1.3339    0.9419 C   0  0  0  0  0  0  0  0  0  0  0  0
    1.9975    1.1664   -0.1311 C   0  0  0  0  0  0  0  0  0  0  0  0
    3.0625    1.6735   -0.3477 O   0  0  0  0  0  0  0  0  0  0  0  0
    1.1153    0.1496   -0.7448 C   0  0  0  0  0  0  0  0  0  0  0  0
    0.8589   -1.0443    0.0969 C   0  0  0  0  0  0  0  0  0  0  0  0
    0.2738   -2.1259   -0.5237 O   0  0  0  0  0  0  0  0  0  0  0  0
   -1.9148   -1.6490    0.1502 H   0  0  0  0  0  0  0  0  0  0  0  0
   -2.0276   -0.7116   -1.4365 H   0  0  0  0  0  0  0  0  0  0  0  0
   -3.1690   -0.4240   -0.1096 H   0  0  0  0  0  0  0  0  0  0  0  0
   -1.6924    0.6761    1.2722 H   0  0  0  0  0  0  0  0  0  0  0  0
   -1.4627    1.3407   -0.4120 H   0  0  0  0  0  0  0  0  0  0  0  0
    0.4779    2.3196    0.8294 H   0  0  0  0  0  0  0  0  0  0  0  0
    1.3429    1.2159    1.9664 H   0  0  0  0  0  0  0  0  0  0  0  0
    0.8222    0.2155   -1.7947 H   0  0  0  0  0  0  0  0  0  0  0  0
    1.6430   -1.3514    0.8509 H   0  0  0  0  0  0  0  0  0  0  0  0
    0.8901   -2.7557   -0.9216 H   0  0  0  0  0  0  0  0  0  0  0  0
  1  2  1  0
  2  3  1  0
  3  4  1  0
  4  5  1  0
  5  6  2  0
  5  7  1  0
  7  8  1  0
  8  9  1  0
  7  3  1  0
  8  3  1  0
  1 10  1  0
  1 11  1  0
  1 12  1  0
  2 13  1  0
  2 14  1  0
  4 15  1  0
  4 16  1  0
  7 17  1  0
  8 18  1  0
  9 19  1  0
M  END
