
     RDKit          3D

 18 19  0  0  0  0  0  0  0  0999 V2000
    2.4332   -0.0974   -0.4536 C   0  0  0  0  0  0  0  0  0  0  0  0
    1.4328    0.4984    0.4636 C   0  0  0  0  0  0  0  0  0  0  0  0
    0.2509   -0.4181    0.7539 C   0  0  0  0  0  0  0  0  0  0  0  0
   -0.6011    0.2926    1.6345 O   0  0  0  0  0  0  0  0  0  0  0  0
   -1.3057    0.6884    0.5018 C   0  0  0  0  0  0  0  0  0  0  0  0
   -2.2264   -0.3249   -0.0562 C   0  0  0  0  0  0  0  0  0  0  0  0
   -3.0427    0.0195   -1.1336 O   0  0  0  0  0  0  0  0  0  0  0  0
   -0.7975   -0.4590   -0.3111 C   0  0  0  0  0  0  0  0  0  0  0  0
    2.0417   -0.7708   -1.2205 H   0  0  0  0  0  0  0  0  0  0  0  0
    2.9649    0.7575   -0.9668 H   0  0  0  0  0  0  0  0  0  0  0  0
    3.2634   -0.6190    0.1086 H   0  0  0  0  0  0  0  0  0  0  0  0
    1.0444    1.4607    0.0663 H   0  0  0  0  0  0  0  0  0  0  0  0
    1.8946    0.7195    1.4499 H   0  0  0  0  0  0  0  0  0  0  0  0
    0.5400   -1.4013    1.1313 H   0  0  0  0  0  0  0  0  0  0  0  0
   -1.2034    1.7010    0.1017 H   0  0  0  0  0  0  0  0  0  0  0  0
   -2.7750   -0.9308    0.7089 H   0  0  0  0  0  0  0  0  0  0  0  0
   -3.4872   -0.8104   -1.4363 H   0  0  0  0  0  0  0  0  0  0  0  0
   -0.4267   -0.3060   -1.3425 H   0  0  0  0  0  0  0  0  0  0  0  0
  1  2  1  0
  2  3  1  0
  3  4  1  0
  4  5  1  0
  5  6  1  0
  6  7  1  0
  6  8  1  0
  8  3  1  0
  8  5  1  0
  1  9  1  0
  1 10  1  0
  1 11  1  0
  2 12  1  0
  2 13  1  0
  3 14  1  0
  5 15  1  0
  6 16  1  0
  7 17  1  0
  8 18  1  0
M  END
