
     RDKit          3D

 19 22  0  0  0  0  0  0  0  0999 V2000
    2.5350    0.5308    0.2984 C   0  0  0  0  0  0  0  0  0  0  0  0
    1.6246   -0.3233   -0.5860 C   0  0  0  0  0  0  0  0  0  0  0  0
    0.2133   -0.2628   -0.1470 C   0  0  0  0  0  0  0  0  0  0  0  0
   -0.1550   -0.6771    1.1312 O   0  0  0  0  0  0  0  0  0  0  0  0
   -1.5296   -0.4610    1.2025 C   0  0  0  0  0  0  0  0  0  0  0  0
   -2.0780   -0.7144   -0.1256 C   0  0  0  0  0  0  0  0  0  0  0  0
   -1.8565    0.6695    0.3335 C   0  0  0  0  0  0  0  0  0  0  0  0
   -0.7088    0.7824   -0.6025 C   0  0  0  0  0  0  0  0  0  0  0  0
   -0.9060   -0.5967   -1.0372 C   0  0  0  0  0  0  0  0  0  0  0  0
    2.8126   -0.1279    1.1492 H   0  0  0  0  0  0  0  0  0  0  0  0
    3.4115    0.7942   -0.3388 H   0  0  0  0  0  0  0  0  0  0  0  0
    2.0005    1.4502    0.6491 H   0  0  0  0  0  0  0  0  0  0  0  0
    1.6864   -0.0330   -1.6463 H   0  0  0  0  0  0  0  0  0  0  0  0
    1.9658   -1.3862   -0.5222 H   0  0  0  0  0  0  0  0  0  0  0  0
   -2.0571   -0.5532    2.1441 H   0  0  0  0  0  0  0  0  0  0  0  0
   -3.0191   -1.1520   -0.3806 H   0  0  0  0  0  0  0  0  0  0  0  0
   -2.6102    1.4133    0.4853 H   0  0  0  0  0  0  0  0  0  0  0  0
   -0.4780    1.6337   -1.2049 H   0  0  0  0  0  0  0  0  0  0  0  0
   -0.8513   -0.9867   -2.0293 H   0  0  0  0  0  0  0  0  0  0  0  0
  1  2  1  0
  2  3  1  0
  3  4  1  0
  4  5  1  0
  5  6  1  0
  6  7  1  0
  7  8  1  0
  8  9  1  0
  8  3  1  0
  9  3  1  0
  7  5  1  0
  9  6  1  0
  1 10  1  0
  1 11  1  0
  1 12  1  0
  2 13  1  0
  2 14  1  0
  5 15  1  0
  6 16  1  0
  7 17  1  0
  8 18  1  0
  9 19  1  0
M  END
