
     RDKit          3D

 25 26  0  0  0  0  0  0  0  0999 V2000
   -2.8751   -0.2450    0.3994 C   0  0  0  0  0  0  0  0  0  0  0  0
   -1.4223   -0.5497    0.6908 C   0  0  0  0  0  0  0  0  0  0  0  0
   -0.5705    0.4122   -0.0554 C   0  0  0  0  0  0  0  0  0  0  0  0
   -0.7957    0.3167   -1.5554 C   0  0  0  0  0  0  0  0  0  0  0  0
    0.7040    0.0354   -1.7307 C   0  0  0  0  0  0  0  0  0  0  0  0
    0.8480    0.0998   -0.2658 C   0  0  0  0  0  0  0  0  0  0  0  0
    1.5073   -0.9861    0.4641 C   0  0  0  0  0  0  0  0  0  0  0  0
    2.0793    0.0622    1.4270 C   0  0  0  0  0  0  0  0  0  0  0  0
    1.8085    1.0873    0.3149 C   0  0  0  0  0  0  0  0  0  0  0  0
   -3.5531   -1.0715    0.7169 H   0  0  0  0  0  0  0  0  0  0  0  0
   -2.9848   -0.0184   -0.6744 H   0  0  0  0  0  0  0  0  0  0  0  0
   -3.1508    0.6896    0.9513 H   0  0  0  0  0  0  0  0  0  0  0  0
   -1.2233   -0.5037    1.7848 H   0  0  0  0  0  0  0  0  0  0  0  0
   -1.1542   -1.5746    0.3742 H   0  0  0  0  0  0  0  0  0  0  0  0
   -0.7203    1.4473    0.3193 H   0  0  0  0  0  0  0  0  0  0  0  0
   -1.1076    1.2735   -2.0246 H   0  0  0  0  0  0  0  0  0  0  0  0
   -1.4239   -0.5109   -1.8921 H   0  0  0  0  0  0  0  0  0  0  0  0
    0.8591   -1.0143   -2.1059 H   0  0  0  0  0  0  0  0  0  0  0  0
    1.2476    0.8122   -2.2715 H   0  0  0  0  0  0  0  0  0  0  0  0
    2.3728   -1.4394   -0.1037 H   0  0  0  0  0  0  0  0  0  0  0  0
    0.9303   -1.7788    0.9261 H   0  0  0  0  0  0  0  0  0  0  0  0
    3.1425   -0.0449    1.6447 H   0  0  0  0  0  0  0  0  0  0  0  0
    1.4065    0.2200    2.2943 H   0  0  0  0  0  0  0  0  0  0  0  0
    2.7165    1.2452   -0.3182 H   0  0  0  0  0  0  0  0  0  0  0  0
    1.3593    2.0362    0.6901 H   0  0  0  0  0  0  0  0  0  0  0  0
  1  2  1  0
  2  3  1  0
  3  4  1  0
  4  5  1  0
  5  6  1  0
  6  7  1  0
  7  8  1  0
  8  9  1  0
  6  3  1  0
  9  6  1  0
  1 10  1  0
  1 11  1  0
  1 12  1  0
  2 13  1  0
  2 14  1  0
  3 15  1  0
  4 16  1  0
  4 17  1  0
  5 18  1  0
  5 19  1  0
  7 20  1  0
  7 21  1  0
  8 22  1  0
  8 23  1  0
  9 24  1  0
  9 25  1  0
M  END
