
     RDKit          3D

 20 20  0  0  0  0  0  0  0  0999 V2000
   -2.4812   -0.0795    0.1643 C   0  0  0  0  0  0  0  0  0  0  0  0
   -1.2636   -0.3727   -0.6869 C   0  0  0  0  0  0  0  0  0  0  0  0
   -0.0592   -0.3102    0.2249 C   0  0  0  0  0  0  0  0  0  0  0  0
    0.1725    0.9969    0.9088 C   0  0  0  0  0  0  0  0  0  0  0  0
    1.4941    1.0980    0.1374 C   0  0  0  0  0  0  0  0  0  0  0  0
    1.1851   -0.1680   -0.6213 C   0  0  0  0  0  0  0  0  0  0  0  0
    2.1000   -1.2925   -0.3857 C   0  0  0  0  0  0  0  0  0  0  0  0
    2.5935   -1.4426    0.7067 O   0  0  0  0  0  0  0  0  0  0  0  0
   -2.3383   -0.6547    1.1138 H   0  0  0  0  0  0  0  0  0  0  0  0
   -2.4579    0.9831    0.4255 H   0  0  0  0  0  0  0  0  0  0  0  0
   -3.3935   -0.3772   -0.3587 H   0  0  0  0  0  0  0  0  0  0  0  0
   -1.2865   -1.3955   -1.1094 H   0  0  0  0  0  0  0  0  0  0  0  0
   -1.1725    0.4079   -1.4681 H   0  0  0  0  0  0  0  0  0  0  0  0
   -0.0589   -1.1840    0.8994 H   0  0  0  0  0  0  0  0  0  0  0  0
   -0.5698    1.7491    0.6417 H   0  0  0  0  0  0  0  0  0  0  0  0
    0.3592    0.9359    2.0141 H   0  0  0  0  0  0  0  0  0  0  0  0
    1.4580    1.9975   -0.5098 H   0  0  0  0  0  0  0  0  0  0  0  0
    2.3755    1.0602    0.7803 H   0  0  0  0  0  0  0  0  0  0  0  0
    1.0154    0.0244   -1.6969 H   0  0  0  0  0  0  0  0  0  0  0  0
    2.3280   -1.9761   -1.1800 H   0  0  0  0  0  0  0  0  0  0  0  0
  1  2  1  0
  2  3  1  0
  3  4  1  0
  4  5  1  0
  5  6  1  0
  6  7  1  0
  7  8  2  0
  6  3  1  0
  1  9  1  0
  1 10  1  0
  1 11  1  0
  2 12  1  0
  2 13  1  0
  3 14  1  0
  4 15  1  0
  4 16  1  0
  5 17  1  0
  5 18  1  0
  6 19  1  0
  7 20  1  0
M  END
