
     RDKit          3D

 25 25  0  0  0  0  0  0  0  0999 V2000
    3.0635    0.9224    0.2541 C   0  0  0  0  0  0  0  0  0  0  0  0
    2.2881   -0.3152   -0.1361 C   0  0  0  0  0  0  0  0  0  0  0  0
    0.8716    0.0373   -0.5330 C   0  0  0  0  0  0  0  0  0  0  0  0
    0.1033   -1.1956   -0.9206 C   0  0  0  0  0  0  0  0  0  0  0  0
   -0.9444   -1.4360    0.1144 C   0  0  0  0  0  0  0  0  0  0  0  0
   -1.2487   -0.0387    0.6359 C   0  0  0  0  0  0  0  0  0  0  0  0
   -2.2302    0.5007   -0.1132 O   0  0  0  0  0  0  0  0  0  0  0  0
   -3.4227    0.7813    0.4891 C   0  0  0  0  0  0  0  0  0  0  0  0
    0.0875    0.6114    0.6114 C   0  0  0  0  0  0  0  0  0  0  0  0
    3.4879    1.4357   -0.6359 H   0  0  0  0  0  0  0  0  0  0  0  0
    2.3405    1.6061    0.7759 H   0  0  0  0  0  0  0  0  0  0  0  0
    3.8980    0.6728    0.9098 H   0  0  0  0  0  0  0  0  0  0  0  0
    2.8277   -0.8025   -0.9507 H   0  0  0  0  0  0  0  0  0  0  0  0
    2.3117   -1.0000    0.7482 H   0  0  0  0  0  0  0  0  0  0  0  0
    0.9255    0.7841   -1.3388 H   0  0  0  0  0  0  0  0  0  0  0  0
    0.8001   -2.0745   -1.0270 H   0  0  0  0  0  0  0  0  0  0  0  0
   -0.3581   -0.9924   -1.9162 H   0  0  0  0  0  0  0  0  0  0  0  0
   -1.8567   -1.8232   -0.4254 H   0  0  0  0  0  0  0  0  0  0  0  0
   -0.6430   -2.0837    0.9429 H   0  0  0  0  0  0  0  0  0  0  0  0
   -1.6050   -0.1699    1.6839 H   0  0  0  0  0  0  0  0  0  0  0  0
   -3.3665    1.4973    1.3242 H   0  0  0  0  0  0  0  0  0  0  0  0
   -4.0799    1.2579   -0.2825 H   0  0  0  0  0  0  0  0  0  0  0  0
   -3.9605   -0.1466    0.7920 H   0  0  0  0  0  0  0  0  0  0  0  0
    0.0828    1.7061    0.6536 H   0  0  0  0  0  0  0  0  0  0  0  0
    0.6275    0.2651    1.5440 H   0  0  0  0  0  0  0  0  0  0  0  0
  1  2  1  0
  2  3  1  0
  3  4  1  0
  4  5  1  0
  5  6  1  0
  6  7  1  0
  7  8  1  0
  6  9  1  0
  9  3  1  0
  1 10  1  0
  1 11  1  0
  1 12  1  0
  2 13  1  0
  2 14  1  0
  3 15  1  0
  4 16  1  0
  4 17  1  0
  5 18  1  0
  5 19  1  0
  6 20  1  0
  8 21  1  0
  8 22  1  0
  8 23  1  0
  9 24  1  0
  9 25  1  0
M  END
