
     RDKit          3D

 21 23  0  0  0  0  0  0  0  0999 V2000
    2.5457    0.7424    0.0333 C   0  0  0  0  0  0  0  0  0  0  0  0
    1.2256    0.5643   -0.6480 C   0  0  0  0  0  0  0  0  0  0  0  0
    0.6354   -0.7692   -0.3165 C   0  0  0  0  0  0  0  0  0  0  0  0
   -0.6964   -1.0537   -0.9508 C   0  0  0  0  0  0  0  0  0  0  0  0
   -0.9898   -1.8120    0.1877 O   0  0  0  0  0  0  0  0  0  0  0  0
   -0.2516   -0.8310    0.8937 C   0  0  0  0  0  0  0  0  0  0  0  0
   -1.1808    0.3481    0.8085 C   0  0  0  0  0  0  0  0  0  0  0  0
   -2.5980    0.1162    0.3094 C   0  0  0  0  0  0  0  0  0  0  0  0
   -1.5381    0.1813   -0.7133 C   0  0  0  0  0  0  0  0  0  0  0  0
    3.3867    0.7840   -0.7097 H   0  0  0  0  0  0  0  0  0  0  0  0
    2.6105    1.6906    0.6103 H   0  0  0  0  0  0  0  0  0  0  0  0
    2.7586   -0.1077    0.7335 H   0  0  0  0  0  0  0  0  0  0  0  0
    1.3832    0.6144   -1.7452 H   0  0  0  0  0  0  0  0  0  0  0  0
    0.4868    1.3497   -0.3847 H   0  0  0  0  0  0  0  0  0  0  0  0
    1.3282   -1.6025   -0.3769 H   0  0  0  0  0  0  0  0  0  0  0  0
   -0.7370   -1.5298   -1.9054 H   0  0  0  0  0  0  0  0  0  0  0  0
    0.1576   -1.1154    1.8373 H   0  0  0  0  0  0  0  0  0  0  0  0
   -0.8827    1.3423    1.1278 H   0  0  0  0  0  0  0  0  0  0  0  0
   -2.9868   -0.9220    0.5122 H   0  0  0  0  0  0  0  0  0  0  0  0
   -3.2978    0.9447    0.4109 H   0  0  0  0  0  0  0  0  0  0  0  0
   -1.3593    1.0654   -1.3329 H   0  0  0  0  0  0  0  0  0  0  0  0
  1  2  1  0
  2  3  1  0
  3  4  1  0
  4  5  1  0
  5  6  1  0
  6  7  1  0
  7  8  1  0
  8  9  1  0
  6  3  1  0
  9  7  1  0
  9  4  1  0
  1 10  1  0
  1 11  1  0
  1 12  1  0
  2 13  1  0
  2 14  1  0
  3 15  1  0
  4 16  1  0
  6 17  1  0
  7 18  1  0
  8 19  1  0
  8 20  1  0
  9 21  1  0
M  END
