
     RDKit          3D

 23 24  0  0  0  0  0  0  0  0999 V2000
   -2.6856    0.5221   -0.0009 C   0  0  0  0  0  0  0  0  0  0  0  0
   -1.1800    0.7110   -0.2232 C   0  0  0  0  0  0  0  0  0  0  0  0
   -0.4873   -0.5700    0.0414 C   0  0  0  0  0  0  0  0  0  0  0  0
   -0.5810   -1.2194    1.4089 C   0  0  0  0  0  0  0  0  0  0  0  0
    0.8242   -1.3655    1.3530 O   0  0  0  0  0  0  0  0  0  0  0  0
    0.9255   -0.7964    0.1062 C   0  0  0  0  0  0  0  0  0  0  0  0
    2.0278    0.0501   -0.3286 C   0  0  0  0  0  0  0  0  0  0  0  0
    2.1316    1.3997    0.3105 C   0  0  0  0  0  0  0  0  0  0  0  0
    0.0593   -1.4382   -1.0265 C   0  0  0  0  0  0  0  0  0  0  0  0
   -2.9689   -0.5492   -0.0541 H   0  0  0  0  0  0  0  0  0  0  0  0
   -3.2223    1.1159   -0.7812 H   0  0  0  0  0  0  0  0  0  0  0  0
   -3.0077    0.9237    0.9738 H   0  0  0  0  0  0  0  0  0  0  0  0
   -0.9986    1.0245   -1.2510 H   0  0  0  0  0  0  0  0  0  0  0  0
   -0.8778    1.4961    0.5051 H   0  0  0  0  0  0  0  0  0  0  0  0
   -1.0321   -2.2439    1.4020 H   0  0  0  0  0  0  0  0  0  0  0  0
   -0.9325   -0.5595    2.2072 H   0  0  0  0  0  0  0  0  0  0  0  0
    2.0046    0.1915   -1.4209 H   0  0  0  0  0  0  0  0  0  0  0  0
    3.0044   -0.4781   -0.1203 H   0  0  0  0  0  0  0  0  0  0  0  0
    2.2193    1.3370    1.4250 H   0  0  0  0  0  0  0  0  0  0  0  0
    3.1253    1.8306   -0.0157 H   0  0  0  0  0  0  0  0  0  0  0  0
    1.3790    2.1240   -0.0166 H   0  0  0  0  0  0  0  0  0  0  0  0
    0.0820   -2.5296   -0.9445 H   0  0  0  0  0  0  0  0  0  0  0  0
    0.1909   -0.9763   -2.0128 H   0  0  0  0  0  0  0  0  0  0  0  0
  1  2  1  0
  2  3  1  0
  3  4  1  0
  4  5  1  0
  5  6  1  0
  6  7  1  0
  7  8  1  0
  6  9  1  0
  6  3  1  0
  9  3  1  0
  1 10  1  0
  1 11  1  0
  1 12  1  0
  2 13  1  0
  2 14  1  0
  4 15  1  0
  4 16  1  0
  7 17  1  0
  7 18  1  0
  8 19  1  0
  8 20  1  0
  8 21  1  0
  9 22  1  0
  9 23  1  0
M  END
