
     RDKit          3D

 20 20  0  0  0  0  0  0  0  0999 V2000
    1.5097   -1.3314    0.3059 C   0  0  0  0  0  0  0  0  0  0  0  0
    1.2478   -0.2619   -0.7059 C   0  0  0  0  0  0  0  0  0  0  0  0
    0.0274    0.5718   -0.4615 C   0  0  0  0  0  0  0  0  0  0  0  0
   -1.2870   -0.1071   -0.4356 C   0  0  0  0  0  0  0  0  0  0  0  0
   -1.8140   -1.1794    0.3630 C   0  0  0  0  0  0  0  0  0  0  0  0
   -2.1000    0.4035   -1.2922 O   0  0  0  0  0  0  0  0  0  0  0  0
    0.2202    1.4531    0.7993 C   0  0  0  0  0  0  0  0  0  0  0  0
   -0.0293    2.0542   -0.5936 C   0  0  0  0  0  0  0  0  0  0  0  0
    2.3458   -1.0076    1.0187 H   0  0  0  0  0  0  0  0  0  0  0  0
    1.8500   -2.2978   -0.1738 H   0  0  0  0  0  0  0  0  0  0  0  0
    0.5918   -1.5472    0.8700 H   0  0  0  0  0  0  0  0  0  0  0  0
    2.1758    0.3872   -0.8620 H   0  0  0  0  0  0  0  0  0  0  0  0
    1.1962   -0.8125   -1.7049 H   0  0  0  0  0  0  0  0  0  0  0  0
   -1.7830   -0.9266    1.5040 H   0  0  0  0  0  0  0  0  0  0  0  0
   -1.5162   -2.2058    0.1473 H   0  0  0  0  0  0  0  0  0  0  0  0
   -2.9589   -1.2026    0.2317 H   0  0  0  0  0  0  0  0  0  0  0  0
   -0.6441    1.3762    1.4811 H   0  0  0  0  0  0  0  0  0  0  0  0
    1.2237    1.4076    1.2173 H   0  0  0  0  0  0  0  0  0  0  0  0
    0.7822    2.6765   -0.9892 H   0  0  0  0  0  0  0  0  0  0  0  0
   -1.0381    2.5498   -0.7194 H   0  0  0  0  0  0  0  0  0  0  0  0
  1  2  1  0
  2  3  1  0
  3  4  1  0
  4  5  1  0
  4  6  2  0
  3  7  1  0
  7  8  1  0
  8  3  1  0
  1  9  1  0
  1 10  1  0
  1 11  1  0
  2 12  1  0
  2 13  1  0
  5 14  1  0
  5 15  1  0
  5 16  1  0
  7 17  1  0
  7 18  1  0
  8 19  1  0
  8 20  1  0
M  END
