
     RDKit          3D

 19 19  0  0  0  0  0  0  0  0999 V2000
   -2.3520   -0.4138   -0.1892 C   0  0  0  0  0  0  0  0  0  0  0  0
   -1.0464    0.0756   -0.7336 C   0  0  0  0  0  0  0  0  0  0  0  0
   -0.0312    0.3685    0.3399 C   0  0  0  0  0  0  0  0  0  0  0  0
    0.3022   -0.8278    1.1724 C   0  0  0  0  0  0  0  0  0  0  0  0
    1.1831   -1.5522    0.3458 O   0  0  0  0  0  0  0  0  0  0  0  0
    2.0690   -0.6253   -0.1815 C   0  0  0  0  0  0  0  0  0  0  0  0
    3.2870   -0.7358   -0.4870 O   0  0  0  0  0  0  0  0  0  0  0  0
    1.3074    0.6378   -0.3524 C   0  0  0  0  0  0  0  0  0  0  0  0
    1.9028    1.7192    0.2625 O   0  0  0  0  0  0  0  0  0  0  0  0
   -2.4856   -1.5109   -0.2767 H   0  0  0  0  0  0  0  0  0  0  0  0
   -2.4840   -0.1174    0.8784 H   0  0  0  0  0  0  0  0  0  0  0  0
   -3.2386    0.0395   -0.7146 H   0  0  0  0  0  0  0  0  0  0  0  0
   -0.6309   -0.5911   -1.5292 H   0  0  0  0  0  0  0  0  0  0  0  0
   -1.2498    1.0475   -1.2561 H   0  0  0  0  0  0  0  0  0  0  0  0
   -0.3615    1.2472    0.9198 H   0  0  0  0  0  0  0  0  0  0  0  0
   -0.5831   -1.4178    1.4751 H   0  0  0  0  0  0  0  0  0  0  0  0
    0.8428   -0.4589    2.0844 H   0  0  0  0  0  0  0  0  0  0  0  0
    1.1462    0.8244   -1.4330 H   0  0  0  0  0  0  0  0  0  0  0  0
    2.4229    2.2912   -0.3249 H   0  0  0  0  0  0  0  0  0  0  0  0
  1  2  1  0
  2  3  1  0
  3  4  1  0
  4  5  1  0
  5  6  1  0
  6  7  2  0
  6  8  1  0
  8  9  1  0
  8  3  1  0
  1 10  1  0
  1 11  1  0
  1 12  1  0
  2 13  1  0
  2 14  1  0
  3 15  1  0
  4 16  1  0
  4 17  1  0
  8 18  1  0
  9 19  1  0
M  END
