
     RDKit          3D

 25 25  0  0  0  0  0  0  0  0999 V2000
    1.9453    1.0026    0.9142 C   0  0  0  0  0  0  0  0  0  0  0  0
    1.4205    0.9834   -0.4774 C   0  0  0  0  0  0  0  0  0  0  0  0
    0.4933   -0.1363   -0.7949 C   0  0  0  0  0  0  0  0  0  0  0  0
    1.0753   -1.5228   -0.6317 C   0  0  0  0  0  0  0  0  0  0  0  0
   -0.3043   -1.9616   -0.1668 C   0  0  0  0  0  0  0  0  0  0  0  0
   -0.5440   -0.4918    0.2077 C   0  0  0  0  0  0  0  0  0  0  0  0
   -0.2247   -0.3146    1.5430 O   0  0  0  0  0  0  0  0  0  0  0  0
   -1.9502   -0.0670   -0.0657 C   0  0  0  0  0  0  0  0  0  0  0  0
   -2.0494    1.4396   -0.1860 C   0  0  0  0  0  0  0  0  0  0  0  0
    2.2764    0.0467    1.3166 H   0  0  0  0  0  0  0  0  0  0  0  0
    2.8564    1.6714    0.9143 H   0  0  0  0  0  0  0  0  0  0  0  0
    1.2109    1.5296    1.5549 H   0  0  0  0  0  0  0  0  0  0  0  0
    2.3111    0.8782   -1.1645 H   0  0  0  0  0  0  0  0  0  0  0  0
    0.9708    1.9448   -0.7130 H   0  0  0  0  0  0  0  0  0  0  0  0
    0.0197    0.0348   -1.7948 H   0  0  0  0  0  0  0  0  0  0  0  0
    1.8439   -1.5687    0.1511 H   0  0  0  0  0  0  0  0  0  0  0  0
    1.3756   -1.9436   -1.6119 H   0  0  0  0  0  0  0  0  0  0  0  0
   -0.3099   -2.6499    0.6828 H   0  0  0  0  0  0  0  0  0  0  0  0
   -0.9353   -2.2580   -1.0255 H   0  0  0  0  0  0  0  0  0  0  0  0
   -0.2225   -1.1577    2.0668 H   0  0  0  0  0  0  0  0  0  0  0  0
   -2.3923   -0.5734   -0.9472 H   0  0  0  0  0  0  0  0  0  0  0  0
   -2.5622   -0.3544    0.8250 H   0  0  0  0  0  0  0  0  0  0  0  0
   -1.2012    1.9626    0.3069 H   0  0  0  0  0  0  0  0  0  0  0  0
   -2.1371    1.6935   -1.2587 H   0  0  0  0  0  0  0  0  0  0  0  0
   -2.9662    1.8128    0.3546 H   0  0  0  0  0  0  0  0  0  0  0  0
  1  2  1  0
  2  3  1  0
  3  4  1  0
  4  5  1  0
  5  6  1  0
  6  7  1  0
  6  8  1  0
  8  9  1  0
  6  3  1  0
  1 10  1  0
  1 11  1  0
  1 12  1  0
  2 13  1  0
  2 14  1  0
  3 15  1  0
  4 16  1  0
  4 17  1  0
  5 18  1  0
  5 19  1  0
  7 20  1  0
  8 21  1  0
  8 22  1  0
  9 23  1  0
  9 24  1  0
  9 25  1  0
M  END
