
     RDKit          3D

 20 21  0  0  0  0  0  0  0  0999 V2000
    2.5180    0.7603    0.3290 C   0  0  0  0  0  0  0  0  0  0  0  0
    1.3545    0.3741   -0.5945 C   0  0  0  0  0  0  0  0  0  0  0  0
    0.4190   -0.5751    0.0706 C   0  0  0  0  0  0  0  0  0  0  0  0
   -0.1772   -0.0664    1.2581 O   0  0  0  0  0  0  0  0  0  0  0  0
   -1.0554   -1.1280    1.0501 C   0  0  0  0  0  0  0  0  0  0  0  0
   -2.1111   -1.2752    0.0956 C   0  0  0  0  0  0  0  0  0  0  0  0
   -1.0460   -0.4319   -0.3698 C   0  0  0  0  0  0  0  0  0  0  0  0
   -1.4213    1.0580   -0.3361 C   0  0  0  0  0  0  0  0  0  0  0  0
    2.1940    1.5056    1.0618 H   0  0  0  0  0  0  0  0  0  0  0  0
    2.9321   -0.1502    0.8314 H   0  0  0  0  0  0  0  0  0  0  0  0
    3.2968    1.2319   -0.3107 H   0  0  0  0  0  0  0  0  0  0  0  0
    0.9125    1.2881   -0.9804 H   0  0  0  0  0  0  0  0  0  0  0  0
    1.8249   -0.1579   -1.4452 H   0  0  0  0  0  0  0  0  0  0  0  0
    0.8127   -1.5815    0.1205 H   0  0  0  0  0  0  0  0  0  0  0  0
   -0.4200   -2.0663    1.1305 H   0  0  0  0  0  0  0  0  0  0  0  0
   -2.2708   -2.2272   -0.4931 H   0  0  0  0  0  0  0  0  0  0  0  0
   -3.1241   -0.8750    0.4034 H   0  0  0  0  0  0  0  0  0  0  0  0
   -1.5101    1.3833   -1.3992 H   0  0  0  0  0  0  0  0  0  0  0  0
   -0.7146    1.6949    0.1809 H   0  0  0  0  0  0  0  0  0  0  0  0
   -2.4140    1.2386    0.1232 H   0  0  0  0  0  0  0  0  0  0  0  0
  1  2  1  0
  2  3  1  0
  3  4  1  0
  4  5  1  0
  5  6  1  0
  6  7  1  0
  7  8  1  0
  7  3  1  0
  7  5  1  0
  1  9  1  0
  1 10  1  0
  1 11  1  0
  2 12  1  0
  2 13  1  0
  3 14  1  0
  5 15  1  0
  6 16  1  0
  6 17  1  0
  8 18  1  0
  8 19  1  0
  8 20  1  0
M  END
