
     RDKit          3D

 21 21  0  0  0  0  0  0  0  0999 V2000
   -2.6899    0.4588   -0.0456 C   0  0  0  0  0  0  0  0  0  0  0  0
   -1.5925   -0.1427   -0.8997 C   0  0  0  0  0  0  0  0  0  0  0  0
   -0.2498    0.0397   -0.2808 C   0  0  0  0  0  0  0  0  0  0  0  0
    0.7394    0.6962   -0.8577 C   0  0  0  0  0  0  0  0  0  0  0  0
    1.9080    0.6758    0.0382 C   0  0  0  0  0  0  0  0  0  0  0  0
    3.1099    0.5903   -0.6603 O   0  0  0  0  0  0  0  0  0  0  0  0
    1.6850   -0.5003    0.9424 C   0  0  0  0  0  0  0  0  0  0  0  0
    0.1453   -0.4958    1.0436 C   0  0  0  0  0  0  0  0  0  0  0  0
   -0.2556   -1.8071    1.2421 O   0  0  0  0  0  0  0  0  0  0  0  0
   -3.1224   -0.3789    0.5417 H   0  0  0  0  0  0  0  0  0  0  0  0
   -2.2610    1.2053    0.6718 H   0  0  0  0  0  0  0  0  0  0  0  0
   -3.4443    0.9921   -0.6579 H   0  0  0  0  0  0  0  0  0  0  0  0
   -1.7378   -1.2382   -1.0162 H   0  0  0  0  0  0  0  0  0  0  0  0
   -1.6628    0.3212   -1.8916 H   0  0  0  0  0  0  0  0  0  0  0  0
    0.7013    1.1885   -1.8616 H   0  0  0  0  0  0  0  0  0  0  0  0
    1.8591    1.5863    0.6679 H   0  0  0  0  0  0  0  0  0  0  0  0
    2.9855    0.7569   -1.6393 H   0  0  0  0  0  0  0  0  0  0  0  0
    2.1389   -0.3574    1.9522 H   0  0  0  0  0  0  0  0  0  0  0  0
    2.0121   -1.4352    0.4517 H   0  0  0  0  0  0  0  0  0  0  0  0
   -0.1094    0.1489    1.8844 H   0  0  0  0  0  0  0  0  0  0  0  0
   -0.1589   -2.3045    0.3749 H   0  0  0  0  0  0  0  0  0  0  0  0
  1  2  1  0
  2  3  1  0
  3  4  2  0
  4  5  1  0
  5  6  1  0
  5  7  1  0
  7  8  1  0
  8  9  1  0
  8  3  1  0
  1 10  1  0
  1 11  1  0
  1 12  1  0
  2 13  1  0
  2 14  1  0
  4 15  1  0
  5 16  1  0
  6 17  1  0
  7 18  1  0
  7 19  1  0
  8 20  1  0
  9 21  1  0
M  END
