
     RDKit          3D

 17 17  0  0  0  0  0  0  0  0999 V2000
    1.9120    0.8338   -0.1527 C   0  0  0  0  0  0  0  0  0  0  0  0
    1.0847   -0.4161   -0.1152 C   0  0  0  0  0  0  0  0  0  0  0  0
   -0.1244   -0.2970    0.7810 C   0  0  0  0  0  0  0  0  0  0  0  0
   -1.0401    0.7818    0.3603 C   0  0  0  0  0  0  0  0  0  0  0  0
   -1.0866    1.9050    0.7910 O   0  0  0  0  0  0  0  0  0  0  0  0
   -1.8982    0.2181   -0.7002 C   0  0  0  0  0  0  0  0  0  0  0  0
   -2.0175   -1.1357   -0.3173 O   0  0  0  0  0  0  0  0  0  0  0  0
   -0.9672   -1.5162    0.5061 C   0  0  0  0  0  0  0  0  0  0  0  0
   -0.6990   -2.6523    0.9792 O   0  0  0  0  0  0  0  0  0  0  0  0
    1.9781    1.3498    0.8264 H   0  0  0  0  0  0  0  0  0  0  0  0
    1.5656    1.5221   -0.9662 H   0  0  0  0  0  0  0  0  0  0  0  0
    2.9582    0.5487   -0.4569 H   0  0  0  0  0  0  0  0  0  0  0  0
    1.6905   -1.2682    0.2623 H   0  0  0  0  0  0  0  0  0  0  0  0
    0.7800   -0.6588   -1.1480 H   0  0  0  0  0  0  0  0  0  0  0  0
    0.1509   -0.2568    1.8338 H   0  0  0  0  0  0  0  0  0  0  0  0
   -1.4071    0.3300   -1.7031 H   0  0  0  0  0  0  0  0  0  0  0  0
   -2.8797    0.7117   -0.7807 H   0  0  0  0  0  0  0  0  0  0  0  0
  1  2  1  0
  2  3  1  0
  3  4  1  0
  4  5  2  0
  4  6  1  0
  6  7  1  0
  7  8  1  0
  8  9  2  0
  8  3  1  0
  1 10  1  0
  1 11  1  0
  1 12  1  0
  2 13  1  0
  2 14  1  0
  3 15  1  0
  6 16  1  0
  6 17  1  0
M  END
