
     RDKit          3D

 25 25  0  0  0  0  0  0  0  0999 V2000
   -2.7708    0.1119    0.3718 C   0  0  0  0  0  0  0  0  0  0  0  0
   -1.6799   -0.9059    0.1238 C   0  0  0  0  0  0  0  0  0  0  0  0
   -0.4983   -0.2582   -0.6171 C   0  0  0  0  0  0  0  0  0  0  0  0
    0.5643   -1.2440   -0.8601 C   0  0  0  0  0  0  0  0  0  0  0  0
    1.8560   -1.0466   -0.1492 C   0  0  0  0  0  0  0  0  0  0  0  0
    2.2077    0.3781    0.1269 C   0  0  0  0  0  0  0  0  0  0  0  0
    1.0475    0.9157    0.9788 C   0  0  0  0  0  0  0  0  0  0  0  0
   -0.0986    1.0260    0.0190 C   0  0  0  0  0  0  0  0  0  0  0  0
    0.2643    1.9942   -0.9259 O   0  0  0  0  0  0  0  0  0  0  0  0
   -2.8074    0.8703   -0.4340 H   0  0  0  0  0  0  0  0  0  0  0  0
   -3.7480   -0.4185    0.3460 H   0  0  0  0  0  0  0  0  0  0  0  0
   -2.6346    0.5377    1.3784 H   0  0  0  0  0  0  0  0  0  0  0  0
   -1.3669   -1.4171    1.0319 H   0  0  0  0  0  0  0  0  0  0  0  0
   -2.0704   -1.6840   -0.5778 H   0  0  0  0  0  0  0  0  0  0  0  0
   -0.9478    0.0265   -1.6167 H   0  0  0  0  0  0  0  0  0  0  0  0
    0.8076   -1.3477   -1.9596 H   0  0  0  0  0  0  0  0  0  0  0  0
    0.1889   -2.2733   -0.5794 H   0  0  0  0  0  0  0  0  0  0  0  0
    1.8855   -1.5938    0.8202 H   0  0  0  0  0  0  0  0  0  0  0  0
    2.7089   -1.4843   -0.7472 H   0  0  0  0  0  0  0  0  0  0  0  0
    2.2711    0.9966   -0.7925 H   0  0  0  0  0  0  0  0  0  0  0  0
    3.1358    0.3929    0.7297 H   0  0  0  0  0  0  0  0  0  0  0  0
    1.2760    1.9334    1.3456 H   0  0  0  0  0  0  0  0  0  0  0  0
    0.8354    0.2089    1.7967 H   0  0  0  0  0  0  0  0  0  0  0  0
   -0.9550    1.4739    0.5889 H   0  0  0  0  0  0  0  0  0  0  0  0
    0.5285    2.8075   -0.3981 H   0  0  0  0  0  0  0  0  0  0  0  0
  1  2  1  0
  2  3  1  0
  3  4  1  0
  4  5  1  0
  5  6  1  0
  6  7  1  0
  7  8  1  0
  8  9  1  0
  8  3  1  0
  1 10  1  0
  1 11  1  0
  1 12  1  0
  2 13  1  0
  2 14  1  0
  3 15  1  0
  4 16  1  0
  4 17  1  0
  5 18  1  0
  5 19  1  0
  6 20  1  0
  6 21  1  0
  7 22  1  0
  7 23  1  0
  8 24  1  0
  9 25  1  0
M  END
