
     RDKit          3D

 25 25  0  0  0  0  0  0  0  0999 V2000
    2.4392   -0.3531    0.8960 C   0  0  0  0  0  0  0  0  0  0  0  0
    0.9607   -0.0807    1.0781 C   0  0  0  0  0  0  0  0  0  0  0  0
    0.2789    0.2874   -0.1967 C   0  0  0  0  0  0  0  0  0  0  0  0
    0.8618    1.5361   -0.8259 C   0  0  0  0  0  0  0  0  0  0  0  0
    0.4224   -0.8608   -1.2057 C   0  0  0  0  0  0  0  0  0  0  0  0
   -0.9926   -1.2531   -0.8469 C   0  0  0  0  0  0  0  0  0  0  0  0
   -1.1746    0.1666   -0.3110 C   0  0  0  0  0  0  0  0  0  0  0  0
   -2.0435    0.1901    0.8888 C   0  0  0  0  0  0  0  0  0  0  0  0
   -3.3795    0.0579    0.5051 O   0  0  0  0  0  0  0  0  0  0  0  0
    2.7202   -0.4923   -0.1574 H   0  0  0  0  0  0  0  0  0  0  0  0
    3.0654    0.4647    1.3045 H   0  0  0  0  0  0  0  0  0  0  0  0
    2.7649   -1.2806    1.4289 H   0  0  0  0  0  0  0  0  0  0  0  0
    0.8644    0.6540    1.8817 H   0  0  0  0  0  0  0  0  0  0  0  0
    0.5242   -1.0363    1.4764 H   0  0  0  0  0  0  0  0  0  0  0  0
    1.8803    1.3555   -1.2412 H   0  0  0  0  0  0  0  0  0  0  0  0
    0.8180    2.4074   -0.1646 H   0  0  0  0  0  0  0  0  0  0  0  0
    0.2212    1.7723   -1.7147 H   0  0  0  0  0  0  0  0  0  0  0  0
    1.1316   -1.6381   -0.8997 H   0  0  0  0  0  0  0  0  0  0  0  0
    0.4844   -0.5251   -2.2517 H   0  0  0  0  0  0  0  0  0  0  0  0
   -1.0821   -1.9861   -0.0191 H   0  0  0  0  0  0  0  0  0  0  0  0
   -1.6445   -1.5057   -1.7035 H   0  0  0  0  0  0  0  0  0  0  0  0
   -1.5817    0.7965   -1.1395 H   0  0  0  0  0  0  0  0  0  0  0  0
   -1.9763    1.0915    1.5081 H   0  0  0  0  0  0  0  0  0  0  0  0
   -1.8155   -0.6854    1.5354 H   0  0  0  0  0  0  0  0  0  0  0  0
   -3.7472    0.9174    0.1747 H   0  0  0  0  0  0  0  0  0  0  0  0
  1  2  1  0
  2  3  1  0
  3  4  1  0
  3  5  1  0
  5  6  1  0
  6  7  1  0
  7  8  1  0
  8  9  1  0
  7  3  1  0
  1 10  1  0
  1 11  1  0
  1 12  1  0
  2 13  1  0
  2 14  1  0
  4 15  1  0
  4 16  1  0
  4 17  1  0
  5 18  1  0
  5 19  1  0
  6 20  1  0
  6 21  1  0
  7 22  1  0
  8 23  1  0
  8 24  1  0
  9 25  1  0
M  END
