
     RDKit          3D

 23 24  0  0  0  0  0  0  0  0999 V2000
    2.3594   -0.6924    0.3942 C   0  0  0  0  0  0  0  0  0  0  0  0
    1.8215    0.2931   -0.5735 C   0  0  0  0  0  0  0  0  0  0  0  0
    0.3408    0.3501   -0.7061 C   0  0  0  0  0  0  0  0  0  0  0  0
   -0.4426    0.6919    0.5317 C   0  0  0  0  0  0  0  0  0  0  0  0
   -1.1505    2.0300    0.4965 C   0  0  0  0  0  0  0  0  0  0  0  0
   -1.3973   -0.4278    0.1526 C   0  0  0  0  0  0  0  0  0  0  0  0
   -2.6814   -0.1531   -0.2193 O   0  0  0  0  0  0  0  0  0  0  0  0
   -0.8586   -1.8004    0.1549 C   0  0  0  0  0  0  0  0  0  0  0  0
   -0.3995   -0.9137   -0.9164 C   0  0  0  0  0  0  0  0  0  0  0  0
    3.4616   -0.7331    0.2705 H   0  0  0  0  0  0  0  0  0  0  0  0
    2.1887   -0.3791    1.4597 H   0  0  0  0  0  0  0  0  0  0  0  0
    1.9845   -1.7105    0.2915 H   0  0  0  0  0  0  0  0  0  0  0  0
    2.1742    1.3086   -0.2645 H   0  0  0  0  0  0  0  0  0  0  0  0
    2.2523    0.1159   -1.5753 H   0  0  0  0  0  0  0  0  0  0  0  0
    0.0958    1.1156   -1.4996 H   0  0  0  0  0  0  0  0  0  0  0  0
    0.0477    0.4591    1.4895 H   0  0  0  0  0  0  0  0  0  0  0  0
   -1.9322    2.0850    1.2471 H   0  0  0  0  0  0  0  0  0  0  0  0
   -0.3801    2.8411    0.6475 H   0  0  0  0  0  0  0  0  0  0  0  0
   -1.5519    2.1291   -0.5532 H   0  0  0  0  0  0  0  0  0  0  0  0
   -3.2650   -0.8771    0.1679 H   0  0  0  0  0  0  0  0  0  0  0  0
   -0.2656   -2.0547    1.0502 H   0  0  0  0  0  0  0  0  0  0  0  0
   -1.5668   -2.6071   -0.1198 H   0  0  0  0  0  0  0  0  0  0  0  0
   -0.8348   -1.0705   -1.9259 H   0  0  0  0  0  0  0  0  0  0  0  0
  1  2  1  0
  2  3  1  0
  3  4  1  0
  4  5  1  0
  4  6  1  0
  6  7  1  0
  6  8  1  0
  8  9  1  0
  9  3  1  0
  9  6  1  0
  1 10  1  0
  1 11  1  0
  1 12  1  0
  2 13  1  0
  2 14  1  0
  3 15  1  0
  4 16  1  0
  5 17  1  0
  5 18  1  0
  5 19  1  0
  7 20  1  0
  8 21  1  0
  8 22  1  0
  9 23  1  0
M  END
