
     RDKit          3D

 19 20  0  0  0  0  0  0  0  0999 V2000
   -2.5911   -0.4604    0.2350 C   0  0  0  0  0  0  0  0  0  0  0  0
   -1.6485    0.5025   -0.4573 C   0  0  0  0  0  0  0  0  0  0  0  0
   -0.3030    0.3485    0.1764 C   0  0  0  0  0  0  0  0  0  0  0  0
    0.1935   -0.9785    0.0412 O   0  0  0  0  0  0  0  0  0  0  0  0
    1.5146   -0.7316    0.2720 C   0  0  0  0  0  0  0  0  0  0  0  0
    2.6695   -0.6391   -0.5106 C   0  0  0  0  0  0  0  0  0  0  0  0
    1.6556    0.1773   -1.0215 C   0  0  0  0  0  0  0  0  0  0  0  0
    0.7524    1.1838   -0.4809 C   0  0  0  0  0  0  0  0  0  0  0  0
    0.8594    2.3859   -0.5617 O   0  0  0  0  0  0  0  0  0  0  0  0
   -3.5902   -0.0043    0.2821 H   0  0  0  0  0  0  0  0  0  0  0  0
   -2.2073   -0.7409    1.2384 H   0  0  0  0  0  0  0  0  0  0  0  0
   -2.6469   -1.4109   -0.3523 H   0  0  0  0  0  0  0  0  0  0  0  0
   -1.6720    0.3355   -1.5277 H   0  0  0  0  0  0  0  0  0  0  0  0
   -2.0063    1.5266   -0.1957 H   0  0  0  0  0  0  0  0  0  0  0  0
   -0.3013    0.6271    1.2456 H   0  0  0  0  0  0  0  0  0  0  0  0
    1.5795   -0.1725    1.2602 H   0  0  0  0  0  0  0  0  0  0  0  0
    2.9995   -1.5625   -1.0730 H   0  0  0  0  0  0  0  0  0  0  0  0
    3.5993   -0.1463   -0.1122 H   0  0  0  0  0  0  0  0  0  0  0  0
    1.1433   -0.2401   -1.9493 H   0  0  0  0  0  0  0  0  0  0  0  0
  1  2  1  0
  2  3  1  0
  3  4  1  0
  4  5  1  0
  5  6  1  0
  6  7  1  0
  7  8  1  0
  8  9  2  0
  8  3  1  0
  7  5  1  0
  1 10  1  0
  1 11  1  0
  1 12  1  0
  2 13  1  0
  2 14  1  0
  3 15  1  0
  5 16  1  0
  6 17  1  0
  6 18  1  0
  7 19  1  0
M  END
