
     RDKit          3D

 21 21  0  0  0  0  0  0  0  0999 V2000
    2.7142   -0.7038   -0.1500 C   0  0  0  0  0  0  0  0  0  0  0  0
    1.9814    0.6128   -0.0593 C   0  0  0  0  0  0  0  0  0  0  0  0
    0.5098    0.4325    0.0141 C   0  0  0  0  0  0  0  0  0  0  0  0
   -0.3099    0.9383   -0.8919 C   0  0  0  0  0  0  0  0  0  0  0  0
   -1.7658    0.8037   -0.8873 C   0  0  0  0  0  0  0  0  0  0  0  0
   -2.3375   -0.0833    0.1544 C   0  0  0  0  0  0  0  0  0  0  0  0
   -1.3859   -0.9715    0.8677 C   0  0  0  0  0  0  0  0  0  0  0  0
   -0.0723   -0.3242    1.1131 C   0  0  0  0  0  0  0  0  0  0  0  0
    0.5328   -0.4189    2.2354 O   0  0  0  0  0  0  0  0  0  0  0  0
    3.1057   -0.9638    0.8617 H   0  0  0  0  0  0  0  0  0  0  0  0
    2.0672   -1.5209   -0.5329 H   0  0  0  0  0  0  0  0  0  0  0  0
    3.6095   -0.5948   -0.7968 H   0  0  0  0  0  0  0  0  0  0  0  0
    2.2150    1.1756   -1.0030 H   0  0  0  0  0  0  0  0  0  0  0  0
    2.3526    1.2352    0.7625 H   0  0  0  0  0  0  0  0  0  0  0  0
    0.2021    1.4977   -1.6946 H   0  0  0  0  0  0  0  0  0  0  0  0
   -2.2791    1.8005   -0.8024 H   0  0  0  0  0  0  0  0  0  0  0  0
   -2.0613    0.4406   -1.9154 H   0  0  0  0  0  0  0  0  0  0  0  0
   -3.1511   -0.7106   -0.3136 H   0  0  0  0  0  0  0  0  0  0  0  0
   -2.8912    0.5097    0.9418 H   0  0  0  0  0  0  0  0  0  0  0  0
   -1.8409   -1.2733    1.8537 H   0  0  0  0  0  0  0  0  0  0  0  0
   -1.1953   -1.8813    0.2539 H   0  0  0  0  0  0  0  0  0  0  0  0
  1  2  1  0
  2  3  1  0
  3  4  2  0
  4  5  1  0
  5  6  1  0
  6  7  1  0
  7  8  1  0
  8  9  2  0
  8  3  1  0
  1 10  1  0
  1 11  1  0
  1 12  1  0
  2 13  1  0
  2 14  1  0
  4 15  1  0
  5 16  1  0
  5 17  1  0
  6 18  1  0
  6 19  1  0
  7 20  1  0
  7 21  1  0
M  END
