
     RDKit          3D

 25 26  0  0  0  0  0  0  0  0999 V2000
    2.4498   -1.1597    0.0125 C   0  0  0  0  0  0  0  0  0  0  0  0
    1.5042   -0.6402    1.0224 C   0  0  0  0  0  0  0  0  0  0  0  0
    0.4665    0.2956    0.5294 C   0  0  0  0  0  0  0  0  0  0  0  0
   -0.4779   -0.2537   -0.5392 C   0  0  0  0  0  0  0  0  0  0  0  0
   -1.6378   -1.0174   -0.0523 C   0  0  0  0  0  0  0  0  0  0  0  0
   -2.5699   -0.2633    0.8474 C   0  0  0  0  0  0  0  0  0  0  0  0
   -0.6952    1.2545   -0.7085 C   0  0  0  0  0  0  0  0  0  0  0  0
    0.1821    2.1928   -1.3061 C   0  0  0  0  0  0  0  0  0  0  0  0
    0.8908    1.1388   -0.6793 C   0  0  0  0  0  0  0  0  0  0  0  0
    2.9680   -2.0551    0.4473 H   0  0  0  0  0  0  0  0  0  0  0  0
    2.0294   -1.4718   -0.9377 H   0  0  0  0  0  0  0  0  0  0  0  0
    3.2750   -0.4342   -0.2013 H   0  0  0  0  0  0  0  0  0  0  0  0
    0.9751   -1.4869    1.5487 H   0  0  0  0  0  0  0  0  0  0  0  0
    2.0738   -0.1241    1.8228 H   0  0  0  0  0  0  0  0  0  0  0  0
   -0.0706    0.8241    1.3106 H   0  0  0  0  0  0  0  0  0  0  0  0
   -0.0237   -0.6484   -1.4353 H   0  0  0  0  0  0  0  0  0  0  0  0
   -2.2098   -1.3846   -0.9291 H   0  0  0  0  0  0  0  0  0  0  0  0
   -1.2836   -1.9092    0.5013 H   0  0  0  0  0  0  0  0  0  0  0  0
   -3.4182   -0.9650    1.0866 H   0  0  0  0  0  0  0  0  0  0  0  0
   -2.0394   -0.0028    1.7788 H   0  0  0  0  0  0  0  0  0  0  0  0
   -2.9994    0.6138    0.3213 H   0  0  0  0  0  0  0  0  0  0  0  0
   -1.1401    1.6012    0.2796 H   0  0  0  0  0  0  0  0  0  0  0  0
    0.1325    2.2924   -2.4329 H   0  0  0  0  0  0  0  0  0  0  0  0
    0.3140    3.2293   -0.8720 H   0  0  0  0  0  0  0  0  0  0  0  0
    1.3043    0.3742   -1.4151 H   0  0  0  0  0  0  0  0  0  0  0  0
  1  2  1  0
  2  3  1  0
  3  4  1  0
  4  5  1  0
  5  6  1  0
  4  7  1  0
  7  8  1  0
  8  9  1  0
  9  3  1  0
  9  7  1  0
  1 10  1  0
  1 11  1  0
  1 12  1  0
  2 13  1  0
  2 14  1  0
  3 15  1  0
  4 16  1  0
  5 17  1  0
  5 18  1  0
  6 19  1  0
  6 20  1  0
  6 21  1  0
  7 22  1  0
  8 23  1  0
  8 24  1  0
  9 25  1  0
M  END
