
     RDKit          3D

 17 18  0  0  0  0  0  0  0  0999 V2000
    2.2500    0.0319    0.2819 C   0  0  0  0  0  0  0  0  0  0  0  0
    1.0698   -0.3178   -0.6233 C   0  0  0  0  0  0  0  0  0  0  0  0
   -0.0904    0.5050   -0.1887 C   0  0  0  0  0  0  0  0  0  0  0  0
   -0.5864    0.3592    1.1894 C   0  0  0  0  0  0  0  0  0  0  0  0
   -1.4275   -0.1729    0.1047 C   0  0  0  0  0  0  0  0  0  0  0  0
   -1.4588   -1.5074   -0.2351 O   0  0  0  0  0  0  0  0  0  0  0  0
   -2.0517    0.8370   -0.7626 C   0  0  0  0  0  0  0  0  0  0  0  0
   -3.2001    1.2066   -1.0075 O   0  0  0  0  0  0  0  0  0  0  0  0
   -0.7973    1.1953   -1.1864 O   0  0  0  0  0  0  0  0  0  0  0  0
    1.8371    0.3748    1.2722 H   0  0  0  0  0  0  0  0  0  0  0  0
    2.7991    0.8404   -0.2028 H   0  0  0  0  0  0  0  0  0  0  0  0
    2.8562   -0.8645    0.5171 H   0  0  0  0  0  0  0  0  0  0  0  0
    0.8508   -1.4132   -0.4539 H   0  0  0  0  0  0  0  0  0  0  0  0
    1.3070   -0.1489   -1.6916 H   0  0  0  0  0  0  0  0  0  0  0  0
   -0.0783   -0.3639    1.8264 H   0  0  0  0  0  0  0  0  0  0  0  0
   -0.9587    1.2536    1.7667 H   0  0  0  0  0  0  0  0  0  0  0  0
   -2.3208   -1.8152   -0.6064 H   0  0  0  0  0  0  0  0  0  0  0  0
  1  2  1  0
  2  3  1  0
  3  4  1  0
  4  5  1  0
  5  6  1  0
  5  7  1  0
  7  8  2  0
  7  9  1  0
  5  3  1  0
  9  3  1  0
  1 10  1  0
  1 11  1  0
  1 12  1  0
  2 13  1  0
  2 14  1  0
  4 15  1  0
  4 16  1  0
  6 17  1  0
M  END
