
     RDKit          3D

 21 21  0  0  0  0  0  0  0  0999 V2000
   -2.6293    0.1348    0.0817 C   0  0  0  0  0  0  0  0  0  0  0  0
   -1.4422   -0.2339   -0.7420 C   0  0  0  0  0  0  0  0  0  0  0  0
   -0.3474    0.8101   -0.7271 C   0  0  0  0  0  0  0  0  0  0  0  0
    0.3132    1.2197    0.5117 C   0  0  0  0  0  0  0  0  0  0  0  0
    0.0382    0.6588    1.7436 O   0  0  0  0  0  0  0  0  0  0  0  0
    1.0421    0.3850   -0.4940 C   0  0  0  0  0  0  0  0  0  0  0  0
    1.3692   -1.0273   -0.0569 C   0  0  0  0  0  0  0  0  0  0  0  0
    2.8287   -1.2230    0.1148 C   0  0  0  0  0  0  0  0  0  0  0  0
    3.2751   -2.2936    0.4620 O   0  0  0  0  0  0  0  0  0  0  0  0
   -3.5273   -0.3745   -0.3580 H   0  0  0  0  0  0  0  0  0  0  0  0
   -2.5696   -0.2595    1.1305 H   0  0  0  0  0  0  0  0  0  0  0  0
   -2.8617    1.2171    0.0818 H   0  0  0  0  0  0  0  0  0  0  0  0
   -1.0074   -1.1738   -0.3199 H   0  0  0  0  0  0  0  0  0  0  0  0
   -1.7693   -0.4649   -1.7745 H   0  0  0  0  0  0  0  0  0  0  0  0
   -0.5155    1.6179   -1.4872 H   0  0  0  0  0  0  0  0  0  0  0  0
    0.6977    2.2761    0.5883 H   0  0  0  0  0  0  0  0  0  0  0  0
   -0.0622    1.3395    2.4430 H   0  0  0  0  0  0  0  0  0  0  0  0
    1.8352    0.8432   -1.1332 H   0  0  0  0  0  0  0  0  0  0  0  0
    0.8051   -1.3219    0.8610 H   0  0  0  0  0  0  0  0  0  0  0  0
    1.0260   -1.7267   -0.8545 H   0  0  0  0  0  0  0  0  0  0  0  0
    3.5015   -0.4031   -0.0712 H   0  0  0  0  0  0  0  0  0  0  0  0
  1  2  1  0
  2  3  1  0
  3  4  1  0
  4  5  1  0
  4  6  1  0
  6  7  1  0
  7  8  1  0
  8  9  2  0
  6  3  1  0
  1 10  1  0
  1 11  1  0
  1 12  1  0
  2 13  1  0
  2 14  1  0
  3 15  1  0
  4 16  1  0
  5 17  1  0
  6 18  1  0
  7 19  1  0
  7 20  1  0
  8 21  1  0
M  END
