
     RDKit          3D

 21 22  0  0  0  0  0  0  0  0999 V2000
    2.7844    0.1385    0.3154 C   0  0  0  0  0  0  0  0  0  0  0  0
    1.6286    0.7835   -0.4167 C   0  0  0  0  0  0  0  0  0  0  0  0
    0.3341    0.1301   -0.0824 C   0  0  0  0  0  0  0  0  0  0  0  0
    0.1376   -0.9031    0.7521 C   0  0  0  0  0  0  0  0  0  0  0  0
   -1.3176   -1.1391    0.6573 C   0  0  0  0  0  0  0  0  0  0  0  0
   -1.8614    0.2811    0.7266 C   0  0  0  0  0  0  0  0  0  0  0  0
   -1.0301    0.4295   -0.5589 C   0  0  0  0  0  0  0  0  0  0  0  0
   -1.2943    1.4040   -1.3925 O   0  0  0  0  0  0  0  0  0  0  0  0
   -1.5311   -0.9894   -0.8576 C   0  0  0  0  0  0  0  0  0  0  0  0
    2.7321    0.4383    1.3836 H   0  0  0  0  0  0  0  0  0  0  0  0
    3.7159    0.4109   -0.1811 H   0  0  0  0  0  0  0  0  0  0  0  0
    2.6104   -0.9679    0.3126 H   0  0  0  0  0  0  0  0  0  0  0  0
    1.8520    0.6455   -1.5143 H   0  0  0  0  0  0  0  0  0  0  0  0
    1.6180    1.8688   -0.2368 H   0  0  0  0  0  0  0  0  0  0  0  0
    0.8961   -1.4118    1.3360 H   0  0  0  0  0  0  0  0  0  0  0  0
   -1.7977   -1.9153    1.1639 H   0  0  0  0  0  0  0  0  0  0  0  0
   -1.4985    0.8828    1.5651 H   0  0  0  0  0  0  0  0  0  0  0  0
   -2.9415    0.3296    0.4957 H   0  0  0  0  0  0  0  0  0  0  0  0
   -1.6060    2.2296   -0.9025 H   0  0  0  0  0  0  0  0  0  0  0  0
   -0.8405   -1.5789   -1.4717 H   0  0  0  0  0  0  0  0  0  0  0  0
   -2.5904   -1.0665   -1.0939 H   0  0  0  0  0  0  0  0  0  0  0  0
  1  2  1  0
  2  3  1  0
  3  4  2  0
  4  5  1  0
  5  6  1  0
  6  7  1  0
  7  8  1  0
  7  9  1  0
  7  3  1  0
  9  5  1  0
  1 10  1  0
  1 11  1  0
  1 12  1  0
  2 13  1  0
  2 14  1  0
  4 15  1  0
  5 16  1  0
  6 17  1  0
  6 18  1  0
  8 19  1  0
  9 20  1  0
  9 21  1  0
M  END
