
     RDKit          3D

 25 25  0  0  0  0  0  0  0  0999 V2000
    3.2069    0.9426    1.0103 C   0  0  0  0  0  0  0  0  0  0  0  0
    2.6836   -0.1901    0.1908 C   0  0  0  0  0  0  0  0  0  0  0  0
    1.3722   -0.7303    0.6733 C   0  0  0  0  0  0  0  0  0  0  0  0
    0.8394   -1.8840   -0.1616 C   0  0  0  0  0  0  0  0  0  0  0  0
    0.1220   -0.5784   -0.0974 C   0  0  0  0  0  0  0  0  0  0  0  0
   -1.0996   -0.4786    0.5502 O   0  0  0  0  0  0  0  0  0  0  0  0
   -1.9460    0.3828   -0.1339 C   0  0  0  0  0  0  0  0  0  0  0  0
   -3.1041   -0.4614   -0.6513 C   0  0  0  0  0  0  0  0  0  0  0  0
   -2.4050    1.5484    0.6748 C   0  0  0  0  0  0  0  0  0  0  0  0
    2.7295    1.8813    0.6512 H   0  0  0  0  0  0  0  0  0  0  0  0
    4.2917    1.0459    0.8056 H   0  0  0  0  0  0  0  0  0  0  0  0
    2.9926    0.7347    2.0701 H   0  0  0  0  0  0  0  0  0  0  0  0
    2.6299    0.1391   -0.8768 H   0  0  0  0  0  0  0  0  0  0  0  0
    3.4380   -1.0259    0.1938 H   0  0  0  0  0  0  0  0  0  0  0  0
    1.2737   -0.7915    1.7762 H   0  0  0  0  0  0  0  0  0  0  0  0
    0.4691   -2.7593    0.4145 H   0  0  0  0  0  0  0  0  0  0  0  0
    1.3697   -2.1691   -1.0849 H   0  0  0  0  0  0  0  0  0  0  0  0
    0.2155    0.0330   -1.0321 H   0  0  0  0  0  0  0  0  0  0  0  0
   -1.4132    0.7732   -1.0368 H   0  0  0  0  0  0  0  0  0  0  0  0
   -2.6432   -1.1637   -1.3975 H   0  0  0  0  0  0  0  0  0  0  0  0
   -3.8566    0.1747   -1.1598 H   0  0  0  0  0  0  0  0  0  0  0  0
   -3.5416   -1.0881    0.1361 H   0  0  0  0  0  0  0  0  0  0  0  0
   -1.7825    2.4706    0.4930 H   0  0  0  0  0  0  0  0  0  0  0  0
   -3.4544    1.8589    0.3958 H   0  0  0  0  0  0  0  0  0  0  0  0
   -2.3875    1.3353    1.7579 H   0  0  0  0  0  0  0  0  0  0  0  0
  1  2  1  0
  2  3  1  0
  3  4  1  0
  4  5  1  0
  5  6  1  0
  6  7  1  0
  7  8  1  0
  7  9  1  0
  5  3  1  0
  1 10  1  0
  1 11  1  0
  1 12  1  0
  2 13  1  0
  2 14  1  0
  3 15  1  0
  4 16  1  0
  4 17  1  0
  5 18  1  0
  7 19  1  0
  8 20  1  0
  8 21  1  0
  8 22  1  0
  9 23  1  0
  9 24  1  0
  9 25  1  0
M  END
