
     RDKit          3D

 21 22  0  0  0  0  0  0  0  0999 V2000
    2.3267    0.8551    0.0249 C   0  0  0  0  0  0  0  0  0  0  0  0
    1.5962   -0.3835    0.3806 C   0  0  0  0  0  0  0  0  0  0  0  0
    0.1346   -0.3319    0.4334 C   0  0  0  0  0  0  0  0  0  0  0  0
   -0.4766   -1.6993    0.8173 C   0  0  0  0  0  0  0  0  0  0  0  0
   -0.8379   -0.9907   -0.4316 C   0  0  0  0  0  0  0  0  0  0  0  0
   -2.1719   -0.2728   -0.3293 C   0  0  0  0  0  0  0  0  0  0  0  0
   -2.0302    1.0480   -0.7716 O   0  0  0  0  0  0  0  0  0  0  0  0
   -0.9907    1.6263   -0.0465 C   0  0  0  0  0  0  0  0  0  0  0  0
   -0.4824    0.8008    0.9377 O   0  0  0  0  0  0  0  0  0  0  0  0
    2.4875    0.8569   -1.0821 H   0  0  0  0  0  0  0  0  0  0  0  0
    1.8769    1.7934    0.3867 H   0  0  0  0  0  0  0  0  0  0  0  0
    3.3453    0.8111    0.4673 H   0  0  0  0  0  0  0  0  0  0  0  0
    1.9728   -0.7177    1.3944 H   0  0  0  0  0  0  0  0  0  0  0  0
    1.9587   -1.1995   -0.3098 H   0  0  0  0  0  0  0  0  0  0  0  0
   -1.1427   -1.7051    1.6997 H   0  0  0  0  0  0  0  0  0  0  0  0
    0.1163   -2.5954    0.7012 H   0  0  0  0  0  0  0  0  0  0  0  0
   -0.6082   -1.3951   -1.4257 H   0  0  0  0  0  0  0  0  0  0  0  0
   -2.5346   -0.1787    0.7168 H   0  0  0  0  0  0  0  0  0  0  0  0
   -2.9696   -0.8077   -0.8830 H   0  0  0  0  0  0  0  0  0  0  0  0
   -1.3381    2.5610    0.4292 H   0  0  0  0  0  0  0  0  0  0  0  0
   -0.2322    1.9247   -0.8015 H   0  0  0  0  0  0  0  0  0  0  0  0
  1  2  1  0
  2  3  1  0
  3  4  1  0
  4  5  1  0
  5  6  1  0
  6  7  1  0
  7  8  1  0
  8  9  1  0
  5  3  1  0
  9  3  1  0
  1 10  1  0
  1 11  1  0
  1 12  1  0
  2 13  1  0
  2 14  1  0
  4 15  1  0
  4 16  1  0
  5 17  1  0
  6 18  1  0
  6 19  1  0
  8 20  1  0
  8 21  1  0
M  END
