
     RDKit          3D

 23 23  0  0  0  0  0  0  0  0999 V2000
    2.8732   -0.2788   -0.4852 C   0  0  0  0  0  0  0  0  0  0  0  0
    1.7162    0.6043   -0.1026 C   0  0  0  0  0  0  0  0  0  0  0  0
    0.3844    0.0036   -0.3913 C   0  0  0  0  0  0  0  0  0  0  0  0
   -0.7835    0.9090    0.0027 C   0  0  0  0  0  0  0  0  0  0  0  0
   -1.8871    1.1521   -0.9880 C   0  0  0  0  0  0  0  0  0  0  0  0
   -0.5831   -0.4596    0.5941 C   0  0  0  0  0  0  0  0  0  0  0  0
   -1.6362   -1.4630    0.0895 C   0  0  0  0  0  0  0  0  0  0  0  0
   -0.3735   -0.5163    2.0404 C   0  0  0  0  0  0  0  0  0  0  0  0
    0.4210    0.2166    2.5827 O   0  0  0  0  0  0  0  0  0  0  0  0
    3.7867    0.3793   -0.4901 H   0  0  0  0  0  0  0  0  0  0  0  0
    3.0851   -1.0784    0.2328 H   0  0  0  0  0  0  0  0  0  0  0  0
    2.7712   -0.6872   -1.4946 H   0  0  0  0  0  0  0  0  0  0  0  0
    1.8160    1.5275   -0.7488 H   0  0  0  0  0  0  0  0  0  0  0  0
    1.8508    0.9771    0.9285 H   0  0  0  0  0  0  0  0  0  0  0  0
    0.2605   -0.3910   -1.4444 H   0  0  0  0  0  0  0  0  0  0  0  0
   -0.5769    1.7688    0.6751 H   0  0  0  0  0  0  0  0  0  0  0  0
   -2.8096    0.6701   -0.5798 H   0  0  0  0  0  0  0  0  0  0  0  0
   -1.6357    0.7182   -1.9971 H   0  0  0  0  0  0  0  0  0  0  0  0
   -2.0589    2.2208   -1.1186 H   0  0  0  0  0  0  0  0  0  0  0  0
   -1.2782   -2.5046    0.2088 H   0  0  0  0  0  0  0  0  0  0  0  0
   -2.5012   -1.3402    0.7724 H   0  0  0  0  0  0  0  0  0  0  0  0
   -1.9310   -1.2255   -0.9579 H   0  0  0  0  0  0  0  0  0  0  0  0
   -0.9102   -1.2028    2.6714 H   0  0  0  0  0  0  0  0  0  0  0  0
  1  2  1  0
  2  3  1  0
  3  4  1  0
  4  5  1  0
  4  6  1  0
  6  7  1  0
  6  8  1  0
  8  9  2  0
  6  3  1  0
  1 10  1  0
  1 11  1  0
  1 12  1  0
  2 13  1  0
  2 14  1  0
  3 15  1  0
  4 16  1  0
  5 17  1  0
  5 18  1  0
  5 19  1  0
  7 20  1  0
  7 21  1  0
  7 22  1  0
  8 23  1  0
M  END
