
     RDKit          3D

 20 21  0  0  0  0  0  0  0  0999 V2000
    2.7448    0.4444   -0.0010 C   0  0  0  0  0  0  0  0  0  0  0  0
    1.6411   -0.5091    0.4002 C   0  0  0  0  0  0  0  0  0  0  0  0
    0.3667   -0.2199   -0.3851 C   0  0  0  0  0  0  0  0  0  0  0  0
   -0.7192   -1.1593    0.0108 C   0  0  0  0  0  0  0  0  0  0  0  0
   -1.9753   -0.3385   -0.0994 C   0  0  0  0  0  0  0  0  0  0  0  0
   -2.2980    0.7160    0.8743 C   0  0  0  0  0  0  0  0  0  0  0  0
   -1.4797    1.0369   -0.3354 C   0  0  0  0  0  0  0  0  0  0  0  0
   -0.1091    1.0614   -0.1365 O   0  0  0  0  0  0  0  0  0  0  0  0
    3.0091    1.1387    0.8091 H   0  0  0  0  0  0  0  0  0  0  0  0
    2.3839    1.0296   -0.8735 H   0  0  0  0  0  0  0  0  0  0  0  0
    3.6480   -0.1153   -0.3810 H   0  0  0  0  0  0  0  0  0  0  0  0
    1.9404   -1.5490    0.1387 H   0  0  0  0  0  0  0  0  0  0  0  0
    1.4841   -0.4188    1.4864 H   0  0  0  0  0  0  0  0  0  0  0  0
    0.6518   -0.2972   -1.4553 H   0  0  0  0  0  0  0  0  0  0  0  0
   -0.7544   -1.9833   -0.7410 H   0  0  0  0  0  0  0  0  0  0  0  0
   -0.6339   -1.5395    1.0464 H   0  0  0  0  0  0  0  0  0  0  0  0
   -2.7845   -0.7579   -0.7479 H   0  0  0  0  0  0  0  0  0  0  0  0
   -3.3522    1.0811    0.8520 H   0  0  0  0  0  0  0  0  0  0  0  0
   -1.8367    0.8010    1.8649 H   0  0  0  0  0  0  0  0  0  0  0  0
   -1.9269    1.5787   -1.1819 H   0  0  0  0  0  0  0  0  0  0  0  0
  1  2  1  0
  2  3  1  0
  3  4  1  0
  4  5  1  0
  5  6  1  0
  6  7  1  0
  7  8  1  0
  8  3  1  0
  7  5  1  0
  1  9  1  0
  1 10  1  0
  1 11  1  0
  2 12  1  0
  2 13  1  0
  3 14  1  0
  4 15  1  0
  4 16  1  0
  5 17  1  0
  6 18  1  0
  6 19  1  0
  7 20  1  0
M  END
