
     RDKit          3D

 23 24  0  0  0  0  0  0  0  0999 V2000
   -3.1401    0.5638    0.3338 C   0  0  0  0  0  0  0  0  0  0  0  0
   -1.6740    0.9268    0.6010 C   0  0  0  0  0  0  0  0  0  0  0  0
   -0.8835    0.3652   -0.5324 C   0  0  0  0  0  0  0  0  0  0  0  0
   -0.9925   -1.1767   -0.6865 C   0  0  0  0  0  0  0  0  0  0  0  0
    0.2447   -0.5196   -0.4180 C   0  0  0  0  0  0  0  0  0  0  0  0
    1.1631   -0.6739    0.7073 C   0  0  0  0  0  0  0  0  0  0  0  0
    1.9942    0.2249   -0.1954 C   0  0  0  0  0  0  0  0  0  0  0  0
    3.4440   -0.0852   -0.2692 C   0  0  0  0  0  0  0  0  0  0  0  0
    1.3067   -0.3684   -1.2814 O   0  0  0  0  0  0  0  0  0  0  0  0
   -3.7347    0.5831    1.2518 H   0  0  0  0  0  0  0  0  0  0  0  0
   -3.5426    1.3234   -0.3996 H   0  0  0  0  0  0  0  0  0  0  0  0
   -3.1295   -0.4479   -0.1082 H   0  0  0  0  0  0  0  0  0  0  0  0
   -1.6116    2.0323    0.5771 H   0  0  0  0  0  0  0  0  0  0  0  0
   -1.3487    0.5832    1.5963 H   0  0  0  0  0  0  0  0  0  0  0  0
   -0.9875    0.9460   -1.4833 H   0  0  0  0  0  0  0  0  0  0  0  0
   -1.3036   -1.5103   -1.7050 H   0  0  0  0  0  0  0  0  0  0  0  0
   -1.5451   -1.7140    0.1100 H   0  0  0  0  0  0  0  0  0  0  0  0
    0.9167   -0.2638    1.6890 H   0  0  0  0  0  0  0  0  0  0  0  0
    1.5556   -1.7239    0.7870 H   0  0  0  0  0  0  0  0  0  0  0  0
    1.7588    1.2724   -0.0223 H   0  0  0  0  0  0  0  0  0  0  0  0
    3.8251    0.3243   -1.2498 H   0  0  0  0  0  0  0  0  0  0  0  0
    4.0101    0.4871    0.5128 H   0  0  0  0  0  0  0  0  0  0  0  0
    3.6742   -1.1488   -0.2740 H   0  0  0  0  0  0  0  0  0  0  0  0
  1  2  1  0
  2  3  1  0
  3  4  1  0
  4  5  1  0
  5  6  1  0
  6  7  1  0
  7  8  1  0
  7  9  1  0
  5  3  1  0
  9  5  1  0
  1 10  1  0
  1 11  1  0
  1 12  1  0
  2 13  1  0
  2 14  1  0
  3 15  1  0
  4 16  1  0
  4 17  1  0
  6 18  1  0
  6 19  1  0
  7 20  1  0
  8 21  1  0
  8 22  1  0
  8 23  1  0
M  END
