
     RDKit          3D

 23 24  0  0  0  0  0  0  0  0999 V2000
    2.8221    0.9562    0.2066 C   0  0  0  0  0  0  0  0  0  0  0  0
    2.0333    0.2544    1.2702 C   0  0  0  0  0  0  0  0  0  0  0  0
    0.6694   -0.1665    0.8465 C   0  0  0  0  0  0  0  0  0  0  0  0
    0.5620   -1.1038   -0.2922 C   0  0  0  0  0  0  0  0  0  0  0  0
   -0.7705   -1.4701   -0.8856 C   0  0  0  0  0  0  0  0  0  0  0  0
   -1.3026   -0.0660   -0.7299 C   0  0  0  0  0  0  0  0  0  0  0  0
   -2.1178    0.0421    0.3963 O   0  0  0  0  0  0  0  0  0  0  0  0
   -3.3095    0.7011    0.0968 C   0  0  0  0  0  0  0  0  0  0  0  0
    0.1153    0.3714   -0.3984 C   0  0  0  0  0  0  0  0  0  0  0  0
    2.3045    1.8027   -0.2605 H   0  0  0  0  0  0  0  0  0  0  0  0
    3.7574    1.3421    0.7085 H   0  0  0  0  0  0  0  0  0  0  0  0
    3.1802    0.2522   -0.5899 H   0  0  0  0  0  0  0  0  0  0  0  0
    1.9352    0.9706    2.1277 H   0  0  0  0  0  0  0  0  0  0  0  0
    2.6493   -0.6010    1.6270 H   0  0  0  0  0  0  0  0  0  0  0  0
   -0.0620   -0.2373    1.7045 H   0  0  0  0  0  0  0  0  0  0  0  0
    1.4608   -1.4120   -0.8233 H   0  0  0  0  0  0  0  0  0  0  0  0
   -1.3235   -2.2565   -0.3754 H   0  0  0  0  0  0  0  0  0  0  0  0
   -0.6763   -1.7156   -1.9748 H   0  0  0  0  0  0  0  0  0  0  0  0
   -1.7301    0.3738   -1.6273 H   0  0  0  0  0  0  0  0  0  0  0  0
   -3.8904    0.1619   -0.6853 H   0  0  0  0  0  0  0  0  0  0  0  0
   -3.9380    0.7161    0.9973 H   0  0  0  0  0  0  0  0  0  0  0  0
   -3.0571    1.7321   -0.1911 H   0  0  0  0  0  0  0  0  0  0  0  0
    0.6882    0.9298   -1.1474 H   0  0  0  0  0  0  0  0  0  0  0  0
  1  2  1  0
  2  3  1  0
  3  4  1  0
  4  5  1  0
  5  6  1  0
  6  7  1  0
  7  8  1  0
  6  9  1  0
  9  3  1  0
  9  4  1  0
  1 10  1  0
  1 11  1  0
  1 12  1  0
  2 13  1  0
  2 14  1  0
  3 15  1  0
  4 16  1  0
  5 17  1  0
  5 18  1  0
  6 19  1  0
  8 20  1  0
  8 21  1  0
  8 22  1  0
  9 23  1  0
M  END
