
     RDKit          3D

 25 26  0  0  0  0  0  0  0  0999 V2000
    2.9152   -0.2507    0.1952 C   0  0  0  0  0  0  0  0  0  0  0  0
    1.7604   -0.1256   -0.7810 C   0  0  0  0  0  0  0  0  0  0  0  0
    0.5683    0.3155    0.0019 C   0  0  0  0  0  0  0  0  0  0  0  0
    0.1955   -0.6818    1.1018 C   0  0  0  0  0  0  0  0  0  0  0  0
   -1.2643   -0.4185    1.1256 C   0  0  0  0  0  0  0  0  0  0  0  0
   -2.3915   -1.0423    0.5808 C   0  0  0  0  0  0  0  0  0  0  0  0
   -1.4322   -0.7789   -0.4092 C   0  0  0  0  0  0  0  0  0  0  0  0
   -0.6961    0.4127   -0.8721 C   0  0  0  0  0  0  0  0  0  0  0  0
   -1.3814    1.7157   -0.7360 C   0  0  0  0  0  0  0  0  0  0  0  0
    3.7452   -0.8481   -0.2198 H   0  0  0  0  0  0  0  0  0  0  0  0
    3.2418    0.7887    0.4411 H   0  0  0  0  0  0  0  0  0  0  0  0
    2.5693   -0.7023    1.1293 H   0  0  0  0  0  0  0  0  0  0  0  0
    2.0230    0.6786   -1.4958 H   0  0  0  0  0  0  0  0  0  0  0  0
    1.6100   -1.1010   -1.2626 H   0  0  0  0  0  0  0  0  0  0  0  0
    0.6927    1.2941    0.4911 H   0  0  0  0  0  0  0  0  0  0  0  0
    0.3510   -1.7275    0.7367 H   0  0  0  0  0  0  0  0  0  0  0  0
    0.7224   -0.4741    2.0348 H   0  0  0  0  0  0  0  0  0  0  0  0
   -1.4030    0.6825    1.3709 H   0  0  0  0  0  0  0  0  0  0  0  0
   -3.3714   -0.5003    0.5267 H   0  0  0  0  0  0  0  0  0  0  0  0
   -2.6094   -2.1036    0.9002 H   0  0  0  0  0  0  0  0  0  0  0  0
   -0.8588   -1.6986   -0.7524 H   0  0  0  0  0  0  0  0  0  0  0  0
   -0.3349    0.3024   -1.9137 H   0  0  0  0  0  0  0  0  0  0  0  0
   -0.6673    2.4455   -0.2928 H   0  0  0  0  0  0  0  0  0  0  0  0
   -1.6617    2.1176   -1.7453 H   0  0  0  0  0  0  0  0  0  0  0  0
   -2.3229    1.6999   -0.1555 H   0  0  0  0  0  0  0  0  0  0  0  0
  1  2  1  0
  2  3  1  0
  3  4  1  0
  4  5  1  0
  5  6  1  0
  6  7  1  0
  7  8  1  0
  8  9  1  0
  8  3  1  0
  7  5  1  0
  1 10  1  0
  1 11  1  0
  1 12  1  0
  2 13  1  0
  2 14  1  0
  3 15  1  0
  4 16  1  0
  4 17  1  0
  5 18  1  0
  6 19  1  0
  6 20  1  0
  7 21  1  0
  8 22  1  0
  9 23  1  0
  9 24  1  0
  9 25  1  0
M  END
