
     RDKit          3D

 25 25  0  0  0  0  0  0  0  0999 V2000
    1.0255    1.6795   -0.9720 C   0  0  0  0  0  0  0  0  0  0  0  0
    0.9095    0.9697    0.3235 C   0  0  0  0  0  0  0  0  0  0  0  0
    0.1420   -0.3025    0.3470 C   0  0  0  0  0  0  0  0  0  0  0  0
   -1.3145   -0.2397   -0.0533 C   0  0  0  0  0  0  0  0  0  0  0  0
   -2.1089    0.6989    0.8394 C   0  0  0  0  0  0  0  0  0  0  0  0
   -1.5234    0.0598   -1.5116 C   0  0  0  0  0  0  0  0  0  0  0  0
    0.1953   -0.9042    1.7076 O   0  0  0  0  0  0  0  0  0  0  0  0
    0.6990   -1.6044    0.5343 C   0  0  0  0  0  0  0  0  0  0  0  0
    2.1651   -1.9001    0.7096 C   0  0  0  0  0  0  0  0  0  0  0  0
    2.0463    2.1820   -0.9918 H   0  0  0  0  0  0  0  0  0  0  0  0
    0.9410    1.0786   -1.8828 H   0  0  0  0  0  0  0  0  0  0  0  0
    0.3239    2.5361   -1.0524 H   0  0  0  0  0  0  0  0  0  0  0  0
    0.4264    1.7088    1.0381 H   0  0  0  0  0  0  0  0  0  0  0  0
    1.9383    0.8545    0.7835 H   0  0  0  0  0  0  0  0  0  0  0  0
   -1.7925   -1.2684    0.0857 H   0  0  0  0  0  0  0  0  0  0  0  0
   -2.0847    1.7073    0.3746 H   0  0  0  0  0  0  0  0  0  0  0  0
   -1.7311    0.7029    1.8731 H   0  0  0  0  0  0  0  0  0  0  0  0
   -3.1562    0.3383    0.8709 H   0  0  0  0  0  0  0  0  0  0  0  0
   -2.5194   -0.3520   -1.8002 H   0  0  0  0  0  0  0  0  0  0  0  0
   -0.7784   -0.5482   -2.0897 H   0  0  0  0  0  0  0  0  0  0  0  0
   -1.4404    1.1256   -1.7566 H   0  0  0  0  0  0  0  0  0  0  0  0
    0.0917   -2.4912    0.3076 H   0  0  0  0  0  0  0  0  0  0  0  0
    2.2549   -2.6808    1.4973 H   0  0  0  0  0  0  0  0  0  0  0  0
    2.5419   -2.3154   -0.2468 H   0  0  0  0  0  0  0  0  0  0  0  0
    2.7486   -1.0349    1.0649 H   0  0  0  0  0  0  0  0  0  0  0  0
  1  2  1  0
  2  3  1  0
  3  4  1  0
  4  5  1  0
  4  6  1  0
  3  7  1  0
  7  8  1  0
  8  9  1  0
  8  3  1  0
  1 10  1  0
  1 11  1  0
  1 12  1  0
  2 13  1  0
  2 14  1  0
  4 15  1  0
  5 16  1  0
  5 17  1  0
  5 18  1  0
  6 19  1  0
  6 20  1  0
  6 21  1  0
  8 22  1  0
  9 23  1  0
  9 24  1  0
  9 25  1  0
M  END
