
     RDKit          3D

 18 19  0  0  0  0  0  0  0  0999 V2000
    2.6662    0.0064    0.2398 C   0  0  0  0  0  0  0  0  0  0  0  0
    1.3778   -0.1811   -0.5096 C   0  0  0  0  0  0  0  0  0  0  0  0
    0.1767   -0.2421    0.4057 C   0  0  0  0  0  0  0  0  0  0  0  0
   -1.1000   -0.4258   -0.3050 C   0  0  0  0  0  0  0  0  0  0  0  0
   -2.3074   -0.5916    0.6182 C   0  0  0  0  0  0  0  0  0  0  0  0
   -2.0987    0.8247    0.9915 C   0  0  0  0  0  0  0  0  0  0  0  0
   -2.8071    1.6236    1.5725 O   0  0  0  0  0  0  0  0  0  0  0  0
   -0.7552    0.9078    0.4164 C   0  0  0  0  0  0  0  0  0  0  0  0
    3.5117   -0.4661   -0.3252 H   0  0  0  0  0  0  0  0  0  0  0  0
    2.8777    1.0950    0.2949 H   0  0  0  0  0  0  0  0  0  0  0  0
    2.5890   -0.4444    1.2524 H   0  0  0  0  0  0  0  0  0  0  0  0
    1.3861   -1.1605   -1.0659 H   0  0  0  0  0  0  0  0  0  0  0  0
    1.2173    0.6432   -1.2491 H   0  0  0  0  0  0  0  0  0  0  0  0
    0.3400   -0.8745    1.3031 H   0  0  0  0  0  0  0  0  0  0  0  0
   -1.2423   -0.3120   -1.3714 H   0  0  0  0  0  0  0  0  0  0  0  0
   -2.1209   -1.3210    1.4568 H   0  0  0  0  0  0  0  0  0  0  0  0
   -3.2447   -0.8382    0.1106 H   0  0  0  0  0  0  0  0  0  0  0  0
   -0.4661    1.7569   -0.2290 H   0  0  0  0  0  0  0  0  0  0  0  0
  1  2  1  0
  2  3  1  0
  3  4  1  0
  4  5  1  0
  5  6  1  0
  6  7  2  0
  6  8  1  0
  8  3  1  0
  8  4  1  0
  1  9  1  0
  1 10  1  0
  1 11  1  0
  2 12  1  0
  2 13  1  0
  3 14  1  0
  4 15  1  0
  5 16  1  0
  5 17  1  0
  8 18  1  0
M  END
