
     RDKit          3D

 23 24  0  0  0  0  0  0  0  0999 V2000
   -2.8082   -0.4676   -0.0929 C   0  0  0  0  0  0  0  0  0  0  0  0
   -1.6810    0.5152   -0.2437 C   0  0  0  0  0  0  0  0  0  0  0  0
   -0.5536    0.2661    0.7285 C   0  0  0  0  0  0  0  0  0  0  0  0
    0.0555   -1.1268    0.5459 C   0  0  0  0  0  0  0  0  0  0  0  0
    1.4221   -0.4424    0.6534 C   0  0  0  0  0  0  0  0  0  0  0  0
    2.3370   -0.9982   -0.3984 C   0  0  0  0  0  0  0  0  0  0  0  0
    0.7619    0.8486    0.3770 C   0  0  0  0  0  0  0  0  0  0  0  0
    1.0953    1.8782   -0.4573 C   0  0  0  0  0  0  0  0  0  0  0  0
    1.2169    2.0189    1.0112 O   0  0  0  0  0  0  0  0  0  0  0  0
   -2.7831   -1.0299    0.8531 H   0  0  0  0  0  0  0  0  0  0  0  0
   -3.7944    0.0379   -0.1443 H   0  0  0  0  0  0  0  0  0  0  0  0
   -2.7208   -1.2124   -0.9350 H   0  0  0  0  0  0  0  0  0  0  0  0
   -2.1032    1.5249    0.0153 H   0  0  0  0  0  0  0  0  0  0  0  0
   -1.2736    0.5009   -1.2738 H   0  0  0  0  0  0  0  0  0  0  0  0
   -0.8161    0.4720    1.7829 H   0  0  0  0  0  0  0  0  0  0  0  0
   -0.1500   -1.4812   -0.4659 H   0  0  0  0  0  0  0  0  0  0  0  0
   -0.1163   -1.8118    1.3790 H   0  0  0  0  0  0  0  0  0  0  0  0
    1.8597   -0.4820    1.6606 H   0  0  0  0  0  0  0  0  0  0  0  0
    1.9419   -0.8050   -1.4144 H   0  0  0  0  0  0  0  0  0  0  0  0
    3.3832   -0.7121   -0.2565 H   0  0  0  0  0  0  0  0  0  0  0  0
    2.3048   -2.1207   -0.2815 H   0  0  0  0  0  0  0  0  0  0  0  0
    2.0847    2.0256   -0.8970 H   0  0  0  0  0  0  0  0  0  0  0  0
    0.3374    2.6019   -0.8478 H   0  0  0  0  0  0  0  0  0  0  0  0
  1  2  1  0
  2  3  1  0
  3  4  1  0
  4  5  1  0
  5  6  1  0
  5  7  1  0
  7  8  1  0
  8  9  1  0
  7  3  1  0
  9  7  1  0
  1 10  1  0
  1 11  1  0
  1 12  1  0
  2 13  1  0
  2 14  1  0
  3 15  1  0
  4 16  1  0
  4 17  1  0
  5 18  1  0
  6 19  1  0
  6 20  1  0
  6 21  1  0
  8 22  1  0
  8 23  1  0
M  END
