
     RDKit          3D

 25 26  0  0  0  0  0  0  0  0999 V2000
    2.7345    0.4259   -0.3365 C   0  0  0  0  0  0  0  0  0  0  0  0
    1.5424   -0.1940    0.3312 C   0  0  0  0  0  0  0  0  0  0  0  0
    0.3478   -0.3195   -0.5721 C   0  0  0  0  0  0  0  0  0  0  0  0
   -0.1977    0.9466   -1.1429 C   0  0  0  0  0  0  0  0  0  0  0  0
   -0.6275    2.0513   -0.2741 C   0  0  0  0  0  0  0  0  0  0  0  0
   -1.4546    0.8327   -0.2200 C   0  0  0  0  0  0  0  0  0  0  0  0
   -0.9168   -0.4858    0.2147 C   0  0  0  0  0  0  0  0  0  0  0  0
   -1.7168   -1.6656   -0.3385 C   0  0  0  0  0  0  0  0  0  0  0  0
   -0.7661   -0.5991    1.6985 C   0  0  0  0  0  0  0  0  0  0  0  0
    2.6776    0.4288   -1.4405 H   0  0  0  0  0  0  0  0  0  0  0  0
    3.6770   -0.1459   -0.0924 H   0  0  0  0  0  0  0  0  0  0  0  0
    2.8934    1.4342    0.0873 H   0  0  0  0  0  0  0  0  0  0  0  0
    1.2710    0.3708    1.2671 H   0  0  0  0  0  0  0  0  0  0  0  0
    1.8263   -1.2172    0.6550 H   0  0  0  0  0  0  0  0  0  0  0  0
    0.5227   -1.0880   -1.3509 H   0  0  0  0  0  0  0  0  0  0  0  0
   -0.4565    0.9468   -2.2242 H   0  0  0  0  0  0  0  0  0  0  0  0
    0.0574    2.3637    0.5189 H   0  0  0  0  0  0  0  0  0  0  0  0
   -1.1021    2.9178   -0.8069 H   0  0  0  0  0  0  0  0  0  0  0  0
   -2.4268    0.8154   -0.7110 H   0  0  0  0  0  0  0  0  0  0  0  0
   -1.6123   -1.5853   -1.4556 H   0  0  0  0  0  0  0  0  0  0  0  0
   -2.7654   -1.6329   -0.0523 H   0  0  0  0  0  0  0  0  0  0  0  0
   -1.1943   -2.5878   -0.0534 H   0  0  0  0  0  0  0  0  0  0  0  0
    0.0858   -1.2771    1.9941 H   0  0  0  0  0  0  0  0  0  0  0  0
   -1.7018   -1.0956    2.0868 H   0  0  0  0  0  0  0  0  0  0  0  0
   -0.6972    0.3595    2.2177 H   0  0  0  0  0  0  0  0  0  0  0  0
  1  2  1  0
  2  3  1  0
  3  4  1  0
  4  5  1  0
  5  6  1  0
  6  7  1  0
  7  8  1  0
  7  9  1  0
  7  3  1  0
  6  4  1  0
  1 10  1  0
  1 11  1  0
  1 12  1  0
  2 13  1  0
  2 14  1  0
  3 15  1  0
  4 16  1  0
  5 17  1  0
  5 18  1  0
  6 19  1  0
  8 20  1  0
  8 21  1  0
  8 22  1  0
  9 23  1  0
  9 24  1  0
  9 25  1  0
M  END
