
     RDKit          3D

 23 24  0  0  0  0  0  0  0  0999 V2000
    2.7594    0.4089    0.8579 C   0  0  0  0  0  0  0  0  0  0  0  0
    1.9083   -0.7216    0.3594 C   0  0  0  0  0  0  0  0  0  0  0  0
    0.7283   -0.1887   -0.4150 C   0  0  0  0  0  0  0  0  0  0  0  0
   -0.1632   -1.2748   -0.9410 C   0  0  0  0  0  0  0  0  0  0  0  0
   -1.3889   -0.4990   -1.3597 C   0  0  0  0  0  0  0  0  0  0  0  0
   -1.2832    0.8434   -1.6765 O   0  0  0  0  0  0  0  0  0  0  0  0
   -1.4904    0.5969   -0.3268 C   0  0  0  0  0  0  0  0  0  0  0  0
   -2.8172    0.8739    0.2938 C   0  0  0  0  0  0  0  0  0  0  0  0
   -0.2420    0.5532    0.5014 C   0  0  0  0  0  0  0  0  0  0  0  0
    2.5251    0.7204    1.8953 H   0  0  0  0  0  0  0  0  0  0  0  0
    3.8368    0.1117    0.8485 H   0  0  0  0  0  0  0  0  0  0  0  0
    2.6661    1.2836    0.1547 H   0  0  0  0  0  0  0  0  0  0  0  0
    1.6202   -1.3675    1.1955 H   0  0  0  0  0  0  0  0  0  0  0  0
    2.5127   -1.3280   -0.3415 H   0  0  0  0  0  0  0  0  0  0  0  0
    1.0983    0.4916   -1.1903 H   0  0  0  0  0  0  0  0  0  0  0  0
   -0.4785   -1.8902   -0.0518 H   0  0  0  0  0  0  0  0  0  0  0  0
    0.2785   -1.8778   -1.7287 H   0  0  0  0  0  0  0  0  0  0  0  0
   -2.3185   -1.0230   -1.6174 H   0  0  0  0  0  0  0  0  0  0  0  0
   -3.5495    0.1225   -0.1152 H   0  0  0  0  0  0  0  0  0  0  0  0
   -2.7499    0.6760    1.3713 H   0  0  0  0  0  0  0  0  0  0  0  0
   -3.2016    1.8840    0.0675 H   0  0  0  0  0  0  0  0  0  0  0  0
   -0.3687    0.0244    1.4663 H   0  0  0  0  0  0  0  0  0  0  0  0
    0.1179    1.5801    0.7107 H   0  0  0  0  0  0  0  0  0  0  0  0
  1  2  1  0
  2  3  1  0
  3  4  1  0
  4  5  1  0
  5  6  1  0
  6  7  1  0
  7  8  1  0
  7  9  1  0
  9  3  1  0
  7  5  1  0
  1 10  1  0
  1 11  1  0
  1 12  1  0
  2 13  1  0
  2 14  1  0
  3 15  1  0
  4 16  1  0
  4 17  1  0
  5 18  1  0
  8 19  1  0
  8 20  1  0
  8 21  1  0
  9 22  1  0
  9 23  1  0
M  END
