
     RDKit          3D

 17 17  0  0  0  0  0  0  0  0999 V2000
   -2.1019    0.5351   -0.2208 C   0  0  0  0  0  0  0  0  0  0  0  0
   -0.8272   -0.0128   -0.7927 C   0  0  0  0  0  0  0  0  0  0  0  0
    0.0266   -0.5297    0.3391 C   0  0  0  0  0  0  0  0  0  0  0  0
    1.3552   -1.1167   -0.0962 C   0  0  0  0  0  0  0  0  0  0  0  0
    2.0243    0.1624    0.2371 C   0  0  0  0  0  0  0  0  0  0  0  0
    3.0974    0.6456   -0.0404 O   0  0  0  0  0  0  0  0  0  0  0  0
    0.8552    0.5661    1.0211 C   0  0  0  0  0  0  0  0  0  0  0  0
   -1.8586    0.9336    0.7945 H   0  0  0  0  0  0  0  0  0  0  0  0
   -2.4287    1.4017   -0.8524 H   0  0  0  0  0  0  0  0  0  0  0  0
   -2.9274   -0.1903   -0.2156 H   0  0  0  0  0  0  0  0  0  0  0  0
   -0.9691   -0.7453   -1.5934 H   0  0  0  0  0  0  0  0  0  0  0  0
   -0.2670    0.8646   -1.2272 H   0  0  0  0  0  0  0  0  0  0  0  0
   -0.5103   -1.0907    1.1113 H   0  0  0  0  0  0  0  0  0  0  0  0
    1.4112   -1.4215   -1.1568 H   0  0  0  0  0  0  0  0  0  0  0  0
    1.6303   -1.9264    0.6329 H   0  0  0  0  0  0  0  0  0  0  0  0
    1.0403    0.3548    2.1138 H   0  0  0  0  0  0  0  0  0  0  0  0
    0.4498    1.5694    0.8547 H   0  0  0  0  0  0  0  0  0  0  0  0
  1  2  1  0
  2  3  1  0
  3  4  1  0
  4  5  1  0
  5  6  2  0
  5  7  1  0
  7  3  1  0
  1  8  1  0
  1  9  1  0
  1 10  1  0
  2 11  1  0
  2 12  1  0
  3 13  1  0
  4 14  1  0
  4 15  1  0
  7 16  1  0
  7 17  1  0
M  END
