
     RDKit          3D

 25 25  0  0  0  0  0  0  0  0999 V2000
   -2.8779   -0.7541   -0.9040 C   0  0  0  0  0  0  0  0  0  0  0  0
   -1.3953   -1.0186   -0.8378 C   0  0  0  0  0  0  0  0  0  0  0  0
   -0.7082   -0.2353    0.2516 C   0  0  0  0  0  0  0  0  0  0  0  0
   -0.8282    1.2344    0.1202 C   0  0  0  0  0  0  0  0  0  0  0  0
    0.3624    1.8906   -0.5466 C   0  0  0  0  0  0  0  0  0  0  0  0
    1.4993    1.4517    0.1409 O   0  0  0  0  0  0  0  0  0  0  0  0
    1.7128    0.1386   -0.3041 C   0  0  0  0  0  0  0  0  0  0  0  0
    3.0915   -0.3054    0.1927 C   0  0  0  0  0  0  0  0  0  0  0  0
    0.7050   -0.7394    0.3578 C   0  0  0  0  0  0  0  0  0  0  0  0
   -3.3123   -1.5678   -1.5492 H   0  0  0  0  0  0  0  0  0  0  0  0
   -3.1345    0.2483   -1.2670 H   0  0  0  0  0  0  0  0  0  0  0  0
   -3.2761   -0.9177    0.1388 H   0  0  0  0  0  0  0  0  0  0  0  0
   -0.9264   -0.8711   -1.8300 H   0  0  0  0  0  0  0  0  0  0  0  0
   -1.2855   -2.1003   -0.5479 H   0  0  0  0  0  0  0  0  0  0  0  0
   -1.2188   -0.5382    1.2137 H   0  0  0  0  0  0  0  0  0  0  0  0
   -1.7679    1.4929   -0.4032 H   0  0  0  0  0  0  0  0  0  0  0  0
   -0.8911    1.6966    1.1491 H   0  0  0  0  0  0  0  0  0  0  0  0
    0.2934    2.9831   -0.3788 H   0  0  0  0  0  0  0  0  0  0  0  0
    0.4127    1.6979   -1.6240 H   0  0  0  0  0  0  0  0  0  0  0  0
    1.6436    0.1004   -1.4053 H   0  0  0  0  0  0  0  0  0  0  0  0
    3.0717   -0.1357    1.3038 H   0  0  0  0  0  0  0  0  0  0  0  0
    3.1379   -1.3961   -0.0062 H   0  0  0  0  0  0  0  0  0  0  0  0
    3.8817    0.2717   -0.3091 H   0  0  0  0  0  0  0  0  0  0  0  0
    0.7973   -1.7597   -0.1073 H   0  0  0  0  0  0  0  0  0  0  0  0
    1.0129   -0.8666    1.4198 H   0  0  0  0  0  0  0  0  0  0  0  0
  1  2  1  0
  2  3  1  0
  3  4  1  0
  4  5  1  0
  5  6  1  0
  6  7  1  0
  7  8  1  0
  7  9  1  0
  9  3  1  0
  1 10  1  0
  1 11  1  0
  1 12  1  0
  2 13  1  0
  2 14  1  0
  3 15  1  0
  4 16  1  0
  4 17  1  0
  5 18  1  0
  5 19  1  0
  7 20  1  0
  8 21  1  0
  8 22  1  0
  8 23  1  0
  9 24  1  0
  9 25  1  0
M  END
