
     RDKit          3D

 23 24  0  0  0  0  0  0  0  0999 V2000
    2.5114    0.2318    0.5755 C   0  0  0  0  0  0  0  0  0  0  0  0
    1.5790   -0.2196   -0.4983 C   0  0  0  0  0  0  0  0  0  0  0  0
    0.1707   -0.1578   -0.2085 C   0  0  0  0  0  0  0  0  0  0  0  0
   -0.8158   -0.6057   -1.2707 C   0  0  0  0  0  0  0  0  0  0  0  0
   -1.7165   -0.8571   -0.0771 C   0  0  0  0  0  0  0  0  0  0  0  0
   -1.9316    0.5488    0.4220 C   0  0  0  0  0  0  0  0  0  0  0  0
   -0.4637    1.0229    0.4365 C   0  0  0  0  0  0  0  0  0  0  0  0
   -0.3055    2.2049   -0.2370 O   0  0  0  0  0  0  0  0  0  0  0  0
   -0.4449   -1.2777    0.6495 C   0  0  0  0  0  0  0  0  0  0  0  0
    2.7387   -0.5762    1.2992 H   0  0  0  0  0  0  0  0  0  0  0  0
    2.1456    1.1252    1.1416 H   0  0  0  0  0  0  0  0  0  0  0  0
    3.4790    0.5106    0.1096 H   0  0  0  0  0  0  0  0  0  0  0  0
    1.8372    0.3368   -1.4257 H   0  0  0  0  0  0  0  0  0  0  0  0
    1.8582   -1.2919   -0.7268 H   0  0  0  0  0  0  0  0  0  0  0  0
   -0.5669   -1.5462   -1.7713 H   0  0  0  0  0  0  0  0  0  0  0  0
   -1.1844    0.2208   -1.9053 H   0  0  0  0  0  0  0  0  0  0  0  0
   -2.5183   -1.5365   -0.1544 H   0  0  0  0  0  0  0  0  0  0  0  0
   -2.5137    1.1142   -0.3230 H   0  0  0  0  0  0  0  0  0  0  0  0
   -2.3297    0.6038    1.4347 H   0  0  0  0  0  0  0  0  0  0  0  0
   -0.0997    1.1269    1.4751 H   0  0  0  0  0  0  0  0  0  0  0  0
   -0.8474    2.2585   -1.0663 H   0  0  0  0  0  0  0  0  0  0  0  0
   -0.0687   -2.2665    0.4173 H   0  0  0  0  0  0  0  0  0  0  0  0
   -0.5131   -0.9698    1.7033 H   0  0  0  0  0  0  0  0  0  0  0  0
  1  2  1  0
  2  3  1  0
  3  4  1  0
  4  5  1  0
  5  6  1  0
  6  7  1  0
  7  8  1  0
  5  9  1  0
  7  3  1  0
  9  3  1  0
  1 10  1  0
  1 11  1  0
  1 12  1  0
  2 13  1  0
  2 14  1  0
  4 15  1  0
  4 16  1  0
  5 17  1  0
  6 18  1  0
  6 19  1  0
  7 20  1  0
  8 21  1  0
  9 22  1  0
  9 23  1  0
M  END
