
     RDKit          3D

 23 25  0  0  0  0  0  0  0  0999 V2000
   -2.8731    0.5116   -0.4428 C   0  0  0  0  0  0  0  0  0  0  0  0
   -1.9613    0.2577    0.7193 C   0  0  0  0  0  0  0  0  0  0  0  0
   -0.9012   -0.7907    0.3721 C   0  0  0  0  0  0  0  0  0  0  0  0
    0.0219   -0.5854   -0.6931 C   0  0  0  0  0  0  0  0  0  0  0  0
    1.3305   -1.1099   -1.0747 C   0  0  0  0  0  0  0  0  0  0  0  0
    2.2935   -0.1705   -0.3210 C   0  0  0  0  0  0  0  0  0  0  0  0
    1.9373    1.2454   -0.4160 C   0  0  0  0  0  0  0  0  0  0  0  0
    1.3570    0.5758    0.7055 C   0  0  0  0  0  0  0  0  0  0  0  0
    0.3994   -0.5196    0.8392 C   0  0  0  0  0  0  0  0  0  0  0  0
   -3.5968    1.2902   -0.1313 H   0  0  0  0  0  0  0  0  0  0  0  0
   -2.3375    0.9041   -1.3269 H   0  0  0  0  0  0  0  0  0  0  0  0
   -3.4654   -0.3969   -0.6627 H   0  0  0  0  0  0  0  0  0  0  0  0
   -2.5513   -0.1182    1.5657 H   0  0  0  0  0  0  0  0  0  0  0  0
   -1.4832    1.2053    1.0520 H   0  0  0  0  0  0  0  0  0  0  0  0
   -1.3477   -1.8107    0.4439 H   0  0  0  0  0  0  0  0  0  0  0  0
   -0.1452    0.4069   -1.1957 H   0  0  0  0  0  0  0  0  0  0  0  0
    1.5262   -2.1293   -0.6528 H   0  0  0  0  0  0  0  0  0  0  0  0
    1.5079   -1.0706   -2.1581 H   0  0  0  0  0  0  0  0  0  0  0  0
    3.2184   -0.5716    0.0798 H   0  0  0  0  0  0  0  0  0  0  0  0
    1.4634    1.5896   -1.3561 H   0  0  0  0  0  0  0  0  0  0  0  0
    2.8163    1.9374   -0.2201 H   0  0  0  0  0  0  0  0  0  0  0  0
    1.8532    0.7951    1.7095 H   0  0  0  0  0  0  0  0  0  0  0  0
    0.9376   -1.4457    1.2311 H   0  0  0  0  0  0  0  0  0  0  0  0
  1  2  1  0
  2  3  1  0
  3  4  1  0
  4  5  1  0
  5  6  1  0
  6  7  1  0
  7  8  1  0
  8  9  1  0
  9  3  1  0
  9  4  1  0
  8  6  1  0
  1 10  1  0
  1 11  1  0
  1 12  1  0
  2 13  1  0
  2 14  1  0
  3 15  1  0
  4 16  1  0
  5 17  1  0
  5 18  1  0
  6 19  1  0
  7 20  1  0
  7 21  1  0
  8 22  1  0
  9 23  1  0
M  END
