
     RDKit          3D

 19 20  0  0  0  0  0  0  0  0999 V2000
    2.4016   -0.1358   -0.4599 C   0  0  0  0  0  0  0  0  0  0  0  0
    1.4692    0.9896   -0.0808 C   0  0  0  0  0  0  0  0  0  0  0  0
    0.3041    0.3284    0.6797 C   0  0  0  0  0  0  0  0  0  0  0  0
   -0.4533   -0.6351   -0.0012 C   0  0  0  0  0  0  0  0  0  0  0  0
   -1.7243   -1.3759    0.2718 C   0  0  0  0  0  0  0  0  0  0  0  0
   -2.6243   -0.4870   -0.4407 O   0  0  0  0  0  0  0  0  0  0  0  0
   -2.0496    0.7780   -0.4543 C   0  0  0  0  0  0  0  0  0  0  0  0
   -2.3637    1.7182   -1.1948 O   0  0  0  0  0  0  0  0  0  0  0  0
   -1.0365    0.7286    0.5663 C   0  0  0  0  0  0  0  0  0  0  0  0
    1.9699   -1.1399   -0.2801 H   0  0  0  0  0  0  0  0  0  0  0  0
    2.6751   -0.1119   -1.5405 H   0  0  0  0  0  0  0  0  0  0  0  0
    3.2987   -0.0595    0.1831 H   0  0  0  0  0  0  0  0  0  0  0  0
    1.9252    1.7437    0.5707 H   0  0  0  0  0  0  0  0  0  0  0  0
    1.0908    1.4329   -1.0462 H   0  0  0  0  0  0  0  0  0  0  0  0
    0.7169    0.0004    1.6820 H   0  0  0  0  0  0  0  0  0  0  0  0
   -0.3117   -0.6529   -1.1284 H   0  0  0  0  0  0  0  0  0  0  0  0
   -1.6838   -2.3550   -0.2136 H   0  0  0  0  0  0  0  0  0  0  0  0
   -1.9868   -1.3965    1.3416 H   0  0  0  0  0  0  0  0  0  0  0  0
   -1.6175    0.6297    1.5452 H   0  0  0  0  0  0  0  0  0  0  0  0
  1  2  1  0
  2  3  1  0
  3  4  1  0
  4  5  1  0
  5  6  1  0
  6  7  1  0
  7  8  2  0
  7  9  1  0
  9  3  1  0
  9  4  1  0
  1 10  1  0
  1 11  1  0
  1 12  1  0
  2 13  1  0
  2 14  1  0
  3 15  1  0
  4 16  1  0
  5 17  1  0
  5 18  1  0
  9 19  1  0
M  END
