
     RDKit          3D

 23 23  0  0  0  0  0  0  0  0999 V2000
   -1.8368    1.6489   -0.4685 C   0  0  0  0  0  0  0  0  0  0  0  0
   -1.4719    0.6448    0.6051 C   0  0  0  0  0  0  0  0  0  0  0  0
   -0.2626   -0.1802    0.1813 C   0  0  0  0  0  0  0  0  0  0  0  0
    0.9249    0.6448   -0.0636 C   0  0  0  0  0  0  0  0  0  0  0  0
    2.1662   -0.0382   -0.4815 C   0  0  0  0  0  0  0  0  0  0  0  0
    2.6208   -0.9614    0.4539 O   0  0  0  0  0  0  0  0  0  0  0  0
   -0.1892   -1.4265    0.9784 C   0  0  0  0  0  0  0  0  0  0  0  0
   -1.2558   -1.9192    0.1834 O   0  0  0  0  0  0  0  0  0  0  0  0
   -0.6549   -1.1863   -0.8701 C   0  0  0  0  0  0  0  0  0  0  0  0
   -1.9643    1.1450   -1.4520 H   0  0  0  0  0  0  0  0  0  0  0  0
   -1.1004    2.4510   -0.5464 H   0  0  0  0  0  0  0  0  0  0  0  0
   -2.8383    2.0679   -0.1902 H   0  0  0  0  0  0  0  0  0  0  0  0
   -1.2179    1.2267    1.5153 H   0  0  0  0  0  0  0  0  0  0  0  0
   -2.3472    0.0040    0.8175 H   0  0  0  0  0  0  0  0  0  0  0  0
    1.1591    1.1953    0.8951 H   0  0  0  0  0  0  0  0  0  0  0  0
    0.6761    1.4597   -0.7843 H   0  0  0  0  0  0  0  0  0  0  0  0
    2.1194   -0.5329   -1.4687 H   0  0  0  0  0  0  0  0  0  0  0  0
    2.9867    0.7238   -0.5749 H   0  0  0  0  0  0  0  0  0  0  0  0
    3.5942   -0.9515    0.5315 H   0  0  0  0  0  0  0  0  0  0  0  0
    0.6454   -2.1124    0.8647 H   0  0  0  0  0  0  0  0  0  0  0  0
   -0.5657   -1.3230    2.0278 H   0  0  0  0  0  0  0  0  0  0  0  0
    0.1894   -1.7468   -1.3011 H   0  0  0  0  0  0  0  0  0  0  0  0
   -1.3770   -0.8333   -1.6216 H   0  0  0  0  0  0  0  0  0  0  0  0
  1  2  1  0
  2  3  1  0
  3  4  1  0
  4  5  1  0
  5  6  1  0
  3  7  1  0
  7  8  1  0
  8  9  1  0
  9  3  1  0
  1 10  1  0
  1 11  1  0
  1 12  1  0
  2 13  1  0
  2 14  1  0
  4 15  1  0
  4 16  1  0
  5 17  1  0
  5 18  1  0
  6 19  1  0
  7 20  1  0
  7 21  1  0
  9 22  1  0
  9 23  1  0
M  END
