
     RDKit          3D

 25 25  0  0  0  0  0  0  0  0999 V2000
   -2.7415   -0.8943   -0.0002 C   0  0  0  0  0  0  0  0  0  0  0  0
   -1.4052   -0.7278   -0.6541 C   0  0  0  0  0  0  0  0  0  0  0  0
   -0.5796    0.3861    0.0073 C   0  0  0  0  0  0  0  0  0  0  0  0
   -1.2847    1.7010   -0.0766 C   0  0  0  0  0  0  0  0  0  0  0  0
    0.7370    0.4127   -0.7638 C   0  0  0  0  0  0  0  0  0  0  0  0
    1.5336   -0.5424    0.1212 C   0  0  0  0  0  0  0  0  0  0  0  0
    2.9997   -0.4348   -0.0729 C   0  0  0  0  0  0  0  0  0  0  0  0
    1.0699    0.0070    1.4741 C   0  0  0  0  0  0  0  0  0  0  0  0
   -0.2910    0.0648    1.3037 O   0  0  0  0  0  0  0  0  0  0  0  0
   -2.9890   -0.0613    0.6623 H   0  0  0  0  0  0  0  0  0  0  0  0
   -2.8024   -1.8800    0.5469 H   0  0  0  0  0  0  0  0  0  0  0  0
   -3.4932   -1.0112   -0.8358 H   0  0  0  0  0  0  0  0  0  0  0  0
   -1.4915   -0.4625   -1.7231 H   0  0  0  0  0  0  0  0  0  0  0  0
   -0.8696   -1.6903   -0.6016 H   0  0  0  0  0  0  0  0  0  0  0  0
   -1.1950    2.2445    0.9061 H   0  0  0  0  0  0  0  0  0  0  0  0
   -0.7654    2.3308   -0.8488 H   0  0  0  0  0  0  0  0  0  0  0  0
   -2.3600    1.6273   -0.2942 H   0  0  0  0  0  0  0  0  0  0  0  0
    0.6164    0.0287   -1.7865 H   0  0  0  0  0  0  0  0  0  0  0  0
    1.2187    1.3928   -0.6985 H   0  0  0  0  0  0  0  0  0  0  0  0
    1.1272   -1.5670   -0.0354 H   0  0  0  0  0  0  0  0  0  0  0  0
    3.2181    0.4070   -0.7543 H   0  0  0  0  0  0  0  0  0  0  0  0
    3.3542   -1.3530   -0.5955 H   0  0  0  0  0  0  0  0  0  0  0  0
    3.5775   -0.3629    0.8705 H   0  0  0  0  0  0  0  0  0  0  0  0
    1.3551   -0.6499    2.3052 H   0  0  0  0  0  0  0  0  0  0  0  0
    1.4608    1.0345    1.5440 H   0  0  0  0  0  0  0  0  0  0  0  0
  1  2  1  0
  2  3  1  0
  3  4  1  0
  3  5  1  0
  5  6  1  0
  6  7  1  0
  6  8  1  0
  8  9  1  0
  9  3  1  0
  1 10  1  0
  1 11  1  0
  1 12  1  0
  2 13  1  0
  2 14  1  0
  4 15  1  0
  4 16  1  0
  4 17  1  0
  5 18  1  0
  5 19  1  0
  6 20  1  0
  7 21  1  0
  7 22  1  0
  7 23  1  0
  8 24  1  0
  8 25  1  0
M  END
