
     RDKit          3D

 19 20  0  0  0  0  0  0  0  0999 V2000
    2.2167   -0.4655   -0.2428 C   0  0  0  0  0  0  0  0  0  0  0  0
    1.0694   -0.0941    0.6510 C   0  0  0  0  0  0  0  0  0  0  0  0
   -0.2342   -0.4124   -0.1157 C   0  0  0  0  0  0  0  0  0  0  0  0
   -0.2461    0.3252   -1.2634 O   0  0  0  0  0  0  0  0  0  0  0  0
   -0.3280    1.6318   -0.7322 C   0  0  0  0  0  0  0  0  0  0  0  0
   -0.8393    1.4858    0.5845 O   0  0  0  0  0  0  0  0  0  0  0  0
   -1.5273    0.3124    0.4486 C   0  0  0  0  0  0  0  0  0  0  0  0
   -1.2292   -1.0495    0.6382 C   0  0  0  0  0  0  0  0  0  0  0  0
   -1.9976   -2.0436   -0.0138 O   0  0  0  0  0  0  0  0  0  0  0  0
    3.1086   -0.7810    0.3296 H   0  0  0  0  0  0  0  0  0  0  0  0
    1.8943   -1.2781   -0.8968 H   0  0  0  0  0  0  0  0  0  0  0  0
    2.5456    0.3708   -0.8951 H   0  0  0  0  0  0  0  0  0  0  0  0
    1.0188    0.9595    0.9211 H   0  0  0  0  0  0  0  0  0  0  0  0
    1.1430   -0.7685    1.5474 H   0  0  0  0  0  0  0  0  0  0  0  0
    0.6406    2.1360   -0.6991 H   0  0  0  0  0  0  0  0  0  0  0  0
   -1.0053    2.2714   -1.3456 H   0  0  0  0  0  0  0  0  0  0  0  0
   -2.3484    0.5032   -0.3128 H   0  0  0  0  0  0  0  0  0  0  0  0
   -1.0032   -1.4029    1.6799 H   0  0  0  0  0  0  0  0  0  0  0  0
   -2.8785   -1.7007   -0.2831 H   0  0  0  0  0  0  0  0  0  0  0  0
  1  2  1  0
  2  3  1  0
  3  4  1  0
  4  5  1  0
  5  6  1  0
  6  7  1  0
  7  8  1  0
  8  9  1  0
  7  3  1  0
  8  3  1  0
  1 10  1  0
  1 11  1  0
  1 12  1  0
  2 13  1  0
  2 14  1  0
  5 15  1  0
  5 16  1  0
  7 17  1  0
  8 18  1  0
  9 19  1  0
M  END
