
     RDKit          3D

 19 20  0  0  0  0  0  0  0  0999 V2000
   -2.2751   -0.2011   -0.4388 C   0  0  0  0  0  0  0  0  0  0  0  0
   -1.2169    0.9013   -0.3806 C   0  0  0  0  0  0  0  0  0  0  0  0
    0.0286    0.3896   -0.0954 C   0  0  0  0  0  0  0  0  0  0  0  0
    0.4293   -0.3745    1.1287 C   0  0  0  0  0  0  0  0  0  0  0  0
    1.7043   -0.2496    0.3034 C   0  0  0  0  0  0  0  0  0  0  0  0
    2.8328   -0.7000    0.5861 O   0  0  0  0  0  0  0  0  0  0  0  0
    0.8257   -0.5847   -0.8777 C   0  0  0  0  0  0  0  0  0  0  0  0
    1.2856    1.1509    0.0689 C   0  0  0  0  0  0  0  0  0  0  0  0
    1.6804    2.2820    0.0236 O   0  0  0  0  0  0  0  0  0  0  0  0
   -1.9261   -1.0364    0.1932 H   0  0  0  0  0  0  0  0  0  0  0  0
   -3.2489    0.1461   -0.0321 H   0  0  0  0  0  0  0  0  0  0  0  0
   -2.4205   -0.5314   -1.4761 H   0  0  0  0  0  0  0  0  0  0  0  0
   -1.2771    1.4670   -1.3110 H   0  0  0  0  0  0  0  0  0  0  0  0
   -1.5835    1.5913    0.4357 H   0  0  0  0  0  0  0  0  0  0  0  0
    0.0527   -1.3948    1.2344 H   0  0  0  0  0  0  0  0  0  0  0  0
    0.4552    0.2672    2.0075 H   0  0  0  0  0  0  0  0  0  0  0  0
    2.9040   -1.3243    1.3719 H   0  0  0  0  0  0  0  0  0  0  0  0
    0.4721   -1.6137   -0.9392 H   0  0  0  0  0  0  0  0  0  0  0  0
    1.2775   -0.1849   -1.8025 H   0  0  0  0  0  0  0  0  0  0  0  0
  1  2  1  0
  2  3  1  0
  3  4  1  0
  4  5  1  0
  5  6  1  0
  5  7  1  0
  5  8  1  0
  8  9  2  0
  7  3  1  0
  8  3  1  0
  1 10  1  0
  1 11  1  0
  1 12  1  0
  2 13  1  0
  2 14  1  0
  4 15  1  0
  4 16  1  0
  6 17  1  0
  7 18  1  0
  7 19  1  0
M  END
