
     RDKit          3D

 23 23  0  0  0  0  0  0  0  0999 V2000
    2.6592    0.5302    0.1704 C   0  0  0  0  0  0  0  0  0  0  0  0
    1.3422    0.6455   -0.5118 C   0  0  0  0  0  0  0  0  0  0  0  0
    0.2971   -0.3627   -0.0866 C   0  0  0  0  0  0  0  0  0  0  0  0
    0.6403   -1.7870   -0.1842 C   0  0  0  0  0  0  0  0  0  0  0  0
    0.0675   -2.5687   -0.9624 O   0  0  0  0  0  0  0  0  0  0  0  0
   -0.3625   -0.0545    1.2798 C   0  0  0  0  0  0  0  0  0  0  0  0
   -1.0938    0.0545   -0.0317 C   0  0  0  0  0  0  0  0  0  0  0  0
   -1.5656    1.4196   -0.3918 C   0  0  0  0  0  0  0  0  0  0  0  0
   -2.1158   -1.0349   -0.3273 C   0  0  0  0  0  0  0  0  0  0  0  0
    2.5939    0.7296    1.2737 H   0  0  0  0  0  0  0  0  0  0  0  0
    3.2039   -0.3858   -0.0591 H   0  0  0  0  0  0  0  0  0  0  0  0
    3.2736    1.4095   -0.2307 H   0  0  0  0  0  0  0  0  0  0  0  0
    0.8984    1.6552   -0.3889 H   0  0  0  0  0  0  0  0  0  0  0  0
    1.5210    0.4657   -1.6380 H   0  0  0  0  0  0  0  0  0  0  0  0
    1.4534   -2.2546    0.4529 H   0  0  0  0  0  0  0  0  0  0  0  0
   -0.0104    0.8710    1.7871 H   0  0  0  0  0  0  0  0  0  0  0  0
   -0.5879   -0.8972    1.9519 H   0  0  0  0  0  0  0  0  0  0  0  0
   -2.6263    1.4971   -0.0729 H   0  0  0  0  0  0  0  0  0  0  0  0
   -1.4982    1.7036   -1.4518 H   0  0  0  0  0  0  0  0  0  0  0  0
   -1.0189    2.2258    0.1769 H   0  0  0  0  0  0  0  0  0  0  0  0
   -2.1415   -1.2056   -1.4190 H   0  0  0  0  0  0  0  0  0  0  0  0
   -1.8489   -1.9763    0.2220 H   0  0  0  0  0  0  0  0  0  0  0  0
   -3.0807   -0.6802    0.0602 H   0  0  0  0  0  0  0  0  0  0  0  0
  1  2  1  0
  2  3  1  0
  3  4  1  0
  4  5  2  0
  3  6  1  0
  6  7  1  0
  7  8  1  0
  7  9  1  0
  7  3  1  0
  1 10  1  0
  1 11  1  0
  1 12  1  0
  2 13  1  0
  2 14  1  0
  4 15  1  0
  6 16  1  0
  6 17  1  0
  8 18  1  0
  8 19  1  0
  8 20  1  0
  9 21  1  0
  9 22  1  0
  9 23  1  0
M  END
