
     RDKit          3D

 24 24  0  0  0  0  0  0  0  0999 V2000
    2.7096    0.5760    0.0654 C   0  0  0  0  0  0  0  0  0  0  0  0
    1.3981    0.8576   -0.6379 C   0  0  0  0  0  0  0  0  0  0  0  0
    0.3095    0.1972    0.1758 C   0  0  0  0  0  0  0  0  0  0  0  0
    0.5326   -1.2990    0.2729 C   0  0  0  0  0  0  0  0  0  0  0  0
   -0.7927   -1.7248    0.8973 C   0  0  0  0  0  0  0  0  0  0  0  0
   -1.7797   -0.9047    0.1417 C   0  0  0  0  0  0  0  0  0  0  0  0
   -1.0367    0.2590   -0.4783 C   0  0  0  0  0  0  0  0  0  0  0  0
   -1.7789    1.5396   -0.1622 C   0  0  0  0  0  0  0  0  0  0  0  0
    2.5464    0.8091    1.1514 H   0  0  0  0  0  0  0  0  0  0  0  0
    2.9159   -0.5003   -0.0137 H   0  0  0  0  0  0  0  0  0  0  0  0
    3.5460    1.1817   -0.3501 H   0  0  0  0  0  0  0  0  0  0  0  0
    1.2189    1.9166   -0.8101 H   0  0  0  0  0  0  0  0  0  0  0  0
    1.4472    0.2790   -1.6052 H   0  0  0  0  0  0  0  0  0  0  0  0
    0.2268    0.5846    1.1956 H   0  0  0  0  0  0  0  0  0  0  0  0
    0.6171   -1.7596   -0.7362 H   0  0  0  0  0  0  0  0  0  0  0  0
    1.3870   -1.5146    0.9203 H   0  0  0  0  0  0  0  0  0  0  0  0
   -0.7362   -1.3544    1.9635 H   0  0  0  0  0  0  0  0  0  0  0  0
   -0.9488   -2.8036    0.8434 H   0  0  0  0  0  0  0  0  0  0  0  0
   -2.5332   -0.5208    0.8832 H   0  0  0  0  0  0  0  0  0  0  0  0
   -2.2877   -1.5369   -0.6067 H   0  0  0  0  0  0  0  0  0  0  0  0
   -1.0020    0.1509   -1.5752 H   0  0  0  0  0  0  0  0  0  0  0  0
   -2.5146    1.7839   -0.9668 H   0  0  0  0  0  0  0  0  0  0  0  0
   -2.3747    1.4036    0.7604 H   0  0  0  0  0  0  0  0  0  0  0  0
   -1.0699    2.3797   -0.0005 H   0  0  0  0  0  0  0  0  0  0  0  0
  1  2  1  0
  2  3  1  0
  3  4  1  0
  4  5  1  0
  5  6  1  0
  6  7  1  0
  7  8  1  0
  7  3  1  0
  1  9  1  0
  1 10  1  0
  1 11  1  0
  2 12  1  0
  2 13  1  0
  3 14  1  0
  4 15  1  0
  4 16  1  0
  5 17  1  0
  5 18  1  0
  6 19  1  0
  6 20  1  0
  7 21  1  0
  8 22  1  0
  8 23  1  0
  8 24  1  0
M  END
