
     RDKit          3D

 21 22  0  0  0  0  0  0  0  0999 V2000
    2.0384    0.6604    0.7450 C   0  0  0  0  0  0  0  0  0  0  0  0
    1.1460   -0.5301    0.6855 C   0  0  0  0  0  0  0  0  0  0  0  0
    0.2884   -0.5139   -0.5377 C   0  0  0  0  0  0  0  0  0  0  0  0
    1.0884   -0.5133   -1.6897 O   0  0  0  0  0  0  0  0  0  0  0  0
   -0.8099    0.4962   -0.5909 C   0  0  0  0  0  0  0  0  0  0  0  0
   -1.2626    0.9898    0.7838 C   0  0  0  0  0  0  0  0  0  0  0  0
   -1.7967   -0.5345   -1.0624 C   0  0  0  0  0  0  0  0  0  0  0  0
   -1.4413   -1.5929   -1.8382 O   0  0  0  0  0  0  0  0  0  0  0  0
   -0.7511   -1.5790   -0.6386 C   0  0  0  0  0  0  0  0  0  0  0  0
    3.0228    0.4981    0.2314 H   0  0  0  0  0  0  0  0  0  0  0  0
    2.3161    0.8686    1.8201 H   0  0  0  0  0  0  0  0  0  0  0  0
    1.5868    1.5811    0.3613 H   0  0  0  0  0  0  0  0  0  0  0  0
    1.8005   -1.4371    0.6172 H   0  0  0  0  0  0  0  0  0  0  0  0
    0.5955   -0.6212    1.6275 H   0  0  0  0  0  0  0  0  0  0  0  0
    1.0109    0.3994   -2.0853 H   0  0  0  0  0  0  0  0  0  0  0  0
   -0.6603    1.3622   -1.2606 H   0  0  0  0  0  0  0  0  0  0  0  0
   -2.3409    1.2915    0.6323 H   0  0  0  0  0  0  0  0  0  0  0  0
   -1.3010    0.1061    1.4399 H   0  0  0  0  0  0  0  0  0  0  0  0
   -0.6657    1.8201    1.1543 H   0  0  0  0  0  0  0  0  0  0  0  0
   -2.7972   -0.5840   -0.6112 H   0  0  0  0  0  0  0  0  0  0  0  0
   -1.0674   -2.1676    0.2162 H   0  0  0  0  0  0  0  0  0  0  0  0
  1  2  1  0
  2  3  1  0
  3  4  1  0
  3  5  1  0
  5  6  1  0
  5  7  1  0
  7  8  1  0
  8  9  1  0
  9  3  1  0
  9  7  1  0
  1 10  1  0
  1 11  1  0
  1 12  1  0
  2 13  1  0
  2 14  1  0
  4 15  1  0
  5 16  1  0
  6 17  1  0
  6 18  1  0
  6 19  1  0
  7 20  1  0
  9 21  1  0
M  END
