
     RDKit          3D

 23 23  0  0  0  0  0  0  0  0999 V2000
    3.0781   -0.1734    0.0287 C   0  0  0  0  0  0  0  0  0  0  0  0
    1.9779    0.5593   -0.6928 C   0  0  0  0  0  0  0  0  0  0  0  0
    0.6632    0.4001    0.0330 C   0  0  0  0  0  0  0  0  0  0  0  0
    0.2394   -1.0382    0.1485 C   0  0  0  0  0  0  0  0  0  0  0  0
   -1.2656   -0.9474   -0.0101 C   0  0  0  0  0  0  0  0  0  0  0  0
   -1.9420   -1.5799    1.0198 O   0  0  0  0  0  0  0  0  0  0  0  0
   -1.4833    0.5559    0.0387 C   0  0  0  0  0  0  0  0  0  0  0  0
   -2.7765    0.9516   -0.6299 C   0  0  0  0  0  0  0  0  0  0  0  0
   -0.3728    1.0112   -0.6709 O   0  0  0  0  0  0  0  0  0  0  0  0
    2.6830   -0.5475    0.9732 H   0  0  0  0  0  0  0  0  0  0  0  0
    3.9885    0.4802    0.1560 H   0  0  0  0  0  0  0  0  0  0  0  0
    3.3671   -1.0384   -0.6270 H   0  0  0  0  0  0  0  0  0  0  0  0
    1.8729    0.2886   -1.7480 H   0  0  0  0  0  0  0  0  0  0  0  0
    2.2058    1.6600   -0.6770 H   0  0  0  0  0  0  0  0  0  0  0  0
    0.6825    0.8314    1.0476 H   0  0  0  0  0  0  0  0  0  0  0  0
    0.7083   -1.6895   -0.5977 H   0  0  0  0  0  0  0  0  0  0  0  0
    0.4239   -1.4290    1.1894 H   0  0  0  0  0  0  0  0  0  0  0  0
   -1.5707   -1.3076   -1.0132 H   0  0  0  0  0  0  0  0  0  0  0  0
   -1.8849   -0.9994    1.8199 H   0  0  0  0  0  0  0  0  0  0  0  0
   -1.3967    0.8929    1.0661 H   0  0  0  0  0  0  0  0  0  0  0  0
   -2.7234    2.0017   -0.9606 H   0  0  0  0  0  0  0  0  0  0  0  0
   -3.5985    0.8347    0.0727 H   0  0  0  0  0  0  0  0  0  0  0  0
   -2.8762    0.2826   -1.5301 H   0  0  0  0  0  0  0  0  0  0  0  0
  1  2  1  0
  2  3  1  0
  3  4  1  0
  4  5  1  0
  5  6  1  0
  5  7  1  0
  7  8  1  0
  7  9  1  0
  9  3  1  0
  1 10  1  0
  1 11  1  0
  1 12  1  0
  2 13  1  0
  2 14  1  0
  3 15  1  0
  4 16  1  0
  4 17  1  0
  5 18  1  0
  6 19  1  0
  7 20  1  0
  8 21  1  0
  8 22  1  0
  8 23  1  0
M  END
