
     RDKit          3D

 21 22  0  0  0  0  0  0  0  0999 V2000
    1.9612   -0.5854    0.6004 C   0  0  0  0  0  0  0  0  0  0  0  0
    1.6116    0.0004   -0.7344 C   0  0  0  0  0  0  0  0  0  0  0  0
    0.1635    0.4028   -0.8435 C   0  0  0  0  0  0  0  0  0  0  0  0
   -0.1745    1.4454    0.2037 C   0  0  0  0  0  0  0  0  0  0  0  0
   -1.1321    0.4528    0.8396 C   0  0  0  0  0  0  0  0  0  0  0  0
   -2.4568    0.9071    0.9124 O   0  0  0  0  0  0  0  0  0  0  0  0
   -0.8503   -0.4784   -0.2747 C   0  0  0  0  0  0  0  0  0  0  0  0
   -1.3724   -1.6936   -0.5700 C   0  0  0  0  0  0  0  0  0  0  0  0
   -2.0052   -0.6261   -1.2026 O   0  0  0  0  0  0  0  0  0  0  0  0
    1.7472   -1.6731    0.6405 H   0  0  0  0  0  0  0  0  0  0  0  0
    3.0833   -0.5034    0.6988 H   0  0  0  0  0  0  0  0  0  0  0  0
    1.5395   -0.0252    1.4552 H   0  0  0  0  0  0  0  0  0  0  0  0
    1.9026   -0.7324   -1.5148 H   0  0  0  0  0  0  0  0  0  0  0  0
    2.2658    0.9028   -0.9002 H   0  0  0  0  0  0  0  0  0  0  0  0
   -0.0164    0.8374   -1.8546 H   0  0  0  0  0  0  0  0  0  0  0  0
    0.6775    1.7427    0.8362 H   0  0  0  0  0  0  0  0  0  0  0  0
   -0.7539    2.3117   -0.1866 H   0  0  0  0  0  0  0  0  0  0  0  0
   -0.8233    0.1055    1.8572 H   0  0  0  0  0  0  0  0  0  0  0  0
   -2.4805    1.8783    1.0963 H   0  0  0  0  0  0  0  0  0  0  0  0
   -0.8337   -2.4517   -1.2082 H   0  0  0  0  0  0  0  0  0  0  0  0
   -2.0531   -2.2176    0.1491 H   0  0  0  0  0  0  0  0  0  0  0  0
  1  2  1  0
  2  3  1  0
  3  4  1  0
  4  5  1  0
  5  6  1  0
  5  7  1  0
  7  8  1  0
  8  9  1  0
  7  3  1  0
  9  7  1  0
  1 10  1  0
  1 11  1  0
  1 12  1  0
  2 13  1  0
  2 14  1  0
  3 15  1  0
  4 16  1  0
  4 17  1  0
  5 18  1  0
  6 19  1  0
  8 20  1  0
  8 21  1  0
M  END
