
     RDKit          3D

 21 22  0  0  0  0  0  0  0  0999 V2000
    1.8721   -1.1567    0.1585 C   0  0  0  0  0  0  0  0  0  0  0  0
    1.3250    0.2289   -0.0485 C   0  0  0  0  0  0  0  0  0  0  0  0
   -0.0909    0.3231   -0.4902 C   0  0  0  0  0  0  0  0  0  0  0  0
   -0.4706    1.7721   -0.6542 C   0  0  0  0  0  0  0  0  0  0  0  0
   -0.7178    1.7215    0.8680 C   0  0  0  0  0  0  0  0  0  0  0  0
   -1.1527    0.3326    0.5930 C   0  0  0  0  0  0  0  0  0  0  0  0
   -1.6977   -0.8639    0.5129 C   0  0  0  0  0  0  0  0  0  0  0  0
   -1.0619   -1.6619   -0.5767 C   0  0  0  0  0  0  0  0  0  0  0  0
   -0.5212   -0.6269   -1.3777 O   0  0  0  0  0  0  0  0  0  0  0  0
    1.8294   -1.7696   -0.7488 H   0  0  0  0  0  0  0  0  0  0  0  0
    1.4525   -1.6764    1.0404 H   0  0  0  0  0  0  0  0  0  0  0  0
    2.9626   -0.9801    0.4492 H   0  0  0  0  0  0  0  0  0  0  0  0
    1.9576    0.7023   -0.8706 H   0  0  0  0  0  0  0  0  0  0  0  0
    1.5445    0.7883    0.8537 H   0  0  0  0  0  0  0  0  0  0  0  0
   -1.4217    1.9660   -1.1675 H   0  0  0  0  0  0  0  0  0  0  0  0
    0.3718    2.4411   -0.9190 H   0  0  0  0  0  0  0  0  0  0  0  0
    0.1046    1.8724    1.5202 H   0  0  0  0  0  0  0  0  0  0  0  0
   -1.5564    2.4198    1.1461 H   0  0  0  0  0  0  0  0  0  0  0  0
   -2.4941   -1.2399    1.1359 H   0  0  0  0  0  0  0  0  0  0  0  0
   -1.8618   -2.1859   -1.1802 H   0  0  0  0  0  0  0  0  0  0  0  0
   -0.3731   -2.4068   -0.2444 H   0  0  0  0  0  0  0  0  0  0  0  0
  1  2  1  0
  2  3  1  0
  3  4  1  0
  4  5  1  0
  5  6  1  0
  6  7  2  0
  7  8  1  0
  8  9  1  0
  6  3  1  0
  9  3  1  0
  1 10  1  0
  1 11  1  0
  1 12  1  0
  2 13  1  0
  2 14  1  0
  4 15  1  0
  4 16  1  0
  5 17  1  0
  5 18  1  0
  7 19  1  0
  8 20  1  0
  8 21  1  0
M  END
