
     RDKit          3D

 21 22  0  0  0  0  0  0  0  0999 V2000
    2.8968    0.3940   -0.1392 C   0  0  0  0  0  0  0  0  0  0  0  0
    1.5573    0.4715    0.5873 C   0  0  0  0  0  0  0  0  0  0  0  0
    0.6996   -0.6558    0.0740 C   0  0  0  0  0  0  0  0  0  0  0  0
    0.5229   -0.4751   -1.4002 O   0  0  0  0  0  0  0  0  0  0  0  0
   -0.5133   -0.5881   -0.4960 C   0  0  0  0  0  0  0  0  0  0  0  0
   -1.4496   -1.7243   -0.6994 C   0  0  0  0  0  0  0  0  0  0  0  0
   -2.4542   -0.9639   -0.1024 O   0  0  0  0  0  0  0  0  0  0  0  0
   -1.7265    0.1786   -0.5156 C   0  0  0  0  0  0  0  0  0  0  0  0
   -1.9869    1.3062    0.3972 C   0  0  0  0  0  0  0  0  0  0  0  0
    3.0770   -0.6110   -0.5556 H   0  0  0  0  0  0  0  0  0  0  0  0
    2.8837    1.1175   -0.9923 H   0  0  0  0  0  0  0  0  0  0  0  0
    3.7002    0.6132    0.5819 H   0  0  0  0  0  0  0  0  0  0  0  0
    1.7446    0.2866    1.6573 H   0  0  0  0  0  0  0  0  0  0  0  0
    1.1599    1.4624    0.4212 H   0  0  0  0  0  0  0  0  0  0  0  0
    1.2459   -1.6401    0.1834 H   0  0  0  0  0  0  0  0  0  0  0  0
   -1.2062   -2.6753   -0.2063 H   0  0  0  0  0  0  0  0  0  0  0  0
   -1.6987   -1.8195   -1.7949 H   0  0  0  0  0  0  0  0  0  0  0  0
   -2.0836    0.4150   -1.5612 H   0  0  0  0  0  0  0  0  0  0  0  0
   -2.3480    0.9825    1.4177 H   0  0  0  0  0  0  0  0  0  0  0  0
   -1.1726    2.0042    0.5709 H   0  0  0  0  0  0  0  0  0  0  0  0
   -2.8484    1.9214    0.0007 H   0  0  0  0  0  0  0  0  0  0  0  0
  1  2  1  0
  2  3  1  0
  3  4  1  0
  4  5  1  0
  5  6  1  0
  6  7  1  0
  7  8  1  0
  8  9  1  0
  5  3  1  0
  8  5  1  0
  1 10  1  0
  1 11  1  0
  1 12  1  0
  2 13  1  0
  2 14  1  0
  3 15  1  0
  6 16  1  0
  6 17  1  0
  8 18  1  0
  9 19  1  0
  9 20  1  0
  9 21  1  0
M  END
