
     RDKit          3D

 20 20  0  0  0  0  0  0  0  0999 V2000
   -2.5439    0.4837   -0.3934 C   0  0  0  0  0  0  0  0  0  0  0  0
   -1.4061   -0.4799   -0.6890 C   0  0  0  0  0  0  0  0  0  0  0  0
   -0.5571   -0.5840    0.5562 C   0  0  0  0  0  0  0  0  0  0  0  0
    0.6410   -1.4559    0.5783 C   0  0  0  0  0  0  0  0  0  0  0  0
    0.7948    0.0300    0.4988 C   0  0  0  0  0  0  0  0  0  0  0  0
    1.3255    0.5718   -0.8083 C   0  0  0  0  0  0  0  0  0  0  0  0
    2.6834    1.0936   -0.5309 C   0  0  0  0  0  0  0  0  0  0  0  0
    3.4937    0.3512   -0.0324 O   0  0  0  0  0  0  0  0  0  0  0  0
   -2.8472    0.4808    0.6735 H   0  0  0  0  0  0  0  0  0  0  0  0
   -3.4262    0.2289   -1.0165 H   0  0  0  0  0  0  0  0  0  0  0  0
   -2.2875    1.5433   -0.6124 H   0  0  0  0  0  0  0  0  0  0  0  0
   -0.8660   -0.1014   -1.5506 H   0  0  0  0  0  0  0  0  0  0  0  0
   -1.8910   -1.4453   -0.9441 H   0  0  0  0  0  0  0  0  0  0  0  0
   -1.1250   -0.5023    1.5003 H   0  0  0  0  0  0  0  0  0  0  0  0
    0.9067   -1.9068    1.5764 H   0  0  0  0  0  0  0  0  0  0  0  0
    0.9621   -2.0796   -0.2726 H   0  0  0  0  0  0  0  0  0  0  0  0
    1.0951    0.6303    1.3829 H   0  0  0  0  0  0  0  0  0  0  0  0
    1.4698   -0.2520   -1.5691 H   0  0  0  0  0  0  0  0  0  0  0  0
    0.6504    1.2861   -1.2724 H   0  0  0  0  0  0  0  0  0  0  0  0
    2.9276    2.1076   -0.7711 H   0  0  0  0  0  0  0  0  0  0  0  0
  1  2  1  0
  2  3  1  0
  3  4  1  0
  4  5  1  0
  5  6  1  0
  6  7  1  0
  7  8  2  0
  5  3  1  0
  1  9  1  0
  1 10  1  0
  1 11  1  0
  2 12  1  0
  2 13  1  0
  3 14  1  0
  4 15  1  0
  4 16  1  0
  5 17  1  0
  6 18  1  0
  6 19  1  0
  7 20  1  0
M  END
