
     RDKit          3D

 17 17  0  0  0  0  0  0  0  0999 V2000
   -2.1894   -0.3067    0.3591 C   0  0  0  0  0  0  0  0  0  0  0  0
   -1.2160    0.2346   -0.6356 C   0  0  0  0  0  0  0  0  0  0  0  0
    0.1263    0.5721   -0.0085 C   0  0  0  0  0  0  0  0  0  0  0  0
    1.0938    1.1080   -0.9847 C   0  0  0  0  0  0  0  0  0  0  0  0
    1.5268    2.2390   -1.2622 O   0  0  0  0  0  0  0  0  0  0  0  0
    1.2991   -0.1760   -1.4418 O   0  0  0  0  0  0  0  0  0  0  0  0
    1.0407   -0.6314   -0.1293 C   0  0  0  0  0  0  0  0  0  0  0  0
    2.2491   -0.5870    0.7031 C   0  0  0  0  0  0  0  0  0  0  0  0
    3.2901   -0.1905    0.2224 O   0  0  0  0  0  0  0  0  0  0  0  0
   -2.7394    0.4985    0.8855 H   0  0  0  0  0  0  0  0  0  0  0  0
   -2.9338   -0.9939   -0.1086 H   0  0  0  0  0  0  0  0  0  0  0  0
   -1.6110   -0.9350    1.0816 H   0  0  0  0  0  0  0  0  0  0  0  0
   -1.6282    1.1491   -1.1259 H   0  0  0  0  0  0  0  0  0  0  0  0
   -1.1101   -0.5160   -1.4446 H   0  0  0  0  0  0  0  0  0  0  0  0
    0.0833    1.0356    0.9736 H   0  0  0  0  0  0  0  0  0  0  0  0
    0.5008   -1.5992   -0.1475 H   0  0  0  0  0  0  0  0  0  0  0  0
    2.2180   -0.9013    1.7289 H   0  0  0  0  0  0  0  0  0  0  0  0
  1  2  1  0
  2  3  1  0
  3  4  1  0
  4  5  2  0
  4  6  1  0
  6  7  1  0
  7  8  1  0
  8  9  2  0
  7  3  1  0
  1 10  1  0
  1 11  1  0
  1 12  1  0
  2 13  1  0
  2 14  1  0
  3 15  1  0
  7 16  1  0
  8 17  1  0
M  END
