
     RDKit          3D

 19 19  0  0  0  0  0  0  0  0999 V2000
    2.0783   -0.0348    0.2600 C   0  0  0  0  0  0  0  0  0  0  0  0
    0.9370   -0.4302   -0.6224 C   0  0  0  0  0  0  0  0  0  0  0  0
   -0.3961    0.0470   -0.1038 C   0  0  0  0  0  0  0  0  0  0  0  0
   -0.5131    1.5251    0.0359 C   0  0  0  0  0  0  0  0  0  0  0  0
   -0.9648   -0.7448    1.0420 C   0  0  0  0  0  0  0  0  0  0  0  0
   -1.3241   -1.7290    0.0936 O   0  0  0  0  0  0  0  0  0  0  0  0
   -1.5344   -0.6560   -0.7998 C   0  0  0  0  0  0  0  0  0  0  0  0
    2.5827   -0.9270    0.7287 H   0  0  0  0  0  0  0  0  0  0  0  0
    2.8742    0.4843   -0.3172 H   0  0  0  0  0  0  0  0  0  0  0  0
    1.7687    0.6643    1.0627 H   0  0  0  0  0  0  0  0  0  0  0  0
    1.0762    0.0780   -1.6212 H   0  0  0  0  0  0  0  0  0  0  0  0
    0.9308   -1.5090   -0.8483 H   0  0  0  0  0  0  0  0  0  0  0  0
   -0.8436    1.7838    1.0808 H   0  0  0  0  0  0  0  0  0  0  0  0
    0.5243    1.9487   -0.0561 H   0  0  0  0  0  0  0  0  0  0  0  0
   -1.1908    1.9543   -0.7218 H   0  0  0  0  0  0  0  0  0  0  0  0
   -0.2453   -1.0847    1.8021 H   0  0  0  0  0  0  0  0  0  0  0  0
   -1.8751   -0.2339    1.4204 H   0  0  0  0  0  0  0  0  0  0  0  0
   -1.3619   -0.9244   -1.8584 H   0  0  0  0  0  0  0  0  0  0  0  0
   -2.5230   -0.2116   -0.5773 H   0  0  0  0  0  0  0  0  0  0  0  0
  1  2  1  0
  2  3  1  0
  3  4  1  0
  3  5  1  0
  5  6  1  0
  6  7  1  0
  7  3  1  0
  1  8  1  0
  1  9  1  0
  1 10  1  0
  2 11  1  0
  2 12  1  0
  4 13  1  0
  4 14  1  0
  4 15  1  0
  5 16  1  0
  5 17  1  0
  7 18  1  0
  7 19  1  0
M  END
