
     RDKit          3D

 21 22  0  0  0  0  0  0  0  0999 V2000
   -2.1627    1.1524   -0.6959 C   0  0  0  0  0  0  0  0  0  0  0  0
   -1.6919   -0.1816   -0.2081 C   0  0  0  0  0  0  0  0  0  0  0  0
   -0.4521   -0.0948    0.6538 C   0  0  0  0  0  0  0  0  0  0  0  0
   -0.0531   -1.4929    1.0986 C   0  0  0  0  0  0  0  0  0  0  0  0
    1.0292   -1.4697    0.0579 C   0  0  0  0  0  0  0  0  0  0  0  0
    0.8067   -1.0051   -1.2086 O   0  0  0  0  0  0  0  0  0  0  0  0
    0.7820   -0.0972   -0.1977 C   0  0  0  0  0  0  0  0  0  0  0  0
    1.7611    1.0254   -0.0898 C   0  0  0  0  0  0  0  0  0  0  0  0
    3.0597    0.5780    0.0069 O   0  0  0  0  0  0  0  0  0  0  0  0
   -1.3103    1.8685   -0.6111 H   0  0  0  0  0  0  0  0  0  0  0  0
   -3.0078    1.5515   -0.0971 H   0  0  0  0  0  0  0  0  0  0  0  0
   -2.4523    1.0275   -1.7749 H   0  0  0  0  0  0  0  0  0  0  0  0
   -2.5268   -0.6465    0.3642 H   0  0  0  0  0  0  0  0  0  0  0  0
   -1.4801   -0.8773   -1.0541 H   0  0  0  0  0  0  0  0  0  0  0  0
   -0.4666    0.6664    1.4334 H   0  0  0  0  0  0  0  0  0  0  0  0
    0.4200   -1.4273    2.1181 H   0  0  0  0  0  0  0  0  0  0  0  0
   -0.8321   -2.2474    0.9832 H   0  0  0  0  0  0  0  0  0  0  0  0
    1.9790   -1.9866    0.2179 H   0  0  0  0  0  0  0  0  0  0  0  0
    1.5873    1.7036   -0.9600 H   0  0  0  0  0  0  0  0  0  0  0  0
    1.5363    1.6243    0.8164 H   0  0  0  0  0  0  0  0  0  0  0  0
    3.4746    0.3288   -0.8530 H   0  0  0  0  0  0  0  0  0  0  0  0
  1  2  1  0
  2  3  1  0
  3  4  1  0
  4  5  1  0
  5  6  1  0
  6  7  1  0
  7  8  1  0
  8  9  1  0
  7  3  1  0
  7  5  1  0
  1 10  1  0
  1 11  1  0
  1 12  1  0
  2 13  1  0
  2 14  1  0
  3 15  1  0
  4 16  1  0
  4 17  1  0
  5 18  1  0
  8 19  1  0
  8 20  1  0
  9 21  1  0
M  END
