
     RDKit          3D

 21 23  0  0  0  0  0  0  0  0999 V2000
    2.7203    0.8048   -0.7491 C   0  0  0  0  0  0  0  0  0  0  0  0
    2.0079   -0.1979    0.0868 C   0  0  0  0  0  0  0  0  0  0  0  0
    0.5359   -0.1830   -0.1062 C   0  0  0  0  0  0  0  0  0  0  0  0
   -0.2244    0.5650   -0.8872 C   0  0  0  0  0  0  0  0  0  0  0  0
   -1.6549    0.2104   -0.7352 C   0  0  0  0  0  0  0  0  0  0  0  0
   -2.1356    0.7108    0.6241 C   0  0  0  0  0  0  0  0  0  0  0  0
   -1.5802   -0.5573    1.2157 C   0  0  0  0  0  0  0  0  0  0  0  0
   -0.3445   -1.1388    0.6668 C   0  0  0  0  0  0  0  0  0  0  0  0
   -1.5783   -1.1503   -0.1232 C   0  0  0  0  0  0  0  0  0  0  0  0
    3.7530    0.4024   -0.9515 H   0  0  0  0  0  0  0  0  0  0  0  0
    2.2268    1.0073   -1.7128 H   0  0  0  0  0  0  0  0  0  0  0  0
    2.8780    1.7865   -0.2544 H   0  0  0  0  0  0  0  0  0  0  0  0
    2.3478   -1.2390   -0.1007 H   0  0  0  0  0  0  0  0  0  0  0  0
    2.1840   -0.0045    1.1791 H   0  0  0  0  0  0  0  0  0  0  0  0
    0.1424    1.3266   -1.5434 H   0  0  0  0  0  0  0  0  0  0  0  0
   -2.3131    0.3750   -1.5710 H   0  0  0  0  0  0  0  0  0  0  0  0
   -1.6236    1.6310    0.9065 H   0  0  0  0  0  0  0  0  0  0  0  0
   -3.2500    0.7406    0.5998 H   0  0  0  0  0  0  0  0  0  0  0  0
   -2.0175   -1.0118    2.0986 H   0  0  0  0  0  0  0  0  0  0  0  0
    0.0585   -2.0744    1.0288 H   0  0  0  0  0  0  0  0  0  0  0  0
   -2.1325   -2.0033   -0.4555 H   0  0  0  0  0  0  0  0  0  0  0  0
  1  2  1  0
  2  3  1  0
  3  4  2  0
  4  5  1  0
  5  6  1  0
  6  7  1  0
  7  8  1  0
  8  9  1  0
  8  3  1  0
  9  5  1  0
  9  7  1  0
  1 10  1  0
  1 11  1  0
  1 12  1  0
  2 13  1  0
  2 14  1  0
  4 15  1  0
  5 16  1  0
  6 17  1  0
  6 18  1  0
  7 19  1  0
  8 20  1  0
  9 21  1  0
M  END
